0:0
     RDKit          3D

 46 47  0  0  0  0  0  0  0  0999 V2000
   -4.1780   25.6730  -27.3730 H   0  0  0  0  0  0  0  0  0  0  0  0
   -4.1020   24.6750  -27.2070 O   0  0  0  0  0  0  0  0  0  0  0  0
   -3.4170   23.8280  -28.0790 C   0  0  0  0  0  0  0  0  0  0  0  0
   -3.7090   22.4620  -28.0730 C   0  0  0  0  0  0  0  0  0  0  0  0
   -4.4703   22.0677  -27.3838 H   0  0  0  0  0  0  0  0  0  0  0  0
   -3.0380   21.5940  -28.9390 C   0  0  0  0  0  0  0  0  0  0  0  0
   -3.2779   20.5205  -28.9296 H   0  0  0  0  0  0  0  0  0  0  0  0
   -2.0610   22.0810  -29.8200 C   0  0  0  0  0  0  0  0  0  0  0  0
   -1.3500   21.1310  -30.7540 C   0  0  0  0  0  0  0  0  0  0  0  0
   -1.7843   20.1273  -30.6355 H   0  0  0  0  0  0  0  0  0  0  0  0
   -0.2814   21.1401  -30.4933 H   0  0  0  0  0  0  0  0  0  0  0  0
   -1.4780   21.5540  -32.2260 C   0  0  0  0  0  0  0  0  0  0  0  0
   -0.6096   21.1705  -32.7817 H   0  0  0  0  0  0  0  0  0  0  0  0
   -1.5209   22.6527  -32.2594 H   0  0  0  0  0  0  0  0  0  0  0  0
   -2.7310   21.0240  -32.8610 C   0  0  0  0  0  0  0  0  0  0  0  0
   -2.7240   19.8760  -33.3790 O   0  0  0  0  0  0  0  0  0  0  0  0
   -3.8670   21.8950  -32.9890 N   0  0  0  0  0  0  0  0  0  0  0  0
   -4.8910   22.0510  -32.1940 C   0  0  0  0  0  0  0  0  0  0  0  0
   -5.3920   23.4240  -31.9900 C   0  0  0  0  0  0  0  0  0  0  0  0
   -6.4910   23.7630  -32.5060 O   0  0  0  0  0  0  0  0  0  0  0  0
   -4.6500   24.3570  -31.1930 N   0  0  0  0  0  0  0  0  0  0  0  0
   -5.2110   25.6070  -30.6920 C   0  0  0  0  0  0  0  0  0  0  0  0
   -5.5965   26.1975  -31.5362 H   0  0  0  0  0  0  0  0  0  0  0  0
   -4.4249   26.1721  -30.1698 H   0  0  0  0  0  0  0  0  0  0  0  0
   -6.3480   25.3150  -29.7190 C   0  0  0  0  0  0  0  0  0  0  0  0
   -5.9804   25.4094  -28.6865 H   0  0  0  0  0  0  0  0  0  0  0  0
   -7.1653   26.0324  -29.8842 H   0  0  0  0  0  0  0  0  0  0  0  0
   -6.7185   24.2926  -29.8842 H   0  0  0  0  0  0  0  0  0  0  0  0
   -5.5510   20.9090  -31.4480 C   0  0  0  0  0  0  0  0  0  0  0  0
   -4.9136   20.6171  -30.6003 H   0  0  0  0  0  0  0  0  0  0  0  0
   -6.5357   21.2458  -31.0918 H   0  0  0  0  0  0  0  0  0  0  0  0
   -5.7490   19.7140  -32.3520 C   0  0  0  0  0  0  0  0  0  0  0  0
   -5.7810   18.4150  -31.8150 C   0  0  0  0  0  0  0  0  0  0  0  0
   -5.6419   18.2662  -30.7340 H   0  0  0  0  0  0  0  0  0  0  0  0
   -5.9890   17.3100  -32.6490 C   0  0  0  0  0  0  0  0  0  0  0  0
   -6.0171   16.2972  -32.2207 H   0  0  0  0  0  0  0  0  0  0  0  0
   -6.1610   17.4900  -34.0240 C   0  0  0  0  0  0  0  0  0  0  0  0
   -6.3295   16.6200  -34.6758 H   0  0  0  0  0  0  0  0  0  0  0  0
   -6.1190   18.7750  -34.5710 C   0  0  0  0  0  0  0  0  0  0  0  0
   -6.2439   18.9155  -35.6548 H   0  0  0  0  0  0  0  0  0  0  0  0
   -5.9180   19.8840  -33.7400 C   0  0  0  0  0  0  0  0  0  0  0  0
   -5.8919   20.8944  -34.1740 H   0  0  0  0  0  0  0  0  0  0  0  0
   -1.7690   23.4560  -29.8260 C   0  0  0  0  0  0  0  0  0  0  0  0
   -1.0064   23.8505  -30.5136 H   0  0  0  0  0  0  0  0  0  0  0  0
   -2.4440   24.3260  -28.9610 C   0  0  0  0  0  0  0  0  0  0  0  0
   -2.1430   25.6790  -28.9790 O   0  0  0  0  0  0  0  0  0  0  0  0
  1  2  1  0
  2  3  1  0
  3  4  2  0
  4  5  1  0
  4  6  1  0
  6  7  1  0
  6  8  2  0
  8  9  1  0
  9 10  1  0
  9 11  1  0
  9 12  1  0
 12 13  1  0
 12 14  1  0
 12 15  1  0
 15 16  2  0
 15 17  1  0
 17 18  2  0
 18 19  1  0
 19 20  2  0
 19 21  1  0
 21 22  1  0
 22 23  1  0
 22 24  1  0
 22 25  1  0
 25 26  1  0
 25 27  1  0
 25 28  1  0
 18 29  1  0
 29 30  1  0
 29 31  1  0
 29 32  1  0
 32 33  2  0
 33 34  1  0
 33 35  1  0
 35 36  1  0
 35 37  2  0
 37 38  1  0
 37 39  1  0
 39 40  1  0
 39 41  2  0
 41 42  1  0
  8 43  1  0
 43 44  1  0
 43 45  2  0
 45 46  1  0
 45  3  1  0
 41 32  1  0
M  CHG  2  21  -1  46  -1
M  END
>  <UniqueID>  (1) 
1

>  <SMILES>  (1) 
CC[N-]C(=O)/C(Cc1ccccc1)=N/C(=O)CCc1ccc(O)c([O-])c1

>  <Energy>  (1) 
44.019978142091325

>  <Genealogy>  (1) 
CC[N-]C(=O)C(Cc1ccccc1)=NC(=O)CCc1ccc(O)c([O-])c1 (protonated)
CC[N-]C(=O)/C(Cc1ccccc1)=N/C(=O)CCc1ccc(O)c([O-])c1 (cis-trans isomerization)
CC[N-]C(=O)/C(Cc1ccccc1)=N/C(=O)CCc1ccc(O)c([O-])c1 (3D coordinates assigned)
CC[N-]C(=O)/C(Cc1ccccc1)=N/C(=O)CCc1ccc(O)c([O-])c1 (optimized conformer: 44.019978142091325 kcal/mol)

>  <smiles>  (1) 
CCNC(=O)C(Cc1ccccc1)=NC(=O)CCc1ccc(O)c(O)c1

>  <score_type>  (1) 
oracle

>  <origin>  (1) 
adg

>  <m_score__min__energy>  (1) 
-11.369999999999999

>  <m_primary>  (1) 
energy

$$$$
1:0
     RDKit          3D

 47 49  0  0  0  0  0  0  0  0999 V2000
   -6.4220   25.4720  -29.7010 C   0  0  0  0  0  0  0  0  0  0  0  0
   -5.9140   24.6310  -30.8740 C   0  0  0  0  0  0  0  0  0  0  0  0
   -4.7340   23.8200  -30.4860 N   0  0  0  0  0  0  0  0  0  0  0  0
   -3.7330   24.4980  -29.8390 C   0  0  0  0  0  0  0  0  0  0  0  0
   -2.4360   23.9820  -29.7300 C   0  0  0  0  0  0  0  0  0  0  0  0
   -1.3940   24.7710  -29.0140 C   0  0  0  0  0  0  0  0  0  0  0  0
   -0.4240   24.2020  -28.4460 O   0  0  0  0  0  0  0  0  0  0  0  0
   -1.4800   26.1570  -28.9550 O   0  0  0  0  0  0  0  0  0  0  0  0
   -2.1510   22.7580  -30.3530 C   0  0  0  0  0  0  0  0  0  0  0  0
   -0.9710   22.3060  -30.3530 O   0  0  0  0  0  0  0  0  0  0  0  0
   -3.1810   22.0310  -30.9740 C   0  0  0  0  0  0  0  0  0  0  0  0
   -2.8940   20.8300  -31.6450 C   0  0  0  0  0  0  0  0  0  0  0  0
   -3.9050   20.1060  -32.2570 C   0  0  0  0  0  0  0  0  0  0  0  0
   -5.2380   20.4910  -32.1140 C   0  0  0  0  0  0  0  0  0  0  0  0
   -6.2600   19.7050  -32.7560 N   0  0  0  0  0  0  0  0  0  0  0  0
   -6.1260   19.4840  -34.2090 C   0  0  0  0  0  0  0  0  0  0  0  0
   -5.1680   18.3350  -34.5770 C   0  0  0  0  0  0  0  0  0  0  0  0
   -5.6630   16.9250  -34.1930 C   0  0  0  0  0  0  0  0  0  0  0  0
   -7.0260   16.8680  -33.4870 C   0  0  0  0  0  0  0  0  0  0  0  0
   -7.0140   17.4160  -32.0520 C   0  0  0  0  0  0  0  0  0  0  0  0
   -7.1990   18.9380  -31.9180 C   0  0  0  0  0  0  0  0  0  0  0  0
   -5.5630   21.6400  -31.3560 C   0  0  0  0  0  0  0  0  0  0  0  0
   -6.9770   21.7620  -30.8440 C   0  0  0  0  0  0  0  0  0  0  0  0
   -4.5170   22.5220  -30.9280 C   0  0  0  0  0  0  0  0  0  0  0  0
   -6.1327   24.9930  -28.7540 H   0  0  0  0  0  0  0  0  0  0  0  0
   -5.9805   26.4782  -29.7529 H   0  0  0  0  0  0  0  0  0  0  0  0
   -7.5180   25.5494  -29.7529 H   0  0  0  0  0  0  0  0  0  0  0  0
   -6.7177   23.9576  -31.2064 H   0  0  0  0  0  0  0  0  0  0  0  0
   -5.6155   25.3116  -31.6850 H   0  0  0  0  0  0  0  0  0  0  0  0
   -3.9559   25.4779  -29.3916 H   0  0  0  0  0  0  0  0  0  0  0  0
   -1.8583   20.4615  -31.6848 H   0  0  0  0  0  0  0  0  0  0  0  0
   -3.6542   19.2209  -32.8602 H   0  0  0  0  0  0  0  0  0  0  0  0
   -7.1203   19.2509  -34.6176 H   0  0  0  0  0  0  0  0  0  0  0  0
   -5.7011   20.4047  -34.6354 H   0  0  0  0  0  0  0  0  0  0  0  0
   -5.0112   18.3569  -35.6655 H   0  0  0  0  0  0  0  0  0  0  0  0
   -4.2474   18.5055  -33.9996 H   0  0  0  0  0  0  0  0  0  0  0  0
   -5.7345   16.3290  -35.1148 H   0  0  0  0  0  0  0  0  0  0  0  0
   -4.9326   16.5376  -33.4675 H   0  0  0  0  0  0  0  0  0  0  0  0
   -7.7445   17.4574  -34.0756 H   0  0  0  0  0  0  0  0  0  0  0  0
   -7.3025   15.8056  -33.4179 H   0  0  0  0  0  0  0  0  0  0  0  0
   -7.8273   16.9263  -31.4963 H   0  0  0  0  0  0  0  0  0  0  0  0
   -6.0106   17.1996  -31.6565 H   0  0  0  0  0  0  0  0  0  0  0  0
   -8.2262   19.1945  -32.2166 H   0  0  0  0  0  0  0  0  0  0  0  0
   -6.9994   19.2041  -30.8695 H   0  0  0  0  0  0  0  0  0  0  0  0
   -6.9700   21.7614  -29.7440 H   0  0  0  0  0  0  0  0  0  0  0  0
   -7.4187   22.7016  -31.2073 H   0  0  0  0  0  0  0  0  0  0  0  0
   -7.5732   20.9120  -31.2073 H   0  0  0  0  0  0  0  0  0  0  0  0
  1  2  1  0
  2  3  1  0
  3  4  1  0
  4  5  2  0
  5  6  1  0
  6  7  2  0
  6  8  1  0
  5  9  1  0
  9 10  2  0
  9 11  1  0
 11 12  2  0
 12 13  1  0
 13 14  2  0
 14 15  1  0
 15 16  1  0
 16 17  1  0
 17 18  1  0
 18 19  1  0
 19 20  1  0
 20 21  1  0
 14 22  1  0
 22 23  1  0
 22 24  2  0
 24  3  1  0
 24 11  1  0
 21 15  1  0
  1 25  1  0
  1 26  1  0
  1 27  1  0
  2 28  1  0
  2 29  1  0
  4 30  1  0
 12 31  1  0
 13 32  1  0
 16 33  1  0
 16 34  1  0
 17 35  1  0
 17 36  1  0
 18 37  1  0
 18 38  1  0
 19 39  1  0
 19 40  1  0
 20 41  1  0
 20 42  1  0
 21 43  1  0
 21 44  1  0
 23 45  1  0
 23 46  1  0
 23 47  1  0
M  CHG  1   8  -1
M  END
>  <UniqueID>  (2) 
2

>  <SMILES>  (2) 
CCn1cc(C(=O)[O-])c(=O)c2ccc(N3CCCCCC3)c(C)c21

>  <Energy>  (2) 
84.98058426721666

>  <Genealogy>  (2) 
CCn1cc(C(=O)[O-])c(=O)c2ccc(N3CCCCCC3)c(C)c21 (protonated)
CCn1cc(C(=O)[O-])c(=O)c2ccc(N3CCCCCC3)c(C)c21 (3D coordinates assigned)
CCn1cc(C(=O)[O-])c(=O)c2ccc(N3CCCCCC3)c(C)c21 (nonaromatic ring conformer: 84.98058426721666 kcal/mol)

>  <smiles>  (2) 
CCn1cc(C(=O)O)c(=O)c2ccc(N3CCCCCC3)c(C)c21

>  <score_type>  (2) 
oracle

>  <origin>  (2) 
adg

>  <m_score__min__energy>  (2) 
-8.3399999999999999

>  <m_primary>  (2) 
energy

$$$$
2:0
     RDKit          3D

 55 58  0  0  0  0  0  0  0  0999 V2000
   -2.3200   20.0510  -27.2530 C   0  0  0  0  0  0  0  0  0  0  0  0
   -1.5310   21.3300  -26.9750 C   0  0  0  0  0  0  0  0  0  0  0  0
   -1.7260   22.3940  -28.0650 C   0  0  0  0  0  0  0  0  0  0  0  0
   -3.0770   22.2620  -28.7870 C   0  0  0  0  0  0  0  0  0  0  0  0
   -2.9680   22.7310  -30.1770 N   0  0  0  0  0  0  0  0  0  0  0  0
   -3.7950   23.8120  -30.6300 C   0  0  0  0  0  0  0  0  0  0  0  0
   -3.4260   25.0010  -30.4260 O   0  0  0  0  0  0  0  0  0  0  0  0
   -5.0820   23.5720  -31.3760 C   0  0  2  0  0  0  0  0  0  0  0  0
   -6.3310   23.4400  -30.4790 C   0  0  0  0  0  0  0  0  0  0  0  0
   -7.4680   22.6480  -31.0690 C   0  0  0  0  0  0  0  0  0  0  0  0
   -8.4630   23.2900  -31.8260 C   0  0  0  0  0  0  0  0  0  0  0  0
   -9.5470   22.5620  -32.3290 C   0  0  0  0  0  0  0  0  0  0  0  0
   -9.6440   21.1910  -32.0810 C   0  0  0  0  0  0  0  0  0  0  0  0
   -8.6610   20.5440  -31.3270 C   0  0  0  0  0  0  0  0  0  0  0  0
   -7.5790   21.2690  -30.8180 C   0  0  0  0  0  0  0  0  0  0  0  0
   -4.9890   22.5140  -32.3890 N   0  0  0  0  0  0  0  0  0  0  0  0
   -4.3310   21.3870  -32.3810 C   0  0  0  0  0  0  0  0  0  0  0  0
   -5.1070   20.1380  -32.5860 C   0  0  0  0  0  0  0  0  0  0  0  0
   -5.6580   19.8310  -33.8440 C   0  0  0  0  0  0  0  0  0  0  0  0
   -6.3970   18.6580  -34.0260 C   0  0  0  0  0  0  0  0  0  0  0  0
   -6.5990   17.7850  -32.9550 C   0  0  0  0  0  0  0  0  0  0  0  0
   -6.0660   18.0840  -31.6990 C   0  0  0  0  0  0  0  0  0  0  0  0
   -5.3270   19.2560  -31.5120 C   0  0  0  0  0  0  0  0  0  0  0  0
   -2.8550   21.3160  -32.2000 C   0  0  0  0  0  0  0  0  0  0  0  0
   -2.0780   20.6180  -33.1430 C   0  0  0  0  0  0  0  0  0  0  0  0
   -0.6870   20.5780  -33.0340 C   0  0  0  0  0  0  0  0  0  0  0  0
   -0.0530   21.2360  -31.9810 C   0  0  0  0  0  0  0  0  0  0  0  0
   -0.8080   21.9360  -31.0400 C   0  0  0  0  0  0  0  0  0  0  0  0
   -2.2090   21.9860  -31.1410 C   0  0  0  0  0  0  0  0  0  0  0  0
   -2.6083   19.5836  -26.2999 H   0  0  0  0  0  0  0  0  0  0  0  0
   -3.2242   20.2960  -27.8296 H   0  0  0  0  0  0  0  0  0  0  0  0
   -1.6954   19.3529  -27.8296 H   0  0  0  0  0  0  0  0  0  0  0  0
   -1.8634   21.7466  -26.0127 H   0  0  0  0  0  0  0  0  0  0  0  0
   -0.4636   21.0650  -26.9559 H   0  0  0  0  0  0  0  0  0  0  0  0
   -1.6714   23.3891  -27.5994 H   0  0  0  0  0  0  0  0  0  0  0  0
   -0.9332   22.2518  -28.8142 H   0  0  0  0  0  0  0  0  0  0  0  0
   -3.3868   21.2065  -28.7846 H   0  0  0  0  0  0  0  0  0  0  0  0
   -3.8219   22.8778  -28.2618 H   0  0  0  0  0  0  0  0  0  0  0  0
   -5.2384   24.5070  -31.9339 H   0  0  0  0  0  0  0  0  0  0  0  0
   -6.0262   22.9503  -29.5424 H   0  0  0  0  0  0  0  0  0  0  0  0
   -6.7134   24.4618  -30.3389 H   0  0  0  0  0  0  0  0  0  0  0  0
   -8.3893   24.3695  -32.0240 H   0  0  0  0  0  0  0  0  0  0  0  0
  -10.3233   23.0699  -32.9201 H   0  0  0  0  0  0  0  0  0  0  0  0
  -10.4952   20.6196  -32.4797 H   0  0  0  0  0  0  0  0  0  0  0  0
   -8.7385   19.4639  -31.1339 H   0  0  0  0  0  0  0  0  0  0  0  0
   -6.8112   20.7581  -30.2185 H   0  0  0  0  0  0  0  0  0  0  0  0
   -5.5064   20.5181  -34.6895 H   0  0  0  0  0  0  0  0  0  0  0  0
   -6.8197   18.4227  -35.0139 H   0  0  0  0  0  0  0  0  0  0  0  0
   -7.1782   16.8613  -33.1006 H   0  0  0  0  0  0  0  0  0  0  0  0
   -6.2279   17.3964  -30.8558 H   0  0  0  0  0  0  0  0  0  0  0  0
   -4.9151   19.4900  -30.5192 H   0  0  0  0  0  0  0  0  0  0  0  0
   -2.5728   20.0975  -33.9762 H   0  0  0  0  0  0  0  0  0  0  0  0
   -0.0919   20.0281  -33.7779 H   0  0  0  0  0  0  0  0  0  0  0  0
    1.0429   21.2031  -31.8923 H   0  0  0  0  0  0  0  0  0  0  0  0
   -0.3024   22.4536  -30.2114 H   0  0  0  0  0  0  0  0  0  0  0  0
  1  2  1  0
  2  3  1  0
  3  4  1  0
  4  5  1  0
  5  6  1  0
  6  7  2  0
  6  8  1  0
  8  9  1  0
  9 10  1  0
 10 11  2  0
 11 12  1  0
 12 13  2  0
 13 14  1  0
 14 15  2  0
  8 16  1  0
 16 17  2  0
 17 18  1  0
 18 19  2  0
 19 20  1  0
 20 21  2  0
 21 22  1  0
 22 23  2  0
 17 24  1  0
 24 25  2  0
 25 26  1  0
 26 27  2  0
 27 28  1  0
 28 29  2  0
 29  5  1  0
 15 10  1  0
 23 18  1  0
 29 24  1  0
  1 30  1  0
  1 31  1  0
  1 32  1  0
  2 33  1  0
  2 34  1  0
  3 35  1  0
  3 36  1  0
  4 37  1  0
  4 38  1  0
  8 39  1  6
  9 40  1  0
  9 41  1  0
 11 42  1  0
 12 43  1  0
 13 44  1  0
 14 45  1  0
 15 46  1  0
 19 47  1  0
 20 48  1  0
 21 49  1  0
 22 50  1  0
 23 51  1  0
 25 52  1  0
 26 53  1  0
 27 54  1  0
 28 55  1  0
M  END
>  <UniqueID>  (3) 
3

>  <SMILES>  (3) 
CCCCN1C(=O)[C@H](Cc2ccccc2)N=C(c2ccccc2)c2ccccc21

>  <Energy>  (3) 
71.10620173430206

>  <Genealogy>  (3) 
CCCCN1C(=O)[C@H](Cc2ccccc2)N=C(c2ccccc2)c2ccccc21 (chirality)
CCCCN1C(=O)[C@H](Cc2ccccc2)N=C(c2ccccc2)c2ccccc21 (3D coordinates assigned)
CCCCN1C(=O)[C@H](Cc2ccccc2)N=C(c2ccccc2)c2ccccc21 (nonaromatic ring conformer: 71.10620173430206 kcal/mol)

>  <smiles>  (3) 
CCCCN1C(=O)C(Cc2ccccc2)N=C(c2ccccc2)c2ccccc21

>  <score_type>  (3) 
oracle

>  <origin>  (3) 
adg

>  <m_score__min__energy>  (3) 
-8.1799999999999997

>  <m_primary>  (3) 
energy

$$$$
3:0
     RDKit          3D

 50 51  0  0  0  0  0  0  0  0999 V2000
   -3.8650   16.7520  -34.3940 C   0  0  0  0  0  0  0  0  0  0  0  0
   -5.3090   16.4190  -34.0300 C   0  0  0  0  0  0  0  0  0  0  0  0
   -5.9740   17.5930  -33.4470 N   0  0  0  0  0  0  0  0  0  0  0  0
   -6.8900   17.4290  -32.3070 C   0  0  0  0  0  0  0  0  0  0  0  0
   -6.1300   17.5420  -30.9880 C   0  0  0  0  0  0  0  0  0  0  0  0
   -5.8620   18.8720  -34.1020 C   0  0  0  0  0  0  0  0  0  0  0  0
   -5.7770   18.9290  -35.3610 O   0  0  0  0  0  0  0  0  0  0  0  0
   -5.8360   20.1270  -33.3260 C   0  0  0  0  0  0  0  0  0  0  0  0
   -4.6940   20.9110  -33.1740 C   0  0  0  0  0  0  0  0  0  0  0  0
   -3.4200   20.6440  -33.7660 N   0  0  0  0  0  0  0  0  0  0  0  0
   -2.5250   19.6750  -33.2090 C   0  0  0  0  0  0  0  0  0  0  0  0
   -2.7330   19.2150  -32.0510 O   0  0  0  0  0  0  0  0  0  0  0  0
   -1.3150   19.2220  -33.9860 C   0  0  0  0  0  0  0  0  0  0  0  0
   -0.8030   20.2440  -34.9240 N   0  0  0  0  0  0  0  0  0  0  0  0
    0.3150   19.7430  -35.7430 C   0  0  0  0  0  0  0  0  0  0  0  0
   -0.4440   21.5020  -34.2460 C   0  0  0  0  0  0  0  0  0  0  0  0
   -5.0770   22.3310  -32.3550 S   0  0  0  0  0  0  0  0  0  0  0  0
   -6.7070   21.9610  -32.1690 C   0  0  0  0  0  0  0  0  0  0  0  0
   -6.9720   20.7200  -32.7440 C   0  0  0  0  0  0  0  0  0  0  0  0
   -8.3670   20.1520  -32.7860 C   0  0  0  0  0  0  0  0  0  0  0  0
   -9.2570   20.7840  -31.7010 C   0  0  0  0  0  0  0  0  0  0  0  0
   -9.1430   22.3170  -31.7140 C   0  0  0  0  0  0  0  0  0  0  0  0
   -7.7060   22.7710  -31.3970 C   0  0  0  0  0  0  0  0  0  0  0  0
   -3.2770   16.8876  -33.4743 H   0  0  0  0  0  0  0  0  0  0  0  0
   -3.4367   15.9290  -34.9850 H   0  0  0  0  0  0  0  0  0  0  0  0
   -3.8404   17.6794  -34.9850 H   0  0  0  0  0  0  0  0  0  0  0  0
   -5.8493   16.1095  -34.9368 H   0  0  0  0  0  0  0  0  0  0  0  0
   -5.3120   15.6037  -33.2915 H   0  0  0  0  0  0  0  0  0  0  0  0
   -7.6620   18.2115  -32.3478 H   0  0  0  0  0  0  0  0  0  0  0  0
   -7.3545   16.4336  -32.3650 H   0  0  0  0  0  0  0  0  0  0  0  0
   -6.8338   17.4374  -30.1492 H   0  0  0  0  0  0  0  0  0  0  0  0
   -5.3722   16.7467  -30.9322 H   0  0  0  0  0  0  0  0  0  0  0  0
   -5.6363   18.5234  -30.9322 H   0  0  0  0  0  0  0  0  0  0  0  0
   -3.1190   21.2030  -34.5950 H   0  0  0  0  0  0  0  0  0  0  0  0
   -0.5160   18.9721  -33.2725 H   0  0  0  0  0  0  0  0  0  0  0  0
   -1.6218   18.3537  -34.5876 H   0  0  0  0  0  0  0  0  0  0  0  0
    1.1191   19.3826  -35.0846 H   0  0  0  0  0  0  0  0  0  0  0  0
   -0.0371   18.9166  -36.3779 H   0  0  0  0  0  0  0  0  0  0  0  0
    0.6975   20.5558  -36.3779 H   0  0  0  0  0  0  0  0  0  0  0  0
   -0.4856   21.3562  -33.1565 H   0  0  0  0  0  0  0  0  0  0  0  0
    0.5745   21.7980  -34.5377 H   0  0  0  0  0  0  0  0  0  0  0  0
   -1.1529   22.2910  -34.5377 H   0  0  0  0  0  0  0  0  0  0  0  0
   -8.8071   20.3536  -33.7737 H   0  0  0  0  0  0  0  0  0  0  0  0
   -8.3084   19.0691  -32.6019 H   0  0  0  0  0  0  0  0  0  0  0  0
  -10.3037   20.5002  -31.8849 H   0  0  0  0  0  0  0  0  0  0  0  0
   -8.9234   20.4176  -30.7189 H   0  0  0  0  0  0  0  0  0  0  0  0
   -9.4256   22.6894  -32.7097 H   0  0  0  0  0  0  0  0  0  0  0  0
   -9.8147   22.7229  -30.9432 H   0  0  0  0  0  0  0  0  0  0  0  0
   -7.5955   23.8317  -31.6668 H   0  0  0  0  0  0  0  0  0  0  0  0
   -7.5206   22.6270  -30.3224 H   0  0  0  0  0  0  0  0  0  0  0  0
  1  2  1  0
  2  3  1  0
  3  4  1  0
  4  5  1  0
  3  6  1  0
  6  7  2  0
  6  8  1  0
  8  9  2  0
  9 10  1  0
 10 11  1  0
 11 12  2  0
 11 13  1  0
 13 14  1  0
 14 15  1  0
 14 16  1  0
  9 17  1  0
 17 18  1  0
 18 19  2  0
 19 20  1  0
 20 21  1  0
 21 22  1  0
 22 23  1  0
 19  8  1  0
 23 18  1  0
  1 24  1  0
  1 25  1  0
  1 26  1  0
  2 27  1  0
  2 28  1  0
  4 29  1  0
  4 30  1  0
  5 31  1  0
  5 32  1  0
  5 33  1  0
 10 34  1  0
 13 35  1  0
 13 36  1  0
 15 37  1  0
 15 38  1  0
 15 39  1  0
 16 40  1  0
 16 41  1  0
 16 42  1  0
 20 43  1  0
 20 44  1  0
 21 45  1  0
 21 46  1  0
 22 47  1  0
 22 48  1  0
 23 49  1  0
 23 50  1  0
M  END
>  <UniqueID>  (4) 
4

>  <SMILES>  (4) 
CCN(CC)C(=O)c1c(NC(=O)CN(C)C)sc2c1CCCC2

>  <Energy>  (4) 
77.1309640018364

>  <Genealogy>  (4) 
CCN(CC)C(=O)c1c(NC(=O)CN(C)C)sc2c1CCCC2 (3D coordinates assigned)
CCN(CC)C(=O)c1c(NC(=O)CN(C)C)sc2c1CCCC2 (nonaromatic ring conformer: 77.1309640018364 kcal/mol)

>  <smiles>  (4) 
CCN(CC)C(=O)c1c(NC(=O)CN(C)C)sc2c1CCCC2

>  <score_type>  (4) 
oracle

>  <origin>  (4) 
adg

>  <m_score__min__energy>  (4) 
-7.71

>  <m_primary>  (4) 
energy

$$$$
4:0
     RDKit          3D

 51 54  0  0  0  0  0  0  0  0999 V2000
   -1.8350   25.6760  -28.7130 O   0  0  0  0  0  0  0  0  0  0  0  0
   -2.3820   24.7420  -29.3570 C   0  0  0  0  0  0  0  0  0  0  0  0
   -3.4840   25.0550  -30.2180 N   0  0  0  0  0  0  0  0  0  0  0  0
   -4.8920   24.9240  -29.8540 C   0  0  0  0  0  0  0  0  0  0  0  0
   -5.7600   24.8880  -31.1130 C   0  0  0  0  0  0  0  0  0  0  0  0
   -5.8930   23.4840  -31.6450 C   0  0  0  0  0  0  0  0  0  0  0  0
   -7.1550   22.8750  -31.7220 C   0  0  0  0  0  0  0  0  0  0  0  0
   -7.2790   21.5610  -32.1810 C   0  0  0  0  0  0  0  0  0  0  0  0
   -6.1410   20.8280  -32.5630 C   0  0  0  0  0  0  0  0  0  0  0  0
   -6.2730   19.4300  -33.0480 C   0  0  0  0  0  0  0  0  0  0  0  0
   -7.0890   18.5090  -32.3650 C   0  0  0  0  0  0  0  0  0  0  0  0
   -7.2130   17.1950  -32.8240 C   0  0  0  0  0  0  0  0  0  0  0  0
   -6.5250   16.7830  -33.9680 C   0  0  0  0  0  0  0  0  0  0  0  0
   -5.7110   17.6870  -34.6550 C   0  0  0  0  0  0  0  0  0  0  0  0
   -5.5850   19.0030  -34.2010 C   0  0  0  0  0  0  0  0  0  0  0  0
   -4.8780   21.4380  -32.4750 C   0  0  0  0  0  0  0  0  0  0  0  0
   -4.7550   22.7540  -32.0170 C   0  0  0  0  0  0  0  0  0  0  0  0
   -1.8400   23.3730  -29.2360 C   0  0  0  0  0  0  0  0  0  0  0  0
   -1.5390   22.8530  -27.9690 C   0  0  0  0  0  0  0  0  0  0  0  0
   -1.0340   21.5560  -27.8400 C   0  0  0  0  0  0  0  0  0  0  0  0
   -0.8350   20.7510  -28.9740 C   0  0  0  0  0  0  0  0  0  0  0  0
   -0.2970   19.3720  -28.8380 C   0  0  0  0  0  0  0  0  0  0  0  0
   -0.3150   18.7170  -27.5930 C   0  0  0  0  0  0  0  0  0  0  0  0
    0.1920   17.4190  -27.4680 C   0  0  0  0  0  0  0  0  0  0  0  0
    0.7210   16.7630  -28.5810 C   0  0  0  0  0  0  0  0  0  0  0  0
    0.7450   17.4030  -29.8230 C   0  0  0  0  0  0  0  0  0  0  0  0
    0.2390   18.6990  -29.9540 C   0  0  0  0  0  0  0  0  0  0  0  0
   -1.1600   21.2690  -30.2410 C   0  0  0  0  0  0  0  0  0  0  0  0
   -1.6640   22.5650  -30.3690 C   0  0  0  0  0  0  0  0  0  0  0  0
   -5.0358   23.9928  -29.2864 H   0  0  0  0  0  0  0  0  0  0  0  0
   -5.1863   25.7870  -29.2387 H   0  0  0  0  0  0  0  0  0  0  0  0
   -6.7604   25.2756  -30.8700 H   0  0  0  0  0  0  0  0  0  0  0  0
   -5.2798   25.5081  -31.8843 H   0  0  0  0  0  0  0  0  0  0  0  0
   -8.0519   23.4353  -31.4192 H   0  0  0  0  0  0  0  0  0  0  0  0
   -8.2741   21.0964  -32.2440 H   0  0  0  0  0  0  0  0  0  0  0  0
   -7.6332   18.8259  -31.4631 H   0  0  0  0  0  0  0  0  0  0  0  0
   -7.8540   16.4832  -32.2832 H   0  0  0  0  0  0  0  0  0  0  0  0
   -6.6241   15.7481  -34.3274 H   0  0  0  0  0  0  0  0  0  0  0  0
   -5.1681   17.3625  -35.5550 H   0  0  0  0  0  0  0  0  0  0  0  0
   -4.9441   19.7103  -34.7478 H   0  0  0  0  0  0  0  0  0  0  0  0
   -3.9790   20.8762  -32.7686 H   0  0  0  0  0  0  0  0  0  0  0  0
   -3.7603   23.2187  -31.9483 H   0  0  0  0  0  0  0  0  0  0  0  0
   -1.7011   23.4689  -27.0721 H   0  0  0  0  0  0  0  0  0  0  0  0
   -0.7904   21.1623  -26.8422 H   0  0  0  0  0  0  0  0  0  0  0  0
   -0.7303   19.2287  -26.7123 H   0  0  0  0  0  0  0  0  0  0  0  0
    0.1738   16.9144  -26.4908 H   0  0  0  0  0  0  0  0  0  0  0  0
    1.1189   15.7424  -28.4803 H   0  0  0  0  0  0  0  0  0  0  0  0
    1.1630   16.8857  -30.6992 H   0  0  0  0  0  0  0  0  0  0  0  0
    0.2592   19.1970  -30.9346 H   0  0  0  0  0  0  0  0  0  0  0  0
   -1.0160   20.6484  -31.1377 H   0  0  0  0  0  0  0  0  0  0  0  0
   -1.9245   22.9545  -31.3642 H   0  0  0  0  0  0  0  0  0  0  0  0
  1  2  2  0
  2  3  1  0
  3  4  1  0
  4  5  1  0
  5  6  1  0
  6  7  2  0
  7  8  1  0
  8  9  2  0
  9 10  1  0
 10 11  2  0
 11 12  1  0
 12 13  2  0
 13 14  1  0
 14 15  2  0
  9 16  1  0
 16 17  2  0
  2 18  1  0
 18 19  2  0
 19 20  1  0
 20 21  2  0
 21 22  1  0
 22 23  2  0
 23 24  1  0
 24 25  2  0
 25 26  1  0
 26 27  2  0
 21 28  1  0
 28 29  2  0
 17  6  1  0
 29 18  1  0
 15 10  1  0
 27 22  1  0
  4 30  1  0
  4 31  1  0
  5 32  1  0
  5 33  1  0
  7 34  1  0
  8 35  1  0
 11 36  1  0
 12 37  1  0
 13 38  1  0
 14 39  1  0
 15 40  1  0
 16 41  1  0
 17 42  1  0
 19 43  1  0
 20 44  1  0
 23 45  1  0
 24 46  1  0
 25 47  1  0
 26 48  1  0
 27 49  1  0
 28 50  1  0
 29 51  1  0
M  CHG  1   3  -1
M  END
>  <UniqueID>  (5) 
5

>  <SMILES>  (5) 
O=C([N-]CCc1ccc(-c2ccccc2)cc1)c1ccc(-c2ccccc2)cc1

>  <Energy>  (5) 
67.49571292251608

>  <Genealogy>  (5) 
O=C([N-]CCc1ccc(-c2ccccc2)cc1)c1ccc(-c2ccccc2)cc1 (protonated)
O=C([N-]CCc1ccc(-c2ccccc2)cc1)c1ccc(-c2ccccc2)cc1 (3D coordinates assigned)
O=C([N-]CCc1ccc(-c2ccccc2)cc1)c1ccc(-c2ccccc2)cc1 (optimized conformer: 67.49571292251608 kcal/mol)

>  <smiles>  (5) 
O=C(NCCc1ccc(-c2ccccc2)cc1)c1ccc(-c2ccccc2)cc1

>  <score_type>  (5) 
oracle

>  <origin>  (5) 
adg

>  <m_score__min__energy>  (5) 
-11.6

>  <m_primary>  (5) 
energy

$$$$
5:0
     RDKit          3D

 53 56  0  0  0  0  0  0  0  0999 V2000
   -1.8810   12.0180  -31.8590 C   0  0  0  0  0  0  0  0  0  0  0  0
   -2.3350   12.6790  -33.0340 O   0  0  0  0  0  0  0  0  0  0  0  0
   -3.1140   13.8460  -33.0340 C   0  0  0  0  0  0  0  0  0  0  0  0
   -4.0170   14.0420  -31.9860 C   0  0  0  0  0  0  0  0  0  0  0  0
   -4.8150   15.1840  -31.9660 C   0  0  0  0  0  0  0  0  0  0  0  0
   -4.7160   16.1270  -32.9980 C   0  0  0  0  0  0  0  0  0  0  0  0
   -5.5610   17.2920  -33.0210 N   0  0  0  0  0  0  0  0  0  0  0  0
   -5.2570   18.3760  -33.9640 C   0  0  0  0  0  0  0  0  0  0  0  0
   -6.4520   19.3170  -34.2140 C   0  0  0  0  0  0  0  0  0  0  0  0
   -7.2750   19.6850  -32.9520 C   0  0  2  0  0  0  0  0  0  0  0  0
   -6.6960   20.8280  -32.0520 C   0  0  0  0  0  0  0  0  0  0  0  0
   -7.7830   21.8560  -31.6520 C   0  0  0  0  0  0  0  0  0  0  0  0
   -7.1940   23.2240  -31.2590 C   0  0  0  0  0  0  0  0  0  0  0  0
   -5.8700   23.0660  -30.6230 N   0  0  0  0  0  0  0  0  0  0  0  0
   -5.4850   24.3220  -29.9200 C   0  0  0  0  0  0  0  0  0  0  0  0
   -5.3440   25.5530  -30.7930 C   0  0  0  0  0  0  0  0  0  0  0  0
   -3.9630   25.6600  -30.5300 O   0  0  0  0  0  0  0  0  0  0  0  0
   -4.0030   24.5360  -29.6810 C   0  0  0  0  0  0  0  0  0  0  0  0
   -4.8530   22.4740  -31.5400 C   0  0  0  0  0  0  0  0  0  0  0  0
   -5.4680   21.5600  -32.6170 C   0  0  0  0  0  0  0  0  0  0  0  0
   -7.6690   18.4250  -32.1600 C   0  0  0  0  0  0  0  0  0  0  0  0
   -6.5230   17.4850  -31.9710 C   0  0  0  0  0  0  0  0  0  0  0  0
   -6.4540   16.8040  -30.9110 O   0  0  0  0  0  0  0  0  0  0  0  0
   -3.8000   15.8950  -34.0340 C   0  0  0  0  0  0  0  0  0  0  0  0
   -3.0210   14.7780  -34.0330 N   0  0  0  0  0  0  0  0  0  0  0  0
   -2.2490   12.5537  -30.9715 H   0  0  0  0  0  0  0  0  0  0  0  0
   -2.2618   10.9861  -31.8484 H   0  0  0  0  0  0  0  0  0  0  0  0
   -0.7812   12.0031  -31.8484 H   0  0  0  0  0  0  0  0  0  0  0  0
   -4.0976   13.2978  -31.1800 H   0  0  0  0  0  0  0  0  0  0  0  0
   -5.5230   15.3455  -31.1398 H   0  0  0  0  0  0  0  0  0  0  0  0
   -4.4241   18.9690  -33.5582 H   0  0  0  0  0  0  0  0  0  0  0  0
   -5.0017   17.9093  -34.9268 H   0  0  0  0  0  0  0  0  0  0  0  0
   -6.0659   20.2489  -34.6527 H   0  0  0  0  0  0  0  0  0  0  0  0
   -7.1379   18.7711  -34.8785 H   0  0  0  0  0  0  0  0  0  0  0  0
   -8.1922   20.1486  -33.3441 H   0  0  0  0  0  0  0  0  0  0  0  0
   -6.3399   20.2929  -31.1593 H   0  0  0  0  0  0  0  0  0  0  0  0
   -8.4634   21.9980  -32.5046 H   0  0  0  0  0  0  0  0  0  0  0  0
   -8.3093   21.4567  -30.7725 H   0  0  0  0  0  0  0  0  0  0  0  0
   -7.0880   23.8431  -32.1621 H   0  0  0  0  0  0  0  0  0  0  0  0
   -7.8735   23.7053  -30.5402 H   0  0  0  0  0  0  0  0  0  0  0  0
   -6.2232   24.2217  -29.1107 H   0  0  0  0  0  0  0  0  0  0  0  0
   -5.5759   25.3686  -31.8523 H   0  0  0  0  0  0  0  0  0  0  0  0
   -5.9924   26.4205  -30.6006 H   0  0  0  0  0  0  0  0  0  0  0  0
   -3.3774   23.7008  -30.0289 H   0  0  0  0  0  0  0  0  0  0  0  0
   -3.6381   24.6346  -28.6480 H   0  0  0  0  0  0  0  0  0  0  0  0
   -4.3152   23.2923  -32.0411 H   0  0  0  0  0  0  0  0  0  0  0  0
   -4.1820   21.8534  -30.9280 H   0  0  0  0  0  0  0  0  0  0  0  0
   -5.7734   22.1697  -33.4801 H   0  0  0  0  0  0  0  0  0  0  0  0
   -4.7188   20.8174  -32.9289 H   0  0  0  0  0  0  0  0  0  0  0  0
   -8.0400   18.7319  -31.1710 H   0  0  0  0  0  0  0  0  0  0  0  0
   -8.4425   17.8966  -32.7367 H   0  0  0  0  0  0  0  0  0  0  0  0
   -3.7099   16.6217  -34.8548 H   0  0  0  0  0  0  0  0  0  0  0  0
   -2.3530   14.6480  -34.8240 H   0  0  0  0  0  0  0  0  0  0  0  0
  1  2  1  0
  2  3  1  0
  3  4  2  0
  4  5  1  0
  5  6  2  0
  6  7  1  0
  7  8  1  0
  8  9  1  0
  9 10  1  0
 10 11  1  0
 11 12  1  0
 12 13  1  0
 13 14  1  0
 14 15  1  0
 15 16  1  0
 16 17  1  0
 17 18  1  0
 14 19  1  0
 19 20  1  0
 10 21  1  0
 21 22  1  0
 22 23  2  0
  6 24  1  0
 24 25  2  0
 25  3  1  0
 22  7  1  0
 20 11  1  0
 18 15  1  0
  1 26  1  0
  1 27  1  0
  1 28  1  0
  4 29  1  0
  5 30  1  0
  8 31  1  0
  8 32  1  0
  9 33  1  0
  9 34  1  0
 10 35  1  6
 11 36  1  0
 12 37  1  0
 12 38  1  0
 13 39  1  0
 13 40  1  0
 15 41  1  0
 16 42  1  0
 16 43  1  0
 18 44  1  0
 18 45  1  0
 19 46  1  0
 19 47  1  0
 20 48  1  0
 20 49  1  0
 21 50  1  0
 21 51  1  0
 24 52  1  0
 25 53  1  0
M  CHG  1  25   1
M  END
>  <UniqueID>  (6) 
6

>  <SMILES>  (6) 
COc1ccc(N2CC[C@H](C3CCN(C4COC4)CC3)CC2=O)c[nH+]1

>  <Energy>  (6) 
141.99283672559596

>  <Genealogy>  (6) 
COc1ccc(N2CCC(C3CCN(C4COC4)CC3)CC2=O)c[nH+]1 (protonated)
COc1ccc(N2CC[C@H](C3CCN(C4COC4)CC3)CC2=O)c[nH+]1 (chirality)
COc1ccc(N2CC[C@H](C3CCN(C4COC4)CC3)CC2=O)c[nH+]1 (3D coordinates assigned)
COc1ccc(N2CC[C@H](C3CCN(C4COC4)CC3)CC2=O)c[nH+]1 (nonaromatic ring conformer: 141.99283672559596 kcal/mol)

>  <smiles>  (6) 
COc1ccc(N2CCC(C3CCN(C4COC4)CC3)CC2=O)cn1

>  <score_type>  (6) 
oracle

>  <origin>  (6) 
adg

>  <m_score__min__energy>  (6) 
-8.3499999999999996

>  <m_primary>  (6) 
energy

$$$$
6:0
     RDKit          3D

 38 40  0  0  0  0  0  0  0  0999 V2000
   -6.4350   24.5260  -30.6440 C   0  0  0  0  0  0  0  0  0  0  0  0
   -4.7190   24.1520  -30.3640 S   0  0  0  0  0  0  0  0  0  0  0  0
   -4.4830   23.9490  -28.8940 O   0  0  0  0  0  0  0  0  0  0  0  0
   -3.8710   25.3010  -30.8350 O   0  0  0  0  0  0  0  0  0  0  0  0
   -4.2880   22.6920  -31.2450 C   0  0  0  0  0  0  0  0  0  0  0  0
   -3.7880   21.5750  -30.5670 C   0  0  0  0  0  0  0  0  0  0  0  0
   -3.4370   20.4260  -31.2770 C   0  0  0  0  0  0  0  0  0  0  0  0
   -3.5860   20.4020  -32.6740 C   0  0  0  0  0  0  0  0  0  0  0  0
   -3.2210   19.2350  -33.4360 N   0  0  0  0  0  0  0  0  0  0  0  0
   -1.9840   18.9100  -33.8580 C   0  0  0  0  0  0  0  0  0  0  0  0
   -2.0690   17.7540  -34.5990 C   0  0  0  0  0  0  0  0  0  0  0  0
   -3.3500   17.3420  -34.6480 N   0  0  0  0  0  0  0  0  0  0  0  0
   -4.0260   18.2590  -33.9220 C   0  0  0  0  0  0  0  0  0  0  0  0
   -5.5130   18.1840  -33.7060 C   0  0  0  0  0  0  0  0  0  0  0  0
   -6.1190   19.4690  -33.8530 O   0  0  0  0  0  0  0  0  0  0  0  0
   -7.1090   19.9980  -33.0060 C   0  0  0  0  0  0  0  0  0  0  0  0
   -7.2020   21.3750  -32.7160 C   0  0  0  0  0  0  0  0  0  0  0  0
   -8.2040   21.8480  -31.8650 C   0  0  0  0  0  0  0  0  0  0  0  0
   -9.1210   20.9590  -31.2980 C   0  0  0  0  0  0  0  0  0  0  0  0
   -9.0360   19.5950  -31.5810 C   0  0  0  0  0  0  0  0  0  0  0  0
   -8.0350   19.1160  -32.4320 C   0  0  0  0  0  0  0  0  0  0  0  0
   -7.9620   17.7870  -32.6990 F   0  0  0  0  0  0  0  0  0  0  0  0
   -4.0660   21.5070  -33.3090 N   0  0  0  0  0  0  0  0  0  0  0  0
   -4.4150   22.6370  -32.6370 C   0  0  0  0  0  0  0  0  0  0  0  0
   -6.9483   24.6379  -29.6776 H   0  0  0  0  0  0  0  0  0  0  0  0
   -6.5178   25.4633  -31.2138 H   0  0  0  0  0  0  0  0  0  0  0  0
   -6.9003   23.7082  -31.2138 H   0  0  0  0  0  0  0  0  0  0  0  0
   -3.6715   21.6025  -29.4735 H   0  0  0  0  0  0  0  0  0  0  0  0
   -3.0463   19.5451  -30.7466 H   0  0  0  0  0  0  0  0  0  0  0  0
   -1.0629   19.4728  -33.6463 H   0  0  0  0  0  0  0  0  0  0  0  0
   -1.2202   17.2442  -35.0782 H   0  0  0  0  0  0  0  0  0  0  0  0
   -5.9490   17.4946  -34.4440 H   0  0  0  0  0  0  0  0  0  0  0  0
   -5.7000   17.8242  -32.6835 H   0  0  0  0  0  0  0  0  0  0  0  0
   -6.4834   22.0788  -33.1612 H   0  0  0  0  0  0  0  0  0  0  0  0
   -8.2712   22.9228  -31.6408 H   0  0  0  0  0  0  0  0  0  0  0  0
   -9.9095   21.3341  -30.6289 H   0  0  0  0  0  0  0  0  0  0  0  0
   -9.7576   18.8955  -31.1339 H   0  0  0  0  0  0  0  0  0  0  0  0
   -4.7975   23.5084  -33.1887 H   0  0  0  0  0  0  0  0  0  0  0  0
  1  2  1  0
  2  3  2  0
  2  4  2  0
  2  5  1  0
  5  6  2  0
  6  7  1  0
  7  8  2  0
  8  9  1  0
  9 10  1  0
 10 11  2  0
 11 12  1  0
 12 13  2  0
 13 14  1  0
 14 15  1  0
 15 16  1  0
 16 17  2  0
 17 18  1  0
 18 19  2  0
 19 20  1  0
 20 21  2  0
 21 22  1  0
  8 23  1  0
 23 24  2  0
 24  5  1  0
 13  9  1  0
 21 16  1  0
  1 25  1  0
  1 26  1  0
  1 27  1  0
  6 28  1  0
  7 29  1  0
 10 30  1  0
 11 31  1  0
 14 32  1  0
 14 33  1  0
 17 34  1  0
 18 35  1  0
 19 36  1  0
 20 37  1  0
 24 38  1  0
M  END
>  <UniqueID>  (7) 
7

>  <SMILES>  (7) 
CS(=O)(=O)c1ccc(-n2ccnc2COc2ccccc2F)nc1

>  <Energy>  (7) 
71.23324859692414

>  <Genealogy>  (7) 
CS(=O)(=O)c1ccc(-n2ccnc2COc2ccccc2F)nc1 (3D coordinates assigned)
CS(=O)(=O)c1ccc(-n2ccnc2COc2ccccc2F)nc1 (optimized conformer: 71.23324859692414 kcal/mol)

>  <smiles>  (7) 
CS(=O)(=O)c1ccc(-n2ccnc2COc2ccccc2F)nc1

>  <score_type>  (7) 
oracle

>  <origin>  (7) 
adg

>  <m_score__min__energy>  (7) 
-7.5

>  <m_primary>  (7) 
energy

$$$$
7:0
     RDKit          3D

 57 61  0  0  0  0  0  0  0  0999 V2000
   -9.1048   21.4165  -31.2153 H   0  0  0  0  0  0  0  0  0  0  0  0
   -8.3100   22.1680  -31.0990 C   0  0  0  0  0  0  0  0  0  0  0  0
   -7.9840   23.0110  -32.1640 C   0  0  0  0  0  0  0  0  0  0  0  0
   -8.5207   22.9207  -33.1199 H   0  0  0  0  0  0  0  0  0  0  0  0
   -6.9760   23.9700  -32.0170 C   0  0  0  0  0  0  0  0  0  0  0  0
   -6.7129   24.6208  -32.8639 H   0  0  0  0  0  0  0  0  0  0  0  0
   -6.2970   24.1070  -30.7930 C   0  0  0  0  0  0  0  0  0  0  0  0
   -5.2420   25.1350  -30.6350 C   0  0  0  0  0  0  0  0  0  0  0  0
   -5.5630   26.3410  -30.4580 O   0  0  0  0  0  0  0  0  0  0  0  0
   -3.8580   24.8120  -30.8030 N   0  0  0  0  0  0  0  0  0  0  0  0
   -3.0950   24.0290  -30.0880 C   0  0  0  0  0  0  0  0  0  0  0  0
   -2.8230   24.4280  -28.8170 N   0  0  0  0  0  0  0  0  0  0  0  0
   -2.0100   23.7270  -27.9930 C   0  0  0  0  0  0  0  0  0  0  0  0
   -1.7470   24.1830  -26.6960 C   0  0  0  0  0  0  0  0  0  0  0  0
   -2.2044   25.1171  -26.3379 H   0  0  0  0  0  0  0  0  0  0  0  0
   -0.9030   23.4510  -25.8560 C   0  0  0  0  0  0  0  0  0  0  0  0
   -0.6960   23.8103  -24.8371 H   0  0  0  0  0  0  0  0  0  0  0  0
   -0.3210   22.2620  -26.3090 C   0  0  0  0  0  0  0  0  0  0  0  0
    0.3431   21.6885  -25.6457 H   0  0  0  0  0  0  0  0  0  0  0  0
   -0.5820   21.8010  -27.6040 C   0  0  0  0  0  0  0  0  0  0  0  0
   -0.1254   20.8646  -27.9570 H   0  0  0  0  0  0  0  0  0  0  0  0
   -1.4270   22.5340  -28.4530 C   0  0  0  0  0  0  0  0  0  0  0  0
   -1.7110   22.0990  -29.7110 N   0  0  0  0  0  0  0  0  0  0  0  0
   -1.3280   21.1780  -30.0230 H   0  0  0  0  0  0  0  0  0  0  0  0
   -2.5330   22.8000  -30.5480 C   0  0  0  0  0  0  0  0  0  0  0  0
   -2.9200   22.1880  -31.7940 N   0  0  0  0  0  0  0  0  0  0  0  0
   -4.2010   22.5590  -32.4030 C   0  0  0  0  0  0  0  0  0  0  0  0
   -4.7252   23.2755  -31.7535 H   0  0  0  0  0  0  0  0  0  0  0  0
   -4.0269   23.0246  -33.3843 H   0  0  0  0  0  0  0  0  0  0  0  0
   -5.0520   21.2990  -32.5700 C   0  0  0  0  0  0  0  0  0  0  0  0
   -5.2304   20.8590  -31.5777 H   0  0  0  0  0  0  0  0  0  0  0  0
   -5.9942   21.5925  -33.0559 H   0  0  0  0  0  0  0  0  0  0  0  0
   -4.3950   20.2820  -33.4320 N   0  0  0  0  0  0  0  0  0  0  0  0
   -4.8380   18.9200  -33.0710 C   0  0  0  0  0  0  0  0  0  0  0  0
   -4.6819   18.2496  -33.9290 H   0  0  0  0  0  0  0  0  0  0  0  0
   -4.2525   18.5737  -32.2066 H   0  0  0  0  0  0  0  0  0  0  0  0
   -6.2980   18.9190  -32.7010 C   0  0  0  0  0  0  0  0  0  0  0  0
   -7.2260   19.6650  -33.4480 C   0  0  0  0  0  0  0  0  0  0  0  0
   -6.8867   20.2539  -34.3129 H   0  0  0  0  0  0  0  0  0  0  0  0
   -8.5800   19.6610  -33.0950 C   0  0  0  0  0  0  0  0  0  0  0  0
   -9.3028   20.2465  -33.6822 H   0  0  0  0  0  0  0  0  0  0  0  0
   -9.0150   18.9130  -31.9960 C   0  0  0  0  0  0  0  0  0  0  0  0
  -10.0796   18.9116  -31.7191 H   0  0  0  0  0  0  0  0  0  0  0  0
   -8.0980   18.1670  -31.2490 C   0  0  0  0  0  0  0  0  0  0  0  0
   -8.4414   17.5786  -30.3854 H   0  0  0  0  0  0  0  0  0  0  0  0
   -6.7440   18.1690  -31.6000 C   0  0  0  0  0  0  0  0  0  0  0  0
   -6.0250   17.5805  -31.0112 H   0  0  0  0  0  0  0  0  0  0  0  0
   -2.9130   20.3910  -33.5000 C   0  0  0  0  0  0  0  0  0  0  0  0
   -2.4969   19.3939  -33.7067 H   0  0  0  0  0  0  0  0  0  0  0  0
   -2.6712   21.1091  -34.2975 H   0  0  0  0  0  0  0  0  0  0  0  0
   -2.2920   20.9210  -32.1990 C   0  0  0  0  0  0  0  0  0  0  0  0
   -2.4365   20.1768  -31.4020 H   0  0  0  0  0  0  0  0  0  0  0  0
   -1.2200   21.0995  -32.3692 H   0  0  0  0  0  0  0  0  0  0  0  0
   -6.6230   23.2410  -29.7320 C   0  0  0  0  0  0  0  0  0  0  0  0
   -6.0850   23.3212  -28.7759 H   0  0  0  0  0  0  0  0  0  0  0  0
   -7.6260   22.2800  -29.8860 C   0  0  0  0  0  0  0  0  0  0  0  0
   -7.8774   21.6104  -29.0503 H   0  0  0  0  0  0  0  0  0  0  0  0
  1  2  1  0
  2  3  2  0
  3  4  1  0
  3  5  1  0
  5  6  1  0
  5  7  2  0
  7  8  1  0
  8  9  2  0
  8 10  1  0
 10 11  2  0
 11 12  1  0
 12 13  1  0
 13 14  2  0
 14 15  1  0
 14 16  1  0
 16 17  1  0
 16 18  2  0
 18 19  1  0
 18 20  1  0
 20 21  1  0
 20 22  2  0
 22 23  1  0
 23 24  1  0
 23 25  2  0
 25 26  1  0
 26 27  1  0
 27 28  1  0
 27 29  1  0
 27 30  1  0
 30 31  1  0
 30 32  1  0
 30 33  1  0
 33 34  1  0
 34 35  1  0
 34 36  1  0
 34 37  1  0
 37 38  2  0
 38 39  1  0
 38 40  1  0
 40 41  1  0
 40 42  2  0
 42 43  1  0
 42 44  1  0
 44 45  1  0
 44 46  2  0
 46 47  1  0
 33 48  1  0
 48 49  1  0
 48 50  1  0
 48 51  1  0
 51 52  1  0
 51 53  1  0
  7 54  1  0
 54 55  1  0
 54 56  2  0
 56 57  1  0
 56  2  1  0
 25 11  1  0
 51 26  1  0
 22 13  1  0
 46 37  1  0
M  CHG  2  12  -1  23   1
M  END
>  <UniqueID>  (8) 
8

>  <SMILES>  (8) 
O=C(/N=c1/[n-]c2ccccc2[nH+]c1N1CCN(Cc2ccccc2)CC1)c1ccccc1

>  <Energy>  (8) 
92.91716434581144

>  <Genealogy>  (8) 
O=C(N=c1[n-]c2ccccc2[nH+]c1N1CCN(Cc2ccccc2)CC1)c1ccccc1 (protonated)
O=C(/N=c1/[n-]c2ccccc2[nH+]c1N1CCN(Cc2ccccc2)CC1)c1ccccc1 (cis-trans isomerization)
O=C(/N=c1/[n-]c2ccccc2[nH+]c1N1CCN(Cc2ccccc2)CC1)c1ccccc1 (3D coordinates assigned)
O=C(/N=c1/[n-]c2ccccc2[nH+]c1N1CCN(Cc2ccccc2)CC1)c1ccccc1 (nonaromatic ring conformer: 92.91716434581144 kcal/mol)

>  <smiles>  (8) 
O=C(N=c1[nH]c2ccccc2nc1N1CCN(Cc2ccccc2)CC1)c1ccccc1

>  <score_type>  (8) 
oracle

>  <origin>  (8) 
adg

>  <m_score__min__energy>  (8) 
-10.74

>  <m_primary>  (8) 
energy

$$$$
8:0
     RDKit          3D

 64 68  0  0  0  0  0  0  0  0999 V2000
    1.9782   27.2671  -24.9179 H   0  0  0  0  0  0  0  0  0  0  0  0
    1.0010   27.5350  -25.3460 C   0  0  0  0  0  0  0  0  0  0  0  0
    0.6820   28.8350  -25.4070 C   0  0  0  0  0  0  0  0  0  0  0  0
    1.1219   29.5087  -24.6570 H   0  0  0  0  0  0  0  0  0  0  0  0
   -0.2360   29.4300  -26.4320 C   0  0  0  0  0  0  0  0  0  0  0  0
   -1.0556   29.9612  -25.9259 H   0  0  0  0  0  0  0  0  0  0  0  0
    0.3255   30.1364  -27.0611 H   0  0  0  0  0  0  0  0  0  0  0  0
   -0.6515   28.6290  -27.0611 H   0  0  0  0  0  0  0  0  0  0  0  0
    0.1310   26.4370  -25.8140 C   0  0  0  0  0  0  0  0  0  0  0  0
    0.5860   25.4870  -26.7410 C   0  0  0  0  0  0  0  0  0  0  0  0
    1.6187   25.5403  -27.1160 H   0  0  0  0  0  0  0  0  0  0  0  0
   -0.2650   24.4730  -27.1910 C   0  0  0  0  0  0  0  0  0  0  0  0
    0.1080   23.7263  -27.9075 H   0  0  0  0  0  0  0  0  0  0  0  0
   -1.5960   24.3990  -26.7350 C   0  0  0  0  0  0  0  0  0  0  0  0
   -2.5640   23.3270  -27.2400 C   0  0  1  0  0  0  0  0  0  0  0  0
   -3.5152   23.4817  -26.7096 H   0  0  0  0  0  0  0  0  0  0  0  0
   -2.9890   23.4890  -28.7620 C   0  0  1  0  0  0  0  0  0  0  0  0
   -4.0749   23.3143  -28.7434 H   0  0  0  0  0  0  0  0  0  0  0  0
   -2.8210   24.9190  -29.3450 C   0  0  0  0  0  0  0  0  0  0  0  0
   -2.8732   25.6454  -28.5206 H   0  0  0  0  0  0  0  0  0  0  0  0
   -1.8484   24.9613  -29.8571 H   0  0  0  0  0  0  0  0  0  0  0  0
   -3.8580   25.2450  -30.3260 N   0  0  0  0  0  0  0  0  0  0  0  0
   -4.8460   24.4770  -30.6710 C   0  0  0  0  0  0  0  0  0  0  0  0
   -4.7020   23.2980  -31.3130 N   0  0  0  0  0  0  0  0  0  0  0  0
   -5.9020   22.7080  -31.5710 C   0  0  0  0  0  0  0  0  0  0  0  0
   -5.9830   21.4060  -32.2860 C   0  0  0  0  0  0  0  0  0  0  0  0
   -4.8220   20.8530  -32.8590 C   0  0  0  0  0  0  0  0  0  0  0  0
   -3.8640   21.3863  -32.7700 H   0  0  0  0  0  0  0  0  0  0  0  0
   -4.8740   19.6330  -33.5400 C   0  0  0  0  0  0  0  0  0  0  0  0
   -3.9598   19.2181  -33.9895 H   0  0  0  0  0  0  0  0  0  0  0  0
   -6.0840   18.9360  -33.6530 C   0  0  0  0  0  0  0  0  0  0  0  0
   -6.1460   17.6490  -34.4200 C   0  0  0  0  0  0  0  0  0  0  0  0
   -6.1867   16.8044  -33.7164 H   0  0  0  0  0  0  0  0  0  0  0  0
   -7.0455   17.6424  -35.0531 H   0  0  0  0  0  0  0  0  0  0  0  0
   -5.2513   17.5560  -35.0531 H   0  0  0  0  0  0  0  0  0  0  0  0
   -7.2490   19.4900  -33.1050 C   0  0  0  0  0  0  0  0  0  0  0  0
   -8.2079   18.9616  -33.2114 H   0  0  0  0  0  0  0  0  0  0  0  0
   -7.2000   20.7100  -32.4240 C   0  0  0  0  0  0  0  0  0  0  0  0
   -8.1202   21.1303  -31.9920 H   0  0  0  0  0  0  0  0  0  0  0  0
   -7.0090   23.4360  -31.1130 C   0  0  0  0  0  0  0  0  0  0  0  0
   -8.0627   23.1375  -31.2162 H   0  0  0  0  0  0  0  0  0  0  0  0
   -6.4520   24.8450  -30.3780 S   0  0  0  0  0  0  0  0  0  0  0  0
   -2.3560   22.4070  -29.6930 C   0  0  1  0  0  0  0  0  0  0  0  0
   -2.2577   22.8309  -30.7033 H   0  0  0  0  0  0  0  0  0  0  0  0
   -1.0790   22.0100  -29.0960 N   0  0  0  0  0  0  0  0  0  0  0  0
   -0.1650   21.3950  -30.0750 C   0  0  0  0  0  0  0  0  0  0  0  0
    0.6340   20.8574  -29.5433 H   0  0  0  0  0  0  0  0  0  0  0  0
   -0.7248   20.6891  -30.7062 H   0  0  0  0  0  0  0  0  0  0  0  0
    0.2780   22.1795  -30.7062 H   0  0  0  0  0  0  0  0  0  0  0  0
   -1.5140   21.0700  -28.0570 C   0  0  2  0  0  0  0  0  0  0  0  0
   -0.6987   20.4238  -27.6996 H   0  0  0  0  0  0  0  0  0  0  0  0
   -2.6330   20.2270  -28.6830 C   0  0  0  0  0  0  0  0  0  0  0  0
   -2.2268   19.3075  -29.1296 H   0  0  0  0  0  0  0  0  0  0  0  0
   -3.3813   19.9015  -27.9454 H   0  0  0  0  0  0  0  0  0  0  0  0
   -3.2200   21.1320  -29.7510 C   0  0  0  0  0  0  0  0  0  0  0  0
   -3.1505   20.6598  -30.7421 H   0  0  0  0  0  0  0  0  0  0  0  0
   -4.2867   21.3412  -29.5823 H   0  0  0  0  0  0  0  0  0  0  0  0
   -2.0580   21.8920  -26.8560 C   0  0  0  0  0  0  0  0  0  0  0  0
   -1.2516   21.9966  -26.1151 H   0  0  0  0  0  0  0  0  0  0  0  0
   -2.9267   21.3434  -26.4630 H   0  0  0  0  0  0  0  0  0  0  0  0
   -2.0540   25.3750  -25.8300 C   0  0  0  0  0  0  0  0  0  0  0  0
   -3.0936   25.3411  -25.4720 H   0  0  0  0  0  0  0  0  0  0  0  0
   -1.2000   26.3870  -25.3820 C   0  0  0  0  0  0  0  0  0  0  0  0
   -1.5765   27.1499  -24.6847 H   0  0  0  0  0  0  0  0  0  0  0  0
  1  2  1  0
  2  3  2  0
  3  4  1  0
  3  5  1  0
  5  6  1  0
  5  7  1  0
  5  8  1  0
  2  9  1  0
  9 10  2  0
 10 11  1  0
 10 12  1  0
 12 13  1  0
 12 14  2  0
 14 15  1  0
 15 16  1  1
 15 17  1  0
 17 18  1  1
 17 19  1  0
 19 20  1  0
 19 21  1  0
 19 22  1  0
 22 23  2  0
 23 24  1  0
 24 25  1  0
 25 26  1  0
 26 27  2  0
 27 28  1  0
 27 29  1  0
 29 30  1  0
 29 31  2  0
 31 32  1  0
 32 33  1  0
 32 34  1  0
 32 35  1  0
 31 36  1  0
 36 37  1  0
 36 38  2  0
 38 39  1  0
 25 40  2  0
 40 41  1  0
 40 42  1  0
 17 43  1  0
 43 44  1  6
 43 45  1  0
 45 46  1  0
 46 47  1  0
 46 48  1  0
 46 49  1  0
 45 50  1  0
 50 51  1  1
 50 52  1  0
 52 53  1  0
 52 54  1  0
 52 55  1  0
 55 56  1  0
 55 57  1  0
 50 58  1  0
 58 59  1  0
 58 60  1  0
 14 61  1  0
 61 62  1  0
 61 63  2  0
 63 64  1  0
 63  9  1  0
 58 15  1  0
 42 23  1  0
 55 43  1  0
 38 26  1  0
M  CHG  1  24  -1
M  END
>  <UniqueID>  (9) 
9

>  <SMILES>  (9) 
C/C=C\c1ccc([C@@H]2C[C@H]3CCC(C2C/N=c2\[n-]c(-c4ccc(C)cc4)cs2)N3C)cc1

>  <Energy>  (9) 
127.17167109158395

>  <Genealogy>  (9) 
CC=Cc1ccc(C2CC3CCC(C2CN=c2[n-]c(-c4ccc(C)cc4)cs2)N3C)cc1 (protonated)
CC=Cc1ccc([C@@H]2C[C@H]3CCC(C2CN=c2[n-]c(-c4ccc(C)cc4)cs2)N3C)cc1 (chirality)
C/C=C\c1ccc([C@@H]2C[C@H]3CCC(C2C/N=c2\[n-]c(-c4ccc(C)cc4)cs2)N3C)cc1 (cis-trans isomerization)
C/C=C\c1ccc([C@@H]2C[C@H]3CCC(C2C/N=c2\[n-]c(-c4ccc(C)cc4)cs2)N3C)cc1 (3D coordinates assigned)
C/C=C\c1ccc([C@@H]2C[C@H]3CCC(C2C/N=c2\[n-]c(-c4ccc(C)cc4)cs2)N3C)cc1 (nonaromatic ring conformer: 127.17167109158395 kcal/mol)

>  <smiles>  (9) 
CC=Cc1ccc(C2CC3CCC(C2CN=c2[nH]c(-c4ccc(C)cc4)cs2)N3C)cc1

>  <score_type>  (9) 
oracle

>  <origin>  (9) 
adg

>  <m_score__min__energy>  (9) 
-11.789999999999999

>  <m_primary>  (9) 
energy

$$$$
9:0
     RDKit          3D

 30 31  0  0  0  0  0  0  0  0999 V2000
   -9.4920   21.5500  -30.4260 C   0  0  0  0  0  0  0  0  0  0  0  0
   -8.8050   22.0270  -31.2930 C   0  0  0  0  0  0  0  0  0  0  0  0
   -7.9670   22.6110  -32.3460 C   0  0  0  0  0  0  0  0  0  0  0  0
   -6.5490   22.7520  -31.8620 C   0  0  0  0  0  0  0  0  0  0  0  0
   -6.0320   24.2530  -31.2840 S   0  0  0  0  0  0  0  0  0  0  0  0
   -4.4130   24.2380  -30.8380 C   0  0  0  0  0  0  0  0  0  0  0  0
   -3.8680   25.2770  -30.3800 O   0  0  0  0  0  0  0  0  0  0  0  0
   -3.6950   23.0560  -30.9890 C   0  0  0  0  0  0  0  0  0  0  0  0
   -4.2420   21.8490  -31.5040 C   0  0  0  0  0  0  0  0  0  0  0  0
   -3.4270   20.7060  -31.6210 O   0  0  0  0  0  0  0  0  0  0  0  0
   -2.4300   20.5000  -32.6160 C   0  0  0  0  0  0  0  0  0  0  0  0
   -5.5990   21.7050  -31.9220 C   0  0  0  0  0  0  0  0  0  0  0  0
   -6.0180   20.3900  -32.4510 C   0  0  0  0  0  0  0  0  0  0  0  0
   -5.6910   20.0230  -33.7660 C   0  0  0  0  0  0  0  0  0  0  0  0
   -6.0840   18.7770  -34.2640 C   0  0  0  0  0  0  0  0  0  0  0  0
   -6.7970   17.8910  -33.4520 C   0  0  0  0  0  0  0  0  0  0  0  0
   -7.1180   18.2480  -32.1390 C   0  0  0  0  0  0  0  0  0  0  0  0
   -6.7280   19.4940  -31.6370 C   0  0  0  0  0  0  0  0  0  0  0  0
  -10.1193   21.1144  -29.6343 H   0  0  0  0  0  0  0  0  0  0  0  0
   -7.9860   21.9570  -33.2303 H   0  0  0  0  0  0  0  0  0  0  0  0
   -8.3583   23.6055  -32.6065 H   0  0  0  0  0  0  0  0  0  0  0  0
   -2.6362   23.0552  -30.6908 H   0  0  0  0  0  0  0  0  0  0  0  0
   -1.4633   20.3003  -32.1306 H   0  0  0  0  0  0  0  0  0  0  0  0
   -2.7099   19.6407  -33.2431 H   0  0  0  0  0  0  0  0  0  0  0  0
   -2.3464   21.3998  -33.2431 H   0  0  0  0  0  0  0  0  0  0  0  0
   -5.1250   20.7165  -34.4053 H   0  0  0  0  0  0  0  0  0  0  0  0
   -5.8316   18.4938  -35.2965 H   0  0  0  0  0  0  0  0  0  0  0  0
   -7.1060   16.9117  -33.8463 H   0  0  0  0  0  0  0  0  0  0  0  0
   -7.6775   17.5487  -31.5003 H   0  0  0  0  0  0  0  0  0  0  0  0
   -6.9782   19.7720  -30.6025 H   0  0  0  0  0  0  0  0  0  0  0  0
  1  2  3  0
  2  3  1  0
  3  4  1  0
  4  5  1  0
  5  6  1  0
  6  7  2  0
  6  8  1  0
  8  9  2  0
  9 10  1  0
 10 11  1  0
  9 12  1  0
 12 13  1  0
 13 14  2  0
 14 15  1  0
 15 16  2  0
 16 17  1  0
 17 18  2  0
 12  4  2  0
 18 13  1  0
  1 19  1  0
  3 20  1  0
  3 21  1  0
  8 22  1  0
 11 23  1  0
 11 24  1  0
 11 25  1  0
 14 26  1  0
 15 27  1  0
 16 28  1  0
 17 29  1  0
 18 30  1  0
M  END
>  <UniqueID>  (10) 
10

>  <SMILES>  (10) 
C#CCc1sc(=O)cc(OC)c1-c1ccccc1

>  <Energy>  (10) 
38.71185818778506

>  <Genealogy>  (10) 
C#CCc1sc(=O)cc(OC)c1-c1ccccc1 (3D coordinates assigned)
C#CCc1sc(=O)cc(OC)c1-c1ccccc1 (optimized conformer: 38.71185818778506 kcal/mol)

>  <smiles>  (10) 
C#CCc1sc(=O)cc(OC)c1-c1ccccc1

>  <score_type>  (10) 
oracle

>  <origin>  (10) 
adg

>  <m_score__min__energy>  (10) 
-6.9100000000000001

>  <m_primary>  (10) 
energy

$$$$
10:0
     RDKit          3D

 46 48  0  0  0  0  0  0  0  0999 V2000
   -2.2500   20.8940  -27.4680 C   0  0  0  0  0  0  0  0  0  0  0  0
   -3.4800   21.7820  -27.6330 C   0  0  0  0  0  0  0  0  0  0  0  0
   -3.1020   23.2610  -27.8320 C   0  0  2  0  0  0  0  0  0  0  0  0
   -4.2060   24.1850  -27.3020 C   0  0  0  0  0  0  0  0  0  0  0  0
   -2.7770   23.5720  -29.2430 N   0  0  0  0  0  0  0  0  0  0  0  0
   -1.3710   23.7650  -29.6230 C   0  0  0  0  0  0  0  0  0  0  0  0
   -0.6290   24.5290  -28.5660 C   0  0  0  0  0  0  0  0  0  0  0  0
    0.4220   24.0480  -27.7910 C   0  0  0  0  0  0  0  0  0  0  0  0
    0.8940   24.9840  -26.8630 C   0  0  0  0  0  0  0  0  0  0  0  0
    0.2210   26.1990  -26.9030 C   0  0  0  0  0  0  0  0  0  0  0  0
   -0.9650   26.1080  -28.0950 S   0  0  0  0  0  0  0  0  0  0  0  0
   -3.8010   24.0010  -30.1660 C   0  0  0  0  0  0  0  0  0  0  0  0
   -3.8680   25.2110  -30.5020 O   0  0  0  0  0  0  0  0  0  0  0  0
   -4.8220   23.0750  -30.6770 C   0  0  0  0  0  0  0  0  0  0  0  0
   -4.5500   21.4320  -30.9210 S   0  0  0  0  0  0  0  0  0  0  0  0
   -6.1130   21.1640  -31.4650 C   0  0  0  0  0  0  0  0  0  0  0  0
   -6.6010   19.9630  -31.8640 N   0  0  0  0  0  0  0  0  0  0  0  0
   -7.9030   19.8590  -32.2580 C   0  0  0  0  0  0  0  0  0  0  0  0
   -8.4560   18.5450  -32.7230 C   0  0  0  0  0  0  0  0  0  0  0  0
   -8.7270   20.9960  -32.2390 C   0  0  0  0  0  0  0  0  0  0  0  0
   -8.1950   22.2200  -31.8180 C   0  0  0  0  0  0  0  0  0  0  0  0
   -8.9490   23.2260  -31.7700 O   0  0  0  0  0  0  0  0  0  0  0  0
   -6.8750   22.2900  -31.4530 N   0  0  0  0  0  0  0  0  0  0  0  0
   -6.1530   23.3760  -31.0130 C   0  0  0  0  0  0  0  0  0  0  0  0
   -6.7030   24.6910  -30.8440 N   0  0  0  0  0  0  0  0  0  0  0  0
   -2.0454   20.7463  -26.3973 H   0  0  0  0  0  0  0  0  0  0  0  0
   -2.4347   19.9196  -27.9439 H   0  0  0  0  0  0  0  0  0  0  0  0
   -1.3833   21.3760  -27.9439 H   0  0  0  0  0  0  0  0  0  0  0  0
   -4.0496   21.4401  -28.5097 H   0  0  0  0  0  0  0  0  0  0  0  0
   -4.0796   21.7056  -26.7139 H   0  0  0  0  0  0  0  0  0  0  0  0
   -2.1887   23.4428  -27.2465 H   0  0  0  0  0  0  0  0  0  0  0  0
   -4.1951   24.1759  -26.2021 H   0  0  0  0  0  0  0  0  0  0  0  0
   -4.0308   25.2096  -27.6619 H   0  0  0  0  0  0  0  0  0  0  0  0
   -5.1837   23.8321  -27.6619 H   0  0  0  0  0  0  0  0  0  0  0  0
   -0.8961   22.7818  -29.7565 H   0  0  0  0  0  0  0  0  0  0  0  0
   -1.3367   24.3397  -30.5603 H   0  0  0  0  0  0  0  0  0  0  0  0
    0.8393   23.0357  -27.8967 H   0  0  0  0  0  0  0  0  0  0  0  0
    1.7204   24.7769  -26.1672 H   0  0  0  0  0  0  0  0  0  0  0  0
    0.4276   27.0711  -26.2652 H   0  0  0  0  0  0  0  0  0  0  0  0
   -5.9730   19.1280  -31.8690 H   0  0  0  0  0  0  0  0  0  0  0  0
   -8.7160   17.9273  -31.8507 H   0  0  0  0  0  0  0  0  0  0  0  0
   -9.3567   18.7203  -33.3297 H   0  0  0  0  0  0  0  0  0  0  0  0
   -7.7010   18.0235  -33.3297 H   0  0  0  0  0  0  0  0  0  0  0  0
   -9.7793   20.9253  -32.5517 H   0  0  0  0  0  0  0  0  0  0  0  0
   -6.0790   25.5040  -30.6590 H   0  0  0  0  0  0  0  0  0  0  0  0
   -7.7090   24.9110  -31.0080 H   0  0  0  0  0  0  0  0  0  0  0  0
  1  2  1  0
  2  3  1  0
  3  4  1  0
  3  5  1  0
  5  6  1  0
  6  7  1  0
  7  8  2  0
  8  9  1  0
  9 10  2  0
 10 11  1  0
  5 12  1  0
 12 13  2  0
 12 14  1  0
 14 15  1  0
 15 16  1  0
 16 17  2  0
 17 18  1  0
 18 19  1  0
 18 20  2  0
 20 21  1  0
 21 22  2  0
 21 23  1  0
 23 24  1  0
 24 25  1  0
 11  7  1  0
 24 14  2  0
 23 16  1  0
  1 26  1  0
  1 27  1  0
  1 28  1  0
  2 29  1  0
  2 30  1  0
  3 31  1  1
  4 32  1  0
  4 33  1  0
  4 34  1  0
  6 35  1  0
  6 36  1  0
  8 37  1  0
  9 38  1  0
 10 39  1  0
 17 40  1  0
 19 41  1  0
 19 42  1  0
 19 43  1  0
 20 44  1  0
 25 45  1  0
 25 46  1  0
M  CHG  1  17   1
M  END
>  <UniqueID>  (11) 
11

>  <SMILES>  (11) 
CC[C@H](C)N(Cc1cccs1)C(=O)c1sc2[nH+]c(C)cc(=O)n2c1N

>  <Energy>  (11) 
111.50994600427758

>  <Genealogy>  (11) 
CCC(C)N(Cc1cccs1)C(=O)c1sc2[nH+]c(C)cc(=O)n2c1N (protonated)
CC[C@H](C)N(Cc1cccs1)C(=O)c1sc2[nH+]c(C)cc(=O)n2c1N (chirality)
CC[C@H](C)N(Cc1cccs1)C(=O)c1sc2[nH+]c(C)cc(=O)n2c1N (3D coordinates assigned)
CC[C@H](C)N(Cc1cccs1)C(=O)c1sc2[nH+]c(C)cc(=O)n2c1N (optimized conformer: 111.50994600427758 kcal/mol)

>  <smiles>  (11) 
CCC(C)N(Cc1cccs1)C(=O)c1sc2nc(C)cc(=O)n2c1N

>  <score_type>  (11) 
oracle

>  <origin>  (11) 
adg

>  <m_score__min__energy>  (11) 
-7.29

>  <m_primary>  (11) 
energy

$$$$
11:0
     RDKit          3D

 32 34  0  0  0  0  0  0  0  0999 V2000
   -5.4600   16.2520  -32.3540 C   0  0  0  0  0  0  0  0  0  0  0  0
   -5.7240   17.4410  -31.6170 O   0  0  0  0  0  0  0  0  0  0  0  0
   -6.7060   18.3870  -31.9540 C   0  0  0  0  0  0  0  0  0  0  0  0
   -8.0280   18.2840  -31.4740 C   0  0  0  0  0  0  0  0  0  0  0  0
   -8.9900   19.2280  -31.8420 C   0  0  0  0  0  0  0  0  0  0  0  0
   -8.6470   20.2840  -32.6850 C   0  0  0  0  0  0  0  0  0  0  0  0
   -7.3410   20.4030  -33.1630 C   0  0  0  0  0  0  0  0  0  0  0  0
   -6.3640   19.4580  -32.8080 C   0  0  0  0  0  0  0  0  0  0  0  0
   -4.9820   19.6100  -33.3150 C   0  0  0  0  0  0  0  0  0  0  0  0
   -4.3040   18.6920  -34.0970 C   0  0  0  0  0  0  0  0  0  0  0  0
   -3.0660   19.0920  -34.2740 O   0  0  0  0  0  0  0  0  0  0  0  0
   -2.8870   20.2300  -33.6440 C   0  0  0  0  0  0  0  0  0  0  0  0
   -4.0610   20.6080  -33.0200 C   0  0  0  0  0  0  0  0  0  0  0  0
   -4.2700   21.8600  -32.2580 C   0  0  0  0  0  0  0  0  0  0  0  0
   -5.4350   22.6260  -32.4340 C   0  0  0  0  0  0  0  0  0  0  0  0
   -5.6000   23.8060  -31.7060 C   0  0  0  0  0  0  0  0  0  0  0  0
   -4.6360   24.2160  -30.8410 N   0  0  0  0  0  0  0  0  0  0  0  0
   -3.4940   23.5020  -30.6580 C   0  0  0  0  0  0  0  0  0  0  0  0
   -3.2880   22.3160  -31.3660 C   0  0  0  0  0  0  0  0  0  0  0  0
   -5.2756   15.4216  -31.6565 H   0  0  0  0  0  0  0  0  0  0  0  0
   -6.3270   16.0131  -32.9875 H   0  0  0  0  0  0  0  0  0  0  0  0
   -4.5734   16.4025  -32.9875 H   0  0  0  0  0  0  0  0  0  0  0  0
   -8.3036   17.4550  -30.8055 H   0  0  0  0  0  0  0  0  0  0  0  0
  -10.0198   19.1378  -31.4659 H   0  0  0  0  0  0  0  0  0  0  0  0
   -9.4070   21.0249  -32.9740 H   0  0  0  0  0  0  0  0  0  0  0  0
   -7.0750   21.2425  -33.8222 H   0  0  0  0  0  0  0  0  0  0  0  0
   -4.7363   17.7677  -34.5079 H   0  0  0  0  0  0  0  0  0  0  0  0
   -1.9448   20.7971  -33.6169 H   0  0  0  0  0  0  0  0  0  0  0  0
   -6.2117   22.2982  -33.1406 H   0  0  0  0  0  0  0  0  0  0  0  0
   -6.5134   24.4055  -31.8333 H   0  0  0  0  0  0  0  0  0  0  0  0
   -2.7307   23.8590  -29.9510 H   0  0  0  0  0  0  0  0  0  0  0  0
   -2.3602   21.7422  -31.2249 H   0  0  0  0  0  0  0  0  0  0  0  0
  1  2  1  0
  2  3  1  0
  3  4  2  0
  4  5  1  0
  5  6  2  0
  6  7  1  0
  7  8  2  0
  8  9  1  0
  9 10  2  0
 10 11  1  0
 11 12  1  0
 12 13  2  0
 13 14  1  0
 14 15  2  0
 15 16  1  0
 16 17  2  0
 17 18  1  0
 18 19  2  0
  8  3  1  0
 13  9  1  0
 19 14  1  0
  1 20  1  0
  1 21  1  0
  1 22  1  0
  4 23  1  0
  5 24  1  0
  6 25  1  0
  7 26  1  0
 10 27  1  0
 12 28  1  0
 15 29  1  0
 16 30  1  0
 18 31  1  0
 19 32  1  0
M  END
>  <UniqueID>  (12) 
12

>  <SMILES>  (12) 
COc1ccccc1-c1cocc1-c1ccncc1

>  <Energy>  (12) 
70.68412639564758

>  <Genealogy>  (12) 
COc1ccccc1-c1cocc1-c1ccncc1 (3D coordinates assigned)
COc1ccccc1-c1cocc1-c1ccncc1 (optimized conformer: 70.68412639564758 kcal/mol)

>  <smiles>  (12) 
COc1ccccc1-c1cocc1-c1ccncc1

>  <score_type>  (12) 
oracle

>  <origin>  (12) 
adg

>  <m_score__min__energy>  (12) 
-6.8600000000000003

>  <m_primary>  (12) 
energy

$$$$
12:0
     RDKit          3D

 57 61  0  0  0  0  0  0  0  0999 V2000
   -4.5700   26.1180  -26.4530 H   0  0  0  0  0  0  0  0  0  0  0  0
   -4.0110   25.2450  -26.3210 N   0  0  0  0  0  0  0  0  0  0  0  0
   -3.8650   24.3980  -27.2840 C   0  0  0  0  0  0  0  0  0  0  0  0
   -4.8950   24.2290  -28.2320 O   0  0  0  0  0  0  0  0  0  0  0  0
   -4.7130   23.4600  -29.3930 C   0  0  0  0  0  0  0  0  0  0  0  0
   -5.6490   23.5290  -30.4220 C   0  0  0  0  0  0  0  0  0  0  0  0
   -6.5821   24.0934  -30.2780 H   0  0  0  0  0  0  0  0  0  0  0  0
   -5.4060   22.8840  -31.6350 C   0  0  0  0  0  0  0  0  0  0  0  0
   -6.1807   22.8746  -32.4159 H   0  0  0  0  0  0  0  0  0  0  0  0
   -4.1760   22.2470  -31.8620 C   0  0  0  0  0  0  0  0  0  0  0  0
   -3.8880   21.7080  -33.1230 C   0  0  0  0  0  0  0  0  0  0  0  0
   -4.6686   21.6851  -33.8977 H   0  0  0  0  0  0  0  0  0  0  0  0
   -2.6190   21.2000  -33.4040 C   0  0  0  0  0  0  0  0  0  0  0  0
   -2.4112   20.7595  -34.3903 H   0  0  0  0  0  0  0  0  0  0  0  0
   -1.6070   21.2490  -32.4330 C   0  0  0  0  0  0  0  0  0  0  0  0
   -0.2710   20.8240  -32.7570 N   0  0  0  0  0  0  0  0  0  0  0  0
    0.4000   21.4350  -33.6140 O   0  0  0  0  0  0  0  0  0  0  0  0
    0.2730   19.7070  -32.1620 O   0  0  0  0  0  0  0  0  0  0  0  0
   -1.9050   21.7590  -31.1570 C   0  0  0  0  0  0  0  0  0  0  0  0
   -1.1071   21.8240  -30.4026 H   0  0  0  0  0  0  0  0  0  0  0  0
   -3.2070   22.1890  -30.8250 C   0  0  0  0  0  0  0  0  0  0  0  0
   -3.5650   22.6490  -29.5220 C   0  0  0  0  0  0  0  0  0  0  0  0
   -2.8720   22.3290  -28.1920 C   0  0  1  0  0  0  0  0  0  0  0  0
   -3.5923   21.7686  -27.5779 H   0  0  0  0  0  0  0  0  0  0  0  0
   -1.8000   21.2500  -28.1970 C   0  0  0  0  0  0  0  0  0  0  0  0
   -0.4660   21.4790  -28.5950 C   0  0  0  0  0  0  0  0  0  0  0  0
   -0.1489   22.4919  -28.8839 H   0  0  0  0  0  0  0  0  0  0  0  0
    0.4530   20.4320  -28.6250 C   0  0  0  0  0  0  0  0  0  0  0  0
    1.4884   20.6273  -28.9408 H   0  0  0  0  0  0  0  0  0  0  0  0
    0.0740   19.1300  -28.2570 C   0  0  0  0  0  0  0  0  0  0  0  0
    1.0170   18.0400  -28.3430 N   0  0  0  0  0  0  0  0  0  0  0  0
    2.3380   18.1070  -27.7080 C   0  0  0  0  0  0  0  0  0  0  0  0
    3.1173   18.0362  -28.4811 H   0  0  0  0  0  0  0  0  0  0  0  0
    2.4306   19.0617  -27.1695 H   0  0  0  0  0  0  0  0  0  0  0  0
    2.5050   16.9430  -26.7060 C   0  0  0  0  0  0  0  0  0  0  0  0
    3.5472   16.5934  -26.7463 H   0  0  0  0  0  0  0  0  0  0  0  0
    2.2369   17.3268  -25.7106 H   0  0  0  0  0  0  0  0  0  0  0  0
    1.6080   15.7910  -26.9930 N   0  0  0  0  0  0  0  0  0  0  0  0
    0.6680   15.9780  -26.5600 H   0  0  0  0  0  0  0  0  0  0  0  0
    2.1320   14.5660  -26.3740 C   0  0  0  0  0  0  0  0  0  0  0  0
    2.0909   14.6620  -25.2790 H   0  0  0  0  0  0  0  0  0  0  0  0
    1.5229   13.7062  -26.6898 H   0  0  0  0  0  0  0  0  0  0  0  0
    3.1745   14.4126  -26.6898 H   0  0  0  0  0  0  0  0  0  0  0  0
    1.4190   15.5990  -28.4490 C   0  0  0  0  0  0  0  0  0  0  0  0
    2.4019   15.5156  -28.9358 H   0  0  0  0  0  0  0  0  0  0  0  0
    0.8385   14.6802  -28.6192 H   0  0  0  0  0  0  0  0  0  0  0  0
    0.6560   16.7950  -29.0440 C   0  0  0  0  0  0  0  0  0  0  0  0
    0.9111   16.8929  -30.1095 H   0  0  0  0  0  0  0  0  0  0  0  0
   -0.4238   16.6215  -28.9261 H   0  0  0  0  0  0  0  0  0  0  0  0
   -1.2470   18.9040  -27.8410 C   0  0  0  0  0  0  0  0  0  0  0  0
   -1.5626   17.8900  -27.5544 H   0  0  0  0  0  0  0  0  0  0  0  0
   -2.1620   19.9530  -27.7880 C   0  0  0  0  0  0  0  0  0  0  0  0
   -3.1819   19.7649  -27.4213 H   0  0  0  0  0  0  0  0  0  0  0  0
   -2.5670   23.6450  -27.4390 C   0  0  1  0  0  0  0  0  0  0  0  0
   -2.1134   23.4014  -26.4669 H   0  0  0  0  0  0  0  0  0  0  0  0
   -1.6200   24.4940  -28.1880 C   0  0  0  0  0  0  0  0  0  0  0  0
   -0.8800   25.1560  -28.7790 N   0  0  0  0  0  0  0  0  0  0  0  0
  1  2  1  0
  2  3  2  0
  3  4  1  0
  4  5  1  0
  5  6  2  0
  6  7  1  0
  6  8  1  0
  8  9  1  0
  8 10  2  0
 10 11  1  0
 11 12  1  0
 11 13  2  0
 13 14  1  0
 13 15  1  0
 15 16  1  0
 16 17  2  0
 16 18  1  0
 15 19  2  0
 19 20  1  0
 19 21  1  0
 21 22  2  0
 22 23  1  0
 23 24  1  1
 23 25  1  0
 25 26  2  0
 26 27  1  0
 26 28  1  0
 28 29  1  0
 28 30  2  0
 30 31  1  0
 31 32  1  0
 32 33  1  0
 32 34  1  0
 32 35  1  0
 35 36  1  0
 35 37  1  0
 35 38  1  0
 38 39  1  0
 38 40  1  0
 40 41  1  0
 40 42  1  0
 40 43  1  0
 38 44  1  0
 44 45  1  0
 44 46  1  0
 44 47  1  0
 47 48  1  0
 47 49  1  0
 30 50  1  0
 50 51  1  0
 50 52  2  0
 52 53  1  0
 23 54  1  0
 54 55  1  1
 54 56  1  0
 56 57  3  0
 54  3  1  0
 22  5  1  0
 52 25  1  0
 21 10  1  0
 47 31  1  0
M  CHG  3  16   1  18  -1  38   1
M  END
>  <UniqueID>  (13) 
13

>  <SMILES>  (13) 
[H]/N=C1\Oc2ccc3ccc([N+](=O)[O-])cc3c2[C@@H](c2ccc(N3CC[NH+](C)CC3)cc2)[C@H]1C#N

>  <Energy>  (13) 
99.27008145625047

>  <Genealogy>  (13) 
C[NH+]1CCN(c2ccc(C3c4c(ccc5ccc([N+](=O)[O-])cc45)OC(=N)C3C#N)cc2)CC1 (protonated)
C[NH+]1CCN(c2ccc([C@@H]3c4c(ccc5ccc([N+](=O)[O-])cc45)OC(=N)[C@@H]3C#N)cc2)CC1 (chirality)
[H]/N=C1\Oc2ccc3ccc([N+](=O)[O-])cc3c2[C@@H](c2ccc(N3CC[NH+](C)CC3)cc2)[C@H]1C#N (cis-trans isomerization)
[H]/N=C1\Oc2ccc3ccc([N+](=O)[O-])cc3c2[C@@H](c2ccc(N3CC[NH+](C)CC3)cc2)[C@H]1C#N (3D coordinates assigned)
[H]/N=C1\Oc2ccc3ccc([N+](=O)[O-])cc3c2[C@@H](c2ccc(N3CC[NH+](C)CC3)cc2)[C@H]1C#N (nonaromatic ring conformer: 99.27008145625047 kcal/mol)

>  <smiles>  (13) 
CN1CCN(c2ccc(C3c4c(ccc5ccc([N+](=O)[O-])cc45)OC(=N)C3C#N)cc2)CC1

>  <score_type>  (13) 
oracle

>  <origin>  (13) 
adg

>  <m_score__min__energy>  (13) 
-8.6099999999999994

>  <m_primary>  (13) 
energy

$$$$
13:0
     RDKit          3D

 44 46  0  0  0  0  0  0  0  0999 V2000
   -0.0411   21.5443  -28.9384 H   0  0  0  0  0  0  0  0  0  0  0  0
   -0.8410   22.2670  -29.1570 C   0  0  0  0  0  0  0  0  0  0  0  0
   -2.0640   21.8230  -29.6580 C   0  0  0  0  0  0  0  0  0  0  0  0
   -2.2194   20.7529  -29.8597 H   0  0  0  0  0  0  0  0  0  0  0  0
   -3.0920   22.7360  -29.9040 C   0  0  0  0  0  0  0  0  0  0  0  0
   -4.0566   22.3741  -30.2895 H   0  0  0  0  0  0  0  0  0  0  0  0
   -2.9130   24.1140  -29.6660 C   0  0  0  0  0  0  0  0  0  0  0  0
   -4.0660   24.9860  -29.8140 N   0  0  0  0  0  0  0  0  0  0  0  0
   -4.2790   25.6430  -29.0280 H   0  0  0  0  0  0  0  0  0  0  0  0
   -5.1430   24.7760  -30.7860 C   0  0  0  0  0  0  0  0  0  0  0  0
   -5.0919   25.5631  -31.5528 H   0  0  0  0  0  0  0  0  0  0  0  0
   -5.0126   23.7820  -31.2387 H   0  0  0  0  0  0  0  0  0  0  0  0
   -6.5290   24.8240  -30.1080 C   0  0  0  0  0  0  0  0  0  0  0  0
   -6.3991   25.1700  -29.0719 H   0  0  0  0  0  0  0  0  0  0  0  0
   -7.1568   25.5082  -30.6977 H   0  0  0  0  0  0  0  0  0  0  0  0
   -7.2380   23.4660  -30.0820 C   0  0  0  0  0  0  0  0  0  0  0  0
   -6.4948   22.6814  -29.8772 H   0  0  0  0  0  0  0  0  0  0  0  0
   -8.0079   23.5000  -29.2971 H   0  0  0  0  0  0  0  0  0  0  0  0
   -7.9020   23.1680  -31.3540 N   0  0  0  0  0  0  0  0  0  0  0  0
   -8.0780   21.9980  -31.9100 C   0  0  0  0  0  0  0  0  0  0  0  0
   -9.3480   21.4000  -32.0100 C   0  0  0  0  0  0  0  0  0  0  0  0
  -10.2363   21.9332  -31.6404 H   0  0  0  0  0  0  0  0  0  0  0  0
   -9.4830   20.1300  -32.5780 C   0  0  0  0  0  0  0  0  0  0  0  0
  -10.4779   19.6660  -32.6483 H   0  0  0  0  0  0  0  0  0  0  0  0
   -8.3960   19.4660  -33.0430 N   0  0  0  0  0  0  0  0  0  0  0  0
   -8.5340   18.5050  -33.4400 H   0  0  0  0  0  0  0  0  0  0  0  0
   -7.1490   20.0170  -32.9980 C   0  0  0  0  0  0  0  0  0  0  0  0
   -6.0440   19.3060  -33.5120 C   0  0  0  0  0  0  0  0  0  0  0  0
   -6.1886   18.3040  -33.9423 H   0  0  0  0  0  0  0  0  0  0  0  0
   -4.7640   19.8720  -33.4760 C   0  0  0  0  0  0  0  0  0  0  0  0
   -3.9047   19.3130  -33.8749 H   0  0  0  0  0  0  0  0  0  0  0  0
   -4.5770   21.1460  -32.9340 C   0  0  0  0  0  0  0  0  0  0  0  0
   -3.5710   21.5906  -32.9170 H   0  0  0  0  0  0  0  0  0  0  0  0
   -5.6590   21.8580  -32.4140 C   0  0  0  0  0  0  0  0  0  0  0  0
   -5.4985   22.8588  -31.9866 H   0  0  0  0  0  0  0  0  0  0  0  0
   -6.9590   21.3040  -32.4320 C   0  0  0  0  0  0  0  0  0  0  0  0
   -1.6590   24.5610  -29.1770 C   0  0  0  0  0  0  0  0  0  0  0  0
   -1.4210   25.9220  -28.9510 O   0  0  0  0  0  0  0  0  0  0  0  0
   -0.8890   26.4360  -27.7300 C   0  0  0  0  0  0  0  0  0  0  0  0
   -1.3903   25.9517  -26.8790 H   0  0  0  0  0  0  0  0  0  0  0  0
    0.1907   26.2303  -27.6851 H   0  0  0  0  0  0  0  0  0  0  0  0
   -1.0575   27.5221  -27.6851 H   0  0  0  0  0  0  0  0  0  0  0  0
   -0.6320   23.6280  -28.9330 C   0  0  0  0  0  0  0  0  0  0  0  0
    0.3436   23.9758  -28.5625 H   0  0  0  0  0  0  0  0  0  0  0  0
  1  2  1  0
  2  3  2  0
  3  4  1  0
  3  5  1  0
  5  6  1  0
  5  7  2  0
  7  8  1  0
  8  9  1  0
  8 10  1  0
 10 11  1  0
 10 12  1  0
 10 13  1  0
 13 14  1  0
 13 15  1  0
 13 16  1  0
 16 17  1  0
 16 18  1  0
 16 19  1  0
 19 20  2  0
 20 21  1  0
 21 22  1  0
 21 23  2  0
 23 24  1  0
 23 25  1  0
 25 26  1  0
 25 27  1  0
 27 28  2  0
 28 29  1  0
 28 30  1  0
 30 31  1  0
 30 32  2  0
 32 33  1  0
 32 34  1  0
 34 35  1  0
 34 36  2  0
  7 37  1  0
 37 38  1  0
 38 39  1  0
 39 40  1  0
 39 41  1  0
 39 42  1  0
 37 43  2  0
 43 44  1  0
 43  2  1  0
 36 20  1  0
 36 27  1  0
M  END
>  <UniqueID>  (14) 
14

>  <SMILES>  (14) 
COc1ccccc1NCCC/N=c1\cc[nH]c2ccccc12

>  <Energy>  (14) 
59.89668130636807

>  <Genealogy>  (14) 
COc1ccccc1NCCC/N=c1\cc[nH]c2ccccc12 (cis-trans isomerization)
COc1ccccc1NCCC/N=c1\cc[nH]c2ccccc12 (3D coordinates assigned)
COc1ccccc1NCCC/N=c1\cc[nH]c2ccccc12 (optimized conformer: 59.89668130636807 kcal/mol)

>  <smiles>  (14) 
COc1ccccc1NCCCN=c1cc[nH]c2ccccc12

>  <score_type>  (14) 
oracle

>  <origin>  (14) 
adg

>  <m_score__min__energy>  (14) 
-9.2599999999999998

>  <m_primary>  (14) 
energy

$$$$
14:0
     RDKit          3D

 39 41  0  0  0  0  0  0  0  0999 V2000
   -9.3080   20.0290  -32.6500 C   0  0  0  0  0  0  0  0  0  0  0  0
   -8.0500   20.7790  -32.3510 C   0  0  0  0  0  0  0  0  0  0  0  0
   -6.8100   20.2620  -32.7440 C   0  0  0  0  0  0  0  0  0  0  0  0
   -5.6310   20.9710  -32.4620 C   0  0  0  0  0  0  0  0  0  0  0  0
   -4.3080   20.3920  -32.8950 C   0  0  0  0  0  0  0  0  0  0  0  0
   -5.7190   22.2090  -31.7790 C   0  0  0  0  0  0  0  0  0  0  0  0
   -4.5830   22.9790  -31.4580 C   0  0  0  0  0  0  0  0  0  0  0  0
   -4.7110   24.1880  -30.7630 C   0  0  0  0  0  0  0  0  0  0  0  0
   -3.5250   24.9350  -30.4560 N   0  0  0  0  0  0  0  0  0  0  0  0
   -2.5140   24.5760  -29.5040 C   0  0  0  0  0  0  0  0  0  0  0  0
   -1.8320   25.4890  -28.9700 O   0  0  0  0  0  0  0  0  0  0  0  0
   -2.2310   23.1660  -29.1480 C   0  0  0  0  0  0  0  0  0  0  0  0
   -1.1580   22.5210  -29.7880 C   0  0  0  0  0  0  0  0  0  0  0  0
   -0.8180   21.2090  -29.4570 C   0  0  0  0  0  0  0  0  0  0  0  0
   -1.5480   20.5200  -28.4900 C   0  0  0  0  0  0  0  0  0  0  0  0
   -2.6340   21.1340  -27.8630 C   0  0  0  0  0  0  0  0  0  0  0  0
   -3.0050   22.4480  -28.1990 C   0  0  0  0  0  0  0  0  0  0  0  0
   -4.2130   23.0430  -27.5250 C   0  0  0  0  0  0  0  0  0  0  0  0
   -5.9890   24.6580  -30.4200 C   0  0  0  0  0  0  0  0  0  0  0  0
   -7.1230   23.9080  -30.7340 C   0  0  0  0  0  0  0  0  0  0  0  0
   -6.9970   22.6880  -31.4030 C   0  0  0  0  0  0  0  0  0  0  0  0
   -8.1110   21.9680  -31.6980 N   0  0  0  0  0  0  0  0  0  0  0  0
   -9.7948   19.7388  -31.7072 H   0  0  0  0  0  0  0  0  0  0  0  0
   -9.9874   20.6696  -33.2314 H   0  0  0  0  0  0  0  0  0  0  0  0
   -9.0676   19.1267  -33.2314 H   0  0  0  0  0  0  0  0  0  0  0  0
   -6.7590   19.2995  -33.2742 H   0  0  0  0  0  0  0  0  0  0  0  0
   -3.7134   20.1318  -32.0069 H   0  0  0  0  0  0  0  0  0  0  0  0
   -4.4828   19.4881  -33.4970 H   0  0  0  0  0  0  0  0  0  0  0  0
   -3.7626   21.1337  -33.4970 H   0  0  0  0  0  0  0  0  0  0  0  0
   -3.5848   22.6264  -31.7567 H   0  0  0  0  0  0  0  0  0  0  0  0
   -0.5812   23.0559  -30.5569 H   0  0  0  0  0  0  0  0  0  0  0  0
    0.0277   20.7174  -29.9601 H   0  0  0  0  0  0  0  0  0  0  0  0
   -1.2681   19.4909  -28.2204 H   0  0  0  0  0  0  0  0  0  0  0  0
   -3.2044   20.5849  -27.0994 H   0  0  0  0  0  0  0  0  0  0  0  0
   -4.0907   22.9828  -26.4335 H   0  0  0  0  0  0  0  0  0  0  0  0
   -4.3185   24.0961  -27.8246 H   0  0  0  0  0  0  0  0  0  0  0  0
   -5.1122   22.4847  -27.8246 H   0  0  0  0  0  0  0  0  0  0  0  0
   -6.0967   25.6220  -29.9013 H   0  0  0  0  0  0  0  0  0  0  0  0
   -8.1200   24.2788  -30.4537 H   0  0  0  0  0  0  0  0  0  0  0  0
  1  2  1  0
  2  3  2  0
  3  4  1  0
  4  5  1  0
  4  6  2  0
  6  7  1  0
  7  8  2  0
  8  9  1  0
  9 10  1  0
 10 11  2  0
 10 12  1  0
 12 13  2  0
 13 14  1  0
 14 15  2  0
 15 16  1  0
 16 17  2  0
 17 18  1  0
  8 19  1  0
 19 20  2  0
 20 21  1  0
 21 22  2  0
 22  2  1  0
 21  6  1  0
 17 12  1  0
  1 23  1  0
  1 24  1  0
  1 25  1  0
  3 26  1  0
  5 27  1  0
  5 28  1  0
  5 29  1  0
  7 30  1  0
 13 31  1  0
 14 32  1  0
 15 33  1  0
 16 34  1  0
 18 35  1  0
 18 36  1  0
 18 37  1  0
 19 38  1  0
 20 39  1  0
M  CHG  1   9  -1
M  END
>  <UniqueID>  (15) 
15

>  <SMILES>  (15) 
Cc1cc(C)c2cc([N-]C(=O)c3ccccc3C)ccc2n1

>  <Energy>  (15) 
53.81929552638643

>  <Genealogy>  (15) 
Cc1cc(C)c2cc([N-]C(=O)c3ccccc3C)ccc2n1 (protonated)
Cc1cc(C)c2cc([N-]C(=O)c3ccccc3C)ccc2n1 (3D coordinates assigned)
Cc1cc(C)c2cc([N-]C(=O)c3ccccc3C)ccc2n1 (optimized conformer: 53.81929552638643 kcal/mol)

>  <smiles>  (15) 
Cc1cc(C)c2cc(NC(=O)c3ccccc3C)ccc2n1

>  <score_type>  (15) 
oracle

>  <origin>  (15) 
adg

>  <m_score__min__energy>  (15) 
-10.42

>  <m_primary>  (15) 
energy

$$$$
15:0
     RDKit          3D

 45 47  0  0  1  0  0  0  0  0999 V2000
   -8.2010   22.8250  -31.9860 C   0  0  0  0  0  0  0  0  0  0  0  0
   -7.4120   21.8490  -32.6420 O   0  0  0  0  0  0  0  0  0  0  0  0
   -7.7290   20.5160  -32.4090 C   0  0  0  0  0  0  0  0  0  0  0  0
   -8.7740   20.1210  -31.5970 C   0  0  0  0  0  0  0  0  0  0  0  0
   -9.0790   18.7850  -31.3710 C   0  0  0  0  0  0  0  0  0  0  0  0
   -8.3000   17.8060  -31.9900 C   0  0  0  0  0  0  0  0  0  0  0  0
   -7.2370   18.1760  -32.8170 C   0  0  0  0  0  0  0  0  0  0  0  0
   -6.9730   19.5320  -33.0100 C   0  0  0  0  0  0  0  0  0  0  0  0
   -5.8310   19.8940  -33.8970 C   0  0  0  0  0  0  0  0  0  0  0  0
   -5.9500   24.4520  -30.6920 C   0  0  0  0  0  0  0  0  0  0  0  0
   -5.1570   23.8200  -31.7250 N   0  0  0  0  0  0  0  0  0  0  0  0
   -4.3220   22.8750  -31.5520 C   0  0  0  0  0  0  0  0  0  0  0  0
   -4.6640   21.6370  -31.9260 N   0  0  0  0  0  0  0  0  0  0  0  0
   -3.7910   20.6330  -31.7490 C   0  0  0  0  0  0  0  0  0  0  0  0
   -4.1570   19.4620  -32.1210 N   0  0  0  0  0  0  0  0  0  0  0  0
   -4.5610   19.2170  -33.4560 C   0  0  0  0  0  0  0  0  0  0  0  0
   -5.2440   25.6540  -30.1060 C   0  0  0  0  0  0  0  0  0  0  0  0
   -3.9660   25.6630  -30.6630 O   0  0  0  0  0  0  0  0  0  0  0  0
   -3.1310   23.1890  -31.0000 N   0  0  0  0  0  0  0  0  0  0  0  0
   -2.2270   22.1940  -30.8090 C   0  0  0  0  0  0  0  0  0  0  0  0
   -1.0460   22.4980  -30.2610 N   0  0  0  0  0  0  0  0  0  0  0  0
   -0.1770   21.4780  -30.0900 C   0  0  0  0  0  0  0  0  0  0  0  0
   -0.4800   20.1830  -30.4570 C   0  0  0  0  0  0  0  0  0  0  0  0
   -1.6850   19.9350  -31.0040 N   0  0  0  0  0  0  0  0  0  0  0  0
   -2.5700   20.9290  -31.1870 C   0  0  0  0  0  0  0  0  0  0  0  0
   -8.1033   22.7041  -30.8970 H   0  0  0  0  0  0  0  0  0  0  0  0
   -7.8578   23.8291  -32.2757 H   0  0  0  0  0  0  0  0  0  0  0  0
   -9.2548   22.6999  -32.2757 H   0  0  0  0  0  0  0  0  0  0  0  0
   -9.3879   20.8936  -31.1110 H   0  0  0  0  0  0  0  0  0  0  0  0
   -9.9178   18.5040  -30.7172 H   0  0  0  0  0  0  0  0  0  0  0  0
   -8.5236   16.7415  -31.8262 H   0  0  0  0  0  0  0  0  0  0  0  0
   -6.6181   17.4106  -33.3081 H   0  0  0  0  0  0  0  0  0  0  0  0
   -6.0640   19.5834  -34.9262 H   0  0  0  0  0  0  0  0  0  0  0  0
   -5.6811   20.9824  -33.8439 H   0  0  0  0  0  0  0  0  0  0  0  0
   -6.9076   24.7765  -31.1253 H   0  0  0  0  0  0  0  0  0  0  0  0
   -6.1114   23.7208  -29.8862 H   0  0  0  0  0  0  0  0  0  0  0  0
   -5.5850   21.4670  -32.3390 H   0  0  0  0  0  0  0  0  0  0  0  0
   -4.7007   18.1320  -33.5714 H   0  0  0  0  0  0  0  0  0  0  0  0
   -3.7657   19.6388  -34.0881 H   0  0  0  0  0  0  0  0  0  0  0  0
   -5.7811   26.5774  -30.3685 H   0  0  0  0  0  0  0  0  0  0  0  0
   -5.2029   25.5994  -29.0081 H   0  0  0  0  0  0  0  0  0  0  0  0
   -4.0570   25.6810  -31.6350 H   0  0  0  0  0  0  0  0  0  0  0  0
   -2.8670   24.1420  -30.7110 H   0  0  0  0  0  0  0  0  0  0  0  0
    0.8060   21.6871  -29.6428 H   0  0  0  0  0  0  0  0  0  0  0  0
    0.2468   19.3712  -30.3061 H   0  0  0  0  0  0  0  0  0  0  0  0
  1  2  1  0
  2  3  1  0
  3  4  2  0
  4  5  1  0
  5  6  2  0
  6  7  1  0
  7  8  2  0
  8  9  1  0
  9 10  1  0
 10 11  1  0
 11 12  2  0
 12 13  1  0
 13 14  1  0
 14 15  2  0
 15 16  1  0
 16 17  1  0
 17 18  1  0
 14 19  1  0
 19 20  1  0
 20 21  2  0
 21 22  1  0
 22 23  2  0
 23 24  1  0
 24 25  2  0
  8  3  1  0
 25 12  1  0
 25 20  1  0
  1 26  1  0
  1 27  1  0
  1 28  1  0
  4 29  1  0
  5 30  1  0
  6 31  1  0
  7 32  1  0
  9 33  1  0
  9 34  1  0
 10 35  1  0
 10 36  1  0
 13 37  1  0
 16 38  1  0
 16 39  1  0
 17 40  1  0
 17 41  1  0
 18 42  1  0
 19 43  1  0
 22 44  1  0
 23 45  1  0
M  END
>  <smiles>  (16) 
COc1ccccc1CCN=c1[nH]c(=NCCO)[nH]c2nccnc12

>  <score_type>  (16) 
oracle

>  <origin>  (16) 
adg

>  <m_score__min__energy>  (16) 
-7.96

>  <m_primary>  (16) 
energy

$$$$
16:0
     RDKit          3D

 56 59  0  0  0  0  0  0  0  0999 V2000
    0.3200   18.3660  -27.8000 C   0  0  0  0  0  0  0  0  0  0  0  0
   -0.8720   19.0200  -28.2220 O   0  0  0  0  0  0  0  0  0  0  0  0
   -1.1490   20.3820  -28.0110 C   0  0  0  0  0  0  0  0  0  0  0  0
   -1.2370   20.9340  -26.7180 C   0  0  0  0  0  0  0  0  0  0  0  0
   -1.5160   22.2920  -26.5460 C   0  0  0  0  0  0  0  0  0  0  0  0
   -1.7050   23.1250  -27.6590 C   0  0  0  0  0  0  0  0  0  0  0  0
   -2.0360   24.5800  -27.4720 C   0  0  0  0  0  0  0  0  0  0  0  0
   -2.0520   25.2830  -28.7930 C   0  0  0  0  0  0  0  0  0  0  0  0
   -1.1080   26.0480  -29.1150 O   0  0  0  0  0  0  0  0  0  0  0  0
   -3.1070   25.0850  -29.6750 O   0  0  0  0  0  0  0  0  0  0  0  0
   -1.6310   22.5770  -28.9480 C   0  0  0  0  0  0  0  0  0  0  0  0
   -1.3460   21.2160  -29.1270 C   0  0  0  0  0  0  0  0  0  0  0  0
   -1.2720   20.6690  -30.4980 C   0  0  0  0  0  0  0  0  0  0  0  0
   -0.2200   19.7980  -30.8120 C   0  0  0  0  0  0  0  0  0  0  0  0
   -0.1230   19.2410  -32.0830 C   0  0  0  0  0  0  0  0  0  0  0  0
   -1.0790   19.5340  -33.0550 C   0  0  0  0  0  0  0  0  0  0  0  0
   -0.9530   18.9830  -34.2900 F   0  0  0  0  0  0  0  0  0  0  0  0
   -2.1590   20.3840  -32.7560 C   0  0  0  0  0  0  0  0  0  0  0  0
   -2.2480   20.9820  -31.4770 C   0  0  0  0  0  0  0  0  0  0  0  0
   -3.4380   21.8440  -31.1120 C   0  0  0  0  0  0  0  0  0  0  0  0
   -4.2920   22.2550  -32.3220 C   0  0  0  0  0  0  0  0  0  0  0  0
   -4.4650   21.1680  -33.3050 N   0  0  2  0  0  0  0  0  0  0  0  0
   -5.2630   20.0700  -32.7790 C   0  0  0  0  0  0  0  0  0  0  0  0
   -4.9400   19.5190  -31.7360 O   0  0  0  0  0  0  0  0  0  0  0  0
   -6.4970   19.5780  -33.5200 C   0  0  0  0  0  0  0  0  0  0  0  0
   -6.4730   18.0620  -33.6900 C   0  0  0  0  0  0  0  0  0  0  0  0
   -7.2360   17.4820  -32.5010 C   0  0  0  0  0  0  0  0  0  0  0  0
   -8.0040   18.6330  -31.8560 C   0  0  0  0  0  0  0  0  0  0  0  0
   -7.7700   19.8610  -32.7270 C   0  0  0  0  0  0  0  0  0  0  0  0
   -3.1670   20.7060  -33.8370 C   0  0  0  0  0  0  0  0  0  0  0  0
    0.3575   18.3454  -26.7008 H   0  0  0  0  0  0  0  0  0  0  0  0
    0.3298   17.3362  -28.1865 H   0  0  0  0  0  0  0  0  0  0  0  0
    1.1938   18.9110  -28.1865 H   0  0  0  0  0  0  0  0  0  0  0  0
   -1.0851   20.2916  -25.8381 H   0  0  0  0  0  0  0  0  0  0  0  0
   -1.5880   22.7109  -25.5314 H   0  0  0  0  0  0  0  0  0  0  0  0
   -3.0262   24.6693  -27.0014 H   0  0  0  0  0  0  0  0  0  0  0  0
   -1.2709   25.0414  -26.8304 H   0  0  0  0  0  0  0  0  0  0  0  0
   -1.7978   23.2198  -29.8249 H   0  0  0  0  0  0  0  0  0  0  0  0
    0.5335   19.5533  -30.0489 H   0  0  0  0  0  0  0  0  0  0  0  0
    0.7119   18.5661  -32.3225 H   0  0  0  0  0  0  0  0  0  0  0  0
   -4.0736   21.2816  -30.4122 H   0  0  0  0  0  0  0  0  0  0  0  0
   -3.0428   22.7687  -30.6661 H   0  0  0  0  0  0  0  0  0  0  0  0
   -5.2848   22.5622  -31.9615 H   0  0  0  0  0  0  0  0  0  0  0  0
   -3.7660   23.0763  -32.8307 H   0  0  0  0  0  0  0  0  0  0  0  0
   -4.9800   21.5890  -34.1150 H   0  0  0  0  0  0  0  0  0  0  0  0
   -6.4893   20.1018  -34.4873 H   0  0  0  0  0  0  0  0  0  0  0  0
   -6.9637   17.7772  -34.6324 H   0  0  0  0  0  0  0  0  0  0  0  0
   -5.4416   17.6813  -33.7257 H   0  0  0  0  0  0  0  0  0  0  0  0
   -7.9365   16.7064  -32.8442 H   0  0  0  0  0  0  0  0  0  0  0  0
   -6.5454   17.0196  -31.7804 H   0  0  0  0  0  0  0  0  0  0  0  0
   -9.0775   18.3964  -31.8156 H   0  0  0  0  0  0  0  0  0  0  0  0
   -7.6605   18.8085  -30.8258 H   0  0  0  0  0  0  0  0  0  0  0  0
   -8.6194   20.0132  -33.4092 H   0  0  0  0  0  0  0  0  0  0  0  0
   -7.6720   20.7729  -32.1197 H   0  0  0  0  0  0  0  0  0  0  0  0
   -3.3378   19.7997  -34.4366 H   0  0  0  0  0  0  0  0  0  0  0  0
   -2.7497   21.5274  -34.4381 H   0  0  0  0  0  0  0  0  0  0  0  0
  1  2  1  0
  2  3  1  0
  3  4  2  0
  4  5  1  0
  5  6  2  0
  6  7  1  0
  7  8  1  0
  8  9  2  0
  8 10  1  0
  6 11  1  0
 11 12  2  0
 12 13  1  0
 13 14  2  0
 14 15  1  0
 15 16  2  0
 16 17  1  0
 16 18  1  0
 18 19  2  0
 19 20  1  0
 20 21  1  0
 21 22  1  0
 22 23  1  0
 23 24  2  0
 23 25  1  0
 25 26  1  0
 26 27  1  0
 27 28  1  0
 28 29  1  0
 22 30  1  0
 12  3  1  0
 19 13  1  0
 29 25  1  0
 30 18  1  0
  1 31  1  0
  1 32  1  0
  1 33  1  0
  4 34  1  0
  5 35  1  0
  7 36  1  0
  7 37  1  0
 11 38  1  0
 14 39  1  0
 15 40  1  0
 20 41  1  0
 20 42  1  0
 21 43  1  0
 21 44  1  0
 22 45  1  6
 25 46  1  0
 26 47  1  0
 26 48  1  0
 27 49  1  0
 27 50  1  0
 28 51  1  0
 28 52  1  0
 29 53  1  0
 29 54  1  0
 30 55  1  0
 30 56  1  0
M  CHG  2  10  -1  22   1
M  END
>  <UniqueID>  (17) 
16

>  <SMILES>  (17) 
COc1ccc(CC(=O)[O-])cc1-c1ccc(F)c2c1CC[N@H+](C(=O)C1CCCC1)C2

>  <Energy>  (17) 
71.38184750037392

>  <Genealogy>  (17) 
COc1ccc(CC(=O)[O-])cc1-c1ccc(F)c2c1CC[NH+](C(=O)C1CCCC1)C2 (protonated)
COc1ccc(CC(=O)[O-])cc1-c1ccc(F)c2c1CC[N@H+](C(=O)C1CCCC1)C2 (chirality)
COc1ccc(CC(=O)[O-])cc1-c1ccc(F)c2c1CC[N@H+](C(=O)C1CCCC1)C2 (3D coordinates assigned)
COc1ccc(CC(=O)[O-])cc1-c1ccc(F)c2c1CC[N@H+](C(=O)C1CCCC1)C2 (nonaromatic ring conformer: 71.38184750037392 kcal/mol)

>  <smiles>  (17) 
COc1ccc(CC(=O)O)cc1-c1ccc(F)c2c1CCN(C(=O)C1CCCC1)C2

>  <score_type>  (17) 
oracle

>  <origin>  (17) 
adg

>  <m_score__min__energy>  (17) 
-10.6

>  <m_primary>  (17) 
energy

$$$$
17:0
     RDKit          3D

 46 49  0  0  0  0  0  0  0  0999 V2000
   -4.0329   15.7901  -35.6380 H   0  0  0  0  0  0  0  0  0  0  0  0
   -3.9810   16.5660  -34.8600 C   0  0  0  0  0  0  0  0  0  0  0  0
   -2.8300   17.2550  -34.6710 N   0  0  0  0  0  0  0  0  0  0  0  0
   -2.7340   18.2600  -33.7640 C   0  0  0  0  0  0  0  0  0  0  0  0
   -1.5370   18.9750  -33.6730 C   0  0  0  0  0  0  0  0  0  0  0  0
   -0.6636   18.6560  -34.2607 H   0  0  0  0  0  0  0  0  0  0  0  0
   -1.4430   20.0900  -32.8420 C   0  0  0  0  0  0  0  0  0  0  0  0
   -0.4859   20.6240  -32.7480 H   0  0  0  0  0  0  0  0  0  0  0  0
   -2.5640   20.5340  -32.1250 C   0  0  0  0  0  0  0  0  0  0  0  0
   -2.4890   21.7670  -31.2990 C   0  0  0  0  0  0  0  0  0  0  0  0
   -1.3370   22.0510  -30.5450 C   0  0  0  0  0  0  0  0  0  0  0  0
   -0.4843   21.3566  -30.5713 H   0  0  0  0  0  0  0  0  0  0  0  0
   -1.2640   23.2070  -29.7620 C   0  0  0  0  0  0  0  0  0  0  0  0
   -0.3561   23.4161  -29.1772 H   0  0  0  0  0  0  0  0  0  0  0  0
   -2.3460   24.1030  -29.7190 C   0  0  0  0  0  0  0  0  0  0  0  0
   -2.3180   25.3010  -28.9300 N   0  0  0  0  0  0  0  0  0  0  0  0
   -1.0680   25.7550  -27.8170 S   0  0  0  0  0  0  0  0  0  0  0  0
   -0.7830   27.2260  -27.9360 O   0  0  0  0  0  0  0  0  0  0  0  0
    0.1800   24.9920  -28.1570 O   0  0  0  0  0  0  0  0  0  0  0  0
   -1.5520   25.3490  -26.1530 C   0  0  0  0  0  0  0  0  0  0  0  0
   -0.9089   25.8885  -25.4421 H   0  0  0  0  0  0  0  0  0  0  0  0
   -2.6003   25.6419  -25.9943 H   0  0  0  0  0  0  0  0  0  0  0  0
   -1.4459   24.2657  -25.9943 H   0  0  0  0  0  0  0  0  0  0  0  0
   -3.4950   23.8210  -30.4660 C   0  0  0  0  0  0  0  0  0  0  0  0
   -4.3480   24.5150  -30.4366 H   0  0  0  0  0  0  0  0  0  0  0  0
   -3.5690   22.6660  -31.2490 C   0  0  0  0  0  0  0  0  0  0  0  0
   -4.4792   22.4585  -31.8308 H   0  0  0  0  0  0  0  0  0  0  0  0
   -3.7650   19.8080  -32.2110 C   0  0  0  0  0  0  0  0  0  0  0  0
   -4.6574   20.1775  -31.6846 H   0  0  0  0  0  0  0  0  0  0  0  0
   -3.8480   18.6120  -32.9610 C   0  0  0  0  0  0  0  0  0  0  0  0
   -5.0270   17.8030  -33.0460 C   0  0  0  0  0  0  0  0  0  0  0  0
   -6.0320   17.8610  -32.2060 N   0  0  0  0  0  0  0  0  0  0  0  0
   -7.1110   18.8020  -32.1200 C   0  0  0  0  0  0  0  0  0  0  0  0
   -8.4380   18.3990  -32.3560 C   0  0  0  0  0  0  0  0  0  0  0  0
   -8.6619   17.3430  -32.5676 H   0  0  0  0  0  0  0  0  0  0  0  0
   -9.4730   19.3390  -32.3220 C   0  0  0  0  0  0  0  0  0  0  0  0
  -10.5117   19.0187  -32.4906 H   0  0  0  0  0  0  0  0  0  0  0  0
   -9.1890   20.6850  -32.0740 C   0  0  0  0  0  0  0  0  0  0  0  0
  -10.0052   21.4215  -32.0354 H   0  0  0  0  0  0  0  0  0  0  0  0
   -7.8670   21.0950  -31.8750 C   0  0  0  0  0  0  0  0  0  0  0  0
   -7.6430   22.1557  -31.6883 H   0  0  0  0  0  0  0  0  0  0  0  0
   -6.8290   20.1580  -31.9130 C   0  0  0  0  0  0  0  0  0  0  0  0
   -5.7879   20.4874  -31.7799 H   0  0  0  0  0  0  0  0  0  0  0  0
   -5.1020   16.8360  -34.0720 C   0  0  0  0  0  0  0  0  0  0  0  0
   -6.2920   16.0410  -34.2720 C   0  0  0  0  0  0  0  0  0  0  0  0
   -7.2450   15.4040  -34.4330 N   0  0  0  0  0  0  0  0  0  0  0  0
  1  2  1  0
  2  3  1  0
  3  4  1  0
  4  5  2  0
  5  6  1  0
  5  7  1  0
  7  8  1  0
  7  9  2  0
  9 10  1  0
 10 11  2  0
 11 12  1  0
 11 13  1  0
 13 14  1  0
 13 15  2  0
 15 16  1  0
 16 17  1  0
 17 18  2  0
 17 19  2  0
 17 20  1  0
 20 21  1  0
 20 22  1  0
 20 23  1  0
 15 24  1  0
 24 25  1  0
 24 26  2  0
 26 27  1  0
  9 28  1  0
 28 29  1  0
 28 30  2  0
 30 31  1  0
 31 32  2  0
 32 33  1  0
 33 34  2  0
 34 35  1  0
 34 36  1  0
 36 37  1  0
 36 38  2  0
 38 39  1  0
 38 40  1  0
 40 41  1  0
 40 42  2  0
 42 43  1  0
 31 44  1  0
 44 45  1  0
 45 46  3  0
 44  2  2  0
 30  4  1  0
 42 33  1  0
 26 10  1  0
M  CHG  2   3  -1  16  -1
M  END
>  <UniqueID>  (18) 
17

>  <SMILES>  (18) 
CS(=O)(=O)[N-]c1ccc(-c2ccc3[n-]cc(C#N)/c(=N/c4ccccc4)c3c2)cc1

>  <Energy>  (18) 
78.01051417607388

>  <Genealogy>  (18) 
CS(=O)(=O)[N-]c1ccc(-c2ccc3[n-]cc(C#N)c(=Nc4ccccc4)c3c2)cc1 (protonated)
CS(=O)(=O)[N-]c1ccc(-c2ccc3[n-]cc(C#N)/c(=N/c4ccccc4)c3c2)cc1 (cis-trans isomerization)
CS(=O)(=O)[N-]c1ccc(-c2ccc3[n-]cc(C#N)/c(=N/c4ccccc4)c3c2)cc1 (3D coordinates assigned)
CS(=O)(=O)[N-]c1ccc(-c2ccc3[n-]cc(C#N)/c(=N/c4ccccc4)c3c2)cc1 (optimized conformer: 78.01051417607388 kcal/mol)

>  <smiles>  (18) 
CS(=O)(=O)Nc1ccc(-c2ccc3[nH]cc(C#N)c(=Nc4ccccc4)c3c2)cc1

>  <score_type>  (18) 
oracle

>  <origin>  (18) 
adg

>  <m_score__min__energy>  (18) 
-10.82

>  <m_primary>  (18) 
energy

$$$$
18:0
     RDKit          3D

 58 60  0  0  0  0  0  0  0  0999 V2000
   -5.7410   25.7360  -30.4360 C   0  0  0  0  0  0  0  0  0  0  0  0
   -5.7800   24.8720  -31.5660 O   0  0  0  0  0  0  0  0  0  0  0  0
   -6.4170   23.6210  -31.5970 C   0  0  0  0  0  0  0  0  0  0  0  0
   -7.8200   23.5120  -31.6540 C   0  0  0  0  0  0  0  0  0  0  0  0
   -8.4310   22.2570  -31.6630 C   0  0  0  0  0  0  0  0  0  0  0  0
   -7.6550   21.0910  -31.5960 C   0  0  0  0  0  0  0  0  0  0  0  0
   -8.2930   19.7590  -31.5840 C   0  0  0  0  0  0  0  0  0  0  0  0
   -7.9900   18.7650  -32.4340 C   0  0  0  0  0  0  0  0  0  0  0  0
   -6.7500   17.9600  -32.3860 C   0  0  0  0  0  0  0  0  0  0  0  0
   -6.3860   17.4150  -31.3080 O   0  0  0  0  0  0  0  0  0  0  0  0
   -5.8820   17.8930  -33.5810 C   0  0  0  0  0  0  0  0  0  0  0  0
   -5.1930   18.9270  -34.0840 C   0  0  0  0  0  0  0  0  0  0  0  0
   -3.8140   19.2900  -33.6950 C   0  0  0  0  0  0  0  0  0  0  0  0
   -3.3470   20.6080  -33.8260 C   0  0  0  0  0  0  0  0  0  0  0  0
   -2.0490   20.9400  -33.4320 C   0  0  0  0  0  0  0  0  0  0  0  0
   -1.2020   19.9620  -32.8950 C   0  0  0  0  0  0  0  0  0  0  0  0
    0.1800   20.3280  -32.4410 C   0  0  0  0  0  0  0  0  0  0  0  0
   -1.6850   18.6550  -32.7160 C   0  0  0  0  0  0  0  0  0  0  0  0
   -2.9860   18.3240  -33.1080 C   0  0  0  0  0  0  0  0  0  0  0  0
   -6.2610   21.1910  -31.5790 C   0  0  0  0  0  0  0  0  0  0  0  0
   -5.6340   22.4460  -31.5660 C   0  0  0  0  0  0  0  0  0  0  0  0
   -4.1300   22.5040  -31.4690 C   0  0  0  0  0  0  0  0  0  0  0  0
   -3.7180   23.7290  -30.8680 O   0  0  0  0  0  0  0  0  0  0  0  0
   -2.7870   23.7990  -29.8230 C   0  0  0  0  0  0  0  0  0  0  0  0
   -2.4750   24.9170  -29.3280 O   0  0  0  0  0  0  0  0  0  0  0  0
   -2.1730   22.5590  -29.2960 C   0  0  0  0  0  0  0  0  0  0  0  0
   -0.8590   22.1990  -29.6520 C   0  0  0  0  0  0  0  0  0  0  0  0
   -0.2900   21.0250  -29.1560 C   0  0  0  0  0  0  0  0  0  0  0  0
   -1.0180   20.2000  -28.2950 C   0  0  0  0  0  0  0  0  0  0  0  0
   -2.3210   20.5530  -27.9130 C   0  0  0  0  0  0  0  0  0  0  0  0
   -3.1180   19.6660  -27.0010 C   0  0  0  0  0  0  0  0  0  0  0  0
   -2.8990   21.7250  -28.4260 C   0  0  0  0  0  0  0  0  0  0  0  0
   -5.7681   25.1359  -29.5145 H   0  0  0  0  0  0  0  0  0  0  0  0
   -4.8152   26.3295  -30.4600 H   0  0  0  0  0  0  0  0  0  0  0  0
   -6.6096   26.4105  -30.4600 H   0  0  0  0  0  0  0  0  0  0  0  0
   -8.4380   24.4212  -31.6916 H   0  0  0  0  0  0  0  0  0  0  0  0
   -9.5268   22.1823  -31.7230 H   0  0  0  0  0  0  0  0  0  0  0  0
   -9.0687   19.5686  -30.8277 H   0  0  0  0  0  0  0  0  0  0  0  0
   -8.7180   18.5319  -33.2250 H   0  0  0  0  0  0  0  0  0  0  0  0
   -5.7953   16.9242  -34.0947 H   0  0  0  0  0  0  0  0  0  0  0  0
   -5.6901   19.5508  -34.8415 H   0  0  0  0  0  0  0  0  0  0  0  0
   -4.0075   21.3834  -34.2414 H   0  0  0  0  0  0  0  0  0  0  0  0
   -1.6902   21.9738  -33.5438 H   0  0  0  0  0  0  0  0  0  0  0  0
    0.2144   20.3371  -31.3416 H   0  0  0  0  0  0  0  0  0  0  0  0
    0.8995   19.5894  -32.8242 H   0  0  0  0  0  0  0  0  0  0  0  0
    0.4396   21.3259  -32.8242 H   0  0  0  0  0  0  0  0  0  0  0  0
   -1.0371   17.8886  -32.2656 H   0  0  0  0  0  0  0  0  0  0  0  0
   -3.3608   17.3012  -32.9549 H   0  0  0  0  0  0  0  0  0  0  0  0
   -5.6495   20.2767  -31.5758 H   0  0  0  0  0  0  0  0  0  0  0  0
   -3.7735   21.6622  -30.8573 H   0  0  0  0  0  0  0  0  0  0  0  0
   -3.7044   22.4423  -32.4814 H   0  0  0  0  0  0  0  0  0  0  0  0
   -0.2777   22.8467  -30.3248 H   0  0  0  0  0  0  0  0  0  0  0  0
    0.7350   20.7484  -29.4439 H   0  0  0  0  0  0  0  0  0  0  0  0
   -0.5681   19.2707  -27.9154 H   0  0  0  0  0  0  0  0  0  0  0  0
   -2.8916   19.9180  -25.9545 H   0  0  0  0  0  0  0  0  0  0  0  0
   -4.1913   19.8153  -27.1901 H   0  0  0  0  0  0  0  0  0  0  0  0
   -2.8551   18.6147  -27.1901 H   0  0  0  0  0  0  0  0  0  0  0  0
   -3.9282   21.9935  -28.1454 H   0  0  0  0  0  0  0  0  0  0  0  0
  1  2  1  0
  2  3  1  0
  3  4  2  0
  4  5  1  0
  5  6  2  0
  6  7  1  0
  7  8  2  3
  8  9  1  0
  9 10  2  0
  9 11  1  0
 11 12  2  3
 12 13  1  0
 13 14  2  0
 14 15  1  0
 15 16  2  0
 16 17  1  0
 16 18  1  0
 18 19  2  0
  6 20  1  0
 20 21  2  0
 21 22  1  0
 22 23  1  0
 23 24  1  0
 24 25  2  0
 24 26  1  0
 26 27  2  0
 27 28  1  0
 28 29  2  0
 29 30  1  0
 30 31  1  0
 30 32  2  0
 21  3  1  0
 32 26  1  0
 19 13  1  0
  1 33  1  0
  1 34  1  0
  1 35  1  0
  4 36  1  0
  5 37  1  0
  7 38  1  0
  8 39  1  0
 11 40  1  0
 12 41  1  0
 14 42  1  0
 15 43  1  0
 17 44  1  0
 17 45  1  0
 17 46  1  0
 18 47  1  0
 19 48  1  0
 20 49  1  0
 22 50  1  0
 22 51  1  0
 27 52  1  0
 28 53  1  0
 29 54  1  0
 31 55  1  0
 31 56  1  0
 31 57  1  0
 32 58  1  0
M  END
>  <UniqueID>  (19) 
18

>  <SMILES>  (19) 
COc1ccc(C=CC(=O)C=Cc2ccc(C)cc2)cc1COC(=O)c1cccc(C)c1

>  <Energy>  (19) 
70.94013727340466

>  <Genealogy>  (19) 
COc1ccc(C=CC(=O)C=Cc2ccc(C)cc2)cc1COC(=O)c1cccc(C)c1 (3D coordinates assigned)
COc1ccc(C=CC(=O)C=Cc2ccc(C)cc2)cc1COC(=O)c1cccc(C)c1 (optimized conformer: 70.94013727340466 kcal/mol)

>  <smiles>  (19) 
COc1ccc(C=CC(=O)C=Cc2ccc(C)cc2)cc1COC(=O)c1cccc(C)c1

>  <score_type>  (19) 
oracle

>  <origin>  (19) 
adg

>  <m_score__min__energy>  (19) 
-10.69

>  <m_primary>  (19) 
energy

$$$$
19:0
     RDKit          3D

 37 38  0  0  0  0  0  0  0  0999 V2000
   -3.4830   22.6480  -31.3680 H   0  0  0  0  0  0  0  0  0  0  0  0
   -4.3090   22.0870  -31.6690 N   0  0  0  0  0  0  0  0  0  0  0  0
   -5.5240   22.5380  -31.6270 C   0  0  0  0  0  0  0  0  0  0  0  0
   -5.8900   23.8050  -31.2080 C   0  0  0  0  0  0  0  0  0  0  0  0
   -5.0220   24.9130  -30.7840 C   0  0  0  0  0  0  0  0  0  0  0  0
   -5.4920   26.0800  -30.7050 O   0  0  0  0  0  0  0  0  0  0  0  0
   -3.6820   24.6670  -30.4730 O   0  0  0  0  0  0  0  0  0  0  0  0
   -3.2770   23.9940  -29.2860 C   0  0  0  0  0  0  0  0  0  0  0  0
   -3.8994   24.3318  -28.4443 H   0  0  0  0  0  0  0  0  0  0  0  0
   -3.3976   22.9094  -29.4244 H   0  0  0  0  0  0  0  0  0  0  0  0
   -1.8140   24.3040  -28.9900 C   0  0  0  0  0  0  0  0  0  0  0  0
   -1.5416   23.8820  -28.0114 H   0  0  0  0  0  0  0  0  0  0  0  0
   -1.1819   23.8595  -29.7729 H   0  0  0  0  0  0  0  0  0  0  0  0
   -1.6180   25.7060  -28.9690 O   0  0  0  0  0  0  0  0  0  0  0  0
   -0.9970   26.1060  -27.7650 C   0  0  0  0  0  0  0  0  0  0  0  0
   -0.0067   25.6336  -27.6874 H   0  0  0  0  0  0  0  0  0  0  0  0
   -0.8800   27.1997  -27.7555 H   0  0  0  0  0  0  0  0  0  0  0  0
   -1.8590   25.6750  -26.5900 C   0  0  0  0  0  0  0  0  0  0  0  0
   -1.3498   25.9296  -25.6488 H   0  0  0  0  0  0  0  0  0  0  0  0
   -2.8273   26.1950  -26.6353 H   0  0  0  0  0  0  0  0  0  0  0  0
   -2.0239   24.5884  -26.6353 H   0  0  0  0  0  0  0  0  0  0  0  0
   -7.2750   23.7930  -31.2380 C   0  0  0  0  0  0  0  0  0  0  0  0
   -7.9289   24.6344  -30.9652 H   0  0  0  0  0  0  0  0  0  0  0  0
   -7.6900   22.5790  -31.6570 N   0  0  0  0  0  0  0  0  0  0  0  0
   -8.6850   22.2870  -31.7860 H   0  0  0  0  0  0  0  0  0  0  0  0
   -6.6350   21.8170  -31.9020 N   0  0  0  0  0  0  0  0  0  0  0  0
   -6.7240   20.4680  -32.3910 C   0  0  0  0  0  0  0  0  0  0  0  0
   -5.9020   20.0510  -33.4500 C   0  0  0  0  0  0  0  0  0  0  0  0
   -5.2063   20.7638  -33.9168 H   0  0  0  0  0  0  0  0  0  0  0  0
   -5.9640   18.7330  -33.9140 C   0  0  0  0  0  0  0  0  0  0  0  0
   -5.3245   18.4143  -34.7503 H   0  0  0  0  0  0  0  0  0  0  0  0
   -6.8380   17.8200  -33.3160 C   0  0  0  0  0  0  0  0  0  0  0  0
   -6.8893   16.7849  -33.6847 H   0  0  0  0  0  0  0  0  0  0  0  0
   -7.6460   18.2230  -32.2500 C   0  0  0  0  0  0  0  0  0  0  0  0
   -8.3306   17.5034  -31.7773 H   0  0  0  0  0  0  0  0  0  0  0  0
   -7.5860   19.5390  -31.7830 C   0  0  0  0  0  0  0  0  0  0  0  0
   -8.2159   19.8490  -30.9362 H   0  0  0  0  0  0  0  0  0  0  0  0
  1  2  1  0
  2  3  2  0
  3  4  1  0
  4  5  1  0
  5  6  2  0
  5  7  1  0
  7  8  1  0
  8  9  1  0
  8 10  1  0
  8 11  1  0
 11 12  1  0
 11 13  1  0
 11 14  1  0
 14 15  1  0
 15 16  1  0
 15 17  1  0
 15 18  1  0
 18 19  1  0
 18 20  1  0
 18 21  1  0
  4 22  2  0
 22 23  1  0
 22 24  1  0
 24 25  1  0
 24 26  1  0
 26 27  1  0
 27 28  2  0
 28 29  1  0
 28 30  1  0
 30 31  1  0
 30 32  2  0
 32 33  1  0
 32 34  1  0
 34 35  1  0
 34 36  2  0
 36 37  1  0
 26  3  1  0
 36 27  1  0
M  END
>  <UniqueID>  (20) 
19

>  <SMILES>  (20) 
[H]/N=c1/c(C(=O)OCCOCC)c[nH]n1-c1ccccc1

>  <Energy>  (20) 
70.27262074461531

>  <Genealogy>  (20) 
[H]/N=c1/c(C(=O)OCCOCC)c[nH]n1-c1ccccc1 (cis-trans isomerization)
[H]/N=c1/c(C(=O)OCCOCC)c[nH]n1-c1ccccc1 (3D coordinates assigned)
[H]/N=c1/c(C(=O)OCCOCC)c[nH]n1-c1ccccc1 (optimized conformer: 70.27262074461531 kcal/mol)

>  <smiles>  (20) 
CCOCCOC(=O)c1c[nH]n(-c2ccccc2)c1=N

>  <score_type>  (20) 
oracle

>  <origin>  (20) 
adg

>  <m_score__min__energy>  (20) 
-7.5599999999999996

>  <m_primary>  (20) 
energy

$$$$
20:0
     RDKit          3D

 31 32  0  0  1  0  0  0  0  0999 V2000
   -3.1080   22.9840  -27.8270 C   0  0  0  0  0  0  0  0  0  0  0  0
   -3.7110   24.3580  -27.9250 C   0  0  0  0  0  0  0  0  0  0  0  0
   -4.9670   24.3590  -28.6740 N   0  0  0  0  0  0  0  0  0  0  0  0
   -4.9500   24.8580  -29.9830 C   0  0  0  0  0  0  0  0  0  0  0  0
   -3.8510   25.2890  -30.4710 O   0  0  0  0  0  0  0  0  0  0  0  0
   -6.1270   24.9330  -30.8800 C   0  0  0  0  0  0  0  0  0  0  0  0
   -6.7210   23.6540  -31.1700 N   0  0  0  0  0  0  0  0  0  0  0  0
   -6.0730   22.7520  -31.8230 C   0  0  0  0  0  0  0  0  0  0  0  0
   -4.7930   22.9190  -32.2070 N   0  0  0  0  0  0  0  0  0  0  0  0
   -4.2130   21.9110  -32.8840 C   0  0  0  0  0  0  0  0  0  0  0  0
   -4.8630   20.7640  -33.1820 N   0  0  0  0  0  0  0  0  0  0  0  0
   -6.1530   20.5550  -32.8130 C   0  0  0  0  0  0  0  0  0  0  0  0
   -7.0060   19.5680  -32.9630 O   0  0  0  0  0  0  0  0  0  0  0  0
   -8.1500   19.8880  -32.4010 C   0  0  0  0  0  0  0  0  0  0  0  0
   -9.3650   19.0260  -32.3620 C   0  0  0  0  0  0  0  0  0  0  0  0
   -8.0370   21.1650  -31.8500 C   0  0  0  0  0  0  0  0  0  0  0  0
   -6.7520   21.5880  -32.1170 C   0  0  0  0  0  0  0  0  0  0  0  0
   -2.9881   22.7109  -26.7682 H   0  0  0  0  0  0  0  0  0  0  0  0
   -3.7698   22.2571  -28.3205 H   0  0  0  0  0  0  0  0  0  0  0  0
   -2.1250   22.9789  -28.3205 H   0  0  0  0  0  0  0  0  0  0  0  0
   -3.9043   24.7331  -26.9092 H   0  0  0  0  0  0  0  0  0  0  0  0
   -2.9981   25.0017  -28.4611 H   0  0  0  0  0  0  0  0  0  0  0  0
   -5.8610   24.0090  -28.2800 H   0  0  0  0  0  0  0  0  0  0  0  0
   -6.8874   25.5677  -30.4015 H   0  0  0  0  0  0  0  0  0  0  0  0
   -5.7741   25.3458  -31.8366 H   0  0  0  0  0  0  0  0  0  0  0  0
   -4.3110   23.8120  -31.9670 H   0  0  0  0  0  0  0  0  0  0  0  0
   -3.1680   22.0251  -33.2079 H   0  0  0  0  0  0  0  0  0  0  0  0
   -9.6418   18.8296  -31.3157 H   0  0  0  0  0  0  0  0  0  0  0  0
  -10.1947   19.5386  -32.8708 H   0  0  0  0  0  0  0  0  0  0  0  0
   -9.1553   18.0735  -32.8708 H   0  0  0  0  0  0  0  0  0  0  0  0
   -8.8169   21.7226  -31.3106 H   0  0  0  0  0  0  0  0  0  0  0  0
  1  2  1  0
  2  3  1  0
  3  4  1  0
  4  5  2  0
  4  6  1  0
  6  7  1  0
  7  8  2  0
  8  9  1  0
  9 10  1  0
 10 11  2  0
 11 12  1  0
 12 13  1  0
 13 14  1  0
 14 15  1  0
 14 16  2  0
 16 17  1  0
 17  8  1  0
 17 12  2  0
  1 18  1  0
  1 19  1  0
  1 20  1  0
  2 21  1  0
  2 22  1  0
  3 23  1  0
  6 24  1  0
  6 25  1  0
  9 26  1  0
 10 27  1  0
 15 28  1  0
 15 29  1  0
 15 30  1  0
 16 31  1  0
M  END
>  <smiles>  (21) 
CCNC(=O)CN=c1[nH]cnc2oc(C)cc12

>  <score_type>  (21) 
oracle

>  <origin>  (21) 
adg

>  <m_score__min__energy>  (21) 
-6.4400000000000004

>  <m_primary>  (21) 
energy

$$$$
21:0
     RDKit          3D

 45 49  0  0  0  0  0  0  0  0999 V2000
   -5.1270   13.2360  -34.7370 C   0  0  0  0  0  0  0  0  0  0  0  0
   -4.5370   14.4780  -35.1060 O   0  0  0  0  0  0  0  0  0  0  0  0
   -4.8800   15.7150  -34.5430 C   0  0  0  0  0  0  0  0  0  0  0  0
   -6.1760   15.8750  -34.0210 C   0  0  0  0  0  0  0  0  0  0  0  0
   -6.5840   17.0900  -33.4490 C   0  0  0  0  0  0  0  0  0  0  0  0
   -5.7020   18.1840  -33.4450 C   0  0  0  0  0  0  0  0  0  0  0  0
   -4.3920   17.9860  -33.8960 C   0  0  0  0  0  0  0  0  0  0  0  0
   -3.9670   16.7860  -34.4610 C   0  0  0  0  0  0  0  0  0  0  0  0
   -3.4300   19.3190  -33.5530 S   0  0  0  0  0  0  0  0  0  0  0  0
   -4.6880   20.1830  -32.8450 C   0  0  0  0  0  0  0  0  0  0  0  0
   -4.5660   21.3860  -32.2400 N   0  0  0  0  0  0  0  0  0  0  0  0
   -5.6440   21.9770  -31.6560 C   0  0  0  0  0  0  0  0  0  0  0  0
   -5.4620   23.2270  -30.9760 N   0  0  0  0  0  0  0  0  0  0  0  0
   -4.5970   23.3010  -29.7960 C   0  0  0  0  0  0  0  0  0  0  0  0
   -3.7000   24.5560  -29.8410 C   0  0  0  0  0  0  0  0  0  0  0  0
   -4.2620   25.6820  -30.6150 N   0  0  0  0  0  0  0  0  0  0  0  0
   -5.7290   25.6540  -30.6830 C   0  0  0  0  0  0  0  0  0  0  0  0
   -6.2000   24.4060  -31.4330 C   0  0  0  0  0  0  0  0  0  0  0  0
   -6.9260   21.3810  -31.7640 C   0  0  0  0  0  0  0  0  0  0  0  0
   -8.0690   22.0230  -31.2490 C   0  0  0  0  0  0  0  0  0  0  0  0
   -9.3390   21.4890  -31.4630 C   0  0  0  0  0  0  0  0  0  0  0  0
   -9.4900   20.3350  -32.2280 C   0  0  0  0  0  0  0  0  0  0  0  0
   -8.3700   19.6750  -32.7380 C   0  0  0  0  0  0  0  0  0  0  0  0
   -7.0690   20.1370  -32.4510 C   0  0  0  0  0  0  0  0  0  0  0  0
   -5.8940   19.4850  -32.9040 C   0  0  0  0  0  0  0  0  0  0  0  0
   -5.1636   13.1589  -33.6403 H   0  0  0  0  0  0  0  0  0  0  0  0
   -6.1479   13.1801  -35.1428 H   0  0  0  0  0  0  0  0  0  0  0  0
   -4.5254   12.4093  -35.1428 H   0  0  0  0  0  0  0  0  0  0  0  0
   -6.8825   15.0329  -34.0617 H   0  0  0  0  0  0  0  0  0  0  0  0
   -7.5868   17.1852  -33.0071 H   0  0  0  0  0  0  0  0  0  0  0  0
   -2.9388   16.6761  -34.8360 H   0  0  0  0  0  0  0  0  0  0  0  0
   -3.6290   21.8490  -32.1940 H   0  0  0  0  0  0  0  0  0  0  0  0
   -5.2240   23.3400  -28.8931 H   0  0  0  0  0  0  0  0  0  0  0  0
   -3.9510   22.4108  -29.7806 H   0  0  0  0  0  0  0  0  0  0  0  0
   -3.5343   24.8973  -28.8085 H   0  0  0  0  0  0  0  0  0  0  0  0
   -2.7709   24.2590  -30.3495 H   0  0  0  0  0  0  0  0  0  0  0  0
   -3.8850   25.6420  -31.5930 H   0  0  0  0  0  0  0  0  0  0  0  0
   -6.1398   25.6413  -29.6627 H   0  0  0  0  0  0  0  0  0  0  0  0
   -6.0804   26.5483  -31.2184 H   0  0  0  0  0  0  0  0  0  0  0  0
   -7.2738   24.2556  -31.2480 H   0  0  0  0  0  0  0  0  0  0  0  0
   -6.0178   24.5462  -32.5087 H   0  0  0  0  0  0  0  0  0  0  0  0
   -7.9587   22.9536  -30.6730 H   0  0  0  0  0  0  0  0  0  0  0  0
  -10.2221   21.9793  -31.0275 H   0  0  0  0  0  0  0  0  0  0  0  0
  -10.4968   19.9414  -32.4315 H   0  0  0  0  0  0  0  0  0  0  0  0
   -8.5041   18.7851  -33.3705 H   0  0  0  0  0  0  0  0  0  0  0  0
  1  2  1  0
  2  3  1  0
  3  4  2  0
  4  5  1  0
  5  6  2  0
  6  7  1  0
  7  8  2  0
  7  9  1  0
  9 10  1  0
 10 11  2  0
 11 12  1  0
 12 13  1  0
 13 14  1  0
 14 15  1  0
 15 16  1  0
 16 17  1  0
 17 18  1  0
 12 19  2  0
 19 20  1  0
 20 21  2  0
 21 22  1  0
 22 23  2  0
 23 24  1  0
 24 25  2  0
  8  3  1  0
 25 10  1  0
 25  6  1  0
 18 13  1  0
 24 19  1  0
  1 26  1  0
  1 27  1  0
  1 28  1  0
  4 29  1  0
  5 30  1  0
  8 31  1  0
 11 32  1  0
 14 33  1  0
 14 34  1  0
 15 35  1  0
 15 36  1  0
 16 37  1  0
 17 38  1  0
 17 39  1  0
 18 40  1  0
 18 41  1  0
 20 42  1  0
 21 43  1  0
 22 44  1  0
 23 45  1  0
M  CHG  1  11   1
M  END
>  <UniqueID>  (22) 
20

>  <SMILES>  (22) 
COc1ccc2c(c1)sc1[nH+]c(N3CCNCC3)c3ccccc3c12

>  <Energy>  (22) 
110.87067159434095

>  <Genealogy>  (22) 
COc1ccc2c(c1)sc1[nH+]c(N3CCNCC3)c3ccccc3c12 (protonated)
COc1ccc2c(c1)sc1[nH+]c(N3CCNCC3)c3ccccc3c12 (3D coordinates assigned)
COc1ccc2c(c1)sc1[nH+]c(N3CCNCC3)c3ccccc3c12 (nonaromatic ring conformer: 110.87067159434095 kcal/mol)

>  <smiles>  (22) 
COc1ccc2c(c1)sc1nc(N3CCNCC3)c3ccccc3c12

>  <score_type>  (22) 
oracle

>  <origin>  (22) 
adg

>  <m_score__min__energy>  (22) 
-9.3699999999999992

>  <m_primary>  (22) 
energy

$$$$
22:0
     RDKit          3D

 21 22  0  0  0  0  0  0  0  0999 V2000
   -5.0460   18.5460  -34.5810 C   0  0  0  0  0  0  0  0  0  0  0  0
   -6.0350   19.2200  -33.6790 C   0  0  0  0  0  0  0  0  0  0  0  0
   -7.0640   18.4640  -33.0730 C   0  0  0  0  0  0  0  0  0  0  0  0
   -8.0180   19.0940  -32.2510 C   0  0  0  0  0  0  0  0  0  0  0  0
   -9.1130   18.2990  -31.5970 C   0  0  0  0  0  0  0  0  0  0  0  0
   -7.9170   20.4820  -32.0710 C   0  0  0  0  0  0  0  0  0  0  0  0
   -8.7510   21.3100  -31.3060 C   0  0  0  0  0  0  0  0  0  0  0  0
   -8.3690   22.6510  -31.3510 C   0  0  0  0  0  0  0  0  0  0  0  0
   -7.0010   22.8110  -32.3340 S   0  0  0  0  0  0  0  0  0  0  0  0
   -6.8990   21.1780  -32.6980 C   0  0  0  0  0  0  0  0  0  0  0  0
   -5.9800   20.5730  -33.4900 N   0  0  0  0  0  0  0  0  0  0  0  0
   -4.2882   18.0296  -33.9735 H   0  0  0  0  0  0  0  0  0  0  0  0
   -5.5677   17.8147  -35.2158 H   0  0  0  0  0  0  0  0  0  0  0  0
   -4.5561   19.2990  -35.2158 H   0  0  0  0  0  0  0  0  0  0  0  0
   -7.1198   17.3788  -33.2442 H   0  0  0  0  0  0  0  0  0  0  0  0
   -9.0150   18.3702  -30.5037 H   0  0  0  0  0  0  0  0  0  0  0  0
  -10.0904   18.6993  -31.9043 H   0  0  0  0  0  0  0  0  0  0  0  0
   -9.0351   17.2457  -31.9043 H   0  0  0  0  0  0  0  0  0  0  0  0
   -9.6140   20.9416  -30.7319 H   0  0  0  0  0  0  0  0  0  0  0  0
   -8.8774   23.4752  -30.8292 H   0  0  0  0  0  0  0  0  0  0  0  0
   -5.2370   21.1460  -33.9490 H   0  0  0  0  0  0  0  0  0  0  0  0
  1  2  1  0
  2  3  2  0
  3  4  1  0
  4  5  1  0
  4  6  2  0
  6  7  1  0
  7  8  2  0
  8  9  1  0
  9 10  1  0
 10 11  2  0
 11  2  1  0
 10  6  1  0
  1 12  1  0
  1 13  1  0
  1 14  1  0
  3 15  1  0
  5 16  1  0
  5 17  1  0
  5 18  1  0
  7 19  1  0
  8 20  1  0
 11 21  1  0
M  CHG  1  11   1
M  END
>  <UniqueID>  (23) 
21

>  <SMILES>  (23) 
Cc1cc(C)c2ccsc2[nH+]1

>  <Energy>  (23) 
51.72697088077505

>  <Genealogy>  (23) 
Cc1cc(C)c2ccsc2[nH+]1 (protonated)
Cc1cc(C)c2ccsc2[nH+]1 (3D coordinates assigned)
Cc1cc(C)c2ccsc2[nH+]1 (optimized conformer: 51.72697088077505 kcal/mol)

>  <smiles>  (23) 
Cc1cc(C)c2ccsc2n1

>  <score_type>  (23) 
oracle

>  <origin>  (23) 
adg

>  <m_score__min__energy>  (23) 
-5.2000000000000002

>  <m_primary>  (23) 
energy

$$$$
23:0
     RDKit          3D

 48 50  0  0  0  0  0  0  0  0999 V2000
   -3.8950   25.0250  -30.5200 O   0  0  0  0  0  0  0  0  0  0  0  0
   -4.4940   23.9860  -30.1270 C   0  0  0  0  0  0  0  0  0  0  0  0
   -4.1410   23.4290  -28.7720 C   0  0  0  0  0  0  0  0  0  0  0  0
   -3.9240   24.5290  -27.8180 N   0  0  0  0  0  0  0  0  0  0  0  0
   -2.8310   24.2330  -26.8640 C   0  0  0  0  0  0  0  0  0  0  0  0
   -1.9510   25.4800  -26.6180 C   0  0  0  0  0  0  0  0  0  0  0  0
   -1.2180   25.9680  -27.8880 C   0  0  0  0  0  0  0  0  0  0  0  0
   -1.0550   24.8780  -28.9600 C   0  0  0  0  0  0  0  0  0  0  0  0
   -0.8000   23.5070  -28.3260 C   0  0  0  0  0  0  0  0  0  0  0  0
   -1.9410   23.0670  -27.3810 C   0  0  0  0  0  0  0  0  0  0  0  0
   -5.5110   23.3880  -30.9640 N   0  0  0  0  0  0  0  0  0  0  0  0
   -6.7000   24.1670  -31.3200 C   0  0  0  0  0  0  0  0  0  0  0  0
   -7.5710   23.3940  -32.3190 C   0  0  0  0  0  0  0  0  0  0  0  0
   -7.8730   22.0940  -31.8440 O   0  0  0  0  0  0  0  0  0  0  0  0
   -6.7230   21.3180  -31.5040 C   0  0  1  0  0  0  0  0  0  0  0  0
   -6.6660   20.0660  -32.3470 C   0  0  0  0  0  0  0  0  0  0  0  0
   -5.8180   19.9910  -33.4680 C   0  0  0  0  0  0  0  0  0  0  0  0
   -5.7340   18.8120  -34.2140 C   0  0  0  0  0  0  0  0  0  0  0  0
   -6.4800   17.6900  -33.8380 C   0  0  0  0  0  0  0  0  0  0  0  0
   -6.3950   16.5450  -34.5590 F   0  0  0  0  0  0  0  0  0  0  0  0
   -7.3120   17.7480  -32.7170 C   0  0  0  0  0  0  0  0  0  0  0  0
   -7.4060   18.9290  -31.9720 C   0  0  0  0  0  0  0  0  0  0  0  0
   -5.3650   22.0560  -31.5580 C   0  0  0  0  0  0  0  0  0  0  0  0
   -4.9637   22.7928  -28.4138 H   0  0  0  0  0  0  0  0  0  0  0  0
   -3.2192   22.8344  -28.8543 H   0  0  0  0  0  0  0  0  0  0  0  0
   -3.6570   25.3660  -28.3870 H   0  0  0  0  0  0  0  0  0  0  0  0
   -3.2994   23.9347  -25.9145 H   0  0  0  0  0  0  0  0  0  0  0  0
   -2.5931   26.2940  -26.2504 H   0  0  0  0  0  0  0  0  0  0  0  0
   -1.1814   25.1975  -25.8846 H   0  0  0  0  0  0  0  0  0  0  0  0
   -1.7910   26.8004  -28.3224 H   0  0  0  0  0  0  0  0  0  0  0  0
   -0.2068   26.2727  -27.5806 H   0  0  0  0  0  0  0  0  0  0  0  0
   -1.9736   24.8285  -29.5632 H   0  0  0  0  0  0  0  0  0  0  0  0
   -0.1899   25.1360  -29.5885 H   0  0  0  0  0  0  0  0  0  0  0  0
   -0.6998   22.7611  -29.1283 H   0  0  0  0  0  0  0  0  0  0  0  0
    0.1186   23.5835  -27.7257 H   0  0  0  0  0  0  0  0  0  0  0  0
   -2.5835   22.3581  -27.9238 H   0  0  0  0  0  0  0  0  0  0  0  0
   -1.4625   22.6207  -26.4968 H   0  0  0  0  0  0  0  0  0  0  0  0
   -7.2852   24.3697  -30.4109 H   0  0  0  0  0  0  0  0  0  0  0  0
   -6.3800   25.1115  -31.7842 H   0  0  0  0  0  0  0  0  0  0  0  0
   -8.5102   23.9448  -32.4760 H   0  0  0  0  0  0  0  0  0  0  0  0
   -7.0130   23.2970  -33.2620 H   0  0  0  0  0  0  0  0  0  0  0  0
   -6.8646   21.0730  -30.4410 H   0  0  0  0  0  0  0  0  0  0  0  0
   -5.2177   20.8657  -33.7587 H   0  0  0  0  0  0  0  0  0  0  0  0
   -5.0806   18.7664  -35.0977 H   0  0  0  0  0  0  0  0  0  0  0  0
   -7.8944   16.8635  -32.4194 H   0  0  0  0  0  0  0  0  0  0  0  0
   -8.0612   18.9688  -31.0893 H   0  0  0  0  0  0  0  0  0  0  0  0
   -4.6134   21.4833  -30.9948 H   0  0  0  0  0  0  0  0  0  0  0  0
   -5.0413   22.1539  -32.6047 H   0  0  0  0  0  0  0  0  0  0  0  0
  1  2  2  0
  2  3  1  0
  3  4  1  0
  4  5  1  0
  5  6  1  0
  6  7  1  0
  7  8  1  0
  8  9  1  0
  9 10  1  0
  2 11  1  0
 11 12  1  0
 12 13  1  0
 13 14  1  0
 14 15  1  0
 15 16  1  0
 16 17  2  0
 17 18  1  0
 18 19  2  0
 19 20  1  0
 19 21  1  0
 21 22  2  0
 15 23  1  0
 10  5  1  0
 23 11  1  0
 22 16  1  0
  3 24  1  0
  3 25  1  0
  4 26  1  0
  5 27  1  0
  6 28  1  0
  6 29  1  0
  7 30  1  0
  7 31  1  0
  8 32  1  0
  8 33  1  0
  9 34  1  0
  9 35  1  0
 10 36  1  0
 10 37  1  0
 12 38  1  0
 12 39  1  0
 13 40  1  0
 13 41  1  0
 15 42  1  1
 17 43  1  0
 18 44  1  0
 21 45  1  0
 22 46  1  0
 23 47  1  0
 23 48  1  0
M  END
>  <UniqueID>  (24) 
22

>  <SMILES>  (24) 
O=C(CNC1CCCCC1)N1CCO[C@@H](c2ccc(F)cc2)C1

>  <Energy>  (24) 
57.99496971830466

>  <Genealogy>  (24) 
O=C(CNC1CCCCC1)N1CCO[C@@H](c2ccc(F)cc2)C1 (chirality)
O=C(CNC1CCCCC1)N1CCO[C@@H](c2ccc(F)cc2)C1 (3D coordinates assigned)
O=C(CNC1CCCCC1)N1CCO[C@@H](c2ccc(F)cc2)C1 (nonaromatic ring conformer: 57.99496971830466 kcal/mol)

>  <smiles>  (24) 
O=C(CNC1CCCCC1)N1CCOC(c2ccc(F)cc2)C1

>  <score_type>  (24) 
oracle

>  <origin>  (24) 
adg

>  <m_score__min__energy>  (24) 
-8.5899999999999999

>  <m_primary>  (24) 
energy

$$$$
24:0
     RDKit          3D

 49 52  0  0  0  0  0  0  0  0999 V2000
   -6.5120   25.2810  -30.1840 C   0  0  0  0  0  0  0  0  0  0  0  0
   -5.9850   24.5420  -31.4110 C   0  0  0  0  0  0  0  0  0  0  0  0
   -4.9430   23.5110  -31.0170 C   0  0  0  0  0  0  0  0  0  0  0  0
   -5.2040   22.1230  -31.1150 C   0  0  0  0  0  0  0  0  0  0  0  0
   -6.5090   21.6190  -31.6060 C   0  0  0  0  0  0  0  0  0  0  0  0
   -7.5400   22.3170  -31.4060 O   0  0  0  0  0  0  0  0  0  0  0  0
   -6.6240   20.3150  -32.3100 C   0  0  0  0  0  0  0  0  0  0  0  0
   -7.4890   19.3080  -31.8360 C   0  0  0  0  0  0  0  0  0  0  0  0
   -7.5840   18.0830  -32.5050 C   0  0  0  0  0  0  0  0  0  0  0  0
   -6.8170   17.8480  -33.6480 C   0  0  0  0  0  0  0  0  0  0  0  0
   -5.9520   18.8350  -34.1230 C   0  0  0  0  0  0  0  0  0  0  0  0
   -5.8530   20.0620  -33.4590 C   0  0  0  0  0  0  0  0  0  0  0  0
   -4.2350   21.2280  -30.7580 N   0  0  0  0  0  0  0  0  0  0  0  0
   -4.5070   19.8770  -30.8380 O   0  0  0  0  0  0  0  0  0  0  0  0
   -3.0160   21.6500  -30.3030 C   0  0  0  0  0  0  0  0  0  0  0  0
   -2.0160   20.7260  -29.9390 C   0  0  0  0  0  0  0  0  0  0  0  0
   -0.7530   21.1500  -29.4670 C   0  0  0  0  0  0  0  0  0  0  0  0
    0.2830   20.1860  -29.0930 N   0  0  0  0  0  0  0  0  0  0  0  0
    0.2030   18.8010  -29.6040 C   0  0  0  0  0  0  0  0  0  0  0  0
    1.3930   17.9280  -29.1980 C   0  0  0  0  0  0  0  0  0  0  0  0
    1.8000   18.2110  -27.8800 O   0  0  0  0  0  0  0  0  0  0  0  0
    2.3700   19.4970  -27.8610 C   0  0  0  0  0  0  0  0  0  0  0  0
    1.3080   20.5730  -28.1000 C   0  0  0  0  0  0  0  0  0  0  0  0
   -0.5290   22.5410  -29.3580 C   0  0  0  0  0  0  0  0  0  0  0  0
   -1.5140   23.4610  -29.7140 C   0  0  0  0  0  0  0  0  0  0  0  0
   -2.7610   23.0300  -30.1910 C   0  0  0  0  0  0  0  0  0  0  0  0
   -3.7290   23.9290  -30.5450 N   0  0  0  0  0  0  0  0  0  0  0  0
   -3.4780   25.2800  -30.4290 O   0  0  0  0  0  0  0  0  0  0  0  0
   -6.1545   24.7797  -29.2725 H   0  0  0  0  0  0  0  0  0  0  0  0
   -6.1494   26.3194  -30.1976 H   0  0  0  0  0  0  0  0  0  0  0  0
   -7.6119   25.2765  -30.1976 H   0  0  0  0  0  0  0  0  0  0  0  0
   -6.8221   24.0344  -31.9126 H   0  0  0  0  0  0  0  0  0  0  0  0
   -5.5177   25.2729  -32.0873 H   0  0  0  0  0  0  0  0  0  0  0  0
   -8.0932   19.4865  -30.9343 H   0  0  0  0  0  0  0  0  0  0  0  0
   -8.2639   17.3038  -32.1301 H   0  0  0  0  0  0  0  0  0  0  0  0
   -6.8945   16.8850  -34.1740 H   0  0  0  0  0  0  0  0  0  0  0  0
   -5.3465   18.6474  -35.0220 H   0  0  0  0  0  0  0  0  0  0  0  0
   -5.1676   20.8344  -33.8379 H   0  0  0  0  0  0  0  0  0  0  0  0
   -2.2234   19.6491  -30.0243 H   0  0  0  0  0  0  0  0  0  0  0  0
   -0.7161   18.3391  -29.2142 H   0  0  0  0  0  0  0  0  0  0  0  0
    0.2076   18.8618  -30.7023 H   0  0  0  0  0  0  0  0  0  0  0  0
    1.1020   16.8693  -29.2651 H   0  0  0  0  0  0  0  0  0  0  0  0
    2.2317   18.1409  -29.8771 H   0  0  0  0  0  0  0  0  0  0  0  0
    2.8401   19.6673  -26.8812 H   0  0  0  0  0  0  0  0  0  0  0  0
    3.1185   19.5597  -28.6646 H   0  0  0  0  0  0  0  0  0  0  0  0
    0.8045   20.7823  -27.1447 H   0  0  0  0  0  0  0  0  0  0  0  0
    1.8284   21.4548  -28.5020 H   0  0  0  0  0  0  0  0  0  0  0  0
    0.4401   22.9044  -28.9855 H   0  0  0  0  0  0  0  0  0  0  0  0
   -1.3110   24.5380  -29.6198 H   0  0  0  0  0  0  0  0  0  0  0  0
  1  2  1  0
  2  3  1  0
  3  4  2  0
  4  5  1  0
  5  6  2  0
  5  7  1  0
  7  8  2  0
  8  9  1  0
  9 10  2  0
 10 11  1  0
 11 12  2  0
  4 13  1  0
 13 14  1  0
 13 15  2  0
 15 16  1  0
 16 17  2  0
 17 18  1  0
 18 19  1  0
 19 20  1  0
 20 21  1  0
 21 22  1  0
 22 23  1  0
 17 24  1  0
 24 25  2  0
 25 26  1  0
 26 27  2  0
 27 28  1  0
 27  3  1  0
 12  7  1  0
 26 15  1  0
 23 18  1  0
  1 29  1  0
  1 30  1  0
  1 31  1  0
  2 32  1  0
  2 33  1  0
  8 34  1  0
  9 35  1  0
 10 36  1  0
 11 37  1  0
 12 38  1  0
 16 39  1  0
 19 40  1  0
 19 41  1  0
 20 42  1  0
 20 43  1  0
 22 44  1  0
 22 45  1  0
 23 46  1  0
 23 47  1  0
 24 48  1  0
 25 49  1  0
M  CHG  4  13   1  14  -1  27   1  28  -1
M  END
>  <UniqueID>  (25) 
23

>  <SMILES>  (25) 
CCc1c(C(=O)c2ccccc2)[n+]([O-])c2cc(N3CCOCC3)ccc2[n+]1[O-]

>  <Energy>  (25) 
75.14224904223747

>  <Genealogy>  (25) 
CCc1c(C(=O)c2ccccc2)[n+]([O-])c2cc(N3CCOCC3)ccc2[n+]1[O-] (3D coordinates assigned)
CCc1c(C(=O)c2ccccc2)[n+]([O-])c2cc(N3CCOCC3)ccc2[n+]1[O-] (nonaromatic ring conformer: 75.14224904223747 kcal/mol)

>  <smiles>  (25) 
CCc1c(C(=O)c2ccccc2)[n+]([O-])c2cc(N3CCOCC3)ccc2[n+]1[O-]

>  <score_type>  (25) 
oracle

>  <origin>  (25) 
adg

>  <m_score__min__energy>  (25) 
-8.8900000000000006

>  <m_primary>  (25) 
energy

$$$$
25:0
     RDKit          3D

 40 41  0  0  0  0  0  0  0  0999 V2000
   -6.4994   24.3526  -28.9749 H   0  0  0  0  0  0  0  0  0  0  0  0
   -6.0270   24.3270  -29.9680 C   0  0  0  0  0  0  0  0  0  0  0  0
   -4.5940   24.6910  -30.0480 C   0  0  0  0  0  0  0  0  0  0  0  0
   -4.2560   25.6090  -30.8430 O   0  0  0  0  0  0  0  0  0  0  0  0
   -3.5460   24.0000  -29.2600 C   0  0  0  0  0  0  0  0  0  0  0  0
   -2.2680   24.5610  -29.1590 C   0  0  0  0  0  0  0  0  0  0  0  0
   -2.0361   25.4839  -29.7107 H   0  0  0  0  0  0  0  0  0  0  0  0
   -1.2740   23.9610  -28.3610 C   0  0  0  0  0  0  0  0  0  0  0  0
   -0.0030   24.5440  -28.2370 O   0  0  0  0  0  0  0  0  0  0  0  0
    0.5070   25.1520  -27.0540 C   0  0  0  0  0  0  0  0  0  0  0  0
    0.0848   24.6486  -26.1718 H   0  0  0  0  0  0  0  0  0  0  0  0
    1.6031   25.0612  -27.0384 H   0  0  0  0  0  0  0  0  0  0  0  0
    0.2269   26.2156  -27.0384 H   0  0  0  0  0  0  0  0  0  0  0  0
   -1.5720   22.7560  -27.6750 C   0  0  0  0  0  0  0  0  0  0  0  0
   -0.6540   22.0810  -26.8470 O   0  0  0  0  0  0  0  0  0  0  0  0
   -0.4850   22.2580  -25.4440 C   0  0  0  0  0  0  0  0  0  0  0  0
   -1.1470   21.5646  -24.9046 H   0  0  0  0  0  0  0  0  0  0  0  0
    0.5609   22.0528  -25.1719 H   0  0  0  0  0  0  0  0  0  0  0  0
   -0.7383   23.2933  -25.1719 H   0  0  0  0  0  0  0  0  0  0  0  0
   -2.8440   22.1750  -27.8070 C   0  0  0  0  0  0  0  0  0  0  0  0
   -3.0950   20.9710  -27.1280 O   0  0  0  0  0  0  0  0  0  0  0  0
   -2.4200   19.7430  -27.3820 C   0  0  0  0  0  0  0  0  0  0  0  0
   -2.1571   19.2647  -26.4269 H   0  0  0  0  0  0  0  0  0  0  0  0
   -3.0778   19.0752  -27.9576 H   0  0  0  0  0  0  0  0  0  0  0  0
   -1.5037   19.9405  -27.9576 H   0  0  0  0  0  0  0  0  0  0  0  0
   -3.8250   22.8000  -28.5960 C   0  0  0  0  0  0  0  0  0  0  0  0
   -4.8205   22.3421  -28.6924 H   0  0  0  0  0  0  0  0  0  0  0  0
   -6.7980   23.9680  -31.0080 C   0  0  0  0  0  0  0  0  0  0  0  0
   -7.1766   24.7679  -31.6613 H   0  0  0  0  0  0  0  0  0  0  0  0
   -7.1760   22.5750  -31.3400 C   0  0  0  0  0  0  0  0  0  0  0  0
   -8.4750   22.1060  -31.0690 C   0  0  0  0  0  0  0  0  0  0  0  0
   -9.2242   22.7886  -30.6416 H   0  0  0  0  0  0  0  0  0  0  0  0
   -8.8190   20.7800  -31.3390 C   0  0  0  0  0  0  0  0  0  0  0  0
   -9.8305   20.4168  -31.1045 H   0  0  0  0  0  0  0  0  0  0  0  0
   -7.8820   19.9140  -31.9060 C   0  0  0  0  0  0  0  0  0  0  0  0
   -8.3120   18.2450  -32.2280 Cl  0  0  0  0  0  0  0  0  0  0  0  0
   -6.6030   20.3820  -32.2240 C   0  0  0  0  0  0  0  0  0  0  0  0
   -5.8717   19.7037  -32.6878 H   0  0  0  0  0  0  0  0  0  0  0  0
   -6.2490   21.7090  -31.9550 C   0  0  0  0  0  0  0  0  0  0  0  0
   -4.6230   22.2460  -32.3660 Cl  0  0  0  0  0  0  0  0  0  0  0  0
  1  2  1  0
  2  3  1  0
  3  4  2  0
  3  5  1  0
  5  6  2  0
  6  7  1  0
  6  8  1  0
  8  9  1  0
  9 10  1  0
 10 11  1  0
 10 12  1  0
 10 13  1  0
  8 14  2  0
 14 15  1  0
 15 16  1  0
 16 17  1  0
 16 18  1  0
 16 19  1  0
 14 20  1  0
 20 21  1  0
 21 22  1  0
 22 23  1  0
 22 24  1  0
 22 25  1  0
 20 26  2  0
 26 27  1  0
  2 28  2  0
 28 29  1  0
 28 30  1  0
 30 31  2  0
 31 32  1  0
 31 33  1  0
 33 34  1  0
 33 35  2  0
 35 36  1  0
 35 37  1  0
 37 38  1  0
 37 39  2  0
 39 40  1  0
 26  5  1  0
 39 30  1  0
M  END
>  <UniqueID>  (26) 
24

>  <SMILES>  (26) 
COc1cc(C(=O)/C=C\c2ccc(Cl)cc2Cl)cc(OC)c1OC

>  <Energy>  (26) 
51.406488564931834

>  <Genealogy>  (26) 
COc1cc(C(=O)/C=C\c2ccc(Cl)cc2Cl)cc(OC)c1OC (cis-trans isomerization)
COc1cc(C(=O)/C=C\c2ccc(Cl)cc2Cl)cc(OC)c1OC (3D coordinates assigned)
COc1cc(C(=O)/C=C\c2ccc(Cl)cc2Cl)cc(OC)c1OC (optimized conformer: 51.406488564931834 kcal/mol)

>  <smiles>  (26) 
COc1cc(C(=O)C=Cc2ccc(Cl)cc2Cl)cc(OC)c1OC

>  <score_type>  (26) 
oracle

>  <origin>  (26) 
adg

>  <m_score__min__energy>  (26) 
-8.1999999999999993

>  <m_primary>  (26) 
energy

$$$$
26:0
     RDKit          3D

 34 36  0  0  0  0  0  0  0  0999 V2000
   -7.2490   22.8390  -29.9940 C   0  0  0  0  0  0  0  0  0  0  0  0
   -6.2490   22.7110  -31.1050 C   0  0  0  0  0  0  0  0  0  0  0  0
   -5.2190   23.5850  -31.4080 C   0  0  0  0  0  0  0  0  0  0  0  0
   -4.9300   24.8900  -30.7780 C   0  0  0  0  0  0  0  0  0  0  0  0
   -5.8800   25.6820  -30.5460 O   0  0  0  0  0  0  0  0  0  0  0  0
   -3.6000   25.2910  -30.4180 N   0  0  0  0  0  0  0  0  0  0  0  0
   -2.8100   24.7620  -29.3100 C   0  0  0  0  0  0  0  0  0  0  0  0
   -2.7160   23.2690  -29.3940 C   0  0  0  0  0  0  0  0  0  0  0  0
   -3.3530   22.3620  -28.5550 C   0  0  0  0  0  0  0  0  0  0  0  0
   -3.0830   21.0280  -28.8810 C   0  0  0  0  0  0  0  0  0  0  0  0
   -2.2450   20.8800  -29.9800 C   0  0  0  0  0  0  0  0  0  0  0  0
   -1.8380   22.4110  -30.5440 S   0  0  0  0  0  0  0  0  0  0  0  0
   -4.5110   23.0510  -32.4240 N   0  0  0  0  0  0  0  0  0  0  0  0
   -5.0810   21.8950  -32.7320 N   0  0  0  0  0  0  0  0  0  0  0  0
   -6.1350   21.6730  -31.9620 N   0  0  0  0  0  0  0  0  0  0  0  0
   -6.9550   20.4980  -32.0650 C   0  0  0  0  0  0  0  0  0  0  0  0
   -8.3250   20.5430  -31.7540 C   0  0  0  0  0  0  0  0  0  0  0  0
   -9.1150   19.3960  -31.8800 C   0  0  0  0  0  0  0  0  0  0  0  0
   -8.5480   18.2000  -32.3270 C   0  0  0  0  0  0  0  0  0  0  0  0
   -7.1900   18.1500  -32.6580 C   0  0  0  0  0  0  0  0  0  0  0  0
   -6.4810   16.6510  -33.2310 Cl  0  0  0  0  0  0  0  0  0  0  0  0
   -6.3980   19.2970  -32.5350 C   0  0  0  0  0  0  0  0  0  0  0  0
   -6.7316   22.7728  -29.0255 H   0  0  0  0  0  0  0  0  0  0  0  0
   -7.7603   23.8099  -30.0709 H   0  0  0  0  0  0  0  0  0  0  0  0
   -7.9883   22.0282  -30.0709 H   0  0  0  0  0  0  0  0  0  0  0  0
   -1.7978   25.1907  -29.3508 H   0  0  0  0  0  0  0  0  0  0  0  0
   -3.3007   25.0334  -28.3637 H   0  0  0  0  0  0  0  0  0  0  0  0
   -4.0031   22.6622  -27.7199 H   0  0  0  0  0  0  0  0  0  0  0  0
   -3.4954   20.1764  -28.3200 H   0  0  0  0  0  0  0  0  0  0  0  0
   -1.9061   19.9249  -30.4076 H   0  0  0  0  0  0  0  0  0  0  0  0
   -8.7778   21.4846  -31.4100 H   0  0  0  0  0  0  0  0  0  0  0  0
  -10.1847   19.4355  -31.6267 H   0  0  0  0  0  0  0  0  0  0  0  0
   -9.1698   17.2973  -32.4187 H   0  0  0  0  0  0  0  0  0  0  0  0
   -5.3331   19.2581  -32.8079 H   0  0  0  0  0  0  0  0  0  0  0  0
  1  2  1  0
  2  3  2  0
  3  4  1  0
  4  5  2  0
  4  6  1  0
  6  7  1  0
  7  8  1  0
  8  9  2  0
  9 10  1  0
 10 11  2  0
 11 12  1  0
  3 13  1  0
 13 14  2  0
 14 15  1  0
 15 16  1  0
 16 17  2  0
 17 18  1  0
 18 19  2  0
 19 20  1  0
 20 21  1  0
 20 22  2  0
 15  2  1  0
 22 16  1  0
 12  8  1  0
  1 23  1  0
  1 24  1  0
  1 25  1  0
  7 26  1  0
  7 27  1  0
  9 28  1  0
 10 29  1  0
 11 30  1  0
 17 31  1  0
 18 32  1  0
 19 33  1  0
 22 34  1  0
M  CHG  1   6  -1
M  END
>  <UniqueID>  (27) 
25

>  <SMILES>  (27) 
Cc1c(C(=O)[N-]Cc2cccs2)nnn1-c1cccc(Cl)c1

>  <Energy>  (27) 
101.56287512654623

>  <Genealogy>  (27) 
Cc1c(C(=O)[N-]Cc2cccs2)nnn1-c1cccc(Cl)c1 (protonated)
Cc1c(C(=O)[N-]Cc2cccs2)nnn1-c1cccc(Cl)c1 (3D coordinates assigned)
Cc1c(C(=O)[N-]Cc2cccs2)nnn1-c1cccc(Cl)c1 (optimized conformer: 101.56287512654623 kcal/mol)

>  <smiles>  (27) 
Cc1c(C(=O)NCc2cccs2)nnn1-c1cccc(Cl)c1

>  <score_type>  (27) 
oracle

>  <origin>  (27) 
adg

>  <m_score__min__energy>  (27) 
-10.800000000000001

>  <m_primary>  (27) 
energy

$$$$
27:0
     RDKit          3D

 62 65  0  0  0  0  0  0  0  0999 V2000
   -3.9660   25.3150  -30.7290 O   0  0  0  0  0  0  0  0  0  0  0  0
   -5.0870   24.5650  -30.3430 C   0  0  0  0  0  0  0  0  0  0  0  0
   -5.5010   23.6010  -31.4650 C   0  0  0  0  0  0  0  0  0  0  0  0
   -4.4410   22.5030  -31.7450 C   0  0  1  0  0  0  0  0  0  0  0  0
   -3.4230   22.2980  -30.6130 C   0  0  0  0  0  0  0  0  0  0  0  0
   -2.0340   22.2700  -31.1330 N   0  0  0  0  0  0  0  0  0  0  0  0
   -1.0650   22.7600  -30.1190 C   0  0  0  0  0  0  0  0  0  0  0  0
   -1.7160   23.2790  -28.8500 C   0  0  0  0  0  0  0  0  0  0  0  0
   -2.1110   24.5940  -28.6740 C   0  0  0  0  0  0  0  0  0  0  0  0
   -2.7920   24.6460  -27.4750 C   0  0  0  0  0  0  0  0  0  0  0  0
   -2.7860   23.3680  -26.9620 C   0  0  0  0  0  0  0  0  0  0  0  0
   -2.1260   22.5360  -27.7940 N   0  0  0  0  0  0  0  0  0  0  0  0
   -1.9080   21.1370  -27.5510 C   0  0  0  0  0  0  0  0  0  0  0  0
   -2.9820   20.2990  -27.2110 C   0  0  0  0  0  0  0  0  0  0  0  0
   -2.7490   18.9420  -26.9870 C   0  0  0  0  0  0  0  0  0  0  0  0
   -1.4550   18.4330  -27.0920 C   0  0  0  0  0  0  0  0  0  0  0  0
   -0.4070   19.2950  -27.4200 C   0  0  0  0  0  0  0  0  0  0  0  0
   -0.6540   20.6140  -27.6400 N   0  0  0  0  0  0  0  0  0  0  0  0
   -1.6350   20.9560  -31.6930 C   0  0  0  0  0  0  0  0  0  0  0  0
   -2.6920   20.3950  -32.6710 C   0  0  0  0  0  0  0  0  0  0  0  0
   -4.0760   20.0610  -32.0550 C   0  0  0  0  0  0  0  0  0  0  0  0
   -5.0180   21.1920  -32.1430 N   0  0  0  0  0  0  0  0  0  0  0  0
   -6.4310   20.8890  -32.5480 C   0  0  0  0  0  0  0  0  0  0  0  0
   -7.4800   20.9320  -31.4020 C   0  0  0  0  0  0  0  0  0  0  0  0
   -8.7930   20.2600  -31.8200 C   0  0  0  0  0  0  0  0  0  0  0  0
   -8.5910   18.7550  -32.0830 C   0  0  0  0  0  0  0  0  0  0  0  0
   -7.1730   18.4110  -32.5790 C   0  0  0  0  0  0  0  0  0  0  0  0
   -6.5590   19.5660  -33.3790 C   0  0  0  0  0  0  0  0  0  0  0  0
   -4.1460   25.6670  -31.6400 H   0  0  0  0  0  0  0  0  0  0  0  0
   -4.8420   23.9861  -29.4403 H   0  0  0  0  0  0  0  0  0  0  0  0
   -5.9214   25.2518  -30.1379 H   0  0  0  0  0  0  0  0  0  0  0  0
   -6.4436   23.1125  -31.1770 H   0  0  0  0  0  0  0  0  0  0  0  0
   -5.6095   24.1948  -32.3846 H   0  0  0  0  0  0  0  0  0  0  0  0
   -3.8974   22.9123  -32.6093 H   0  0  0  0  0  0  0  0  0  0  0  0
   -3.5186   23.1231  -29.8918 H   0  0  0  0  0  0  0  0  0  0  0  0
   -3.6316   21.3318  -30.1304 H   0  0  0  0  0  0  0  0  0  0  0  0
   -0.3947   21.9302  -29.8505 H   0  0  0  0  0  0  0  0  0  0  0  0
   -0.5274   23.6059  -30.5722 H   0  0  0  0  0  0  0  0  0  0  0  0
   -1.9192   25.4344  -29.3573 H   0  0  0  0  0  0  0  0  0  0  0  0
   -3.2505   25.5353  -27.0179 H   0  0  0  0  0  0  0  0  0  0  0  0
   -3.2519   23.0689  -26.0115 H   0  0  0  0  0  0  0  0  0  0  0  0
   -3.9988   20.7092  -27.1220 H   0  0  0  0  0  0  0  0  0  0  0  0
   -3.5843   18.2748  -26.7281 H   0  0  0  0  0  0  0  0  0  0  0  0
   -1.2621   17.3641  -26.9183 H   0  0  0  0  0  0  0  0  0  0  0  0
    0.6192   18.9070  -27.5005 H   0  0  0  0  0  0  0  0  0  0  0  0
   -0.6823   21.0740  -32.2300 H   0  0  0  0  0  0  0  0  0  0  0  0
   -1.5373   20.2475  -30.8573 H   0  0  0  0  0  0  0  0  0  0  0  0
   -2.8474   21.1416  -33.4638 H   0  0  0  0  0  0  0  0  0  0  0  0
   -2.2869   19.4371  -33.0294 H   0  0  0  0  0  0  0  0  0  0  0  0
   -4.5040   19.2021  -32.5927 H   0  0  0  0  0  0  0  0  0  0  0  0
   -3.9230   19.8340  -30.9896 H   0  0  0  0  0  0  0  0  0  0  0  0
   -6.6854   21.7343  -33.2043 H   0  0  0  0  0  0  0  0  0  0  0  0
   -7.0732   20.4079  -30.5246 H   0  0  0  0  0  0  0  0  0  0  0  0
   -7.6904   21.9853  -31.1647 H   0  0  0  0  0  0  0  0  0  0  0  0
   -9.5329   20.3874  -31.0160 H   0  0  0  0  0  0  0  0  0  0  0  0
   -9.1445   20.7315  -32.7496 H   0  0  0  0  0  0  0  0  0  0  0  0
   -8.7761   18.2084  -31.1466 H   0  0  0  0  0  0  0  0  0  0  0  0
   -9.2948   18.4642  -32.8768 H   0  0  0  0  0  0  0  0  0  0  0  0
   -6.5327   18.1986  -31.7102 H   0  0  0  0  0  0  0  0  0  0  0  0
   -7.2429   17.5341  -33.2394 H   0  0  0  0  0  0  0  0  0  0  0  0
   -5.5557   19.2649  -33.7148 H   0  0  0  0  0  0  0  0  0  0  0  0
   -7.2311   19.7733  -34.2248 H   0  0  0  0  0  0  0  0  0  0  0  0
  1  2  1  0
  2  3  1  0
  3  4  1  0
  4  5  1  0
  5  6  1  0
  6  7  1  0
  7  8  1  0
  8  9  2  0
  9 10  1  0
 10 11  2  0
 11 12  1  0
 12 13  1  0
 13 14  2  0
 14 15  1  0
 15 16  2  0
 16 17  1  0
 17 18  2  0
  6 19  1  0
 19 20  1  0
 20 21  1  0
 21 22  1  0
 22 23  1  0
 23 24  1  0
 24 25  1  0
 25 26  1  0
 26 27  1  0
 27 28  1  0
 22  4  1  0
 28 23  1  0
 12  8  1  0
 18 13  1  0
  1 29  1  0
  2 30  1  0
  2 31  1  0
  3 32  1  0
  3 33  1  0
  4 34  1  6
  5 35  1  0
  5 36  1  0
  7 37  1  0
  7 38  1  0
  9 39  1  0
 10 40  1  0
 11 41  1  0
 14 42  1  0
 15 43  1  0
 16 44  1  0
 17 45  1  0
 19 46  1  0
 19 47  1  0
 20 48  1  0
 20 49  1  0
 21 50  1  0
 21 51  1  0
 23 52  1  0
 24 53  1  0
 24 54  1  0
 25 55  1  0
 25 56  1  0
 26 57  1  0
 26 58  1  0
 27 59  1  0
 27 60  1  0
 28 61  1  0
 28 62  1  0
M  END
>  <UniqueID>  (28) 
26

>  <SMILES>  (28) 
OCC[C@H]1CN(Cc2cccn2-c2ccccn2)CCCN1C1CCCCC1

>  <Energy>  (28) 
132.47958355828132

>  <Genealogy>  (28) 
OCC[C@H]1CN(Cc2cccn2-c2ccccn2)CCCN1C1CCCCC1 (chirality)
OCC[C@H]1CN(Cc2cccn2-c2ccccn2)CCCN1C1CCCCC1 (3D coordinates assigned)
OCC[C@H]1CN(Cc2cccn2-c2ccccn2)CCCN1C1CCCCC1 (nonaromatic ring conformer: 132.47958355828132 kcal/mol)

>  <smiles>  (28) 
OCCC1CN(Cc2cccn2-c2ccccn2)CCCN1C1CCCCC1

>  <score_type>  (28) 
oracle

>  <origin>  (28) 
adg

>  <m_score__min__energy>  (28) 
-8.4199999999999999

>  <m_primary>  (28) 
energy

$$$$
28:0
     RDKit          3D

 32 34  0  0  0  0  0  0  0  0999 V2000
   -2.0010   24.9860  -27.3460 C   0  0  0  0  0  0  0  0  0  0  0  0
   -1.8370   24.8680  -28.7560 O   0  0  0  0  0  0  0  0  0  0  0  0
   -2.4850   23.9090  -29.5510 C   0  0  0  0  0  0  0  0  0  0  0  0
   -2.1370   22.5470  -29.5220 C   0  0  0  0  0  0  0  0  0  0  0  0
   -2.8080   21.6260  -30.3310 C   0  0  0  0  0  0  0  0  0  0  0  0
   -3.8420   22.0470  -31.1870 C   0  0  0  0  0  0  0  0  0  0  0  0
   -4.5690   21.0860  -32.0530 C   0  0  0  0  0  0  0  0  0  0  0  0
   -4.3690   19.7500  -32.0150 N   0  0  0  0  0  0  0  0  0  0  0  0
   -5.2320   19.3090  -32.9570 C   0  0  0  0  0  0  0  0  0  0  0  0
   -5.4130   17.8890  -33.3200 C   0  0  0  0  0  0  0  0  0  0  0  0
   -4.2940   17.0590  -33.5010 C   0  0  0  0  0  0  0  0  0  0  0  0
   -4.4620   15.7130  -33.8460 C   0  0  0  0  0  0  0  0  0  0  0  0
   -5.7460   15.1880  -34.0130 C   0  0  0  0  0  0  0  0  0  0  0  0
   -6.8650   16.0060  -33.8360 C   0  0  0  0  0  0  0  0  0  0  0  0
   -6.7020   17.3520  -33.4910 C   0  0  0  0  0  0  0  0  0  0  0  0
   -5.8900   20.3020  -33.5070 O   0  0  0  0  0  0  0  0  0  0  0  0
   -5.5020   21.4140  -32.9700 N   0  0  0  0  0  0  0  0  0  0  0  0
   -4.1860   23.4090  -31.2120 C   0  0  0  0  0  0  0  0  0  0  0  0
   -3.5140   24.3310  -30.4030 C   0  0  0  0  0  0  0  0  0  0  0  0
   -3.8750   25.6730  -30.4460 O   0  0  0  0  0  0  0  0  0  0  0  0
   -1.2099   24.4168  -26.8359 H   0  0  0  0  0  0  0  0  0  0  0  0
   -1.9353   26.0452  -27.0566 H   0  0  0  0  0  0  0  0  0  0  0  0
   -2.9844   24.5871  -27.0566 H   0  0  0  0  0  0  0  0  0  0  0  0
   -1.3304   22.2038  -28.8574 H   0  0  0  0  0  0  0  0  0  0  0  0
   -2.5254   20.5634  -30.2982 H   0  0  0  0  0  0  0  0  0  0  0  0
   -3.2815   17.4688  -33.3710 H   0  0  0  0  0  0  0  0  0  0  0  0
   -3.5822   15.0678  -33.9858 H   0  0  0  0  0  0  0  0  0  0  0  0
   -5.8761   14.1299  -34.2840 H   0  0  0  0  0  0  0  0  0  0  0  0
   -7.8752   15.5912  -33.9681 H   0  0  0  0  0  0  0  0  0  0  0  0
   -7.5852   17.9930  -33.3529 H   0  0  0  0  0  0  0  0  0  0  0  0
   -5.8670   22.3560  -33.2270 H   0  0  0  0  0  0  0  0  0  0  0  0
   -4.9929   23.7541  -31.8753 H   0  0  0  0  0  0  0  0  0  0  0  0
  1  2  1  0
  2  3  1  0
  3  4  2  0
  4  5  1  0
  5  6  2  0
  6  7  1  0
  7  8  1  0
  8  9  2  0
  9 10  1  0
 10 11  2  0
 11 12  1  0
 12 13  2  0
 13 14  1  0
 14 15  2  0
  9 16  1  0
 16 17  1  0
  6 18  1  0
 18 19  2  0
 19 20  1  0
 19  3  1  0
 17  7  2  0
 15 10  1  0
  1 21  1  0
  1 22  1  0
  1 23  1  0
  4 24  1  0
  5 25  1  0
 11 26  1  0
 12 27  1  0
 13 28  1  0
 14 29  1  0
 15 30  1  0
 17 31  1  0
 18 32  1  0
M  CHG  2  17   1  20  -1
M  END
>  <UniqueID>  (29) 
27

>  <SMILES>  (29) 
COc1ccc(-c2nc(-c3ccccc3)o[nH+]2)cc1[O-]

>  <Energy>  (29) 
70.0743476205458

>  <Genealogy>  (29) 
COc1ccc(-c2nc(-c3ccccc3)o[nH+]2)cc1[O-] (protonated)
COc1ccc(-c2nc(-c3ccccc3)o[nH+]2)cc1[O-] (3D coordinates assigned)
COc1ccc(-c2nc(-c3ccccc3)o[nH+]2)cc1[O-] (optimized conformer: 70.0743476205458 kcal/mol)

>  <smiles>  (29) 
COc1ccc(-c2noc(-c3ccccc3)n2)cc1O

>  <score_type>  (29) 
oracle

>  <origin>  (29) 
adg

>  <m_score__min__energy>  (29) 
-9.9299999999999997

>  <m_primary>  (29) 
energy

$$$$
29:0
     RDKit          3D

 27 28  0  0  0  0  0  0  0  0999 V2000
   -5.2020   24.5090  -28.9880 N   0  0  0  0  0  0  0  0  0  0  0  0
   -4.5960   24.5560  -30.2810 C   0  0  0  0  0  0  0  0  0  0  0  0
   -4.2170   25.6660  -30.7410 O   0  0  0  0  0  0  0  0  0  0  0  0
   -4.4380   23.3440  -31.1050 C   0  0  0  0  0  0  0  0  0  0  0  0
   -3.0920   22.3370  -31.0390 S   0  0  0  0  0  0  0  0  0  0  0  0
   -3.6230   21.2160  -32.1710 C   0  0  0  0  0  0  0  0  0  0  0  0
   -4.8790   21.6050  -32.6100 C   0  0  0  0  0  0  0  0  0  0  0  0
   -5.3470   22.7830  -32.0090 C   0  0  0  0  0  0  0  0  0  0  0  0
   -6.9990   23.4110  -32.3410 S   0  0  0  0  0  0  0  0  0  0  0  0
   -7.8140   22.4490  -31.0170 C   0  0  0  0  0  0  0  0  0  0  0  0
   -8.0790   21.0350  -31.4610 C   0  0  0  0  0  0  0  0  0  0  0  0
   -7.0970   20.0490  -31.2650 C   0  0  0  0  0  0  0  0  0  0  0  0
   -7.3110   18.7410  -31.7070 C   0  0  0  0  0  0  0  0  0  0  0  0
   -8.5070   18.4040  -32.3440 C   0  0  0  0  0  0  0  0  0  0  0  0
   -9.4910   19.3760  -32.5430 C   0  0  0  0  0  0  0  0  0  0  0  0
   -9.2830   20.6880  -32.1050 C   0  0  0  0  0  0  0  0  0  0  0  0
  -10.2470   21.6170  -32.3220 F   0  0  0  0  0  0  0  0  0  0  0  0
   -5.2180   25.3640  -28.3890 H   0  0  0  0  0  0  0  0  0  0  0  0
   -5.7340   23.6710  -28.6700 H   0  0  0  0  0  0  0  0  0  0  0  0
   -3.0696   20.3264  -32.5063 H   0  0  0  0  0  0  0  0  0  0  0  0
   -5.4549   21.0425  -33.3596 H   0  0  0  0  0  0  0  0  0  0  0  0
   -7.1615   22.4315  -30.1316 H   0  0  0  0  0  0  0  0  0  0  0  0
   -8.7756   22.9269  -30.7784 H   0  0  0  0  0  0  0  0  0  0  0  0
   -6.1545   20.3085  -30.7607 H   0  0  0  0  0  0  0  0  0  0  0  0
   -6.5362   17.9755  -31.5530 H   0  0  0  0  0  0  0  0  0  0  0  0
   -8.6746   17.3731  -32.6892 H   0  0  0  0  0  0  0  0  0  0  0  0
  -10.4321   19.1085  -33.0457 H   0  0  0  0  0  0  0  0  0  0  0  0
  1  2  1  0
  2  3  2  0
  2  4  1  0
  4  5  1  0
  5  6  1  0
  6  7  2  0
  7  8  1  0
  8  9  1  0
  9 10  1  0
 10 11  1  0
 11 12  2  0
 12 13  1  0
 13 14  2  0
 14 15  1  0
 15 16  2  0
 16 17  1  0
  8  4  2  0
 16 11  1  0
  1 18  1  0
  1 19  1  0
  6 20  1  0
  7 21  1  0
 10 22  1  0
 10 23  1  0
 12 24  1  0
 13 25  1  0
 14 26  1  0
 15 27  1  0
M  END
>  <UniqueID>  (30) 
28

>  <SMILES>  (30) 
NC(=O)c1sccc1SCc1ccccc1F

>  <Energy>  (30) 
49.147638600857654

>  <Genealogy>  (30) 
NC(=O)c1sccc1SCc1ccccc1F (3D coordinates assigned)
NC(=O)c1sccc1SCc1ccccc1F (optimized conformer: 49.147638600857654 kcal/mol)

>  <smiles>  (30) 
NC(=O)c1sccc1SCc1ccccc1F

>  <score_type>  (30) 
oracle

>  <origin>  (30) 
adg

>  <m_score__min__energy>  (30) 
-7.5800000000000001

>  <m_primary>  (30) 
energy

$$$$
30:0
     RDKit          3D

 45 47  0  0  0  0  0  0  0  0999 V2000
   -0.5210   19.8870  -34.5460 C   0  0  0  0  0  0  0  0  0  0  0  0
   -1.6200   19.7830  -33.6490 O   0  0  0  0  0  0  0  0  0  0  0  0
   -1.8060   20.5880  -32.5150 C   0  0  0  0  0  0  0  0  0  0  0  0
   -0.7230   21.2220  -31.8740 C   0  0  0  0  0  0  0  0  0  0  0  0
   -0.9360   22.0420  -30.7660 C   0  0  0  0  0  0  0  0  0  0  0  0
   -2.2340   22.2500  -30.2780 C   0  0  0  0  0  0  0  0  0  0  0  0
   -2.4550   23.1000  -29.0550 C   0  0  0  0  0  0  0  0  0  0  0  0
   -2.5800   24.5390  -29.4400 C   0  0  0  0  0  0  0  0  0  0  0  0
   -1.8740   25.4100  -28.8590 O   0  0  0  0  0  0  0  0  0  0  0  0
   -3.4880   24.9160  -30.4760 N   0  0  0  0  0  0  0  0  0  0  0  0
   -4.9110   25.1570  -30.2470 C   0  0  0  0  0  0  0  0  0  0  0  0
   -5.3520   24.4350  -28.9800 C   0  0  0  0  0  0  0  0  0  0  0  0
   -5.8580   23.0830  -29.4420 C   0  0  0  0  0  0  0  0  0  0  0  0
   -6.4490   23.3230  -30.8220 C   0  0  0  0  0  0  0  0  0  0  0  0
   -5.7490   24.5590  -31.3840 C   0  0  0  0  0  0  0  0  0  0  0  0
   -3.3170   21.6100  -30.9010 C   0  0  0  0  0  0  0  0  0  0  0  0
   -3.1140   20.7770  -32.0150 C   0  0  0  0  0  0  0  0  0  0  0  0
   -4.2790   20.1080  -32.6440 C   0  0  0  0  0  0  0  0  0  0  0  0
   -5.5060   20.7870  -32.7710 C   0  0  0  0  0  0  0  0  0  0  0  0
   -6.6030   20.1570  -33.3670 C   0  0  0  0  0  0  0  0  0  0  0  0
   -6.4900   18.8460  -33.8330 C   0  0  0  0  0  0  0  0  0  0  0  0
   -5.2810   18.1580  -33.6990 C   0  0  0  0  0  0  0  0  0  0  0  0
   -5.1770   16.8840  -34.1420 F   0  0  0  0  0  0  0  0  0  0  0  0
   -4.1810   18.7830  -33.1050 C   0  0  0  0  0  0  0  0  0  0  0  0
    0.4134   19.9754  -33.9724 H   0  0  0  0  0  0  0  0  0  0  0  0
   -0.4786   18.9889  -35.1797 H   0  0  0  0  0  0  0  0  0  0  0  0
   -0.6479   20.7772  -35.1797 H   0  0  0  0  0  0  0  0  0  0  0  0
    0.2991   21.0689  -32.2507 H   0  0  0  0  0  0  0  0  0  0  0  0
   -0.0814   22.5280  -30.2725 H   0  0  0  0  0  0  0  0  0  0  0  0
   -3.3779   22.7776  -28.5508 H   0  0  0  0  0  0  0  0  0  0  0  0
   -1.5959   22.9837  -28.3780 H   0  0  0  0  0  0  0  0  0  0  0  0
   -5.0569   26.2450  -30.1768 H   0  0  0  0  0  0  0  0  0  0  0  0
   -4.5030   24.3133  -28.2912 H   0  0  0  0  0  0  0  0  0  0  0  0
   -6.1259   24.9975  -28.4371 H   0  0  0  0  0  0  0  0  0  0  0  0
   -5.0301   22.3609  -29.4982 H   0  0  0  0  0  0  0  0  0  0  0  0
   -6.6002   22.6645  -28.7463 H   0  0  0  0  0  0  0  0  0  0  0  0
   -6.2649   22.4540  -31.4707 H   0  0  0  0  0  0  0  0  0  0  0  0
   -7.5376   23.4719  -30.7684 H   0  0  0  0  0  0  0  0  0  0  0  0
   -5.0979   24.2750  -32.2239 H   0  0  0  0  0  0  0  0  0  0  0  0
   -6.4822   25.2894  -31.7567 H   0  0  0  0  0  0  0  0  0  0  0  0
   -4.3352   21.7619  -30.5134 H   0  0  0  0  0  0  0  0  0  0  0  0
   -5.6021   21.8179  -32.3996 H   0  0  0  0  0  0  0  0  0  0  0  0
   -7.5568   20.6955  -33.4688 H   0  0  0  0  0  0  0  0  0  0  0  0
   -7.3529   18.3543  -34.3059 H   0  0  0  0  0  0  0  0  0  0  0  0
   -3.2331   18.2353  -32.9975 H   0  0  0  0  0  0  0  0  0  0  0  0
  1  2  1  0
  2  3  1  0
  3  4  2  0
  4  5  1  0
  5  6  2  0
  6  7  1  0
  7  8  1  0
  8  9  2  0
  8 10  1  0
 10 11  1  0
 11 12  1  0
 12 13  1  0
 13 14  1  0
 14 15  1  0
  6 16  1  0
 16 17  2  0
 17 18  1  0
 18 19  2  0
 19 20  1  0
 20 21  2  0
 21 22  1  0
 22 23  1  0
 22 24  2  0
 17  3  1  0
 24 18  1  0
 15 11  1  0
  1 25  1  0
  1 26  1  0
  1 27  1  0
  4 28  1  0
  5 29  1  0
  7 30  1  0
  7 31  1  0
 11 32  1  0
 12 33  1  0
 12 34  1  0
 13 35  1  0
 13 36  1  0
 14 37  1  0
 14 38  1  0
 15 39  1  0
 15 40  1  0
 16 41  1  0
 19 42  1  0
 20 43  1  0
 21 44  1  0
 24 45  1  0
M  CHG  1  10  -1
M  END
>  <UniqueID>  (31) 
29

>  <SMILES>  (31) 
COc1ccc(CC(=O)[N-]C2CCCC2)cc1-c1cccc(F)c1

>  <Energy>  (31) 
48.47610457452041

>  <Genealogy>  (31) 
COc1ccc(CC(=O)[N-]C2CCCC2)cc1-c1cccc(F)c1 (protonated)
COc1ccc(CC(=O)[N-]C2CCCC2)cc1-c1cccc(F)c1 (3D coordinates assigned)
COc1ccc(CC(=O)[N-]C2CCCC2)cc1-c1cccc(F)c1 (nonaromatic ring conformer: 48.47610457452041 kcal/mol)

>  <smiles>  (31) 
COc1ccc(CC(=O)NC2CCCC2)cc1-c1cccc(F)c1

>  <score_type>  (31) 
oracle

>  <origin>  (31) 
adg

>  <m_score__min__energy>  (31) 
-10.869999999999999

>  <m_primary>  (31) 
energy

$$$$
31:0
     RDKit          3D

 42 44  0  0  0  0  0  0  0  0999 V2000
   -6.5220   25.4250  -29.7030 C   0  0  0  0  0  0  0  0  0  0  0  0
   -6.4450   24.2170  -30.5900 C   0  0  0  0  0  0  0  0  0  0  0  0
   -7.6100   23.5010  -30.9120 C   0  0  0  0  0  0  0  0  0  0  0  0
   -7.5370   22.3530  -31.7090 C   0  0  0  0  0  0  0  0  0  0  0  0
   -6.2980   21.9080  -32.1780 C   0  0  0  0  0  0  0  0  0  0  0  0
   -6.2070   20.7960  -32.9500 N   0  0  0  0  0  0  0  0  0  0  0  0
   -5.0090   20.3420  -33.4140 C   0  0  0  0  0  0  0  0  0  0  0  0
   -4.9610   19.1910  -34.2070 O   0  0  0  0  0  0  0  0  0  0  0  0
   -6.1060   18.3900  -34.4860 C   0  0  0  0  0  0  0  0  0  0  0  0
   -6.1000   17.1650  -33.5740 C   0  0  0  0  0  0  0  0  0  0  0  0
   -6.9830   17.3730  -32.4060 N   0  0  0  0  0  0  0  0  0  0  0  0
   -6.1880   17.7810  -31.2350 C   0  0  0  0  0  0  0  0  0  0  0  0
   -8.0000   18.4030  -32.6870 C   0  0  0  0  0  0  0  0  0  0  0  0
   -3.8280   21.0440  -33.0810 C   0  0  0  0  0  0  0  0  0  0  0  0
   -2.4800   20.6270  -33.5370 C   0  0  0  0  0  0  0  0  0  0  0  0
   -1.4330   21.4980  -33.8350 C   0  0  0  0  0  0  0  0  0  0  0  0
   -0.2630   20.8450  -34.2440 C   0  0  0  0  0  0  0  0  0  0  0  0
    0.9400   21.5470  -34.6000 C   0  0  0  0  0  0  0  0  0  0  0  0
    1.9090   22.1120  -34.8870 N   0  0  0  0  0  0  0  0  0  0  0  0
   -0.3650   19.4610  -34.2770 C   0  0  0  0  0  0  0  0  0  0  0  0
   -1.9200   19.0540  -33.7920 S   0  0  0  0  0  0  0  0  0  0  0  0
   -3.9310   22.1590  -32.3040 N   0  0  0  0  0  0  0  0  0  0  0  0
   -5.1270   22.6100  -31.8460 C   0  0  0  0  0  0  0  0  0  0  0  0
   -5.1990   23.7580  -31.0490 C   0  0  0  0  0  0  0  0  0  0  0  0
   -6.5018   25.1084  -28.6497 H   0  0  0  0  0  0  0  0  0  0  0  0
   -5.6640   26.0832  -29.9045 H   0  0  0  0  0  0  0  0  0  0  0  0
   -7.4566   25.9689  -29.9045 H   0  0  0  0  0  0  0  0  0  0  0  0
   -8.5848   23.8446  -30.5356 H   0  0  0  0  0  0  0  0  0  0  0  0
   -8.4535   21.8017  -31.9659 H   0  0  0  0  0  0  0  0  0  0  0  0
   -7.0182   18.9777  -34.3058 H   0  0  0  0  0  0  0  0  0  0  0  0
   -6.0820   18.0667  -35.5371 H   0  0  0  0  0  0  0  0  0  0  0  0
   -6.4533   16.2915  -34.1417 H   0  0  0  0  0  0  0  0  0  0  0  0
   -5.0738   16.9995  -33.2141 H   0  0  0  0  0  0  0  0  0  0  0  0
   -6.7236   17.5061  -30.3144 H   0  0  0  0  0  0  0  0  0  0  0  0
   -5.2133   17.2717  -31.2581 H   0  0  0  0  0  0  0  0  0  0  0  0
   -6.0334   18.8698  -31.2581 H   0  0  0  0  0  0  0  0  0  0  0  0
   -8.3918   18.7998  -31.7388 H   0  0  0  0  0  0  0  0  0  0  0  0
   -7.5444   19.2199  -33.2659 H   0  0  0  0  0  0  0  0  0  0  0  0
   -8.8226   17.9578  -33.2659 H   0  0  0  0  0  0  0  0  0  0  0  0
   -1.5174   22.5919  -33.7566 H   0  0  0  0  0  0  0  0  0  0  0  0
    0.4294   18.7580  -34.5683 H   0  0  0  0  0  0  0  0  0  0  0  0
   -4.2803   24.3009  -30.7820 H   0  0  0  0  0  0  0  0  0  0  0  0
  1  2  1  0
  2  3  2  0
  3  4  1  0
  4  5  2  0
  5  6  1  0
  6  7  2  0
  7  8  1  0
  8  9  1  0
  9 10  1  0
 10 11  1  0
 11 12  1  0
 11 13  1  0
  7 14  1  0
 14 15  1  0
 15 16  2  0
 16 17  1  0
 17 18  1  0
 18 19  3  0
 17 20  2  0
 20 21  1  0
 14 22  2  0
 22 23  1  0
 23 24  2  0
 24  2  1  0
 23  5  1  0
 21 15  1  0
  1 25  1  0
  1 26  1  0
  1 27  1  0
  3 28  1  0
  4 29  1  0
  9 30  1  0
  9 31  1  0
 10 32  1  0
 10 33  1  0
 12 34  1  0
 12 35  1  0
 12 36  1  0
 13 37  1  0
 13 38  1  0
 13 39  1  0
 16 40  1  0
 20 41  1  0
 24 42  1  0
M  END
>  <UniqueID>  (32) 
30

>  <SMILES>  (32) 
Cc1ccc2nc(OCCN(C)C)c(-c3cc(C#N)cs3)nc2c1

>  <Energy>  (32) 
70.4936197249382

>  <Genealogy>  (32) 
Cc1ccc2nc(OCCN(C)C)c(-c3cc(C#N)cs3)nc2c1 (3D coordinates assigned)
Cc1ccc2nc(OCCN(C)C)c(-c3cc(C#N)cs3)nc2c1 (optimized conformer: 70.4936197249382 kcal/mol)

>  <smiles>  (32) 
Cc1ccc2nc(OCCN(C)C)c(-c3cc(C#N)cs3)nc2c1

>  <score_type>  (32) 
oracle

>  <origin>  (32) 
adg

>  <m_score__min__energy>  (32) 
-7.3600000000000003

>  <m_primary>  (32) 
energy

$$$$
32:0
     RDKit          3D

 34 36  0  0  0  0  0  0  0  0999 V2000
   -3.0940   23.8120  -28.8120 C   0  0  0  0  0  0  0  0  0  0  0  0
   -4.5950   23.9940  -28.6310 C   0  0  0  0  0  0  0  0  0  0  0  0
   -5.3030   24.8620  -30.0210 S   0  0  0  0  0  0  0  0  0  0  0  0
   -6.0750   26.0570  -29.5380 O   0  0  0  0  0  0  0  0  0  0  0  0
   -4.1990   25.3320  -30.9260 O   0  0  0  0  0  0  0  0  0  0  0  0
   -6.3590   23.8090  -30.9050 N   0  0  0  0  0  0  0  0  0  0  0  0
   -7.6090   24.1200  -31.2290 N   0  0  0  0  0  0  0  0  0  0  0  0
   -8.1280   23.0890  -31.9380 C   0  0  0  0  0  0  0  0  0  0  0  0
   -7.1620   22.1120  -32.0550 C   0  0  0  0  0  0  0  0  0  0  0  0
   -7.1660   20.8710  -32.6840 C   0  0  0  0  0  0  0  0  0  0  0  0
   -5.9830   20.0950  -32.6300 C   0  0  0  0  0  0  0  0  0  0  0  0
   -5.9300   18.7640  -33.2850 C   0  0  0  0  0  0  0  0  0  0  0  0
   -6.8280   17.7480  -32.9200 C   0  0  0  0  0  0  0  0  0  0  0  0
   -6.7610   16.5030  -33.5500 C   0  0  0  0  0  0  0  0  0  0  0  0
   -5.8310   16.2730  -34.5150 N   0  0  0  0  0  0  0  0  0  0  0  0
   -4.9480   17.2360  -34.8910 C   0  0  0  0  0  0  0  0  0  0  0  0
   -4.9790   18.4950  -34.2860 C   0  0  0  0  0  0  0  0  0  0  0  0
   -4.8450   20.6050  -31.9430 C   0  0  0  0  0  0  0  0  0  0  0  0
   -4.8820   21.8670  -31.3200 C   0  0  0  0  0  0  0  0  0  0  0  0
   -6.0680   22.5940  -31.4000 C   0  0  0  0  0  0  0  0  0  0  0  0
   -2.6102   23.7533  -27.8258 H   0  0  0  0  0  0  0  0  0  0  0  0
   -2.9019   22.8840  -29.3705 H   0  0  0  0  0  0  0  0  0  0  0  0
   -2.6857   24.6672  -29.3705 H   0  0  0  0  0  0  0  0  0  0  0  0
   -5.0698   23.0056  -28.5437 H   0  0  0  0  0  0  0  0  0  0  0  0
   -4.7702   24.5859  -27.7205 H   0  0  0  0  0  0  0  0  0  0  0  0
   -9.1466   23.0396  -32.3502 H   0  0  0  0  0  0  0  0  0  0  0  0
   -8.0611   20.5039  -33.2074 H   0  0  0  0  0  0  0  0  0  0  0  0
   -7.5819   17.9319  -32.1404 H   0  0  0  0  0  0  0  0  0  0  0  0
   -7.4631   15.7058  -33.2644 H   0  0  0  0  0  0  0  0  0  0  0  0
   -5.7940   15.3370  -34.9780 H   0  0  0  0  0  0  0  0  0  0  0  0
   -4.2061   17.0230  -35.6748 H   0  0  0  0  0  0  0  0  0  0  0  0
   -4.2630   19.2723  -34.5911 H   0  0  0  0  0  0  0  0  0  0  0  0
   -3.9243   20.0048  -31.8984 H   0  0  0  0  0  0  0  0  0  0  0  0
   -4.0051   22.2653  -30.7886 H   0  0  0  0  0  0  0  0  0  0  0  0
  1  2  1  0
  2  3  1  0
  3  4  2  0
  3  5  2  0
  3  6  1  0
  6  7  1  0
  7  8  2  0
  8  9  1  0
  9 10  2  0
 10 11  1  0
 11 12  1  0
 12 13  2  0
 13 14  1  0
 14 15  2  0
 15 16  1  0
 16 17  2  0
 11 18  2  0
 18 19  1  0
 19 20  2  0
 20  6  1  0
 20  9  1  0
 17 12  1  0
  1 21  1  0
  1 22  1  0
  1 23  1  0
  2 24  1  0
  2 25  1  0
  8 26  1  0
 10 27  1  0
 13 28  1  0
 14 29  1  0
 15 30  1  0
 16 31  1  0
 17 32  1  0
 18 33  1  0
 19 34  1  0
M  CHG  1  15   1
M  END
>  <UniqueID>  (33) 
31

>  <SMILES>  (33) 
CCS(=O)(=O)n1ncc2cc(-c3cc[nH+]cc3)ccc21

>  <Energy>  (33) 
74.63093525578215

>  <Genealogy>  (33) 
CCS(=O)(=O)n1ncc2cc(-c3cc[nH+]cc3)ccc21 (protonated)
CCS(=O)(=O)n1ncc2cc(-c3cc[nH+]cc3)ccc21 (3D coordinates assigned)
CCS(=O)(=O)n1ncc2cc(-c3cc[nH+]cc3)ccc21 (optimized conformer: 74.63093525578215 kcal/mol)

>  <smiles>  (33) 
CCS(=O)(=O)n1ncc2cc(-c3ccncc3)ccc21

>  <score_type>  (33) 
oracle

>  <origin>  (33) 
adg

>  <m_score__min__energy>  (33) 
-7.6500000000000004

>  <m_primary>  (33) 
energy

$$$$
33:0
     RDKit          3D

 31 32  0  0  1  0  0  0  0  0999 V2000
   -3.2380   18.1410  -34.1840 C   0  0  0  0  0  0  0  0  0  0  0  0
   -4.5660   17.8060  -34.5390 O   0  0  0  0  0  0  0  0  0  0  0  0
   -5.6540   18.1300  -33.7130 C   0  0  0  0  0  0  0  0  0  0  0  0
   -6.2650   19.3590  -33.7890 C   0  0  0  0  0  0  0  0  0  0  0  0
   -7.3480   19.6520  -32.9530 C   0  0  0  0  0  0  0  0  0  0  0  0
   -7.8640   20.8270  -33.0880 N   0  0  0  0  0  0  0  0  0  0  0  0
   -8.2930   21.6790  -31.6590 S   0  0  0  0  0  0  0  0  0  0  0  0
   -8.5030   20.7370  -30.5050 O   0  0  0  0  0  0  0  0  0  0  0  0
   -9.5280   22.4840  -31.9480 O   0  0  0  0  0  0  0  0  0  0  0  0
   -6.9970   22.7740  -31.1870 C   0  0  0  0  0  0  0  0  0  0  0  0
   -7.2560   24.0010  -30.5990 C   0  0  0  0  0  0  0  0  0  0  0  0
   -6.1870   24.8120  -30.2540 C   0  0  0  0  0  0  0  0  0  0  0  0
   -4.8710   24.4200  -30.4820 C   0  0  0  0  0  0  0  0  0  0  0  0
   -3.7780   25.2840  -30.1120 N   0  0  0  0  0  0  0  0  0  0  0  0
   -4.6090   23.1990  -31.0670 C   0  0  0  0  0  0  0  0  0  0  0  0
   -5.6920   22.3900  -31.4120 C   0  0  0  0  0  0  0  0  0  0  0  0
   -7.7950   18.7390  -32.0750 N   0  0  0  0  0  0  0  0  0  0  0  0
   -7.1720   17.5350  -32.0220 C   0  0  0  0  0  0  0  0  0  0  0  0
   -6.1320   17.2370  -32.8170 N   0  0  0  0  0  0  0  0  0  0  0  0
   -3.1462   18.1642  -33.0881 H   0  0  0  0  0  0  0  0  0  0  0  0
   -2.5480   17.3888  -34.5940 H   0  0  0  0  0  0  0  0  0  0  0  0
   -2.9874   19.1305  -34.5940 H   0  0  0  0  0  0  0  0  0  0  0  0
   -5.9031   20.1108  -34.5058 H   0  0  0  0  0  0  0  0  0  0  0  0
   -8.2900   24.3252  -30.4097 H   0  0  0  0  0  0  0  0  0  0  0  0
   -6.3830   25.7893  -29.7887 H   0  0  0  0  0  0  0  0  0  0  0  0
   -3.7200   25.4850  -29.0790 H   0  0  0  0  0  0  0  0  0  0  0  0
   -3.1090   25.6710  -30.8020 H   0  0  0  0  0  0  0  0  0  0  0  0
   -3.5758   22.8723  -31.2562 H   0  0  0  0  0  0  0  0  0  0  0  0
   -5.4983   21.4131  -31.8791 H   0  0  0  0  0  0  0  0  0  0  0  0
   -8.5990   18.9650  -31.4590 H   0  0  0  0  0  0  0  0  0  0  0  0
   -7.5297   16.7803  -31.3062 H   0  0  0  0  0  0  0  0  0  0  0  0
  1  2  1  0
  2  3  1  0
  3  4  2  0
  4  5  1  0
  5  6  2  0
  6  7  1  0
  7  8  2  0
  7  9  2  0
  7 10  1  0
 10 11  2  0
 11 12  1  0
 12 13  2  0
 13 14  1  0
 13 15  1  0
 15 16  2  0
  5 17  1  0
 17 18  1  0
 18 19  2  0
 19  3  1  0
 16 10  1  0
  1 20  1  0
  1 21  1  0
  1 22  1  0
  4 23  1  0
 11 24  1  0
 12 25  1  0
 14 26  1  0
 14 27  1  0
 15 28  1  0
 16 29  1  0
 17 30  1  0
 18 31  1  0
M  END
>  <smiles>  (34) 
COc1cc(=NS(=O)(=O)c2ccc(N)cc2)[nH]cn1

>  <score_type>  (34) 
oracle

>  <origin>  (34) 
adg

>  <m_score__min__energy>  (34) 
-7.0300000000000002

>  <m_primary>  (34) 
energy

$$$$
34:0
     RDKit          3D

 45 48  0  0  0  0  0  0  0  0999 V2000
    1.1450   26.3730  -36.3520 C   0  0  0  0  0  0  0  0  0  0  0  0
    2.3030   25.4770  -36.7760 C   0  0  0  0  0  0  0  0  0  0  0  0
    1.8200   24.1680  -37.2090 N   0  0  0  0  0  0  0  0  0  0  0  0
    1.1270   23.2180  -36.3870 C   0  0  0  0  0  0  0  0  0  0  0  0
    0.1330   23.6010  -35.7180 O   0  0  0  0  0  0  0  0  0  0  0  0
    1.5690   21.8620  -36.2620 N   0  0  0  0  0  0  0  0  0  0  0  0
    0.9630   20.8720  -35.4220 C   0  0  0  0  0  0  0  0  0  0  0  0
    1.6470   19.7010  -35.0600 C   0  0  0  0  0  0  0  0  0  0  0  0
    1.0190   18.7390  -34.2650 C   0  0  0  0  0  0  0  0  0  0  0  0
   -0.2940   18.9370  -33.8280 C   0  0  0  0  0  0  0  0  0  0  0  0
   -0.9870   20.1060  -34.1800 C   0  0  0  0  0  0  0  0  0  0  0  0
   -2.3800   20.3050  -33.7250 C   0  0  0  0  0  0  0  0  0  0  0  0
   -2.8610   21.4080  -33.0390 C   0  0  0  0  0  0  0  0  0  0  0  0
   -4.1780   21.2470  -32.7750 N   0  0  0  0  0  0  0  0  0  0  0  0
   -4.4700   20.0420  -33.3130 C   0  0  0  0  0  0  0  0  0  0  0  0
   -5.7360   19.4370  -33.3360 C   0  0  0  0  0  0  0  0  0  0  0  0
   -6.9160   20.0590  -32.6940 C   0  0  0  0  0  0  0  0  0  0  0  0
   -6.9920   21.4580  -32.5740 C   0  0  0  0  0  0  0  0  0  0  0  0
   -8.1010   22.0580  -31.9700 C   0  0  0  0  0  0  0  0  0  0  0  0
   -9.1480   21.2680  -31.4870 C   0  0  0  0  0  0  0  0  0  0  0  0
  -10.2230   21.8520  -30.9030 F   0  0  0  0  0  0  0  0  0  0  0  0
   -9.0890   19.8770  -31.6130 C   0  0  0  0  0  0  0  0  0  0  0  0
   -7.9820   19.2710  -32.2160 C   0  0  0  0  0  0  0  0  0  0  0  0
   -7.9690   17.9220  -32.3640 F   0  0  0  0  0  0  0  0  0  0  0  0
   -5.8510   18.2130  -34.0260 C   0  0  0  0  0  0  0  0  0  0  0  0
   -4.7330   17.6370  -34.6530 C   0  0  0  0  0  0  0  0  0  0  0  0
   -3.4930   18.2850  -34.5890 C   0  0  0  0  0  0  0  0  0  0  0  0
   -3.4100   19.4570  -33.9030 N   0  0  0  0  0  0  0  0  0  0  0  0
   -0.3600   21.0570  -35.0010 C   0  0  0  0  0  0  0  0  0  0  0  0
    1.0946   26.4120  -35.2538 H   0  0  0  0  0  0  0  0  0  0  0  0
    1.3020   27.3871  -36.7481 H   0  0  0  0  0  0  0  0  0  0  0  0
    0.2027   25.9665  -36.7481 H   0  0  0  0  0  0  0  0  0  0  0  0
    2.8419   25.9548  -37.6075 H   0  0  0  0  0  0  0  0  0  0  0  0
    2.9716   25.3365  -35.9139 H   0  0  0  0  0  0  0  0  0  0  0  0
    2.6797   19.5404  -35.4030 H   0  0  0  0  0  0  0  0  0  0  0  0
    1.5591   17.8234  -33.9822 H   0  0  0  0  0  0  0  0  0  0  0  0
   -0.7858   18.1743  -33.2063 H   0  0  0  0  0  0  0  0  0  0  0  0
   -2.2614   22.2843  -32.7517 H   0  0  0  0  0  0  0  0  0  0  0  0
   -6.1734   22.0845  -32.9579 H   0  0  0  0  0  0  0  0  0  0  0  0
   -8.1496   23.1528  -31.8748 H   0  0  0  0  0  0  0  0  0  0  0  0
   -9.9160   19.2570  -31.2366 H   0  0  0  0  0  0  0  0  0  0  0  0
   -6.8250   17.7041  -34.0740 H   0  0  0  0  0  0  0  0  0  0  0  0
   -4.8312   16.6826  -35.1910 H   0  0  0  0  0  0  0  0  0  0  0  0
   -2.6076   17.8567  -35.0815 H   0  0  0  0  0  0  0  0  0  0  0  0
   -0.9123   21.9546  -35.3161 H   0  0  0  0  0  0  0  0  0  0  0  0
  1  2  1  0
  2  3  1  0
  3  4  1  0
  4  5  2  0
  4  6  1  0
  6  7  1  0
  7  8  2  0
  8  9  1  0
  9 10  2  0
 10 11  1  0
 11 12  1  0
 12 13  2  0
 13 14  1  0
 14 15  2  0
 15 16  1  0
 16 17  1  0
 17 18  2  0
 18 19  1  0
 19 20  2  0
 20 21  1  0
 20 22  1  0
 22 23  2  0
 23 24  1  0
 16 25  2  0
 25 26  1  0
 26 27  2  0
 27 28  1  0
 11 29  2  0
 29  7  1  0
 28 12  1  0
 28 15  1  0
 23 17  1  0
  1 30  1  0
  1 31  1  0
  1 32  1  0
  2 33  1  0
  2 34  1  0
  8 35  1  0
  9 36  1  0
 10 37  1  0
 13 38  1  0
 18 39  1  0
 19 40  1  0
 22 41  1  0
 25 42  1  0
 26 43  1  0
 27 44  1  0
 29 45  1  0
M  CHG  2   3  -1   6  -1
M  END
>  <UniqueID>  (35) 
32

>  <SMILES>  (35) 
CC[N-]C(=O)[N-]c1cccc(-c2cnc3c(-c4ccc(F)cc4F)cccn23)c1

>  <Energy>  (35) 
98.4094334851257

>  <Genealogy>  (35) 
CC[N-]C(=O)[N-]c1cccc(-c2cnc3c(-c4ccc(F)cc4F)cccn23)c1 (protonated)
CC[N-]C(=O)[N-]c1cccc(-c2cnc3c(-c4ccc(F)cc4F)cccn23)c1 (3D coordinates assigned)
CC[N-]C(=O)[N-]c1cccc(-c2cnc3c(-c4ccc(F)cc4F)cccn23)c1 (optimized conformer: 98.4094334851257 kcal/mol)

>  <smiles>  (35) 
CCNC(=O)Nc1cccc(-c2cnc3c(-c4ccc(F)cc4F)cccn23)c1

>  <score_type>  (35) 
oracle

>  <origin>  (35) 
adg

>  <m_score__min__energy>  (35) 
-12.18

>  <m_primary>  (35) 
energy

$$$$
35:0
     RDKit          3D

 38 40  0  0  0  0  0  0  0  0999 V2000
   -1.8180   25.0160  -28.1410 C   0  0  0  0  0  0  0  0  0  0  0  0
   -2.5140   25.2980  -29.3500 O   0  0  0  0  0  0  0  0  0  0  0  0
   -3.5600   24.5160  -29.8670 C   0  0  0  0  0  0  0  0  0  0  0  0
   -4.8730   25.0060  -29.9790 C   0  0  0  0  0  0  0  0  0  0  0  0
   -5.8890   24.2020  -30.4980 C   0  0  0  0  0  0  0  0  0  0  0  0
   -5.6130   22.8910  -30.9240 C   0  0  0  0  0  0  0  0  0  0  0  0
   -6.6820   22.0150  -31.4700 C   0  0  0  0  0  0  0  0  0  0  0  0
   -8.0420   22.3540  -31.3890 C   0  0  0  0  0  0  0  0  0  0  0  0
   -8.9730   21.5220  -31.9220 N   0  0  0  0  0  0  0  0  0  0  0  0
   -8.6230   20.3590  -32.5290 C   0  0  0  0  0  0  0  0  0  0  0  0
   -7.2680   20.0050  -32.6200 C   0  0  0  0  0  0  0  0  0  0  0  0
   -6.8180   18.7560  -33.2870 C   0  0  0  0  0  0  0  0  0  0  0  0
   -7.2610   17.4890  -32.8540 C   0  0  0  0  0  0  0  0  0  0  0  0
   -6.8170   16.3270  -33.4920 C   0  0  0  0  0  0  0  0  0  0  0  0
   -5.9260   16.4120  -34.5640 C   0  0  0  0  0  0  0  0  0  0  0  0
   -5.4710   17.6590  -34.9950 C   0  0  0  0  0  0  0  0  0  0  0  0
   -5.9100   18.8250  -34.3600 C   0  0  0  0  0  0  0  0  0  0  0  0
   -6.3410   20.8520  -32.0920 N   0  0  0  0  0  0  0  0  0  0  0  0
   -4.3020   22.3990  -30.8000 C   0  0  0  0  0  0  0  0  0  0  0  0
   -3.2730   23.2060  -30.2780 C   0  0  0  0  0  0  0  0  0  0  0  0
   -1.9530   22.7420  -30.1500 O   0  0  0  0  0  0  0  0  0  0  0  0
   -1.4450   21.5710  -30.7800 C   0  0  0  0  0  0  0  0  0  0  0  0
   -2.4552   25.2742  -27.2823 H   0  0  0  0  0  0  0  0  0  0  0  0
   -1.5677   23.9455  -28.1031 H   0  0  0  0  0  0  0  0  0  0  0  0
   -0.8932   25.6104  -28.1031 H   0  0  0  0  0  0  0  0  0  0  0  0
   -5.1016   26.0320  -29.6548 H   0  0  0  0  0  0  0  0  0  0  0  0
   -6.9128   24.5969  -30.5742 H   0  0  0  0  0  0  0  0  0  0  0  0
   -8.3513   23.2878  -30.8968 H   0  0  0  0  0  0  0  0  0  0  0  0
   -9.3968   19.6983  -32.9469 H   0  0  0  0  0  0  0  0  0  0  0  0
   -7.9607   17.4146  -32.0085 H   0  0  0  0  0  0  0  0  0  0  0  0
   -7.1703   15.3434  -33.1488 H   0  0  0  0  0  0  0  0  0  0  0  0
   -5.5830   15.4966  -35.0684 H   0  0  0  0  0  0  0  0  0  0  0  0
   -4.7653   17.7248  -35.8363 H   0  0  0  0  0  0  0  0  0  0  0  0
   -5.5427   19.8039  -34.7019 H   0  0  0  0  0  0  0  0  0  0  0  0
   -4.0769   21.3694  -31.1151 H   0  0  0  0  0  0  0  0  0  0  0  0
   -1.1315   20.8483  -30.0123 H   0  0  0  0  0  0  0  0  0  0  0  0
   -2.2294   21.1225  -31.4073 H   0  0  0  0  0  0  0  0  0  0  0  0
   -0.5815   21.8373  -31.4073 H   0  0  0  0  0  0  0  0  0  0  0  0
  1  2  1  0
  2  3  1  0
  3  4  2  0
  4  5  1  0
  5  6  2  0
  6  7  1  0
  7  8  2  0
  8  9  1  0
  9 10  2  0
 10 11  1  0
 11 12  1  0
 12 13  2  0
 13 14  1  0
 14 15  2  0
 15 16  1  0
 16 17  2  0
 11 18  2  0
  6 19  1  0
 19 20  2  0
 20 21  1  0
 21 22  1  0
 20  3  1  0
 18  7  1  0
 17 12  1  0
  1 23  1  0
  1 24  1  0
  1 25  1  0
  4 26  1  0
  5 27  1  0
  8 28  1  0
 10 29  1  0
 13 30  1  0
 14 31  1  0
 15 32  1  0
 16 33  1  0
 17 34  1  0
 19 35  1  0
 22 36  1  0
 22 37  1  0
 22 38  1  0
M  END
>  <UniqueID>  (36) 
33

>  <SMILES>  (36) 
COc1ccc(-c2cncc(-c3ccccc3)n2)cc1OC

>  <Energy>  (36) 
49.03915992657347

>  <Genealogy>  (36) 
COc1ccc(-c2cncc(-c3ccccc3)n2)cc1OC (3D coordinates assigned)
COc1ccc(-c2cncc(-c3ccccc3)n2)cc1OC (optimized conformer: 49.03915992657347 kcal/mol)

>  <smiles>  (36) 
COc1ccc(-c2cncc(-c3ccccc3)n2)cc1OC

>  <score_type>  (36) 
oracle

>  <origin>  (36) 
adg

>  <m_score__min__energy>  (36) 
-8.1600000000000001

>  <m_primary>  (36) 
energy

$$$$
36:0
     RDKit          3D

 31 33  0  0  0  0  0  0  0  0999 V2000
   -1.5510   25.3790  -28.9720 O   0  0  0  0  0  0  0  0  0  0  0  0
   -2.3380   24.4500  -28.2580 C   0  0  2  0  0  0  0  0  0  0  0  0
   -1.5190   23.1800  -28.0200 C   0  0  0  0  0  0  0  0  0  0  0  0
   -0.1470   23.1270  -28.3510 C   0  0  0  0  0  0  0  0  0  0  0  0
    0.5870   21.9510  -28.1700 C   0  0  0  0  0  0  0  0  0  0  0  0
   -0.0340   20.8040  -27.6770 C   0  0  0  0  0  0  0  0  0  0  0  0
    0.6880   19.6690  -27.5080 F   0  0  0  0  0  0  0  0  0  0  0  0
   -1.3990   20.8260  -27.3720 C   0  0  0  0  0  0  0  0  0  0  0  0
   -2.1950   19.3800  -26.7720 Cl  0  0  0  0  0  0  0  0  0  0  0  0
   -2.1370   22.0010  -27.5500 C   0  0  0  0  0  0  0  0  0  0  0  0
   -3.5600   24.1240  -29.1010 C   0  0  0  0  0  0  0  0  0  0  0  0
   -4.5330   23.2790  -28.6670 N   0  0  0  0  0  0  0  0  0  0  0  0
   -5.4250   23.3170  -29.6680 C   0  0  0  0  0  0  0  0  0  0  0  0
   -6.6340   22.6340  -29.7580 C   0  0  0  0  0  0  0  0  0  0  0  0
   -7.4170   22.8380  -30.9120 C   0  0  0  0  0  0  0  0  0  0  0  0
   -8.9510   22.0000  -31.0760 Cl  0  0  0  0  0  0  0  0  0  0  0  0
   -6.9710   23.7150  -31.9320 C   0  0  0  0  0  0  0  0  0  0  0  0
   -7.7240   23.9120  -33.0410 F   0  0  0  0  0  0  0  0  0  0  0  0
   -5.7410   24.3890  -31.8000 C   0  0  0  0  0  0  0  0  0  0  0  0
   -4.9960   24.1580  -30.6460 C   0  0  0  0  0  0  0  0  0  0  0  0
   -3.8140   24.6940  -30.3120 N   0  0  0  0  0  0  0  0  0  0  0  0
   -2.7270   25.0660  -26.8880 C   0  0  0  0  0  0  0  0  0  0  0  0
   -2.1760   24.3180  -25.8620 F   0  0  0  0  0  0  0  0  0  0  0  0
   -4.1020   25.0880  -26.7270 F   0  0  0  0  0  0  0  0  0  0  0  0
   -2.2500   26.3620  -26.7880 F   0  0  0  0  0  0  0  0  0  0  0  0
   -2.0630   25.6750  -29.7700 H   0  0  0  0  0  0  0  0  0  0  0  0
    0.3497   24.0211  -28.7558 H   0  0  0  0  0  0  0  0  0  0  0  0
    1.6586   21.9305  -28.4175 H   0  0  0  0  0  0  0  0  0  0  0  0
   -3.2128   22.0063  -27.3208 H   0  0  0  0  0  0  0  0  0  0  0  0
   -6.9670   21.9584  -28.9564 H   0  0  0  0  0  0  0  0  0  0  0  0
   -5.3812   25.0743  -32.5816 H   0  0  0  0  0  0  0  0  0  0  0  0
  2  1  1  6
  2  3  1  0
  3  4  2  0
  4  5  1  0
  5  6  2  0
  6  7  1  0
  6  8  1  0
  8  9  1  0
  8 10  2  0
  2 11  1  0
 11 12  2  0
 12 13  1  0
 13 14  2  0
 14 15  1  0
 15 16  1  0
 15 17  2  0
 17 18  1  0
 17 19  1  0
 19 20  2  0
 20 21  1  0
  2 22  1  0
 22 23  1  0
 22 24  1  0
 22 25  1  0
 10  3  1  0
 21 11  1  0
 20 13  1  0
  1 26  1  0
  4 27  1  0
  5 28  1  0
 10 29  1  0
 14 30  1  0
 19 31  1  0
M  CHG  1  21  -1
M  END
>  <UniqueID>  (37) 
34

>  <SMILES>  (37) 
O[C@](c1ccc(F)c(Cl)c1)(c1nc2cc(Cl)c(F)cc2[n-]1)C(F)(F)F

>  <Energy>  (37) 
73.28306390071242

>  <Genealogy>  (37) 
OC(c1ccc(F)c(Cl)c1)(c1nc2cc(Cl)c(F)cc2[n-]1)C(F)(F)F (protonated)
O[C@](c1ccc(F)c(Cl)c1)(c1nc2cc(Cl)c(F)cc2[n-]1)C(F)(F)F (chirality)
O[C@](c1ccc(F)c(Cl)c1)(c1nc2cc(Cl)c(F)cc2[n-]1)C(F)(F)F (3D coordinates assigned)
O[C@](c1ccc(F)c(Cl)c1)(c1nc2cc(Cl)c(F)cc2[n-]1)C(F)(F)F (optimized conformer: 73.28306390071242 kcal/mol)

>  <smiles>  (37) 
OC(c1ccc(F)c(Cl)c1)(c1nc2cc(Cl)c(F)cc2[nH]1)C(F)(F)F

>  <score_type>  (37) 
oracle

>  <origin>  (37) 
adg

>  <m_score__min__energy>  (37) 
-7.9400000000000004

>  <m_primary>  (37) 
energy

$$$$
37:0
     RDKit          3D

 41 43  0  0  0  0  0  0  0  0999 V2000
   -4.2490   24.5520  -27.0250 C   0  0  0  0  0  0  0  0  0  0  0  0
   -2.9750   24.1920  -27.7510 C   0  0  0  0  0  0  0  0  0  0  0  0
   -1.7160   24.4150  -27.1450 C   0  0  0  0  0  0  0  0  0  0  0  0
   -1.5610   25.1360  -25.5450 Cl  0  0  0  0  0  0  0  0  0  0  0  0
   -0.5410   24.0750  -27.8230 C   0  0  0  0  0  0  0  0  0  0  0  0
   -0.5980   23.5350  -29.1050 C   0  0  0  0  0  0  0  0  0  0  0  0
   -1.8290   23.3390  -29.7290 C   0  0  0  0  0  0  0  0  0  0  0  0
   -3.0250   23.6630  -29.0650 C   0  0  0  0  0  0  0  0  0  0  0  0
   -4.2820   23.5180  -29.7520 N   0  0  0  0  0  0  0  0  0  0  0  0
   -4.8640   24.5540  -30.5590 C   0  0  0  0  0  0  0  0  0  0  0  0
   -4.2130   25.6000  -30.8260 O   0  0  0  0  0  0  0  0  0  0  0  0
   -6.2590   24.3990  -31.0810 C   0  0  0  0  0  0  0  0  0  0  0  0
   -7.0580   23.4380  -30.1990 C   0  0  0  0  0  0  0  0  0  0  0  0
   -7.2950   22.1360  -30.9150 C   0  0  0  0  0  0  0  0  0  0  0  0
   -8.5690   21.5400  -30.8980 C   0  0  0  0  0  0  0  0  0  0  0  0
   -8.7990   20.3440  -31.5870 C   0  0  0  0  0  0  0  0  0  0  0  0
   -7.7620   19.7420  -32.3020 C   0  0  0  0  0  0  0  0  0  0  0  0
   -6.5000   20.3510  -32.3570 C   0  0  0  0  0  0  0  0  0  0  0  0
   -6.2630   21.5380  -31.6580 C   0  0  0  0  0  0  0  0  0  0  0  0
   -5.4910   19.7560  -33.1200 O   0  0  0  0  0  0  0  0  0  0  0  0
   -5.7880   18.7110  -34.0510 C   0  0  0  0  0  0  0  0  0  0  0  0
   -6.8570   17.7740  -33.4730 C   0  0  0  0  0  0  0  0  0  0  0  0
   -7.9610   18.5320  -32.9720 O   0  0  0  0  0  0  0  0  0  0  0  0
   -4.0785   24.5038  -25.9394 H   0  0  0  0  0  0  0  0  0  0  0  0
   -4.5541   25.5715  -27.3034 H   0  0  0  0  0  0  0  0  0  0  0  0
   -5.0426   23.8429  -27.3034 H   0  0  0  0  0  0  0  0  0  0  0  0
    0.4344   24.2352  -27.3403 H   0  0  0  0  0  0  0  0  0  0  0  0
    0.3310   23.2622  -29.6270 H   0  0  0  0  0  0  0  0  0  0  0  0
   -1.8648   22.9277  -30.7486 H   0  0  0  0  0  0  0  0  0  0  0  0
   -4.7820   22.6040  -29.6890 H   0  0  0  0  0  0  0  0  0  0  0  0
   -6.7543   25.3812  -31.0872 H   0  0  0  0  0  0  0  0  0  0  0  0
   -6.2134   23.9905  -32.1013 H   0  0  0  0  0  0  0  0  0  0  0  0
   -6.4960   23.2446  -29.2734 H   0  0  0  0  0  0  0  0  0  0  0  0
   -8.0302   23.8963  -29.9648 H   0  0  0  0  0  0  0  0  0  0  0  0
   -9.3887   22.0165  -30.3402 H   0  0  0  0  0  0  0  0  0  0  0  0
   -9.7955   19.8788  -31.5653 H   0  0  0  0  0  0  0  0  0  0  0  0
   -5.2674   22.0046  -31.6896 H   0  0  0  0  0  0  0  0  0  0  0  0
   -6.1601   19.1532  -34.9869 H   0  0  0  0  0  0  0  0  0  0  0  0
   -4.8724   18.1335  -34.2464 H   0  0  0  0  0  0  0  0  0  0  0  0
   -7.2111   17.0957  -34.2633 H   0  0  0  0  0  0  0  0  0  0  0  0
   -6.4171   17.1937  -32.6485 H   0  0  0  0  0  0  0  0  0  0  0  0
  1  2  1  0
  2  3  2  0
  3  4  1  0
  3  5  1  0
  5  6  2  0
  6  7  1  0
  7  8  2  0
  8  9  1  0
  9 10  1  0
 10 11  2  0
 10 12  1  0
 12 13  1  0
 13 14  1  0
 14 15  2  0
 15 16  1  0
 16 17  2  0
 17 18  1  0
 18 19  2  0
 18 20  1  0
 20 21  1  0
 21 22  1  0
 22 23  1  0
  8  2  1  0
 19 14  1  0
 23 17  1  0
  1 24  1  0
  1 25  1  0
  1 26  1  0
  5 27  1  0
  6 28  1  0
  7 29  1  0
  9 30  1  0
 12 31  1  0
 12 32  1  0
 13 33  1  0
 13 34  1  0
 15 35  1  0
 16 36  1  0
 19 37  1  0
 21 38  1  0
 21 39  1  0
 22 40  1  0
 22 41  1  0
M  END
>  <UniqueID>  (38) 
35

>  <SMILES>  (38) 
Cc1c(Cl)cccc1NC(=O)CCc1ccc2c(c1)OCCO2

>  <Energy>  (38) 
45.48954962985936

>  <Genealogy>  (38) 
Cc1c(Cl)cccc1NC(=O)CCc1ccc2c(c1)OCCO2 (3D coordinates assigned)
Cc1c(Cl)cccc1NC(=O)CCc1ccc2c(c1)OCCO2 (nonaromatic ring conformer: 45.48954962985936 kcal/mol)

>  <smiles>  (38) 
Cc1c(Cl)cccc1NC(=O)CCc1ccc2c(c1)OCCO2

>  <score_type>  (38) 
oracle

>  <origin>  (38) 
adg

>  <m_score__min__energy>  (38) 
-8.9199999999999999

>  <m_primary>  (38) 
energy

$$$$
38:0
     RDKit          3D

 41 43  0  0  0  0  0  0  0  0999 V2000
   -2.4530   19.2110  -33.7880 C   0  0  0  0  0  0  0  0  0  0  0  0
   -3.9020   19.5240  -33.5740 C   0  0  0  0  0  0  0  0  0  0  0  0
   -4.8480   18.8140  -34.2370 N   0  0  0  0  0  0  0  0  0  0  0  0
   -6.1440   19.0660  -34.0700 N   0  0  0  0  0  0  0  0  0  0  0  0
   -6.5710   20.0430  -33.2270 C   0  0  0  0  0  0  0  0  0  0  0  0
   -8.0510   20.2760  -33.0940 C   0  0  0  0  0  0  0  0  0  0  0  0
   -5.6500   20.7790  -32.5230 N   0  0  0  0  0  0  0  0  0  0  0  0
   -6.0740   21.8090  -31.6090 C   0  0  0  0  0  0  0  0  0  0  0  0
   -7.2010   21.6110  -30.7980 C   0  0  0  0  0  0  0  0  0  0  0  0
   -7.5980   22.6010  -29.8960 C   0  0  0  0  0  0  0  0  0  0  0  0
   -6.8730   23.7910  -29.7950 C   0  0  0  0  0  0  0  0  0  0  0  0
   -5.7470   24.0040  -30.6070 C   0  0  0  0  0  0  0  0  0  0  0  0
   -4.9380   25.2660  -30.4830 C   0  0  0  0  0  0  0  0  0  0  0  0
   -3.5180   24.9740  -30.6500 N   0  0  0  0  0  0  0  0  0  0  0  0
   -2.6630   24.5650  -29.5770 C   0  0  0  0  0  0  0  0  0  0  0  0
   -1.9930   25.4230  -28.9400 O   0  0  0  0  0  0  0  0  0  0  0  0
   -2.5780   23.1380  -29.2190 C   0  0  0  0  0  0  0  0  0  0  0  0
   -3.3420   22.6020  -28.1690 C   0  0  0  0  0  0  0  0  0  0  0  0
   -3.2360   21.2420  -27.8680 C   0  0  0  0  0  0  0  0  0  0  0  0
   -2.3760   20.4300  -28.6090 C   0  0  0  0  0  0  0  0  0  0  0  0
   -1.6310   20.9950  -29.6460 C   0  0  0  0  0  0  0  0  0  0  0  0
   -1.7470   22.3200  -29.9250 N   0  0  0  0  0  0  0  0  0  0  0  0
   -5.3580   23.0120  -31.5200 C   0  0  0  0  0  0  0  0  0  0  0  0
   -4.3140   20.5300  -32.6920 C   0  0  0  0  0  0  0  0  0  0  0  0
   -3.4530   21.1980  -32.0530 O   0  0  0  0  0  0  0  0  0  0  0  0
   -1.9534   19.1031  -32.8139 H   0  0  0  0  0  0  0  0  0  0  0  0
   -2.3603   18.2721  -34.3536 H   0  0  0  0  0  0  0  0  0  0  0  0
   -1.9811   20.0279  -34.3536 H   0  0  0  0  0  0  0  0  0  0  0  0
   -8.3212   20.3185  -32.0286 H   0  0  0  0  0  0  0  0  0  0  0  0
   -8.3174   21.2271  -33.5781 H   0  0  0  0  0  0  0  0  0  0  0  0
   -8.5968   19.4527  -33.5781 H   0  0  0  0  0  0  0  0  0  0  0  0
   -7.7733   20.6745  -30.8723 H   0  0  0  0  0  0  0  0  0  0  0  0
   -8.4840   22.4432  -29.2634 H   0  0  0  0  0  0  0  0  0  0  0  0
   -7.1851   24.5638  -29.0771 H   0  0  0  0  0  0  0  0  0  0  0  0
   -5.2558   25.9787  -31.2582 H   0  0  0  0  0  0  0  0  0  0  0  0
   -5.1000   25.6990  -29.4849 H   0  0  0  0  0  0  0  0  0  0  0  0
   -4.0178   23.2476  -27.5889 H   0  0  0  0  0  0  0  0  0  0  0  0
   -3.8296   20.8116  -27.0480 H   0  0  0  0  0  0  0  0  0  0  0  0
   -2.2862   19.3581  -28.3789 H   0  0  0  0  0  0  0  0  0  0  0  0
   -0.9492   20.3667  -30.2380 H   0  0  0  0  0  0  0  0  0  0  0  0
   -4.4863   23.1787  -32.1699 H   0  0  0  0  0  0  0  0  0  0  0  0
  1  2  1  0
  2  3  2  0
  3  4  1  0
  4  5  2  0
  5  6  1  0
  5  7  1  0
  7  8  1  0
  8  9  2  0
  9 10  1  0
 10 11  2  0
 11 12  1  0
 12 13  1  0
 13 14  1  0
 14 15  1  0
 15 16  2  0
 15 17  1  0
 17 18  2  0
 18 19  1  0
 19 20  2  0
 20 21  1  0
 21 22  2  0
 12 23  2  0
  7 24  1  0
 24 25  2  0
 24  2  1  0
 23  8  1  0
 22 17  1  0
  1 26  1  0
  1 27  1  0
  1 28  1  0
  6 29  1  0
  6 30  1  0
  6 31  1  0
  9 32  1  0
 10 33  1  0
 11 34  1  0
 13 35  1  0
 13 36  1  0
 18 37  1  0
 19 38  1  0
 20 39  1  0
 21 40  1  0
 23 41  1  0
M  CHG  1  14  -1
M  END
>  <UniqueID>  (39) 
36

>  <SMILES>  (39) 
Cc1nnc(C)n(-c2cccc(C[N-]C(=O)c3ccccn3)c2)c1=O

>  <Energy>  (39) 
51.46636653181868

>  <Genealogy>  (39) 
Cc1nnc(C)n(-c2cccc(C[N-]C(=O)c3ccccn3)c2)c1=O (protonated)
Cc1nnc(C)n(-c2cccc(C[N-]C(=O)c3ccccn3)c2)c1=O (3D coordinates assigned)
Cc1nnc(C)n(-c2cccc(C[N-]C(=O)c3ccccn3)c2)c1=O (optimized conformer: 51.46636653181868 kcal/mol)

>  <smiles>  (39) 
Cc1nnc(C)n(-c2cccc(CNC(=O)c3ccccn3)c2)c1=O

>  <score_type>  (39) 
oracle

>  <origin>  (39) 
adg

>  <m_score__min__energy>  (39) 
-10.539999999999999

>  <m_primary>  (39) 
energy

$$$$
39:0
     RDKit          3D

 39 40  0  0  0  0  0  0  0  0999 V2000
   -6.0630   17.0580  -31.9130 C   0  0  0  0  0  0  0  0  0  0  0  0
   -6.8030   18.2900  -32.3140 C   0  0  0  0  0  0  0  0  0  0  0  0
   -6.5510   19.0990  -33.4040 C   0  0  0  0  0  0  0  0  0  0  0  0
   -7.4930   20.0610  -33.4660 N   0  0  0  0  0  0  0  0  0  0  0  0
   -8.3300   19.8680  -32.4580 N   0  0  0  0  0  0  0  0  0  0  0  0
   -9.4810   20.7220  -32.1800 C   0  0  0  0  0  0  0  0  0  0  0  0
   -9.0450   22.0830  -31.6050 C   0  0  0  0  0  0  0  0  0  0  0  0
   -7.5940   22.1890  -31.3680 N   0  0  0  0  0  0  0  0  0  0  0  0
   -7.0080   23.4450  -31.8570 C   0  0  0  0  0  0  0  0  0  0  0  0
   -5.5910   23.5980  -31.3790 C   0  0  0  0  0  0  0  0  0  0  0  0
   -5.0360   24.6720  -30.6990 C   0  0  0  0  0  0  0  0  0  0  0  0
   -5.7320   25.9330  -30.3040 C   0  0  0  0  0  0  0  0  0  0  0  0
   -3.7340   24.4280  -30.4500 N   0  0  0  0  0  0  0  0  0  0  0  0
   -3.4480   23.2350  -30.9480 N   0  0  0  0  0  0  0  0  0  0  0  0
   -2.1240   22.6270  -30.8710 C   0  0  0  0  0  0  0  0  0  0  0  0
   -4.5520   22.6910  -31.5030 C   0  0  0  0  0  0  0  0  0  0  0  0
   -4.5930   21.3770  -32.2240 C   0  0  0  0  0  0  0  0  0  0  0  0
   -7.9480   18.7950  -31.7380 C   0  0  0  0  0  0  0  0  0  0  0  0
   -6.0247   16.9942  -30.8155 H   0  0  0  0  0  0  0  0  0  0  0  0
   -6.5793   16.1733  -32.3139 H   0  0  0  0  0  0  0  0  0  0  0  0
   -5.0395   17.0982  -32.3139 H   0  0  0  0  0  0  0  0  0  0  0  0
   -5.7153   18.9779  -34.1089 H   0  0  0  0  0  0  0  0  0  0  0  0
  -10.0363   20.8896  -33.1146 H   0  0  0  0  0  0  0  0  0  0  0  0
  -10.1141   20.2181  -31.4349 H   0  0  0  0  0  0  0  0  0  0  0  0
   -9.3393   22.8702  -32.3148 H   0  0  0  0  0  0  0  0  0  0  0  0
   -9.5390   22.1923  -30.6282 H   0  0  0  0  0  0  0  0  0  0  0  0
   -7.0980   21.3850  -31.8160 H   0  0  0  0  0  0  0  0  0  0  0  0
   -7.0188   23.4431  -32.9569 H   0  0  0  0  0  0  0  0  0  0  0  0
   -7.6025   24.2849  -31.4682 H   0  0  0  0  0  0  0  0  0  0  0  0
   -5.7703   26.0024  -29.2069 H   0  0  0  0  0  0  0  0  0  0  0  0
   -5.1828   26.7967  -30.7071 H   0  0  0  0  0  0  0  0  0  0  0  0
   -6.7555   25.9287  -30.7071 H   0  0  0  0  0  0  0  0  0  0  0  0
   -1.8410   22.4970  -29.8160 H   0  0  0  0  0  0  0  0  0  0  0  0
   -2.1412   21.6466  -31.3695 H   0  0  0  0  0  0  0  0  0  0  0  0
   -1.3916   23.2790  -31.3695 H   0  0  0  0  0  0  0  0  0  0  0  0
   -4.6186   20.5572  -31.4910 H   0  0  0  0  0  0  0  0  0  0  0  0
   -5.4930   21.3329  -32.8550 H   0  0  0  0  0  0  0  0  0  0  0  0
   -3.6975   21.2769  -32.8550 H   0  0  0  0  0  0  0  0  0  0  0  0
   -8.4586   18.3943  -30.8499 H   0  0  0  0  0  0  0  0  0  0  0  0
  1  2  1  0
  2  3  1  0
  3  4  2  0
  4  5  1  0
  5  6  1  0
  6  7  1  0
  7  8  1  0
  8  9  1  0
  9 10  1  0
 10 11  1  0
 11 12  1  0
 11 13  2  0
 13 14  1  0
 14 15  1  0
 14 16  1  0
 16 17  1  0
  5 18  1  0
 18  2  2  0
 16 10  2  0
  1 19  1  0
  1 20  1  0
  1 21  1  0
  3 22  1  0
  6 23  1  0
  6 24  1  0
  7 25  1  0
  7 26  1  0
  8 27  1  0
  9 28  1  0
  9 29  1  0
 12 30  1  0
 12 31  1  0
 12 32  1  0
 15 33  1  0
 15 34  1  0
 15 35  1  0
 17 36  1  0
 17 37  1  0
 17 38  1  0
 18 39  1  0
M  END
>  <UniqueID>  (40) 
37

>  <SMILES>  (40) 
Cc1cnn(CCNCc2c(C)nn(C)c2C)c1

>  <Energy>  (40) 
92.06877116619906

>  <Genealogy>  (40) 
Cc1cnn(CCNCc2c(C)nn(C)c2C)c1 (3D coordinates assigned)
Cc1cnn(CCNCc2c(C)nn(C)c2C)c1 (optimized conformer: 92.06877116619906 kcal/mol)

>  <smiles>  (40) 
Cc1cnn(CCNCc2c(C)nn(C)c2C)c1

>  <score_type>  (40) 
oracle

>  <origin>  (40) 
adg

>  <m_score__min__energy>  (40) 
-6.6299999999999999

>  <m_primary>  (40) 
energy

$$$$
40:0
     RDKit          3D

 32 33  0  0  0  0  0  0  0  0999 V2000
   -5.2770   25.6500  -30.4570 C   0  0  0  0  0  0  0  0  0  0  0  0
   -3.8660   25.3170  -30.5670 N   0  0  0  0  0  0  0  0  0  0  0  0
   -3.3480   24.0140  -30.2800 C   0  0  0  0  0  0  0  0  0  0  0  0
   -2.5060   23.8760  -29.3510 O   0  0  0  0  0  0  0  0  0  0  0  0
   -3.7790   22.8270  -31.0700 C   0  0  0  0  0  0  0  0  0  0  0  0
   -5.1560   22.5670  -31.2130 C   0  0  0  0  0  0  0  0  0  0  0  0
   -5.6180   21.4560  -31.9380 C   0  0  0  0  0  0  0  0  0  0  0  0
   -7.0730   21.1960  -32.0770 C   0  0  0  0  0  0  0  0  0  0  0  0
   -7.5360   19.9680  -32.5880 C   0  0  0  0  0  0  0  0  0  0  0  0
   -8.9070   19.7250  -32.7170 C   0  0  0  0  0  0  0  0  0  0  0  0
   -9.8300   20.7030  -32.3400 C   0  0  0  0  0  0  0  0  0  0  0  0
   -9.3840   21.9260  -31.8310 C   0  0  0  0  0  0  0  0  0  0  0  0
   -8.0150   22.1720  -31.7000 C   0  0  0  0  0  0  0  0  0  0  0  0
   -4.6830   20.5940  -32.5270 C   0  0  0  0  0  0  0  0  0  0  0  0
   -3.3160   20.8380  -32.4020 C   0  0  0  0  0  0  0  0  0  0  0  0
   -2.8460   21.9520  -31.6800 C   0  0  0  0  0  0  0  0  0  0  0  0
   -1.4700   22.2150  -31.5680 O   0  0  0  0  0  0  0  0  0  0  0  0
   -0.5810   21.5360  -30.6870 C   0  0  0  0  0  0  0  0  0  0  0  0
   -5.5565   25.7160  -29.3951 H   0  0  0  0  0  0  0  0  0  0  0  0
   -5.4647   26.6171  -30.9463 H   0  0  0  0  0  0  0  0  0  0  0  0
   -5.8773   24.8689  -30.9463 H   0  0  0  0  0  0  0  0  0  0  0  0
   -5.8842   23.2476  -30.7476 H   0  0  0  0  0  0  0  0  0  0  0  0
   -6.8138   19.1943  -32.8878 H   0  0  0  0  0  0  0  0  0  0  0  0
   -9.2590   18.7622  -33.1160 H   0  0  0  0  0  0  0  0  0  0  0  0
  -10.9081   20.5108  -32.4437 H   0  0  0  0  0  0  0  0  0  0  0  0
  -10.1115   22.6955  -31.5333 H   0  0  0  0  0  0  0  0  0  0  0  0
   -7.6702   23.1365  -31.2989 H   0  0  0  0  0  0  0  0  0  0  0  0
   -5.0307   19.7172  -33.0929 H   0  0  0  0  0  0  0  0  0  0  0  0
   -2.5962   20.1523  -32.8729 H   0  0  0  0  0  0  0  0  0  0  0  0
   -0.8620   21.7506  -29.6454 H   0  0  0  0  0  0  0  0  0  0  0  0
   -0.6423   20.4526  -30.8675 H   0  0  0  0  0  0  0  0  0  0  0  0
    0.4481   21.8802  -30.8675 H   0  0  0  0  0  0  0  0  0  0  0  0
  1  2  1  0
  2  3  1  0
  3  4  2  0
  3  5  1  0
  5  6  2  0
  6  7  1  0
  7  8  1  0
  8  9  2  0
  9 10  1  0
 10 11  2  0
 11 12  1  0
 12 13  2  0
  7 14  2  0
 14 15  1  0
 15 16  2  0
 16 17  1  0
 17 18  1  0
 16  5  1  0
 13  8  1  0
  1 19  1  0
  1 20  1  0
  1 21  1  0
  6 22  1  0
  9 23  1  0
 10 24  1  0
 11 25  1  0
 12 26  1  0
 13 27  1  0
 14 28  1  0
 15 29  1  0
 18 30  1  0
 18 31  1  0
 18 32  1  0
M  CHG  1   2  -1
M  END
>  <UniqueID>  (41) 
38

>  <SMILES>  (41) 
C[N-]C(=O)c1cc(-c2ccccc2)ccc1OC

>  <Energy>  (41) 
37.754188194822426

>  <Genealogy>  (41) 
C[N-]C(=O)c1cc(-c2ccccc2)ccc1OC (protonated)
C[N-]C(=O)c1cc(-c2ccccc2)ccc1OC (3D coordinates assigned)
C[N-]C(=O)c1cc(-c2ccccc2)ccc1OC (optimized conformer: 37.754188194822426 kcal/mol)

>  <smiles>  (41) 
CNC(=O)c1cc(-c2ccccc2)ccc1OC

>  <score_type>  (41) 
oracle

>  <origin>  (41) 
adg

>  <m_score__min__energy>  (41) 
-8.5099999999999998

>  <m_primary>  (41) 
energy

$$$$
41:0
     RDKit          3D

 42 44  0  0  0  0  0  0  0  0999 V2000
   -6.8660   25.3010  -29.7160 C   0  0  0  0  0  0  0  0  0  0  0  0
   -5.4950   25.4230  -30.3810 C   0  0  0  0  0  0  0  0  0  0  0  0
   -4.4920   24.3790  -29.8690 C   0  0  0  0  0  0  0  0  0  0  0  0
   -5.0690   22.9580  -29.8660 C   0  0  0  0  0  0  0  0  0  0  0  0
   -4.4790   22.1430  -30.9910 C   0  0  0  0  0  0  0  0  0  0  0  0
   -3.1240   22.0650  -31.0710 N   0  0  0  0  0  0  0  0  0  0  0  0
   -2.5050   21.3900  -32.0670 C   0  0  0  0  0  0  0  0  0  0  0  0
   -1.1070   21.3290  -32.1080 C   0  0  0  0  0  0  0  0  0  0  0  0
   -0.4670   20.6330  -33.1370 C   0  0  0  0  0  0  0  0  0  0  0  0
   -1.2210   19.9960  -34.1280 C   0  0  0  0  0  0  0  0  0  0  0  0
   -2.6180   20.0530  -34.0930 C   0  0  0  0  0  0  0  0  0  0  0  0
   -3.2700   20.7530  -33.0600 C   0  0  0  0  0  0  0  0  0  0  0  0
   -4.6690   20.8440  -32.9800 C   0  0  0  0  0  0  0  0  0  0  0  0
   -5.3870   20.2850  -33.8580 O   0  0  0  0  0  0  0  0  0  0  0  0
   -5.2580   21.5350  -31.9510 N   0  0  0  0  0  0  0  0  0  0  0  0
   -6.6950   21.6110  -31.8930 C   0  0  0  0  0  0  0  0  0  0  0  0
   -7.3260   22.8560  -32.0300 C   0  0  0  0  0  0  0  0  0  0  0  0
   -8.7170   22.9540  -31.9670 C   0  0  0  0  0  0  0  0  0  0  0  0
   -9.4890   21.8080  -31.7740 C   0  0  0  0  0  0  0  0  0  0  0  0
   -8.8750   20.5590  -31.6510 C   0  0  0  0  0  0  0  0  0  0  0  0
   -7.4760   20.4460  -31.7190 C   0  0  0  0  0  0  0  0  0  0  0  0
   -6.8240   19.0970  -31.5840 C   0  0  0  0  0  0  0  0  0  0  0  0
   -6.7455   25.3117  -28.6227 H   0  0  0  0  0  0  0  0  0  0  0  0
   -7.4992   26.1464  -30.0234 H   0  0  0  0  0  0  0  0  0  0  0  0
   -7.3399   24.3571  -30.0234 H   0  0  0  0  0  0  0  0  0  0  0  0
   -5.6174   25.2906  -31.4661 H   0  0  0  0  0  0  0  0  0  0  0  0
   -5.0940   26.4172  -30.1347 H   0  0  0  0  0  0  0  0  0  0  0  0
   -3.6033   24.3969  -30.5170 H   0  0  0  0  0  0  0  0  0  0  0  0
   -4.2420   24.6391  -28.8298 H   0  0  0  0  0  0  0  0  0  0  0  0
   -4.8332   22.4741  -28.9067 H   0  0  0  0  0  0  0  0  0  0  0  0
   -6.1586   23.0173  -30.0045 H   0  0  0  0  0  0  0  0  0  0  0  0
   -0.5119   21.8292  -31.3298 H   0  0  0  0  0  0  0  0  0  0  0  0
    0.6316   20.5860  -33.1677 H   0  0  0  0  0  0  0  0  0  0  0  0
   -0.7141   19.4490  -34.9366 H   0  0  0  0  0  0  0  0  0  0  0  0
   -3.2080   19.5503  -34.8735 H   0  0  0  0  0  0  0  0  0  0  0  0
   -6.7209   23.7609  -32.1881 H   0  0  0  0  0  0  0  0  0  0  0  0
   -9.2045   23.9347  -32.0695 H   0  0  0  0  0  0  0  0  0  0  0  0
  -10.5847   21.8881  -31.7185 H   0  0  0  0  0  0  0  0  0  0  0  0
   -9.4899   19.6595  -31.5002 H   0  0  0  0  0  0  0  0  0  0  0  0
   -6.7056   18.8520  -30.5182 H   0  0  0  0  0  0  0  0  0  0  0  0
   -7.4535   18.3355  -32.0675 H   0  0  0  0  0  0  0  0  0  0  0  0
   -5.8362   19.1171  -32.0675 H   0  0  0  0  0  0  0  0  0  0  0  0
  1  2  1  0
  2  3  1  0
  3  4  1  0
  4  5  1  0
  5  6  2  0
  6  7  1  0
  7  8  2  0
  8  9  1  0
  9 10  2  0
 10 11  1  0
 11 12  2  0
 12 13  1  0
 13 14  2  0
 13 15  1  0
 15 16  1  0
 16 17  2  0
 17 18  1  0
 18 19  2  0
 19 20  1  0
 20 21  2  0
 21 22  1  0
 15  5  1  0
 21 16  1  0
 12  7  1  0
  1 23  1  0
  1 24  1  0
  1 25  1  0
  2 26  1  0
  2 27  1  0
  3 28  1  0
  3 29  1  0
  4 30  1  0
  4 31  1  0
  8 32  1  0
  9 33  1  0
 10 34  1  0
 11 35  1  0
 17 36  1  0
 18 37  1  0
 19 38  1  0
 20 39  1  0
 22 40  1  0
 22 41  1  0
 22 42  1  0
M  END
>  <UniqueID>  (42) 
39

>  <SMILES>  (42) 
CCCCc1nc2ccccc2c(=O)n1-c1ccccc1C

>  <Energy>  (42) 
51.307058955335165

>  <Genealogy>  (42) 
CCCCc1nc2ccccc2c(=O)n1-c1ccccc1C (3D coordinates assigned)
CCCCc1nc2ccccc2c(=O)n1-c1ccccc1C (optimized conformer: 51.307058955335165 kcal/mol)

>  <smiles>  (42) 
CCCCc1nc2ccccc2c(=O)n1-c1ccccc1C

>  <score_type>  (42) 
oracle

>  <origin>  (42) 
adg

>  <m_score__min__energy>  (42) 
-7.75

>  <m_primary>  (42) 
energy

$$$$
42:0
     RDKit          3D

 37 40  0  0  1  0  0  0  0  0999 V2000
   -5.7580   25.5480  -30.2020 C   0  0  0  0  0  0  0  0  0  0  0  0
   -4.4630   25.3280  -30.8410 N   0  0  0  0  0  0  0  0  0  0  0  0
   -3.7660   24.3410  -30.3900 C   0  0  0  0  0  0  0  0  0  0  0  0
   -2.7700   24.5400  -29.5190 N   0  0  0  0  0  0  0  0  0  0  0  0
   -2.1000   23.4200  -29.1100 C   0  0  0  0  0  0  0  0  0  0  0  0
   -1.0130   23.6800  -28.1530 C   0  0  0  0  0  0  0  0  0  0  0  0
   -1.1150   23.4260  -26.8090 C   0  0  0  0  0  0  0  0  0  0  0  0
   -0.0610   23.6870  -25.9280 C   0  0  0  0  0  0  0  0  0  0  0  0
    1.1180   24.2110  -26.4020 C   0  0  0  0  0  0  0  0  0  0  0  0
    1.1940   24.4570  -27.7550 C   0  0  0  0  0  0  0  0  0  0  0  0
    0.1670   24.1970  -28.5780 N   0  0  0  0  0  0  0  0  0  0  0  0
   -2.3850   22.1950  -29.5260 N   0  0  0  0  0  0  0  0  0  0  0  0
   -3.4040   21.9370  -30.4250 C   0  0  0  0  0  0  0  0  0  0  0  0
   -3.7900   20.7580  -30.9180 C   0  0  0  0  0  0  0  0  0  0  0  0
   -4.8200   20.7700  -31.7900 C   0  0  0  0  0  0  0  0  0  0  0  0
   -5.4660   19.6190  -32.5010 C   0  0  0  0  0  0  0  0  0  0  0  0
   -6.3680   18.8400  -31.8170 C   0  0  0  0  0  0  0  0  0  0  0  0
   -6.9710   17.7810  -32.4490 C   0  0  0  0  0  0  0  0  0  0  0  0
   -6.6460   17.5360  -33.7600 C   0  0  0  0  0  0  0  0  0  0  0  0
   -5.7280   18.3310  -34.4530 C   0  0  0  0  0  0  0  0  0  0  0  0
   -5.1270   19.3910  -33.8130 C   0  0  0  0  0  0  0  0  0  0  0  0
   -5.2990   22.4670  -31.9550 S   0  0  0  0  0  0  0  0  0  0  0  0
   -4.0850   23.0290  -30.8460 C   0  0  0  0  0  0  0  0  0  0  0  0
   -5.6358   25.5272  -29.1090 H   0  0  0  0  0  0  0  0  0  0  0  0
   -6.1563   26.5267  -30.5079 H   0  0  0  0  0  0  0  0  0  0  0  0
   -6.4571   24.7558  -30.5079 H   0  0  0  0  0  0  0  0  0  0  0  0
   -2.0514   23.0056  -26.4135 H   0  0  0  0  0  0  0  0  0  0  0  0
   -0.1754   23.4729  -24.8551 H   0  0  0  0  0  0  0  0  0  0  0  0
    1.9630   24.4243  -25.7308 H   0  0  0  0  0  0  0  0  0  0  0  0
    2.1211   24.8777  -28.1717 H   0  0  0  0  0  0  0  0  0  0  0  0
   -1.8160   21.4090  -29.1550 H   0  0  0  0  0  0  0  0  0  0  0  0
   -3.2922   19.8212  -30.6273 H   0  0  0  0  0  0  0  0  0  0  0  0
   -6.6060   19.0642  -30.7667 H   0  0  0  0  0  0  0  0  0  0  0  0
   -7.6956   17.1455  -31.9188 H   0  0  0  0  0  0  0  0  0  0  0  0
   -7.1209   16.6908  -34.2797 H   0  0  0  0  0  0  0  0  0  0  0  0
   -5.4875   18.1106  -35.5035 H   0  0  0  0  0  0  0  0  0  0  0  0
   -4.4010   20.0329  -34.3334 H   0  0  0  0  0  0  0  0  0  0  0  0
  1  2  1  0
  2  3  2  0
  3  4  1  0
  4  5  2  0
  5  6  1  0
  6  7  2  0
  7  8  1  0
  8  9  2  0
  9 10  1  0
 10 11  2  0
  5 12  1  0
 12 13  1  0
 13 14  1  0
 14 15  2  0
 15 16  1  0
 16 17  2  0
 17 18  1  0
 18 19  2  0
 19 20  1  0
 20 21  2  0
 15 22  1  0
 22 23  1  0
 23  3  1  0
 11  6  1  0
 23 13  2  0
 21 16  1  0
  1 24  1  0
  1 25  1  0
  1 26  1  0
  7 27  1  0
  8 28  1  0
  9 29  1  0
 10 30  1  0
 12 31  1  0
 14 32  1  0
 17 33  1  0
 18 34  1  0
 19 35  1  0
 20 36  1  0
 21 37  1  0
M  END
>  <smiles>  (43) 
CN=c1nc(-c2ccccn2)[nH]c2cc(-c3ccccc3)sc12

>  <score_type>  (43) 
oracle

>  <origin>  (43) 
adg

>  <m_score__min__energy>  (43) 
-8.1199999999999992

>  <m_primary>  (43) 
energy

$$$$
43:0
     RDKit          3D

 47 50  0  0  0  0  0  0  0  0999 V2000
    1.7320   24.2880  -27.4660 C   0  0  0  0  0  0  0  0  0  0  0  0
    0.2480   24.1260  -27.6600 C   0  0  0  0  0  0  0  0  0  0  0  0
   -0.4330   23.0810  -26.9060 C   0  0  0  0  0  0  0  0  0  0  0  0
   -2.1340   23.2750  -27.4600 S   0  0  0  0  0  0  0  0  0  0  0  0
   -1.7210   24.7200  -28.6230 C   0  0  0  0  0  0  0  0  0  0  0  0
   -2.7370   25.2980  -29.3560 O   0  0  0  0  0  0  0  0  0  0  0  0
   -3.7260   24.5210  -29.9540 C   0  0  0  0  0  0  0  0  0  0  0  0
   -5.0340   24.9810  -29.8590 C   0  0  0  0  0  0  0  0  0  0  0  0
   -6.0460   24.2460  -30.4360 C   0  0  0  0  0  0  0  0  0  0  0  0
   -5.7390   23.0610  -31.1020 C   0  0  0  0  0  0  0  0  0  0  0  0
   -6.8960   22.3300  -31.6960 C   0  0  0  0  0  0  0  0  0  0  0  0
   -6.6730   20.8970  -31.6560 N   0  0  0  0  0  0  0  0  0  0  0  0
   -5.8270   20.4410  -32.7180 C   0  0  0  0  0  0  0  0  0  0  0  0
   -6.4990   19.5690  -33.7280 C   0  0  0  0  0  0  0  0  0  0  0  0
   -7.2470   18.4310  -33.0960 C   0  0  0  0  0  0  0  0  0  0  0  0
   -6.4420   17.1930  -33.1470 C   0  0  0  0  0  0  0  0  0  0  0  0
   -6.4350   16.3080  -34.2170 C   0  0  0  0  0  0  0  0  0  0  0  0
   -5.5980   15.2780  -33.9550 N   0  0  0  0  0  0  0  0  0  0  0  0
   -5.0860   15.5170  -32.7370 C   0  0  0  0  0  0  0  0  0  0  0  0
   -5.5910   16.6650  -32.2530 N   0  0  0  0  0  0  0  0  0  0  0  0
   -7.7060   18.7340  -31.6880 C   0  0  0  0  0  0  0  0  0  0  0  0
   -7.9390   20.2290  -31.5940 C   0  0  0  0  0  0  0  0  0  0  0  0
   -4.4470   22.6110  -31.1920 C   0  0  0  0  0  0  0  0  0  0  0  0
   -3.4270   23.3340  -30.6210 C   0  0  0  0  0  0  0  0  0  0  0  0
   -0.5030   24.8020  -28.4190 N   0  0  0  0  0  0  0  0  0  0  0  0
    1.9606   24.3130  -26.3903 H   0  0  0  0  0  0  0  0  0  0  0  0
    2.2574   23.4419  -27.9330 H   0  0  0  0  0  0  0  0  0  0  0  0
    2.0624   25.2276  -27.9330 H   0  0  0  0  0  0  0  0  0  0  0  0
   -0.0159   22.3614  -26.1861 H   0  0  0  0  0  0  0  0  0  0  0  0
   -5.2580   25.9192  -29.3303 H   0  0  0  0  0  0  0  0  0  0  0  0
   -7.0883   24.5917  -30.3716 H   0  0  0  0  0  0  0  0  0  0  0  0
   -7.8057   22.5698  -31.1260 H   0  0  0  0  0  0  0  0  0  0  0  0
   -7.0096   22.6409  -32.7450 H   0  0  0  0  0  0  0  0  0  0  0  0
   -5.4282   21.3234  -33.2399 H   0  0  0  0  0  0  0  0  0  0  0  0
   -5.0475   19.8236  -32.2477 H   0  0  0  0  0  0  0  0  0  0  0  0
   -7.2081   20.1799  -34.3059 H   0  0  0  0  0  0  0  0  0  0  0  0
   -5.7178   19.1395  -34.3724 H   0  0  0  0  0  0  0  0  0  0  0  0
   -8.1633   18.2815  -33.6859 H   0  0  0  0  0  0  0  0  0  0  0  0
   -7.0222   16.4267  -35.1396 H   0  0  0  0  0  0  0  0  0  0  0  0
   -4.3638   14.8721  -32.2150 H   0  0  0  0  0  0  0  0  0  0  0  0
   -5.3620   17.0770  -31.3330 H   0  0  0  0  0  0  0  0  0  0  0  0
   -8.6404   18.1945  -31.4737 H   0  0  0  0  0  0  0  0  0  0  0  0
   -6.9485   18.4142  -30.9573 H   0  0  0  0  0  0  0  0  0  0  0  0
   -8.5723   20.5581  -32.4310 H   0  0  0  0  0  0  0  0  0  0  0  0
   -8.4437   20.4704  -30.6469 H   0  0  0  0  0  0  0  0  0  0  0  0
   -4.2269   21.6719  -31.7209 H   0  0  0  0  0  0  0  0  0  0  0  0
   -2.3877   22.9804  -30.6895 H   0  0  0  0  0  0  0  0  0  0  0  0
  1  2  1  0
  2  3  2  0
  3  4  1  0
  4  5  1  0
  5  6  1  0
  6  7  1  0
  7  8  2  0
  8  9  1  0
  9 10  2  0
 10 11  1  0
 11 12  1  0
 12 13  1  0
 13 14  1  0
 14 15  1  0
 15 16  1  0
 16 17  2  0
 17 18  1  0
 18 19  2  0
 19 20  1  0
 15 21  1  0
 21 22  1  0
 10 23  1  0
 23 24  2  0
  5 25  2  0
 25  2  1  0
 24  7  1  0
 22 12  1  0
 20 16  1  0
  1 26  1  0
  1 27  1  0
  1 28  1  0
  3 29  1  0
  8 30  1  0
  9 31  1  0
 11 32  1  0
 11 33  1  0
 13 34  1  0
 13 35  1  0
 14 36  1  0
 14 37  1  0
 15 38  1  0
 17 39  1  0
 19 40  1  0
 20 41  1  0
 21 42  1  0
 21 43  1  0
 22 44  1  0
 22 45  1  0
 23 46  1  0
 24 47  1  0
M  END
>  <smiles>  (44) 
Cc1csc(Oc2ccc(CN3CCC(c4cnc[nH]4)CC3)cc2)n1

>  <score_type>  (44) 
oracle

>  <origin>  (44) 
adg

>  <m_score__min__energy>  (44) 
-9.2100000000000009

>  <m_primary>  (44) 
energy

$$$$
45:0
     RDKit          3D

 47 50  0  0  0  0  0  0  0  0999 V2000
   -2.1860   21.1870  -30.6660 C   0  0  0  0  0  0  0  0  0  0  0  0
   -3.5120   20.7290  -30.0680 C   0  0  0  0  0  0  0  0  0  0  0  0
   -4.5330   20.5650  -31.1170 N   0  0  0  0  0  0  0  0  0  0  0  0
   -5.4480   21.6410  -31.3770 C   0  0  0  0  0  0  0  0  0  0  0  0
   -4.9710   22.9510  -31.6070 C   0  0  0  0  0  0  0  0  0  0  0  0
   -5.8560   23.9860  -31.9580 C   0  0  0  0  0  0  0  0  0  0  0  0
   -7.2250   23.7250  -32.0990 C   0  0  0  0  0  0  0  0  0  0  0  0
   -7.6750   22.4270  -31.8740 C   0  0  0  0  0  0  0  0  0  0  0  0
   -6.8220   21.4080  -31.5150 C   0  0  0  0  0  0  0  0  0  0  0  0
   -7.5980   20.1370  -31.3220 C   0  0  1  0  0  0  0  0  0  0  0  0
   -8.9910   20.6170  -31.6860 C   0  0  0  0  0  0  0  0  0  0  0  0
   -9.0180   21.9120  -31.9790 C   0  0  0  0  0  0  0  0  0  0  0  0
   -7.0940   18.8830  -32.1380 C   0  0  1  0  0  0  0  0  0  0  0  0
   -8.1610   17.7620  -31.9600 C   0  0  0  0  0  0  0  0  0  0  0  0
   -6.9480   19.1520  -33.6600 C   0  0  0  0  0  0  0  0  0  0  0  0
   -5.7570   20.0420  -34.0560 C   0  0  0  0  0  0  0  0  0  0  0  0
   -4.4780   19.6840  -33.3970 N   0  0  0  0  0  0  0  0  0  0  0  0
   -3.7010   18.7250  -34.2020 C   0  0  0  0  0  0  0  0  0  0  0  0
   -4.5400   19.3410  -31.9470 C   0  0  2  0  0  0  0  0  0  0  0  0
   -5.7190   18.4030  -31.5570 C   0  0  2  0  0  0  0  0  0  0  0  0
   -5.3680   16.9260  -31.8720 C   0  0  0  0  0  0  0  0  0  0  0  0
   -1.4828   21.4299  -29.8557 H   0  0  0  0  0  0  0  0  0  0  0  0
   -1.7662   20.3818  -31.2868 H   0  0  0  0  0  0  0  0  0  0  0  0
   -2.3526   22.0797  -31.2868 H   0  0  0  0  0  0  0  0  0  0  0  0
   -3.3631   19.7665  -29.5567 H   0  0  0  0  0  0  0  0  0  0  0  0
   -3.8589   21.4926  -29.3562 H   0  0  0  0  0  0  0  0  0  0  0  0
   -3.8960   23.1635  -31.5105 H   0  0  0  0  0  0  0  0  0  0  0  0
   -5.4720   25.0036  -32.1223 H   0  0  0  0  0  0  0  0  0  0  0  0
   -7.9261   24.5247  -32.3801 H   0  0  0  0  0  0  0  0  0  0  0  0
   -7.5045   19.7159  -30.3101 H   0  0  0  0  0  0  0  0  0  0  0  0
   -9.8776   19.9662  -31.7050 H   0  0  0  0  0  0  0  0  0  0  0  0
   -9.9111   22.4921  -32.2544 H   0  0  0  0  0  0  0  0  0  0  0  0
   -8.3304   17.5840  -30.8878 H   0  0  0  0  0  0  0  0  0  0  0  0
   -9.1036   18.0745  -32.4333 H   0  0  0  0  0  0  0  0  0  0  0  0
   -7.8024   16.8360  -32.4333 H   0  0  0  0  0  0  0  0  0  0  0  0
   -6.8323   18.1829  -34.1674 H   0  0  0  0  0  0  0  0  0  0  0  0
   -7.8527   19.7003  -33.9615 H   0  0  0  0  0  0  0  0  0  0  0  0
   -5.6166   19.9644  -35.1442 H   0  0  0  0  0  0  0  0  0  0  0  0
   -6.0046   21.0619  -33.7267 H   0  0  0  0  0  0  0  0  0  0  0  0
   -3.1510   18.0462  -33.5336 H   0  0  0  0  0  0  0  0  0  0  0  0
   -4.3838   18.1411  -34.8366 H   0  0  0  0  0  0  0  0  0  0  0  0
   -2.9881   19.2719  -34.8366 H   0  0  0  0  0  0  0  0  0  0  0  0
   -3.6296   18.7587  -31.7416 H   0  0  0  0  0  0  0  0  0  0  0  0
   -5.8605   18.4608  -30.4677 H   0  0  0  0  0  0  0  0  0  0  0  0
   -5.2363   16.3717  -30.9310 H   0  0  0  0  0  0  0  0  0  0  0  0
   -6.1832   16.4715  -32.4542 H   0  0  0  0  0  0  0  0  0  0  0  0
   -4.4355   16.8869  -32.4542 H   0  0  0  0  0  0  0  0  0  0  0  0
  1  2  1  0
  2  3  1  0
  3  4  1  0
  4  5  2  0
  5  6  1  0
  6  7  2  0
  7  8  1  0
  8  9  2  0
  9 10  1  0
 10 11  1  0
 11 12  2  0
 10 13  1  0
 13 14  1  6
 13 15  1  0
 15 16  1  0
 16 17  1  0
 17 18  1  0
 17 19  1  0
 19 20  1  0
 20 21  1  0
 19  3  1  0
  9  4  1  0
 20 13  1  0
 12  8  1  0
  1 22  1  0
  1 23  1  0
  1 24  1  0
  2 25  1  0
  2 26  1  0
  5 27  1  0
  6 28  1  0
  7 29  1  0
 10 30  1  1
 11 31  1  0
 12 32  1  0
 14 33  1  0
 14 34  1  0
 14 35  1  0
 15 36  1  0
 15 37  1  0
 16 38  1  0
 16 39  1  0
 18 40  1  0
 18 41  1  0
 18 42  1  0
 19 43  1  1
 20 44  1  1
 21 45  1  0
 21 46  1  0
 21 47  1  0
M  END
>  <UniqueID>  (45) 
40

>  <SMILES>  (45) 
CCN1c2cccc3c2[C@@H](C=C3)[C@@]2(C)CCN(C)C1C2C

>  <Energy>  (45) 
90.17013060356815

>  <Genealogy>  (45) 
CCN1c2cccc3c2[C@@H](C=C3)[C@@]2(C)CCN(C)C1C2C (chirality)
CCN1c2cccc3c2[C@@H](C=C3)[C@@]2(C)CCN(C)C1C2C (3D coordinates assigned)
CCN1c2cccc3c2[C@@H](C=C3)[C@@]2(C)CCN(C)C1C2C (nonaromatic ring conformer: 90.17013060356815 kcal/mol)

>  <smiles>  (45) 
CCN1c2cccc3c2C(C=C3)C2(C)CCN(C)C1C2C

>  <score_type>  (45) 
oracle

>  <origin>  (45) 
adg

>  <m_score__min__energy>  (45) 
-6.7599999999999998

>  <m_primary>  (45) 
energy

$$$$
46:0
     RDKit          3D

 29 30  0  0  0  0  0  0  0  0999 V2000
   -6.4720   25.6480  -29.3890 C   0  0  0  0  0  0  0  0  0  0  0  0
   -5.4460   24.5150  -29.4050 C   0  0  0  0  0  0  0  0  0  0  0  0
   -4.9480   24.1870  -30.8270 C   0  0  0  0  0  0  0  0  0  0  0  0
   -6.0660   24.1940  -31.8830 C   0  0  0  0  0  0  0  0  0  0  0  0
   -6.7850   22.9160  -31.9280 N   0  0  0  0  0  0  0  0  0  0  0  0
   -8.0640   22.9000  -31.5380 N   0  0  0  0  0  0  0  0  0  0  0  0
   -8.8060   21.7650  -31.5270 C   0  0  0  0  0  0  0  0  0  0  0  0
   -8.2290   20.5610  -31.9310 C   0  0  0  0  0  0  0  0  0  0  0  0
   -8.9700   19.3690  -31.9250 C   0  0  0  0  0  0  0  0  0  0  0  0
   -8.3740   18.1730  -32.3340 C   0  0  0  0  0  0  0  0  0  0  0  0
   -7.0410   18.1600  -32.7500 C   0  0  0  0  0  0  0  0  0  0  0  0
   -6.2940   19.3420  -32.7580 C   0  0  0  0  0  0  0  0  0  0  0  0
   -6.8820   20.5540  -32.3490 C   0  0  0  0  0  0  0  0  0  0  0  0
   -6.1670   21.7640  -32.3430 C   0  0  0  0  0  0  0  0  0  0  0  0
   -4.9600   21.7890  -32.7180 O   0  0  0  0  0  0  0  0  0  0  0  0
   -6.7108   25.9117  -28.3481 H   0  0  0  0  0  0  0  0  0  0  0  0
   -6.0560   26.5267  -29.9037 H   0  0  0  0  0  0  0  0  0  0  0  0
   -7.3875   25.3209  -29.9037 H   0  0  0  0  0  0  0  0  0  0  0  0
   -4.5840   24.8114  -28.7893 H   0  0  0  0  0  0  0  0  0  0  0  0
   -5.9373   23.6146  -29.0078 H   0  0  0  0  0  0  0  0  0  0  0  0
   -4.1935   24.9346  -31.1132 H   0  0  0  0  0  0  0  0  0  0  0  0
   -4.5344   23.1681  -30.7990 H   0  0  0  0  0  0  0  0  0  0  0  0
   -6.7796   24.9950  -31.6399 H   0  0  0  0  0  0  0  0  0  0  0  0
   -5.6037   24.3595  -32.8673 H   0  0  0  0  0  0  0  0  0  0  0  0
   -9.8564   21.7936  -31.2015 H   0  0  0  0  0  0  0  0  0  0  0  0
  -10.0203   19.3762  -31.5982 H   0  0  0  0  0  0  0  0  0  0  0  0
   -8.9562   17.2397  -32.3282 H   0  0  0  0  0  0  0  0  0  0  0  0
   -6.5769   17.2163  -33.0726 H   0  0  0  0  0  0  0  0  0  0  0  0
   -5.2438   19.3248  -33.0848 H   0  0  0  0  0  0  0  0  0  0  0  0
  1  2  1  0
  2  3  1  0
  3  4  1  0
  4  5  1  0
  5  6  1  0
  6  7  2  0
  7  8  1  0
  8  9  2  0
  9 10  1  0
 10 11  2  0
 11 12  1  0
 12 13  2  0
 13 14  1  0
 14 15  2  0
 14  5  1  0
 13  8  1  0
  1 16  1  0
  1 17  1  0
  1 18  1  0
  2 19  1  0
  2 20  1  0
  3 21  1  0
  3 22  1  0
  4 23  1  0
  4 24  1  0
  7 25  1  0
  9 26  1  0
 10 27  1  0
 11 28  1  0
 12 29  1  0
M  END
>  <UniqueID>  (46) 
41

>  <SMILES>  (46) 
CCCCn1ncc2ccccc2c1=O

>  <Energy>  (46) 
30.226087581346857

>  <Genealogy>  (46) 
CCCCn1ncc2ccccc2c1=O (3D coordinates assigned)
CCCCn1ncc2ccccc2c1=O (optimized conformer: 30.226087581346857 kcal/mol)

>  <smiles>  (46) 
CCCCn1ncc2ccccc2c1=O

>  <score_type>  (46) 
oracle

>  <origin>  (46) 
adg

>  <m_score__min__energy>  (46) 
-6.21

>  <m_primary>  (46) 
energy

$$$$
47:0
     RDKit          3D

 45 47  0  0  0  0  0  0  0  0999 V2000
   -5.7220   26.1640  -30.1970 O   0  0  0  0  0  0  0  0  0  0  0  0
   -4.9940   25.1640  -30.4400 C   0  0  0  0  0  0  0  0  0  0  0  0
   -3.5750   25.2980  -30.2700 N   0  0  0  0  0  0  0  0  0  0  0  0
   -2.7330   24.4250  -29.5040 C   0  0  0  0  0  0  0  0  0  0  0  0
   -3.0810   23.0860  -29.2880 C   0  0  0  0  0  0  0  0  0  0  0  0
   -2.2350   22.2410  -28.5550 C   0  0  0  0  0  0  0  0  0  0  0  0
   -2.5700   20.7800  -28.4000 C   0  0  0  0  0  0  0  0  0  0  0  0
   -1.4180   20.0160  -28.4560 F   0  0  0  0  0  0  0  0  0  0  0  0
   -3.4230   20.3530  -29.4040 F   0  0  0  0  0  0  0  0  0  0  0  0
   -3.1820   20.5840  -27.1760 F   0  0  0  0  0  0  0  0  0  0  0  0
   -1.0400   22.7720  -28.0440 C   0  0  0  0  0  0  0  0  0  0  0  0
   -0.7420   24.0840  -28.2250 N   0  0  0  0  0  0  0  0  0  0  0  0
   -1.5560   24.9160  -28.9260 C   0  0  0  0  0  0  0  0  0  0  0  0
   -1.2360   26.1240  -29.0650 O   0  0  0  0  0  0  0  0  0  0  0  0
   -5.6150   23.8850  -30.9780 C   0  0  0  0  0  0  0  0  0  0  0  0
   -6.5020   24.1780  -32.2120 C   0  0  0  0  0  0  0  0  0  0  0  0
   -7.6800   23.1930  -32.3540 C   0  0  0  0  0  0  0  0  0  0  0  0
   -7.3350   21.8250  -31.9060 N   0  0  0  0  0  0  0  0  0  0  0  0
   -6.3680   21.1440  -32.7970 C   0  0  0  0  0  0  0  0  0  0  0  0
   -6.6490   19.6650  -32.8770 C   0  0  0  0  0  0  0  0  0  0  0  0
   -7.7610   19.1170  -32.2120 C   0  0  0  0  0  0  0  0  0  0  0  0
   -8.0110   17.7430  -32.2700 C   0  0  0  0  0  0  0  0  0  0  0  0
   -7.1560   16.9070  -32.9930 C   0  0  0  0  0  0  0  0  0  0  0  0
   -6.0480   17.4420  -33.6540 C   0  0  0  0  0  0  0  0  0  0  0  0
   -5.7900   18.8150  -33.5970 C   0  0  0  0  0  0  0  0  0  0  0  0
   -4.7030   19.3150  -34.2370 F   0  0  0  0  0  0  0  0  0  0  0  0
   -6.9310   21.7740  -30.4740 C   0  0  0  0  0  0  0  0  0  0  0  0
   -6.4130   23.1170  -29.9120 C   0  0  0  0  0  0  0  0  0  0  0  0
   -4.0244   22.6942  -29.6960 H   0  0  0  0  0  0  0  0  0  0  0  0
   -0.3425   22.1224  -27.4949 H   0  0  0  0  0  0  0  0  0  0  0  0
   -4.7804   23.2367  -31.2833 H   0  0  0  0  0  0  0  0  0  0  0  0
   -6.9061   25.1969  -32.1194 H   0  0  0  0  0  0  0  0  0  0  0  0
   -5.8702   24.0668  -33.1056 H   0  0  0  0  0  0  0  0  0  0  0  0
   -8.5215   23.5604  -31.7483 H   0  0  0  0  0  0  0  0  0  0  0  0
   -7.9418   23.1382  -33.4210 H   0  0  0  0  0  0  0  0  0  0  0  0
   -6.4414   21.5783  -33.8050 H   0  0  0  0  0  0  0  0  0  0  0  0
   -5.3571   21.2850  -32.3868 H   0  0  0  0  0  0  0  0  0  0  0  0
   -8.4369   19.7729  -31.6437 H   0  0  0  0  0  0  0  0  0  0  0  0
   -8.8809   17.3197  -31.7464 H   0  0  0  0  0  0  0  0  0  0  0  0
   -7.3558   15.8264  -33.0416 H   0  0  0  0  0  0  0  0  0  0  0  0
   -5.3762   16.7810  -34.2213 H   0  0  0  0  0  0  0  0  0  0  0  0
   -7.8042   21.4658  -29.8803 H   0  0  0  0  0  0  0  0  0  0  0  0
   -6.0959   21.0611  -30.4071 H   0  0  0  0  0  0  0  0  0  0  0  0
   -7.2698   23.7287  -29.5931 H   0  0  0  0  0  0  0  0  0  0  0  0
   -5.7510   22.9094  -29.0584 H   0  0  0  0  0  0  0  0  0  0  0  0
  1  2  2  0
  2  3  1  0
  3  4  1  0
  4  5  2  0
  5  6  1  0
  6  7  1  0
  7  8  1  0
  7  9  1  0
  7 10  1  0
  6 11  2  0
 11 12  1  0
 12 13  1  0
 13 14  2  0
  2 15  1  0
 15 16  1  0
 16 17  1  0
 17 18  1  0
 18 19  1  0
 19 20  1  0
 20 21  2  0
 21 22  1  0
 22 23  2  0
 23 24  1  0
 24 25  2  0
 25 26  1  0
 18 27  1  0
 27 28  1  0
 13  4  1  0
 28 15  1  0
 25 20  1  0
  5 29  1  0
 11 30  1  0
 15 31  1  0
 16 32  1  0
 16 33  1  0
 17 34  1  0
 17 35  1  0
 19 36  1  0
 19 37  1  0
 21 38  1  0
 22 39  1  0
 23 40  1  0
 24 41  1  0
 27 42  1  0
 27 43  1  0
 28 44  1  0
 28 45  1  0
M  CHG  2   3  -1  12  -1
M  END
>  <UniqueID>  (47) 
42

>  <SMILES>  (47) 
O=C([N-]c1cc(C(F)(F)F)c[n-]c1=O)C1CCN(Cc2ccccc2F)CC1

>  <Energy>  (47) 
63.269590173170776

>  <Genealogy>  (47) 
O=C([N-]c1cc(C(F)(F)F)c[n-]c1=O)C1CCN(Cc2ccccc2F)CC1 (protonated)
O=C([N-]c1cc(C(F)(F)F)c[n-]c1=O)C1CCN(Cc2ccccc2F)CC1 (3D coordinates assigned)
O=C([N-]c1cc(C(F)(F)F)c[n-]c1=O)C1CCN(Cc2ccccc2F)CC1 (nonaromatic ring conformer: 63.269590173170776 kcal/mol)

>  <smiles>  (47) 
O=C(Nc1cc(C(F)(F)F)c[nH]c1=O)C1CCN(Cc2ccccc2F)CC1

>  <score_type>  (47) 
oracle

>  <origin>  (47) 
adg

>  <m_score__min__energy>  (47) 
-11.17

>  <m_primary>  (47) 
energy

$$$$
48:0
     RDKit          3D

 30 31  0  0  0  0  0  0  0  0999 V2000
   -9.5360   21.3370  -31.9600 C   0  0  0  0  0  0  0  0  0  0  0  0
   -8.4260   20.3950  -32.1410 N   0  0  0  0  0  0  0  0  0  0  0  0
   -8.7260   18.9680  -32.3130 C   0  0  0  0  0  0  0  0  0  0  0  0
   -7.0550   20.8680  -32.1460 C   0  0  0  0  0  0  0  0  0  0  0  0
   -6.1460   20.4220  -33.1230 C   0  0  0  0  0  0  0  0  0  0  0  0
   -4.8320   20.8830  -33.1090 C   0  0  0  0  0  0  0  0  0  0  0  0
   -4.4190   21.7810  -32.1310 C   0  0  0  0  0  0  0  0  0  0  0  0
   -5.3360   22.2180  -31.1610 C   0  0  0  0  0  0  0  0  0  0  0  0
   -4.9100   23.2050  -30.0880 C   0  0  1  0  0  0  0  0  0  0  0  0
   -3.5640   23.8900  -30.4350 C   0  0  0  0  0  0  0  0  0  0  0  0
   -3.8640   25.2860  -30.6920 N   0  0  0  0  0  0  0  0  0  0  0  0
   -5.2150   25.5310  -30.3640 C   0  0  0  0  0  0  0  0  0  0  0  0
   -5.7350   26.6730  -30.4590 O   0  0  0  0  0  0  0  0  0  0  0  0
   -5.9440   24.3340  -29.9020 C   0  0  0  0  0  0  0  0  0  0  0  0
   -6.6220   21.7550  -31.1940 N   0  0  0  0  0  0  0  0  0  0  0  0
   -9.7159   21.4896  -30.8856 H   0  0  0  0  0  0  0  0  0  0  0  0
   -9.2811   22.2986  -32.4293 H   0  0  0  0  0  0  0  0  0  0  0  0
  -10.4434   20.9290  -32.4293 H   0  0  0  0  0  0  0  0  0  0  0  0
   -8.8259   18.4928  -31.3260 H   0  0  0  0  0  0  0  0  0  0  0  0
   -9.6674   18.8559  -32.8709 H   0  0  0  0  0  0  0  0  0  0  0  0
   -7.9095   18.4863  -32.8709 H   0  0  0  0  0  0  0  0  0  0  0  0
   -6.4725   19.7108  -33.8961 H   0  0  0  0  0  0  0  0  0  0  0  0
   -4.1200   20.5364  -33.8725 H   0  0  0  0  0  0  0  0  0  0  0  0
   -3.3816   22.1465  -32.1171 H   0  0  0  0  0  0  0  0  0  0  0  0
   -4.8164   22.6093  -29.1680 H   0  0  0  0  0  0  0  0  0  0  0  0
   -2.8642   23.8012  -29.5910 H   0  0  0  0  0  0  0  0  0  0  0  0
   -3.0923   23.4179  -31.3094 H   0  0  0  0  0  0  0  0  0  0  0  0
   -6.2365   24.4322  -28.8462 H   0  0  0  0  0  0  0  0  0  0  0  0
   -6.8811   24.1584  -30.4507 H   0  0  0  0  0  0  0  0  0  0  0  0
   -7.2910   22.1060  -30.4760 H   0  0  0  0  0  0  0  0  0  0  0  0
  1  2  1  0
  2  3  1  0
  2  4  1  0
  4  5  2  0
  5  6  1  0
  6  7  2  0
  7  8  1  0
  8  9  1  0
  9 10  1  0
 10 11  1  0
 11 12  1  0
 12 13  2  0
 12 14  1  0
  8 15  2  0
 15  4  1  0
 14  9  1  0
  1 16  1  0
  1 17  1  0
  1 18  1  0
  3 19  1  0
  3 20  1  0
  3 21  1  0
  5 22  1  0
  6 23  1  0
  7 24  1  0
  9 25  1  1
 10 26  1  0
 10 27  1  0
 14 28  1  0
 14 29  1  0
 15 30  1  0
M  CHG  2  11  -1  15   1
M  END
>  <UniqueID>  (48) 
43

>  <SMILES>  (48) 
CN(C)c1cccc([C@H]2C[N-]C(=O)C2)[nH+]1

>  <Energy>  (48) 
39.61276872205617

>  <Genealogy>  (48) 
CN(C)c1cccc(C2C[N-]C(=O)C2)[nH+]1 (protonated)
CN(C)c1cccc([C@H]2C[N-]C(=O)C2)[nH+]1 (chirality)
CN(C)c1cccc([C@H]2C[N-]C(=O)C2)[nH+]1 (3D coordinates assigned)
CN(C)c1cccc([C@H]2C[N-]C(=O)C2)[nH+]1 (nonaromatic ring conformer: 39.61276872205617 kcal/mol)

>  <smiles>  (48) 
CN(C)c1cccc(C2CNC(=O)C2)n1

>  <score_type>  (48) 
oracle

>  <origin>  (48) 
adg

>  <m_score__min__energy>  (48) 
-7.3799999999999999

>  <m_primary>  (48) 
energy

$$$$
