0:0
     RDKit          3D

 80 84  0  0  0  0  0  0  0  0999 V2000
   -3.0040   21.0250  -28.2400 C   0  0  0  0  0  0  0  0  0  0  0  0
   -3.1200   21.1130  -29.7600 C   0  0  0  0  0  0  0  0  0  0  0  0
   -2.4280   22.3130  -30.2860 N   0  0  0  0  0  0  0  0  0  0  0  0
   -1.0290   21.9900  -30.6520 C   0  0  0  0  0  0  0  0  0  0  0  0
   -0.8060   20.4760  -30.7050 C   0  0  0  0  0  0  0  0  0  0  0  0
   -2.4980   23.4570  -29.3350 C   0  0  0  0  0  0  0  0  0  0  0  0
   -3.4240   24.5570  -29.8760 C   0  0  0  0  0  0  0  0  0  0  0  0
   -4.2880   24.0300  -30.8660 O   0  0  0  0  0  0  0  0  0  0  0  0
   -5.6410   24.1160  -30.4630 C   0  0  0  0  0  0  0  0  0  0  0  0
   -6.5140   23.2170  -31.3550 C   0  0  0  0  0  0  0  0  0  0  0  0
   -5.8330   22.7930  -32.5920 N   0  0  0  0  0  0  0  0  0  0  0  0
   -5.5950   21.3660  -32.6450 C   0  0  0  0  0  0  0  0  0  0  0  0
   -6.6480   20.4090  -32.5540 C   0  0  0  0  0  0  0  0  0  0  0  0
   -6.3360   19.0140  -32.5520 C   0  0  0  0  0  0  0  0  0  0  0  0
   -5.0360   18.5840  -32.7640 N   0  0  0  0  0  0  0  0  0  0  0  0
   -4.6690   17.1580  -32.6900 C   0  0  0  0  0  0  0  0  0  0  0  0
   -4.0810   19.5240  -33.0610 C   0  0  0  0  0  0  0  0  0  0  0  0
   -4.3080   20.8750  -32.9030 C   0  0  0  0  0  0  0  0  0  0  0  0
   -3.0540   21.6480  -33.2070 C   0  0  0  0  0  0  0  0  0  0  0  0
   -2.1300   20.6020  -33.6450 N   0  0  0  0  0  0  0  0  0  0  0  0
   -2.7200   19.3840  -33.5980 C   0  0  0  0  0  0  0  0  0  0  0  0
   -2.1180   18.2860  -34.2260 C   0  0  0  0  0  0  0  0  0  0  0  0
   -0.8240   18.4240  -34.7760 C   0  0  0  0  0  0  0  0  0  0  0  0
   -0.2180   19.7140  -34.7620 C   0  0  0  0  0  0  0  0  0  0  0  0
   -0.9020   20.8030  -34.1900 C   0  0  0  0  0  0  0  0  0  0  0  0
   -0.3950   21.9600  -34.1980 O   0  0  0  0  0  0  0  0  0  0  0  0
    1.1260   19.8960  -35.4280 C   0  0  0  0  0  0  0  0  0  0  0  0
    1.2110   19.0810  -36.5920 O   0  0  0  0  0  0  0  0  0  0  0  0
    0.6930   17.7820  -36.6080 C   0  0  0  0  0  0  0  0  0  0  0  0
    0.8600   17.0750  -37.6400 O   0  0  0  0  0  0  0  0  0  0  0  0
   -0.0260   17.2440  -35.3710 C   0  0  1  0  0  0  0  0  0  0  0  0
    0.9480   16.8720  -34.4260 O   0  0  0  0  0  0  0  0  0  0  0  0
   -0.9050   15.9990  -35.7360 C   0  0  0  0  0  0  0  0  0  0  0  0
   -1.2240   15.0770  -34.5450 C   0  0  0  0  0  0  0  0  0  0  0  0
   -7.5060   18.0460  -32.4520 C   0  0  0  0  0  0  0  0  0  0  0  0
   -8.5440   18.5750  -31.4630 C   0  0  0  0  0  0  0  0  0  0  0  0
   -9.0790   19.9610  -31.8600 C   0  0  0  0  0  0  0  0  0  0  0  0
   -8.1060   20.8050  -32.7080 C   0  0  0  0  0  0  0  0  0  0  0  0
   -3.7986   21.6278  -27.7761 H   0  0  0  0  0  0  0  0  0  0  0  0
   -3.1077   19.9764  -27.9244 H   0  0  0  0  0  0  0  0  0  0  0  0
   -2.0221   21.4074  -27.9244 H   0  0  0  0  0  0  0  0  0  0  0  0
   -2.6681   20.2148  -30.2061 H   0  0  0  0  0  0  0  0  0  0  0  0
   -4.1858   21.1849  -30.0225 H   0  0  0  0  0  0  0  0  0  0  0  0
   -0.8082   22.4200  -31.6401 H   0  0  0  0  0  0  0  0  0  0  0  0
   -0.3620   22.4138  -29.8868 H   0  0  0  0  0  0  0  0  0  0  0  0
   -0.7474   20.0780  -29.6812 H   0  0  0  0  0  0  0  0  0  0  0  0
   -1.6438   20.0003  -31.2359 H   0  0  0  0  0  0  0  0  0  0  0  0
    0.1333   20.2621  -31.2359 H   0  0  0  0  0  0  0  0  0  0  0  0
   -2.8863   23.1007  -28.3695 H   0  0  0  0  0  0  0  0  0  0  0  0
   -1.4882   23.8749  -29.2095 H   0  0  0  0  0  0  0  0  0  0  0  0
   -4.0250   24.9642  -29.0495 H   0  0  0  0  0  0  0  0  0  0  0  0
   -2.8104   25.3526  -30.3238 H   0  0  0  0  0  0  0  0  0  0  0  0
   -5.7309   23.7884  -29.4168 H   0  0  0  0  0  0  0  0  0  0  0  0
   -5.9805   25.1579  -30.5583 H   0  0  0  0  0  0  0  0  0  0  0  0
   -6.7911   22.3194  -30.7827 H   0  0  0  0  0  0  0  0  0  0  0  0
   -7.3951   23.8053  -31.6509 H   0  0  0  0  0  0  0  0  0  0  0  0
   -6.4060   23.0790  -33.4220 H   0  0  0  0  0  0  0  0  0  0  0  0
   -4.9430   23.3370  -32.6700 H   0  0  0  0  0  0  0  0  0  0  0  0
   -4.5907   16.8538  -31.6358 H   0  0  0  0  0  0  0  0  0  0  0  0
   -5.4410   16.5543  -33.1895 H   0  0  0  0  0  0  0  0  0  0  0  0
   -3.7014   17.0020  -33.1895 H   0  0  0  0  0  0  0  0  0  0  0  0
   -3.2260   22.3851  -34.0052 H   0  0  0  0  0  0  0  0  0  0  0  0
   -2.6812   22.2294  -32.3509 H   0  0  0  0  0  0  0  0  0  0  0  0
   -2.6483   17.3244  -34.2904 H   0  0  0  0  0  0  0  0  0  0  0  0
    1.2506   20.9511  -35.7130 H   0  0  0  0  0  0  0  0  0  0  0  0
    1.9186   19.6015  -34.7244 H   0  0  0  0  0  0  0  0  0  0  0  0
    1.8180   17.2600  -34.7170 H   0  0  0  0  0  0  0  0  0  0  0  0
   -1.8553   16.3597  -36.1565 H   0  0  0  0  0  0  0  0  0  0  0  0
   -0.3211   15.3999  -36.4503 H   0  0  0  0  0  0  0  0  0  0  0  0
   -1.0377   15.6156  -33.6042 H   0  0  0  0  0  0  0  0  0  0  0  0
   -2.2799   14.7720  -34.5899 H   0  0  0  0  0  0  0  0  0  0  0  0
   -0.5824   14.1847  -34.5899 H   0  0  0  0  0  0  0  0  0  0  0  0
   -7.9713   17.9345  -33.4425 H   0  0  0  0  0  0  0  0  0  0  0  0
   -7.1372   17.0716  -32.0991 H   0  0  0  0  0  0  0  0  0  0  0  0
   -9.3866   17.8690  -31.4239 H   0  0  0  0  0  0  0  0  0  0  0  0
   -8.0542   18.6727  -30.4829 H   0  0  0  0  0  0  0  0  0  0  0  0
  -10.0040   19.8192  -32.4382 H   0  0  0  0  0  0  0  0  0  0  0  0
   -9.2372   20.5147  -30.9228 H   0  0  0  0  0  0  0  0  0  0  0  0
   -8.3844   20.6943  -33.7664 H   0  0  0  0  0  0  0  0  0  0  0  0
   -8.1928   21.8425  -32.3530 H   0  0  0  0  0  0  0  0  0  0  0  0
  1  2  1  0
  2  3  1  0
  3  4  1  0
  4  5  1  0
  3  6  1  0
  6  7  1  0
  7  8  1  0
  8  9  1  0
  9 10  1  0
 10 11  1  0
 11 12  1  0
 12 13  2  0
 13 14  1  0
 14 15  2  0
 15 16  1  0
 15 17  1  0
 17 18  2  0
 18 19  1  0
 19 20  1  0
 20 21  1  0
 21 22  2  0
 22 23  1  0
 23 24  2  0
 24 25  1  0
 25 26  2  0
 24 27  1  0
 27 28  1  0
 28 29  1  0
 29 30  2  0
 29 31  1  0
 31 32  1  1
 31 33  1  0
 33 34  1  0
 14 35  1  0
 35 36  1  0
 36 37  1  0
 37 38  1  0
 18 12  1  0
 25 20  1  0
 38 13  1  0
 21 17  1  0
 31 23  1  0
  1 39  1  0
  1 40  1  0
  1 41  1  0
  2 42  1  0
  2 43  1  0
  4 44  1  0
  4 45  1  0
  5 46  1  0
  5 47  1  0
  5 48  1  0
  6 49  1  0
  6 50  1  0
  7 51  1  0
  7 52  1  0
  9 53  1  0
  9 54  1  0
 10 55  1  0
 10 56  1  0
 11 57  1  0
 11 58  1  0
 16 59  1  0
 16 60  1  0
 16 61  1  0
 19 62  1  0
 19 63  1  0
 22 64  1  0
 27 65  1  0
 27 66  1  0
 32 67  1  0
 33 68  1  0
 33 69  1  0
 34 70  1  0
 34 71  1  0
 34 72  1  0
 35 73  1  0
 35 74  1  0
 36 75  1  0
 36 76  1  0
 37 77  1  0
 37 78  1  0
 38 79  1  0
 38 80  1  0
M  CHG  2  11   1  15   1
M  END
>  <UniqueID>  (1) 
1

>  <SMILES>  (1) 
CCN(CC)CCOCC[NH2+]c1c2c([n+](C)c3c1Cn1c-3cc3c(c1=O)COC(=O)[C@]3(O)CC)CCCC2

>  <Energy>  (1) 
145.06784346433886

>  <Genealogy>  (1) 
CCN(CC)CCOCC[NH2+]c1c2c([n+](C)c3c1Cn1c-3cc3c(c1=O)COC(=O)C3(O)CC)CCCC2 (protonated)
CCN(CC)CCOCC[NH2+]c1c2c([n+](C)c3c1Cn1c-3cc3c(c1=O)COC(=O)[C@]3(O)CC)CCCC2 (chirality)
CCN(CC)CCOCC[NH2+]c1c2c([n+](C)c3c1Cn1c-3cc3c(c1=O)COC(=O)[C@]3(O)CC)CCCC2 (3D coordinates assigned)
CCN(CC)CCOCC[NH2+]c1c2c([n+](C)c3c1Cn1c-3cc3c(c1=O)COC(=O)[C@]3(O)CC)CCCC2 (nonaromatic ring conformer: 145.06784346433886 kcal/mol)

>  <smiles>  (1) 
CCN(CC)CCOCCNc1c2c([n+](C)c3c1Cn1c-3cc3c(c1=O)COC(=O)C3(O)CC)CCCC2

>  <score_type>  (1) 
oracle

>  <origin>  (1) 
adg

>  <m_score__min__energy>  (1) 
-8.2400000000000002

>  <m_primary>  (1) 
energy

$$$$
1:0
     RDKit          3D

 47 50  0  0  0  0  0  0  0  0999 V2000
   -3.1750   17.4010  -34.6620 C   0  0  0  0  0  0  0  0  0  0  0  0
   -4.5430   16.9320  -34.2360 C   0  0  0  0  0  0  0  0  0  0  0  0
   -4.9470   15.6270  -34.5490 C   0  0  0  0  0  0  0  0  0  0  0  0
   -6.2130   15.1890  -34.1540 C   0  0  0  0  0  0  0  0  0  0  0  0
   -6.5870   14.0200  -34.4320 O   0  0  0  0  0  0  0  0  0  0  0  0
   -7.0270   15.9970  -33.4870 O   0  0  0  0  0  0  0  0  0  0  0  0
   -6.6960   17.2430  -33.1620 C   0  0  0  0  0  0  0  0  0  0  0  0
   -7.6050   18.0290  -32.4530 C   0  0  0  0  0  0  0  0  0  0  0  0
   -7.2860   19.3440  -32.0760 C   0  0  0  0  0  0  0  0  0  0  0  0
   -6.0400   19.8860  -32.4650 C   0  0  0  0  0  0  0  0  0  0  0  0
   -5.1200   19.0910  -33.1700 C   0  0  0  0  0  0  0  0  0  0  0  0
   -5.4350   17.7680  -33.5260 C   0  0  0  0  0  0  0  0  0  0  0  0
   -5.6470   21.2760  -32.0490 C   0  0  0  0  0  0  0  0  0  0  0  0
   -6.5710   22.3250  -32.6910 C   0  0  0  0  0  0  0  0  0  0  0  0
   -7.8170   22.5890  -31.9310 N   0  0  0  0  0  0  0  0  0  0  0  0
   -7.6230   23.2460  -30.6220 C   0  0  0  0  0  0  0  0  0  0  0  0
   -6.5640   24.3410  -30.7420 C   0  0  0  0  0  0  0  0  0  0  0  0
   -5.3130   23.9040  -30.1290 N   0  0  0  0  0  0  0  0  0  0  0  0
   -5.1600   22.7630  -29.2390 C   0  0  0  0  0  0  0  0  0  0  0  0
   -3.6680   22.7610  -28.8250 C   0  0  0  0  0  0  0  0  0  0  0  0
   -3.0580   23.9290  -29.4540 N   0  0  0  0  0  0  0  0  0  0  0  0
   -4.0670   24.5620  -30.2070 C   0  0  0  0  0  0  0  0  0  0  0  0
   -3.8730   25.6160  -30.8700 O   0  0  0  0  0  0  0  0  0  0  0  0
   -8.8000   21.4850  -31.9370 C   0  0  0  0  0  0  0  0  0  0  0  0
   -8.3190   20.1500  -31.3060 C   0  0  0  0  0  0  0  0  0  0  0  0
   -2.5651   17.6101  -33.7708 H   0  0  0  0  0  0  0  0  0  0  0  0
   -2.6896   16.6179  -35.2630 H   0  0  0  0  0  0  0  0  0  0  0  0
   -3.2722   18.3171  -35.2630 H   0  0  0  0  0  0  0  0  0  0  0  0
   -4.2736   14.9543  -35.1004 H   0  0  0  0  0  0  0  0  0  0  0  0
   -8.5871   17.6123  -32.1850 H   0  0  0  0  0  0  0  0  0  0  0  0
   -4.1410   19.5093  -33.4467 H   0  0  0  0  0  0  0  0  0  0  0  0
   -5.7166   21.3571  -30.9542 H   0  0  0  0  0  0  0  0  0  0  0  0
   -4.6164   21.4642  -32.3844 H   0  0  0  0  0  0  0  0  0  0  0  0
   -6.0131   23.2692  -32.7762 H   0  0  0  0  0  0  0  0  0  0  0  0
   -6.8775   21.9194  -33.6665 H   0  0  0  0  0  0  0  0  0  0  0  0
   -8.5733   23.6920  -30.2933 H   0  0  0  0  0  0  0  0  0  0  0  0
   -7.2895   22.4984  -29.8873 H   0  0  0  0  0  0  0  0  0  0  0  0
   -6.3894   24.5623  -31.8053 H   0  0  0  0  0  0  0  0  0  0  0  0
   -6.9211   25.2431  -30.2236 H   0  0  0  0  0  0  0  0  0  0  0  0
   -5.8045   22.8756  -28.3547 H   0  0  0  0  0  0  0  0  0  0  0  0
   -5.4499   21.8213  -29.7280 H   0  0  0  0  0  0  0  0  0  0  0  0
   -3.5778   22.8289  -27.7308 H   0  0  0  0  0  0  0  0  0  0  0  0
   -3.1695   21.8336  -29.1437 H   0  0  0  0  0  0  0  0  0  0  0  0
   -9.6881   21.8205  -31.3814 H   0  0  0  0  0  0  0  0  0  0  0  0
   -8.9937   21.2625  -32.9967 H   0  0  0  0  0  0  0  0  0  0  0  0
   -7.8865   20.3869  -30.3227 H   0  0  0  0  0  0  0  0  0  0  0  0
   -9.2142   19.5112  -31.2836 H   0  0  0  0  0  0  0  0  0  0  0  0
  1  2  1  0
  2  3  2  0
  3  4  1  0
  4  5  2  0
  4  6  1  0
  6  7  1  0
  7  8  2  0
  8  9  1  0
  9 10  2  0
 10 11  1  0
 11 12  2  0
 10 13  1  0
 13 14  1  0
 14 15  1  0
 15 16  1  0
 16 17  1  0
 17 18  1  0
 18 19  1  0
 19 20  1  0
 20 21  1  0
 21 22  1  0
 22 23  2  0
 15 24  1  0
 24 25  1  0
 12  2  1  0
 22 18  1  0
 12  7  1  0
 25  9  1  0
  1 26  1  0
  1 27  1  0
  1 28  1  0
  3 29  1  0
  8 30  1  0
 11 31  1  0
 13 32  1  0
 13 33  1  0
 14 34  1  0
 14 35  1  0
 16 36  1  0
 16 37  1  0
 17 38  1  0
 17 39  1  0
 19 40  1  0
 19 41  1  0
 20 42  1  0
 20 43  1  0
 24 44  1  0
 24 45  1  0
 25 46  1  0
 25 47  1  0
M  CHG  1  21  -1
M  END
>  <UniqueID>  (2) 
2

>  <SMILES>  (2) 
Cc1cc(=O)oc2cc3c(cc12)CCN(CCN1CC[N-]C1=O)CC3

>  <Energy>  (2) 
81.00067481786012

>  <Genealogy>  (2) 
Cc1cc(=O)oc2cc3c(cc12)CCN(CCN1CC[N-]C1=O)CC3 (protonated)
Cc1cc(=O)oc2cc3c(cc12)CCN(CCN1CC[N-]C1=O)CC3 (3D coordinates assigned)
Cc1cc(=O)oc2cc3c(cc12)CCN(CCN1CC[N-]C1=O)CC3 (nonaromatic ring conformer: 81.00067481786012 kcal/mol)

>  <smiles>  (2) 
Cc1cc(=O)oc2cc3c(cc12)CCN(CCN1CCNC1=O)CC3

>  <score_type>  (2) 
oracle

>  <origin>  (2) 
adg

>  <m_score__min__energy>  (2) 
-9.1199999999999992

>  <m_primary>  (2) 
energy

$$$$
2:0
     RDKit          3D

 62 62  0  0  0  0  0  0  0  0999 V2000
   -2.4600   24.2370  -29.3470 C   0  0  0  0  0  0  0  0  0  0  0  0
   -3.9930   24.1800  -29.4470 C   0  0  0  0  0  0  0  0  0  0  0  0
   -4.5080   24.0420  -30.8330 N   0  0  0  0  0  0  0  0  0  0  0  0
   -5.6670   24.9240  -31.1280 C   0  0  0  0  0  0  0  0  0  0  0  0
   -6.4300   25.2900  -29.8510 C   0  0  0  0  0  0  0  0  0  0  0  0
   -4.7860   22.6290  -31.1880 C   0  0  0  0  0  0  0  0  0  0  0  0
   -4.4890   22.3680  -32.6680 C   0  0  0  0  0  0  0  0  0  0  0  0
   -3.1550   21.9180  -32.8100 O   0  0  0  0  0  0  0  0  0  0  0  0
   -2.6020   21.5250  -31.5640 C   0  0  0  0  0  0  0  0  0  0  0  0
   -1.2870   20.7540  -31.7630 C   0  0  0  0  0  0  0  0  0  0  0  0
   -0.5880   21.1730  -33.0730 C   0  0  0  0  0  0  0  0  0  0  0  0
   -1.2110   20.5950  -34.2920 N   0  0  1  0  0  0  0  0  0  0  0  0
   -0.2830   20.7040  -35.4370 C   0  0  0  0  0  0  0  0  0  0  0  0
   -1.7180   19.2090  -34.1410 C   0  0  0  0  0  0  0  0  0  0  0  0
   -3.2510   19.0900  -33.9430 C   0  0  0  0  0  0  0  0  0  0  0  0
   -3.8050   18.2340  -34.9220 O   0  0  0  0  0  0  0  0  0  0  0  0
   -3.8260   16.8990  -34.4480 C   0  0  0  0  0  0  0  0  0  0  0  0
   -4.6810   16.8130  -33.1900 C   0  0  0  0  0  0  0  0  0  0  0  0
   -6.0430   17.0610  -33.5130 O   0  0  0  0  0  0  0  0  0  0  0  0
   -6.7620   18.1930  -33.0990 C   0  0  0  0  0  0  0  0  0  0  0  0
   -7.8220   18.0210  -32.2060 C   0  0  0  0  0  0  0  0  0  0  0  0
   -8.5610   19.1240  -31.7640 C   0  0  0  0  0  0  0  0  0  0  0  0
   -8.2310   20.4110  -32.2010 C   0  0  0  0  0  0  0  0  0  0  0  0
   -9.2220   21.9170  -31.5710 Br  0  0  0  0  0  0  0  0  0  0  0  0
   -7.1640   20.5940  -33.0820 C   0  0  0  0  0  0  0  0  0  0  0  0
   -6.4340   19.4940  -33.5390 C   0  0  0  0  0  0  0  0  0  0  0  0
   -2.1618   24.2481  -28.2883 H   0  0  0  0  0  0  0  0  0  0  0  0
   -2.0273   23.3543  -29.8406 H   0  0  0  0  0  0  0  0  0  0  0  0
   -2.0940   25.1494  -29.8406 H   0  0  0  0  0  0  0  0  0  0  0  0
   -4.3451   23.3184  -28.8608 H   0  0  0  0  0  0  0  0  0  0  0  0
   -4.3706   25.1394  -29.0636 H   0  0  0  0  0  0  0  0  0  0  0  0
   -5.3028   25.8463  -31.6041 H   0  0  0  0  0  0  0  0  0  0  0  0
   -6.3520   24.3833  -31.7977 H   0  0  0  0  0  0  0  0  0  0  0  0
   -5.8332   25.0037  -28.9725 H   0  0  0  0  0  0  0  0  0  0  0  0
   -6.6139   26.3743  -29.8318 H   0  0  0  0  0  0  0  0  0  0  0  0
   -7.3908   24.7548  -29.8318 H   0  0  0  0  0  0  0  0  0  0  0  0
   -4.1538   21.9721  -30.5726 H   0  0  0  0  0  0  0  0  0  0  0  0
   -5.8504   22.4230  -31.0017 H   0  0  0  0  0  0  0  0  0  0  0  0
   -5.1775   21.5999  -33.0501 H   0  0  0  0  0  0  0  0  0  0  0  0
   -4.6243   23.2988  -33.2384 H   0  0  0  0  0  0  0  0  0  0  0  0
   -2.4048   22.4223  -30.9590 H   0  0  0  0  0  0  0  0  0  0  0  0
   -3.3205   20.8664  -31.0541 H   0  0  0  0  0  0  0  0  0  0  0  0
   -0.6169   20.9627  -30.9160 H   0  0  0  0  0  0  0  0  0  0  0  0
   -1.5178   19.6799  -31.8192 H   0  0  0  0  0  0  0  0  0  0  0  0
   -0.6241   22.2696  -33.1508 H   0  0  0  0  0  0  0  0  0  0  0  0
    0.4421   20.7901  -33.0252 H   0  0  0  0  0  0  0  0  0  0  0  0
   -2.0410   21.1970  -34.5240 H   0  0  0  0  0  0  0  0  0  0  0  0
    0.7453   20.8248  -35.0654 H   0  0  0  0  0  0  0  0  0  0  0  0
   -0.3470   19.7922  -36.0489 H   0  0  0  0  0  0  0  0  0  0  0  0
   -0.5565   21.5762  -36.0489 H   0  0  0  0  0  0  0  0  0  0  0  0
   -1.4461   18.6457  -35.0459 H   0  0  0  0  0  0  0  0  0  0  0  0
   -1.2579   18.8115  -33.2243 H   0  0  0  0  0  0  0  0  0  0  0  0
   -3.4575   18.6802  -32.9433 H   0  0  0  0  0  0  0  0  0  0  0  0
   -3.7039   20.0876  -34.0410 H   0  0  0  0  0  0  0  0  0  0  0  0
   -4.2489   16.2427  -35.2229 H   0  0  0  0  0  0  0  0  0  0  0  0
   -2.7998   16.5802  -34.2129 H   0  0  0  0  0  0  0  0  0  0  0  0
   -4.5869   15.8079  -32.7530 H   0  0  0  0  0  0  0  0  0  0  0  0
   -4.3373   17.5667  -32.4662 H   0  0  0  0  0  0  0  0  0  0  0  0
   -8.0774   17.0127  -31.8481 H   0  0  0  0  0  0  0  0  0  0  0  0
   -9.4032   18.9786  -31.0715 H   0  0  0  0  0  0  0  0  0  0  0  0
   -6.8972   21.6071  -33.4174 H   0  0  0  0  0  0  0  0  0  0  0  0
   -5.6019   19.6417  -34.2431 H   0  0  0  0  0  0  0  0  0  0  0  0
  1  2  1  0
  2  3  1  0
  3  4  1  0
  4  5  1  0
  3  6  1  0
  6  7  1  0
  7  8  1  0
  8  9  1  0
  9 10  1  0
 10 11  1  0
 11 12  1  0
 12 13  1  0
 12 14  1  0
 14 15  1  0
 15 16  1  0
 16 17  1  0
 17 18  1  0
 18 19  1  0
 19 20  1  0
 20 21  2  0
 21 22  1  0
 22 23  2  0
 23 24  1  0
 23 25  1  0
 25 26  2  0
 26 20  1  0
  1 27  1  0
  1 28  1  0
  1 29  1  0
  2 30  1  0
  2 31  1  0
  4 32  1  0
  4 33  1  0
  5 34  1  0
  5 35  1  0
  5 36  1  0
  6 37  1  0
  6 38  1  0
  7 39  1  0
  7 40  1  0
  9 41  1  0
  9 42  1  0
 10 43  1  0
 10 44  1  0
 11 45  1  0
 11 46  1  0
 12 47  1  6
 13 48  1  0
 13 49  1  0
 13 50  1  0
 14 51  1  0
 14 52  1  0
 15 53  1  0
 15 54  1  0
 17 55  1  0
 17 56  1  0
 18 57  1  0
 18 58  1  0
 21 59  1  0
 22 60  1  0
 25 61  1  0
 26 62  1  0
M  CHG  1  12   1
M  END
>  <UniqueID>  (3) 
3

>  <SMILES>  (3) 
CCN(CC)CCOCCC[N@@H+](C)CCOCCOc1ccc(Br)cc1

>  <Energy>  (3) 
62.3083141170866

>  <Genealogy>  (3) 
CCN(CC)CCOCCC[NH+](C)CCOCCOc1ccc(Br)cc1 (protonated)
CCN(CC)CCOCCC[N@@H+](C)CCOCCOc1ccc(Br)cc1 (chirality)
CCN(CC)CCOCCC[N@@H+](C)CCOCCOc1ccc(Br)cc1 (3D coordinates assigned)
CCN(CC)CCOCCC[N@@H+](C)CCOCCOc1ccc(Br)cc1 (optimized conformer: 62.3083141170866 kcal/mol)

>  <smiles>  (3) 
CCN(CC)CCOCCCN(C)CCOCCOc1ccc(Br)cc1

>  <score_type>  (3) 
oracle

>  <origin>  (3) 
adg

>  <m_score__min__energy>  (3) 
-6.3600000000000003

>  <m_primary>  (3) 
energy

$$$$
3:0
     RDKit          3D

 26 28  0  0  0  0  0  0  0  0999 V2000
   -3.8670   25.3010  -30.5800 N   0  0  0  0  0  0  0  0  0  0  0  0
   -5.2670   25.1740  -30.3390 C   0  0  0  0  0  0  0  0  0  0  0  0
   -5.8770   26.0770  -29.7090 O   0  0  0  0  0  0  0  0  0  0  0  0
   -5.9960   23.9930  -30.8220 C   0  0  0  0  0  0  0  0  0  0  0  0
   -7.3340   23.9570  -31.2000 C   0  0  0  0  0  0  0  0  0  0  0  0
   -7.7560   22.6880  -31.6190 C   0  0  0  0  0  0  0  0  0  0  0  0
   -6.7510   21.7260  -31.5690 C   0  0  0  0  0  0  0  0  0  0  0  0
   -6.8810   20.3080  -31.9420 C   0  0  0  0  0  0  0  0  0  0  0  0
   -8.0570   19.5620  -31.9500 C   0  0  0  0  0  0  0  0  0  0  0  0
   -7.8700   18.2340  -32.3520 C   0  0  0  0  0  0  0  0  0  0  0  0
   -6.5470   17.9310  -32.6610 C   0  0  0  0  0  0  0  0  0  0  0  0
   -6.0410   16.6240  -33.1100 C   0  0  0  0  0  0  0  0  0  0  0  0
   -4.8520   16.0260  -32.7090 C   0  0  0  0  0  0  0  0  0  0  0  0
   -4.6340   14.7780  -33.3060 C   0  0  0  0  0  0  0  0  0  0  0  0
   -5.6430   14.3900  -34.1760 C   0  0  0  0  0  0  0  0  0  0  0  0
   -6.8100   15.5990  -34.2020 S   0  0  0  0  0  0  0  0  0  0  0  0
   -5.6140   19.3140  -32.4340 S   0  0  0  0  0  0  0  0  0  0  0  0
   -5.3410   22.4540  -31.0060 S   0  0  0  0  0  0  0  0  0  0  0  0
   -3.4980   26.0410  -31.2180 H   0  0  0  0  0  0  0  0  0  0  0  0
   -7.9945   24.8362  -31.1728 H   0  0  0  0  0  0  0  0  0  0  0  0
   -8.7813   22.4731  -31.9546 H   0  0  0  0  0  0  0  0  0  0  0  0
   -9.0366   19.9755  -31.6682 H   0  0  0  0  0  0  0  0  0  0  0  0
   -8.6883   17.5018  -32.4173 H   0  0  0  0  0  0  0  0  0  0  0  0
   -4.1531   16.4863  -31.9951 H   0  0  0  0  0  0  0  0  0  0  0  0
   -3.7451   14.1623  -33.1039 H   0  0  0  0  0  0  0  0  0  0  0  0
   -5.6737   13.4522  -34.7500 H   0  0  0  0  0  0  0  0  0  0  0  0
  1  2  1  0
  2  3  2  0
  2  4  1  0
  4  5  2  0
  5  6  1  0
  6  7  2  0
  7  8  1  0
  8  9  2  0
  9 10  1  0
 10 11  2  0
 11 12  1  0
 12 13  2  0
 13 14  1  0
 14 15  2  0
 15 16  1  0
 11 17  1  0
  7 18  1  0
 18  4  1  0
 17  8  1  0
 16 12  1  0
  1 19  1  0
  5 20  1  0
  6 21  1  0
  9 22  1  0
 10 23  1  0
 13 24  1  0
 14 25  1  0
 15 26  1  0
M  CHG  1   1  -1
M  END
>  <UniqueID>  (4) 
4

>  <SMILES>  (4) 
[NH-]C(=O)c1ccc(-c2ccc(-c3cccs3)s2)s1

>  <Energy>  (4) 
104.95197778416745

>  <Genealogy>  (4) 
[NH-]C(=O)c1ccc(-c2ccc(-c3cccs3)s2)s1 (protonated)
[NH-]C(=O)c1ccc(-c2ccc(-c3cccs3)s2)s1 (3D coordinates assigned)
[NH-]C(=O)c1ccc(-c2ccc(-c3cccs3)s2)s1 (optimized conformer: 104.95197778416745 kcal/mol)

>  <smiles>  (4) 
NC(=O)c1ccc(-c2ccc(-c3cccs3)s2)s1

>  <score_type>  (4) 
oracle

>  <origin>  (4) 
adg

>  <m_score__min__energy>  (4) 
-10.33

>  <m_primary>  (4) 
energy

$$$$
4:0
     RDKit          3D

 64 67  0  0  0  0  0  0  0  0999 V2000
   -9.8450   21.9180  -31.0870 C   0  0  0  0  0  0  0  0  0  0  0  0
   -9.0880   21.3630  -32.2900 C   0  0  0  0  0  0  0  0  0  0  0  0
   -7.8070   20.7690  -31.8520 N   0  0  0  0  0  0  0  0  0  0  0  0
   -7.0740   21.5660  -30.8280 C   0  0  0  0  0  0  0  0  0  0  0  0
   -5.8730   22.3630  -31.3830 C   0  0  2  0  0  0  0  0  0  0  0  0
   -6.3260   23.5530  -32.2520 C   0  0  0  0  0  0  0  0  0  0  0  0
   -5.7330   24.7720  -31.8020 O   0  0  0  0  0  0  0  0  0  0  0  0
   -5.1500   24.9320  -30.5430 C   0  0  0  0  0  0  0  0  0  0  0  0
   -5.8700   24.9810  -29.5110 O   0  0  0  0  0  0  0  0  0  0  0  0
   -3.7190   25.0320  -30.4630 N   0  0  0  0  0  0  0  0  0  0  0  0
   -2.7730   24.5540  -29.4440 C   0  0  0  0  0  0  0  0  0  0  0  0
   -2.9000   23.0930  -29.0470 C   0  0  0  0  0  0  0  0  0  0  0  0
   -3.3570   24.1930  -28.0900 C   0  0  0  0  0  0  0  0  0  0  0  0
   -5.0310   21.4240  -32.1730 C   0  0  0  0  0  0  0  0  0  0  0  0
   -5.5590   20.3880  -32.8900 C   0  0  0  0  0  0  0  0  0  0  0  0
   -4.5180   19.8830  -33.6540 C   0  0  0  0  0  0  0  0  0  0  0  0
   -4.6310   18.8730  -34.6020 O   0  0  0  0  0  0  0  0  0  0  0  0
   -3.3670   20.5410  -33.3860 N   0  0  0  0  0  0  0  0  0  0  0  0
   -2.0870   20.3630  -34.0770 C   0  0  0  0  0  0  0  0  0  0  0  0
   -1.0000   20.0470  -33.0840 C   0  0  0  0  0  0  0  0  0  0  0  0
   -1.3180   19.4140  -31.8700 C   0  0  0  0  0  0  0  0  0  0  0  0
   -0.3070   19.0830  -30.9600 C   0  0  0  0  0  0  0  0  0  0  0  0
    1.0260   19.3750  -31.2580 C   0  0  0  0  0  0  0  0  0  0  0  0
    1.3520   20.0000  -32.4650 C   0  0  0  0  0  0  0  0  0  0  0  0
    0.3450   20.3360  -33.3760 C   0  0  0  0  0  0  0  0  0  0  0  0
   -3.6880   21.4950  -32.4820 C   0  0  0  0  0  0  0  0  0  0  0  0
   -2.8000   22.4240  -31.9440 O   0  0  0  0  0  0  0  0  0  0  0  0
   -7.0340   20.0740  -32.9290 C   0  0  1  0  0  0  0  0  0  0  0  0
   -7.2940   18.5590  -32.8380 C   0  0  0  0  0  0  0  0  0  0  0  0
   -6.1300   17.8550  -32.2490 N   0  0  0  0  0  0  0  0  0  0  0  0
   -6.3790   17.4870  -30.8440 C   0  0  0  0  0  0  0  0  0  0  0  0
   -5.8020   16.6450  -33.0210 C   0  0  0  0  0  0  0  0  0  0  0  0
   -9.3675   21.5679  -30.1599 H   0  0  0  0  0  0  0  0  0  0  0  0
   -9.8256   23.0174  -31.1169 H   0  0  0  0  0  0  0  0  0  0  0  0
  -10.8877   21.5688  -31.1169 H   0  0  0  0  0  0  0  0  0  0  0  0
   -9.6989   20.5905  -32.7800 H   0  0  0  0  0  0  0  0  0  0  0  0
   -8.8835   22.1811  -32.9964 H   0  0  0  0  0  0  0  0  0  0  0  0
   -7.7800   22.2776  -30.3751 H   0  0  0  0  0  0  0  0  0  0  0  0
   -6.6666   20.8473  -30.1018 H   0  0  0  0  0  0  0  0  0  0  0  0
   -5.2984   22.7892  -30.5475 H   0  0  0  0  0  0  0  0  0  0  0  0
   -6.0267   23.3711  -33.2948 H   0  0  0  0  0  0  0  0  0  0  0  0
   -7.4193   23.6464  -32.1749 H   0  0  0  0  0  0  0  0  0  0  0  0
   -1.9508   25.2007  -29.7843 H   0  0  0  0  0  0  0  0  0  0  0  0
   -3.6428   22.4504  -29.5422 H   0  0  0  0  0  0  0  0  0  0  0  0
   -2.2080   22.2405  -28.9808 H   0  0  0  0  0  0  0  0  0  0  0  0
   -4.4292   24.3428  -27.8953 H   0  0  0  0  0  0  0  0  0  0  0  0
   -3.1309   24.4618  -27.0476 H   0  0  0  0  0  0  0  0  0  0  0  0
   -2.1742   19.5352  -34.7961 H   0  0  0  0  0  0  0  0  0  0  0  0
   -1.8315   21.2935  -34.6051 H   0  0  0  0  0  0  0  0  0  0  0  0
   -2.3660   19.1776  -31.6339 H   0  0  0  0  0  0  0  0  0  0  0  0
   -0.5627   18.5924  -30.0092 H   0  0  0  0  0  0  0  0  0  0  0  0
    1.8195   19.1130  -30.5426 H   0  0  0  0  0  0  0  0  0  0  0  0
    2.4024   20.2281  -32.6990 H   0  0  0  0  0  0  0  0  0  0  0  0
    0.6062   20.8282  -34.3244 H   0  0  0  0  0  0  0  0  0  0  0  0
   -3.1160   23.2650  -31.4820 H   0  0  0  0  0  0  0  0  0  0  0  0
   -7.3872   20.4501  -33.9005 H   0  0  0  0  0  0  0  0  0  0  0  0
   -8.1778   18.3829  -32.2073 H   0  0  0  0  0  0  0  0  0  0  0  0
   -7.4617   18.1705  -33.8533 H   0  0  0  0  0  0  0  0  0  0  0  0
   -5.8868   18.2144  -30.1817 H   0  0  0  0  0  0  0  0  0  0  0  0
   -7.4619   17.4893  -30.6508 H   0  0  0  0  0  0  0  0  0  0  0  0
   -5.9742   16.4826  -30.6508 H   0  0  0  0  0  0  0  0  0  0  0  0
   -5.5780   15.8188  -32.3302 H   0  0  0  0  0  0  0  0  0  0  0  0
   -6.6583   16.3711  -33.6548 H   0  0  0  0  0  0  0  0  0  0  0  0
   -4.9246   16.8411  -33.6548 H   0  0  0  0  0  0  0  0  0  0  0  0
  1  2  1  0
  2  3  1  0
  3  4  1  0
  4  5  1  0
  5  6  1  0
  6  7  1  0
  7  8  1  0
  8  9  2  0
  8 10  1  0
 10 11  1  0
 11 12  1  0
 12 13  1  0
  5 14  1  0
 14 15  1  0
 15 16  2  0
 16 17  1  0
 16 18  1  0
 18 19  1  0
 19 20  1  0
 20 21  2  0
 21 22  1  0
 22 23  2  0
 23 24  1  0
 24 25  2  0
 18 26  1  0
 26 27  1  0
 15 28  1  0
 28 29  1  0
 29 30  1  0
 30 31  1  0
 30 32  1  0
 28  3  1  0
 13 11  1  0
 26 14  2  0
 25 20  1  0
  1 33  1  0
  1 34  1  0
  1 35  1  0
  2 36  1  0
  2 37  1  0
  4 38  1  0
  4 39  1  0
  5 40  1  1
  6 41  1  0
  6 42  1  0
 11 43  1  0
 12 44  1  0
 12 45  1  0
 13 46  1  0
 13 47  1  0
 19 48  1  0
 19 49  1  0
 21 50  1  0
 22 51  1  0
 23 52  1  0
 24 53  1  0
 25 54  1  0
 27 55  1  0
 28 56  1  6
 29 57  1  0
 29 58  1  0
 31 59  1  0
 31 60  1  0
 31 61  1  0
 32 62  1  0
 32 63  1  0
 32 64  1  0
M  CHG  2  10  -1  17  -1
M  END
>  <UniqueID>  (5) 
5

>  <SMILES>  (5) 
CCN1C[C@H](COC(=O)[N-]C2CC2)c2c(c([O-])n(Cc3ccccc3)c2O)[C@H]1CN(C)C

>  <Energy>  (5) 
373.06898214560385

>  <Genealogy>  (5) 
CCN1CC(COC(=O)[N-]C2CC2)c2c(c([O-])n(Cc3ccccc3)c2O)C1CN(C)C (protonated)
CCN1C[C@H](COC(=O)[N-]C2CC2)c2c(c([O-])n(Cc3ccccc3)c2O)[C@H]1CN(C)C (chirality)
CCN1C[C@H](COC(=O)[N-]C2CC2)c2c(c([O-])n(Cc3ccccc3)c2O)[C@H]1CN(C)C (3D coordinates assigned)
CCN1C[C@H](COC(=O)[N-]C2CC2)c2c(c([O-])n(Cc3ccccc3)c2O)[C@H]1CN(C)C (nonaromatic ring conformer: 373.06898214560385 kcal/mol)

>  <smiles>  (5) 
CCN1CC(COC(=O)NC2CC2)c2c(c(O)n(Cc3ccccc3)c2O)C1CN(C)C

>  <score_type>  (5) 
oracle

>  <origin>  (5) 
adg

>  <m_score__min__energy>  (5) 
-10.16

>  <m_primary>  (5) 
energy

$$$$
5:0
     RDKit          3D

 73 76  0  0  0  0  0  0  0  0999 V2000
   -5.1850   17.2640  -32.7710 C   0  0  0  0  0  0  0  0  0  0  0  0
   -5.4650   18.7010  -32.5370 N   0  0  0  0  0  0  0  0  0  0  0  0
   -6.7680   19.1290  -32.3470 C   0  0  0  0  0  0  0  0  0  0  0  0
   -7.8260   18.2160  -32.0860 C   0  0  0  0  0  0  0  0  0  0  0  0
   -9.1440   18.6600  -31.9560 C   0  0  0  0  0  0  0  0  0  0  0  0
   -9.4420   20.0130  -32.0690 C   0  0  0  0  0  0  0  0  0  0  0  0
   -8.4210   20.9360  -32.2800 C   0  0  0  0  0  0  0  0  0  0  0  0
   -7.0780   20.5150  -32.3920 C   0  0  0  0  0  0  0  0  0  0  0  0
   -6.0430   21.4510  -32.5500 C   0  0  0  0  0  0  0  0  0  0  0  0
   -6.3440   22.8550  -32.5860 N   0  0  0  0  0  0  0  0  0  0  0  0
   -6.8060   23.5470  -31.3830 C   0  0  0  0  0  0  0  0  0  0  0  0
   -5.9120   23.2440  -30.1680 C   0  0  0  0  0  0  0  0  0  0  0  0
   -5.4980   24.5000  -29.3620 C   0  0  0  0  0  0  0  0  0  0  0  0
   -4.1630   24.4040  -28.7190 N   0  0  0  0  0  0  0  0  0  0  0  0
   -4.2300   23.4750  -27.5740 C   0  0  0  0  0  0  0  0  0  0  0  0
   -3.1280   23.9510  -29.6690 C   0  0  0  0  0  0  0  0  0  0  0  0
   -4.7080   21.0110  -32.5800 C   0  0  0  0  0  0  0  0  0  0  0  0
   -3.6450   21.9360  -32.6240 C   0  0  0  0  0  0  0  0  0  0  0  0
   -2.3240   21.5050  -32.5910 C   0  0  0  0  0  0  0  0  0  0  0  0
   -2.0240   20.1520  -32.4740 C   0  0  0  0  0  0  0  0  0  0  0  0
   -0.6740   19.7940  -32.3760 O   0  0  0  0  0  0  0  0  0  0  0  0
   -0.1120   18.9370  -31.3890 C   0  0  0  0  0  0  0  0  0  0  0  0
    0.6380   19.7330  -30.2830 C   0  0  0  0  0  0  0  0  0  0  0  0
   -0.0690   19.9210  -28.9620 N   0  0  0  0  0  0  0  0  0  0  0  0
    0.9070   20.4800  -27.9780 C   0  0  0  0  0  0  0  0  0  0  0  0
   -0.4820   18.5630  -28.4860 C   0  0  0  0  0  0  0  0  0  0  0  0
   -1.2390   18.5680  -27.1350 C   0  0  0  0  0  0  0  0  0  0  0  0
   -2.1620   19.7830  -26.9580 C   0  0  0  0  0  0  0  0  0  0  0  0
   -2.5210   20.4120  -28.2960 C   0  0  0  0  0  0  0  0  0  0  0  0
   -1.2700   20.8230  -29.1080 C   0  0  0  0  0  0  0  0  0  0  0  0
   -3.0680   19.2100  -32.4470 C   0  0  0  0  0  0  0  0  0  0  0  0
   -4.4270   19.6180  -32.5300 C   0  0  0  0  0  0  0  0  0  0  0  0
   -5.0844   16.7480  -31.8048 H   0  0  0  0  0  0  0  0  0  0  0  0
   -6.0130   16.8172  -33.3409 H   0  0  0  0  0  0  0  0  0  0  0  0
   -4.2498   17.1607  -33.3409 H   0  0  0  0  0  0  0  0  0  0  0  0
   -7.6033   17.1435  -31.9849 H   0  0  0  0  0  0  0  0  0  0  0  0
   -9.9494   17.9360  -31.7634 H   0  0  0  0  0  0  0  0  0  0  0  0
  -10.4847   20.3547  -31.9917 H   0  0  0  0  0  0  0  0  0  0  0  0
   -8.6636   22.0059  -32.3604 H   0  0  0  0  0  0  0  0  0  0  0  0
   -5.9960   23.4080  -33.4040 H   0  0  0  0  0  0  0  0  0  0  0  0
   -6.7962   24.6309  -31.5703 H   0  0  0  0  0  0  0  0  0  0  0  0
   -7.8223   23.1932  -31.1552 H   0  0  0  0  0  0  0  0  0  0  0  0
   -6.4594   22.5667  -29.4960 H   0  0  0  0  0  0  0  0  0  0  0  0
   -4.9859   22.7964  -30.5579 H   0  0  0  0  0  0  0  0  0  0  0  0
   -5.4888   25.3607  -30.0469 H   0  0  0  0  0  0  0  0  0  0  0  0
   -6.2310   24.6067  -28.5488 H   0  0  0  0  0  0  0  0  0  0  0  0
   -3.8810   25.3360  -28.3410 H   0  0  0  0  0  0  0  0  0  0  0  0
   -4.1888   24.0467  -26.6351 H   0  0  0  0  0  0  0  0  0  0  0  0
   -5.1714   22.9076  -27.6168 H   0  0  0  0  0  0  0  0  0  0  0  0
   -3.3798   22.7784  -27.6168 H   0  0  0  0  0  0  0  0  0  0  0  0
   -2.2595   23.5709  -29.1112 H   0  0  0  0  0  0  0  0  0  0  0  0
   -3.5367   23.1495  -30.3019 H   0  0  0  0  0  0  0  0  0  0  0  0
   -2.8165   24.7951  -30.3019 H   0  0  0  0  0  0  0  0  0  0  0  0
   -3.8638   23.0123  -32.6852 H   0  0  0  0  0  0  0  0  0  0  0  0
   -1.5087   22.2404  -32.6580 H   0  0  0  0  0  0  0  0  0  0  0  0
   -0.9206   18.3559  -30.9216 H   0  0  0  0  0  0  0  0  0  0  0  0
    0.6159   18.2788  -31.8860 H   0  0  0  0  0  0  0  0  0  0  0  0
    1.5821   19.2062  -30.0800 H   0  0  0  0  0  0  0  0  0  0  0  0
    0.7460   20.7486  -30.6914 H   0  0  0  0  0  0  0  0  0  0  0  0
    0.5539   20.2778  -26.9560 H   0  0  0  0  0  0  0  0  0  0  0  0
    1.8891   20.0075  -28.1268 H   0  0  0  0  0  0  0  0  0  0  0  0
    0.9964   21.5662  -28.1268 H   0  0  0  0  0  0  0  0  0  0  0  0
   -1.1375   18.1150  -29.2473 H   0  0  0  0  0  0  0  0  0  0  0  0
    0.4425   17.9881  -28.3287 H   0  0  0  0  0  0  0  0  0  0  0  0
   -1.8490   17.6547  -27.0736 H   0  0  0  0  0  0  0  0  0  0  0  0
   -0.4819   18.6163  -26.3385 H   0  0  0  0  0  0  0  0  0  0  0  0
   -3.0858   19.4596  -26.4560 H   0  0  0  0  0  0  0  0  0  0  0  0
   -1.6306   20.5345  -26.3556 H   0  0  0  0  0  0  0  0  0  0  0  0
   -3.1009   19.6853  -28.8839 H   0  0  0  0  0  0  0  0  0  0  0  0
   -3.1039   21.3226  -28.0933 H   0  0  0  0  0  0  0  0  0  0  0  0
   -1.5495   20.8439  -30.1717 H   0  0  0  0  0  0  0  0  0  0  0  0
   -0.9611   21.8002  -28.7083 H   0  0  0  0  0  0  0  0  0  0  0  0
   -2.8288   18.1398  -32.3602 H   0  0  0  0  0  0  0  0  0  0  0  0
  1  2  1  0
  2  3  2  0
  3  4  1  0
  4  5  2  0
  5  6  1  0
  6  7  2  0
  7  8  1  0
  8  9  2  0
  9 10  1  0
 10 11  1  0
 11 12  1  0
 12 13  1  0
 13 14  1  0
 14 15  1  0
 14 16  1  0
  9 17  1  0
 17 18  2  0
 18 19  1  0
 19 20  2  0
 20 21  1  0
 21 22  1  0
 22 23  1  0
 23 24  1  0
 24 25  1  0
 24 26  1  0
 26 27  1  0
 27 28  1  0
 28 29  1  0
 29 30  1  0
 20 31  1  0
 31 32  2  0
 32  2  1  0
  8  3  1  0
 32 17  1  0
 30 24  1  0
  1 33  1  0
  1 34  1  0
  1 35  1  0
  4 36  1  0
  5 37  1  0
  6 38  1  0
  7 39  1  0
 10 40  1  0
 11 41  1  0
 11 42  1  0
 12 43  1  0
 12 44  1  0
 13 45  1  0
 13 46  1  0
 14 47  1  0
 15 48  1  0
 15 49  1  0
 15 50  1  0
 16 51  1  0
 16 52  1  0
 16 53  1  0
 18 54  1  0
 19 55  1  0
 22 56  1  0
 22 57  1  0
 23 58  1  0
 23 59  1  0
 25 60  1  0
 25 61  1  0
 25 62  1  0
 26 63  1  0
 26 64  1  0
 27 65  1  0
 27 66  1  0
 28 67  1  0
 28 68  1  0
 29 69  1  0
 29 70  1  0
 30 71  1  0
 30 72  1  0
 31 73  1  0
M  CHG  3   2   1  14   1  24   1
M  END
>  <UniqueID>  (6) 
6

>  <SMILES>  (6) 
C[n+]1c2ccccc2c(NCCC[NH+](C)C)c2ccc(OCC[N+]3(C)CCCCC3)cc21

>  <Energy>  (6) 
122.54770104653566

>  <Genealogy>  (6) 
C[n+]1c2ccccc2c(NCCC[NH+](C)C)c2ccc(OCC[N+]3(C)CCCCC3)cc21 (protonated)
C[n+]1c2ccccc2c(NCCC[NH+](C)C)c2ccc(OCC[N+]3(C)CCCCC3)cc21 (3D coordinates assigned)
C[n+]1c2ccccc2c(NCCC[NH+](C)C)c2ccc(OCC[N+]3(C)CCCCC3)cc21 (nonaromatic ring conformer: 122.54770104653566 kcal/mol)

>  <smiles>  (6) 
CN(C)CCCNc1c2ccccc2[n+](C)c2cc(OCC[N+]3(C)CCCCC3)ccc12

>  <score_type>  (6) 
oracle

>  <origin>  (6) 
adg

>  <m_score__min__energy>  (6) 
-8

>  <m_primary>  (6) 
energy

$$$$
6:0
     RDKit          3D

 26 27  0  0  0  0  0  0  0  0999 V2000
   -8.8690   18.7590  -31.8940 C   0  0  0  0  0  0  0  0  0  0  0  0
   -8.7100   20.0610  -32.6750 C   0  0  0  0  0  0  0  0  0  0  0  0
   -8.3790   21.2620  -31.7760 C   0  0  0  0  0  0  0  0  0  0  0  0
   -6.9740   21.6940  -31.9390 N   0  0  0  0  0  0  0  0  0  0  0  0
   -6.1660   20.8810  -32.6920 C   0  0  0  0  0  0  0  0  0  0  0  0
   -4.8230   21.1880  -32.9040 C   0  0  0  0  0  0  0  0  0  0  0  0
   -4.2860   22.3390  -32.3490 C   0  0  0  0  0  0  0  0  0  0  0  0
   -5.0930   23.1840  -31.5920 C   0  0  0  0  0  0  0  0  0  0  0  0
   -4.5630   24.3170  -31.0600 N   0  0  0  0  0  0  0  0  0  0  0  0
   -5.3070   25.1790  -30.3230 C   0  0  0  0  0  0  0  0  0  0  0  0
   -6.6560   24.9180  -30.0980 C   0  0  0  0  0  0  0  0  0  0  0  0
   -7.2350   23.7650  -30.6290 C   0  0  0  0  0  0  0  0  0  0  0  0
   -6.4600   22.8580  -31.3900 C   0  0  0  0  0  0  0  0  0  0  0  0
   -8.8429   18.9729  -30.8153 H   0  0  0  0  0  0  0  0  0  0  0  0
   -9.8309   18.2918  -32.1520 H   0  0  0  0  0  0  0  0  0  0  0  0
   -8.0478   18.0741  -32.1520 H   0  0  0  0  0  0  0  0  0  0  0  0
   -7.8972   19.9349  -33.4053 H   0  0  0  0  0  0  0  0  0  0  0  0
   -9.6722   20.2712  -33.1648 H   0  0  0  0  0  0  0  0  0  0  0  0
   -9.0425   22.0988  -32.0397 H   0  0  0  0  0  0  0  0  0  0  0  0
   -8.5261   20.9585  -30.7290 H   0  0  0  0  0  0  0  0  0  0  0  0
   -6.5865   19.9676  -33.1379 H   0  0  0  0  0  0  0  0  0  0  0  0
   -4.1923   20.5200  -33.5089 H   0  0  0  0  0  0  0  0  0  0  0  0
   -3.2252   22.5841  -32.5062 H   0  0  0  0  0  0  0  0  0  0  0  0
   -4.8445   26.0844  -29.9030 H   0  0  0  0  0  0  0  0  0  0  0  0
   -7.2626   25.6177  -29.5043 H   0  0  0  0  0  0  0  0  0  0  0  0
   -8.3015   23.5596  -30.4548 H   0  0  0  0  0  0  0  0  0  0  0  0
  1  2  1  0
  2  3  1  0
  3  4  1  0
  4  5  2  0
  5  6  1  0
  6  7  2  0
  7  8  1  0
  8  9  2  0
  9 10  1  0
 10 11  2  0
 11 12  1  0
 12 13  2  0
 13  4  1  0
 13  8  1  0
  1 14  1  0
  1 15  1  0
  1 16  1  0
  2 17  1  0
  2 18  1  0
  3 19  1  0
  3 20  1  0
  5 21  1  0
  6 22  1  0
  7 23  1  0
 10 24  1  0
 11 25  1  0
 12 26  1  0
M  CHG  1   4   1
M  END
>  <UniqueID>  (7) 
7

>  <SMILES>  (7) 
CCC[n+]1cccc2ncccc21

>  <Energy>  (7) 
30.87284587251029

>  <Genealogy>  (7) 
CCC[n+]1cccc2ncccc21 (3D coordinates assigned)
CCC[n+]1cccc2ncccc21 (optimized conformer: 30.87284587251029 kcal/mol)

>  <smiles>  (7) 
CCC[n+]1cccc2ncccc21

>  <score_type>  (7) 
oracle

>  <origin>  (7) 
adg

>  <m_score__min__energy>  (7) 
-5.4800000000000004

>  <m_primary>  (7) 
energy

$$$$
7:0
     RDKit          3D

 80 83  0  0  0  0  0  0  0  0999 V2000
    0.1870   25.6080  -26.6860 C   0  0  0  0  0  0  0  0  0  0  0  0
    0.4610   24.4160  -27.5970 C   0  0  0  0  0  0  0  0  0  0  0  0
   -0.7980   23.8130  -28.0410 N   0  0  0  0  0  0  0  0  0  0  0  0
   -1.7120   24.3750  -28.8690 C   0  0  0  0  0  0  0  0  0  0  0  0
   -1.6130   25.6800  -29.3420 O   0  0  0  0  0  0  0  0  0  0  0  0
   -2.7540   23.4860  -29.1280 C   0  0  0  0  0  0  0  0  0  0  0  0
   -3.9300   23.6970  -29.9270 N   0  0  0  0  0  0  0  0  0  0  0  0
   -4.8410   24.8270  -29.7200 C   0  0  0  0  0  0  0  0  0  0  0  0
   -6.0640   24.7170  -30.6410 C   0  0  0  0  0  0  0  0  0  0  0  0
   -6.0850   23.4250  -31.3670 N   0  0  0  0  0  0  0  0  0  0  0  0
   -6.4440   22.2850  -30.4980 C   0  0  0  0  0  0  0  0  0  0  0  0
   -7.9330   22.2890  -30.1150 C   0  0  0  0  0  0  0  0  0  0  0  0
   -8.8680   22.3610  -31.3390 C   0  0  0  0  0  0  0  0  0  0  0  0
   -9.1270   20.9890  -32.0030 C   0  0  0  0  0  0  0  0  0  0  0  0
   -7.9710   20.1080  -31.8930 N   0  0  0  0  0  0  0  0  0  0  0  0
   -8.0240   18.6860  -31.7330 C   0  0  0  0  0  0  0  0  0  0  0  0
   -9.1310   18.1490  -31.4540 O   0  0  0  0  0  0  0  0  0  0  0  0
   -6.8260   17.8080  -31.9620 C   0  0  0  0  0  0  0  0  0  0  0  0
   -6.6610   17.4900  -33.4530 C   0  0  0  0  0  0  0  0  0  0  0  0
   -5.5510   18.3270  -34.1170 C   0  0  0  0  0  0  0  0  0  0  0  0
   -5.5260   19.7960  -33.6570 C   0  0  0  0  0  0  0  0  0  0  0  0
   -4.1860   20.4070  -33.8140 N   0  0  0  0  0  0  0  0  0  0  0  0
   -3.1050   19.3880  -33.7250 C   0  0  0  0  0  0  0  0  0  0  0  0
   -1.8160   19.9540  -33.1180 C   0  0  0  0  0  0  0  0  0  0  0  0
   -2.0540   20.4230  -31.7360 N   0  0  0  0  0  0  0  0  0  0  0  0
   -0.9350   21.2640  -31.2820 C   0  0  0  0  0  0  0  0  0  0  0  0
   -3.3610   21.1070  -31.5550 C   0  0  0  0  0  0  0  0  0  0  0  0
   -3.9910   21.5490  -32.8870 C   0  0  0  0  0  0  0  0  0  0  0  0
   -8.4170   23.4470  -32.3400 C   0  0  0  0  0  0  0  0  0  0  0  0
   -6.8980   23.4440  -32.6050 C   0  0  0  0  0  0  0  0  0  0  0  0
   -2.4540   22.3430  -28.4100 C   0  0  0  0  0  0  0  0  0  0  0  0
   -3.1360   21.1320  -28.2820 C   0  0  0  0  0  0  0  0  0  0  0  0
   -2.5660   20.1370  -27.4700 C   0  0  0  0  0  0  0  0  0  0  0  0
   -1.3320   20.3630  -26.8210 C   0  0  0  0  0  0  0  0  0  0  0  0
   -0.6650   21.5920  -26.9650 C   0  0  0  0  0  0  0  0  0  0  0  0
   -1.2560   22.5700  -27.7690 C   0  0  0  0  0  0  0  0  0  0  0  0
    0.2599   25.2908  -25.6352 H   0  0  0  0  0  0  0  0  0  0  0  0
    0.9270   26.3977  -26.8828 H   0  0  0  0  0  0  0  0  0  0  0  0
   -0.8236   25.9953  -26.8828 H   0  0  0  0  0  0  0  0  0  0  0  0
    1.0305   24.7543  -28.4752 H   0  0  0  0  0  0  0  0  0  0  0  0
    1.0389   23.6651  -27.0383 H   0  0  0  0  0  0  0  0  0  0  0  0
   -3.9320   23.2650  -30.8760 H   0  0  0  0  0  0  0  0  0  0  0  0
   -5.1775   24.8318  -28.6727 H   0  0  0  0  0  0  0  0  0  0  0  0
   -4.3057   25.7589  -29.9545 H   0  0  0  0  0  0  0  0  0  0  0  0
   -6.9772   24.8001  -30.0334 H   0  0  0  0  0  0  0  0  0  0  0  0
   -6.0107   25.5278  -31.3825 H   0  0  0  0  0  0  0  0  0  0  0  0
   -6.2184   21.3494  -31.0307 H   0  0  0  0  0  0  0  0  0  0  0  0
   -5.8580   22.3711  -29.5710 H   0  0  0  0  0  0  0  0  0  0  0  0
   -8.1545   21.3666  -29.5581 H   0  0  0  0  0  0  0  0  0  0  0  0
   -8.1149   23.1880  -29.5078 H   0  0  0  0  0  0  0  0  0  0  0  0
   -9.8516   22.6717  -30.9570 H   0  0  0  0  0  0  0  0  0  0  0  0
   -9.9868   20.5115  -31.5103 H   0  0  0  0  0  0  0  0  0  0  0  0
   -9.3276   21.1584  -33.0712 H   0  0  0  0  0  0  0  0  0  0  0  0
   -5.9250   18.3262  -31.6019 H   0  0  0  0  0  0  0  0  0  0  0  0
   -6.9701   16.8650  -31.4142 H   0  0  0  0  0  0  0  0  0  0  0  0
   -6.4109   16.4242  -33.5605 H   0  0  0  0  0  0  0  0  0  0  0  0
   -7.6091   17.7362  -33.9535 H   0  0  0  0  0  0  0  0  0  0  0  0
   -4.5798   17.8706  -33.8751 H   0  0  0  0  0  0  0  0  0  0  0  0
   -5.7543   18.3316  -35.1980 H   0  0  0  0  0  0  0  0  0  0  0  0
   -6.2490   20.3678  -34.2573 H   0  0  0  0  0  0  0  0  0  0  0  0
   -5.7860   19.8205  -32.5885 H   0  0  0  0  0  0  0  0  0  0  0  0
   -3.4552   18.5556  -33.0970 H   0  0  0  0  0  0  0  0  0  0  0  0
   -2.8751   19.0531  -34.7473 H   0  0  0  0  0  0  0  0  0  0  0  0
   -1.0467   19.1679  -33.1056 H   0  0  0  0  0  0  0  0  0  0  0  0
   -1.4803   20.8052  -33.7286 H   0  0  0  0  0  0  0  0  0  0  0  0
   -0.9120   21.2813  -30.1824 H   0  0  0  0  0  0  0  0  0  0  0  0
    0.0113   20.8517  -31.6621 H   0  0  0  0  0  0  0  0  0  0  0  0
   -1.0679   22.2876  -31.6621 H   0  0  0  0  0  0  0  0  0  0  0  0
   -4.0527   20.4159  -31.0511 H   0  0  0  0  0  0  0  0  0  0  0  0
   -3.1814   22.0123  -30.9566 H   0  0  0  0  0  0  0  0  0  0  0  0
   -4.9679   22.0112  -32.6820 H   0  0  0  0  0  0  0  0  0  0  0  0
   -3.3063   22.2638  -33.3668 H   0  0  0  0  0  0  0  0  0  0  0  0
   -8.9376   23.2791  -33.2944 H   0  0  0  0  0  0  0  0  0  0  0  0
   -8.6667   24.4217  -31.8954 H   0  0  0  0  0  0  0  0  0  0  0  0
   -6.6494   22.5522  -33.1991 H   0  0  0  0  0  0  0  0  0  0  0  0
   -6.6591   24.3772  -33.1361 H   0  0  0  0  0  0  0  0  0  0  0  0
   -4.0908   20.9617  -28.8011 H   0  0  0  0  0  0  0  0  0  0  0  0
   -3.0842   19.1756  -27.3389 H   0  0  0  0  0  0  0  0  0  0  0  0
   -0.8896   19.5715  -26.1983 H   0  0  0  0  0  0  0  0  0  0  0  0
    0.2941   21.7783  -26.4595 H   0  0  0  0  0  0  0  0  0  0  0  0
  1  2  1  0
  2  3  1  0
  3  4  1  0
  4  5  1  0
  4  6  2  0
  6  7  1  0
  7  8  1  0
  8  9  1  0
  9 10  1  0
 10 11  1  0
 11 12  1  0
 12 13  1  0
 13 14  1  0
 14 15  1  0
 15 16  1  0
 16 17  2  0
 16 18  1  0
 18 19  1  0
 19 20  1  0
 20 21  1  0
 21 22  1  0
 22 23  1  0
 23 24  1  0
 24 25  1  0
 25 26  1  0
 25 27  1  0
 27 28  1  0
 13 29  1  0
 29 30  1  0
  6 31  1  0
 31 32  2  0
 32 33  1  0
 33 34  2  0
 34 35  1  0
 35 36  2  0
 36  3  1  0
 30 10  1  0
 36 31  1  0
 28 22  1  0
  1 37  1  0
  1 38  1  0
  1 39  1  0
  2 40  1  0
  2 41  1  0
  7 42  1  0
  8 43  1  0
  8 44  1  0
  9 45  1  0
  9 46  1  0
 11 47  1  0
 11 48  1  0
 12 49  1  0
 12 50  1  0
 13 51  1  0
 14 52  1  0
 14 53  1  0
 18 54  1  0
 18 55  1  0
 19 56  1  0
 19 57  1  0
 20 58  1  0
 20 59  1  0
 21 60  1  0
 21 61  1  0
 23 62  1  0
 23 63  1  0
 24 64  1  0
 24 65  1  0
 26 66  1  0
 26 67  1  0
 26 68  1  0
 27 69  1  0
 27 70  1  0
 28 71  1  0
 28 72  1  0
 29 73  1  0
 29 74  1  0
 30 75  1  0
 30 76  1  0
 32 77  1  0
 33 78  1  0
 34 79  1  0
 35 80  1  0
M  CHG  2   5  -1  15  -1
M  END
>  <UniqueID>  (8) 
8

>  <SMILES>  (8) 
CCn1c([O-])c(NCCN2CCC(C[N-]C(=O)CCCCN3CCN(C)CC3)CC2)c2ccccc21

>  <Energy>  (8) 
123.72439667591523

>  <Genealogy>  (8) 
CCn1c([O-])c(NCCN2CCC(C[N-]C(=O)CCCCN3CCN(C)CC3)CC2)c2ccccc21 (protonated)
CCn1c([O-])c(NCCN2CCC(C[N-]C(=O)CCCCN3CCN(C)CC3)CC2)c2ccccc21 (3D coordinates assigned)
CCn1c([O-])c(NCCN2CCC(C[N-]C(=O)CCCCN3CCN(C)CC3)CC2)c2ccccc21 (nonaromatic ring conformer: 123.72439667591523 kcal/mol)

>  <smiles>  (8) 
CCn1c(O)c(NCCN2CCC(CNC(=O)CCCCN3CCN(C)CC3)CC2)c2ccccc21

>  <score_type>  (8) 
oracle

>  <origin>  (8) 
adg

>  <m_score__min__energy>  (8) 
-12.34

>  <m_primary>  (8) 
energy

$$$$
8:0
     RDKit          3D

 55 57  0  0  0  0  0  0  0  0999 V2000
   -1.1000   26.7880  -24.1630 C   0  0  0  0  0  0  0  0  0  0  0  0
   -1.2280   25.5840  -25.0960 C   0  0  0  0  0  0  0  0  0  0  0  0
   -2.5230   25.6000  -25.9190 C   0  0  0  0  0  0  0  0  0  0  0  0
   -2.3350   25.0030  -27.3220 C   0  0  0  0  0  0  0  0  0  0  0  0
   -3.6260   24.5760  -27.8830 N   0  0  0  0  0  0  0  0  0  0  0  0
   -3.8480   23.1390  -27.6450 C   0  0  0  0  0  0  0  0  0  0  0  0
   -3.1880   22.2750  -28.7310 C   0  0  0  0  0  0  0  0  0  0  0  0
   -3.1220   22.9730  -30.0210 N   0  0  0  0  0  0  0  0  0  0  0  0
   -3.7050   22.4100  -31.2110 C   0  0  0  0  0  0  0  0  0  0  0  0
   -2.9400   21.5550  -32.0170 C   0  0  0  0  0  0  0  0  0  0  0  0
   -1.5320   21.5760  -31.9560 C   0  0  0  0  0  0  0  0  0  0  0  0
   -0.7730   20.7700  -32.8000 C   0  0  0  0  0  0  0  0  0  0  0  0
   -1.4040   19.9460  -33.7270 C   0  0  0  0  0  0  0  0  0  0  0  0
   -2.7970   19.9010  -33.7940 C   0  0  0  0  0  0  0  0  0  0  0  0
   -3.5950   20.6770  -32.9170 C   0  0  0  0  0  0  0  0  0  0  0  0
   -4.9730   20.5860  -32.9050 N   0  0  0  0  0  0  0  0  0  0  0  0
   -5.6410   19.4300  -33.5420 C   0  0  0  0  0  0  0  0  0  0  0  0
   -5.7230   21.5670  -32.2800 C   0  0  0  0  0  0  0  0  0  0  0  0
   -7.1300   21.6270  -32.4260 C   0  0  0  0  0  0  0  0  0  0  0  0
   -7.8890   22.5940  -31.7600 C   0  0  0  0  0  0  0  0  0  0  0  0
   -9.3770   22.6430  -31.9540 C   0  0  0  0  0  0  0  0  0  0  0  0
   -7.2480   23.5940  -31.0320 C   0  0  0  0  0  0  0  0  0  0  0  0
   -5.8560   23.6110  -30.9170 C   0  0  0  0  0  0  0  0  0  0  0  0
   -5.2390   24.8000  -30.4060 N   0  0  0  0  0  0  0  0  0  0  0  0
   -4.1290   25.1690  -30.8430 O   0  0  0  0  0  0  0  0  0  0  0  0
   -5.6840   25.3220  -29.2140 O   0  0  0  0  0  0  0  0  0  0  0  0
   -5.0860   22.5500  -31.4690 C   0  0  0  0  0  0  0  0  0  0  0  0
   -1.1362   26.4473  -23.1177 H   0  0  0  0  0  0  0  0  0  0  0  0
   -0.1427   27.2966  -24.3499 H   0  0  0  0  0  0  0  0  0  0  0  0
   -1.9289   27.4865  -24.3499 H   0  0  0  0  0  0  0  0  0  0  0  0
   -0.3727   25.5838  -25.7877 H   0  0  0  0  0  0  0  0  0  0  0  0
   -1.2476   24.6810  -24.4681 H   0  0  0  0  0  0  0  0  0  0  0  0
   -3.2871   25.0150  -25.3861 H   0  0  0  0  0  0  0  0  0  0  0  0
   -2.8293   26.6495  -26.0403 H   0  0  0  0  0  0  0  0  0  0  0  0
   -1.8886   25.7625  -27.9807 H   0  0  0  0  0  0  0  0  0  0  0  0
   -1.6746   24.1264  -27.2476 H   0  0  0  0  0  0  0  0  0  0  0  0
   -3.6370   24.7540  -28.9130 H   0  0  0  0  0  0  0  0  0  0  0  0
   -4.3850   25.1360  -27.4380 H   0  0  0  0  0  0  0  0  0  0  0  0
   -3.4221   22.8695  -26.6672 H   0  0  0  0  0  0  0  0  0  0  0  0
   -4.9315   22.9507  -27.6681 H   0  0  0  0  0  0  0  0  0  0  0  0
   -2.1665   22.0211  -28.4114 H   0  0  0  0  0  0  0  0  0  0  0  0
   -3.7985   21.3697  -28.8641 H   0  0  0  0  0  0  0  0  0  0  0  0
   -2.5060   23.8120  -30.0930 H   0  0  0  0  0  0  0  0  0  0  0  0
   -1.0279   22.2357  -31.2344 H   0  0  0  0  0  0  0  0  0  0  0  0
    0.3249   20.7845  -32.7342 H   0  0  0  0  0  0  0  0  0  0  0  0
   -0.8024   19.3278  -34.4095 H   0  0  0  0  0  0  0  0  0  0  0  0
   -3.2830   19.2535  -34.5387 H   0  0  0  0  0  0  0  0  0  0  0  0
   -6.0300   18.7568  -32.7639 H   0  0  0  0  0  0  0  0  0  0  0  0
   -6.4725   19.7862  -34.1679 H   0  0  0  0  0  0  0  0  0  0  0  0
   -4.9172   18.8874  -34.1679 H   0  0  0  0  0  0  0  0  0  0  0  0
   -7.6360   20.8983  -33.0763 H   0  0  0  0  0  0  0  0  0  0  0  0
   -9.8743   22.6594  -30.9730 H   0  0  0  0  0  0  0  0  0  0  0  0
   -9.6439   23.5504  -32.5156 H   0  0  0  0  0  0  0  0  0  0  0  0
   -9.7030   21.7551  -32.5156 H   0  0  0  0  0  0  0  0  0  0  0  0
   -7.8442   24.3783  -30.5427 H   0  0  0  0  0  0  0  0  0  0  0  0
  1  2  1  0
  2  3  1  0
  3  4  1  0
  4  5  1  0
  5  6  1  0
  6  7  1  0
  7  8  1  0
  8  9  1  0
  9 10  2  0
 10 11  1  0
 11 12  2  0
 12 13  1  0
 13 14  2  0
 14 15  1  0
 15 16  2  0
 16 17  1  0
 16 18  1  0
 18 19  2  0
 19 20  1  0
 20 21  1  0
 20 22  2  0
 22 23  1  0
 23 24  1  0
 24 25  2  0
 24 26  1  0
 23 27  2  0
 27  9  1  0
 15 10  1  0
 27 18  1  0
  1 28  1  0
  1 29  1  0
  1 30  1  0
  2 31  1  0
  2 32  1  0
  3 33  1  0
  3 34  1  0
  4 35  1  0
  4 36  1  0
  5 37  1  0
  5 38  1  0
  6 39  1  0
  6 40  1  0
  7 41  1  0
  7 42  1  0
  8 43  1  0
 11 44  1  0
 12 45  1  0
 13 46  1  0
 14 47  1  0
 17 48  1  0
 17 49  1  0
 17 50  1  0
 19 51  1  0
 21 52  1  0
 21 53  1  0
 21 54  1  0
 22 55  1  0
M  CHG  4   5   1  16   1  24   1  26  -1
M  END
>  <UniqueID>  (9) 
9

>  <SMILES>  (9) 
CCCC[NH2+]CCNc1c2ccccc2[n+](C)c2cc(C)cc([N+](=O)[O-])c12

>  <Energy>  (9) 
84.82221648669194

>  <Genealogy>  (9) 
CCCC[NH2+]CCNc1c2ccccc2[n+](C)c2cc(C)cc([N+](=O)[O-])c12 (protonated)
CCCC[NH2+]CCNc1c2ccccc2[n+](C)c2cc(C)cc([N+](=O)[O-])c12 (3D coordinates assigned)
CCCC[NH2+]CCNc1c2ccccc2[n+](C)c2cc(C)cc([N+](=O)[O-])c12 (optimized conformer: 84.82221648669194 kcal/mol)

>  <smiles>  (9) 
CCCCNCCNc1c2ccccc2[n+](C)c2cc(C)cc([N+](=O)[O-])c12

>  <score_type>  (9) 
oracle

>  <origin>  (9) 
adg

>  <m_score__min__energy>  (9) 
-7.8200000000000003

>  <m_primary>  (9) 
energy

$$$$
9:0
     RDKit          3D

 59 61  0  0  0  0  0  0  0  0999 V2000
   -0.8180   29.4570  -36.8750 C   0  0  0  0  0  0  0  0  0  0  0  0
   -1.2080   28.1210  -36.2280 C   0  0  0  0  0  0  0  0  0  0  0  0
   -1.3910   27.0080  -37.1920 N   0  0  0  0  0  0  0  0  0  0  0  0
   -1.0610   27.3630  -38.5930 C   0  0  0  0  0  0  0  0  0  0  0  0
   -2.3210   27.5430  -39.4380 C   0  0  0  0  0  0  0  0  0  0  0  0
   -0.7050   25.7680  -36.7620 C   0  0  0  0  0  0  0  0  0  0  0  0
    0.7780   25.8400  -37.1210 C   0  0  0  0  0  0  0  0  0  0  0  0
    1.3020   24.5290  -37.1950 O   0  0  0  0  0  0  0  0  0  0  0  0
    0.9080   23.7720  -36.0650 C   0  0  0  0  0  0  0  0  0  0  0  0
    1.7620   22.5090  -35.9490 C   0  0  0  0  0  0  0  0  0  0  0  0
    0.9680   21.4190  -35.5190 O   0  0  0  0  0  0  0  0  0  0  0  0
    1.3050   21.0150  -34.2060 C   0  0  0  0  0  0  0  0  0  0  0  0
    0.0420   20.9060  -33.3450 C   0  0  0  0  0  0  0  0  0  0  0  0
   -1.1510   21.1980  -34.1400 N   0  0  0  0  0  0  0  0  0  0  0  0
   -2.4730   20.6950  -33.8560 C   0  0  0  0  0  0  0  0  0  0  0  0
   -2.8150   19.3410  -34.0460 C   0  0  0  0  0  0  0  0  0  0  0  0
   -4.1020   18.8840  -33.7530 C   0  0  0  0  0  0  0  0  0  0  0  0
   -5.0740   19.7700  -33.2590 C   0  0  0  0  0  0  0  0  0  0  0  0
   -6.3790   19.3500  -32.9460 C   0  0  0  0  0  0  0  0  0  0  0  0
   -6.7150   18.1410  -33.0970 O   0  0  0  0  0  0  0  0  0  0  0  0
   -7.3050   20.2890  -32.4570 C   0  0  0  0  0  0  0  0  0  0  0  0
   -8.6270   19.9360  -32.1270 C   0  0  0  0  0  0  0  0  0  0  0  0
   -9.5130   20.9050  -31.6490 C   0  0  0  0  0  0  0  0  0  0  0  0
   -9.0930   22.2290  -31.4950 C   0  0  0  0  0  0  0  0  0  0  0  0
   -7.7810   22.5910  -31.8170 C   0  0  0  0  0  0  0  0  0  0  0  0
   -6.8840   21.6310  -32.2980 C   0  0  0  0  0  0  0  0  0  0  0  0
   -5.6400   21.9870  -32.6010 O   0  0  0  0  0  0  0  0  0  0  0  0
   -4.7380   21.1290  -33.0660 C   0  0  0  0  0  0  0  0  0  0  0  0
   -3.4470   21.5770  -33.3640 C   0  0  0  0  0  0  0  0  0  0  0  0
   -0.6023   30.1958  -36.0891 H   0  0  0  0  0  0  0  0  0  0  0  0
    0.0761   29.3147  -37.4998 H   0  0  0  0  0  0  0  0  0  0  0  0
   -1.6482   29.8180  -37.4998 H   0  0  0  0  0  0  0  0  0  0  0  0
   -0.4160   27.8368  -35.5195 H   0  0  0  0  0  0  0  0  0  0  0  0
   -2.1809   28.2788  -35.7395 H   0  0  0  0  0  0  0  0  0  0  0  0
   -0.4901   28.3032  -38.5982 H   0  0  0  0  0  0  0  0  0  0  0  0
   -0.4699   26.5427  -39.0262 H   0  0  0  0  0  0  0  0  0  0  0  0
   -3.1913   27.6673  -38.7768 H   0  0  0  0  0  0  0  0  0  0  0  0
   -2.2125   28.4348  -40.0728 H   0  0  0  0  0  0  0  0  0  0  0  0
   -2.4665   26.6565  -40.0728 H   0  0  0  0  0  0  0  0  0  0  0  0
   -0.8110   25.6518  -35.6733 H   0  0  0  0  0  0  0  0  0  0  0  0
   -1.1593   24.9075  -37.2750 H   0  0  0  0  0  0  0  0  0  0  0  0
    0.8973   26.3395  -38.0938 H   0  0  0  0  0  0  0  0  0  0  0  0
    1.3176   26.4110  -36.3511 H   0  0  0  0  0  0  0  0  0  0  0  0
    1.0354   24.3809  -35.1578 H   0  0  0  0  0  0  0  0  0  0  0  0
   -0.1469   23.4817  -36.1786 H   0  0  0  0  0  0  0  0  0  0  0  0
    2.1993   22.2748  -36.9308 H   0  0  0  0  0  0  0  0  0  0  0  0
    2.5611   22.6828  -35.2133 H   0  0  0  0  0  0  0  0  0  0  0  0
    1.8043   20.0356  -34.2441 H   0  0  0  0  0  0  0  0  0  0  0  0
    1.9784   21.7630  -33.7621 H   0  0  0  0  0  0  0  0  0  0  0  0
   -0.0334   19.8854  -32.9417 H   0  0  0  0  0  0  0  0  0  0  0  0
    0.1084   21.6358  -32.5247 H   0  0  0  0  0  0  0  0  0  0  0  0
   -1.0310   21.8480  -34.9510 H   0  0  0  0  0  0  0  0  0  0  0  0
   -2.0611   18.6373  -34.4287 H   0  0  0  0  0  0  0  0  0  0  0  0
   -4.3557   17.8252  -33.9098 H   0  0  0  0  0  0  0  0  0  0  0  0
   -8.9633   18.8954  -32.2456 H   0  0  0  0  0  0  0  0  0  0  0  0
  -10.5453   20.6245  -31.3929 H   0  0  0  0  0  0  0  0  0  0  0  0
   -9.7956   22.9878  -31.1199 H   0  0  0  0  0  0  0  0  0  0  0  0
   -7.4534   23.6336  -31.6917 H   0  0  0  0  0  0  0  0  0  0  0  0
   -3.1916   22.6359  -33.2105 H   0  0  0  0  0  0  0  0  0  0  0  0
  1  2  1  0
  2  3  1  0
  3  4  1  0
  4  5  1  0
  3  6  1  0
  6  7  1  0
  7  8  1  0
  8  9  1  0
  9 10  1  0
 10 11  1  0
 11 12  1  0
 12 13  1  0
 13 14  1  0
 14 15  1  0
 15 16  2  0
 16 17  1  0
 17 18  2  0
 18 19  1  0
 19 20  2  0
 19 21  1  0
 21 22  2  0
 22 23  1  0
 23 24  2  0
 24 25  1  0
 25 26  2  0
 26 27  1  0
 27 28  1  0
 28 29  2  0
 29 15  1  0
 28 18  1  0
 26 21  1  0
  1 30  1  0
  1 31  1  0
  1 32  1  0
  2 33  1  0
  2 34  1  0
  4 35  1  0
  4 36  1  0
  5 37  1  0
  5 38  1  0
  5 39  1  0
  6 40  1  0
  6 41  1  0
  7 42  1  0
  7 43  1  0
  9 44  1  0
  9 45  1  0
 10 46  1  0
 10 47  1  0
 12 48  1  0
 12 49  1  0
 13 50  1  0
 13 51  1  0
 14 52  1  0
 16 53  1  0
 17 54  1  0
 22 55  1  0
 23 56  1  0
 24 57  1  0
 25 58  1  0
 29 59  1  0
M  END
>  <UniqueID>  (10) 
10

>  <SMILES>  (10) 
CCN(CC)CCOCCOCCNc1ccc2c(=O)c3ccccc3oc2c1

>  <Energy>  (10) 
71.00306615696378

>  <Genealogy>  (10) 
CCN(CC)CCOCCOCCNc1ccc2c(=O)c3ccccc3oc2c1 (3D coordinates assigned)
CCN(CC)CCOCCOCCNc1ccc2c(=O)c3ccccc3oc2c1 (optimized conformer: 71.00306615696378 kcal/mol)

>  <smiles>  (10) 
CCN(CC)CCOCCOCCNc1ccc2c(=O)c3ccccc3oc2c1

>  <score_type>  (10) 
oracle

>  <origin>  (10) 
adg

>  <m_score__min__energy>  (10) 
-9.2200000000000006

>  <m_primary>  (10) 
energy

$$$$
10:0
     RDKit          3D

 48 49  0  0  0  0  0  0  0  0999 V2000
   -3.0380   21.4670  -29.8450 C   0  0  0  0  0  0  0  0  0  0  0  0
   -2.3400   21.8580  -31.1590 C   0  0  0  0  0  0  0  0  0  0  0  0
   -1.8020   20.7290  -31.9750 N   0  0  0  0  0  0  0  0  0  0  0  0
   -0.3350   20.5100  -31.8810 C   0  0  0  0  0  0  0  0  0  0  0  0
    0.3750   20.7530  -33.2190 C   0  0  0  0  0  0  0  0  0  0  0  0
   -2.2870   20.7360  -33.3820 C   0  0  0  0  0  0  0  0  0  0  0  0
   -2.9740   19.4360  -33.8380 C   0  0  0  0  0  0  0  0  0  0  0  0
   -3.7630   18.9130  -32.7850 O   0  0  0  0  0  0  0  0  0  0  0  0
   -4.4710   17.7670  -33.2110 C   0  0  0  0  0  0  0  0  0  0  0  0
   -5.2210   18.0950  -34.5000 C   0  0  0  0  0  0  0  0  0  0  0  0
   -6.4830   18.7000  -34.2110 O   0  0  0  0  0  0  0  0  0  0  0  0
   -6.7110   19.6900  -33.2390 C   0  0  0  0  0  0  0  0  0  0  0  0
   -5.8980   20.8270  -33.1000 C   0  0  0  0  0  0  0  0  0  0  0  0
   -6.1900   21.7690  -32.1070 C   0  0  0  0  0  0  0  0  0  0  0  0
   -5.4020   22.9160  -31.9310 C   0  0  0  0  0  0  0  0  0  0  0  0
   -5.7180   23.8470  -30.9230 C   0  0  0  0  0  0  0  0  0  0  0  0
   -4.9140   25.0270  -30.7370 N   0  0  0  0  0  0  0  0  0  0  0  0
   -5.4430   26.1580  -30.6900 O   0  0  0  0  0  0  0  0  0  0  0  0
   -3.5480   24.9290  -30.6070 O   0  0  0  0  0  0  0  0  0  0  0  0
   -6.8320   23.6100  -30.0990 C   0  0  0  0  0  0  0  0  0  0  0  0
   -7.6180   22.4670  -30.2740 C   0  0  0  0  0  0  0  0  0  0  0  0
   -7.3030   21.5440  -31.2740 C   0  0  0  0  0  0  0  0  0  0  0  0
   -8.0540   20.4600  -31.4370 O   0  0  0  0  0  0  0  0  0  0  0  0
   -7.8040   19.5460  -32.3700 C   0  0  0  0  0  0  0  0  0  0  0  0
   -8.5570   18.5410  -32.4660 O   0  0  0  0  0  0  0  0  0  0  0  0
   -2.4315   21.8067  -28.9925 H   0  0  0  0  0  0  0  0  0  0  0  0
   -4.0297   21.9409  -29.8015 H   0  0  0  0  0  0  0  0  0  0  0  0
   -3.1518   20.3738  -29.8015 H   0  0  0  0  0  0  0  0  0  0  0  0
   -3.0680   22.4034  -31.7775 H   0  0  0  0  0  0  0  0  0  0  0  0
   -1.4642   22.4545  -30.8637 H   0  0  0  0  0  0  0  0  0  0  0  0
   -2.2440   19.8670  -31.5740 H   0  0  0  0  0  0  0  0  0  0  0  0
    0.0786   21.1996  -31.1303 H   0  0  0  0  0  0  0  0  0  0  0  0
   -0.1682   19.4607  -31.5963 H   0  0  0  0  0  0  0  0  0  0  0  0
    1.4005   21.1040  -33.0315 H   0  0  0  0  0  0  0  0  0  0  0  0
    0.4076   19.8149  -33.7925 H   0  0  0  0  0  0  0  0  0  0  0  0
   -0.1740   21.5144  -33.7925 H   0  0  0  0  0  0  0  0  0  0  0  0
   -3.0080   21.5596  -33.4907 H   0  0  0  0  0  0  0  0  0  0  0  0
   -1.3948   20.8515  -34.0150 H   0  0  0  0  0  0  0  0  0  0  0  0
   -3.6170   19.6480  -34.7050 H   0  0  0  0  0  0  0  0  0  0  0  0
   -2.2063   18.6989  -34.1159 H   0  0  0  0  0  0  0  0  0  0  0  0
   -3.7643   16.9444  -33.3949 H   0  0  0  0  0  0  0  0  0  0  0  0
   -5.1862   17.4621  -32.4328 H   0  0  0  0  0  0  0  0  0  0  0  0
   -4.6171   18.7898  -35.1022 H   0  0  0  0  0  0  0  0  0  0  0  0
   -5.3956   17.1612  -35.0546 H   0  0  0  0  0  0  0  0  0  0  0  0
   -5.0367   20.9762  -33.7678 H   0  0  0  0  0  0  0  0  0  0  0  0
   -4.5333   23.0889  -32.5833 H   0  0  0  0  0  0  0  0  0  0  0  0
   -7.0879   24.3310  -29.3086 H   0  0  0  0  0  0  0  0  0  0  0  0
   -8.4871   22.2941  -29.6222 H   0  0  0  0  0  0  0  0  0  0  0  0
  1  2  1  0
  2  3  1  0
  3  4  1  0
  4  5  1  0
  3  6  1  0
  6  7  1  0
  7  8  1  0
  8  9  1  0
  9 10  1  0
 10 11  1  0
 11 12  1  0
 12 13  2  0
 13 14  1  0
 14 15  2  0
 15 16  1  0
 16 17  1  0
 17 18  2  0
 17 19  1  0
 16 20  2  0
 20 21  1  0
 21 22  2  0
 22 23  1  0
 23 24  1  0
 24 25  2  0
 24 12  1  0
 22 14  1  0
  1 26  1  0
  1 27  1  0
  1 28  1  0
  2 29  1  0
  2 30  1  0
  3 31  1  0
  4 32  1  0
  4 33  1  0
  5 34  1  0
  5 35  1  0
  5 36  1  0
  6 37  1  0
  6 38  1  0
  7 39  1  0
  7 40  1  0
  9 41  1  0
  9 42  1  0
 10 43  1  0
 10 44  1  0
 13 45  1  0
 15 46  1  0
 20 47  1  0
 21 48  1  0
M  CHG  3   3   1  17   1  19  -1
M  END
>  <UniqueID>  (11) 
11

>  <SMILES>  (11) 
CC[NH+](CC)CCOCCOc1cc2cc([N+](=O)[O-])ccc2oc1=O

>  <Energy>  (11) 
60.474216554421005

>  <Genealogy>  (11) 
CC[NH+](CC)CCOCCOc1cc2cc([N+](=O)[O-])ccc2oc1=O (protonated)
CC[NH+](CC)CCOCCOc1cc2cc([N+](=O)[O-])ccc2oc1=O (3D coordinates assigned)
CC[NH+](CC)CCOCCOc1cc2cc([N+](=O)[O-])ccc2oc1=O (optimized conformer: 60.474216554421005 kcal/mol)

>  <smiles>  (11) 
CCN(CC)CCOCCOc1cc2cc([N+](=O)[O-])ccc2oc1=O

>  <score_type>  (11) 
oracle

>  <origin>  (11) 
adg

>  <m_score__min__energy>  (11) 
-7.71

>  <m_primary>  (11) 
energy

$$$$
11:0
     RDKit          3D

 49 50  0  0  0  0  0  0  0  0999 V2000
   -6.1450   25.3510  -29.5980 C   0  0  0  0  0  0  0  0  0  0  0  0
   -5.4270   25.2910  -30.9450 C   0  0  0  0  0  0  0  0  0  0  0  0
   -4.2330   24.4360  -30.8350 N   0  0  0  0  0  0  0  0  0  0  0  0
   -3.8310   24.2390  -29.4310 C   0  0  0  0  0  0  0  0  0  0  0  0
   -4.1060   22.8040  -28.9560 C   0  0  0  0  0  0  0  0  0  0  0  0
   -3.5300   21.7570  -29.9290 C   0  0  0  0  0  0  0  0  0  0  0  0
   -2.6210   22.3250  -30.9350 N   0  0  0  0  0  0  0  0  0  0  0  0
   -2.1620   21.3880  -31.9680 C   0  0  0  0  0  0  0  0  0  0  0  0
   -2.9740   21.4500  -33.2730 C   0  0  0  0  0  0  0  0  0  0  0  0
   -4.2860   22.1180  -33.1270 N   0  0  0  0  0  0  0  0  0  0  0  0
   -5.3370   21.1780  -32.7870 C   0  0  0  0  0  0  0  0  0  0  0  0
   -5.0390   19.8120  -32.8620 C   0  0  0  0  0  0  0  0  0  0  0  0
   -6.0060   18.8580  -32.5860 C   0  0  0  0  0  0  0  0  0  0  0  0
   -7.2730   19.2170  -32.2220 N   0  0  0  0  0  0  0  0  0  0  0  0
   -8.2420   18.1420  -31.9500 C   0  0  0  0  0  0  0  0  0  0  0  0
   -7.6210   20.5470  -32.1270 C   0  0  0  0  0  0  0  0  0  0  0  0
   -8.9330   20.9330  -31.7590 C   0  0  0  0  0  0  0  0  0  0  0  0
   -9.2850   22.2760  -31.6660 C   0  0  0  0  0  0  0  0  0  0  0  0
   -8.3490   23.2660  -31.9380 C   0  0  0  0  0  0  0  0  0  0  0  0
   -7.0480   22.9220  -32.3030 C   0  0  0  0  0  0  0  0  0  0  0  0
   -6.6550   21.5660  -32.4050 C   0  0  0  0  0  0  0  0  0  0  0  0
   -5.4060   25.2892  -28.7855 H   0  0  0  0  0  0  0  0  0  0  0  0
   -6.6982   26.2985  -29.5193 H   0  0  0  0  0  0  0  0  0  0  0  0
   -6.8478   24.5085  -29.5193 H   0  0  0  0  0  0  0  0  0  0  0  0
   -6.1064   24.8740  -31.7029 H   0  0  0  0  0  0  0  0  0  0  0  0
   -5.1217   26.3058  -31.2399 H   0  0  0  0  0  0  0  0  0  0  0  0
   -4.4760   23.4950  -31.2320 H   0  0  0  0  0  0  0  0  0  0  0  0
   -2.7547   24.4456  -29.3362 H   0  0  0  0  0  0  0  0  0  0  0  0
   -4.4212   24.9255  -28.8063 H   0  0  0  0  0  0  0  0  0  0  0  0
   -3.6453   22.6621  -27.9672 H   0  0  0  0  0  0  0  0  0  0  0  0
   -5.1959   22.6631  -28.9092 H   0  0  0  0  0  0  0  0  0  0  0  0
   -2.9769   21.0067  -29.3449 H   0  0  0  0  0  0  0  0  0  0  0  0
   -4.3805   21.3203  -30.4730 H   0  0  0  0  0  0  0  0  0  0  0  0
   -3.1140   23.1130  -31.4130 H   0  0  0  0  0  0  0  0  0  0  0  0
   -1.1122   21.6183  -32.2023 H   0  0  0  0  0  0  0  0  0  0  0  0
   -2.2919   20.3749  -31.5597 H   0  0  0  0  0  0  0  0  0  0  0  0
   -2.3857   22.0004  -34.0220 H   0  0  0  0  0  0  0  0  0  0  0  0
   -3.1743   20.4117  -33.5761 H   0  0  0  0  0  0  0  0  0  0  0  0
   -4.5040   22.7150  -33.9520 H   0  0  0  0  0  0  0  0  0  0  0  0
   -4.2060   22.7980  -32.3340 H   0  0  0  0  0  0  0  0  0  0  0  0
   -4.0249   19.4919  -33.1434 H   0  0  0  0  0  0  0  0  0  0  0  0
   -5.7483   17.7913  -32.6615 H   0  0  0  0  0  0  0  0  0  0  0  0
   -8.3550   18.0166  -30.8630 H   0  0  0  0  0  0  0  0  0  0  0  0
   -9.2145   18.4045  -32.3919 H   0  0  0  0  0  0  0  0  0  0  0  0
   -7.8803   17.2018  -32.3919 H   0  0  0  0  0  0  0  0  0  0  0  0
   -9.6850   20.1596  -31.5435 H   0  0  0  0  0  0  0  0  0  0  0  0
  -10.3087   22.5550  -31.3759 H   0  0  0  0  0  0  0  0  0  0  0  0
   -8.6354   24.3255  -31.8651 H   0  0  0  0  0  0  0  0  0  0  0  0
   -6.3165   23.7158  -32.5147 H   0  0  0  0  0  0  0  0  0  0  0  0
  1  2  1  0
  2  3  1  0
  3  4  1  0
  4  5  1  0
  5  6  1  0
  6  7  1  0
  7  8  1  0
  8  9  1  0
  9 10  1  0
 10 11  1  0
 11 12  2  0
 12 13  1  0
 13 14  2  0
 14 15  1  0
 14 16  1  0
 16 17  2  0
 17 18  1  0
 18 19  2  0
 19 20  1  0
 20 21  2  0
 21 11  1  0
 21 16  1  0
  1 22  1  0
  1 23  1  0
  1 24  1  0
  2 25  1  0
  2 26  1  0
  3 27  1  0
  4 28  1  0
  4 29  1  0
  5 30  1  0
  5 31  1  0
  6 32  1  0
  6 33  1  0
  7 34  1  0
  8 35  1  0
  8 36  1  0
  9 37  1  0
  9 38  1  0
 10 39  1  0
 10 40  1  0
 12 41  1  0
 13 42  1  0
 15 43  1  0
 15 44  1  0
 15 45  1  0
 17 46  1  0
 18 47  1  0
 19 48  1  0
 20 49  1  0
M  CHG  2  10   1  14   1
M  END
>  <UniqueID>  (12) 
12

>  <SMILES>  (12) 
CCNCCCNCC[NH2+]c1cc[n+](C)c2ccccc12

>  <Energy>  (12) 
55.495964275117586

>  <Genealogy>  (12) 
CCNCCCNCC[NH2+]c1cc[n+](C)c2ccccc12 (protonated)
CCNCCCNCC[NH2+]c1cc[n+](C)c2ccccc12 (3D coordinates assigned)
CCNCCCNCC[NH2+]c1cc[n+](C)c2ccccc12 (optimized conformer: 55.495964275117586 kcal/mol)

>  <smiles>  (12) 
CCNCCCNCCNc1cc[n+](C)c2ccccc12

>  <score_type>  (12) 
oracle

>  <origin>  (12) 
adg

>  <m_score__min__energy>  (12) 
-6.6100000000000003

>  <m_primary>  (12) 
energy

$$$$
12:0
     RDKit          3D

 55 57  0  0  0  0  0  0  0  0999 V2000
   -3.0470   15.9810  -34.5700 C   0  0  0  0  0  0  0  0  0  0  0  0
   -3.9750   16.0820  -33.3550 C   0  0  0  0  0  0  0  0  0  0  0  0
   -5.0740   17.0500  -33.5860 N   0  0  0  0  0  0  0  0  0  0  0  0
   -6.2980   16.3630  -34.0370 C   0  0  0  0  0  0  0  0  0  0  0  0
   -4.6730   18.0840  -34.5730 C   0  0  0  0  0  0  0  0  0  0  0  0
   -4.1960   19.3670  -33.8620 C   0  0  0  0  0  0  0  0  0  0  0  0
   -4.1340   19.2200  -32.3900 N   0  0  0  0  0  0  0  0  0  0  0  0
   -4.9920   20.1780  -31.7030 C   0  0  0  0  0  0  0  0  0  0  0  0
   -6.3990   20.0810  -31.8090 C   0  0  0  0  0  0  0  0  0  0  0  0
   -7.0380   18.8450  -32.0480 C   0  0  0  0  0  0  0  0  0  0  0  0
   -8.4270   18.7690  -32.1430 C   0  0  0  0  0  0  0  0  0  0  0  0
   -9.2020   19.9150  -31.9980 C   0  0  0  0  0  0  0  0  0  0  0  0
   -8.5910   21.1460  -31.7720 C   0  0  0  0  0  0  0  0  0  0  0  0
   -7.1810   21.2580  -31.6900 C   0  0  0  0  0  0  0  0  0  0  0  0
   -6.5610   22.4780  -31.5180 N   0  0  0  0  0  0  0  0  0  0  0  0
   -7.3000   23.7270  -31.8010 C   0  0  0  0  0  0  0  0  0  0  0  0
   -5.2520   22.5220  -31.0790 C   0  0  0  0  0  0  0  0  0  0  0  0
   -4.6780   23.7210  -30.5930 C   0  0  0  0  0  0  0  0  0  0  0  0
   -3.3580   23.7570  -30.1250 C   0  0  0  0  0  0  0  0  0  0  0  0
   -2.7440   24.9440  -29.6920 O   0  0  0  0  0  0  0  0  0  0  0  0
   -1.8700   25.0380  -28.5690 C   0  0  0  0  0  0  0  0  0  0  0  0
   -2.6280   22.5780  -30.0530 C   0  0  0  0  0  0  0  0  0  0  0  0
   -3.1780   21.3550  -30.4730 C   0  0  0  0  0  0  0  0  0  0  0  0
   -2.5120   20.1460  -30.2100 O   0  0  0  0  0  0  0  0  0  0  0  0
   -1.2450   20.0330  -29.5680 C   0  0  0  0  0  0  0  0  0  0  0  0
   -4.4560   21.3430  -31.0950 C   0  0  0  0  0  0  0  0  0  0  0  0
   -2.0074   15.8678  -34.2289 H   0  0  0  0  0  0  0  0  0  0  0  0
   -3.3309   15.1084  -35.1767 H   0  0  0  0  0  0  0  0  0  0  0  0
   -3.1365   16.8942  -35.1767 H   0  0  0  0  0  0  0  0  0  0  0  0
   -4.4085   15.0913  -33.1537 H   0  0  0  0  0  0  0  0  0  0  0  0
   -3.3820   16.4332  -32.4977 H   0  0  0  0  0  0  0  0  0  0  0  0
   -6.8791   16.0369  -33.1618 H   0  0  0  0  0  0  0  0  0  0  0  0
   -6.9037   17.0530  -34.6429 H   0  0  0  0  0  0  0  0  0  0  0  0
   -6.0245   15.4866  -34.6429 H   0  0  0  0  0  0  0  0  0  0  0  0
   -3.8547   17.6909  -35.1942 H   0  0  0  0  0  0  0  0  0  0  0  0
   -5.5443   18.3310  -35.1973 H   0  0  0  0  0  0  0  0  0  0  0  0
   -3.1917   19.6209  -34.2321 H   0  0  0  0  0  0  0  0  0  0  0  0
   -4.9262   20.1590  -34.0845 H   0  0  0  0  0  0  0  0  0  0  0  0
   -4.3990   18.2460  -32.1200 H   0  0  0  0  0  0  0  0  0  0  0  0
   -3.1290   19.3290  -32.1420 H   0  0  0  0  0  0  0  0  0  0  0  0
   -6.4339   17.9326  -32.1604 H   0  0  0  0  0  0  0  0  0  0  0  0
   -8.9114   17.7999  -32.3332 H   0  0  0  0  0  0  0  0  0  0  0  0
  -10.2982   19.8489  -32.0619 H   0  0  0  0  0  0  0  0  0  0  0  0
   -9.2131   22.0457  -31.6553 H   0  0  0  0  0  0  0  0  0  0  0  0
   -7.5843   24.2076  -30.8533 H   0  0  0  0  0  0  0  0  0  0  0  0
   -6.6597   24.4087  -32.3801 H   0  0  0  0  0  0  0  0  0  0  0  0
   -8.2057   23.4940  -32.3801 H   0  0  0  0  0  0  0  0  0  0  0  0
   -5.2796   24.6418  -30.5826 H   0  0  0  0  0  0  0  0  0  0  0  0
   -2.4573   24.9748  -27.6410 H   0  0  0  0  0  0  0  0  0  0  0  0
   -1.1433   24.2128  -28.5999 H   0  0  0  0  0  0  0  0  0  0  0  0
   -1.3353   25.9988  -28.5999 H   0  0  0  0  0  0  0  0  0  0  0  0
   -1.6008   22.6018  -29.6602 H   0  0  0  0  0  0  0  0  0  0  0  0
   -1.3844   20.0454  -28.4769 H   0  0  0  0  0  0  0  0  0  0  0  0
   -0.7660   19.0886  -29.8657 H   0  0  0  0  0  0  0  0  0  0  0  0
   -0.6065   20.8778  -29.8657 H   0  0  0  0  0  0  0  0  0  0  0  0
  1  2  1  0
  2  3  1  0
  3  4  1  0
  3  5  1  0
  5  6  1  0
  6  7  1  0
  7  8  1  0
  8  9  2  0
  9 10  1  0
 10 11  2  0
 11 12  1  0
 12 13  2  0
 13 14  1  0
 14 15  2  0
 15 16  1  0
 15 17  1  0
 17 18  2  0
 18 19  1  0
 19 20  1  0
 20 21  1  0
 19 22  2  0
 22 23  1  0
 23 24  1  0
 24 25  1  0
 23 26  2  0
 26  8  1  0
 14  9  1  0
 26 17  1  0
  1 27  1  0
  1 28  1  0
  1 29  1  0
  2 30  1  0
  2 31  1  0
  4 32  1  0
  4 33  1  0
  4 34  1  0
  5 35  1  0
  5 36  1  0
  6 37  1  0
  6 38  1  0
  7 39  1  0
  7 40  1  0
 10 41  1  0
 11 42  1  0
 12 43  1  0
 13 44  1  0
 16 45  1  0
 16 46  1  0
 16 47  1  0
 18 48  1  0
 21 49  1  0
 21 50  1  0
 21 51  1  0
 22 52  1  0
 25 53  1  0
 25 54  1  0
 25 55  1  0
M  CHG  2   7   1  15   1
M  END
>  <UniqueID>  (13) 
13

>  <SMILES>  (13) 
CCN(C)CC[NH2+]c1c2ccccc2[n+](C)c2cc(OC)cc(OC)c12

>  <Energy>  (13) 
90.56034594732634

>  <Genealogy>  (13) 
CCN(C)CC[NH2+]c1c2ccccc2[n+](C)c2cc(OC)cc(OC)c12 (protonated)
CCN(C)CC[NH2+]c1c2ccccc2[n+](C)c2cc(OC)cc(OC)c12 (3D coordinates assigned)
CCN(C)CC[NH2+]c1c2ccccc2[n+](C)c2cc(OC)cc(OC)c12 (optimized conformer: 90.56034594732634 kcal/mol)

>  <smiles>  (13) 
CCN(C)CCNc1c2ccccc2[n+](C)c2cc(OC)cc(OC)c12

>  <score_type>  (13) 
oracle

>  <origin>  (13) 
adg

>  <m_score__min__energy>  (13) 
-6.2400000000000002

>  <m_primary>  (13) 
energy

$$$$
13:0
     RDKit          3D

 77 80  0  0  0  0  0  0  0  0999 V2000
   -2.7170   25.0000  -26.5220 C   0  0  0  0  0  0  0  0  0  0  0  0
   -4.2340   24.8250  -26.5720 C   0  0  0  0  0  0  0  0  0  0  0  0
   -4.6850   24.5560  -27.9460 N   0  0  0  0  0  0  0  0  0  0  0  0
   -3.8580   23.5080  -28.5650 C   0  0  0  0  0  0  0  0  0  0  0  0
   -3.9570   23.5540  -30.0920 C   0  0  0  0  0  0  0  0  0  0  0  0
   -4.3000   24.8620  -30.5010 O   0  0  0  0  0  0  0  0  0  0  0  0
   -5.6760   24.9480  -30.8190 C   0  0  0  0  0  0  0  0  0  0  0  0
   -6.2910   23.5560  -31.0050 C   0  0  0  0  0  0  0  0  0  0  0  0
   -6.0190   23.0250  -32.3410 N   0  0  0  0  0  0  0  0  0  0  0  0
   -5.9240   21.6100  -32.5530 C   0  0  0  0  0  0  0  0  0  0  0  0
   -7.0670   20.8000  -32.4530 C   0  0  0  0  0  0  0  0  0  0  0  0
   -8.3340   21.3650  -32.1950 C   0  0  0  0  0  0  0  0  0  0  0  0
   -9.4520   20.5540  -32.0220 C   0  0  0  0  0  0  0  0  0  0  0  0
   -9.3270   19.1720  -32.0960 C   0  0  0  0  0  0  0  0  0  0  0  0
   -8.0920   18.5920  -32.3850 C   0  0  0  0  0  0  0  0  0  0  0  0
   -6.9440   19.3940  -32.6170 C   0  0  0  0  0  0  0  0  0  0  0  0
   -5.7300   18.8400  -32.9810 N   0  0  0  0  0  0  0  0  0  0  0  0
   -5.6640   17.4320  -33.4380 C   0  0  0  0  0  0  0  0  0  0  0  0
   -4.5830   19.6140  -32.9620 C   0  0  0  0  0  0  0  0  0  0  0  0
   -3.2930   19.0380  -33.0960 C   0  0  0  0  0  0  0  0  0  0  0  0
   -2.1380   19.8370  -33.1770 C   0  0  0  0  0  0  0  0  0  0  0  0
   -0.8540   19.3000  -33.3770 O   0  0  0  0  0  0  0  0  0  0  0  0
    0.2100   19.3110  -32.4230 C   0  0  0  0  0  0  0  0  0  0  0  0
    1.5420   18.8960  -33.0980 C   0  0  0  0  0  0  0  0  0  0  0  0
    1.8450   19.5410  -34.4210 N   0  0  0  0  0  0  0  0  0  0  0  0
    3.2680   19.2190  -34.7220 C   0  0  0  0  0  0  0  0  0  0  0  0
    1.7150   21.0390  -34.3500 C   0  0  0  0  0  0  0  0  0  0  0  0
    0.3980   21.5680  -34.9440 C   0  0  0  0  0  0  0  0  0  0  0  0
    0.2710   21.1920  -36.4270 C   0  0  0  0  0  0  0  0  0  0  0  0
    0.8920   19.8210  -36.7500 C   0  0  0  0  0  0  0  0  0  0  0  0
    0.9930   18.9320  -35.4980 C   0  0  0  0  0  0  0  0  0  0  0  0
   -2.2590   21.2180  -33.0530 C   0  0  0  0  0  0  0  0  0  0  0  0
   -3.5050   21.8060  -32.8480 C   0  0  0  0  0  0  0  0  0  0  0  0
   -4.6720   21.0190  -32.7910 C   0  0  0  0  0  0  0  0  0  0  0  0
   -2.3867   25.0381  -25.4735 H   0  0  0  0  0  0  0  0  0  0  0  0
   -2.2332   24.1517  -27.0283 H   0  0  0  0  0  0  0  0  0  0  0  0
   -2.4390   25.9362  -27.0283 H   0  0  0  0  0  0  0  0  0  0  0  0
   -4.5209   23.9815  -25.9269 H   0  0  0  0  0  0  0  0  0  0  0  0
   -4.7073   25.7541  -26.2217 H   0  0  0  0  0  0  0  0  0  0  0  0
   -5.6850   24.2450  -27.9220 H   0  0  0  0  0  0  0  0  0  0  0  0
   -4.6080   25.4340  -28.5140 H   0  0  0  0  0  0  0  0  0  0  0  0
   -2.8091   23.6570  -28.2689 H   0  0  0  0  0  0  0  0  0  0  0  0
   -4.2227   22.5286  -28.2218 H   0  0  0  0  0  0  0  0  0  0  0  0
   -2.9880   23.2745  -30.5311 H   0  0  0  0  0  0  0  0  0  0  0  0
   -4.7297   22.8485  -30.4314 H   0  0  0  0  0  0  0  0  0  0  0  0
   -6.2010   25.4659  -30.0028 H   0  0  0  0  0  0  0  0  0  0  0  0
   -5.7810   25.5037  -31.7625 H   0  0  0  0  0  0  0  0  0  0  0  0
   -5.8645   22.8735  -30.2552 H   0  0  0  0  0  0  0  0  0  0  0  0
   -7.3808   23.6404  -30.8819 H   0  0  0  0  0  0  0  0  0  0  0  0
   -5.7490   23.6630  -33.1250 H   0  0  0  0  0  0  0  0  0  0  0  0
   -8.4393   22.4580  -32.1299 H   0  0  0  0  0  0  0  0  0  0  0  0
  -10.4350   21.0073  -31.8266 H   0  0  0  0  0  0  0  0  0  0  0  0
  -10.2059   18.5327  -31.9259 H   0  0  0  0  0  0  0  0  0  0  0  0
   -8.0063   17.4964  -32.4339 H   0  0  0  0  0  0  0  0  0  0  0  0
   -5.6327   16.7641  -32.5645 H   0  0  0  0  0  0  0  0  0  0  0  0
   -6.5523   17.2013  -34.0444 H   0  0  0  0  0  0  0  0  0  0  0  0
   -4.7580   17.2854  -34.0444 H   0  0  0  0  0  0  0  0  0  0  0  0
   -3.1941   17.9432  -33.1374 H   0  0  0  0  0  0  0  0  0  0  0  0
    0.3141   20.3241  -32.0072 H   0  0  0  0  0  0  0  0  0  0  0  0
   -0.0221   18.5961  -31.6199 H   0  0  0  0  0  0  0  0  0  0  0  0
    2.3605   19.1467  -32.4072 H   0  0  0  0  0  0  0  0  0  0  0  0
    1.4417   17.8214  -33.3107 H   0  0  0  0  0  0  0  0  0  0  0  0
    3.8226   19.0935  -33.7804 H   0  0  0  0  0  0  0  0  0  0  0  0
    3.3178   18.2869  -35.3039 H   0  0  0  0  0  0  0  0  0  0  0  0
    3.7143   20.0389  -35.3039 H   0  0  0  0  0  0  0  0  0  0  0  0
    1.7684   21.3438  -33.2944 H   0  0  0  0  0  0  0  0  0  0  0  0
    2.5344   21.4643  -34.9481 H   0  0  0  0  0  0  0  0  0  0  0  0
   -0.4466   21.1332  -34.3894 H   0  0  0  0  0  0  0  0  0  0  0  0
    0.3919   22.6647  -34.8596 H   0  0  0  0  0  0  0  0  0  0  0  0
   -0.7961   21.1659  -36.6928 H   0  0  0  0  0  0  0  0  0  0  0  0
    0.8180   21.9487  -37.0086 H   0  0  0  0  0  0  0  0  0  0  0  0
    0.2653   19.3133  -37.4980 H   0  0  0  0  0  0  0  0  0  0  0  0
    1.9089   19.9876  -37.1349 H   0  0  0  0  0  0  0  0  0  0  0  0
   -0.0190   18.7719  -35.0976 H   0  0  0  0  0  0  0  0  0  0  0  0
    1.4657   17.9858  -35.8000 H   0  0  0  0  0  0  0  0  0  0  0  0
   -1.3619   21.8513  -33.1175 H   0  0  0  0  0  0  0  0  0  0  0  0
   -3.5785   22.8971  -32.7293 H   0  0  0  0  0  0  0  0  0  0  0  0
  1  2  1  0
  2  3  1  0
  3  4  1  0
  4  5  1  0
  5  6  1  0
  6  7  1  0
  7  8  1  0
  8  9  1  0
  9 10  1  0
 10 11  2  0
 11 12  1  0
 12 13  2  0
 13 14  1  0
 14 15  2  0
 15 16  1  0
 16 17  2  0
 17 18  1  0
 17 19  1  0
 19 20  2  0
 20 21  1  0
 21 22  1  0
 22 23  1  0
 23 24  1  0
 24 25  1  0
 25 26  1  0
 25 27  1  0
 27 28  1  0
 28 29  1  0
 29 30  1  0
 30 31  1  0
 21 32  2  0
 32 33  1  0
 33 34  2  0
 34 10  1  0
 16 11  1  0
 34 19  1  0
 31 25  1  0
  1 35  1  0
  1 36  1  0
  1 37  1  0
  2 38  1  0
  2 39  1  0
  3 40  1  0
  3 41  1  0
  4 42  1  0
  4 43  1  0
  5 44  1  0
  5 45  1  0
  7 46  1  0
  7 47  1  0
  8 48  1  0
  8 49  1  0
  9 50  1  0
 12 51  1  0
 13 52  1  0
 14 53  1  0
 15 54  1  0
 18 55  1  0
 18 56  1  0
 18 57  1  0
 20 58  1  0
 23 59  1  0
 23 60  1  0
 24 61  1  0
 24 62  1  0
 26 63  1  0
 26 64  1  0
 26 65  1  0
 27 66  1  0
 27 67  1  0
 28 68  1  0
 28 69  1  0
 29 70  1  0
 29 71  1  0
 30 72  1  0
 30 73  1  0
 31 74  1  0
 31 75  1  0
 32 76  1  0
 33 77  1  0
M  CHG  3   3   1  17   1  25   1
M  END
>  <UniqueID>  (14) 
14

>  <SMILES>  (14) 
CC[NH2+]CCOCCNc1c2ccccc2[n+](C)c2cc(OCC[N+]3(C)CCCCC3)ccc12

>  <Energy>  (14) 
116.35632028356592

>  <Genealogy>  (14) 
CC[NH2+]CCOCCNc1c2ccccc2[n+](C)c2cc(OCC[N+]3(C)CCCCC3)ccc12 (protonated)
CC[NH2+]CCOCCNc1c2ccccc2[n+](C)c2cc(OCC[N+]3(C)CCCCC3)ccc12 (3D coordinates assigned)
CC[NH2+]CCOCCNc1c2ccccc2[n+](C)c2cc(OCC[N+]3(C)CCCCC3)ccc12 (nonaromatic ring conformer: 116.35632028356592 kcal/mol)

>  <smiles>  (14) 
CCNCCOCCNc1c2ccccc2[n+](C)c2cc(OCC[N+]3(C)CCCCC3)ccc12

>  <score_type>  (14) 
oracle

>  <origin>  (14) 
adg

>  <m_score__min__energy>  (14) 
-8.4299999999999997

>  <m_primary>  (14) 
energy

$$$$
14:0
     RDKit          3D

 50 52  0  0  0  0  0  0  0  0999 V2000
    1.4500   27.6070  -24.0190 C   0  0  0  0  0  0  0  0  0  0  0  0
    0.6490   27.5650  -22.7900 N   0  0  0  0  0  0  0  0  0  0  0  0
   -0.5750   26.7590  -22.9450 C   0  0  0  0  0  0  0  0  0  0  0  0
   -0.6480   26.0610  -24.3140 C   0  0  0  0  0  0  0  0  0  0  0  0
   -1.5140   26.8230  -25.2270 N   0  0  0  0  0  0  0  0  0  0  0  0
   -1.9470   26.0360  -26.3980 C   0  0  0  0  0  0  0  0  0  0  0  0
   -3.2280   25.2660  -26.0360 C   0  0  0  0  0  0  0  0  0  0  0  0
   -3.7420   24.4770  -27.2490 C   0  0  0  0  0  0  0  0  0  0  0  0
   -2.6490   23.7950  -27.9560 N   0  0  0  0  0  0  0  0  0  0  0  0
   -2.9270   23.1510  -29.2130 C   0  0  0  0  0  0  0  0  0  0  0  0
   -1.8910   22.6870  -30.0400 C   0  0  0  0  0  0  0  0  0  0  0  0
   -2.2030   22.0970  -31.2640 C   0  0  0  0  0  0  0  0  0  0  0  0
   -3.5340   21.9760  -31.6630 C   0  0  0  0  0  0  0  0  0  0  0  0
   -4.5550   22.4550  -30.8240 C   0  0  0  0  0  0  0  0  0  0  0  0
   -5.9880   22.3700  -31.2060 C   0  0  0  0  0  0  0  0  0  0  0  0
   -6.7870   23.5250  -31.3260 C   0  0  0  0  0  0  0  0  0  0  0  0
   -8.1310   23.4210  -31.6950 C   0  0  0  0  0  0  0  0  0  0  0  0
   -8.6940   22.1700  -31.9520 C   0  0  0  0  0  0  0  0  0  0  0  0
   -7.9120   21.0170  -31.8460 C   0  0  0  0  0  0  0  0  0  0  0  0
   -8.6190   19.4450  -32.1730 Cl  0  0  0  0  0  0  0  0  0  0  0  0
   -6.5650   21.1160  -31.4790 C   0  0  0  0  0  0  0  0  0  0  0  0
   -4.2170   23.0330  -29.6370 N   0  0  0  0  0  0  0  0  0  0  0  0
   -1.3310   23.6940  -27.3130 C   0  0  0  0  0  0  0  0  0  0  0  0
   -0.8210   25.0870  -26.9130 C   0  0  0  0  0  0  0  0  0  0  0  0
    2.5174   27.6630  -23.7592 H   0  0  0  0  0  0  0  0  0  0  0  0
    1.2635   26.6978  -24.6095 H   0  0  0  0  0  0  0  0  0  0  0  0
    1.1694   28.4917  -24.6095 H   0  0  0  0  0  0  0  0  0  0  0  0
    1.2330   27.1970  -22.0040 H   0  0  0  0  0  0  0  0  0  0  0  0
    0.3690   28.5460  -22.5530 H   0  0  0  0  0  0  0  0  0  0  0  0
   -0.5956   25.9926  -22.1562 H   0  0  0  0  0  0  0  0  0  0  0  0
   -1.4363   27.4390  -22.8688 H   0  0  0  0  0  0  0  0  0  0  0  0
    0.3629   25.9949  -24.7425 H   0  0  0  0  0  0  0  0  0  0  0  0
   -1.0661   25.0523  -24.1809 H   0  0  0  0  0  0  0  0  0  0  0  0
   -2.3560   27.1600  -24.7010 H   0  0  0  0  0  0  0  0  0  0  0  0
   -2.1640   26.7218  -27.2302 H   0  0  0  0  0  0  0  0  0  0  0  0
   -3.0104   24.5668  -25.2151 H   0  0  0  0  0  0  0  0  0  0  0  0
   -4.0002   25.9856  -25.7264 H   0  0  0  0  0  0  0  0  0  0  0  0
   -4.4674   23.7254  -26.9042 H   0  0  0  0  0  0  0  0  0  0  0  0
   -4.2114   25.1867  -27.9461 H   0  0  0  0  0  0  0  0  0  0  0  0
   -0.8421   22.7883  -29.7246 H   0  0  0  0  0  0  0  0  0  0  0  0
   -1.3983   21.7264  -31.9160 H   0  0  0  0  0  0  0  0  0  0  0  0
   -3.7829   21.5091  -32.6274 H   0  0  0  0  0  0  0  0  0  0  0  0
   -6.3498   24.5148  -31.1279 H   0  0  0  0  0  0  0  0  0  0  0  0
   -8.7471   24.3280  -31.7832 H   0  0  0  0  0  0  0  0  0  0  0  0
   -9.7533   22.0918  -32.2380 H   0  0  0  0  0  0  0  0  0  0  0  0
   -5.9521   20.2057  -31.4033 H   0  0  0  0  0  0  0  0  0  0  0  0
   -1.4139   23.0665  -26.4134 H   0  0  0  0  0  0  0  0  0  0  0  0
   -0.6213   23.2451  -28.0235 H   0  0  0  0  0  0  0  0  0  0  0  0
   -0.0732   24.9684  -26.1150 H   0  0  0  0  0  0  0  0  0  0  0  0
   -0.3961   25.5485  -27.8166 H   0  0  0  0  0  0  0  0  0  0  0  0
  1  2  1  0
  2  3  1  0
  3  4  1  0
  4  5  1  0
  5  6  1  0
  6  7  1  0
  7  8  1  0
  8  9  1  0
  9 10  1  0
 10 11  2  0
 11 12  1  0
 12 13  2  0
 13 14  1  0
 14 15  1  0
 15 16  2  0
 16 17  1  0
 17 18  2  0
 18 19  1  0
 19 20  1  0
 19 21  2  0
 14 22  2  0
  9 23  1  0
 23 24  1  0
 24  6  1  0
 22 10  1  0
 21 15  1  0
  1 25  1  0
  1 26  1  0
  1 27  1  0
  2 28  1  0
  2 29  1  0
  3 30  1  0
  3 31  1  0
  4 32  1  0
  4 33  1  0
  5 34  1  0
  6 35  1  0
  7 36  1  0
  7 37  1  0
  8 38  1  0
  8 39  1  0
 11 40  1  0
 12 41  1  0
 13 42  1  0
 16 43  1  0
 17 44  1  0
 18 45  1  0
 21 46  1  0
 23 47  1  0
 23 48  1  0
 24 49  1  0
 24 50  1  0
M  CHG  1   2   1
M  END
>  <UniqueID>  (15) 
15

>  <SMILES>  (15) 
C[NH2+]CCNC1CCN(c2cccc(-c3cccc(Cl)c3)n2)CC1

>  <Energy>  (15) 
59.30780592464171

>  <Genealogy>  (15) 
C[NH2+]CCNC1CCN(c2cccc(-c3cccc(Cl)c3)n2)CC1 (protonated)
C[NH2+]CCNC1CCN(c2cccc(-c3cccc(Cl)c3)n2)CC1 (3D coordinates assigned)
C[NH2+]CCNC1CCN(c2cccc(-c3cccc(Cl)c3)n2)CC1 (nonaromatic ring conformer: 59.30780592464171 kcal/mol)

>  <smiles>  (15) 
CNCCNC1CCN(c2cccc(-c3cccc(Cl)c3)n2)CC1

>  <score_type>  (15) 
oracle

>  <origin>  (15) 
adg

>  <m_score__min__energy>  (15) 
-9.1500000000000004

>  <m_primary>  (15) 
energy

$$$$
15:0
     RDKit          3D

 65 68  0  0  0  0  0  0  0  0999 V2000
   -1.7680   19.4710  -26.7330 C   0  0  0  0  0  0  0  0  0  0  0  0
   -3.1130   19.9520  -27.2900 C   0  0  0  0  0  0  0  0  0  0  0  0
   -2.9560   21.0510  -28.2830 N   0  0  0  0  0  0  0  0  0  0  0  0
   -1.8060   20.7700  -29.1830 C   0  0  0  0  0  0  0  0  0  0  0  0
   -1.4960   21.9500  -30.1110 C   0  0  0  0  0  0  0  0  0  0  0  0
   -2.7700   22.3570  -27.5830 C   0  0  0  0  0  0  0  0  0  0  0  0
   -3.8890   23.3660  -27.9090 C   0  0  0  0  0  0  0  0  0  0  0  0
   -4.4360   23.1400  -29.1940 O   0  0  0  0  0  0  0  0  0  0  0  0
   -4.1840   24.2400  -30.0430 C   0  0  0  0  0  0  0  0  0  0  0  0
   -5.4730   24.5980  -30.7800 C   0  0  0  0  0  0  0  0  0  0  0  0
   -6.3710   23.3720  -30.9650 C   0  0  0  0  0  0  0  0  0  0  0  0
   -6.3080   22.8870  -32.3440 N   0  0  0  0  0  0  0  0  0  0  0  0
   -6.0760   21.4980  -32.6090 C   0  0  0  0  0  0  0  0  0  0  0  0
   -4.7980   21.0690  -32.9400 C   0  0  0  0  0  0  0  0  0  0  0  0
   -4.5320   19.7330  -33.1590 C   0  0  0  0  0  0  0  0  0  0  0  0
   -5.5300   18.7880  -33.1760 N   0  0  0  0  0  0  0  0  0  0  0  0
   -5.2630   17.4440  -33.7160 C   0  0  0  0  0  0  0  0  0  0  0  0
   -6.7970   19.1560  -32.7490 C   0  0  0  0  0  0  0  0  0  0  0  0
   -7.8210   18.2000  -32.5430 C   0  0  0  0  0  0  0  0  0  0  0  0
   -9.1050   18.5960  -32.1660 C   0  0  0  0  0  0  0  0  0  0  0  0
   -9.4000   19.9430  -31.9770 C   0  0  0  0  0  0  0  0  0  0  0  0
   -8.4070   20.9070  -32.1350 C   0  0  0  0  0  0  0  0  0  0  0  0
   -7.0970   20.5330  -32.4900 C   0  0  0  0  0  0  0  0  0  0  0  0
   -3.0850   19.5970  -33.3740 C   0  0  0  0  0  0  0  0  0  0  0  0
   -2.2530   18.4690  -33.4320 C   0  0  0  0  0  0  0  0  0  0  0  0
   -0.8690   18.6580  -33.5630 C   0  0  0  0  0  0  0  0  0  0  0  0
   -0.3260   19.9550  -33.5900 C   0  0  0  0  0  0  0  0  0  0  0  0
   -1.1610   21.0720  -33.4620 C   0  0  0  0  0  0  0  0  0  0  0  0
   -2.5370   20.8720  -33.3440 C   0  0  0  0  0  0  0  0  0  0  0  0
   -3.5700   21.9180  -33.0750 C   0  0  0  0  0  0  0  0  0  0  0  0
   -1.8011   19.4828  -25.6336 H   0  0  0  0  0  0  0  0  0  0  0  0
   -1.5714   18.4468  -27.0829 H   0  0  0  0  0  0  0  0  0  0  0  0
   -0.9665   20.1382  -27.0829 H   0  0  0  0  0  0  0  0  0  0  0  0
   -3.6168   19.1045  -27.7778 H   0  0  0  0  0  0  0  0  0  0  0  0
   -3.7042   20.3423  -26.4485 H   0  0  0  0  0  0  0  0  0  0  0  0
   -3.8260   21.0950  -28.8670 H   0  0  0  0  0  0  0  0  0  0  0  0
   -0.9182   20.5597  -28.5685 H   0  0  0  0  0  0  0  0  0  0  0  0
   -2.0714   19.9068  -29.8110 H   0  0  0  0  0  0  0  0  0  0  0  0
   -1.2623   22.8395  -29.5075 H   0  0  0  0  0  0  0  0  0  0  0  0
   -0.6329   21.7004  -30.7457 H   0  0  0  0  0  0  0  0  0  0  0  0
   -2.3703   22.1568  -30.7457 H   0  0  0  0  0  0  0  0  0  0  0  0
   -2.7619   22.1776  -26.4978 H   0  0  0  0  0  0  0  0  0  0  0  0
   -1.8192   22.7890  -27.9285 H   0  0  0  0  0  0  0  0  0  0  0  0
   -4.6876   23.2681  -27.1589 H   0  0  0  0  0  0  0  0  0  0  0  0
   -3.4561   24.3771  -27.8924 H   0  0  0  0  0  0  0  0  0  0  0  0
   -3.8493   25.1000  -29.4444 H   0  0  0  0  0  0  0  0  0  0  0  0
   -3.3985   23.9804  -30.7680 H   0  0  0  0  0  0  0  0  0  0  0  0
   -6.0183   25.3564  -30.1991 H   0  0  0  0  0  0  0  0  0  0  0  0
   -5.2065   24.9846  -31.7748 H   0  0  0  0  0  0  0  0  0  0  0  0
   -6.0364   22.5738  -30.2861 H   0  0  0  0  0  0  0  0  0  0  0  0
   -7.4089   23.6568  -30.7378 H   0  0  0  0  0  0  0  0  0  0  0  0
   -6.1540   23.5610  -33.1280 H   0  0  0  0  0  0  0  0  0  0  0  0
   -5.1224   16.7365  -32.8856 H   0  0  0  0  0  0  0  0  0  0  0  0
   -6.1145   17.1209  -34.3329 H   0  0  0  0  0  0  0  0  0  0  0  0
   -4.3526   17.4709  -34.3329 H   0  0  0  0  0  0  0  0  0  0  0  0
   -7.6015   17.1311  -32.6820 H   0  0  0  0  0  0  0  0  0  0  0  0
   -9.8889   17.8388  -32.0173 H   0  0  0  0  0  0  0  0  0  0  0  0
  -10.4207   20.2473  -31.7020 H   0  0  0  0  0  0  0  0  0  0  0  0
   -8.6484   21.9691  -31.9811 H   0  0  0  0  0  0  0  0  0  0  0  0
   -2.6776   17.4558  -33.3758 H   0  0  0  0  0  0  0  0  0  0  0  0
   -0.2040   17.7856  -33.6452 H   0  0  0  0  0  0  0  0  0  0  0  0
    0.7585   20.0926  -33.7121 H   0  0  0  0  0  0  0  0  0  0  0  0
   -0.7400   22.0882  -33.4546 H   0  0  0  0  0  0  0  0  0  0  0  0
   -3.3555   22.4704  -32.1483 H   0  0  0  0  0  0  0  0  0  0  0  0
   -3.6386   22.7002  -33.8454 H   0  0  0  0  0  0  0  0  0  0  0  0
  1  2  1  0
  2  3  1  0
  3  4  1  0
  4  5  1  0
  3  6  1  0
  6  7  1  0
  7  8  1  0
  8  9  1  0
  9 10  1  0
 10 11  1  0
 11 12  1  0
 12 13  1  0
 13 14  2  0
 14 15  1  0
 15 16  2  0
 16 17  1  0
 16 18  1  0
 18 19  2  0
 19 20  1  0
 20 21  2  0
 21 22  1  0
 22 23  2  0
 15 24  1  0
 24 25  2  0
 25 26  1  0
 26 27  2  0
 27 28  1  0
 28 29  2  0
 29 30  1  0
 23 13  1  0
 29 24  1  0
 30 14  1  0
 23 18  1  0
  1 31  1  0
  1 32  1  0
  1 33  1  0
  2 34  1  0
  2 35  1  0
  3 36  1  0
  4 37  1  0
  4 38  1  0
  5 39  1  0
  5 40  1  0
  5 41  1  0
  6 42  1  0
  6 43  1  0
  7 44  1  0
  7 45  1  0
  9 46  1  0
  9 47  1  0
 10 48  1  0
 10 49  1  0
 11 50  1  0
 11 51  1  0
 12 52  1  0
 17 53  1  0
 17 54  1  0
 17 55  1  0
 19 56  1  0
 20 57  1  0
 21 58  1  0
 22 59  1  0
 25 60  1  0
 26 61  1  0
 27 62  1  0
 28 63  1  0
 30 64  1  0
 30 65  1  0
M  CHG  2   3   1  16   1
M  END
>  <UniqueID>  (16) 
16

>  <SMILES>  (16) 
CC[NH+](CC)CCOCCCNc1c2c([n+](C)c3ccccc13)-c1ccccc1C2

>  <Energy>  (16) 
109.92431767750293

>  <Genealogy>  (16) 
CC[NH+](CC)CCOCCCNc1c2c([n+](C)c3ccccc13)-c1ccccc1C2 (protonated)
CC[NH+](CC)CCOCCCNc1c2c([n+](C)c3ccccc13)-c1ccccc1C2 (3D coordinates assigned)
CC[NH+](CC)CCOCCCNc1c2c([n+](C)c3ccccc13)-c1ccccc1C2 (nonaromatic ring conformer: 109.92431767750293 kcal/mol)

>  <smiles>  (16) 
CCN(CC)CCOCCCNc1c2c([n+](C)c3ccccc13)-c1ccccc1C2

>  <score_type>  (16) 
oracle

>  <origin>  (16) 
adg

>  <m_score__min__energy>  (16) 
-7.6600000000000001

>  <m_primary>  (16) 
energy

$$$$
16:0
     RDKit          3D

 63 65  0  0  0  0  0  0  0  0999 V2000
    0.0710   18.1940  -31.5530 C   0  0  0  0  0  0  0  0  0  0  0  0
    0.0690   19.7010  -31.8070 C   0  0  0  0  0  0  0  0  0  0  0  0
   -0.9480   20.3980  -30.9860 N   0  0  0  0  0  0  0  0  0  0  0  0
   -1.5610   21.5360  -31.7110 C   0  0  0  0  0  0  0  0  0  0  0  0
   -1.9770   21.1020  -33.1150 C   0  0  0  0  0  0  0  0  0  0  0  0
   -0.5010   20.7560  -29.6140 C   0  0  0  0  0  0  0  0  0  0  0  0
   -0.8630   19.7400  -28.5130 C   0  0  0  0  0  0  0  0  0  0  0  0
   -0.5600   20.2610  -27.2320 O   0  0  0  0  0  0  0  0  0  0  0  0
   -1.6350   21.0340  -26.7260 C   0  0  0  0  0  0  0  0  0  0  0  0
   -1.5380   22.4850  -27.2280 C   0  0  2  0  0  0  0  0  0  0  0  0
   -0.8910   23.4160  -26.1700 C   0  0  0  0  0  0  0  0  0  0  0  0
   -1.3340   24.8800  -26.3210 C   0  0  0  0  0  0  0  0  0  0  0  0
   -1.6900   25.1990  -27.7720 C   0  0  0  0  0  0  0  0  0  0  0  0
   -2.8510   24.2940  -28.2640 C   0  0  1  0  0  0  0  0  0  0  0  0
   -2.8140   24.1100  -29.7930 C   0  0  0  0  0  0  0  0  0  0  0  0
   -3.6010   25.1420  -30.4670 N   0  0  0  0  0  0  0  0  0  0  0  0
   -4.9950   25.0400  -30.7980 C   0  0  0  0  0  0  0  0  0  0  0  0
   -5.7340   26.0470  -30.6300 O   0  0  0  0  0  0  0  0  0  0  0  0
   -5.5910   23.7850  -31.2910 C   0  0  0  0  0  0  0  0  0  0  0  0
   -4.7730   22.8000  -31.8630 C   0  0  0  0  0  0  0  0  0  0  0  0
   -5.3240   21.6050  -32.3350 C   0  0  0  0  0  0  0  0  0  0  0  0
   -6.7030   21.3740  -32.2250 C   0  0  0  0  0  0  0  0  0  0  0  0
   -7.2690   20.1780  -32.6930 C   0  0  0  0  0  0  0  0  0  0  0  0
   -8.6430   19.9550  -32.5690 C   0  0  0  0  0  0  0  0  0  0  0  0
   -9.4620   20.9210  -31.9780 C   0  0  0  0  0  0  0  0  0  0  0  0
   -8.9120   22.1190  -31.5080 C   0  0  0  0  0  0  0  0  0  0  0  0
   -7.5330   22.3550  -31.6290 C   0  0  0  0  0  0  0  0  0  0  0  0
   -6.9700   23.5510  -31.1600 C   0  0  0  0  0  0  0  0  0  0  0  0
   -2.8780   22.9680  -27.6050 N   0  0  0  0  0  0  0  0  0  0  0  0
    0.0713   18.0048  -30.4694 H   0  0  0  0  0  0  0  0  0  0  0  0
   -0.8265   17.7451  -32.0034 H   0  0  0  0  0  0  0  0  0  0  0  0
    0.9697   17.7474  -32.0034 H   0  0  0  0  0  0  0  0  0  0  0  0
    1.0623   20.1045  -31.5608 H   0  0  0  0  0  0  0  0  0  0  0  0
   -0.1753   19.8679  -32.8665 H   0  0  0  0  0  0  0  0  0  0  0  0
   -2.4475   21.8831  -31.1600 H   0  0  0  0  0  0  0  0  0  0  0  0
   -0.8259   22.3505  -31.7893 H   0  0  0  0  0  0  0  0  0  0  0  0
   -2.7366   20.3096  -33.0438 H   0  0  0  0  0  0  0  0  0  0  0  0
   -2.3954   21.9634  -33.6562 H   0  0  0  0  0  0  0  0  0  0  0  0
   -1.0986   20.7204  -33.6562 H   0  0  0  0  0  0  0  0  0  0  0  0
    0.5937   20.8620  -29.6309 H   0  0  0  0  0  0  0  0  0  0  0  0
   -1.0319   21.6841  -29.3555 H   0  0  0  0  0  0  0  0  0  0  0  0
   -1.9388   19.5171  -28.5669 H   0  0  0  0  0  0  0  0  0  0  0  0
   -0.2750   18.8237  -28.6702 H   0  0  0  0  0  0  0  0  0  0  0  0
   -2.5860   20.5967  -27.0642 H   0  0  0  0  0  0  0  0  0  0  0  0
   -1.5872   21.0337  -25.6270 H   0  0  0  0  0  0  0  0  0  0  0  0
   -0.8851   22.5026  -28.1131 H   0  0  0  0  0  0  0  0  0  0  0  0
   -1.1769   23.0630  -25.1682 H   0  0  0  0  0  0  0  0  0  0  0  0
    0.1986   23.3808  -26.3170 H   0  0  0  0  0  0  0  0  0  0  0  0
   -2.2159   25.0558  -25.6875 H   0  0  0  0  0  0  0  0  0  0  0  0
   -0.5020   25.5307  -26.0138 H   0  0  0  0  0  0  0  0  0  0  0  0
   -1.9977   26.2526  -27.8450 H   0  0  0  0  0  0  0  0  0  0  0  0
   -0.8069   25.0146  -28.4014 H   0  0  0  0  0  0  0  0  0  0  0  0
   -3.7736   24.8224  -27.9818 H   0  0  0  0  0  0  0  0  0  0  0  0
   -1.7710   24.1717  -30.1371 H   0  0  0  0  0  0  0  0  0  0  0  0
   -3.2444   23.1275  -30.0370 H   0  0  0  0  0  0  0  0  0  0  0  0
   -3.6889   22.9690  -31.9409 H   0  0  0  0  0  0  0  0  0  0  0  0
   -4.6748   20.8445  -32.7935 H   0  0  0  0  0  0  0  0  0  0  0  0
   -6.6292   19.4139  -33.1588 H   0  0  0  0  0  0  0  0  0  0  0  0
   -9.0814   19.0160  -32.9378 H   0  0  0  0  0  0  0  0  0  0  0  0
  -10.5426   20.7391  -31.8819 H   0  0  0  0  0  0  0  0  0  0  0  0
   -9.5605   22.8764  -31.0434 H   0  0  0  0  0  0  0  0  0  0  0  0
   -7.6114   24.3094  -30.6873 H   0  0  0  0  0  0  0  0  0  0  0  0
   -3.4690   23.0300  -26.7400 H   0  0  0  0  0  0  0  0  0  0  0  0
  1  2  1  0
  2  3  1  0
  3  4  1  0
  4  5  1  0
  3  6  1  0
  6  7  1  0
  7  8  1  0
  8  9  1  0
  9 10  1  0
 10 11  1  0
 11 12  1  0
 12 13  1  0
 13 14  1  0
 14 15  1  0
 15 16  1  0
 16 17  1  0
 17 18  2  0
 17 19  1  0
 19 20  2  0
 20 21  1  0
 21 22  2  0
 22 23  1  0
 23 24  2  0
 24 25  1  0
 25 26  2  0
 26 27  1  0
 27 28  2  0
 14 29  1  0
 29 10  1  0
 28 19  1  0
 27 22  1  0
  1 30  1  0
  1 31  1  0
  1 32  1  0
  2 33  1  0
  2 34  1  0
  4 35  1  0
  4 36  1  0
  5 37  1  0
  5 38  1  0
  5 39  1  0
  6 40  1  0
  6 41  1  0
  7 42  1  0
  7 43  1  0
  9 44  1  0
  9 45  1  0
 10 46  1  6
 11 47  1  0
 11 48  1  0
 12 49  1  0
 12 50  1  0
 13 51  1  0
 13 52  1  0
 14 53  1  6
 15 54  1  0
 15 55  1  0
 20 56  1  0
 21 57  1  0
 23 58  1  0
 24 59  1  0
 25 60  1  0
 26 61  1  0
 28 62  1  0
 29 63  1  0
M  CHG  1  16  -1
M  END
>  <UniqueID>  (17) 
17

>  <SMILES>  (17) 
CCN(CC)CCOC[C@@H]1CCC[C@@H](C[N-]C(=O)c2ccc3ccccc3c2)N1

>  <Energy>  (17) 
75.3882670665604

>  <Genealogy>  (17) 
CCN(CC)CCOCC1CCCC(C[N-]C(=O)c2ccc3ccccc3c2)N1 (protonated)
CCN(CC)CCOC[C@@H]1CCC[C@@H](C[N-]C(=O)c2ccc3ccccc3c2)N1 (chirality)
CCN(CC)CCOC[C@@H]1CCC[C@@H](C[N-]C(=O)c2ccc3ccccc3c2)N1 (3D coordinates assigned)
CCN(CC)CCOC[C@@H]1CCC[C@@H](C[N-]C(=O)c2ccc3ccccc3c2)N1 (nonaromatic ring conformer: 75.3882670665604 kcal/mol)

>  <smiles>  (17) 
CCN(CC)CCOCC1CCCC(CNC(=O)c2ccc3ccccc3c2)N1

>  <score_type>  (17) 
oracle

>  <origin>  (17) 
adg

>  <m_score__min__energy>  (17) 
-11.529999999999999

>  <m_primary>  (17) 
energy

$$$$
17:0
     RDKit          3D

 54 56  0  0  0  0  0  0  0  0999 V2000
   -3.4960   23.7560  -28.5350 C   0  0  0  0  0  0  0  0  0  0  0  0
   -2.4650   23.4930  -29.6290 C   0  0  0  0  0  0  0  0  0  0  0  0
   -1.7950   22.1920  -29.4170 N   0  0  0  0  0  0  0  0  0  0  0  0
   -2.6600   21.2240  -28.7210 C   0  0  0  0  0  0  0  0  0  0  0  0
   -1.2200   21.6330  -30.6620 C   0  0  0  0  0  0  0  0  0  0  0  0
   -2.1760   20.6920  -31.4350 C   0  0  0  0  0  0  0  0  0  0  0  0
   -1.8180   20.6000  -32.9350 C   0  0  0  0  0  0  0  0  0  0  0  0
   -2.9250   20.9770  -33.8420 N   0  0  0  0  0  0  0  0  0  0  0  0
   -4.2340   20.5310  -33.3760 C   0  0  0  0  0  0  0  0  0  0  0  0
   -4.7540   19.2480  -33.7320 C   0  0  0  0  0  0  0  0  0  0  0  0
   -4.0240   18.3190  -34.5230 C   0  0  0  0  0  0  0  0  0  0  0  0
   -4.5850   17.1090  -34.9230 C   0  0  0  0  0  0  0  0  0  0  0  0
   -5.8830   16.7890  -34.5630 C   0  0  0  0  0  0  0  0  0  0  0  0
   -6.6140   17.6580  -33.7630 C   0  0  0  0  0  0  0  0  0  0  0  0
   -6.0570   18.8740  -33.2890 C   0  0  0  0  0  0  0  0  0  0  0  0
   -6.7630   19.6870  -32.4280 N   0  0  0  0  0  0  0  0  0  0  0  0
   -7.9470   19.1530  -31.7140 C   0  0  0  0  0  0  0  0  0  0  0  0
   -6.3490   20.9810  -32.1970 C   0  0  0  0  0  0  0  0  0  0  0  0
   -7.1990   21.9160  -31.5570 C   0  0  0  0  0  0  0  0  0  0  0  0
   -6.7610   23.1980  -31.2460 C   0  0  0  0  0  0  0  0  0  0  0  0
   -5.4720   23.6000  -31.5640 C   0  0  0  0  0  0  0  0  0  0  0  0
   -5.0750   24.8970  -31.2020 O   0  0  0  0  0  0  0  0  0  0  0  0
   -5.7400   25.7080  -30.2380 C   0  0  0  0  0  0  0  0  0  0  0  0
   -4.6240   22.7090  -32.2390 C   0  0  0  0  0  0  0  0  0  0  0  0
   -5.0570   21.4070  -32.6090 C   0  0  0  0  0  0  0  0  0  0  0  0
   -3.0233   23.6354  -27.5491 H   0  0  0  0  0  0  0  0  0  0  0  0
   -3.8819   24.7813  -28.6337 H   0  0  0  0  0  0  0  0  0  0  0  0
   -4.3259   23.0408  -28.6337 H   0  0  0  0  0  0  0  0  0  0  0  0
   -2.9703   23.4835  -30.6060 H   0  0  0  0  0  0  0  0  0  0  0  0
   -1.7068   24.2894  -29.5979 H   0  0  0  0  0  0  0  0  0  0  0  0
   -2.5488   21.3484  -27.6337 H   0  0  0  0  0  0  0  0  0  0  0  0
   -3.7083   21.3988  -29.0048 H   0  0  0  0  0  0  0  0  0  0  0  0
   -2.3689   20.2019  -29.0048 H   0  0  0  0  0  0  0  0  0  0  0  0
   -0.9498   22.4695  -31.3233 H   0  0  0  0  0  0  0  0  0  0  0  0
   -0.3512   21.0271  -30.3651 H   0  0  0  0  0  0  0  0  0  0  0  0
   -2.1159   19.6860  -30.9941 H   0  0  0  0  0  0  0  0  0  0  0  0
   -3.1928   21.1040  -31.3553 H   0  0  0  0  0  0  0  0  0  0  0  0
   -0.9678   21.2704  -33.1295 H   0  0  0  0  0  0  0  0  0  0  0  0
   -1.5819   19.5457  -33.1419 H   0  0  0  0  0  0  0  0  0  0  0  0
   -2.8760   21.9950  -34.0440 H   0  0  0  0  0  0  0  0  0  0  0  0
   -2.7420   20.5700  -34.7870 H   0  0  0  0  0  0  0  0  0  0  0  0
   -2.9945   18.5613  -34.8253 H   0  0  0  0  0  0  0  0  0  0  0  0
   -3.9946   16.4046  -35.5274 H   0  0  0  0  0  0  0  0  0  0  0  0
   -6.3347   15.8480  -34.9100 H   0  0  0  0  0  0  0  0  0  0  0  0
   -7.6476   17.3978  -33.4909 H   0  0  0  0  0  0  0  0  0  0  0  0
   -7.7845   19.2263  -30.6285 H   0  0  0  0  0  0  0  0  0  0  0  0
   -8.8369   19.7369  -31.9918 H   0  0  0  0  0  0  0  0  0  0  0  0
   -8.0984   18.0995  -31.9918 H   0  0  0  0  0  0  0  0  0  0  0  0
   -8.2274   21.6214  -31.3007 H   0  0  0  0  0  0  0  0  0  0  0  0
   -7.4426   23.9000  -30.7433 H   0  0  0  0  0  0  0  0  0  0  0  0
   -5.4662   25.3740  -29.2263 H   0  0  0  0  0  0  0  0  0  0  0  0
   -5.4392   26.7576  -30.3716 H   0  0  0  0  0  0  0  0  0  0  0  0
   -6.8282   25.6186  -30.3716 H   0  0  0  0  0  0  0  0  0  0  0  0
   -3.6003   23.0256  -32.4876 H   0  0  0  0  0  0  0  0  0  0  0  0
  1  2  1  0
  2  3  1  0
  3  4  1  0
  3  5  1  0
  5  6  1  0
  6  7  1  0
  7  8  1  0
  8  9  1  0
  9 10  2  0
 10 11  1  0
 11 12  2  0
 12 13  1  0
 13 14  2  0
 14 15  1  0
 15 16  2  0
 16 17  1  0
 16 18  1  0
 18 19  2  0
 19 20  1  0
 20 21  2  0
 21 22  1  0
 22 23  1  0
 21 24  1  0
 24 25  2  0
 25  9  1  0
 15 10  1  0
 25 18  1  0
  1 26  1  0
  1 27  1  0
  1 28  1  0
  2 29  1  0
  2 30  1  0
  4 31  1  0
  4 32  1  0
  4 33  1  0
  5 34  1  0
  5 35  1  0
  6 36  1  0
  6 37  1  0
  7 38  1  0
  7 39  1  0
  8 40  1  0
  8 41  1  0
 11 42  1  0
 12 43  1  0
 13 44  1  0
 14 45  1  0
 17 46  1  0
 17 47  1  0
 17 48  1  0
 19 49  1  0
 20 50  1  0
 23 51  1  0
 23 52  1  0
 23 53  1  0
 24 54  1  0
M  CHG  2   8   1  16   1
M  END
>  <UniqueID>  (18) 
18

>  <SMILES>  (18) 
CCN(C)CCC[NH2+]c1c2ccccc2[n+](C)c2ccc(OC)cc12

>  <Energy>  (18) 
84.96219988407205

>  <Genealogy>  (18) 
CCN(C)CCC[NH2+]c1c2ccccc2[n+](C)c2ccc(OC)cc12 (protonated)
CCN(C)CCC[NH2+]c1c2ccccc2[n+](C)c2ccc(OC)cc12 (3D coordinates assigned)
CCN(C)CCC[NH2+]c1c2ccccc2[n+](C)c2ccc(OC)cc12 (optimized conformer: 84.96219988407205 kcal/mol)

>  <smiles>  (18) 
CCN(C)CCCNc1c2ccccc2[n+](C)c2ccc(OC)cc12

>  <score_type>  (18) 
oracle

>  <origin>  (18) 
adg

>  <m_score__min__energy>  (18) 
-7

>  <m_primary>  (18) 
energy

$$$$
18:0
     RDKit          3D

 39 39  0  0  0  0  0  0  0  0999 V2000
   -4.5580   22.1360  -32.5860 C   0  0  0  0  0  0  0  0  0  0  0  0
   -4.0320   22.5390  -31.2100 C   0  0  0  0  0  0  0  0  0  0  0  0
   -5.1550   22.9140  -30.3210 N   0  0  0  0  0  0  0  0  0  0  0  0
   -6.2820   23.4860  -31.0910 C   0  0  0  0  0  0  0  0  0  0  0  0
   -7.5660   22.7130  -30.8020 C   0  0  0  0  0  0  0  0  0  0  0  0
   -4.7050   23.8540  -29.2700 C   0  0  0  0  0  0  0  0  0  0  0  0
   -3.8480   24.9240  -29.8690 C   0  0  0  0  0  0  0  0  0  0  0  0
   -4.2830   25.6110  -30.8330 O   0  0  0  0  0  0  0  0  0  0  0  0
   -2.5370   25.1560  -29.3430 N   0  0  0  0  0  0  0  0  0  0  0  0
   -1.8520   24.2380  -28.4410 C   0  0  0  0  0  0  0  0  0  0  0  0
   -1.4060   24.9620  -27.1960 C   0  0  0  0  0  0  0  0  0  0  0  0
   -2.3770   25.3790  -26.2700 C   0  0  0  0  0  0  0  0  0  0  0  0
   -2.0060   26.0710  -25.1160 C   0  0  0  0  0  0  0  0  0  0  0  0
   -0.6630   26.3560  -24.8750 C   0  0  0  0  0  0  0  0  0  0  0  0
    0.3140   25.9530  -25.7880 C   0  0  0  0  0  0  0  0  0  0  0  0
   -0.0450   25.2530  -26.9580 C   0  0  0  0  0  0  0  0  0  0  0  0
    0.9180   24.8410  -27.8930 O   0  0  0  0  0  0  0  0  0  0  0  0
    2.3140   24.7340  -27.6270 C   0  0  0  0  0  0  0  0  0  0  0  0
   -5.4260   21.4710  -32.4664 H   0  0  0  0  0  0  0  0  0  0  0  0
   -4.8597   23.0363  -33.1413 H   0  0  0  0  0  0  0  0  0  0  0  0
   -3.7672   21.6104  -33.1413 H   0  0  0  0  0  0  0  0  0  0  0  0
   -3.4861   21.6925  -30.7679 H   0  0  0  0  0  0  0  0  0  0  0  0
   -3.3603   23.4028  -31.3223 H   0  0  0  0  0  0  0  0  0  0  0  0
   -6.4199   24.5391  -30.8046 H   0  0  0  0  0  0  0  0  0  0  0  0
   -6.0549   23.4147  -32.1649 H   0  0  0  0  0  0  0  0  0  0  0  0
   -7.7062   22.6286  -29.7142 H   0  0  0  0  0  0  0  0  0  0  0  0
   -8.4218   23.2461  -31.2417 H   0  0  0  0  0  0  0  0  0  0  0  0
   -7.4953   21.7072  -31.2417 H   0  0  0  0  0  0  0  0  0  0  0  0
   -5.5831   24.3151  -28.7943 H   0  0  0  0  0  0  0  0  0  0  0  0
   -4.1195   23.3018  -28.5202 H   0  0  0  0  0  0  0  0  0  0  0  0
   -2.5379   23.4247  -28.1616 H   0  0  0  0  0  0  0  0  0  0  0  0
   -0.9685   23.8276  -28.9518 H   0  0  0  0  0  0  0  0  0  0  0  0
   -3.4384   25.1583  -26.4561 H   0  0  0  0  0  0  0  0  0  0  0  0
   -2.7738   26.3916  -24.3964 H   0  0  0  0  0  0  0  0  0  0  0  0
   -0.3721   26.8994  -23.9639 H   0  0  0  0  0  0  0  0  0  0  0  0
    1.3717   26.1835  -25.5928 H   0  0  0  0  0  0  0  0  0  0  0  0
    2.4802   24.7213  -26.5397 H   0  0  0  0  0  0  0  0  0  0  0  0
    2.7010   23.8036  -28.0680 H   0  0  0  0  0  0  0  0  0  0  0  0
    2.8383   25.5946  -28.0680 H   0  0  0  0  0  0  0  0  0  0  0  0
  1  2  1  0
  2  3  1  0
  3  4  1  0
  4  5  1  0
  3  6  1  0
  6  7  1  0
  7  8  2  0
  7  9  1  0
  9 10  1  0
 10 11  1  0
 11 12  2  0
 12 13  1  0
 13 14  2  0
 14 15  1  0
 15 16  2  0
 16 17  1  0
 17 18  1  0
 16 11  1  0
  1 19  1  0
  1 20  1  0
  1 21  1  0
  2 22  1  0
  2 23  1  0
  4 24  1  0
  4 25  1  0
  5 26  1  0
  5 27  1  0
  5 28  1  0
  6 29  1  0
  6 30  1  0
 10 31  1  0
 10 32  1  0
 12 33  1  0
 13 34  1  0
 14 35  1  0
 15 36  1  0
 18 37  1  0
 18 38  1  0
 18 39  1  0
M  CHG  1   9  -1
M  END
>  <UniqueID>  (19) 
19

>  <SMILES>  (19) 
CCN(CC)CC(=O)[N-]Cc1ccccc1OC

>  <Energy>  (19) 
31.68353494241317

>  <Genealogy>  (19) 
CCN(CC)CC(=O)[N-]Cc1ccccc1OC (protonated)
CCN(CC)CC(=O)[N-]Cc1ccccc1OC (3D coordinates assigned)
CCN(CC)CC(=O)[N-]Cc1ccccc1OC (optimized conformer: 31.68353494241317 kcal/mol)

>  <smiles>  (19) 
CCN(CC)CC(=O)NCc1ccccc1OC

>  <score_type>  (19) 
oracle

>  <origin>  (19) 
adg

>  <m_score__min__energy>  (19) 
-7.71

>  <m_primary>  (19) 
energy

$$$$
19:0
     RDKit          3D

 49 51  0  0  0  0  0  0  0  0999 V2000
   -6.4830   26.0280  -29.0420 C   0  0  0  0  0  0  0  0  0  0  0  0
   -6.0800   25.6730  -30.3610 O   0  0  0  0  0  0  0  0  0  0  0  0
   -5.8640   24.3560  -30.7980 C   0  0  0  0  0  0  0  0  0  0  0  0
   -6.9330   23.5150  -31.1830 C   0  0  0  0  0  0  0  0  0  0  0  0
   -6.6330   22.2270  -31.6140 C   0  0  0  0  0  0  0  0  0  0  0  0
   -7.4610   21.2050  -32.0160 C   0  0  0  0  0  0  0  0  0  0  0  0
   -6.6350   20.1210  -32.2650 C   0  0  0  0  0  0  0  0  0  0  0  0
   -5.3270   20.4580  -32.0900 N   0  0  0  0  0  0  0  0  0  0  0  0
   -4.1630   19.5650  -32.2000 C   0  0  0  0  0  0  0  0  0  0  0  0
   -3.0090   20.1590  -33.0450 C   0  0  0  0  0  0  0  0  0  0  0  0
   -2.5160   19.3200  -34.1670 N   0  0  0  0  0  0  0  0  0  0  0  0
   -1.1080   18.9110  -34.0140 C   0  0  0  0  0  0  0  0  0  0  0  0
   -3.3810   18.1610  -34.4460 C   0  0  0  0  0  0  0  0  0  0  0  0
   -5.3470   21.7470  -31.6610 C   0  0  0  0  0  0  0  0  0  0  0  0
   -4.2700   22.5520  -31.2740 C   0  0  0  0  0  0  0  0  0  0  0  0
   -4.5320   23.8760  -30.8440 C   0  0  0  0  0  0  0  0  0  0  0  0
   -3.5020   24.7440  -30.4530 O   0  0  0  0  0  0  0  0  0  0  0  0
   -2.6520   24.5340  -29.3300 C   0  0  0  0  0  0  0  0  0  0  0  0
   -7.1710   18.7810  -32.6940 C   0  0  0  0  0  0  0  0  0  0  0  0
   -8.6520   18.6360  -32.3020 C   0  0  0  0  0  0  0  0  0  0  0  0
   -9.4650   19.8810  -32.7080 C   0  0  0  0  0  0  0  0  0  0  0  0
   -8.9600   21.1460  -31.9900 C   0  0  0  0  0  0  0  0  0  0  0  0
   -5.8660   25.4845  -28.3113 H   0  0  0  0  0  0  0  0  0  0  0  0
   -6.3535   27.1108  -28.8980 H   0  0  0  0  0  0  0  0  0  0  0  0
   -7.5408   25.7629  -28.8980 H   0  0  0  0  0  0  0  0  0  0  0  0
   -7.9736   23.8694  -31.1428 H   0  0  0  0  0  0  0  0  0  0  0  0
   -3.7841   19.3599  -31.1879 H   0  0  0  0  0  0  0  0  0  0  0  0
   -4.5020   18.6515  -32.7104 H   0  0  0  0  0  0  0  0  0  0  0  0
   -3.3594   21.1121  -33.4679 H   0  0  0  0  0  0  0  0  0  0  0  0
   -2.1584   20.2543  -32.3541 H   0  0  0  0  0  0  0  0  0  0  0  0
   -2.5530   19.9300  -35.0190 H   0  0  0  0  0  0  0  0  0  0  0  0
   -0.8612   18.8393  -32.9445 H   0  0  0  0  0  0  0  0  0  0  0  0
   -0.9566   17.9318  -34.4917 H   0  0  0  0  0  0  0  0  0  0  0  0
   -0.4556   19.6567  -34.4917 H   0  0  0  0  0  0  0  0  0  0  0  0
   -3.7138   17.7150  -33.4971 H   0  0  0  0  0  0  0  0  0  0  0  0
   -4.2574   18.4884  -35.0246 H   0  0  0  0  0  0  0  0  0  0  0  0
   -2.8178   17.4140  -35.0246 H   0  0  0  0  0  0  0  0  0  0  0  0
   -3.2409   22.1646  -31.3031 H   0  0  0  0  0  0  0  0  0  0  0  0
   -3.2271   24.6761  -28.4032 H   0  0  0  0  0  0  0  0  0  0  0  0
   -2.2515   23.5099  -29.3597 H   0  0  0  0  0  0  0  0  0  0  0  0
   -1.8207   25.2538  -29.3597 H   0  0  0  0  0  0  0  0  0  0  0  0
   -7.0757   18.6868  -33.7858 H   0  0  0  0  0  0  0  0  0  0  0  0
   -6.5933   17.9917  -32.1907 H   0  0  0  0  0  0  0  0  0  0  0  0
   -9.0715   17.7539  -32.8078 H   0  0  0  0  0  0  0  0  0  0  0  0
   -8.7119   18.5243  -31.2093 H   0  0  0  0  0  0  0  0  0  0  0  0
   -9.3753   20.0273  -33.7945 H   0  0  0  0  0  0  0  0  0  0  0  0
  -10.5136   19.7167  -32.4192 H   0  0  0  0  0  0  0  0  0  0  0  0
   -9.3656   22.0348  -32.4954 H   0  0  0  0  0  0  0  0  0  0  0  0
   -9.2957   21.1174  -30.9429 H   0  0  0  0  0  0  0  0  0  0  0  0
  1  2  1  0
  2  3  1  0
  3  4  2  0
  4  5  1  0
  5  6  1  0
  6  7  2  0
  7  8  1  0
  8  9  1  0
  9 10  1  0
 10 11  1  0
 11 12  1  0
 11 13  1  0
  8 14  1  0
 14 15  1  0
 15 16  2  0
 16 17  1  0
 17 18  1  0
  7 19  1  0
 19 20  1  0
 20 21  1  0
 21 22  1  0
 16  3  1  0
 14  5  2  0
 22  6  1  0
  1 23  1  0
  1 24  1  0
  1 25  1  0
  4 26  1  0
  9 27  1  0
  9 28  1  0
 10 29  1  0
 10 30  1  0
 11 31  1  0
 12 32  1  0
 12 33  1  0
 12 34  1  0
 13 35  1  0
 13 36  1  0
 13 37  1  0
 15 38  1  0
 18 39  1  0
 18 40  1  0
 18 41  1  0
 19 42  1  0
 19 43  1  0
 20 44  1  0
 20 45  1  0
 21 46  1  0
 21 47  1  0
 22 48  1  0
 22 49  1  0
M  CHG  1  11   1
M  END
>  <UniqueID>  (20) 
20

>  <SMILES>  (20) 
COc1cc2c3c(n(CC[NH+](C)C)c2cc1OC)CCCC3

>  <Energy>  (20) 
84.80598950613332

>  <Genealogy>  (20) 
COc1cc2c3c(n(CC[NH+](C)C)c2cc1OC)CCCC3 (protonated)
COc1cc2c3c(n(CC[NH+](C)C)c2cc1OC)CCCC3 (3D coordinates assigned)
COc1cc2c3c(n(CC[NH+](C)C)c2cc1OC)CCCC3 (nonaromatic ring conformer: 84.80598950613332 kcal/mol)

>  <smiles>  (20) 
COc1cc2c3c(n(CCN(C)C)c2cc1OC)CCCC3

>  <score_type>  (20) 
oracle

>  <origin>  (20) 
adg

>  <m_score__min__energy>  (20) 
-7.5700000000000003

>  <m_primary>  (20) 
energy

$$$$
20:0
     RDKit          3D

 60 62  0  0  0  0  0  0  0  0999 V2000
   -2.1670   21.9320  -27.5170 C   0  0  0  0  0  0  0  0  0  0  0  0
   -3.6620   22.2360  -27.5910 C   0  0  0  0  0  0  0  0  0  0  0  0
   -3.9090   23.6490  -27.9650 N   0  0  0  0  0  0  0  0  0  0  0  0
   -4.0720   24.5510  -26.8000 C   0  0  0  0  0  0  0  0  0  0  0  0
   -2.7630   25.2820  -26.5200 C   0  0  0  0  0  0  0  0  0  0  0  0
   -4.9980   23.7820  -28.9630 C   0  0  0  0  0  0  0  0  0  0  0  0
   -4.6570   24.7300  -30.1370 C   0  0  0  0  0  0  0  0  0  0  0  0
   -4.0890   24.0110  -31.2190 O   0  0  0  0  0  0  0  0  0  0  0  0
   -3.1630   23.0500  -30.7490 C   0  0  0  0  0  0  0  0  0  0  0  0
   -3.3620   21.7210  -31.5050 C   0  0  0  0  0  0  0  0  0  0  0  0
   -4.1980   21.9020  -32.7080 N   0  0  0  0  0  0  0  0  0  0  0  0
   -5.3400   21.0040  -32.6990 C   0  0  0  0  0  0  0  0  0  0  0  0
   -6.6330   21.5260  -32.3880 C   0  0  0  0  0  0  0  0  0  0  0  0
   -6.8610   22.9220  -32.2390 C   0  0  0  0  0  0  0  0  0  0  0  0
   -8.1190   23.4210  -31.9210 C   0  0  0  0  0  0  0  0  0  0  0  0
   -9.1800   22.5540  -31.7190 C   0  0  0  0  0  0  0  0  0  0  0  0
   -8.9930   21.1810  -31.8520 C   0  0  0  0  0  0  0  0  0  0  0  0
   -7.7300   20.6380  -32.2170 C   0  0  0  0  0  0  0  0  0  0  0  0
   -7.5560   19.2800  -32.3630 N   0  0  0  0  0  0  0  0  0  0  0  0
   -8.7400   18.3870  -32.4100 C   0  0  0  0  0  0  0  0  0  0  0  0
   -6.2880   18.7480  -32.5100 C   0  0  0  0  0  0  0  0  0  0  0  0
   -6.0670   17.3630  -32.3050 C   0  0  0  0  0  0  0  0  0  0  0  0
   -4.8380   16.7730  -32.5760 C   0  0  0  0  0  0  0  0  0  0  0  0
   -4.6390   15.3020  -32.3400 C   0  0  0  0  0  0  0  0  0  0  0  0
   -3.8010   17.5560  -33.0610 C   0  0  0  0  0  0  0  0  0  0  0  0
   -3.9510   18.9360  -33.2270 C   0  0  0  0  0  0  0  0  0  0  0  0
   -2.4610   19.7030  -34.1840 Br  0  0  0  0  0  0  0  0  0  0  0  0
   -5.1750   19.5850  -32.8340 C   0  0  0  0  0  0  0  0  0  0  0  0
   -1.8574   21.8690  -26.4634 H   0  0  0  0  0  0  0  0  0  0  0  0
   -1.9625   20.9739  -28.0172 H   0  0  0  0  0  0  0  0  0  0  0  0
   -1.6045   22.7341  -28.0172 H   0  0  0  0  0  0  0  0  0  0  0  0
   -4.1236   21.5805  -28.3442 H   0  0  0  0  0  0  0  0  0  0  0  0
   -4.1007   22.0591  -26.5979 H   0  0  0  0  0  0  0  0  0  0  0  0
   -4.8610   25.2864  -27.0161 H   0  0  0  0  0  0  0  0  0  0  0  0
   -4.3491   23.9553  -25.9177 H   0  0  0  0  0  0  0  0  0  0  0  0
   -2.6145   25.3649  -25.4332 H   0  0  0  0  0  0  0  0  0  0  0  0
   -1.9273   24.7200  -26.9624 H   0  0  0  0  0  0  0  0  0  0  0  0
   -2.8031   26.2883  -26.9624 H   0  0  0  0  0  0  0  0  0  0  0  0
   -5.2152   22.7851  -29.3741 H   0  0  0  0  0  0  0  0  0  0  0  0
   -5.8610   24.2187  -28.4390 H   0  0  0  0  0  0  0  0  0  0  0  0
   -5.5774   25.2265  -30.4781 H   0  0  0  0  0  0  0  0  0  0  0  0
   -3.9263   25.4741  -29.7872 H   0  0  0  0  0  0  0  0  0  0  0  0
   -2.1394   23.4162  -30.9170 H   0  0  0  0  0  0  0  0  0  0  0  0
   -3.3251   22.8844  -29.6737 H   0  0  0  0  0  0  0  0  0  0  0  0
   -2.3789   21.3318  -31.8084 H   0  0  0  0  0  0  0  0  0  0  0  0
   -3.8727   21.0153  -30.8332 H   0  0  0  0  0  0  0  0  0  0  0  0
   -3.6190   21.7550  -33.5680 H   0  0  0  0  0  0  0  0  0  0  0  0
   -4.5060   22.8890  -32.8240 H   0  0  0  0  0  0  0  0  0  0  0  0
   -6.0239   23.6219  -32.3784 H   0  0  0  0  0  0  0  0  0  0  0  0
   -8.2720   24.5065  -31.8296 H   0  0  0  0  0  0  0  0  0  0  0  0
  -10.1710   22.9506  -31.4533 H   0  0  0  0  0  0  0  0  0  0  0  0
   -9.8393   20.5020  -31.6711 H   0  0  0  0  0  0  0  0  0  0  0  0
   -9.0588   18.1465  -31.3850 H   0  0  0  0  0  0  0  0  0  0  0  0
   -9.5603   18.8933  -32.9399 H   0  0  0  0  0  0  0  0  0  0  0  0
   -8.4787   17.4591  -32.9399 H   0  0  0  0  0  0  0  0  0  0  0  0
   -6.8884   16.7397  -31.9220 H   0  0  0  0  0  0  0  0  0  0  0  0
   -4.6123   15.1045  -31.2582 H   0  0  0  0  0  0  0  0  0  0  0  0
   -5.4696   14.7421  -32.7945 H   0  0  0  0  0  0  0  0  0  0  0  0
   -3.6895   14.9829  -32.7945 H   0  0  0  0  0  0  0  0  0  0  0  0
   -2.8426   17.0823  -33.3199 H   0  0  0  0  0  0  0  0  0  0  0  0
  1  2  1  0
  2  3  1  0
  3  4  1  0
  4  5  1  0
  3  6  1  0
  6  7  1  0
  7  8  1  0
  8  9  1  0
  9 10  1  0
 10 11  1  0
 11 12  1  0
 12 13  2  0
 13 14  1  0
 14 15  2  0
 15 16  1  0
 16 17  2  0
 17 18  1  0
 18 19  2  0
 19 20  1  0
 19 21  1  0
 21 22  2  0
 22 23  1  0
 23 24  1  0
 23 25  2  0
 25 26  1  0
 26 27  1  0
 26 28  2  0
 28 12  1  0
 18 13  1  0
 28 21  1  0
  1 29  1  0
  1 30  1  0
  1 31  1  0
  2 32  1  0
  2 33  1  0
  4 34  1  0
  4 35  1  0
  5 36  1  0
  5 37  1  0
  5 38  1  0
  6 39  1  0
  6 40  1  0
  7 41  1  0
  7 42  1  0
  9 43  1  0
  9 44  1  0
 10 45  1  0
 10 46  1  0
 11 47  1  0
 11 48  1  0
 14 49  1  0
 15 50  1  0
 16 51  1  0
 17 52  1  0
 20 53  1  0
 20 54  1  0
 20 55  1  0
 22 56  1  0
 24 57  1  0
 24 58  1  0
 24 59  1  0
 25 60  1  0
M  CHG  2  11   1  19   1
M  END
>  <UniqueID>  (21) 
21

>  <SMILES>  (21) 
CCN(CC)CCOCC[NH2+]c1c2ccccc2[n+](C)c2cc(C)cc(Br)c12

>  <Energy>  (21) 
108.48349499307973

>  <Genealogy>  (21) 
CCN(CC)CCOCC[NH2+]c1c2ccccc2[n+](C)c2cc(C)cc(Br)c12 (protonated)
CCN(CC)CCOCC[NH2+]c1c2ccccc2[n+](C)c2cc(C)cc(Br)c12 (3D coordinates assigned)
CCN(CC)CCOCC[NH2+]c1c2ccccc2[n+](C)c2cc(C)cc(Br)c12 (optimized conformer: 108.48349499307973 kcal/mol)

>  <smiles>  (21) 
CCN(CC)CCOCCNc1c2ccccc2[n+](C)c2cc(C)cc(Br)c12

>  <score_type>  (21) 
oracle

>  <origin>  (21) 
adg

>  <m_score__min__energy>  (21) 
-7.46

>  <m_primary>  (21) 
energy

$$$$
21:0
     RDKit          3D

 51 53  0  0  0  0  0  0  0  0999 V2000
   -6.3680   24.7120  -30.0930 C   0  0  0  0  0  0  0  0  0  0  0  0
   -5.2980   25.7340  -30.4590 C   0  0  0  0  0  0  0  0  0  0  0  0
   -4.0090   25.1250  -30.4910 O   0  0  0  0  0  0  0  0  0  0  0  0
   -3.7720   23.7980  -30.1070 C   0  0  0  0  0  0  0  0  0  0  0  0
   -3.8850   23.4590  -28.8970 O   0  0  0  0  0  0  0  0  0  0  0  0
   -3.3970   22.7930  -31.1270 C   0  0  0  0  0  0  0  0  0  0  0  0
   -2.1670   22.1190  -31.0540 C   0  0  0  0  0  0  0  0  0  0  0  0
   -1.8260   21.1610  -32.0110 C   0  0  0  0  0  0  0  0  0  0  0  0
   -2.7150   20.8400  -33.0500 C   0  0  0  0  0  0  0  0  0  0  0  0
   -2.3630   19.7660  -34.0610 C   0  0  0  0  0  0  0  0  0  0  0  0
   -2.7300   18.3940  -33.6360 N   0  0  0  0  0  0  0  0  0  0  0  0
   -2.7420   17.3920  -34.7270 C   0  0  0  0  0  0  0  0  0  0  0  0
   -4.1730   17.0390  -35.1560 C   0  0  0  0  0  0  0  0  0  0  0  0
   -4.9780   16.4830  -34.0350 N   0  0  0  0  0  0  0  0  0  0  0  0
   -6.4200   16.7580  -34.2180 C   0  0  0  0  0  0  0  0  0  0  0  0
   -6.8350   18.0030  -33.4750 C   0  0  0  0  0  0  0  0  0  0  0  0
   -7.5980   17.9000  -32.3010 C   0  0  0  0  0  0  0  0  0  0  0  0
   -8.0110   19.0530  -31.6260 C   0  0  0  0  0  0  0  0  0  0  0  0
   -7.6680   20.3160  -32.1200 C   0  0  0  0  0  0  0  0  0  0  0  0
   -8.2350   21.8890  -31.1980 Br  0  0  0  0  0  0  0  0  0  0  0  0
   -6.9140   20.4260  -33.2930 C   0  0  0  0  0  0  0  0  0  0  0  0
   -6.5000   19.2750  -33.9700 C   0  0  0  0  0  0  0  0  0  0  0  0
   -4.5130   16.9310  -32.6980 C   0  0  0  0  0  0  0  0  0  0  0  0
   -3.9110   18.3430  -32.7440 C   0  0  0  0  0  0  0  0  0  0  0  0
   -3.9260   21.5450  -33.1470 C   0  0  0  0  0  0  0  0  0  0  0  0
   -4.2690   22.5040  -32.1900 C   0  0  0  0  0  0  0  0  0  0  0  0
   -6.4453   24.6382  -28.9982 H   0  0  0  0  0  0  0  0  0  0  0  0
   -7.3358   25.0296  -30.5083 H   0  0  0  0  0  0  0  0  0  0  0  0
   -6.0951   23.7307  -30.5083 H   0  0  0  0  0  0  0  0  0  0  0  0
   -5.5237   26.1538  -31.4504 H   0  0  0  0  0  0  0  0  0  0  0  0
   -5.2944   26.5296  -29.6994 H   0  0  0  0  0  0  0  0  0  0  0  0
   -1.4670   22.3475  -30.2368 H   0  0  0  0  0  0  0  0  0  0  0  0
   -0.8522   20.6530  -31.9506 H   0  0  0  0  0  0  0  0  0  0  0  0
   -2.8896   19.9895  -35.0005 H   0  0  0  0  0  0  0  0  0  0  0  0
   -1.2690   19.7820  -34.1743 H   0  0  0  0  0  0  0  0  0  0  0  0
   -2.2006   17.8009  -35.5929 H   0  0  0  0  0  0  0  0  0  0  0  0
   -2.2583   16.4758  -34.3573 H   0  0  0  0  0  0  0  0  0  0  0  0
   -4.6656   17.9496  -35.5275 H   0  0  0  0  0  0  0  0  0  0  0  0
   -4.1092   16.2687  -35.9387 H   0  0  0  0  0  0  0  0  0  0  0  0
   -6.6264   16.8940  -35.2899 H   0  0  0  0  0  0  0  0  0  0  0  0
   -6.9909   15.9068  -33.8187 H   0  0  0  0  0  0  0  0  0  0  0  0
   -7.8720   16.9087  -31.9107 H   0  0  0  0  0  0  0  0  0  0  0  0
   -8.6065   18.9667  -30.7052 H   0  0  0  0  0  0  0  0  0  0  0  0
   -6.6465   21.4191  -33.6832 H   0  0  0  0  0  0  0  0  0  0  0  0
   -5.9097   19.3653  -34.8938 H   0  0  0  0  0  0  0  0  0  0  0  0
   -5.3680   16.9314  -32.0060 H   0  0  0  0  0  0  0  0  0  0  0  0
   -3.7291   16.2373  -32.3599 H   0  0  0  0  0  0  0  0  0  0  0  0
   -4.6717   19.0452  -33.1157 H   0  0  0  0  0  0  0  0  0  0  0  0
   -3.5917   18.6183  -31.7280 H   0  0  0  0  0  0  0  0  0  0  0  0
   -4.6104   21.3405  -33.9835 H   0  0  0  0  0  0  0  0  0  0  0  0
   -5.2284   23.0362  -32.2696 H   0  0  0  0  0  0  0  0  0  0  0  0
  1  2  1  0
  2  3  1  0
  3  4  1  0
  4  5  2  0
  4  6  1  0
  6  7  2  0
  7  8  1  0
  8  9  2  0
  9 10  1  0
 10 11  1  0
 11 12  1  0
 12 13  1  0
 13 14  1  0
 14 15  1  0
 15 16  1  0
 16 17  2  0
 17 18  1  0
 18 19  2  0
 19 20  1  0
 19 21  1  0
 21 22  2  0
 14 23  1  0
 23 24  1  0
  9 25  1  0
 25 26  2  0
 26  6  1  0
 24 11  1  0
 22 16  1  0
  1 27  1  0
  1 28  1  0
  1 29  1  0
  2 30  1  0
  2 31  1  0
  7 32  1  0
  8 33  1  0
 10 34  1  0
 10 35  1  0
 12 36  1  0
 12 37  1  0
 13 38  1  0
 13 39  1  0
 15 40  1  0
 15 41  1  0
 17 42  1  0
 18 43  1  0
 21 44  1  0
 22 45  1  0
 23 46  1  0
 23 47  1  0
 24 48  1  0
 24 49  1  0
 25 50  1  0
 26 51  1  0
M  END
>  <UniqueID>  (22) 
22

>  <SMILES>  (22) 
CCOC(=O)c1ccc(CN2CCN(Cc3ccc(Br)cc3)CC2)cc1

>  <Energy>  (22) 
63.099494786826895

>  <Genealogy>  (22) 
CCOC(=O)c1ccc(CN2CCN(Cc3ccc(Br)cc3)CC2)cc1 (3D coordinates assigned)
CCOC(=O)c1ccc(CN2CCN(Cc3ccc(Br)cc3)CC2)cc1 (nonaromatic ring conformer: 63.099494786826895 kcal/mol)

>  <smiles>  (22) 
CCOC(=O)c1ccc(CN2CCN(Cc3ccc(Br)cc3)CC2)cc1

>  <score_type>  (22) 
oracle

>  <origin>  (22) 
adg

>  <m_score__min__energy>  (22) 
-9.5099999999999998

>  <m_primary>  (22) 
energy

$$$$
22:0
     RDKit          3D

 54 55  0  0  0  0  0  0  0  0999 V2000
   -5.7370   18.2240  -35.0460 C   0  0  0  0  0  0  0  0  0  0  0  0
   -5.4840   17.2060  -33.9350 C   0  0  0  0  0  0  0  0  0  0  0  0
   -5.0850   17.8650  -32.6730 N   0  0  0  0  0  0  0  0  0  0  0  0
   -4.0340   18.9040  -32.7890 C   0  0  0  0  0  0  0  0  0  0  0  0
   -2.7430   18.4260  -33.4590 C   0  0  0  0  0  0  0  0  0  0  0  0
   -6.2020   18.2120  -31.7600 C   0  0  0  0  0  0  0  0  0  0  0  0
   -7.6090   17.8870  -32.3140 C   0  0  0  0  0  0  0  0  0  0  0  0
   -8.4530   19.1500  -32.4820 C   0  0  0  0  0  0  0  0  0  0  0  0
   -7.6740   20.1780  -33.0930 O   0  0  0  0  0  0  0  0  0  0  0  0
   -7.0790   21.2490  -32.4070 C   0  0  0  0  0  0  0  0  0  0  0  0
   -5.7210   21.5730  -32.5950 C   0  0  0  0  0  0  0  0  0  0  0  0
   -5.1350   22.6210  -31.8840 C   0  0  0  0  0  0  0  0  0  0  0  0
   -5.8930   23.3650  -30.9760 C   0  0  0  0  0  0  0  0  0  0  0  0
   -5.1590   24.6790  -30.0580 S   0  0  0  0  0  0  0  0  0  0  0  0
   -6.1720   25.7810  -29.9110 O   0  0  0  0  0  0  0  0  0  0  0  0
   -3.9660   25.2210  -30.7970 O   0  0  0  0  0  0  0  0  0  0  0  0
   -4.6790   24.1030  -28.4770 N   0  0  0  0  0  0  0  0  0  0  0  0
   -4.6410   22.6360  -28.4340 C   0  0  0  0  0  0  0  0  0  0  0  0
   -3.2180   22.2010  -28.7530 C   0  0  0  0  0  0  0  0  0  0  0  0
   -2.3580   23.4390  -28.5620 C   0  0  0  0  0  0  0  0  0  0  0  0
   -3.3180   24.5460  -28.1450 C   0  0  0  0  0  0  0  0  0  0  0  0
   -7.2430   23.0540  -30.7830 C   0  0  0  0  0  0  0  0  0  0  0  0
   -7.8530   22.0060  -31.4970 C   0  0  0  0  0  0  0  0  0  0  0  0
   -9.2510   21.7200  -31.2870 N   0  0  0  0  0  0  0  0  0  0  0  0
   -9.7110   21.6340  -30.1300 O   0  0  0  0  0  0  0  0  0  0  0  0
  -10.1200   21.6150  -32.3480 O   0  0  0  0  0  0  0  0  0  0  0  0
   -5.9796   19.2001  -34.6006 H   0  0  0  0  0  0  0  0  0  0  0  0
   -4.8351   18.3190  -35.6686 H   0  0  0  0  0  0  0  0  0  0  0  0
   -6.5784   17.8858  -35.6686 H   0  0  0  0  0  0  0  0  0  0  0  0
   -6.4054   16.6307  -33.7614 H   0  0  0  0  0  0  0  0  0  0  0  0
   -4.6630   16.5466  -34.2532 H   0  0  0  0  0  0  0  0  0  0  0  0
   -4.4393   19.7389  -33.3795 H   0  0  0  0  0  0  0  0  0  0  0  0
   -3.7658   19.1950  -31.7627 H   0  0  0  0  0  0  0  0  0  0  0  0
   -2.0082   18.1539  -32.6869 H   0  0  0  0  0  0  0  0  0  0  0  0
   -2.9585   17.5480  -34.0857 H   0  0  0  0  0  0  0  0  0  0  0  0
   -2.3348   19.2326  -34.0857 H   0  0  0  0  0  0  0  0  0  0  0  0
   -6.0649   17.6539  -30.8221 H   0  0  0  0  0  0  0  0  0  0  0  0
   -6.1650   19.3026  -31.6215 H   0  0  0  0  0  0  0  0  0  0  0  0
   -7.5027   17.3959  -33.2925 H   0  0  0  0  0  0  0  0  0  0  0  0
   -8.1173   17.2265  -31.5961 H   0  0  0  0  0  0  0  0  0  0  0  0
   -9.3227   18.9255  -33.1169 H   0  0  0  0  0  0  0  0  0  0  0  0
   -8.7924   19.4925  -31.4933 H   0  0  0  0  0  0  0  0  0  0  0  0
   -5.1167   20.9943  -33.3091 H   0  0  0  0  0  0  0  0  0  0  0  0
   -4.0730   22.8622  -32.0388 H   0  0  0  0  0  0  0  0  0  0  0  0
   -5.3590   24.4690  -27.7710 H   0  0  0  0  0  0  0  0  0  0  0  0
   -4.9250   22.2830  -27.4316 H   0  0  0  0  0  0  0  0  0  0  0  0
   -5.3467   22.2106  -29.1627 H   0  0  0  0  0  0  0  0  0  0  0  0
   -2.8982   21.4022  -28.0677 H   0  0  0  0  0  0  0  0  0  0  0  0
   -3.1345   21.8018  -29.7746 H   0  0  0  0  0  0  0  0  0  0  0  0
   -1.6066   23.2669  -27.7773 H   0  0  0  0  0  0  0  0  0  0  0  0
   -1.8112   23.6997  -29.4802 H   0  0  0  0  0  0  0  0  0  0  0  0
   -3.2357   24.7258  -27.0629 H   0  0  0  0  0  0  0  0  0  0  0  0
   -3.0782   25.4828  -28.6694 H   0  0  0  0  0  0  0  0  0  0  0  0
   -7.8362   23.6368  -30.0630 H   0  0  0  0  0  0  0  0  0  0  0  0
  1  2  1  0
  2  3  1  0
  3  4  1  0
  4  5  1  0
  3  6  1  0
  6  7  1  0
  7  8  1  0
  8  9  1  0
  9 10  1  0
 10 11  2  0
 11 12  1  0
 12 13  2  0
 13 14  1  0
 14 15  2  0
 14 16  2  0
 14 17  1  0
 17 18  1  0
 18 19  1  0
 19 20  1  0
 20 21  1  0
 13 22  1  0
 22 23  2  0
 23 24  1  0
 24 25  2  0
 24 26  1  0
 23 10  1  0
 21 17  1  0
  1 27  1  0
  1 28  1  0
  1 29  1  0
  2 30  1  0
  2 31  1  0
  4 32  1  0
  4 33  1  0
  5 34  1  0
  5 35  1  0
  5 36  1  0
  6 37  1  0
  6 38  1  0
  7 39  1  0
  7 40  1  0
  8 41  1  0
  8 42  1  0
 11 43  1  0
 12 44  1  0
 17 45  1  0
 18 46  1  0
 18 47  1  0
 19 48  1  0
 19 49  1  0
 20 50  1  0
 20 51  1  0
 21 52  1  0
 21 53  1  0
 22 54  1  0
M  CHG  3  17   1  24   1  26  -1
M  END
>  <UniqueID>  (23) 
23

>  <SMILES>  (23) 
CCN(CC)CCCOc1ccc(S(=O)(=O)[NH+]2CCCC2)cc1[N+](=O)[O-]

>  <Energy>  (23) 
58.51657168756393

>  <Genealogy>  (23) 
CCN(CC)CCCOc1ccc(S(=O)(=O)[NH+]2CCCC2)cc1[N+](=O)[O-] (protonated)
CCN(CC)CCCOc1ccc(S(=O)(=O)[NH+]2CCCC2)cc1[N+](=O)[O-] (3D coordinates assigned)
CCN(CC)CCCOc1ccc(S(=O)(=O)[NH+]2CCCC2)cc1[N+](=O)[O-] (nonaromatic ring conformer: 58.51657168756393 kcal/mol)

>  <smiles>  (23) 
CCN(CC)CCCOc1ccc(S(=O)(=O)N2CCCC2)cc1[N+](=O)[O-]

>  <score_type>  (23) 
oracle

>  <origin>  (23) 
adg

>  <m_score__min__energy>  (23) 
-7.8799999999999999

>  <m_primary>  (23) 
energy

$$$$
23:0
     RDKit          3D

 43 45  0  0  1  0  0  0  0  0999 V2000
    0.7120   26.6760  -25.7960 C   0  0  0  0  0  0  0  0  0  0  0  0
   -0.0760   26.8920  -27.0410 C   0  0  0  0  0  0  0  0  0  0  0  0
    0.0900   25.7280  -27.9040 N   0  0  0  0  0  0  0  0  0  0  0  0
   -0.8760   24.9320  -28.2150 C   0  0  0  0  0  0  0  0  0  0  0  0
   -2.0960   25.0920  -27.5940 C   0  0  0  0  0  0  0  0  0  0  0  0
   -3.0980   24.2160  -27.9610 C   0  0  0  0  0  0  0  0  0  0  0  0
   -2.8660   23.2560  -28.8850 N   0  0  0  0  0  0  0  0  0  0  0  0
   -1.6610   23.1100  -29.4870 C   0  0  0  0  0  0  0  0  0  0  0  0
   -0.6580   23.9720  -29.1330 N   0  0  0  0  0  0  0  0  0  0  0  0
   -1.1380   22.1790  -30.4910 C   0  0  0  0  0  0  0  0  0  0  0  0
   -2.0910   21.8390  -31.6090 C   0  0  0  0  0  0  0  0  0  0  0  0
   -3.4380   22.0750  -31.4130 N   0  0  0  0  0  0  0  0  0  0  0  0
   -4.3610   22.4400  -32.3780 C   0  0  0  0  0  0  0  0  0  0  0  0
   -5.8010   22.2700  -32.1070 C   0  0  0  0  0  0  0  0  0  0  0  0
   -6.6010   23.1520  -31.4330 C   0  0  0  0  0  0  0  0  0  0  0  0
   -6.0270   24.6940  -30.8800 Cl  0  0  0  0  0  0  0  0  0  0  0  0
   -7.9250   22.8400  -31.2100 C   0  0  0  0  0  0  0  0  0  0  0  0
   -8.5050   21.6640  -31.6370 C   0  0  0  0  0  0  0  0  0  0  0  0
   -7.7000   20.7680  -32.3200 C   0  0  0  0  0  0  0  0  0  0  0  0
   -6.3720   21.0690  -32.5500 C   0  0  0  0  0  0  0  0  0  0  0  0
   -5.3900   19.8870  -33.4290 Cl  0  0  0  0  0  0  0  0  0  0  0  0
   -3.9490   21.4920  -30.2030 C   0  0  0  0  0  0  0  0  0  0  0  0
   -4.0650   22.4870  -29.0790 C   0  0  0  0  0  0  0  0  0  0  0  0
    0.0698   26.8520  -24.9204 H   0  0  0  0  0  0  0  0  0  0  0  0
    1.0867   25.6420  -25.7740 H   0  0  0  0  0  0  0  0  0  0  0  0
    1.5616   27.3744  -25.7740 H   0  0  0  0  0  0  0  0  0  0  0  0
   -1.1394   27.0183  -26.7894 H   0  0  0  0  0  0  0  0  0  0  0  0
    0.2775   27.7965  -27.5576 H   0  0  0  0  0  0  0  0  0  0  0  0
   -2.2630   25.8785  -26.8433 H   0  0  0  0  0  0  0  0  0  0  0  0
   -4.0925   24.2995  -27.4984 H   0  0  0  0  0  0  0  0  0  0  0  0
   -0.2380   22.6285  -30.9358 H   0  0  0  0  0  0  0  0  0  0  0  0
   -0.9414   21.2360  -29.9599 H   0  0  0  0  0  0  0  0  0  0  0  0
   -1.7824   22.4221  -32.4892 H   0  0  0  0  0  0  0  0  0  0  0  0
   -2.0172   20.7459  -31.7070 H   0  0  0  0  0  0  0  0  0  0  0  0
   -4.1989   23.5075  -32.5883 H   0  0  0  0  0  0  0  0  0  0  0  0
   -4.1679   21.7350  -33.2000 H   0  0  0  0  0  0  0  0  0  0  0  0
   -8.5489   23.5639  -30.6653 H   0  0  0  0  0  0  0  0  0  0  0  0
   -9.5656   21.4463  -31.4426 H   0  0  0  0  0  0  0  0  0  0  0  0
   -8.1184   19.8163  -32.6794 H   0  0  0  0  0  0  0  0  0  0  0  0
   -4.9462   21.0753  -30.4077 H   0  0  0  0  0  0  0  0  0  0  0  0
   -3.2390   20.7145  -29.8847 H   0  0  0  0  0  0  0  0  0  0  0  0
   -4.8914   23.1769  -29.3052 H   0  0  0  0  0  0  0  0  0  0  0  0
   -4.2459   21.9197  -28.1541 H   0  0  0  0  0  0  0  0  0  0  0  0
  1  2  1  0
  2  3  1  0
  3  4  2  0
  4  5  1  0
  5  6  2  0
  6  7  1  0
  7  8  1  0
  8  9  2  0
  8 10  1  0
 10 11  1  0
 11 12  1  0
 12 13  1  0
 13 14  1  0
 14 15  2  0
 15 16  1  0
 15 17  1  0
 17 18  2  0
 18 19  1  0
 19 20  2  0
 20 21  1  0
 12 22  1  0
 22 23  1  0
  9  4  1  0
 20 14  1  0
 23  7  1  0
  1 24  1  0
  1 25  1  0
  1 26  1  0
  2 27  1  0
  2 28  1  0
  5 29  1  0
  6 30  1  0
 10 31  1  0
 10 32  1  0
 11 33  1  0
 11 34  1  0
 13 35  1  0
 13 36  1  0
 17 37  1  0
 18 38  1  0
 19 39  1  0
 22 40  1  0
 22 41  1  0
 23 42  1  0
 23 43  1  0
M  END
>  <smiles>  (24) 
CCN=c1ccn2c(n1)CCN(Cc1c(Cl)cccc1Cl)CC2

>  <score_type>  (24) 
oracle

>  <origin>  (24) 
adg

>  <m_score__min__energy>  (24) 
-6.3700000000000001

>  <m_primary>  (24) 
energy

$$$$
24:0
     RDKit          3D

 43 45  0  0  0  0  0  0  0  0999 V2000
    0.1100   26.1000  -24.7930 C   0  0  0  0  0  0  0  0  0  0  0  0
   -0.8160   25.6250  -25.8730 C   0  0  0  0  0  0  0  0  0  0  0  0
   -0.3210   25.3180  -27.1450 C   0  0  0  0  0  0  0  0  0  0  0  0
   -1.1740   24.8400  -28.1420 C   0  0  0  0  0  0  0  0  0  0  0  0
   -2.5550   24.6460  -27.8940 C   0  0  0  0  0  0  0  0  0  0  0  0
   -3.4540   24.1480  -28.9370 N   0  0  0  0  0  0  0  0  0  0  0  0
   -4.8890   24.5140  -28.8780 C   0  0  0  0  0  0  0  0  0  0  0  0
   -5.7590   23.8850  -29.9710 C   0  0  0  0  0  0  0  0  0  0  0  0
   -5.0190   23.7980  -31.2320 N   0  0  0  0  0  0  0  0  0  0  0  0
   -5.8890   23.4530  -32.3810 C   0  0  0  0  0  0  0  0  0  0  0  0
   -6.3080   21.9960  -32.4260 C   0  0  0  0  0  0  0  0  0  0  0  0
   -5.5280   20.9860  -32.9650 C   0  0  0  0  0  0  0  0  0  0  0  0
   -6.2260   19.8130  -32.7750 C   0  0  0  0  0  0  0  0  0  0  0  0
   -5.6360   18.0690  -33.2780 Br  0  0  0  0  0  0  0  0  0  0  0  0
   -7.4040   20.1440  -32.1370 C   0  0  0  0  0  0  0  0  0  0  0  0
   -8.7420   18.8890  -31.5810 Br  0  0  0  0  0  0  0  0  0  0  0  0
   -7.4650   21.4780  -31.9400 N   0  0  0  0  0  0  0  0  0  0  0  0
   -8.5470   22.1810  -31.2500 C   0  0  0  0  0  0  0  0  0  0  0  0
   -3.9070   22.8570  -31.0610 C   0  0  0  0  0  0  0  0  0  0  0  0
   -2.8740   23.4410  -30.1010 C   0  0  0  0  0  0  0  0  0  0  0  0
   -3.0300   24.9350  -26.5920 C   0  0  0  0  0  0  0  0  0  0  0  0
   -2.1710   25.4140  -25.5980 C   0  0  0  0  0  0  0  0  0  0  0  0
   -0.3281   25.8753  -23.8093 H   0  0  0  0  0  0  0  0  0  0  0  0
    1.0785   25.5874  -24.8888 H   0  0  0  0  0  0  0  0  0  0  0  0
    0.2587   27.1857  -24.8888 H   0  0  0  0  0  0  0  0  0  0  0  0
    0.7488   25.4543  -27.3616 H   0  0  0  0  0  0  0  0  0  0  0  0
   -0.7663   24.6101  -29.1374 H   0  0  0  0  0  0  0  0  0  0  0  0
   -5.2833   24.1957  -27.9016 H   0  0  0  0  0  0  0  0  0  0  0  0
   -4.9372   25.6020  -29.0324 H   0  0  0  0  0  0  0  0  0  0  0  0
   -6.0590   22.8743  -29.6573 H   0  0  0  0  0  0  0  0  0  0  0  0
   -6.6475   24.5152  -30.1238 H   0  0  0  0  0  0  0  0  0  0  0  0
   -6.7967   24.0717  -32.3248 H   0  0  0  0  0  0  0  0  0  0  0  0
   -5.3012   23.6419  -33.2914 H   0  0  0  0  0  0  0  0  0  0  0  0
   -4.5464   21.0980  -33.4486 H   0  0  0  0  0  0  0  0  0  0  0  0
   -8.4080   22.0907  -30.1626 H   0  0  0  0  0  0  0  0  0  0  0  0
   -8.5339   23.2435  -31.5344 H   0  0  0  0  0  0  0  0  0  0  0  0
   -9.5125   21.7372  -31.5344 H   0  0  0  0  0  0  0  0  0  0  0  0
   -4.2901   21.9103  -30.6525 H   0  0  0  0  0  0  0  0  0  0  0  0
   -3.4326   22.6765  -32.0369 H   0  0  0  0  0  0  0  0  0  0  0  0
   -2.2476   22.6178  -29.7268 H   0  0  0  0  0  0  0  0  0  0  0  0
   -2.3026   24.1888  -30.6705 H   0  0  0  0  0  0  0  0  0  0  0  0
   -4.0936   24.7800  -26.3582 H   0  0  0  0  0  0  0  0  0  0  0  0
   -2.5637   25.6264  -24.5927 H   0  0  0  0  0  0  0  0  0  0  0  0
  1  2  1  0
  2  3  2  0
  3  4  1  0
  4  5  2  0
  5  6  1  0
  6  7  1  0
  7  8  1  0
  8  9  1  0
  9 10  1  0
 10 11  1  0
 11 12  2  0
 12 13  1  0
 13 14  1  0
 13 15  2  0
 15 16  1  0
 15 17  1  0
 17 18  1  0
  9 19  1  0
 19 20  1  0
  5 21  1  0
 21 22  2  0
 22  2  1  0
 20  6  1  0
 17 11  1  0
  1 23  1  0
  1 24  1  0
  1 25  1  0
  3 26  1  0
  4 27  1  0
  7 28  1  0
  7 29  1  0
  8 30  1  0
  8 31  1  0
 10 32  1  0
 10 33  1  0
 12 34  1  0
 18 35  1  0
 18 36  1  0
 18 37  1  0
 19 38  1  0
 19 39  1  0
 20 40  1  0
 20 41  1  0
 21 42  1  0
 22 43  1  0
M  END
>  <UniqueID>  (25) 
24

>  <SMILES>  (25) 
Cc1ccc(N2CCN(Cc3cc(Br)c(Br)n3C)CC2)cc1

>  <Energy>  (25) 
80.36717310209168

>  <Genealogy>  (25) 
Cc1ccc(N2CCN(Cc3cc(Br)c(Br)n3C)CC2)cc1 (3D coordinates assigned)
Cc1ccc(N2CCN(Cc3cc(Br)c(Br)n3C)CC2)cc1 (nonaromatic ring conformer: 80.36717310209168 kcal/mol)

>  <smiles>  (25) 
Cc1ccc(N2CCN(Cc3cc(Br)c(Br)n3C)CC2)cc1

>  <score_type>  (25) 
oracle

>  <origin>  (25) 
adg

>  <m_score__min__energy>  (25) 
-8.6400000000000006

>  <m_primary>  (25) 
energy

$$$$
25:0
     RDKit          3D

 39 41  0  0  0  0  0  0  0  0999 V2000
   -9.4950   21.8180  -32.1990 C   0  0  0  0  0  0  0  0  0  0  0  0
   -8.5540   21.3820  -30.7030 S   0  0  0  0  0  0  0  0  0  0  0  0
   -7.3910   20.3200  -31.5920 C   0  0  0  0  0  0  0  0  0  0  0  0
   -7.7700   19.0150  -31.9770 C   0  0  0  0  0  0  0  0  0  0  0  0
   -9.1210   18.4560  -31.6130 C   0  0  0  0  0  0  0  0  0  0  0  0
   -6.8910   18.2400  -32.7460 C   0  0  0  0  0  0  0  0  0  0  0  0
   -5.6370   18.7490  -33.0990 C   0  0  0  0  0  0  0  0  0  0  0  0
   -4.6920   17.9790  -33.9340 C   0  0  0  0  0  0  0  0  0  0  0  0
   -5.0050   16.8040  -34.5950 C   0  0  0  0  0  0  0  0  0  0  0  0
   -3.8460   16.4500  -35.2590 C   0  0  0  0  0  0  0  0  0  0  0  0
   -2.9030   17.3780  -35.0140 N   0  0  0  0  0  0  0  0  0  0  0  0
   -3.4110   18.3120  -34.2270 N   0  0  0  0  0  0  0  0  0  0  0  0
   -2.6730   19.5020  -33.8130 C   0  0  0  0  0  0  0  0  0  0  0  0
   -5.2960   20.0060  -32.7130 N   0  0  0  0  0  0  0  0  0  0  0  0
   -6.1110   20.7930  -31.9620 C   0  0  0  0  0  0  0  0  0  0  0  0
   -5.6280   22.1390  -31.5910 C   0  0  0  0  0  0  0  0  0  0  0  0
   -6.3800   23.2860  -31.8980 C   0  0  0  0  0  0  0  0  0  0  0  0
   -5.9230   24.5520  -31.5190 C   0  0  0  0  0  0  0  0  0  0  0  0
   -4.7190   24.6810  -30.8210 C   0  0  0  0  0  0  0  0  0  0  0  0
   -4.2770   25.9090  -30.4540 F   0  0  0  0  0  0  0  0  0  0  0  0
   -3.9750   23.5430  -30.4940 C   0  0  0  0  0  0  0  0  0  0  0  0
   -4.4300   22.2760  -30.8700 C   0  0  0  0  0  0  0  0  0  0  0  0
  -10.4579   22.2641  -31.9095 H   0  0  0  0  0  0  0  0  0  0  0  0
   -8.9203   22.5416  -32.7958 H   0  0  0  0  0  0  0  0  0  0  0  0
   -9.6755   20.9117  -32.7958 H   0  0  0  0  0  0  0  0  0  0  0  0
   -9.2183   18.4158  -30.5180 H   0  0  0  0  0  0  0  0  0  0  0  0
   -9.9089   19.1020  -32.0276 H   0  0  0  0  0  0  0  0  0  0  0  0
   -9.2221   17.4422  -32.0276 H   0  0  0  0  0  0  0  0  0  0  0  0
   -7.1873   17.2320  -33.0717 H   0  0  0  0  0  0  0  0  0  0  0  0
   -5.9661   16.2690  -34.5924 H   0  0  0  0  0  0  0  0  0  0  0  0
   -3.7156   15.5554  -35.8857 H   0  0  0  0  0  0  0  0  0  0  0  0
   -1.9310   17.3790  -35.3970 H   0  0  0  0  0  0  0  0  0  0  0  0
   -2.6427   19.5509  -32.7145 H   0  0  0  0  0  0  0  0  0  0  0  0
   -1.6469   19.4524  -34.2063 H   0  0  0  0  0  0  0  0  0  0  0  0
   -3.1735   20.3991  -34.2063 H   0  0  0  0  0  0  0  0  0  0  0  0
   -7.3327   23.1873  -32.4390 H   0  0  0  0  0  0  0  0  0  0  0  0
   -6.5113   25.4468  -31.7703 H   0  0  0  0  0  0  0  0  0  0  0  0
   -3.0302   23.6451  -29.9400 H   0  0  0  0  0  0  0  0  0  0  0  0
   -3.8477   21.3826  -30.6003 H   0  0  0  0  0  0  0  0  0  0  0  0
  1  2  1  0
  2  3  1  0
  3  4  2  0
  4  5  1  0
  4  6  1  0
  6  7  2  0
  7  8  1  0
  8  9  2  0
  9 10  1  0
 10 11  2  0
 11 12  1  0
 12 13  1  0
  7 14  1  0
 14 15  2  0
 15 16  1  0
 16 17  2  0
 17 18  1  0
 18 19  2  0
 19 20  1  0
 19 21  1  0
 21 22  2  0
 15  3  1  0
 22 16  1  0
 12  8  1  0
  1 23  1  0
  1 24  1  0
  1 25  1  0
  5 26  1  0
  5 27  1  0
  5 28  1  0
  6 29  1  0
  9 30  1  0
 10 31  1  0
 11 32  1  0
 13 33  1  0
 13 34  1  0
 13 35  1  0
 17 36  1  0
 18 37  1  0
 21 38  1  0
 22 39  1  0
M  CHG  1  11   1
M  END
>  <UniqueID>  (26) 
25

>  <SMILES>  (26) 
CSc1c(C)cc(-c2cc[nH+]n2C)nc1-c1ccc(F)cc1

>  <Energy>  (26) 
78.95119069701967

>  <Genealogy>  (26) 
CSc1c(C)cc(-c2cc[nH+]n2C)nc1-c1ccc(F)cc1 (protonated)
CSc1c(C)cc(-c2cc[nH+]n2C)nc1-c1ccc(F)cc1 (3D coordinates assigned)
CSc1c(C)cc(-c2cc[nH+]n2C)nc1-c1ccc(F)cc1 (optimized conformer: 78.95119069701967 kcal/mol)

>  <smiles>  (26) 
CSc1c(C)cc(-c2ccnn2C)nc1-c1ccc(F)cc1

>  <score_type>  (26) 
oracle

>  <origin>  (26) 
adg

>  <m_score__min__energy>  (26) 
-7.4100000000000001

>  <m_primary>  (26) 
energy

$$$$
26:0
     RDKit          3D

 52 54  0  0  0  0  0  0  0  0999 V2000
   -6.4010   24.7760  -30.1230 C   0  0  0  0  0  0  0  0  0  0  0  0
   -5.3570   25.6300  -30.8350 C   0  0  0  0  0  0  0  0  0  0  0  0
   -4.0020   25.1850  -30.4730 N   0  0  0  0  0  0  0  0  0  0  0  0
   -4.0090   24.0510  -29.5320 C   0  0  0  0  0  0  0  0  0  0  0  0
   -3.1530   22.8720  -30.0360 C   0  0  0  0  0  0  0  0  0  0  0  0
   -3.9260   21.9520  -30.9960 C   0  0  0  0  0  0  0  0  0  0  0  0
   -4.4760   22.6800  -32.2320 C   0  0  0  0  0  0  0  0  0  0  0  0
   -4.6450   21.7620  -33.3580 N   0  0  0  0  0  0  0  0  0  0  0  0
   -5.0620   20.4030  -33.1400 C   0  0  0  0  0  0  0  0  0  0  0  0
   -6.3720   20.1490  -32.6990 C   0  0  0  0  0  0  0  0  0  0  0  0
   -7.1800   21.1810  -32.1750 C   0  0  0  0  0  0  0  0  0  0  0  0
   -8.4660   20.9140  -31.7090 C   0  0  0  0  0  0  0  0  0  0  0  0
   -8.9640   19.6170  -31.7450 C   0  0  0  0  0  0  0  0  0  0  0  0
   -8.1920   18.5860  -32.2760 C   0  0  0  0  0  0  0  0  0  0  0  0
   -6.8950   18.8350  -32.7960 C   0  0  0  0  0  0  0  0  0  0  0  0
   -6.1520   17.8430  -33.3990 N   0  0  0  0  0  0  0  0  0  0  0  0
   -6.8100   16.5880  -33.8310 C   0  0  0  0  0  0  0  0  0  0  0  0
   -4.7960   18.0250  -33.6090 C   0  0  0  0  0  0  0  0  0  0  0  0
   -3.9600   16.9370  -33.9610 C   0  0  0  0  0  0  0  0  0  0  0  0
   -2.6040   17.1160  -34.1950 C   0  0  0  0  0  0  0  0  0  0  0  0
   -2.0240   18.3610  -34.0180 C   0  0  0  0  0  0  0  0  0  0  0  0
   -2.7880   19.4580  -33.5980 C   0  0  0  0  0  0  0  0  0  0  0  0
   -2.0280   20.7110  -33.2320 C   0  0  0  0  0  0  0  0  0  0  0  0
   -4.2070   19.3170  -33.4550 C   0  0  0  0  0  0  0  0  0  0  0  0
   -6.2772   24.8772  -29.0347 H   0  0  0  0  0  0  0  0  0  0  0  0
   -7.4080   25.1126  -30.4104 H   0  0  0  0  0  0  0  0  0  0  0  0
   -6.2707   23.7222  -30.4104 H   0  0  0  0  0  0  0  0  0  0  0  0
   -5.4916   25.5362  -31.9227 H   0  0  0  0  0  0  0  0  0  0  0  0
   -5.4833   26.6791  -30.5295 H   0  0  0  0  0  0  0  0  0  0  0  0
   -3.4850   24.9170  -31.3440 H   0  0  0  0  0  0  0  0  0  0  0  0
   -3.6101   24.3906  -28.5648 H   0  0  0  0  0  0  0  0  0  0  0  0
   -5.0465   23.6985  -29.4351 H   0  0  0  0  0  0  0  0  0  0  0  0
   -2.2746   23.2734  -30.5626 H   0  0  0  0  0  0  0  0  0  0  0  0
   -2.8607   22.2728  -29.1611 H   0  0  0  0  0  0  0  0  0  0  0  0
   -3.2488   21.1540  -31.3345 H   0  0  0  0  0  0  0  0  0  0  0  0
   -4.7902   21.5580  -30.4411 H   0  0  0  0  0  0  0  0  0  0  0  0
   -5.4510   23.1239  -31.9821 H   0  0  0  0  0  0  0  0  0  0  0  0
   -3.7570   23.4595  -32.5244 H   0  0  0  0  0  0  0  0  0  0  0  0
   -4.2580   22.0340  -34.2910 H   0  0  0  0  0  0  0  0  0  0  0  0
   -6.7898   22.2087  -32.1340 H   0  0  0  0  0  0  0  0  0  0  0  0
   -9.0874   21.7305  -31.3124 H   0  0  0  0  0  0  0  0  0  0  0  0
   -9.9697   19.4041  -31.3535 H   0  0  0  0  0  0  0  0  0  0  0  0
   -8.5942   17.5623  -32.2925 H   0  0  0  0  0  0  0  0  0  0  0  0
   -7.1133   16.0095  -32.9459 H   0  0  0  0  0  0  0  0  0  0  0  0
   -7.6981   16.8283  -34.4339 H   0  0  0  0  0  0  0  0  0  0  0  0
   -6.1072   15.9942  -34.4339 H   0  0  0  0  0  0  0  0  0  0  0  0
   -4.3943   15.9303  -34.0506 H   0  0  0  0  0  0  0  0  0  0  0  0
   -1.9875   16.2658  -34.5223 H   0  0  0  0  0  0  0  0  0  0  0  0
   -0.9486   18.4906  -34.2098 H   0  0  0  0  0  0  0  0  0  0  0  0
   -1.9738   20.8003  -32.1370 H   0  0  0  0  0  0  0  0  0  0  0  0
   -1.0104   20.6568  -33.6462 H   0  0  0  0  0  0  0  0  0  0  0  0
   -2.5463   21.5884  -33.6462 H   0  0  0  0  0  0  0  0  0  0  0  0
  1  2  1  0
  2  3  1  0
  3  4  1  0
  4  5  1  0
  5  6  1  0
  6  7  1  0
  7  8  1  0
  8  9  1  0
  9 10  2  0
 10 11  1  0
 11 12  2  0
 12 13  1  0
 13 14  2  0
 14 15  1  0
 15 16  2  0
 16 17  1  0
 16 18  1  0
 18 19  2  0
 19 20  1  0
 20 21  2  0
 21 22  1  0
 22 23  1  0
 22 24  2  0
 24  9  1  0
 15 10  1  0
 24 18  1  0
  1 25  1  0
  1 26  1  0
  1 27  1  0
  2 28  1  0
  2 29  1  0
  3 30  1  0
  4 31  1  0
  4 32  1  0
  5 33  1  0
  5 34  1  0
  6 35  1  0
  6 36  1  0
  7 37  1  0
  7 38  1  0
  8 39  1  0
 11 40  1  0
 12 41  1  0
 13 42  1  0
 14 43  1  0
 17 44  1  0
 17 45  1  0
 17 46  1  0
 19 47  1  0
 20 48  1  0
 21 49  1  0
 23 50  1  0
 23 51  1  0
 23 52  1  0
M  CHG  1  16   1
M  END
>  <UniqueID>  (27) 
26

>  <SMILES>  (27) 
CCNCCCCNc1c2ccccc2[n+](C)c2cccc(C)c12

>  <Energy>  (27) 
81.65971998464838

>  <Genealogy>  (27) 
CCNCCCCNc1c2ccccc2[n+](C)c2cccc(C)c12 (3D coordinates assigned)
CCNCCCCNc1c2ccccc2[n+](C)c2cccc(C)c12 (optimized conformer: 81.65971998464838 kcal/mol)

>  <smiles>  (27) 
CCNCCCCNc1c2ccccc2[n+](C)c2cccc(C)c12

>  <score_type>  (27) 
oracle

>  <origin>  (27) 
adg

>  <m_score__min__energy>  (27) 
-9.1799999999999997

>  <m_primary>  (27) 
energy

$$$$
27:0
     RDKit          3D

 51 54  0  0  1  0  0  0  0  0999 V2000
   -1.9730   25.0370  -27.9790 C   0  0  0  0  0  0  0  0  0  0  0  0
   -2.5260   25.0120  -29.2820 O   0  0  0  0  0  0  0  0  0  0  0  0
   -2.6340   23.8300  -29.9940 C   0  0  0  0  0  0  0  0  0  0  0  0
   -1.6750   22.8820  -29.7540 C   0  0  0  0  0  0  0  0  0  0  0  0
   -1.7300   21.7080  -30.4190 C   0  0  0  0  0  0  0  0  0  0  0  0
   -0.7810   20.7880  -30.1710 N   0  0  0  0  0  0  0  0  0  0  0  0
   -0.8240   19.6220  -30.8250 C   0  0  0  0  0  0  0  0  0  0  0  0
   -1.7970   19.3910  -31.7040 N   0  0  0  0  0  0  0  0  0  0  0  0
   -2.7660   20.3060  -31.9690 C   0  0  0  0  0  0  0  0  0  0  0  0
   -3.6270   20.0160  -32.7900 N   0  0  0  0  0  0  0  0  0  0  0  0
   -4.9320   19.6820  -32.6910 C   0  0  0  0  0  0  0  0  0  0  0  0
   -5.3550   18.5310  -31.9810 C   0  0  0  0  0  0  0  0  0  0  0  0
   -6.6860   18.1500  -31.9990 C   0  0  0  0  0  0  0  0  0  0  0  0
   -7.6030   18.8960  -32.7140 C   0  0  0  0  0  0  0  0  0  0  0  0
   -7.2170   20.0230  -33.4160 C   0  0  0  0  0  0  0  0  0  0  0  0
   -5.8950   20.4270  -33.4160 C   0  0  0  0  0  0  0  0  0  0  0  0
   -2.7620   21.5150  -31.3230 C   0  0  0  0  0  0  0  0  0  0  0  0
   -3.7110   22.4710  -31.5530 C   0  0  0  0  0  0  0  0  0  0  0  0
   -3.6770   23.7190  -30.8640 C   0  0  0  0  0  0  0  0  0  0  0  0
   -4.6450   24.5940  -31.1520 O   0  0  0  0  0  0  0  0  0  0  0  0
   -6.0090   24.5710  -31.0340 C   0  0  0  0  0  0  0  0  0  0  0  0
   -6.5530   23.7600  -32.2050 C   0  0  0  0  0  0  0  0  0  0  0  0
   -7.9950   23.4010  -32.0700 C   0  0  0  0  0  0  0  0  0  0  0  0
   -8.2030   22.6900  -30.8340 N   0  0  0  0  0  0  0  0  0  0  0  0
   -8.8790   21.4510  -31.1060 C   0  0  0  0  0  0  0  0  0  0  0  0
   -6.9720   22.5370  -30.0840 C   0  0  0  0  0  0  0  0  0  0  0  0
   -6.4870   23.9220  -29.7420 C   0  0  0  0  0  0  0  0  0  0  0  0
   -2.7833   25.0004  -27.2360 H   0  0  0  0  0  0  0  0  0  0  0  0
   -1.3124   24.1678  -27.8443 H   0  0  0  0  0  0  0  0  0  0  0  0
   -1.3936   25.9623  -27.8443 H   0  0  0  0  0  0  0  0  0  0  0  0
   -0.8705   23.0745  -29.0290 H   0  0  0  0  0  0  0  0  0  0  0  0
   -0.0090   20.9780  -29.4700 H   0  0  0  0  0  0  0  0  0  0  0  0
   -0.0574   18.8558  -30.6371 H   0  0  0  0  0  0  0  0  0  0  0  0
   -4.6230   17.9378  -31.4133 H   0  0  0  0  0  0  0  0  0  0  0  0
   -7.0121   17.2567  -31.4461 H   0  0  0  0  0  0  0  0  0  0  0  0
   -8.6589   18.5880  -32.7250 H   0  0  0  0  0  0  0  0  0  0  0  0
   -7.9658   20.6011  -33.9774 H   0  0  0  0  0  0  0  0  0  0  0  0
   -5.5917   21.3235  -33.9767 H   0  0  0  0  0  0  0  0  0  0  0  0
   -4.5127   22.2750  -32.2802 H   0  0  0  0  0  0  0  0  0  0  0  0
   -6.3685   25.6106  -31.0277 H   0  0  0  0  0  0  0  0  0  0  0  0
   -6.4272   24.3508  -33.1243 H   0  0  0  0  0  0  0  0  0  0  0  0
   -5.9887   22.8161  -32.2309 H   0  0  0  0  0  0  0  0  0  0  0  0
   -8.6022   24.3182  -32.0712 H   0  0  0  0  0  0  0  0  0  0  0  0
   -8.2924   22.7611  -32.9138 H   0  0  0  0  0  0  0  0  0  0  0  0
   -9.1454   20.9627  -30.1570 H   0  0  0  0  0  0  0  0  0  0  0  0
   -9.7929   21.6512  -31.6846 H   0  0  0  0  0  0  0  0  0  0  0  0
   -8.2160   20.7909  -31.6846 H   0  0  0  0  0  0  0  0  0  0  0  0
   -7.1596   21.9648  -29.1635 H   0  0  0  0  0  0  0  0  0  0  0  0
   -6.2193   21.9928  -30.6734 H   0  0  0  0  0  0  0  0  0  0  0  0
   -7.3081   24.5109  -29.3072 H   0  0  0  0  0  0  0  0  0  0  0  0
   -5.6707   23.8762  -29.0061 H   0  0  0  0  0  0  0  0  0  0  0  0
  1  2  1  0
  2  3  1  0
  3  4  2  0
  4  5  1  0
  5  6  1  0
  6  7  1  0
  7  8  2  0
  8  9  1  0
  9 10  2  0
 10 11  1  0
 11 12  2  0
 12 13  1  0
 13 14  2  0
 14 15  1  0
 15 16  2  0
  9 17  1  0
 17 18  1  0
 18 19  2  0
 19 20  1  0
 20 21  1  0
 21 22  1  0
 22 23  1  0
 23 24  1  0
 24 25  1  0
 24 26  1  0
 26 27  1  0
 19  3  1  0
 27 21  1  0
 17  5  2  0
 16 11  1  0
  1 28  1  0
  1 29  1  0
  1 30  1  0
  4 31  1  0
  6 32  1  0
  7 33  1  0
 12 34  1  0
 13 35  1  0
 14 36  1  0
 15 37  1  0
 16 38  1  0
 18 39  1  0
 21 40  1  0
 22 41  1  0
 22 42  1  0
 23 43  1  0
 23 44  1  0
 25 45  1  0
 25 46  1  0
 25 47  1  0
 26 48  1  0
 26 49  1  0
 27 50  1  0
 27 51  1  0
M  END
>  <smiles>  (28) 
COc1cc2[nH]cnc(=Nc3ccccc3)c2cc1OC1CCN(C)CC1

>  <score_type>  (28) 
oracle

>  <origin>  (28) 
adg

>  <m_score__min__energy>  (28) 
-8.9399999999999995

>  <m_primary>  (28) 
energy

$$$$
28:0
     RDKit          3D

 50 53  0  0  0  0  0  0  0  0999 V2000
   -1.2070   19.1470  -34.2600 C   0  0  0  0  0  0  0  0  0  0  0  0
   -2.4640   19.7470  -33.8260 N   0  0  0  0  0  0  0  0  0  0  0  0
   -2.6500   21.0330  -33.4720 C   0  0  0  0  0  0  0  0  0  0  0  0
   -3.9670   21.1930  -33.0730 C   0  0  0  0  0  0  0  0  0  0  0  0
   -4.6310   22.5020  -32.7120 C   0  0  0  0  0  0  0  0  0  0  0  0
   -4.1220   23.1050  -31.4610 N   0  0  0  0  0  0  0  0  0  0  0  0
   -3.3290   22.1630  -30.6380 C   0  0  0  0  0  0  0  0  0  0  0  0
   -3.1350   22.6410  -29.1800 C   0  0  0  0  0  0  0  0  0  0  0  0
   -3.3250   24.0940  -29.0370 N   0  0  0  0  0  0  0  0  0  0  0  0
   -2.5960   24.8160  -28.0220 C   0  0  0  0  0  0  0  0  0  0  0  0
   -1.3620   25.4210  -28.3230 C   0  0  0  0  0  0  0  0  0  0  0  0
   -0.6610   26.1270  -27.3410 C   0  0  0  0  0  0  0  0  0  0  0  0
   -1.1840   26.2380  -26.0500 C   0  0  0  0  0  0  0  0  0  0  0  0
   -0.5040   26.9250  -25.0990 F   0  0  0  0  0  0  0  0  0  0  0  0
   -2.4070   25.6410  -25.7380 C   0  0  0  0  0  0  0  0  0  0  0  0
   -3.1120   24.9330  -26.7170 C   0  0  0  0  0  0  0  0  0  0  0  0
   -4.4460   24.7610  -29.7170 C   0  0  0  0  0  0  0  0  0  0  0  0
   -5.1490   23.8100  -30.6820 C   0  0  0  0  0  0  0  0  0  0  0  0
   -4.5290   19.9210  -33.1870 C   0  0  0  0  0  0  0  0  0  0  0  0
   -5.9130   19.5100  -32.8800 C   0  0  0  0  0  0  0  0  0  0  0  0
   -6.1630   18.2180  -32.3920 C   0  0  0  0  0  0  0  0  0  0  0  0
   -7.4680   17.8210  -32.0830 C   0  0  0  0  0  0  0  0  0  0  0  0
   -8.5300   18.7130  -32.2490 C   0  0  0  0  0  0  0  0  0  0  0  0
   -9.7940   18.3280  -31.9460 F   0  0  0  0  0  0  0  0  0  0  0  0
   -8.2860   20.0080  -32.7150 C   0  0  0  0  0  0  0  0  0  0  0  0
   -6.9830   20.4100  -33.0240 C   0  0  0  0  0  0  0  0  0  0  0  0
   -3.5890   19.0750  -33.6510 N   0  0  0  0  0  0  0  0  0  0  0  0
   -0.6127   18.8633  -33.3789 H   0  0  0  0  0  0  0  0  0  0  0  0
   -1.4172   18.2521  -34.8641 H   0  0  0  0  0  0  0  0  0  0  0  0
   -0.6434   19.8732  -34.8641 H   0  0  0  0  0  0  0  0  0  0  0  0
   -1.8851   21.8232  -33.4957 H   0  0  0  0  0  0  0  0  0  0  0  0
   -4.4631   23.2141  -33.5335 H   0  0  0  0  0  0  0  0  0  0  0  0
   -5.6979   22.2866  -32.5526 H   0  0  0  0  0  0  0  0  0  0  0  0
   -3.8463   21.1924  -30.6216 H   0  0  0  0  0  0  0  0  0  0  0  0
   -2.3305   22.0919  -31.0939 H   0  0  0  0  0  0  0  0  0  0  0  0
   -3.8642   22.1243  -28.5386 H   0  0  0  0  0  0  0  0  0  0  0  0
   -2.1017   22.4066  -28.8843 H   0  0  0  0  0  0  0  0  0  0  0  0
   -0.9460   25.3379  -29.3379 H   0  0  0  0  0  0  0  0  0  0  0  0
    0.3037   26.5958  -27.5849 H   0  0  0  0  0  0  0  0  0  0  0  0
   -2.8167   25.7275  -24.7208 H   0  0  0  0  0  0  0  0  0  0  0  0
   -4.0752   24.4648  -26.4660 H   0  0  0  0  0  0  0  0  0  0  0  0
   -5.1687   25.1067  -28.9632 H   0  0  0  0  0  0  0  0  0  0  0  0
   -4.0495   25.6110  -30.2917 H   0  0  0  0  0  0  0  0  0  0  0  0
   -5.7514   23.0838  -30.1166 H   0  0  0  0  0  0  0  0  0  0  0  0
   -5.8151   24.3727  -31.3526 H   0  0  0  0  0  0  0  0  0  0  0  0
   -5.3290   17.5146  -32.2520 H   0  0  0  0  0  0  0  0  0  0  0  0
   -7.6584   16.8044  -31.7085 H   0  0  0  0  0  0  0  0  0  0  0  0
   -9.1214   20.7128  -32.8390 H   0  0  0  0  0  0  0  0  0  0  0  0
   -6.7948   21.4334  -33.3808 H   0  0  0  0  0  0  0  0  0  0  0  0
   -3.7070   18.0520  -33.8310 H   0  0  0  0  0  0  0  0  0  0  0  0
  1  2  1  0
  2  3  1  0
  3  4  2  0
  4  5  1  0
  5  6  1  0
  6  7  1  0
  7  8  1  0
  8  9  1  0
  9 10  1  0
 10 11  2  0
 11 12  1  0
 12 13  2  0
 13 14  1  0
 13 15  1  0
 15 16  2  0
  9 17  1  0
 17 18  1  0
  4 19  1  0
 19 20  1  0
 20 21  2  0
 21 22  1  0
 22 23  2  0
 23 24  1  0
 23 25  1  0
 25 26  2  0
 19 27  2  0
 27  2  1  0
 18  6  1  0
 26 20  1  0
 16 10  1  0
  1 28  1  0
  1 29  1  0
  1 30  1  0
  3 31  1  0
  5 32  1  0
  5 33  1  0
  7 34  1  0
  7 35  1  0
  8 36  1  0
  8 37  1  0
 11 38  1  0
 12 39  1  0
 15 40  1  0
 16 41  1  0
 17 42  1  0
 17 43  1  0
 18 44  1  0
 18 45  1  0
 21 46  1  0
 22 47  1  0
 25 48  1  0
 26 49  1  0
 27 50  1  0
M  CHG  1  27   1
M  END
>  <UniqueID>  (29) 
27

>  <SMILES>  (29) 
Cn1cc(CN2CCN(c3ccc(F)cc3)CC2)c(-c2ccc(F)cc2)[nH+]1

>  <Energy>  (29) 
99.13892935064713

>  <Genealogy>  (29) 
Cn1cc(CN2CCN(c3ccc(F)cc3)CC2)c(-c2ccc(F)cc2)[nH+]1 (protonated)
Cn1cc(CN2CCN(c3ccc(F)cc3)CC2)c(-c2ccc(F)cc2)[nH+]1 (3D coordinates assigned)
Cn1cc(CN2CCN(c3ccc(F)cc3)CC2)c(-c2ccc(F)cc2)[nH+]1 (nonaromatic ring conformer: 99.13892935064713 kcal/mol)

>  <smiles>  (29) 
Cn1cc(CN2CCN(c3ccc(F)cc3)CC2)c(-c2ccc(F)cc2)n1

>  <score_type>  (29) 
oracle

>  <origin>  (29) 
adg

>  <m_score__min__energy>  (29) 
-7.7699999999999996

>  <m_primary>  (29) 
energy

$$$$
29:0
     RDKit          3D

 76 79  0  0  0  0  0  0  0  0999 V2000
   -6.8410   15.8660  -34.1960 C   0  0  0  0  0  0  0  0  0  0  0  0
   -6.8610   17.1480  -33.3660 C   0  0  0  0  0  0  0  0  0  0  0  0
   -5.4890   17.6510  -33.1360 N   0  0  0  0  0  0  0  0  0  0  0  0
   -4.5540   16.5750  -32.7580 C   0  0  0  0  0  0  0  0  0  0  0  0
   -4.9810   18.4670  -34.2650 C   0  0  0  0  0  0  0  0  0  0  0  0
   -3.5350   18.9750  -34.0670 C   0  0  0  0  0  0  0  0  0  0  0  0
   -3.4650   20.2060  -33.1480 C   0  0  0  0  0  0  0  0  0  0  0  0
   -4.1330   19.9740  -31.8540 N   0  0  0  0  0  0  0  0  0  0  0  0
   -4.8280   21.1740  -31.4140 C   0  0  0  0  0  0  0  0  0  0  0  0
   -6.2300   21.3110  -31.5960 C   0  0  0  0  0  0  0  0  0  0  0  0
   -6.9850   20.3560  -32.3240 C   0  0  0  0  0  0  0  0  0  0  0  0
   -8.3690   20.4550  -32.4210 C   0  0  0  0  0  0  0  0  0  0  0  0
   -9.0350   21.5010  -31.8010 C   0  0  0  0  0  0  0  0  0  0  0  0
   -8.3190   22.4800  -31.1170 C   0  0  0  0  0  0  0  0  0  0  0  0
   -6.9020   22.4380  -31.0440 C   0  0  0  0  0  0  0  0  0  0  0  0
   -6.1850   23.4580  -30.4480 N   0  0  0  0  0  0  0  0  0  0  0  0
   -6.8510   24.7500  -30.1520 C   0  0  0  0  0  0  0  0  0  0  0  0
   -4.8390   23.3020  -30.1880 C   0  0  0  0  0  0  0  0  0  0  0  0
   -4.1360   24.2200  -29.3650 C   0  0  0  0  0  0  0  0  0  0  0  0
   -2.7410   24.1610  -29.2270 C   0  0  0  0  0  0  0  0  0  0  0  0
   -2.0050   25.0860  -28.4680 O   0  0  0  0  0  0  0  0  0  0  0  0
   -2.0620   25.2400  -27.0480 C   0  0  0  0  0  0  0  0  0  0  0  0
   -0.7230   24.9000  -26.3430 C   0  0  0  0  0  0  0  0  0  0  0  0
   -0.5790   25.3590  -24.9270 N   0  0  0  0  0  0  0  0  0  0  0  0
   -0.8030   24.2720  -24.1230 O   0  0  0  0  0  0  0  0  0  0  0  0
   -1.5640   26.4320  -24.5760 C   0  0  0  0  0  0  0  0  0  0  0  0
   -1.0270   27.8290  -24.9120 C   0  0  0  0  0  0  0  0  0  0  0  0
    0.1830   28.1520  -24.1160 N   0  0  0  0  0  0  0  0  0  0  0  0
    1.0220   29.1300  -24.8290 C   0  0  0  0  0  0  0  0  0  0  0  0
    0.9640   26.9570  -23.7090 C   0  0  0  0  0  0  0  0  0  0  0  0
    0.8400   25.8100  -24.7280 C   0  0  0  0  0  0  0  0  0  0  0  0
   -2.0420   23.1500  -29.8730 C   0  0  0  0  0  0  0  0  0  0  0  0
   -2.7150   22.1810  -30.6100 C   0  0  0  0  0  0  0  0  0  0  0  0
   -4.1230   22.2070  -30.7400 C   0  0  0  0  0  0  0  0  0  0  0  0
   -6.8274   14.9947  -33.5247 H   0  0  0  0  0  0  0  0  0  0  0  0
   -7.7386   15.8260  -34.8306 H   0  0  0  0  0  0  0  0  0  0  0  0
   -5.9426   15.8540  -34.8306 H   0  0  0  0  0  0  0  0  0  0  0  0
   -7.4403   17.9145  -33.9016 H   0  0  0  0  0  0  0  0  0  0  0  0
   -7.3220   16.9281  -32.3918 H   0  0  0  0  0  0  0  0  0  0  0  0
   -4.4959   16.5081  -31.6616 H   0  0  0  0  0  0  0  0  0  0  0  0
   -4.9123   15.6180  -33.1652 H   0  0  0  0  0  0  0  0  0  0  0  0
   -3.5564   16.7963  -33.1652 H   0  0  0  0  0  0  0  0  0  0  0  0
   -5.0110   17.8533  -35.1774 H   0  0  0  0  0  0  0  0  0  0  0  0
   -5.6259   19.3555  -34.3335 H   0  0  0  0  0  0  0  0  0  0  0  0
   -2.9351   18.1676  -33.6218 H   0  0  0  0  0  0  0  0  0  0  0  0
   -3.1462   19.2706  -35.0526 H   0  0  0  0  0  0  0  0  0  0  0  0
   -2.4086   20.4500  -32.9625 H   0  0  0  0  0  0  0  0  0  0  0  0
   -3.9846   21.0340  -33.6525 H   0  0  0  0  0  0  0  0  0  0  0  0
   -3.4500   19.6560  -31.1310 H   0  0  0  0  0  0  0  0  0  0  0  0
   -4.7860   19.1650  -31.9200 H   0  0  0  0  0  0  0  0  0  0  0  0
   -6.4668   19.5224  -32.8206 H   0  0  0  0  0  0  0  0  0  0  0  0
   -8.9354   19.7030  -32.9899 H   0  0  0  0  0  0  0  0  0  0  0  0
  -10.1325   21.5577  -31.8496 H   0  0  0  0  0  0  0  0  0  0  0  0
   -8.8612   23.3006  -30.6244 H   0  0  0  0  0  0  0  0  0  0  0  0
   -6.9208   24.8854  -29.0626 H   0  0  0  0  0  0  0  0  0  0  0  0
   -6.2647   25.5729  -30.5870 H   0  0  0  0  0  0  0  0  0  0  0  0
   -7.8614   24.7498  -30.5870 H   0  0  0  0  0  0  0  0  0  0  0  0
   -4.6975   24.9953  -28.8231 H   0  0  0  0  0  0  0  0  0  0  0  0
   -2.3222   26.2841  -26.8196 H   0  0  0  0  0  0  0  0  0  0  0  0
   -2.8178   24.5345  -26.6725 H   0  0  0  0  0  0  0  0  0  0  0  0
   -0.6084   23.8060  -26.3530 H   0  0  0  0  0  0  0  0  0  0  0  0
    0.0489   25.4454  -26.9057 H   0  0  0  0  0  0  0  0  0  0  0  0
   -0.2410   24.3590  -23.3080 H   0  0  0  0  0  0  0  0  0  0  0  0
   -2.4924   26.2619  -25.1409 H   0  0  0  0  0  0  0  0  0  0  0  0
   -1.7473   26.3872  -23.4923 H   0  0  0  0  0  0  0  0  0  0  0  0
   -0.7719   27.8663  -25.9814 H   0  0  0  0  0  0  0  0  0  0  0  0
   -1.8067   28.5661  -24.6697 H   0  0  0  0  0  0  0  0  0  0  0  0
    1.5578   29.7546  -24.0991 H   0  0  0  0  0  0  0  0  0  0  0  0
    1.7491   28.5982  -25.4602 H   0  0  0  0  0  0  0  0  0  0  0  0
    0.3858   29.7677  -25.4602 H   0  0  0  0  0  0  0  0  0  0  0  0
    2.0234   27.2392  -23.6196 H   0  0  0  0  0  0  0  0  0  0  0  0
    0.5634   26.6015  -22.7482 H   0  0  0  0  0  0  0  0  0  0  0  0
    1.2383   26.1535  -25.6941 H   0  0  0  0  0  0  0  0  0  0  0  0
    1.4074   24.9540  -24.3338 H   0  0  0  0  0  0  0  0  0  0  0  0
   -0.9449   23.1150  -29.8012 H   0  0  0  0  0  0  0  0  0  0  0  0
   -2.1419   21.3803  -31.1004 H   0  0  0  0  0  0  0  0  0  0  0  0
  1  2  1  0
  2  3  1  0
  3  4  1  0
  3  5  1  0
  5  6  1  0
  6  7  1  0
  7  8  1  0
  8  9  1  0
  9 10  2  0
 10 11  1  0
 11 12  2  0
 12 13  1  0
 13 14  2  0
 14 15  1  0
 15 16  2  0
 16 17  1  0
 16 18  1  0
 18 19  2  0
 19 20  1  0
 20 21  1  0
 21 22  1  0
 22 23  1  0
 23 24  1  0
 24 25  1  0
 24 26  1  0
 26 27  1  0
 27 28  1  0
 28 29  1  0
 28 30  1  0
 30 31  1  0
 20 32  2  0
 32 33  1  0
 33 34  2  0
 34  9  1  0
 15 10  1  0
 34 18  1  0
 31 24  1  0
  1 35  1  0
  1 36  1  0
  1 37  1  0
  2 38  1  0
  2 39  1  0
  4 40  1  0
  4 41  1  0
  4 42  1  0
  5 43  1  0
  5 44  1  0
  6 45  1  0
  6 46  1  0
  7 47  1  0
  7 48  1  0
  8 49  1  0
  8 50  1  0
 11 51  1  0
 12 52  1  0
 13 53  1  0
 14 54  1  0
 17 55  1  0
 17 56  1  0
 17 57  1  0
 19 58  1  0
 22 59  1  0
 22 60  1  0
 23 61  1  0
 23 62  1  0
 25 63  1  0
 26 64  1  0
 26 65  1  0
 27 66  1  0
 27 67  1  0
 29 68  1  0
 29 69  1  0
 29 70  1  0
 30 71  1  0
 30 72  1  0
 31 73  1  0
 31 74  1  0
 32 75  1  0
 33 76  1  0
M  CHG  3   8   1  16   1  24   1
M  END
>  <UniqueID>  (30) 
28

>  <SMILES>  (30) 
CCN(C)CCC[NH2+]c1c2ccccc2[n+](C)c2cc(OCC[N+]3(O)CCN(C)CC3)ccc12

>  <Energy>  (30) 
127.77828199855897

>  <Genealogy>  (30) 
CCN(C)CCC[NH2+]c1c2ccccc2[n+](C)c2cc(OCC[N+]3(O)CCN(C)CC3)ccc12 (protonated)
CCN(C)CCC[NH2+]c1c2ccccc2[n+](C)c2cc(OCC[N+]3(O)CCN(C)CC3)ccc12 (3D coordinates assigned)
CCN(C)CCC[NH2+]c1c2ccccc2[n+](C)c2cc(OCC[N+]3(O)CCN(C)CC3)ccc12 (nonaromatic ring conformer: 127.77828199855897 kcal/mol)

>  <smiles>  (30) 
CCN(C)CCCNc1c2ccccc2[n+](C)c2cc(OCC[N+]3([O-])CCN(C)CC3)ccc12

>  <score_type>  (30) 
oracle

>  <origin>  (30) 
adg

>  <m_score__min__energy>  (30) 
-7.6500000000000004

>  <m_primary>  (30) 
energy

$$$$
30:0
     RDKit          3D

 48 49  0  0  0  0  0  0  0  0999 V2000
   -3.3850   23.6450  -27.8710 C   0  0  0  0  0  0  0  0  0  0  0  0
   -2.5320   24.6240  -28.6710 C   0  0  0  0  0  0  0  0  0  0  0  0
   -3.1980   25.0040  -29.8750 O   0  0  0  0  0  0  0  0  0  0  0  0
   -4.5070   24.6400  -30.2380 C   0  0  0  0  0  0  0  0  0  0  0  0
   -5.6440   25.2820  -29.7070 C   0  0  0  0  0  0  0  0  0  0  0  0
   -6.9240   24.8800  -30.0920 C   0  0  0  0  0  0  0  0  0  0  0  0
   -7.0880   23.8430  -31.0110 C   0  0  0  0  0  0  0  0  0  0  0  0
   -5.9690   23.2020  -31.5460 C   0  0  0  0  0  0  0  0  0  0  0  0
   -4.6710   23.5900  -31.1560 C   0  0  0  0  0  0  0  0  0  0  0  0
   -3.5190   22.9480  -31.6480 O   0  0  0  0  0  0  0  0  0  0  0  0
   -2.6650   22.0890  -30.8900 C   0  0  0  0  0  0  0  0  0  0  0  0
   -2.3590   20.8190  -31.6800 C   0  0  0  0  0  0  0  0  0  0  0  0
   -2.7560   20.9860  -33.0840 N   0  0  0  0  0  0  0  0  0  0  0  0
   -2.7150   19.7200  -33.8440 C   0  0  0  0  0  0  0  0  0  0  0  0
   -4.0920   19.0420  -33.9850 C   0  0  0  0  0  0  0  0  0  0  0  0
   -5.1500   19.9320  -33.6130 O   0  0  0  0  0  0  0  0  0  0  0  0
   -6.3680   19.5940  -32.9950 C   0  0  0  0  0  0  0  0  0  0  0  0
   -6.7220   18.2760  -32.6400 C   0  0  0  0  0  0  0  0  0  0  0  0
   -7.9750   18.0100  -32.0810 C   0  0  0  0  0  0  0  0  0  0  0  0
   -8.8830   19.0480  -31.8630 C   0  0  0  0  0  0  0  0  0  0  0  0
   -8.5410   20.3660  -32.1910 C   0  0  0  0  0  0  0  0  0  0  0  0
   -9.5320   21.4680  -31.9690 C   0  0  0  0  0  0  0  0  0  0  0  0
   -7.2800   20.6320  -32.7510 C   0  0  0  0  0  0  0  0  0  0  0  0
   -3.2327   23.8198  -26.7957 H   0  0  0  0  0  0  0  0  0  0  0  0
   -4.4459   23.7946  -28.1201 H   0  0  0  0  0  0  0  0  0  0  0  0
   -3.0916   22.6145  -28.1201 H   0  0  0  0  0  0  0  0  0  0  0  0
   -2.3451   25.5213  -28.0627 H   0  0  0  0  0  0  0  0  0  0  0  0
   -1.5814   24.1354  -28.9309 H   0  0  0  0  0  0  0  0  0  0  0  0
   -5.5220   26.1036  -28.9859 H   0  0  0  0  0  0  0  0  0  0  0  0
   -7.8066   25.3825  -29.6694 H   0  0  0  0  0  0  0  0  0  0  0  0
   -8.0983   23.5307  -31.3138 H   0  0  0  0  0  0  0  0  0  0  0  0
   -6.1009   22.3897  -32.2759 H   0  0  0  0  0  0  0  0  0  0  0  0
   -1.7245   22.6148  -30.6689 H   0  0  0  0  0  0  0  0  0  0  0  0
   -3.1716   21.8153  -29.9528 H   0  0  0  0  0  0  0  0  0  0  0  0
   -1.2800   20.6113  -31.6299 H   0  0  0  0  0  0  0  0  0  0  0  0
   -2.9238   19.9813  -31.2449 H   0  0  0  0  0  0  0  0  0  0  0  0
   -3.7220   21.3910  -33.1250 H   0  0  0  0  0  0  0  0  0  0  0  0
   -2.3262   19.9311  -34.8511 H   0  0  0  0  0  0  0  0  0  0  0  0
   -2.0695   19.0275  -33.2839 H   0  0  0  0  0  0  0  0  0  0  0  0
   -4.2342   18.7336  -35.0313 H   0  0  0  0  0  0  0  0  0  0  0  0
   -4.1200   18.1698  -33.3153 H   0  0  0  0  0  0  0  0  0  0  0  0
   -6.0093   17.4542  -32.8036 H   0  0  0  0  0  0  0  0  0  0  0  0
   -8.2469   16.9787  -31.8117 H   0  0  0  0  0  0  0  0  0  0  0  0
   -9.8711   18.8297  -31.4318 H   0  0  0  0  0  0  0  0  0  0  0  0
   -9.6717   21.6234  -30.8890 H   0  0  0  0  0  0  0  0  0  0  0  0
   -9.1580   22.3953  -32.4275 H   0  0  0  0  0  0  0  0  0  0  0  0
  -10.4937   21.1942  -32.4275 H   0  0  0  0  0  0  0  0  0  0  0  0
   -7.0044   21.6671  -33.0013 H   0  0  0  0  0  0  0  0  0  0  0  0
  1  2  1  0
  2  3  1  0
  3  4  1  0
  4  5  2  0
  5  6  1  0
  6  7  2  0
  7  8  1  0
  8  9  2  0
  9 10  1  0
 10 11  1  0
 11 12  1  0
 12 13  1  0
 13 14  1  0
 14 15  1  0
 15 16  1  0
 16 17  1  0
 17 18  2  0
 18 19  1  0
 19 20  2  0
 20 21  1  0
 21 22  1  0
 21 23  2  0
  9  4  1  0
 23 17  1  0
  1 24  1  0
  1 25  1  0
  1 26  1  0
  2 27  1  0
  2 28  1  0
  5 29  1  0
  6 30  1  0
  7 31  1  0
  8 32  1  0
 11 33  1  0
 11 34  1  0
 12 35  1  0
 12 36  1  0
 13 37  1  0
 14 38  1  0
 14 39  1  0
 15 40  1  0
 15 41  1  0
 18 42  1  0
 19 43  1  0
 20 44  1  0
 22 45  1  0
 22 46  1  0
 22 47  1  0
 23 48  1  0
M  END
>  <UniqueID>  (31) 
29

>  <SMILES>  (31) 
CCOc1ccccc1OCCNCCOc1cccc(C)c1

>  <Energy>  (31) 
43.72207003377042

>  <Genealogy>  (31) 
CCOc1ccccc1OCCNCCOc1cccc(C)c1 (3D coordinates assigned)
CCOc1ccccc1OCCNCCOc1cccc(C)c1 (optimized conformer: 43.72207003377042 kcal/mol)

>  <smiles>  (31) 
CCOc1ccccc1OCCNCCOc1cccc(C)c1

>  <score_type>  (31) 
oracle

>  <origin>  (31) 
adg

>  <m_score__min__energy>  (31) 
-8.0899999999999999

>  <m_primary>  (31) 
energy

$$$$
