0:0
     RDKit          3D

 65 68  0  0  1  0  0  0  0  0999 V2000
   -7.4590   17.7560  -32.4540 C   0  0  0  0  0  0  0  0  0  0  0  0
   -6.4190   16.7390  -32.7160 C   0  0  0  0  0  0  0  0  0  0  0  0
   -6.2600   16.3720  -34.1490 N   0  0  0  0  0  0  0  0  0  0  0  0
   -7.1940   15.2290  -34.2620 C   0  0  0  0  0  0  0  0  0  0  0  0
   -6.4250   13.9400  -34.2540 C   0  0  0  0  0  0  0  0  0  0  0  0
   -4.8740   15.8740  -34.2140 C   0  0  0  0  0  0  0  0  0  0  0  0
   -4.0940   16.1240  -32.9690 C   0  0  0  0  0  0  0  0  0  0  0  0
   -3.1550   17.2390  -33.1140 N   0  0  0  0  0  0  0  0  0  0  0  0
   -3.4450   18.5930  -32.9540 C   0  0  0  0  0  0  0  0  0  0  0  0
   -4.6080   19.0730  -33.5720 C   0  0  0  0  0  0  0  0  0  0  0  0
   -4.9900   20.3920  -33.4710 C   0  0  0  0  0  0  0  0  0  0  0  0
   -4.2530   21.3010  -32.7600 C   0  0  0  0  0  0  0  0  0  0  0  0
   -4.7300   22.7020  -32.7220 C   0  0  0  0  0  0  0  0  0  0  0  0
   -4.8330   23.1280  -31.2940 C   0  0  0  0  0  0  0  0  0  0  0  0
   -3.5370   23.8460  -30.3130 S   0  0  0  0  0  0  0  0  0  0  0  0
   -4.6630   23.9780  -28.7930 C   0  0  0  0  0  0  0  0  0  0  0  0
   -4.2600   24.4570  -27.7240 N   0  0  0  0  0  0  0  0  0  0  0  0
   -2.9840   24.2120  -27.1450 C   0  0  0  0  0  0  0  0  0  0  0  0
   -2.2420   23.0900  -27.3300 C   0  0  0  0  0  0  0  0  0  0  0  0
   -1.0040   22.9600  -26.7160 C   0  0  0  0  0  0  0  0  0  0  0  0
   -0.4710   23.9470  -25.8990 C   0  0  0  0  0  0  0  0  0  0  0  0
   -1.2350   25.1010  -25.7100 C   0  0  0  0  0  0  0  0  0  0  0  0
   -2.4710   25.2230  -26.3260 C   0  0  0  0  0  0  0  0  0  0  0  0
   -5.7890   23.4730  -29.2660 N   0  0  0  0  0  0  0  0  0  0  0  0
   -5.8940   23.0590  -30.4620 N   0  0  0  0  0  0  0  0  0  0  0  0
   -7.1420   22.5020  -30.9930 C   0  0  0  0  0  0  0  0  0  0  0  0
   -7.9970   23.4150  -31.5690 C   0  0  0  0  0  0  0  0  0  0  0  0
   -9.1820   22.9500  -32.0860 C   0  0  0  0  0  0  0  0  0  0  0  0
   -9.5040   21.5970  -32.0270 C   0  0  0  0  0  0  0  0  0  0  0  0
   -8.6090   20.7220  -31.4370 C   0  0  0  0  0  0  0  0  0  0  0  0
   -7.3960   21.1540  -30.9010 C   0  0  0  0  0  0  0  0  0  0  0  0
   -3.1080   20.8570  -32.1440 C   0  0  0  0  0  0  0  0  0  0  0  0
   -2.7240   19.5170  -32.2500 C   0  0  0  0  0  0  0  0  0  0  0  0
   -7.5856   17.8798  -31.3683 H   0  0  0  0  0  0  0  0  0  0  0  0
   -7.1548   18.7147  -32.8993 H   0  0  0  0  0  0  0  0  0  0  0  0
   -8.4107   17.4304  -32.8993 H   0  0  0  0  0  0  0  0  0  0  0  0
   -5.4571   17.1302  -32.3531 H   0  0  0  0  0  0  0  0  0  0  0  0
   -6.7374   15.8251  -32.1932 H   0  0  0  0  0  0  0  0  0  0  0  0
   -7.8922   15.2428  -33.4121 H   0  0  0  0  0  0  0  0  0  0  0  0
   -7.7551   15.3108  -35.2046 H   0  0  0  0  0  0  0  0  0  0  0  0
   -6.2400   13.6299  -33.2150 H   0  0  0  0  0  0  0  0  0  0  0  0
   -7.0070   13.1626  -34.7706 H   0  0  0  0  0  0  0  0  0  0  0  0
   -5.4644   14.0829  -34.7706 H   0  0  0  0  0  0  0  0  0  0  0  0
   -4.9018   14.7895  -34.3957 H   0  0  0  0  0  0  0  0  0  0  0  0
   -4.3715   16.4201  -35.0260 H   0  0  0  0  0  0  0  0  0  0  0  0
   -4.7948   16.3558  -32.1534 H   0  0  0  0  0  0  0  0  0  0  0  0
   -3.5089   15.2182  -32.7517 H   0  0  0  0  0  0  0  0  0  0  0  0
   -2.1690   16.9300  -33.3630 H   0  0  0  0  0  0  0  0  0  0  0  0
   -5.2318   18.3777  -34.1529 H   0  0  0  0  0  0  0  0  0  0  0  0
   -5.9102   20.7238  -33.9741 H   0  0  0  0  0  0  0  0  0  0  0  0
   -4.0179   23.3511  -33.2526 H   0  0  0  0  0  0  0  0  0  0  0  0
   -5.7125   22.7795  -33.2107 H   0  0  0  0  0  0  0  0  0  0  0  0
   -2.6237   22.2804  -27.9694 H   0  0  0  0  0  0  0  0  0  0  0  0
   -0.4239   22.0405  -26.8832 H   0  0  0  0  0  0  0  0  0  0  0  0
    0.5119   23.8257  -25.4203 H   0  0  0  0  0  0  0  0  0  0  0  0
   -0.8559   25.9131  -25.0723 H   0  0  0  0  0  0  0  0  0  0  0  0
   -3.0623   26.1368  -26.1668 H   0  0  0  0  0  0  0  0  0  0  0  0
   -6.6410   23.4220  -28.5790 H   0  0  0  0  0  0  0  0  0  0  0  0
   -7.7392   24.4834  -31.6138 H   0  0  0  0  0  0  0  0  0  0  0  0
   -9.8851   23.6557  -32.5524 H   0  0  0  0  0  0  0  0  0  0  0  0
  -10.4540   21.2296  -32.4424 H   0  0  0  0  0  0  0  0  0  0  0  0
   -8.8620   19.6526  -31.3892 H   0  0  0  0  0  0  0  0  0  0  0  0
   -6.6849   20.4576  -30.4326 H   0  0  0  0  0  0  0  0  0  0  0  0
   -2.4905   21.5592  -31.5647 H   0  0  0  0  0  0  0  0  0  0  0  0
   -1.8022   19.1921  -31.7453 H   0  0  0  0  0  0  0  0  0  0  0  0
  1  2  1  0
  2  3  1  0
  3  4  1  0
  4  5  1  0
  3  6  1  0
  6  7  1  0
  7  8  1  0
  8  9  1  0
  9 10  2  0
 10 11  1  0
 11 12  2  0
 12 13  1  0
 13 14  1  0
 14 15  1  0
 15 16  1  0
 16 17  2  0
 17 18  1  0
 18 19  2  0
 19 20  1  0
 20 21  2  0
 21 22  1  0
 22 23  2  0
 16 24  1  0
 24 25  1  0
 25 26  1  0
 26 27  2  0
 27 28  1  0
 28 29  2  0
 29 30  1  0
 30 31  2  0
 12 32  1  0
 32 33  2  0
 33  9  1  0
 25 14  2  0
 31 26  1  0
 23 18  1  0
  1 34  1  0
  1 35  1  0
  1 36  1  0
  2 37  1  0
  2 38  1  0
  4 39  1  0
  4 40  1  0
  5 41  1  0
  5 42  1  0
  5 43  1  0
  6 44  1  0
  6 45  1  0
  7 46  1  0
  7 47  1  0
  8 48  1  0
 10 49  1  0
 11 50  1  0
 13 51  1  0
 13 52  1  0
 19 53  1  0
 20 54  1  0
 21 55  1  0
 22 56  1  0
 23 57  1  0
 24 58  1  0
 27 59  1  0
 28 60  1  0
 29 61  1  0
 30 62  1  0
 31 63  1  0
 32 64  1  0
 33 65  1  0
M  CHG  1  25   1
M  END
>  <smiles>  (1) 
CCN(CC)CCNc1ccc(Cc2sc(=Nc3ccccc3)[nH][n+]2-c2ccccc2)cc1

>  <score_type>  (1) 
oracle

>  <origin>  (1) 
adg

>  <m_score__min__energy>  (1) 
-8.6799999999999997

>  <m_primary>  (1) 
energy

$$$$
1:0
     RDKit          3D

 37 37  0  0  0  0  0  0  0  0999 V2000
   -0.8880   22.0090  -26.3710 C   0  0  0  0  0  0  0  0  0  0  0  0
    0.4610   22.7280  -26.3650 C   0  0  0  0  0  0  0  0  0  0  0  0
    0.4580   23.9640  -25.4620 C   0  0  0  0  0  0  0  0  0  0  0  0
   -1.2430   24.5630  -25.1720 S   0  0  0  0  0  0  0  0  0  0  0  0
   -0.8730   26.2450  -25.6890 C   0  0  0  0  0  0  0  0  0  0  0  0
   -0.7910   27.1900  -24.7130 N   0  0  0  0  0  0  0  0  0  0  0  0
   -0.5370   28.4950  -24.9840 C   0  0  0  0  0  0  0  0  0  0  0  0
   -0.3560   28.9100  -26.2990 C   0  0  0  0  0  0  0  0  0  0  0  0
   -0.4340   27.9730  -27.3280 C   0  0  0  0  0  0  0  0  0  0  0  0
   -0.6890   26.6170  -27.0470 C   0  0  0  0  0  0  0  0  0  0  0  0
   -0.7810   25.6550  -28.1770 C   0  0  0  0  0  0  0  0  0  0  0  0
    0.1910   24.9070  -28.4700 O   0  0  0  0  0  0  0  0  0  0  0  0
   -1.9810   25.5850  -28.9580 N   0  0  0  0  0  0  0  0  0  0  0  0
   -2.9780   24.5270  -28.8240 C   0  0  0  0  0  0  0  0  0  0  0  0
   -3.5700   24.1720  -30.1870 C   0  0  0  0  0  0  0  0  0  0  0  0
   -4.0030   25.3450  -30.8430 O   0  0  0  0  0  0  0  0  0  0  0  0
   -5.3440   25.6400  -30.5000 C   0  0  0  0  0  0  0  0  0  0  0  0
   -6.1730   24.3620  -30.4710 C   0  0  0  0  0  0  0  0  0  0  0  0
   -1.2152   21.8346  -25.3354 H   0  0  0  0  0  0  0  0  0  0  0  0
   -1.6322   22.6301  -26.8910 H   0  0  0  0  0  0  0  0  0  0  0  0
   -0.7873   21.0449  -26.8910 H   0  0  0  0  0  0  0  0  0  0  0  0
    1.2319   22.0301  -26.0064 H   0  0  0  0  0  0  0  0  0  0  0  0
    0.6678   23.0629  -27.3922 H   0  0  0  0  0  0  0  0  0  0  0  0
    0.9169   23.7046  -24.4966 H   0  0  0  0  0  0  0  0  0  0  0  0
    1.0290   24.7616  -25.9599 H   0  0  0  0  0  0  0  0  0  0  0  0
   -0.4742   29.2249  -24.1634 H   0  0  0  0  0  0  0  0  0  0  0  0
   -0.1533   29.9673  -26.5248 H   0  0  0  0  0  0  0  0  0  0  0  0
   -0.2949   28.2962  -28.3702 H   0  0  0  0  0  0  0  0  0  0  0  0
   -2.5021   23.6340  -28.3926 H   0  0  0  0  0  0  0  0  0  0  0  0
   -3.7861   24.8816  -28.1672 H   0  0  0  0  0  0  0  0  0  0  0  0
   -2.8037   23.6736  -30.7989 H   0  0  0  0  0  0  0  0  0  0  0  0
   -4.4282   23.4987  -30.0449 H   0  0  0  0  0  0  0  0  0  0  0  0
   -5.3696   26.1123  -29.5069 H   0  0  0  0  0  0  0  0  0  0  0  0
   -5.7647   26.3238  -31.2520 H   0  0  0  0  0  0  0  0  0  0  0  0
   -6.3618   24.0710  -29.4271 H   0  0  0  0  0  0  0  0  0  0  0  0
   -7.1314   24.5349  -30.9825 H   0  0  0  0  0  0  0  0  0  0  0  0
   -5.6244   23.5574  -30.9825 H   0  0  0  0  0  0  0  0  0  0  0  0
  1  2  1  0
  2  3  1  0
  3  4  1  0
  4  5  1  0
  5  6  2  0
  6  7  1  0
  7  8  2  0
  8  9  1  0
  9 10  2  0
 10 11  1  0
 11 12  2  0
 11 13  1  0
 13 14  1  0
 14 15  1  0
 15 16  1  0
 16 17  1  0
 17 18  1  0
 10  5  1  0
  1 19  1  0
  1 20  1  0
  1 21  1  0
  2 22  1  0
  2 23  1  0
  3 24  1  0
  3 25  1  0
  7 26  1  0
  8 27  1  0
  9 28  1  0
 14 29  1  0
 14 30  1  0
 15 31  1  0
 15 32  1  0
 17 33  1  0
 17 34  1  0
 18 35  1  0
 18 36  1  0
 18 37  1  0
M  CHG  1  13  -1
M  END
>  <UniqueID>  (2) 
1

>  <SMILES>  (2) 
CCCSc1ncccc1C(=O)[N-]CCOCC

>  <Energy>  (2) 
25.860631333205948

>  <Genealogy>  (2) 
CCCSc1ncccc1C(=O)[N-]CCOCC (protonated)
CCCSc1ncccc1C(=O)[N-]CCOCC (3D coordinates assigned)
CCCSc1ncccc1C(=O)[N-]CCOCC (optimized conformer: 25.860631333205948 kcal/mol)

>  <smiles>  (2) 
CCCSc1ncccc1C(=O)NCCOCC

>  <score_type>  (2) 
oracle

>  <origin>  (2) 
adg

>  <m_score__min__energy>  (2) 
-8.0899999999999999

>  <m_primary>  (2) 
energy

$$$$
2:0
     RDKit          3D

 54 56  0  0  0  0  0  0  0  0999 V2000
   -0.6810   21.5840  -30.0830 C   0  0  0  0  0  0  0  0  0  0  0  0
   -1.3490   22.9550  -30.0340 C   0  0  0  0  0  0  0  0  0  0  0  0
   -2.7880   22.8190  -29.7160 N   0  0  0  0  0  0  0  0  0  0  0  0
   -3.1050   21.4400  -29.3040 C   0  0  0  0  0  0  0  0  0  0  0  0
   -3.1970   23.7700  -28.6590 C   0  0  0  0  0  0  0  0  0  0  0  0
   -4.4420   24.5420  -29.0980 C   0  0  0  0  0  0  0  0  0  0  0  0
   -4.2540   25.0280  -30.4710 N   0  0  0  0  0  0  0  0  0  0  0  0
   -5.5300   25.2070  -31.1760 C   0  0  0  0  0  0  0  0  0  0  0  0
   -5.9180   23.9540  -31.9740 C   0  0  0  0  0  0  0  0  0  0  0  0
   -5.1320   22.7880  -31.5660 N   0  0  0  0  0  0  0  0  0  0  0  0
   -5.3180   21.4920  -32.1630 C   0  0  0  0  0  0  0  0  0  0  0  0
   -6.5700   20.8550  -32.1180 C   0  0  0  0  0  0  0  0  0  0  0  0
   -7.6240   21.3870  -31.3450 C   0  0  0  0  0  0  0  0  0  0  0  0
   -8.8560   20.7420  -31.2810 C   0  0  0  0  0  0  0  0  0  0  0  0
   -9.0510   19.5460  -31.9620 C   0  0  0  0  0  0  0  0  0  0  0  0
   -8.0200   18.9930  -32.7190 C   0  0  0  0  0  0  0  0  0  0  0  0
   -6.7650   19.6420  -32.8320 C   0  0  0  0  0  0  0  0  0  0  0  0
   -5.7400   19.1160  -33.5960 N   0  0  0  0  0  0  0  0  0  0  0  0
   -6.0200   18.0390  -34.5720 C   0  0  0  0  0  0  0  0  0  0  0  0
   -4.4580   19.6180  -33.4700 C   0  0  0  0  0  0  0  0  0  0  0  0
   -3.3370   18.9470  -34.0200 C   0  0  0  0  0  0  0  0  0  0  0  0
   -2.0600   19.5010  -33.9440 C   0  0  0  0  0  0  0  0  0  0  0  0
   -1.8620   20.7230  -33.3130 C   0  0  0  0  0  0  0  0  0  0  0  0
   -2.9380   21.3880  -32.7280 C   0  0  0  0  0  0  0  0  0  0  0  0
   -4.2360   20.8370  -32.7760 C   0  0  0  0  0  0  0  0  0  0  0  0
   -0.5059   21.2246  -29.0582 H   0  0  0  0  0  0  0  0  0  0  0  0
   -1.3352   20.8761  -30.6131 H   0  0  0  0  0  0  0  0  0  0  0  0
    0.2796   21.6629  -30.6131 H   0  0  0  0  0  0  0  0  0  0  0  0
   -0.8633   23.5669  -29.2596 H   0  0  0  0  0  0  0  0  0  0  0  0
   -1.2458   23.4365  -31.0176 H   0  0  0  0  0  0  0  0  0  0  0  0
   -3.1189   21.3795  -28.2058 H   0  0  0  0  0  0  0  0  0  0  0  0
   -4.0917   21.1568  -29.6994 H   0  0  0  0  0  0  0  0  0  0  0  0
   -2.3410   20.7544  -29.6994 H   0  0  0  0  0  0  0  0  0  0  0  0
   -3.4203   23.2142  -27.7364 H   0  0  0  0  0  0  0  0  0  0  0  0
   -2.3777   24.4815  -28.4790 H   0  0  0  0  0  0  0  0  0  0  0  0
   -5.3182   23.8780  -29.0602 H   0  0  0  0  0  0  0  0  0  0  0  0
   -4.6020   25.3964  -28.4239 H   0  0  0  0  0  0  0  0  0  0  0  0
   -3.6950   24.3110  -30.9890 H   0  0  0  0  0  0  0  0  0  0  0  0
   -6.3183   25.4183  -30.4385 H   0  0  0  0  0  0  0  0  0  0  0  0
   -5.4173   26.0425  -31.8826 H   0  0  0  0  0  0  0  0  0  0  0  0
   -6.9843   23.7412  -31.8076 H   0  0  0  0  0  0  0  0  0  0  0  0
   -5.7165   24.1485  -33.0378 H   0  0  0  0  0  0  0  0  0  0  0  0
   -4.3720   22.9130  -30.8620 H   0  0  0  0  0  0  0  0  0  0  0  0
   -7.4703   22.3222  -30.7866 H   0  0  0  0  0  0  0  0  0  0  0  0
   -9.6754   21.1789  -30.6914 H   0  0  0  0  0  0  0  0  0  0  0  0
  -10.0229   19.0341  -31.9031 H   0  0  0  0  0  0  0  0  0  0  0  0
   -8.1829   18.0367  -33.2376 H   0  0  0  0  0  0  0  0  0  0  0  0
   -6.2614   17.1104  -34.0341 H   0  0  0  0  0  0  0  0  0  0  0  0
   -6.8726   18.3291  -35.2036 H   0  0  0  0  0  0  0  0  0  0  0  0
   -5.1341   17.8771  -35.2036 H   0  0  0  0  0  0  0  0  0  0  0  0
   -3.4769   17.9743  -34.5143 H   0  0  0  0  0  0  0  0  0  0  0  0
   -1.2050   18.9682  -34.3857 H   0  0  0  0  0  0  0  0  0  0  0  0
   -0.8557   21.1656  -33.2752 H   0  0  0  0  0  0  0  0  0  0  0  0
   -2.7737   22.3518  -32.2239 H   0  0  0  0  0  0  0  0  0  0  0  0
  1  2  1  0
  2  3  1  0
  3  4  1  0
  3  5  1  0
  5  6  1  0
  6  7  1  0
  7  8  1  0
  8  9  1  0
  9 10  1  0
 10 11  1  0
 11 12  2  0
 12 13  1  0
 13 14  2  0
 14 15  1  0
 15 16  2  0
 16 17  1  0
 17 18  2  0
 18 19  1  0
 18 20  1  0
 20 21  2  0
 21 22  1  0
 22 23  2  0
 23 24  1  0
 24 25  2  0
 25 11  1  0
 17 12  1  0
 25 20  1  0
  1 26  1  0
  1 27  1  0
  1 28  1  0
  2 29  1  0
  2 30  1  0
  4 31  1  0
  4 32  1  0
  4 33  1  0
  5 34  1  0
  5 35  1  0
  6 36  1  0
  6 37  1  0
  7 38  1  0
  8 39  1  0
  8 40  1  0
  9 41  1  0
  9 42  1  0
 10 43  1  0
 13 44  1  0
 14 45  1  0
 15 46  1  0
 16 47  1  0
 19 48  1  0
 19 49  1  0
 19 50  1  0
 21 51  1  0
 22 52  1  0
 23 53  1  0
 24 54  1  0
M  CHG  1  18   1
M  END
>  <UniqueID>  (3) 
2

>  <SMILES>  (3) 
CCN(C)CCNCCNc1c2ccccc2[n+](C)c2ccccc12

>  <Energy>  (3) 
73.2522293776106

>  <Genealogy>  (3) 
CCN(C)CCNCCNc1c2ccccc2[n+](C)c2ccccc12 (3D coordinates assigned)
CCN(C)CCNCCNc1c2ccccc2[n+](C)c2ccccc12 (optimized conformer: 73.2522293776106 kcal/mol)

>  <smiles>  (3) 
CCN(C)CCNCCNc1c2ccccc2[n+](C)c2ccccc12

>  <score_type>  (3) 
oracle

>  <origin>  (3) 
adg

>  <m_score__min__energy>  (3) 
-8.5600000000000005

>  <m_primary>  (3) 
energy

$$$$
3:0
     RDKit          3D

 59 61  0  0  0  0  0  0  0  0999 V2000
   -3.4010   22.9450  -30.8190 C   0  0  0  0  0  0  0  0  0  0  0  0
   -3.7930   24.0400  -29.8330 C   0  0  0  0  0  0  0  0  0  0  0  0
   -3.8260   25.2970  -30.4840 O   0  0  0  0  0  0  0  0  0  0  0  0
   -5.1460   25.6260  -30.8650 C   0  0  0  0  0  0  0  0  0  0  0  0
   -6.1250   24.8270  -29.9850 C   0  0  0  0  0  0  0  0  0  0  0  0
   -6.5620   23.5400  -30.5710 N   0  0  0  0  0  0  0  0  0  0  0  0
   -7.3510   22.7030  -29.6410 C   0  0  0  0  0  0  0  0  0  0  0  0
   -8.0250   21.5510  -30.3950 C   0  0  0  0  0  0  0  0  0  0  0  0
   -8.9910   22.0510  -31.4070 N   0  0  0  0  0  0  0  0  0  0  0  0
   -9.2260   21.0510  -32.4700 C   0  0  0  0  0  0  0  0  0  0  0  0
   -7.9940   20.2030  -32.7010 C   0  0  0  0  0  0  0  0  0  0  0  0
   -6.8720   20.7600  -33.3280 C   0  0  0  0  0  0  0  0  0  0  0  0
   -5.7530   20.0160  -33.5160 N   0  0  0  0  0  0  0  0  0  0  0  0
   -5.6890   18.7240  -33.1000 C   0  0  0  0  0  0  0  0  0  0  0  0
   -4.4460   17.9080  -33.3330 C   0  0  0  0  0  0  0  0  0  0  0  0
   -4.6960   16.8160  -34.4040 C   0  0  0  0  0  0  0  0  0  0  0  0
   -3.4120   16.3650  -35.1300 C   0  0  0  0  0  0  0  0  0  0  0  0
   -2.1700   16.5270  -34.2480 C   0  0  0  0  0  0  0  0  0  0  0  0
   -1.9490   17.9970  -33.8370 C   0  0  0  0  0  0  0  0  0  0  0  0
   -3.2580   18.8060  -33.7190 C   0  0  0  0  0  0  0  0  0  0  0  0
   -6.7650   18.1610  -32.4910 N   0  0  0  0  0  0  0  0  0  0  0  0
   -7.9110   18.8600  -32.2740 C   0  0  0  0  0  0  0  0  0  0  0  0
   -9.0540   18.1700  -31.5890 C   0  0  0  0  0  0  0  0  0  0  0  0
   -8.6300   23.3770  -31.9710 C   0  0  0  0  0  0  0  0  0  0  0  0
   -7.1140   23.6350  -31.9420 C   0  0  0  0  0  0  0  0  0  0  0  0
   -3.0807   22.0503  -30.2650 H   0  0  0  0  0  0  0  0  0  0  0  0
   -4.2653   22.6947  -31.4516 H   0  0  0  0  0  0  0  0  0  0  0  0
   -2.5742   23.3001  -31.4516 H   0  0  0  0  0  0  0  0  0  0  0  0
   -4.7885   23.8182  -29.4210 H   0  0  0  0  0  0  0  0  0  0  0  0
   -3.0499   24.0755  -29.0228 H   0  0  0  0  0  0  0  0  0  0  0  0
   -5.3150   26.7036  -30.7230 H   0  0  0  0  0  0  0  0  0  0  0  0
   -5.3043   25.3771  -31.9247 H   0  0  0  0  0  0  0  0  0  0  0  0
   -5.6320   24.6179  -29.0241 H   0  0  0  0  0  0  0  0  0  0  0  0
   -7.0279   25.4460  -29.8775 H   0  0  0  0  0  0  0  0  0  0  0  0
   -6.6832   22.2897  -28.8708 H   0  0  0  0  0  0  0  0  0  0  0  0
   -8.1286   23.3258  -29.1746 H   0  0  0  0  0  0  0  0  0  0  0  0
   -7.2517   20.9560  -30.9030 H   0  0  0  0  0  0  0  0  0  0  0  0
   -8.5762   20.9386  -29.6662 H   0  0  0  0  0  0  0  0  0  0  0  0
  -10.0604   20.3991  -32.1721 H   0  0  0  0  0  0  0  0  0  0  0  0
   -9.4651   21.5821  -33.4032 H   0  0  0  0  0  0  0  0  0  0  0  0
   -6.8982   21.8053  -33.6695 H   0  0  0  0  0  0  0  0  0  0  0  0
   -4.1885   17.4033  -32.3901 H   0  0  0  0  0  0  0  0  0  0  0  0
   -5.1439   15.9404  -33.9113 H   0  0  0  0  0  0  0  0  0  0  0  0
   -5.3622   17.2519  -35.1630 H   0  0  0  0  0  0  0  0  0  0  0  0
   -3.5145   15.3059  -35.4088 H   0  0  0  0  0  0  0  0  0  0  0  0
   -3.2831   16.9987  -36.0199 H   0  0  0  0  0  0  0  0  0  0  0  0
   -2.2956   15.9183  -33.3404 H   0  0  0  0  0  0  0  0  0  0  0  0
   -1.2940   16.1975  -34.8260 H   0  0  0  0  0  0  0  0  0  0  0  0
   -1.4404   18.0133  -32.8618 H   0  0  0  0  0  0  0  0  0  0  0  0
   -1.3476   18.4677  -34.6287 H   0  0  0  0  0  0  0  0  0  0  0  0
   -3.1307   19.5805  -32.9483 H   0  0  0  0  0  0  0  0  0  0  0  0
   -3.4725   19.2581  -34.6986 H   0  0  0  0  0  0  0  0  0  0  0  0
   -8.9280   18.2461  -30.4989 H   0  0  0  0  0  0  0  0  0  0  0  0
  -10.0001   18.6480  -31.8830 H   0  0  0  0  0  0  0  0  0  0  0  0
   -9.0718   17.1102  -31.8830 H   0  0  0  0  0  0  0  0  0  0  0  0
   -8.9760   23.4230  -33.0142 H   0  0  0  0  0  0  0  0  0  0  0  0
   -9.1126   24.1471  -31.3512 H   0  0  0  0  0  0  0  0  0  0  0  0
   -6.6145   22.8898  -32.5785 H   0  0  0  0  0  0  0  0  0  0  0  0
   -6.9356   24.6560  -32.3105 H   0  0  0  0  0  0  0  0  0  0  0  0
  1  2  1  0
  2  3  1  0
  3  4  1  0
  4  5  1  0
  5  6  1  0
  6  7  1  0
  7  8  1  0
  8  9  1  0
  9 10  1  0
 10 11  1  0
 11 12  2  0
 12 13  1  0
 13 14  2  0
 14 15  1  0
 15 16  1  0
 16 17  1  0
 17 18  1  0
 18 19  1  0
 19 20  1  0
 14 21  1  0
 21 22  2  0
 22 23  1  0
  9 24  1  0
 24 25  1  0
 25  6  1  0
 22 11  1  0
 20 15  1  0
  1 26  1  0
  1 27  1  0
  1 28  1  0
  2 29  1  0
  2 30  1  0
  4 31  1  0
  4 32  1  0
  5 33  1  0
  5 34  1  0
  7 35  1  0
  7 36  1  0
  8 37  1  0
  8 38  1  0
 10 39  1  0
 10 40  1  0
 12 41  1  0
 15 42  1  0
 16 43  1  0
 16 44  1  0
 17 45  1  0
 17 46  1  0
 18 47  1  0
 18 48  1  0
 19 49  1  0
 19 50  1  0
 20 51  1  0
 20 52  1  0
 23 53  1  0
 23 54  1  0
 23 55  1  0
 24 56  1  0
 24 57  1  0
 25 58  1  0
 25 59  1  0
M  END
>  <UniqueID>  (4) 
3

>  <SMILES>  (4) 
CCOCCN1CCN(Cc2cnc(C3CCCCC3)nc2C)CC1

>  <Energy>  (4) 
74.02258803569734

>  <Genealogy>  (4) 
CCOCCN1CCN(Cc2cnc(C3CCCCC3)nc2C)CC1 (3D coordinates assigned)
CCOCCN1CCN(Cc2cnc(C3CCCCC3)nc2C)CC1 (nonaromatic ring conformer: 74.02258803569734 kcal/mol)

>  <smiles>  (4) 
CCOCCN1CCN(Cc2cnc(C3CCCCC3)nc2C)CC1

>  <score_type>  (4) 
oracle

>  <origin>  (4) 
adg

>  <m_score__min__energy>  (4) 
-8.7899999999999991

>  <m_primary>  (4) 
energy

$$$$
4:0
     RDKit          3D

 42 44  0  0  0  0  0  0  0  0999 V2000
   -8.7001   24.1047  -32.5164 H   0  0  0  0  0  0  0  0  0  0  0  0
   -8.1850   23.3870  -31.8610 C   0  0  0  0  0  0  0  0  0  0  0  0
   -8.8120   22.2280  -31.6030 C   0  0  0  0  0  0  0  0  0  0  0  0
   -9.7547   22.2792  -31.0385 H   0  0  0  0  0  0  0  0  0  0  0  0
   -8.3400   20.8880  -32.0150 C   0  0  0  0  0  0  0  0  0  0  0  0
   -9.0270   19.7280  -31.6200 C   0  0  0  0  0  0  0  0  0  0  0  0
   -9.9389   19.8080  -31.0101 H   0  0  0  0  0  0  0  0  0  0  0  0
   -8.5500   18.4750  -32.0030 C   0  0  0  0  0  0  0  0  0  0  0  0
   -9.0976   17.5650  -31.7167 H   0  0  0  0  0  0  0  0  0  0  0  0
   -7.3720   18.3790  -32.7530 C   0  0  0  0  0  0  0  0  0  0  0  0
   -6.8680   17.1310  -33.1510 C   0  0  0  0  0  0  0  0  0  0  0  0
   -7.4044   16.2096  -32.8803 H   0  0  0  0  0  0  0  0  0  0  0  0
   -5.6850   17.0590  -33.8910 C   0  0  0  0  0  0  0  0  0  0  0  0
   -5.2914   16.0801  -34.2022 H   0  0  0  0  0  0  0  0  0  0  0  0
   -5.0000   18.2280  -34.2370 C   0  0  0  0  0  0  0  0  0  0  0  0
   -4.0691   18.1656  -34.8197 H   0  0  0  0  0  0  0  0  0  0  0  0
   -5.4940   19.4760  -33.8450 C   0  0  0  0  0  0  0  0  0  0  0  0
   -4.9493   20.3919  -34.1176 H   0  0  0  0  0  0  0  0  0  0  0  0
   -6.6840   19.5630  -33.1040 C   0  0  0  0  0  0  0  0  0  0  0  0
   -7.1770   20.7770  -32.7200 N   0  0  0  0  0  0  0  0  0  0  0  0
   -6.6560   21.6480  -32.9780 H   0  0  0  0  0  0  0  0  0  0  0  0
   -6.8580   23.7780  -31.3360 C   0  0  0  0  0  0  0  0  0  0  0  0
   -5.7420   23.0730  -31.6670 N   0  0  0  0  0  0  0  0  0  0  0  0
   -4.5110   23.4070  -31.2020 C   0  0  0  0  0  0  0  0  0  0  0  0
   -3.6327   22.8159  -31.5007 H   0  0  0  0  0  0  0  0  0  0  0  0
   -4.3560   24.5060  -30.3400 C   0  0  0  0  0  0  0  0  0  0  0  0
   -3.1090   24.9250  -29.8510 O   0  0  0  0  0  0  0  0  0  0  0  0
   -2.4960   24.4600  -28.6490 C   0  0  0  0  0  0  0  0  0  0  0  0
   -3.0995   23.6411  -28.2304 H   0  0  0  0  0  0  0  0  0  0  0  0
   -2.4379   25.2970  -27.9376 H   0  0  0  0  0  0  0  0  0  0  0  0
   -1.0820   23.9510  -28.9200 C   0  0  0  0  0  0  0  0  0  0  0  0
   -0.9688   23.7313  -29.9919 H   0  0  0  0  0  0  0  0  0  0  0  0
   -0.9014   23.0334  -28.3409 H   0  0  0  0  0  0  0  0  0  0  0  0
   -0.1520   24.9440  -28.5400 O   0  0  0  0  0  0  0  0  0  0  0  0
   -0.7030   25.7400  -27.5160 C   0  0  0  0  0  0  0  0  0  0  0  0
   -0.4174   25.3275  -26.5371 H   0  0  0  0  0  0  0  0  0  0  0  0
   -0.3224   26.7681  -27.6058 H   0  0  0  0  0  0  0  0  0  0  0  0
   -1.7993   25.7458  -27.6058 H   0  0  0  0  0  0  0  0  0  0  0  0
   -5.4960   25.2130  -29.9510 C   0  0  0  0  0  0  0  0  0  0  0  0
   -5.4049   26.0582  -29.2529 H   0  0  0  0  0  0  0  0  0  0  0  0
   -6.7510   24.8510  -30.4450 C   0  0  0  0  0  0  0  0  0  0  0  0
   -7.6491   25.4057  -30.1356 H   0  0  0  0  0  0  0  0  0  0  0  0
  1  2  1  0
  2  3  2  0
  3  4  1  0
  3  5  1  0
  5  6  2  0
  6  7  1  0
  6  8  1  0
  8  9  1  0
  8 10  2  0
 10 11  1  0
 11 12  1  0
 11 13  2  0
 13 14  1  0
 13 15  1  0
 15 16  1  0
 15 17  2  0
 17 18  1  0
 17 19  1  0
 19 20  2  0
 20 21  1  0
  2 22  1  0
 22 23  2  0
 23 24  1  0
 24 25  1  0
 24 26  2  0
 26 27  1  0
 27 28  1  0
 28 29  1  0
 28 30  1  0
 28 31  1  0
 31 32  1  0
 31 33  1  0
 31 34  1  0
 34 35  1  0
 35 36  1  0
 35 37  1  0
 35 38  1  0
 26 39  1  0
 39 40  1  0
 39 41  2  0
 41 42  1  0
 20  5  1  0
 41 22  1  0
 19 10  1  0
M  CHG  1  20   1
M  END
>  <UniqueID>  (5) 
4

>  <SMILES>  (5) 
COCCOc1ccc(/C=C\c2ccc3ccccc3[nH+]2)nc1

>  <Energy>  (5) 
54.93721723717824

>  <Genealogy>  (5) 
COCCOc1ccc(C=Cc2ccc3ccccc3[nH+]2)nc1 (protonated)
COCCOc1ccc(/C=C\c2ccc3ccccc3[nH+]2)nc1 (cis-trans isomerization)
COCCOc1ccc(/C=C\c2ccc3ccccc3[nH+]2)nc1 (3D coordinates assigned)
COCCOc1ccc(/C=C\c2ccc3ccccc3[nH+]2)nc1 (optimized conformer: 54.93721723717824 kcal/mol)

>  <smiles>  (5) 
COCCOc1ccc(C=Cc2ccc3ccccc3n2)nc1

>  <score_type>  (5) 
oracle

>  <origin>  (5) 
adg

>  <m_score__min__energy>  (5) 
-9.0099999999999998

>  <m_primary>  (5) 
energy

$$$$
5:0
     RDKit          3D

 62 66  0  0  0  0  0  0  0  0999 V2000
   -2.8040   19.2950  -26.7470 C   0  0  0  0  0  0  0  0  0  0  0  0
   -2.4260   20.0660  -28.0070 C   0  0  0  0  0  0  0  0  0  0  0  0
   -1.0310   19.6980  -28.4540 C   0  0  0  0  0  0  0  0  0  0  0  0
   -0.1140   19.2230  -27.4990 C   0  0  0  0  0  0  0  0  0  0  0  0
    1.2160   18.9770  -27.8480 C   0  0  0  0  0  0  0  0  0  0  0  0
    1.6520   19.2200  -29.1500 C   0  0  0  0  0  0  0  0  0  0  0  0
    0.7580   19.7000  -30.1080 C   0  0  0  0  0  0  0  0  0  0  0  0
   -0.5860   19.9290  -29.7780 C   0  0  0  0  0  0  0  0  0  0  0  0
   -1.4670   20.4320  -30.7900 N   0  0  0  0  0  0  0  0  0  0  0  0
   -1.2580   20.1650  -32.1840 C   0  0  0  0  0  0  0  0  0  0  0  0
   -0.3300   19.3940  -32.5520 O   0  0  0  0  0  0  0  0  0  0  0  0
   -2.1510   20.7920  -33.2110 C   0  0  0  0  0  0  0  0  0  0  0  0
   -3.4470   21.2370  -32.6080 C   0  0  0  0  0  0  0  0  0  0  0  0
   -4.6330   20.6300  -32.8770 N   0  0  0  0  0  0  0  0  0  0  0  0
   -5.4970   21.4330  -32.2250 C   0  0  0  0  0  0  0  0  0  0  0  0
   -6.8860   21.3160  -32.1690 C   0  0  0  0  0  0  0  0  0  0  0  0
   -7.5930   20.2730  -32.7840 C   0  0  0  0  0  0  0  0  0  0  0  0
   -8.9880   20.2330  -32.6850 C   0  0  0  0  0  0  0  0  0  0  0  0
   -9.6760   21.2260  -31.9780 C   0  0  0  0  0  0  0  0  0  0  0  0
   -8.9760   22.2700  -31.3630 C   0  0  0  0  0  0  0  0  0  0  0  0
   -7.5800   22.3240  -31.4520 C   0  0  0  0  0  0  0  0  0  0  0  0
   -6.8910   23.3430  -30.8540 N   0  0  0  0  0  0  0  0  0  0  0  0
   -5.5320   23.4130  -30.9360 C   0  0  0  0  0  0  0  0  0  0  0  0
   -4.6430   24.7380  -30.1210 S   0  0  0  0  0  0  0  0  0  0  0  0
   -4.4530   23.8420  -28.5410 C   0  0  0  0  0  0  0  0  0  0  0  0
   -3.1190   24.1990  -27.8920 C   0  0  0  0  0  0  0  0  0  0  0  0
   -2.1570   24.6530  -28.9240 N   0  0  0  0  0  0  0  0  0  0  0  0
   -1.2560   25.7170  -28.4440 C   0  0  0  0  0  0  0  0  0  0  0  0
   -0.1420   25.1440  -27.5580 C   0  0  0  0  0  0  0  0  0  0  0  0
    0.6010   24.1730  -28.2670 O   0  0  0  0  0  0  0  0  0  0  0  0
   -0.2380   23.0870  -28.6040 C   0  0  0  0  0  0  0  0  0  0  0  0
   -1.3900   23.5400  -29.5210 C   0  0  0  0  0  0  0  0  0  0  0  0
   -4.8730   22.4470  -31.6230 N   0  0  0  0  0  0  0  0  0  0  0  0
   -3.5800   22.3580  -31.8570 N   0  0  0  0  0  0  0  0  0  0  0  0
   -2.5176   19.8791  -25.8600 H   0  0  0  0  0  0  0  0  0  0  0  0
   -3.8900   19.1202  -26.7360 H   0  0  0  0  0  0  0  0  0  0  0  0
   -2.2771   18.3295  -26.7360 H   0  0  0  0  0  0  0  0  0  0  0  0
   -3.1390   19.8220  -28.8083 H   0  0  0  0  0  0  0  0  0  0  0  0
   -2.4565   21.1434  -27.7873 H   0  0  0  0  0  0  0  0  0  0  0  0
   -0.4478   19.0434  -26.4664 H   0  0  0  0  0  0  0  0  0  0  0  0
    1.9196   18.5915  -27.0955 H   0  0  0  0  0  0  0  0  0  0  0  0
    2.7013   19.0332  -29.4221 H   0  0  0  0  0  0  0  0  0  0  0  0
    1.1102   19.9005  -31.1306 H   0  0  0  0  0  0  0  0  0  0  0  0
   -2.1410   21.1850  -30.5200 H   0  0  0  0  0  0  0  0  0  0  0  0
   -1.6401   21.6639  -33.6454 H   0  0  0  0  0  0  0  0  0  0  0  0
   -2.3686   20.0418  -33.9855 H   0  0  0  0  0  0  0  0  0  0  0  0
   -7.0546   19.4916  -33.3404 H   0  0  0  0  0  0  0  0  0  0  0  0
   -9.5472   19.4166  -33.1654 H   0  0  0  0  0  0  0  0  0  0  0  0
  -10.7729   21.1855  -31.9054 H   0  0  0  0  0  0  0  0  0  0  0  0
   -9.5225   23.0480  -30.8098 H   0  0  0  0  0  0  0  0  0  0  0  0
   -5.2733   24.1214  -27.8635 H   0  0  0  0  0  0  0  0  0  0  0  0
   -4.4801   22.7597  -28.7357 H   0  0  0  0  0  0  0  0  0  0  0  0
   -3.2746   25.0050  -27.1597 H   0  0  0  0  0  0  0  0  0  0  0  0
   -2.7138   23.3092  -27.3880 H   0  0  0  0  0  0  0  0  0  0  0  0
   -0.8021   26.2205  -29.3103 H   0  0  0  0  0  0  0  0  0  0  0  0
   -1.8449   26.4283  -27.8462 H   0  0  0  0  0  0  0  0  0  0  0  0
    0.5291   25.9584  -27.2475 H   0  0  0  0  0  0  0  0  0  0  0  0
   -0.5962   24.6710  -26.6749 H   0  0  0  0  0  0  0  0  0  0  0  0
    0.3564   22.3220  -29.1251 H   0  0  0  0  0  0  0  0  0  0  0  0
   -0.6686   22.6777  -27.6782 H   0  0  0  0  0  0  0  0  0  0  0  0
   -0.9712   23.8710  -30.4828 H   0  0  0  0  0  0  0  0  0  0  0  0
   -2.0726   22.6888  -29.6609 H   0  0  0  0  0  0  0  0  0  0  0  0
  1  2  1  0
  2  3  1  0
  3  4  2  0
  4  5  1  0
  5  6  2  0
  6  7  1  0
  7  8  2  0
  8  9  1  0
  9 10  1  0
 10 11  2  0
 10 12  1  0
 12 13  1  0
 13 14  1  0
 14 15  2  0
 15 16  1  0
 16 17  2  0
 17 18  1  0
 18 19  2  0
 19 20  1  0
 20 21  2  0
 21 22  1  0
 22 23  2  0
 23 24  1  0
 24 25  1  0
 25 26  1  0
 26 27  1  0
 27 28  1  0
 28 29  1  0
 29 30  1  0
 30 31  1  0
 31 32  1  0
 23 33  1  0
 33 34  1  0
  8  3  1  0
 34 13  2  0
 33 15  1  0
 21 16  1  0
 32 27  1  0
  1 35  1  0
  1 36  1  0
  1 37  1  0
  2 38  1  0
  2 39  1  0
  4 40  1  0
  5 41  1  0
  6 42  1  0
  7 43  1  0
  9 44  1  0
 12 45  1  0
 12 46  1  0
 17 47  1  0
 18 48  1  0
 19 49  1  0
 20 50  1  0
 25 51  1  0
 25 52  1  0
 26 53  1  0
 26 54  1  0
 28 55  1  0
 28 56  1  0
 29 57  1  0
 29 58  1  0
 31 59  1  0
 31 60  1  0
 32 61  1  0
 32 62  1  0
M  END
>  <UniqueID>  (6) 
5

>  <SMILES>  (6) 
CCc1ccccc1NC(=O)Cc1nc2c3ccccc3nc(SCCN3CCOCC3)n2n1

>  <Energy>  (6) 
108.6783601367862

>  <Genealogy>  (6) 
CCc1ccccc1NC(=O)Cc1nc2c3ccccc3nc(SCCN3CCOCC3)n2n1 (3D coordinates assigned)
CCc1ccccc1NC(=O)Cc1nc2c3ccccc3nc(SCCN3CCOCC3)n2n1 (nonaromatic ring conformer: 108.6783601367862 kcal/mol)

>  <smiles>  (6) 
CCc1ccccc1NC(=O)Cc1nc2c3ccccc3nc(SCCN3CCOCC3)n2n1

>  <score_type>  (6) 
oracle

>  <origin>  (6) 
adg

>  <m_score__min__energy>  (6) 
-9.9600000000000009

>  <m_primary>  (6) 
energy

$$$$
6:0
     RDKit          3D

 43 44  0  0  0  0  0  0  0  0999 V2000
   -1.5180   21.5620  -31.5150 C   0  0  0  0  0  0  0  0  0  0  0  0
   -2.6890   22.0250  -30.7550 N   0  0  0  0  0  0  0  0  0  0  0  0
   -3.4200   20.8950  -30.1610 C   0  0  0  0  0  0  0  0  0  0  0  0
   -2.3610   23.0820  -29.7720 C   0  0  0  0  0  0  0  0  0  0  0  0
   -3.4410   24.1840  -29.6360 C   0  0  0  0  0  0  0  0  0  0  0  0
   -4.2440   24.3190  -30.8630 N   0  0  0  0  0  0  0  0  0  0  0  0
   -5.6910   24.2730  -30.6010 C   0  0  0  0  0  0  0  0  0  0  0  0
   -6.4780   24.1630  -31.9100 C   0  0  0  0  0  0  0  0  0  0  0  0
   -7.2200   22.9010  -31.9670 N   0  0  0  0  0  0  0  0  0  0  0  0
   -8.5060   22.7230  -31.5760 C   0  0  0  0  0  0  0  0  0  0  0  0
   -8.9180   21.4320  -31.6480 N   0  0  0  0  0  0  0  0  0  0  0  0
   -7.8220   20.7940  -32.1050 C   0  0  0  0  0  0  0  0  0  0  0  0
   -6.8000   21.6620  -32.2920 C   0  0  0  0  0  0  0  0  0  0  0  0
   -5.5610   21.2000  -32.7300 C   0  0  0  0  0  0  0  0  0  0  0  0
   -4.6000   21.9960  -32.9020 O   0  0  0  0  0  0  0  0  0  0  0  0
   -5.4150   19.8520  -32.9670 N   0  0  0  0  0  0  0  0  0  0  0  0
   -4.1070   19.3220  -33.3900 C   0  0  0  0  0  0  0  0  0  0  0  0
   -6.4680   18.9830  -32.7350 C   0  0  0  0  0  0  0  0  0  0  0  0
   -6.3020   17.7400  -32.8900 O   0  0  0  0  0  0  0  0  0  0  0  0
   -7.6960   19.4580  -32.3270 N   0  0  0  0  0  0  0  0  0  0  0  0
   -8.8120   18.5420  -32.0550 C   0  0  0  0  0  0  0  0  0  0  0  0
   -0.7277   21.2495  -30.8166 H   0  0  0  0  0  0  0  0  0  0  0  0
   -1.8055   20.7099  -32.1484 H   0  0  0  0  0  0  0  0  0  0  0  0
   -1.1450   22.3803  -32.1484 H   0  0  0  0  0  0  0  0  0  0  0  0
   -3.3747   20.9650  -29.0642 H   0  0  0  0  0  0  0  0  0  0  0  0
   -4.4700   20.9254  -30.4873 H   0  0  0  0  0  0  0  0  0  0  0  0
   -2.9618   19.9497  -30.4873 H   0  0  0  0  0  0  0  0  0  0  0  0
   -2.2268   22.6080  -28.7885 H   0  0  0  0  0  0  0  0  0  0  0  0
   -1.4491   23.5781  -30.1357 H   0  0  0  0  0  0  0  0  0  0  0  0
   -4.1085   23.9268  -28.8004 H   0  0  0  0  0  0  0  0  0  0  0  0
   -2.9307   25.1415  -29.4550 H   0  0  0  0  0  0  0  0  0  0  0  0
   -3.9900   23.5610  -31.5380 H   0  0  0  0  0  0  0  0  0  0  0  0
   -5.9157   23.3999  -29.9708 H   0  0  0  0  0  0  0  0  0  0  0  0
   -5.9861   25.2010  -30.0894 H   0  0  0  0  0  0  0  0  0  0  0  0
   -7.1870   25.0014  -31.9760 H   0  0  0  0  0  0  0  0  0  0  0  0
   -5.7694   24.1934  -32.7508 H   0  0  0  0  0  0  0  0  0  0  0  0
   -9.1522   23.5448  -31.2338 H   0  0  0  0  0  0  0  0  0  0  0  0
   -3.5055   19.0783  -32.5018 H   0  0  0  0  0  0  0  0  0  0  0  0
   -4.2567   18.4136  -33.9920 H   0  0  0  0  0  0  0  0  0  0  0  0
   -3.5822   20.0784  -33.9920 H   0  0  0  0  0  0  0  0  0  0  0  0
   -8.9421   18.4352  -30.9680 H   0  0  0  0  0  0  0  0  0  0  0  0
   -9.7346   18.9467  -32.4967 H   0  0  0  0  0  0  0  0  0  0  0  0
   -8.5949   17.5582  -32.4967 H   0  0  0  0  0  0  0  0  0  0  0  0
  1  2  1  0
  2  3  1  0
  2  4  1  0
  4  5  1  0
  5  6  1  0
  6  7  1  0
  7  8  1  0
  8  9  1  0
  9 10  1  0
 10 11  2  0
 11 12  1  0
 12 13  2  0
 13 14  1  0
 14 15  2  0
 14 16  1  0
 16 17  1  0
 16 18  1  0
 18 19  2  0
 18 20  1  0
 20 21  1  0
 13  9  1  0
 20 12  1  0
  1 22  1  0
  1 23  1  0
  1 24  1  0
  3 25  1  0
  3 26  1  0
  3 27  1  0
  4 28  1  0
  4 29  1  0
  5 30  1  0
  5 31  1  0
  6 32  1  0
  7 33  1  0
  7 34  1  0
  8 35  1  0
  8 36  1  0
 10 37  1  0
 17 38  1  0
 17 39  1  0
 17 40  1  0
 21 41  1  0
 21 42  1  0
 21 43  1  0
M  END
>  <UniqueID>  (7) 
6

>  <SMILES>  (7) 
CN(C)CCNCCn1cnc2c1c(=O)n(C)c(=O)n2C

>  <Energy>  (7) 
88.42544645266247

>  <Genealogy>  (7) 
CN(C)CCNCCn1cnc2c1c(=O)n(C)c(=O)n2C (3D coordinates assigned)
CN(C)CCNCCn1cnc2c1c(=O)n(C)c(=O)n2C (optimized conformer: 88.42544645266247 kcal/mol)

>  <smiles>  (7) 
CN(C)CCNCCn1cnc2c1c(=O)n(C)c(=O)n2C

>  <score_type>  (7) 
oracle

>  <origin>  (7) 
adg

>  <m_score__min__energy>  (7) 
-6.7800000000000002

>  <m_primary>  (7) 
energy

$$$$
7:0
     RDKit          3D

 53 55  0  0  0  0  0  0  0  0999 V2000
   -9.0880   21.8140  -31.9670 C   0  0  0  0  0  0  0  0  0  0  0  0
   -8.3390   20.6900  -31.2570 C   0  0  0  0  0  0  0  0  0  0  0  0
   -7.8420   19.6950  -32.2320 N   0  0  0  0  0  0  0  0  0  0  0  0
   -7.2140   20.3690  -33.3940 C   0  0  0  0  0  0  0  0  0  0  0  0
   -6.2190   19.4480  -34.1160 C   0  0  0  0  0  0  0  0  0  0  0  0
   -5.1150   19.0300  -33.2210 N   0  0  0  0  0  0  0  0  0  0  0  0
   -3.8190   19.7040  -33.4820 C   0  0  0  0  0  0  0  0  0  0  0  0
   -3.5890   20.9350  -32.6270 C   0  0  0  0  0  0  0  0  0  0  0  0
   -2.4340   21.0450  -31.8410 C   0  0  0  0  0  0  0  0  0  0  0  0
   -2.2850   22.1060  -30.9480 C   0  0  0  0  0  0  0  0  0  0  0  0
   -3.2840   23.0890  -30.8400 C   0  0  0  0  0  0  0  0  0  0  0  0
   -3.2170   24.1130  -29.8810 O   0  0  0  0  0  0  0  0  0  0  0  0
   -3.6120   23.9730  -28.5160 C   0  0  0  0  0  0  0  0  0  0  0  0
   -2.8890   22.8140  -27.8760 C   0  0  0  0  0  0  0  0  0  0  0  0
   -1.6520   23.0050  -27.2370 C   0  0  0  0  0  0  0  0  0  0  0  0
   -0.9700   21.9170  -26.6860 C   0  0  0  0  0  0  0  0  0  0  0  0
   -1.5160   20.6330  -26.7630 C   0  0  0  0  0  0  0  0  0  0  0  0
   -2.7500   20.4370  -27.3900 C   0  0  0  0  0  0  0  0  0  0  0  0
   -3.4360   21.5220  -27.9430 C   0  0  0  0  0  0  0  0  0  0  0  0
   -4.3950   23.0440  -31.6930 C   0  0  0  0  0  0  0  0  0  0  0  0
   -5.3510   24.0680  -31.5980 O   0  0  0  0  0  0  0  0  0  0  0  0
   -6.4660   24.0530  -30.7130 C   0  0  0  0  0  0  0  0  0  0  0  0
   -4.5380   21.9700  -32.5930 C   0  0  0  0  0  0  0  0  0  0  0  0
   -5.4780   18.9810  -31.7870 C   0  0  0  0  0  0  0  0  0  0  0  0
   -6.9700   18.6710  -31.5970 C   0  0  0  0  0  0  0  0  0  0  0  0
   -9.5356   22.4856  -31.2196 H   0  0  0  0  0  0  0  0  0  0  0  0
   -8.3868   22.3814  -32.5966 H   0  0  0  0  0  0  0  0  0  0  0  0
   -9.8816   21.3853  -32.5966 H   0  0  0  0  0  0  0  0  0  0  0  0
   -7.4857   21.1151  -30.7082 H   0  0  0  0  0  0  0  0  0  0  0  0
   -9.0290   20.1895  -30.5617 H   0  0  0  0  0  0  0  0  0  0  0  0
   -8.0017   20.6672  -34.1016 H   0  0  0  0  0  0  0  0  0  0  0  0
   -6.6629   21.2464  -33.0246 H   0  0  0  0  0  0  0  0  0  0  0  0
   -6.7521   18.5524  -34.4677 H   0  0  0  0  0  0  0  0  0  0  0  0
   -5.7857   20.0041  -34.9604 H   0  0  0  0  0  0  0  0  0  0  0  0
   -3.0086   18.9871  -33.2837 H   0  0  0  0  0  0  0  0  0  0  0  0
   -3.8361   20.0389  -34.5296 H   0  0  0  0  0  0  0  0  0  0  0  0
   -1.6395   20.2894  -31.9289 H   0  0  0  0  0  0  0  0  0  0  0  0
   -1.3810   22.1739  -30.3250 H   0  0  0  0  0  0  0  0  0  0  0  0
   -3.3686   24.8973  -27.9716 H   0  0  0  0  0  0  0  0  0  0  0  0
   -4.6950   23.7846  -28.4753 H   0  0  0  0  0  0  0  0  0  0  0  0
   -1.2193   24.0141  -27.1704 H   0  0  0  0  0  0  0  0  0  0  0  0
   -0.0004   22.0717  -26.1901 H   0  0  0  0  0  0  0  0  0  0  0  0
   -0.9757   19.7778  -26.3309 H   0  0  0  0  0  0  0  0  0  0  0  0
   -3.1819   19.4270  -27.4483 H   0  0  0  0  0  0  0  0  0  0  0  0
   -4.4082   21.3634  -28.4327 H   0  0  0  0  0  0  0  0  0  0  0  0
   -6.1085   24.0578  -29.6727 H   0  0  0  0  0  0  0  0  0  0  0  0
   -7.0876   24.9429  -30.8912 H   0  0  0  0  0  0  0  0  0  0  0  0
   -7.0634   23.1467  -30.8912 H   0  0  0  0  0  0  0  0  0  0  0  0
   -5.4004   21.9415  -33.2752 H   0  0  0  0  0  0  0  0  0  0  0  0
   -4.8840   18.1973  -31.2940 H   0  0  0  0  0  0  0  0  0  0  0  0
   -5.2698   19.9658  -31.3433 H   0  0  0  0  0  0  0  0  0  0  0  0
   -7.1884   17.6914  -32.0472 H   0  0  0  0  0  0  0  0  0  0  0  0
   -7.1801   18.6712  -30.5172 H   0  0  0  0  0  0  0  0  0  0  0  0
  1  2  1  0
  2  3  1  0
  3  4  1  0
  4  5  1  0
  5  6  1  0
  6  7  1  0
  7  8  1  0
  8  9  2  0
  9 10  1  0
 10 11  2  0
 11 12  1  0
 12 13  1  0
 13 14  1  0
 14 15  2  0
 15 16  1  0
 16 17  2  0
 17 18  1  0
 18 19  2  0
 11 20  1  0
 20 21  1  0
 21 22  1  0
 20 23  2  0
  6 24  1  0
 24 25  1  0
 25  3  1  0
 23  8  1  0
 19 14  1  0
  1 26  1  0
  1 27  1  0
  1 28  1  0
  2 29  1  0
  2 30  1  0
  4 31  1  0
  4 32  1  0
  5 33  1  0
  5 34  1  0
  7 35  1  0
  7 36  1  0
  9 37  1  0
 10 38  1  0
 13 39  1  0
 13 40  1  0
 15 41  1  0
 16 42  1  0
 17 43  1  0
 18 44  1  0
 19 45  1  0
 22 46  1  0
 22 47  1  0
 22 48  1  0
 23 49  1  0
 24 50  1  0
 24 51  1  0
 25 52  1  0
 25 53  1  0
M  END
>  <UniqueID>  (8) 
7

>  <SMILES>  (8) 
CCN1CCN(Cc2ccc(OCc3ccccc3)c(OC)c2)CC1

>  <Energy>  (8) 
64.97188210703669

>  <Genealogy>  (8) 
CCN1CCN(Cc2ccc(OCc3ccccc3)c(OC)c2)CC1 (3D coordinates assigned)
CCN1CCN(Cc2ccc(OCc3ccccc3)c(OC)c2)CC1 (nonaromatic ring conformer: 64.97188210703669 kcal/mol)

>  <smiles>  (8) 
CCN1CCN(Cc2ccc(OCc3ccccc3)c(OC)c2)CC1

>  <score_type>  (8) 
oracle

>  <origin>  (8) 
adg

>  <m_score__min__energy>  (8) 
-8.3800000000000008

>  <m_primary>  (8) 
energy

$$$$
8:0
     RDKit          3D

 55 58  0  0  0  0  0  0  0  0999 V2000
   -4.6070   13.8630  -32.0260 C   0  0  0  0  0  0  0  0  0  0  0  0
   -4.9070   15.2950  -32.5010 C   0  0  0  0  0  0  0  0  0  0  0  0
   -5.4740   15.3950  -33.8730 N   0  0  1  0  0  0  0  0  0  0  0  0
   -6.3390   14.2460  -34.2060 C   0  0  0  0  0  0  0  0  0  0  0  0
   -6.1800   16.6820  -34.1160 C   0  0  0  0  0  0  0  0  0  0  0  0
   -5.2680   17.9070  -33.9170 C   0  0  0  0  0  0  0  0  0  0  0  0
   -5.3280   18.3750  -32.5310 N   0  0  0  0  0  0  0  0  0  0  0  0
   -5.7650   19.7010  -32.1930 C   0  0  0  0  0  0  0  0  0  0  0  0
   -7.1290   20.0770  -32.2520 C   0  0  0  0  0  0  0  0  0  0  0  0
   -8.1140   19.1550  -32.6560 C   0  0  0  0  0  0  0  0  0  0  0  0
   -9.4590   19.5190  -32.6850 C   0  0  0  0  0  0  0  0  0  0  0  0
   -9.8470   20.7980  -32.3000 C   0  0  0  0  0  0  0  0  0  0  0  0
   -8.8920   21.7370  -31.9090 C   0  0  0  0  0  0  0  0  0  0  0  0
   -7.5120   21.4190  -31.9080 C   0  0  0  0  0  0  0  0  0  0  0  0
   -6.5480   22.3580  -31.5680 N   0  0  0  0  0  0  0  0  0  0  0  0
   -6.8650   23.7930  -31.4730 C   0  0  0  0  0  0  0  0  0  0  0  0
   -5.2600   21.9240  -31.3900 C   0  0  0  0  0  0  0  0  0  0  0  0
   -4.8580   20.6480  -31.7250 C   0  0  0  0  0  0  0  0  0  0  0  0
   -3.5460   20.4570  -31.4680 N   0  0  0  0  0  0  0  0  0  0  0  0
   -3.1160   21.6220  -30.9470 C   0  0  0  0  0  0  0  0  0  0  0  0
   -1.8340   21.8890  -30.4720 C   0  0  0  0  0  0  0  0  0  0  0  0
   -1.5940   23.1370  -29.8790 C   0  0  0  0  0  0  0  0  0  0  0  0
   -2.6310   24.0850  -29.7360 C   0  0  0  0  0  0  0  0  0  0  0  0
   -2.3330   25.3000  -29.0990 O   0  0  0  0  0  0  0  0  0  0  0  0
   -1.6280   25.4110  -27.8680 C   0  0  0  0  0  0  0  0  0  0  0  0
   -3.9280   23.7850  -30.2220 C   0  0  0  0  0  0  0  0  0  0  0  0
   -4.1330   22.5540  -30.8610 C   0  0  0  0  0  0  0  0  0  0  0  0
   -4.6012   13.8351  -30.9264 H   0  0  0  0  0  0  0  0  0  0  0  0
   -5.3817   13.1808  -32.4060 H   0  0  0  0  0  0  0  0  0  0  0  0
   -3.6236   13.5491  -32.4060 H   0  0  0  0  0  0  0  0  0  0  0  0
   -5.6268   15.7434  -31.8005 H   0  0  0  0  0  0  0  0  0  0  0  0
   -3.9405   15.8195  -32.5281 H   0  0  0  0  0  0  0  0  0  0  0  0
   -4.6620   15.3340  -34.5300 H   0  0  0  0  0  0  0  0  0  0  0  0
   -6.6945   13.7737  -33.2783 H   0  0  0  0  0  0  0  0  0  0  0  0
   -7.2010   14.5942  -34.7939 H   0  0  0  0  0  0  0  0  0  0  0  0
   -5.7660   13.5139  -34.7939 H   0  0  0  0  0  0  0  0  0  0  0  0
   -6.5560   16.6874  -35.1497 H   0  0  0  0  0  0  0  0  0  0  0  0
   -6.9987   16.7550  -33.3850 H   0  0  0  0  0  0  0  0  0  0  0  0
   -4.2318   17.6294  -34.1602 H   0  0  0  0  0  0  0  0  0  0  0  0
   -5.6110   18.7155  -34.5793 H   0  0  0  0  0  0  0  0  0  0  0  0
   -5.1850   17.6770  -31.7670 H   0  0  0  0  0  0  0  0  0  0  0  0
   -7.8188   18.1374  -32.9516 H   0  0  0  0  0  0  0  0  0  0  0  0
  -10.2165   18.7922  -33.0136 H   0  0  0  0  0  0  0  0  0  0  0  0
  -10.9127   21.0707  -32.3038 H   0  0  0  0  0  0  0  0  0  0  0  0
   -9.2162   22.7406  -31.5964 H   0  0  0  0  0  0  0  0  0  0  0  0
   -6.9295   24.0850  -30.4144 H   0  0  0  0  0  0  0  0  0  0  0  0
   -6.0741   24.3767  -31.9668 H   0  0  0  0  0  0  0  0  0  0  0  0
   -7.8281   23.9892  -31.9668 H   0  0  0  0  0  0  0  0  0  0  0  0
   -2.9880   19.5830  -31.5880 H   0  0  0  0  0  0  0  0  0  0  0  0
   -1.0319   21.1414  -30.5596 H   0  0  0  0  0  0  0  0  0  0  0  0
   -0.5833   23.3811  -29.5200 H   0  0  0  0  0  0  0  0  0  0  0  0
   -2.3326   25.3001  -27.0306 H   0  0  0  0  0  0  0  0  0  0  0  0
   -0.8635   24.6222  -27.8109 H   0  0  0  0  0  0  0  0  0  0  0  0
   -1.1429   26.3966  -27.8109 H   0  0  0  0  0  0  0  0  0  0  0  0
   -4.7543   24.5010  -30.1008 H   0  0  0  0  0  0  0  0  0  0  0  0
  1  2  1  0
  2  3  1  0
  3  4  1  0
  3  5  1  0
  5  6  1  0
  6  7  1  0
  7  8  1  0
  8  9  2  0
  9 10  1  0
 10 11  2  0
 11 12  1  0
 12 13  2  0
 13 14  1  0
 14 15  2  0
 15 16  1  0
 15 17  1  0
 17 18  2  0
 18 19  1  0
 19 20  1  0
 20 21  2  0
 21 22  1  0
 22 23  2  0
 23 24  1  0
 24 25  1  0
 23 26  1  0
 26 27  2  0
 18  8  1  0
 27 20  1  0
 14  9  1  0
 27 17  1  0
  1 28  1  0
  1 29  1  0
  1 30  1  0
  2 31  1  0
  2 32  1  0
  3 33  1  6
  4 34  1  0
  4 35  1  0
  4 36  1  0
  5 37  1  0
  5 38  1  0
  6 39  1  0
  6 40  1  0
  7 41  1  0
 10 42  1  0
 11 43  1  0
 12 44  1  0
 13 45  1  0
 16 46  1  0
 16 47  1  0
 16 48  1  0
 19 49  1  0
 21 50  1  0
 22 51  1  0
 25 52  1  0
 25 53  1  0
 25 54  1  0
 26 55  1  0
M  CHG  2   3   1  15   1
M  END
>  <UniqueID>  (9) 
8

>  <SMILES>  (9) 
CC[N@@H+](C)CCNc1c2ccccc2[n+](C)c2c1[nH]c1ccc(OC)cc12

>  <Energy>  (9) 
119.86588423506788

>  <Genealogy>  (9) 
CC[NH+](C)CCNc1c2ccccc2[n+](C)c2c1[nH]c1ccc(OC)cc12 (protonated)
CC[N@@H+](C)CCNc1c2ccccc2[n+](C)c2c1[nH]c1ccc(OC)cc12 (chirality)
CC[N@@H+](C)CCNc1c2ccccc2[n+](C)c2c1[nH]c1ccc(OC)cc12 (3D coordinates assigned)
CC[N@@H+](C)CCNc1c2ccccc2[n+](C)c2c1[nH]c1ccc(OC)cc12 (optimized conformer: 119.86588423506788 kcal/mol)

>  <smiles>  (9) 
CCN(C)CCNc1c2ccccc2[n+](C)c2c1[nH]c1ccc(OC)cc12

>  <score_type>  (9) 
oracle

>  <origin>  (9) 
adg

>  <m_score__min__energy>  (9) 
-7.0999999999999996

>  <m_primary>  (9) 
energy

$$$$
9:0
     RDKit          3D

 42 44  0  0  0  0  0  0  0  0999 V2000
   -1.2210   26.2630  -27.8730 C   0  0  0  0  0  0  0  0  0  0  0  0
   -1.9130   25.6680  -28.9670 O   0  0  0  0  0  0  0  0  0  0  0  0
   -1.8520   24.3070  -29.3060 C   0  0  0  0  0  0  0  0  0  0  0  0
   -0.7130   23.5240  -29.0240 C   0  0  0  0  0  0  0  0  0  0  0  0
   -0.6740   22.1760  -29.3830 C   0  0  0  0  0  0  0  0  0  0  0  0
   -1.7630   21.5900  -30.0280 C   0  0  0  0  0  0  0  0  0  0  0  0
   -1.7180   20.2820  -30.3820 F   0  0  0  0  0  0  0  0  0  0  0  0
   -2.8980   22.3520  -30.3120 C   0  0  0  0  0  0  0  0  0  0  0  0
   -2.9580   23.7070  -29.9470 C   0  0  0  0  0  0  0  0  0  0  0  0
   -4.1900   24.5050  -30.3030 C   0  0  0  0  0  0  0  0  0  0  0  0
   -5.3200   23.6050  -30.6110 N   0  0  0  0  0  0  0  0  0  0  0  0
   -6.5450   24.0470  -29.9190 C   0  0  0  0  0  0  0  0  0  0  0  0
   -7.5900   22.9300  -29.9890 C   0  0  0  0  0  0  0  0  0  0  0  0
   -7.5360   22.2460  -31.2850 N   0  0  0  0  0  0  0  0  0  0  0  0
   -8.2990   21.0440  -31.4740 C   0  0  0  0  0  0  0  0  0  0  0  0
   -9.4700   20.9710  -31.0140 O   0  0  0  0  0  0  0  0  0  0  0  0
   -7.7280   19.8760  -32.1650 C   0  0  0  0  0  0  0  0  0  0  0  0
   -6.7690   19.8980  -33.1600 C   0  0  0  0  0  0  0  0  0  0  0  0
   -6.5360   18.5780  -33.4810 C   0  0  0  0  0  0  0  0  0  0  0  0
   -7.3610   17.8340  -32.6610 C   0  0  0  0  0  0  0  0  0  0  0  0
   -8.0560   18.6340  -31.8870 O   0  0  0  0  0  0  0  0  0  0  0  0
   -6.9360   22.9360  -32.4340 C   0  0  0  0  0  0  0  0  0  0  0  0
   -5.5460   23.5050  -32.0750 C   0  0  0  0  0  0  0  0  0  0  0  0
   -1.6468   25.8969  -26.9271 H   0  0  0  0  0  0  0  0  0  0  0  0
   -0.1554   25.9947  -27.9236 H   0  0  0  0  0  0  0  0  0  0  0  0
   -1.3265   27.3568  -27.9236 H   0  0  0  0  0  0  0  0  0  0  0  0
    0.1508   23.9793  -28.5174 H   0  0  0  0  0  0  0  0  0  0  0  0
    0.2183   21.5738  -29.1566 H   0  0  0  0  0  0  0  0  0  0  0  0
   -3.7524   21.8873  -30.8259 H   0  0  0  0  0  0  0  0  0  0  0  0
   -4.4617   25.1491  -29.4537 H   0  0  0  0  0  0  0  0  0  0  0  0
   -3.9721   25.1178  -31.1901 H   0  0  0  0  0  0  0  0  0  0  0  0
   -6.3138   24.2699  -28.8669 H   0  0  0  0  0  0  0  0  0  0  0  0
   -6.9379   24.9533  -30.4031 H   0  0  0  0  0  0  0  0  0  0  0  0
   -7.3933   22.2017  -29.1885 H   0  0  0  0  0  0  0  0  0  0  0  0
   -8.5889   23.3739  -29.8663 H   0  0  0  0  0  0  0  0  0  0  0  0
   -6.2913   20.7842  -33.6033 H   0  0  0  0  0  0  0  0  0  0  0  0
   -5.8349   18.1949  -34.2371 H   0  0  0  0  0  0  0  0  0  0  0  0
   -7.4259   16.7359  -32.6571 H   0  0  0  0  0  0  0  0  0  0  0  0
   -6.8291   22.2237  -33.2654 H   0  0  0  0  0  0  0  0  0  0  0  0
   -7.5919   23.7705  -32.7227 H   0  0  0  0  0  0  0  0  0  0  0  0
   -4.7763   22.8467  -32.5042 H   0  0  0  0  0  0  0  0  0  0  0  0
   -5.4914   24.5237  -32.4865 H   0  0  0  0  0  0  0  0  0  0  0  0
  1  2  1  0
  2  3  1  0
  3  4  2  0
  4  5  1  0
  5  6  2  0
  6  7  1  0
  6  8  1  0
  8  9  2  0
  9 10  1  0
 10 11  1  0
 11 12  1  0
 12 13  1  0
 13 14  1  0
 14 15  1  0
 15 16  2  0
 15 17  1  0
 17 18  2  0
 18 19  1  0
 19 20  2  0
 20 21  1  0
 14 22  1  0
 22 23  1  0
  9  3  1  0
 23 11  1  0
 21 17  1  0
  1 24  1  0
  1 25  1  0
  1 26  1  0
  4 27  1  0
  5 28  1  0
  8 29  1  0
 10 30  1  0
 10 31  1  0
 12 32  1  0
 12 33  1  0
 13 34  1  0
 13 35  1  0
 18 36  1  0
 19 37  1  0
 20 38  1  0
 22 39  1  0
 22 40  1  0
 23 41  1  0
 23 42  1  0
M  END
>  <UniqueID>  (10) 
9

>  <SMILES>  (10) 
COc1ccc(F)cc1CN1CCN(C(=O)c2ccco2)CC1

>  <Energy>  (10) 
77.04073609180612

>  <Genealogy>  (10) 
COc1ccc(F)cc1CN1CCN(C(=O)c2ccco2)CC1 (3D coordinates assigned)
COc1ccc(F)cc1CN1CCN(C(=O)c2ccco2)CC1 (nonaromatic ring conformer: 77.04073609180612 kcal/mol)

>  <smiles>  (10) 
COc1ccc(F)cc1CN1CCN(C(=O)c2ccco2)CC1

>  <score_type>  (10) 
oracle

>  <origin>  (10) 
adg

>  <m_score__min__energy>  (10) 
-7.4900000000000002

>  <m_primary>  (10) 
energy

$$$$
10:0
     RDKit          3D

 54 57  0  0  0  0  0  0  0  0999 V2000
   -1.2890   21.7160  -30.8130 C   0  0  0  0  0  0  0  0  0  0  0  0
   -0.6100   20.6980  -31.7260 C   0  0  0  0  0  0  0  0  0  0  0  0
   -1.6190   19.9570  -32.5130 N   0  0  0  0  0  0  0  0  0  0  0  0
   -1.0430   18.6940  -33.0120 C   0  0  0  0  0  0  0  0  0  0  0  0
   -2.1350   20.7740  -33.6380 C   0  0  0  0  0  0  0  0  0  0  0  0
   -3.6410   21.0160  -33.4750 C   0  0  0  0  0  0  0  0  0  0  0  0
   -4.1490   20.3600  -32.2590 N   0  0  0  0  0  0  0  0  0  0  0  0
   -5.4880   20.8200  -31.9450 C   0  0  0  0  0  0  0  0  0  0  0  0
   -5.6990   22.1230  -31.3940 C   0  0  0  0  0  0  0  0  0  0  0  0
   -4.6140   22.9690  -31.0510 C   0  0  0  0  0  0  0  0  0  0  0  0
   -4.8260   24.2360  -30.5160 C   0  0  0  0  0  0  0  0  0  0  0  0
   -6.1160   24.6970  -30.3000 C   0  0  0  0  0  0  0  0  0  0  0  0
   -7.2070   23.8930  -30.6160 C   0  0  0  0  0  0  0  0  0  0  0  0
   -7.0310   22.5980  -31.1680 C   0  0  0  0  0  0  0  0  0  0  0  0
   -8.1180   21.8040  -31.4770 N   0  0  0  0  0  0  0  0  0  0  0  0
   -9.4960   22.3030  -31.2930 C   0  0  0  0  0  0  0  0  0  0  0  0
   -7.9000   20.5340  -31.9300 C   0  0  0  0  0  0  0  0  0  0  0  0
   -9.0770   19.3750  -32.2700 S   0  0  0  0  0  0  0  0  0  0  0  0
   -8.0160   18.1660  -32.7200 C   0  0  0  0  0  0  0  0  0  0  0  0
   -6.7110   18.6410  -32.6130 C   0  0  0  0  0  0  0  0  0  0  0  0
   -5.6070   17.7140  -32.9150 C   0  0  0  0  0  0  0  0  0  0  0  0
   -5.3980   16.5850  -32.1090 C   0  0  0  0  0  0  0  0  0  0  0  0
   -4.4040   15.6600  -32.4410 C   0  0  0  0  0  0  0  0  0  0  0  0
   -3.6270   15.8480  -33.5880 C   0  0  0  0  0  0  0  0  0  0  0  0
   -3.8560   16.9510  -34.4140 C   0  0  0  0  0  0  0  0  0  0  0  0
   -4.8560   17.8740  -34.0900 C   0  0  0  0  0  0  0  0  0  0  0  0
   -6.6310   20.0000  -32.1660 C   0  0  0  0  0  0  0  0  0  0  0  0
   -1.1079   21.4445  -29.7625 H   0  0  0  0  0  0  0  0  0  0  0  0
   -0.8770   22.7168  -31.0093 H   0  0  0  0  0  0  0  0  0  0  0  0
   -2.3713   21.7201  -31.0093 H   0  0  0  0  0  0  0  0  0  0  0  0
    0.0702   21.2237  -32.4123 H   0  0  0  0  0  0  0  0  0  0  0  0
   -0.0460   19.9845  -31.1073 H   0  0  0  0  0  0  0  0  0  0  0  0
   -0.7543   18.0609  -32.1601 H   0  0  0  0  0  0  0  0  0  0  0  0
   -1.7898   18.1670  -33.6240 H   0  0  0  0  0  0  0  0  0  0  0  0
   -0.1554   18.9123  -33.6240 H   0  0  0  0  0  0  0  0  0  0  0  0
   -1.6118   21.7415  -33.6534 H   0  0  0  0  0  0  0  0  0  0  0  0
   -1.9597   20.2351  -34.5808 H   0  0  0  0  0  0  0  0  0  0  0  0
   -3.8266   22.0980  -33.4050 H   0  0  0  0  0  0  0  0  0  0  0  0
   -4.1617   20.5929  -34.3467 H   0  0  0  0  0  0  0  0  0  0  0  0
   -4.1330   19.3230  -32.3730 H   0  0  0  0  0  0  0  0  0  0  0  0
   -3.5060   20.5130  -31.4580 H   0  0  0  0  0  0  0  0  0  0  0  0
   -3.5843   22.6168  -31.2110 H   0  0  0  0  0  0  0  0  0  0  0  0
   -3.9667   24.8746  -30.2633 H   0  0  0  0  0  0  0  0  0  0  0  0
   -6.2771   25.7000  -29.8781 H   0  0  0  0  0  0  0  0  0  0  0  0
   -8.2248   24.2686  -30.4344 H   0  0  0  0  0  0  0  0  0  0  0  0
   -9.7166   22.3829  -30.2183 H   0  0  0  0  0  0  0  0  0  0  0  0
   -9.5930   23.2933  -31.7618 H   0  0  0  0  0  0  0  0  0  0  0  0
  -10.2046   21.6044  -31.7618 H   0  0  0  0  0  0  0  0  0  0  0  0
   -8.3022   17.1559  -33.0484 H   0  0  0  0  0  0  0  0  0  0  0  0
   -6.0176   16.4273  -31.2139 H   0  0  0  0  0  0  0  0  0  0  0  0
   -4.2329   14.7832  -31.7991 H   0  0  0  0  0  0  0  0  0  0  0  0
   -2.8352   15.1272  -33.8400 H   0  0  0  0  0  0  0  0  0  0  0  0
   -3.2493   17.0940  -35.3203 H   0  0  0  0  0  0  0  0  0  0  0  0
   -5.0540   18.7262  -34.7568 H   0  0  0  0  0  0  0  0  0  0  0  0
  1  2  1  0
  2  3  1  0
  3  4  1  0
  3  5  1  0
  5  6  1  0
  6  7  1  0
  7  8  1  0
  8  9  2  0
  9 10  1  0
 10 11  2  0
 11 12  1  0
 12 13  2  0
 13 14  1  0
 14 15  2  0
 15 16  1  0
 15 17  1  0
 17 18  1  0
 18 19  1  0
 19 20  2  0
 20 21  1  0
 21 22  2  0
 22 23  1  0
 23 24  2  0
 24 25  1  0
 25 26  2  0
 20 27  1  0
 27  8  1  0
 14  9  1  0
 27 17  2  0
 26 21  1  0
  1 28  1  0
  1 29  1  0
  1 30  1  0
  2 31  1  0
  2 32  1  0
  4 33  1  0
  4 34  1  0
  4 35  1  0
  5 36  1  0
  5 37  1  0
  6 38  1  0
  6 39  1  0
  7 40  1  0
  7 41  1  0
 10 42  1  0
 11 43  1  0
 12 44  1  0
 13 45  1  0
 16 46  1  0
 16 47  1  0
 16 48  1  0
 19 49  1  0
 22 50  1  0
 23 51  1  0
 24 52  1  0
 25 53  1  0
 26 54  1  0
M  CHG  2   7   1  15   1
M  END
>  <UniqueID>  (11) 
10

>  <SMILES>  (11) 
CCN(C)CC[NH2+]c1c2ccccc2[n+](C)c2scc(-c3ccccc3)c12

>  <Energy>  (11) 
112.53301718838159

>  <Genealogy>  (11) 
CCN(C)CC[NH2+]c1c2ccccc2[n+](C)c2scc(-c3ccccc3)c12 (protonated)
CCN(C)CC[NH2+]c1c2ccccc2[n+](C)c2scc(-c3ccccc3)c12 (3D coordinates assigned)
CCN(C)CC[NH2+]c1c2ccccc2[n+](C)c2scc(-c3ccccc3)c12 (optimized conformer: 112.53301718838159 kcal/mol)

>  <smiles>  (11) 
CCN(C)CCNc1c2ccccc2[n+](C)c2scc(-c3ccccc3)c12

>  <score_type>  (11) 
oracle

>  <origin>  (11) 
adg

>  <m_score__min__energy>  (11) 
-8.2899999999999991

>  <m_primary>  (11) 
energy

$$$$
11:0
     RDKit          3D

 69 72  0  0  0  0  0  0  0  0999 V2000
   -1.5520   21.3780  -26.7750 C   0  0  0  0  0  0  0  0  0  0  0  0
   -1.2420   22.8180  -27.1670 C   0  0  0  0  0  0  0  0  0  0  0  0
   -2.3720   23.4120  -27.9680 C   0  0  0  0  0  0  0  0  0  0  0  0
   -2.2350   23.5990  -29.3530 C   0  0  0  0  0  0  0  0  0  0  0  0
   -3.2800   24.1520  -30.0980 C   0  0  0  0  0  0  0  0  0  0  0  0
   -4.4730   24.5420  -29.4670 C   0  0  0  0  0  0  0  0  0  0  0  0
   -5.6180   25.0770  -30.2890 C   0  0  0  0  0  0  0  0  0  0  0  0
   -6.8730   24.3900  -29.9410 N   0  0  0  0  0  0  0  0  0  0  0  0
   -7.0050   23.1720  -30.7010 C   0  0  0  0  0  0  0  0  0  0  0  0
   -5.8540   22.5030  -31.1980 C   0  0  0  0  0  0  0  0  0  0  0  0
   -5.9750   21.2900  -31.9040 C   0  0  0  0  0  0  0  0  0  0  0  0
   -7.2590   20.7670  -32.0800 C   0  0  0  0  0  0  0  0  0  0  0  0
   -8.3680   21.4160  -31.6240 C   0  0  0  0  0  0  0  0  0  0  0  0
   -8.2860   22.6100  -30.9180 C   0  0  0  0  0  0  0  0  0  0  0  0
   -9.4850   20.7440  -31.9620 N   0  0  0  0  0  0  0  0  0  0  0  0
   -9.0040   19.6720  -32.6380 C   0  0  0  0  0  0  0  0  0  0  0  0
   -7.6490   19.6510  -32.7220 N   0  0  0  0  0  0  0  0  0  0  0  0
   -6.8520   18.6090  -33.3100 C   0  0  0  0  0  0  0  0  0  0  0  0
   -6.7950   17.3420  -32.7070 C   0  0  0  0  0  0  0  0  0  0  0  0
   -5.9600   16.3490  -33.2230 C   0  0  0  0  0  0  0  0  0  0  0  0
   -5.1550   16.6030  -34.3430 C   0  0  0  0  0  0  0  0  0  0  0  0
   -4.2870   15.5640  -34.8340 N   0  0  0  0  0  0  0  0  0  0  0  0
   -2.8340   15.5770  -34.6430 C   0  0  0  0  0  0  0  0  0  0  0  0
   -2.1830   16.8560  -35.1960 C   0  0  0  0  0  0  0  0  0  0  0  0
   -1.6440   17.7040  -34.1020 N   0  0  0  0  0  0  0  0  0  0  0  0
   -2.2250   19.0670  -34.1430 C   0  0  0  0  0  0  0  0  0  0  0  0
   -2.9470   19.3840  -32.8340 C   0  0  0  0  0  0  0  0  0  0  0  0
   -1.8190   17.0770  -32.7640 C   0  0  0  0  0  0  0  0  0  0  0  0
   -0.4640   16.8830  -32.0940 C   0  0  0  0  0  0  0  0  0  0  0  0
   -5.2160   17.8730  -34.9490 C   0  0  0  0  0  0  0  0  0  0  0  0
   -6.0530   18.8660  -34.4340 C   0  0  0  0  0  0  0  0  0  0  0  0
   -4.6110   24.3600  -28.0830 C   0  0  0  0  0  0  0  0  0  0  0  0
   -3.5630   23.8080  -27.3350 C   0  0  0  0  0  0  0  0  0  0  0  0
   -1.5704   21.2923  -25.6785 H   0  0  0  0  0  0  0  0  0  0  0  0
   -2.5327   21.0903  -27.1818 H   0  0  0  0  0  0  0  0  0  0  0  0
   -0.7766   20.7122  -27.1818 H   0  0  0  0  0  0  0  0  0  0  0  0
   -1.0936   23.4155  -26.2554 H   0  0  0  0  0  0  0  0  0  0  0  0
   -0.3313   22.8262  -27.7840 H   0  0  0  0  0  0  0  0  0  0  0  0
   -1.2999   23.3086  -29.8543 H   0  0  0  0  0  0  0  0  0  0  0  0
   -3.1678   24.2826  -31.1844 H   0  0  0  0  0  0  0  0  0  0  0  0
   -5.7298   26.1539  -30.0948 H   0  0  0  0  0  0  0  0  0  0  0  0
   -5.4019   24.9019  -31.3533 H   0  0  0  0  0  0  0  0  0  0  0  0
   -6.8920   24.1680  -28.9180 H   0  0  0  0  0  0  0  0  0  0  0  0
   -7.6830   25.0210  -30.1450 H   0  0  0  0  0  0  0  0  0  0  0  0
   -4.8574   22.9372  -31.0296 H   0  0  0  0  0  0  0  0  0  0  0  0
   -5.0899   20.7726  -32.3028 H   0  0  0  0  0  0  0  0  0  0  0  0
   -9.1919   23.1050  -30.5381 H   0  0  0  0  0  0  0  0  0  0  0  0
   -9.6483   18.8952  -33.0756 H   0  0  0  0  0  0  0  0  0  0  0  0
   -7.4127   17.1303  -31.8217 H   0  0  0  0  0  0  0  0  0  0  0  0
   -5.9333   15.3579  -32.7465 H   0  0  0  0  0  0  0  0  0  0  0  0
   -4.7240   14.7770  -35.3670 H   0  0  0  0  0  0  0  0  0  0  0  0
   -2.6183   15.5074  -33.5666 H   0  0  0  0  0  0  0  0  0  0  0  0
   -2.4150   14.7217  -35.1933 H   0  0  0  0  0  0  0  0  0  0  0  0
   -1.3606   16.5764  -35.8709 H   0  0  0  0  0  0  0  0  0  0  0  0
   -2.9505   17.4310  -35.7348 H   0  0  0  0  0  0  0  0  0  0  0  0
   -1.4187   19.7991  -34.2975 H   0  0  0  0  0  0  0  0  0  0  0  0
   -2.9496   19.1187  -34.9690 H   0  0  0  0  0  0  0  0  0  0  0  0
   -2.3068   19.1029  -31.9848 H   0  0  0  0  0  0  0  0  0  0  0  0
   -3.1659   20.4610  -32.7875 H   0  0  0  0  0  0  0  0  0  0  0  0
   -3.8880   18.8163  -32.7875 H   0  0  0  0  0  0  0  0  0  0  0  0
   -2.4451   17.7282  -32.1364 H   0  0  0  0  0  0  0  0  0  0  0  0
   -2.3030   16.0969  -32.8868 H   0  0  0  0  0  0  0  0  0  0  0  0
   -0.5893   16.9009  -31.0013 H   0  0  0  0  0  0  0  0  0  0  0  0
   -0.0396   15.9149  -32.3985 H   0  0  0  0  0  0  0  0  0  0  0  0
    0.2150   17.6931  -32.3985 H   0  0  0  0  0  0  0  0  0  0  0  0
   -4.5995   18.0847  -35.8351 H   0  0  0  0  0  0  0  0  0  0  0  0
   -6.0857   19.8557  -34.9130 H   0  0  0  0  0  0  0  0  0  0  0  0
   -5.5462   24.6520  -27.5828 H   0  0  0  0  0  0  0  0  0  0  0  0
   -3.6726   23.6839  -26.2475 H   0  0  0  0  0  0  0  0  0  0  0  0
  1  2  1  0
  2  3  1  0
  3  4  2  0
  4  5  1  0
  5  6  2  0
  6  7  1  0
  7  8  1  0
  8  9  1  0
  9 10  2  0
 10 11  1  0
 11 12  2  0
 12 13  1  0
 13 14  2  0
 13 15  1  0
 15 16  2  0
 16 17  1  0
 17 18  1  0
 18 19  2  0
 19 20  1  0
 20 21  2  0
 21 22  1  0
 22 23  1  0
 23 24  1  0
 24 25  1  0
 25 26  1  0
 26 27  1  0
 25 28  1  0
 28 29  1  0
 21 30  1  0
 30 31  2  0
  6 32  1  0
 32 33  2  0
 33  3  1  0
 14  9  1  0
 31 18  1  0
 17 12  1  0
  1 34  1  0
  1 35  1  0
  1 36  1  0
  2 37  1  0
  2 38  1  0
  4 39  1  0
  5 40  1  0
  7 41  1  0
  7 42  1  0
  8 43  1  0
  8 44  1  0
 10 45  1  0
 11 46  1  0
 14 47  1  0
 16 48  1  0
 19 49  1  0
 20 50  1  0
 22 51  1  0
 23 52  1  0
 23 53  1  0
 24 54  1  0
 24 55  1  0
 26 56  1  0
 26 57  1  0
 27 58  1  0
 27 59  1  0
 27 60  1  0
 28 61  1  0
 28 62  1  0
 29 63  1  0
 29 64  1  0
 29 65  1  0
 30 66  1  0
 31 67  1  0
 32 68  1  0
 33 69  1  0
M  CHG  1   8   1
M  END
>  <UniqueID>  (12) 
11

>  <SMILES>  (12) 
CCc1ccc(C[NH2+]c2ccc3c(c2)ncn3-c2ccc(NCCN(CC)CC)cc2)cc1

>  <Energy>  (12) 
113.11122697876874

>  <Genealogy>  (12) 
CCc1ccc(C[NH2+]c2ccc3c(c2)ncn3-c2ccc(NCCN(CC)CC)cc2)cc1 (protonated)
CCc1ccc(C[NH2+]c2ccc3c(c2)ncn3-c2ccc(NCCN(CC)CC)cc2)cc1 (3D coordinates assigned)
CCc1ccc(C[NH2+]c2ccc3c(c2)ncn3-c2ccc(NCCN(CC)CC)cc2)cc1 (optimized conformer: 113.11122697876874 kcal/mol)

>  <smiles>  (12) 
CCc1ccc(CNc2ccc3c(c2)ncn3-c2ccc(NCCN(CC)CC)cc2)cc1

>  <score_type>  (12) 
oracle

>  <origin>  (12) 
adg

>  <m_score__min__energy>  (12) 
-9.3000000000000007

>  <m_primary>  (12) 
energy

$$$$
12:0
     RDKit          3D

 52 55  0  0  0  0  0  0  0  0999 V2000
   -1.6640   25.1690  -28.1920 C   0  0  0  0  0  0  0  0  0  0  0  0
   -2.4900   25.3020  -29.3440 O   0  0  0  0  0  0  0  0  0  0  0  0
   -3.3420   24.2970  -29.8280 C   0  0  0  0  0  0  0  0  0  0  0  0
   -4.5410   24.5860  -30.5060 C   0  0  0  0  0  0  0  0  0  0  0  0
   -5.3550   23.5490  -30.9700 C   0  0  0  0  0  0  0  0  0  0  0  0
   -4.9890   22.2070  -30.7720 C   0  0  0  0  0  0  0  0  0  0  0  0
   -5.8710   21.1280  -31.2760 C   0  0  0  0  0  0  0  0  0  0  0  0
   -5.4970   19.8420  -31.4660 N   0  0  0  0  0  0  0  0  0  0  0  0
   -6.6020   19.2320  -31.9280 C   0  0  0  0  0  0  0  0  0  0  0  0
   -6.6970   17.7670  -32.2430 C   0  0  0  0  0  0  0  0  0  0  0  0
   -6.8440   17.5390  -33.6990 N   0  0  0  0  0  0  0  0  0  0  0  0
   -6.1200   18.5630  -34.4960 C   0  0  0  0  0  0  0  0  0  0  0  0
   -4.7420   18.0990  -35.0100 C   0  0  0  0  0  0  0  0  0  0  0  0
   -4.1960   17.0450  -34.1500 N   0  0  0  0  0  0  0  0  0  0  0  0
   -2.8370   17.0880  -33.6810 C   0  0  0  0  0  0  0  0  0  0  0  0
   -2.1340   16.0430  -33.7170 O   0  0  0  0  0  0  0  0  0  0  0  0
   -2.2730   18.3200  -33.1070 C   0  0  0  0  0  0  0  0  0  0  0  0
   -0.9550   18.7260  -33.1990 C   0  0  0  0  0  0  0  0  0  0  0  0
   -0.8840   19.9150  -32.5050 C   0  0  0  0  0  0  0  0  0  0  0  0
   -2.1560   20.1580  -32.0280 C   0  0  0  0  0  0  0  0  0  0  0  0
   -2.9600   19.1900  -32.4020 O   0  0  0  0  0  0  0  0  0  0  0  0
   -5.0080   15.8520  -33.9010 C   0  0  0  0  0  0  0  0  0  0  0  0
   -6.5000   16.1600  -34.1160 C   0  0  0  0  0  0  0  0  0  0  0  0
   -7.6160   20.1650  -31.9970 C   0  0  0  0  0  0  0  0  0  0  0  0
   -9.0240   19.9370  -32.4340 C   0  0  0  0  0  0  0  0  0  0  0  0
   -7.1360   21.3180  -31.5940 O   0  0  0  0  0  0  0  0  0  0  0  0
   -3.7910   21.9250  -30.0930 C   0  0  0  0  0  0  0  0  0  0  0  0
   -2.9770   22.9620  -29.6280 C   0  0  0  0  0  0  0  0  0  0  0  0
   -2.2797   25.2681  -27.2859 H   0  0  0  0  0  0  0  0  0  0  0  0
   -1.1798   24.1813  -28.2000 H   0  0  0  0  0  0  0  0  0  0  0  0
   -0.8943   25.9548  -28.2000 H   0  0  0  0  0  0  0  0  0  0  0  0
   -4.8386   25.6320  -30.6713 H   0  0  0  0  0  0  0  0  0  0  0  0
   -6.2918   23.7859  -31.4956 H   0  0  0  0  0  0  0  0  0  0  0  0
   -4.5680   19.3990  -31.2950 H   0  0  0  0  0  0  0  0  0  0  0  0
   -5.7834   17.2649  -31.8919 H   0  0  0  0  0  0  0  0  0  0  0  0
   -7.5840   17.3593  -31.7360 H   0  0  0  0  0  0  0  0  0  0  0  0
   -6.7414   18.8287  -35.3639 H   0  0  0  0  0  0  0  0  0  0  0  0
   -5.9390   19.4173  -33.8272 H   0  0  0  0  0  0  0  0  0  0  0  0
   -4.8506   17.7100  -36.0332 H   0  0  0  0  0  0  0  0  0  0  0  0
   -4.0533   18.9567  -34.9987 H   0  0  0  0  0  0  0  0  0  0  0  0
   -0.1344   18.2086  -33.7175 H   0  0  0  0  0  0  0  0  0  0  0  0
    0.0071   20.5435  -32.3605 H   0  0  0  0  0  0  0  0  0  0  0  0
   -2.4512   21.0301  -31.4260 H   0  0  0  0  0  0  0  0  0  0  0  0
   -4.7000   15.0539  -34.5925 H   0  0  0  0  0  0  0  0  0  0  0  0
   -4.8579   15.5310  -32.8596 H   0  0  0  0  0  0  0  0  0  0  0  0
   -6.7376   16.0414  -35.1835 H   0  0  0  0  0  0  0  0  0  0  0  0
   -7.0850   15.4612  -33.5000 H   0  0  0  0  0  0  0  0  0  0  0  0
   -9.6700   19.8324  -31.5498 H   0  0  0  0  0  0  0  0  0  0  0  0
   -9.3637   20.7918  -33.0372 H   0  0  0  0  0  0  0  0  0  0  0  0
   -9.0766   19.0186  -33.0372 H   0  0  0  0  0  0  0  0  0  0  0  0
   -3.4916   20.8798  -29.9262 H   0  0  0  0  0  0  0  0  0  0  0  0
   -2.0412   22.7258  -29.1002 H   0  0  0  0  0  0  0  0  0  0  0  0
  1  2  1  0
  2  3  1  0
  3  4  2  0
  4  5  1  0
  5  6  2  0
  6  7  1  0
  7  8  2  0
  8  9  1  0
  9 10  1  0
 10 11  1  0
 11 12  1  0
 12 13  1  0
 13 14  1  0
 14 15  1  0
 15 16  2  0
 15 17  1  0
 17 18  2  0
 18 19  1  0
 19 20  2  0
 20 21  1  0
 14 22  1  0
 22 23  1  0
  9 24  2  0
 24 25  1  0
 24 26  1  0
  6 27  1  0
 27 28  2  0
 28  3  1  0
 26  7  1  0
 23 11  1  0
 21 17  1  0
  1 29  1  0
  1 30  1  0
  1 31  1  0
  4 32  1  0
  5 33  1  0
  8 34  1  0
 10 35  1  0
 10 36  1  0
 12 37  1  0
 12 38  1  0
 13 39  1  0
 13 40  1  0
 18 41  1  0
 19 42  1  0
 20 43  1  0
 22 44  1  0
 22 45  1  0
 23 46  1  0
 23 47  1  0
 25 48  1  0
 25 49  1  0
 25 50  1  0
 27 51  1  0
 28 52  1  0
M  CHG  1   8   1
M  END
>  <UniqueID>  (13) 
12

>  <SMILES>  (13) 
COc1ccc(-c2[nH+]c(CN3CCN(C(=O)c4ccco4)CC3)c(C)o2)cc1

>  <Energy>  (13) 
120.61029719793287

>  <Genealogy>  (13) 
COc1ccc(-c2[nH+]c(CN3CCN(C(=O)c4ccco4)CC3)c(C)o2)cc1 (protonated)
COc1ccc(-c2[nH+]c(CN3CCN(C(=O)c4ccco4)CC3)c(C)o2)cc1 (3D coordinates assigned)
COc1ccc(-c2[nH+]c(CN3CCN(C(=O)c4ccco4)CC3)c(C)o2)cc1 (nonaromatic ring conformer: 120.61029719793287 kcal/mol)

>  <smiles>  (13) 
COc1ccc(-c2nc(CN3CCN(C(=O)c4ccco4)CC3)c(C)o2)cc1

>  <score_type>  (13) 
oracle

>  <origin>  (13) 
adg

>  <m_score__min__energy>  (13) 
-7.0199999999999996

>  <m_primary>  (13) 
energy

$$$$
13:0
     RDKit          3D

 44 46  0  0  0  0  0  0  0  0999 V2000
   -6.4202   24.2524  -32.9500 H   0  0  0  0  0  0  0  0  0  0  0  0
   -6.7650   23.7990  -32.0090 C   0  0  0  0  0  0  0  0  0  0  0  0
   -6.5320   24.4620  -30.8690 C   0  0  0  0  0  0  0  0  0  0  0  0
   -7.0423   24.1504  -29.9457 H   0  0  0  0  0  0  0  0  0  0  0  0
   -5.5850   25.6230  -30.8350 C   0  0  0  0  0  0  0  0  0  0  0  0
   -5.9320   26.3559  -30.0917 H   0  0  0  0  0  0  0  0  0  0  0  0
   -5.5495   26.0925  -31.8291 H   0  0  0  0  0  0  0  0  0  0  0  0
   -4.2410   25.1570  -30.4700 N   0  0  0  0  0  0  0  0  0  0  0  0
   -3.9710   25.6320  -29.5760 H   0  0  0  0  0  0  0  0  0  0  0  0
   -4.2200   23.7090  -30.2310 C   0  0  0  0  0  0  0  0  0  0  0  0
   -4.6427   23.1915  -31.1048 H   0  0  0  0  0  0  0  0  0  0  0  0
   -4.8171   23.4872  -29.3342 H   0  0  0  0  0  0  0  0  0  0  0  0
   -2.8000   23.2300  -30.0060 C   0  0  0  0  0  0  0  0  0  0  0  0
   -2.0190   23.8850  -29.0260 C   0  0  0  0  0  0  0  0  0  0  0  0
   -2.5920   24.9410  -28.2950 O   0  0  0  0  0  0  0  0  0  0  0  0
   -2.8750   24.9020  -26.9000 C   0  0  0  0  0  0  0  0  0  0  0  0
   -1.9414   25.0307  -26.3327 H   0  0  0  0  0  0  0  0  0  0  0  0
   -3.5737   25.7123  -26.6448 H   0  0  0  0  0  0  0  0  0  0  0  0
   -3.3285   23.9329  -26.6448 H   0  0  0  0  0  0  0  0  0  0  0  0
   -0.6930   23.4740  -28.8050 C   0  0  0  0  0  0  0  0  0  0  0  0
   -0.0853   23.9778  -28.0389 H   0  0  0  0  0  0  0  0  0  0  0  0
   -0.1440   22.4340  -29.5490 C   0  0  0  0  0  0  0  0  0  0  0  0
    0.8936   22.1192  -29.3637 H   0  0  0  0  0  0  0  0  0  0  0  0
   -0.8980   21.7880  -30.5270 C   0  0  0  0  0  0  0  0  0  0  0  0
   -0.0600   20.3750  -31.5140 Br  0  0  0  0  0  0  0  0  0  0  0  0
   -2.2290   22.1790  -30.7710 C   0  0  0  0  0  0  0  0  0  0  0  0
   -2.9760   21.5120  -31.7970 N   0  0  0  0  0  0  0  0  0  0  0  0
   -3.5990   21.4100  -33.1520 C   0  0  0  0  0  0  0  0  0  0  0  0
   -4.4796   22.0239  -33.3922 H   0  0  0  0  0  0  0  0  0  0  0  0
   -3.2198   21.5345  -34.1771 H   0  0  0  0  0  0  0  0  0  0  0  0
   -3.7330   20.3310  -32.3090 C   0  0  0  0  0  0  0  0  0  0  0  0
   -4.7196   20.0934  -31.8845 H   0  0  0  0  0  0  0  0  0  0  0  0
   -3.5023   19.2594  -32.4005 H   0  0  0  0  0  0  0  0  0  0  0  0
   -7.4600   22.4900  -32.0800 C   0  0  0  0  0  0  0  0  0  0  0  0
   -8.7850   22.4070  -31.6170 C   0  0  0  0  0  0  0  0  0  0  0  0
   -9.2772   23.3018  -31.2083 H   0  0  0  0  0  0  0  0  0  0  0  0
   -9.4820   21.1960  -31.6720 C   0  0  0  0  0  0  0  0  0  0  0  0
  -10.5156   21.1403  -31.2999 H   0  0  0  0  0  0  0  0  0  0  0  0
   -8.8690   20.0580  -32.1980 C   0  0  0  0  0  0  0  0  0  0  0  0
   -9.4182   19.1057  -32.2367 H   0  0  0  0  0  0  0  0  0  0  0  0
   -7.5590   20.1280  -32.6750 C   0  0  0  0  0  0  0  0  0  0  0  0
   -7.0785   19.2310  -33.0927 H   0  0  0  0  0  0  0  0  0  0  0  0
   -6.8560   21.3360  -32.6230 C   0  0  0  0  0  0  0  0  0  0  0  0
   -5.8266   21.3868  -33.0075 H   0  0  0  0  0  0  0  0  0  0  0  0
  1  2  1  0
  2  3  2  0
  3  4  1  0
  3  5  1  0
  5  6  1  0
  5  7  1  0
  5  8  1  0
  8  9  1  0
  8 10  1  0
 10 11  1  0
 10 12  1  0
 10 13  1  0
 13 14  2  0
 14 15  1  0
 15 16  1  0
 16 17  1  0
 16 18  1  0
 16 19  1  0
 14 20  1  0
 20 21  1  0
 20 22  2  0
 22 23  1  0
 22 24  1  0
 24 25  1  0
 24 26  2  0
 26 27  1  0
 27 28  1  0
 28 29  1  0
 28 30  1  0
 28 31  1  0
 31 32  1  0
 31 33  1  0
  2 34  1  0
 34 35  2  0
 35 36  1  0
 35 37  1  0
 37 38  1  0
 37 39  2  0
 39 40  1  0
 39 41  1  0
 41 42  1  0
 41 43  2  0
 43 44  1  0
 26 13  1  0
 31 27  1  0
 43 34  1  0
M  END
>  <UniqueID>  (14) 
13

>  <SMILES>  (14) 
COc1ccc(Br)c(N2CC2)c1CNC/C=C/c1ccccc1

>  <Energy>  (14) 
276.6171144440335

>  <Genealogy>  (14) 
COc1ccc(Br)c(N2CC2)c1CNC/C=C/c1ccccc1 (cis-trans isomerization)
COc1ccc(Br)c(N2CC2)c1CNC/C=C/c1ccccc1 (3D coordinates assigned)
COc1ccc(Br)c(N2CC2)c1CNC/C=C/c1ccccc1 (nonaromatic ring conformer: 276.6171144440335 kcal/mol)

>  <smiles>  (14) 
COc1ccc(Br)c(N2CC2)c1CNCC=Cc1ccccc1

>  <score_type>  (14) 
oracle

>  <origin>  (14) 
adg

>  <m_score__min__energy>  (14) 
-7.8899999999999997

>  <m_primary>  (14) 
energy

$$$$
14:0
     RDKit          3D

 49 52  0  0  0  0  0  0  0  0999 V2000
   -6.8540   24.8690  -29.9840 C   0  0  0  0  0  0  0  0  0  0  0  0
   -5.7320   25.7710  -30.5080 C   0  0  0  0  0  0  0  0  0  0  0  0
   -4.6810   25.0170  -31.2090 N   0  0  0  0  0  0  0  0  0  0  0  0
   -4.0340   24.0290  -30.3320 C   0  0  0  0  0  0  0  0  0  0  0  0
   -4.0130   22.6380  -30.9880 C   0  0  0  0  0  0  0  0  0  0  0  0
   -4.6990   22.5910  -32.2950 N   0  0  0  0  0  0  0  0  0  0  0  0
   -5.1790   21.2550  -32.6100 C   0  0  0  0  0  0  0  0  0  0  0  0
   -4.2850   20.3080  -33.1350 C   0  0  0  0  0  0  0  0  0  0  0  0
   -4.7120   19.0470  -33.5070 C   0  0  0  0  0  0  0  0  0  0  0  0
   -6.0360   18.7000  -33.5010 N   0  0  0  0  0  0  0  0  0  0  0  0
   -6.4880   17.5040  -34.2320 C   0  0  0  0  0  0  0  0  0  0  0  0
   -6.9350   19.5300  -32.8540 C   0  0  0  0  0  0  0  0  0  0  0  0
   -8.2630   19.1090  -32.5960 C   0  0  0  0  0  0  0  0  0  0  0  0
   -9.1770   19.9510  -31.9700 C   0  0  0  0  0  0  0  0  0  0  0  0
   -8.7940   21.2230  -31.5700 C   0  0  0  0  0  0  0  0  0  0  0  0
   -7.4880   21.6620  -31.7760 C   0  0  0  0  0  0  0  0  0  0  0  0
   -6.5300   20.8350  -32.4090 C   0  0  0  0  0  0  0  0  0  0  0  0
   -3.5340   18.2720  -33.9170 C   0  0  0  0  0  0  0  0  0  0  0  0
   -3.3660   16.9020  -34.1690 C   0  0  0  0  0  0  0  0  0  0  0  0
   -2.0780   16.4210  -34.4530 C   0  0  0  0  0  0  0  0  0  0  0  0
   -0.9750   17.2930  -34.4380 C   0  0  0  0  0  0  0  0  0  0  0  0
   -1.1470   18.6450  -34.1150 C   0  0  0  0  0  0  0  0  0  0  0  0
   -2.4360   19.1110  -33.8480 C   0  0  0  0  0  0  0  0  0  0  0  0
   -2.8060   20.4710  -33.3570 C   0  0  0  0  0  0  0  0  0  0  0  0
   -6.8461   24.8754  -28.8840 H   0  0  0  0  0  0  0  0  0  0  0  0
   -7.8235   25.2420  -30.3459 H   0  0  0  0  0  0  0  0  0  0  0  0
   -6.6980   23.8420  -30.3459 H   0  0  0  0  0  0  0  0  0  0  0  0
   -6.1652   26.5031  -31.2054 H   0  0  0  0  0  0  0  0  0  0  0  0
   -5.2672   26.2628  -29.6407 H   0  0  0  0  0  0  0  0  0  0  0  0
   -3.9720   25.6860  -31.5870 H   0  0  0  0  0  0  0  0  0  0  0  0
   -3.0004   24.3479  -30.1323 H   0  0  0  0  0  0  0  0  0  0  0  0
   -4.6062   23.9653  -29.3947 H   0  0  0  0  0  0  0  0  0  0  0  0
   -2.9648   22.3382  -31.1343 H   0  0  0  0  0  0  0  0  0  0  0  0
   -4.5530   21.9555  -30.3152 H   0  0  0  0  0  0  0  0  0  0  0  0
   -4.1150   23.0040  -33.0500 H   0  0  0  0  0  0  0  0  0  0  0  0
   -5.5210   23.2360  -32.2420 H   0  0  0  0  0  0  0  0  0  0  0  0
   -6.7825   16.7247  -33.5137 H   0  0  0  0  0  0  0  0  0  0  0  0
   -7.3497   17.7645  -34.8642 H   0  0  0  0  0  0  0  0  0  0  0  0
   -5.6694   17.1295  -34.8642 H   0  0  0  0  0  0  0  0  0  0  0  0
   -8.5771   18.0984  -32.8959 H   0  0  0  0  0  0  0  0  0  0  0  0
  -10.2065   19.6070  -31.7917 H   0  0  0  0  0  0  0  0  0  0  0  0
   -9.5253   21.8883  -31.0877 H   0  0  0  0  0  0  0  0  0  0  0  0
   -7.1966   22.6684  -31.4410 H   0  0  0  0  0  0  0  0  0  0  0  0
   -4.2270   16.2179  -34.1445 H   0  0  0  0  0  0  0  0  0  0  0  0
   -1.9309   15.3566  -34.6884 H   0  0  0  0  0  0  0  0  0  0  0  0
    0.0277   16.9115  -34.6811 H   0  0  0  0  0  0  0  0  0  0  0  0
   -0.2841   19.3259  -34.0725 H   0  0  0  0  0  0  0  0  0  0  0  0
   -2.2826   20.7183  -32.4216 H   0  0  0  0  0  0  0  0  0  0  0  0
   -2.5395   21.2875  -34.0442 H   0  0  0  0  0  0  0  0  0  0  0  0
  1  2  1  0
  2  3  1  0
  3  4  1  0
  4  5  1  0
  5  6  1  0
  6  7  1  0
  7  8  2  0
  8  9  1  0
  9 10  2  0
 10 11  1  0
 10 12  1  0
 12 13  2  0
 13 14  1  0
 14 15  2  0
 15 16  1  0
 16 17  2  0
  9 18  1  0
 18 19  2  0
 19 20  1  0
 20 21  2  0
 21 22  1  0
 22 23  2  0
 23 24  1  0
 17  7  1  0
 23 18  1  0
 24  8  1  0
 17 12  1  0
  1 25  1  0
  1 26  1  0
  1 27  1  0
  2 28  1  0
  2 29  1  0
  3 30  1  0
  4 31  1  0
  4 32  1  0
  5 33  1  0
  5 34  1  0
  6 35  1  0
  6 36  1  0
 11 37  1  0
 11 38  1  0
 11 39  1  0
 13 40  1  0
 14 41  1  0
 15 42  1  0
 16 43  1  0
 19 44  1  0
 20 45  1  0
 21 46  1  0
 22 47  1  0
 24 48  1  0
 24 49  1  0
M  CHG  2   6   1  10   1
M  END
>  <UniqueID>  (15) 
14

>  <SMILES>  (15) 
CCNCC[NH2+]c1c2c([n+](C)c3ccccc13)-c1ccccc1C2

>  <Energy>  (15) 
92.61500020628336

>  <Genealogy>  (15) 
CCNCC[NH2+]c1c2c([n+](C)c3ccccc13)-c1ccccc1C2 (protonated)
CCNCC[NH2+]c1c2c([n+](C)c3ccccc13)-c1ccccc1C2 (3D coordinates assigned)
CCNCC[NH2+]c1c2c([n+](C)c3ccccc13)-c1ccccc1C2 (nonaromatic ring conformer: 92.61500020628336 kcal/mol)

>  <smiles>  (15) 
CCNCCNc1c2c([n+](C)c3ccccc13)-c1ccccc1C2

>  <score_type>  (15) 
oracle

>  <origin>  (15) 
adg

>  <m_score__min__energy>  (15) 
-8.4000000000000004

>  <m_primary>  (15) 
energy

$$$$
15:0
     RDKit          3D

 57 60  0  0  0  0  0  0  0  0999 V2000
   -9.8080   21.2010  -31.9870 C   0  0  0  0  0  0  0  0  0  0  0  0
   -9.4920   19.8140  -32.5360 C   0  0  0  0  0  0  0  0  0  0  0  0
   -9.1240   18.9460  -31.4820 O   0  0  0  0  0  0  0  0  0  0  0  0
   -8.0440   18.1230  -31.8670 C   0  0  0  0  0  0  0  0  0  0  0  0
   -7.2620   18.7810  -33.0080 C   0  0  0  0  0  0  0  0  0  0  0  0
   -6.2540   19.7230  -32.4940 N   0  0  0  0  0  0  0  0  0  0  0  0
   -6.7110   20.7480  -31.5870 C   0  0  0  0  0  0  0  0  0  0  0  0
   -5.9140   21.7640  -31.2200 C   0  0  0  0  0  0  0  0  0  0  0  0
   -6.3810   22.8210  -30.2900 C   0  0  0  0  0  0  0  0  0  0  0  0
   -7.5870   22.8380  -29.9140 O   0  0  0  0  0  0  0  0  0  0  0  0
   -5.3930   23.8070  -29.6940 C   0  0  1  0  0  0  0  0  0  0  0  0
   -6.1020   25.1590  -29.4540 C   0  0  0  0  0  0  0  0  0  0  0  0
   -4.9610   23.2450  -28.4480 O   0  0  0  0  0  0  0  0  0  0  0  0
   -3.9210   23.7240  -27.6380 C   0  0  0  0  0  0  0  0  0  0  0  0
   -3.8970   24.9250  -27.2530 O   0  0  0  0  0  0  0  0  0  0  0  0
   -2.7860   22.7940  -27.2920 C   0  0  0  0  0  0  0  0  0  0  0  0
   -3.0970   21.3670  -27.7330 C   0  0  0  0  0  0  0  0  0  0  0  0
   -2.5160   21.2210  -29.1350 C   0  0  0  0  0  0  0  0  0  0  0  0
   -1.4820   22.3350  -29.3060 C   0  0  0  0  0  0  0  0  0  0  0  0
   -1.4940   23.1590  -28.0220 C   0  0  0  0  0  0  0  0  0  0  0  0
   -4.2030   23.9800  -30.6290 C   0  0  0  0  0  0  0  0  0  0  0  0
   -3.5330   25.0480  -30.6180 O   0  0  0  0  0  0  0  0  0  0  0  0
   -3.7580   22.8840  -31.5050 C   0  0  0  0  0  0  0  0  0  0  0  0
   -4.5470   21.8360  -31.7710 C   0  0  0  0  0  0  0  0  0  0  0  0
   -4.0720   20.7550  -32.6520 C   0  0  0  0  0  0  0  0  0  0  0  0
   -4.8790   19.7330  -32.9730 C   0  0  0  0  0  0  0  0  0  0  0  0
   -4.3230   18.6500  -33.8170 C   0  0  0  0  0  0  0  0  0  0  0  0
   -5.0160   18.0640  -34.8200 N   0  0  0  0  0  0  0  0  0  0  0  0
   -4.2640   17.1640  -35.5090 C   0  0  0  0  0  0  0  0  0  0  0  0
   -2.9510   17.0370  -35.0740 C   0  0  0  0  0  0  0  0  0  0  0  0
   -2.7340   18.0960  -33.7880 S   0  0  0  0  0  0  0  0  0  0  0  0
   -9.8010   21.1705  -30.8874 H   0  0  0  0  0  0  0  0  0  0  0  0
   -9.0498   21.9161  -32.3388 H   0  0  0  0  0  0  0  0  0  0  0  0
  -10.8012   21.5171  -32.3388 H   0  0  0  0  0  0  0  0  0  0  0  0
  -10.3812   19.4126  -33.0441 H   0  0  0  0  0  0  0  0  0  0  0  0
   -8.6566   19.8904  -33.2476 H   0  0  0  0  0  0  0  0  0  0  0  0
   -7.3754   17.9737  -31.0064 H   0  0  0  0  0  0  0  0  0  0  0  0
   -8.4344   17.1535  -32.2101 H   0  0  0  0  0  0  0  0  0  0  0  0
   -6.7558   17.9988  -33.5928 H   0  0  0  0  0  0  0  0  0  0  0  0
   -7.9707   19.3405  -33.6363 H   0  0  0  0  0  0  0  0  0  0  0  0
   -7.7346   20.6957  -31.1876 H   0  0  0  0  0  0  0  0  0  0  0  0
   -6.1954   25.3371  -28.3725 H   0  0  0  0  0  0  0  0  0  0  0  0
   -5.5122   25.9682  -29.9093 H   0  0  0  0  0  0  0  0  0  0  0  0
   -7.1030   25.1340  -29.9093 H   0  0  0  0  0  0  0  0  0  0  0  0
   -2.6643   22.8811  -26.2022 H   0  0  0  0  0  0  0  0  0  0  0  0
   -2.6278   20.6451  -27.0483 H   0  0  0  0  0  0  0  0  0  0  0  0
   -4.1793   21.1708  -27.7243 H   0  0  0  0  0  0  0  0  0  0  0  0
   -2.0345   20.2380  -29.2444 H   0  0  0  0  0  0  0  0  0  0  0  0
   -3.3050   21.2959  -29.8978 H   0  0  0  0  0  0  0  0  0  0  0  0
   -0.4838   21.9018  -29.4671 H   0  0  0  0  0  0  0  0  0  0  0  0
   -1.7232   22.9628  -30.1764 H   0  0  0  0  0  0  0  0  0  0  0  0
   -0.6214   22.9091  -27.4006 H   0  0  0  0  0  0  0  0  0  0  0  0
   -1.4465   24.2367  -28.2373 H   0  0  0  0  0  0  0  0  0  0  0  0
   -2.7536   22.9272  -31.9515 H   0  0  0  0  0  0  0  0  0  0  0  0
   -3.0469   20.7863  -33.0498 H   0  0  0  0  0  0  0  0  0  0  0  0
   -4.6664   16.5794  -36.3494 H   0  0  0  0  0  0  0  0  0  0  0  0
   -2.1900   16.3640  -35.4958 H   0  0  0  0  0  0  0  0  0  0  0  0
  1  2  1  0
  2  3  1  0
  3  4  1  0
  4  5  1  0
  5  6  1  0
  6  7  1  0
  7  8  2  0
  8  9  1  0
  9 10  2  0
  9 11  1  0
 11 12  1  0
 11 13  1  1
 13 14  1  0
 14 15  2  0
 14 16  1  0
 16 17  1  0
 17 18  1  0
 18 19  1  0
 19 20  1  0
 11 21  1  0
 21 22  2  0
 21 23  1  0
 23 24  2  0
 24 25  1  0
 25 26  2  0
 26 27  1  0
 27 28  2  0
 28 29  1  0
 29 30  2  0
 30 31  1  0
 26  6  1  0
 31 27  1  0
 24  8  1  0
 20 16  1  0
  1 32  1  0
  1 33  1  0
  1 34  1  0
  2 35  1  0
  2 36  1  0
  4 37  1  0
  4 38  1  0
  5 39  1  0
  5 40  1  0
  7 41  1  0
 12 42  1  0
 12 43  1  0
 12 44  1  0
 16 45  1  0
 17 46  1  0
 17 47  1  0
 18 48  1  0
 18 49  1  0
 19 50  1  0
 19 51  1  0
 20 52  1  0
 20 53  1  0
 23 54  1  0
 25 55  1  0
 29 56  1  0
 30 57  1  0
M  END
>  <UniqueID>  (16) 
15

>  <SMILES>  (16) 
CCOCCN1C=C2C(=O)[C@@](C)(OC(=O)C3CCCC3)C(=O)C=C2C=C1c1nccs1

>  <Energy>  (16) 
95.31133902224224

>  <Genealogy>  (16) 
CCOCCN1C=C2C(=O)[C@@](C)(OC(=O)C3CCCC3)C(=O)C=C2C=C1c1nccs1 (chirality)
CCOCCN1C=C2C(=O)[C@@](C)(OC(=O)C3CCCC3)C(=O)C=C2C=C1c1nccs1 (3D coordinates assigned)
CCOCCN1C=C2C(=O)[C@@](C)(OC(=O)C3CCCC3)C(=O)C=C2C=C1c1nccs1 (nonaromatic ring conformer: 95.31133902224224 kcal/mol)

>  <smiles>  (16) 
CCOCCN1C=C2C(=O)C(C)(OC(=O)C3CCCC3)C(=O)C=C2C=C1c1nccs1

>  <score_type>  (16) 
oracle

>  <origin>  (16) 
adg

>  <m_score__min__energy>  (16) 
-9.5199999999999996

>  <m_primary>  (16) 
energy

$$$$
16:0
     RDKit          3D

 55 56  0  0  0  0  0  0  0  0999 V2000
    0.1460   19.0990  -31.5440 C   0  0  0  0  0  0  0  0  0  0  0  0
    0.6340   20.1370  -32.5520 C   0  0  0  0  0  0  0  0  0  0  0  0
   -0.4200   21.1450  -32.8080 N   0  0  0  0  0  0  0  0  0  0  0  0
   -0.8480   21.1510  -34.2290 C   0  0  0  0  0  0  0  0  0  0  0  0
    0.2550   21.5580  -35.2160 C   0  0  0  0  0  0  0  0  0  0  0  0
   -1.5370   21.0160  -31.8400 C   0  0  0  0  0  0  0  0  0  0  0  0
   -1.6000   22.1860  -30.8500 C   0  0  0  0  0  0  0  0  0  0  0  0
   -2.9160   22.7020  -30.8140 O   0  0  0  0  0  0  0  0  0  0  0  0
   -3.2830   23.0550  -29.4920 C   0  0  0  0  0  0  0  0  0  0  0  0
   -3.6080   24.5510  -29.3850 C   0  0  0  0  0  0  0  0  0  0  0  0
   -4.0890   25.0580  -30.6140 O   0  0  0  0  0  0  0  0  0  0  0  0
   -5.3540   25.6800  -30.4720 C   0  0  0  0  0  0  0  0  0  0  0  0
   -6.4600   24.6590  -30.7350 C   0  0  0  0  0  0  0  0  0  0  0  0
   -5.9080   23.4540  -31.3510 N   0  0  0  0  0  0  0  0  0  0  0  0
   -6.7490   22.3740  -31.7840 C   0  0  0  0  0  0  0  0  0  0  0  0
   -8.1260   22.4420  -31.5450 C   0  0  0  0  0  0  0  0  0  0  0  0
   -8.9680   21.4090  -31.9440 C   0  0  0  0  0  0  0  0  0  0  0  0
   -8.4640   20.2860  -32.6040 C   0  0  0  0  0  0  0  0  0  0  0  0
   -9.3850   19.3020  -32.9740 O   0  0  0  0  0  0  0  0  0  0  0  0
   -7.0730   20.1960  -32.8740 C   0  0  0  0  0  0  0  0  0  0  0  0
   -6.5160   19.1020  -33.5730 C   0  0  0  0  0  0  0  0  0  0  0  0
   -5.1480   19.0530  -33.8460 C   0  0  0  0  0  0  0  0  0  0  0  0
   -4.3100   20.0840  -33.4310 C   0  0  0  0  0  0  0  0  0  0  0  0
   -4.8320   21.1740  -32.7380 C   0  0  0  0  0  0  0  0  0  0  0  0
   -6.2090   21.2490  -32.4480 C   0  0  0  0  0  0  0  0  0  0  0  0
    0.3201   19.4693  -30.5229 H   0  0  0  0  0  0  0  0  0  0  0  0
   -0.9296   18.9221  -31.6915 H   0  0  0  0  0  0  0  0  0  0  0  0
    0.6960   18.1578  -31.6915 H   0  0  0  0  0  0  0  0  0  0  0  0
    1.5263   20.6398  -32.1509 H   0  0  0  0  0  0  0  0  0  0  0  0
    0.8782   19.6290  -33.4966 H   0  0  0  0  0  0  0  0  0  0  0  0
   -1.1891   20.1386  -34.4909 H   0  0  0  0  0  0  0  0  0  0  0  0
   -1.6445   21.9046  -34.3163 H   0  0  0  0  0  0  0  0  0  0  0  0
    1.1440   21.8861  -34.6575 H   0  0  0  0  0  0  0  0  0  0  0  0
    0.5166   20.6972  -35.8489 H   0  0  0  0  0  0  0  0  0  0  0  0
   -0.1052   22.3824  -35.8489 H   0  0  0  0  0  0  0  0  0  0  0  0
   -2.4839   20.9761  -32.3984 H   0  0  0  0  0  0  0  0  0  0  0  0
   -1.3687   20.0974  -31.2587 H   0  0  0  0  0  0  0  0  0  0  0  0
   -1.3167   21.8336  -29.8472 H   0  0  0  0  0  0  0  0  0  0  0  0
   -0.9049   22.9759  -31.1708 H   0  0  0  0  0  0  0  0  0  0  0  0
   -4.1696   22.4737  -29.1988 H   0  0  0  0  0  0  0  0  0  0  0  0
   -2.4359   22.8349  -28.8256 H   0  0  0  0  0  0  0  0  0  0  0  0
   -4.3761   24.6970  -28.6112 H   0  0  0  0  0  0  0  0  0  0  0  0
   -2.6859   25.0902  -29.1223 H   0  0  0  0  0  0  0  0  0  0  0  0
   -5.4553   26.0743  -29.4501 H   0  0  0  0  0  0  0  0  0  0  0  0
   -5.4387   26.5046  -31.1951 H   0  0  0  0  0  0  0  0  0  0  0  0
   -6.9396   24.3912  -29.7820 H   0  0  0  0  0  0  0  0  0  0  0  0
   -7.1982   25.1024  -31.4195 H   0  0  0  0  0  0  0  0  0  0  0  0
   -4.8710   23.3560  -31.4400 H   0  0  0  0  0  0  0  0  0  0  0  0
   -8.5472   23.3216  -31.0362 H   0  0  0  0  0  0  0  0  0  0  0  0
  -10.0461   21.4776  -31.7367 H   0  0  0  0  0  0  0  0  0  0  0  0
   -9.8230   19.2320  -33.8800 H   0  0  0  0  0  0  0  0  0  0  0  0
   -7.1671   18.2802  -33.9056 H   0  0  0  0  0  0  0  0  0  0  0  0
   -4.7298   18.1947  -34.3922 H   0  0  0  0  0  0  0  0  0  0  0  0
   -3.2331   20.0380  -33.6507 H   0  0  0  0  0  0  0  0  0  0  0  0
   -4.1625   21.9844  -32.4139 H   0  0  0  0  0  0  0  0  0  0  0  0
  1  2  1  0
  2  3  1  0
  3  4  1  0
  4  5  1  0
  3  6  1  0
  6  7  1  0
  7  8  1  0
  8  9  1  0
  9 10  1  0
 10 11  1  0
 11 12  1  0
 12 13  1  0
 13 14  1  0
 14 15  1  0
 15 16  2  0
 16 17  1  0
 17 18  2  0
 18 19  1  0
 18 20  1  0
 20 21  2  0
 21 22  1  0
 22 23  2  0
 23 24  1  0
 24 25  2  0
 25 15  1  0
 25 20  1  0
  1 26  1  0
  1 27  1  0
  1 28  1  0
  2 29  1  0
  2 30  1  0
  4 31  1  0
  4 32  1  0
  5 33  1  0
  5 34  1  0
  5 35  1  0
  6 36  1  0
  6 37  1  0
  7 38  1  0
  7 39  1  0
  9 40  1  0
  9 41  1  0
 10 42  1  0
 10 43  1  0
 12 44  1  0
 12 45  1  0
 13 46  1  0
 13 47  1  0
 14 48  1  0
 16 49  1  0
 17 50  1  0
 19 51  1  0
 21 52  1  0
 22 53  1  0
 23 54  1  0
 24 55  1  0
M  END
>  <UniqueID>  (17) 
16

>  <SMILES>  (17) 
CCN(CC)CCOCCOCCNc1ccc(O)c2ccccc12

>  <Energy>  (17) 
61.65968367535554

>  <Genealogy>  (17) 
CCN(CC)CCOCCOCCNc1ccc(O)c2ccccc12 (3D coordinates assigned)
CCN(CC)CCOCCOCCNc1ccc(O)c2ccccc12 (optimized conformer: 61.65968367535554 kcal/mol)

>  <smiles>  (17) 
CCN(CC)CCOCCOCCNc1ccc(O)c2ccccc12

>  <score_type>  (17) 
oracle

>  <origin>  (17) 
adg

>  <m_score__min__energy>  (17) 
-8.1300000000000008

>  <m_primary>  (17) 
energy

$$$$
17:0
     RDKit          3D

 71 73  0  0  0  0  0  0  0  0999 V2000
   -5.3270   15.9180  -31.8270 C   0  0  0  0  0  0  0  0  0  0  0  0
   -5.3110   17.2090  -32.4320 O   0  0  0  0  0  0  0  0  0  0  0  0
   -6.3780   18.1190  -32.3920 C   0  0  0  0  0  0  0  0  0  0  0  0
   -7.3020   18.1440  -31.3280 C   0  0  0  0  0  0  0  0  0  0  0  0
   -8.3500   19.0650  -31.3260 C   0  0  0  0  0  0  0  0  0  0  0  0
   -8.4920   19.9650  -32.3820 C   0  0  0  0  0  0  0  0  0  0  0  0
   -7.5830   19.9510  -33.4420 C   0  0  0  0  0  0  0  0  0  0  0  0
   -6.5150   19.0320  -33.4510 C   0  0  0  0  0  0  0  0  0  0  0  0
   -5.5700   18.9860  -34.4910 O   0  0  0  0  0  0  0  0  0  0  0  0
   -5.2450   17.8360  -35.2710 C   0  0  0  0  0  0  0  0  0  0  0  0
   -3.7800   17.4030  -35.0700 C   0  0  0  0  0  0  0  0  0  0  0  0
   -3.2610   17.7250  -33.7220 N   0  0  0  0  0  0  0  0  0  0  0  0
   -1.8270   18.0800  -33.6950 C   0  0  0  0  0  0  0  0  0  0  0  0
   -1.1830   18.0010  -32.2950 C   0  0  0  0  0  0  0  0  0  0  0  0
   -1.0810   19.3680  -31.6010 C   0  0  0  0  0  0  0  0  0  0  0  0
   -1.4050   20.5060  -32.5760 C   0  0  0  0  0  0  0  0  0  0  0  0
   -2.3560   21.4510  -31.9590 N   0  0  0  0  0  0  0  0  0  0  0  0
   -1.9170   22.3600  -31.0220 C   0  0  0  0  0  0  0  0  0  0  0  0
   -0.7120   22.3420  -30.6480 O   0  0  0  0  0  0  0  0  0  0  0  0
   -2.8080   23.3070  -30.4680 C   0  0  0  0  0  0  0  0  0  0  0  0
   -2.3930   24.3070  -29.5130 N   0  0  0  0  0  0  0  0  0  0  0  0
   -2.9030   24.4070  -28.1440 C   0  0  0  0  0  0  0  0  0  0  0  0
   -1.8040   24.8780  -27.1800 C   0  0  0  0  0  0  0  0  0  0  0  0
   -0.6160   25.3410  -27.9290 N   0  0  0  0  0  0  0  0  0  0  0  0
    0.4730   24.3560  -27.8130 C   0  0  0  0  0  0  0  0  0  0  0  0
   -0.1480   26.6450  -27.4240 C   0  0  0  0  0  0  0  0  0  0  0  0
   -4.1410   23.2470  -30.8840 C   0  0  0  0  0  0  0  0  0  0  0  0
   -4.5330   22.3570  -31.8060 N   0  0  0  0  0  0  0  0  0  0  0  0
   -3.6700   21.4680  -32.3640 C   0  0  0  0  0  0  0  0  0  0  0  0
   -4.0820   20.6690  -33.2510 O   0  0  0  0  0  0  0  0  0  0  0  0
   -5.9410   22.5000  -32.1330 C   0  0  0  0  0  0  0  0  0  0  0  0
   -6.4470   23.6540  -31.2510 C   0  0  0  0  0  0  0  0  0  0  0  0
   -5.2380   24.1430  -30.4410 C   0  0  0  0  0  0  0  0  0  0  0  0
   -5.3257   16.0260  -30.7323 H   0  0  0  0  0  0  0  0  0  0  0  0
   -6.2319   15.3771  -32.1410 H   0  0  0  0  0  0  0  0  0  0  0  0
   -4.4358   15.3549  -32.1410 H   0  0  0  0  0  0  0  0  0  0  0  0
   -7.1963   17.4336  -30.4948 H   0  0  0  0  0  0  0  0  0  0  0  0
   -9.0652   19.0814  -30.4904 H   0  0  0  0  0  0  0  0  0  0  0  0
   -9.3217   20.6873  -32.3799 H   0  0  0  0  0  0  0  0  0  0  0  0
   -7.7013   20.6608  -34.2739 H   0  0  0  0  0  0  0  0  0  0  0  0
   -5.9049   17.0072  -34.9752 H   0  0  0  0  0  0  0  0  0  0  0  0
   -5.3831   18.0924  -36.3317 H   0  0  0  0  0  0  0  0  0  0  0  0
   -3.7121   16.3155  -35.2211 H   0  0  0  0  0  0  0  0  0  0  0  0
   -3.1703   17.9579  -35.7982 H   0  0  0  0  0  0  0  0  0  0  0  0
   -3.8060   18.5240  -33.3190 H   0  0  0  0  0  0  0  0  0  0  0  0
   -3.4360   16.9120  -33.0890 H   0  0  0  0  0  0  0  0  0  0  0  0
   -1.2883   17.3910  -34.3621 H   0  0  0  0  0  0  0  0  0  0  0  0
   -1.7545   19.1290  -34.0180 H   0  0  0  0  0  0  0  0  0  0  0  0
   -1.7915   17.3339  -31.6668 H   0  0  0  0  0  0  0  0  0  0  0  0
   -0.1586   17.6221  -32.4258 H   0  0  0  0  0  0  0  0  0  0  0  0
   -1.7923   19.3995  -30.7625 H   0  0  0  0  0  0  0  0  0  0  0  0
   -0.0510   19.5004  -31.2384 H   0  0  0  0  0  0  0  0  0  0  0  0
   -0.4779   21.0394  -32.8328 H   0  0  0  0  0  0  0  0  0  0  0  0
   -1.8585   20.0822  -33.4841 H   0  0  0  0  0  0  0  0  0  0  0  0
   -1.5700   24.9070  -29.7500 H   0  0  0  0  0  0  0  0  0  0  0  0
   -3.7341   25.1273  -28.1215 H   0  0  0  0  0  0  0  0  0  0  0  0
   -3.2464   23.4120  -27.8245 H   0  0  0  0  0  0  0  0  0  0  0  0
   -2.1908   25.7064  -26.5683 H   0  0  0  0  0  0  0  0  0  0  0  0
   -1.5110   24.0343  -26.5379 H   0  0  0  0  0  0  0  0  0  0  0  0
    0.6835   24.1656  -26.7503 H   0  0  0  0  0  0  0  0  0  0  0  0
    0.1719   23.4173  -28.3011 H   0  0  0  0  0  0  0  0  0  0  0  0
    1.3769   24.7495  -28.3011 H   0  0  0  0  0  0  0  0  0  0  0  0
   -0.1516   26.6350  -26.3241 H   0  0  0  0  0  0  0  0  0  0  0  0
    0.8737   26.8330  -27.7856 H   0  0  0  0  0  0  0  0  0  0  0  0
   -0.8170   27.4398  -27.7856 H   0  0  0  0  0  0  0  0  0  0  0  0
   -6.0663   22.7454  -33.1979 H   0  0  0  0  0  0  0  0  0  0  0  0
   -6.5005   21.5702  -31.9528 H   0  0  0  0  0  0  0  0  0  0  0  0
   -6.8393   24.4682  -31.8780 H   0  0  0  0  0  0  0  0  0  0  0  0
   -7.2620   23.3232  -30.5905 H   0  0  0  0  0  0  0  0  0  0  0  0
   -5.0069   25.1929  -30.6740 H   0  0  0  0  0  0  0  0  0  0  0  0
   -5.4073   24.1093  -29.3546 H   0  0  0  0  0  0  0  0  0  0  0  0
  1  2  1  0
  2  3  1  0
  3  4  2  0
  4  5  1  0
  5  6  2  0
  6  7  1  0
  7  8  2  0
  8  9  1  0
  9 10  1  0
 10 11  1  0
 11 12  1  0
 12 13  1  0
 13 14  1  0
 14 15  1  0
 15 16  1  0
 16 17  1  0
 17 18  1  0
 18 19  2  0
 18 20  1  0
 20 21  1  0
 21 22  1  0
 22 23  1  0
 23 24  1  0
 24 25  1  0
 24 26  1  0
 20 27  2  0
 27 28  1  0
 28 29  1  0
 29 30  2  0
 28 31  1  0
 31 32  1  0
 32 33  1  0
  8  3  1  0
 29 17  1  0
 33 27  1  0
  1 34  1  0
  1 35  1  0
  1 36  1  0
  4 37  1  0
  5 38  1  0
  6 39  1  0
  7 40  1  0
 10 41  1  0
 10 42  1  0
 11 43  1  0
 11 44  1  0
 12 45  1  0
 12 46  1  0
 13 47  1  0
 13 48  1  0
 14 49  1  0
 14 50  1  0
 15 51  1  0
 15 52  1  0
 16 53  1  0
 16 54  1  0
 21 55  1  0
 22 56  1  0
 22 57  1  0
 23 58  1  0
 23 59  1  0
 25 60  1  0
 25 61  1  0
 25 62  1  0
 26 63  1  0
 26 64  1  0
 26 65  1  0
 31 66  1  0
 31 67  1  0
 32 68  1  0
 32 69  1  0
 33 70  1  0
 33 71  1  0
M  CHG  1  12   1
M  END
>  <UniqueID>  (18) 
17

>  <SMILES>  (18) 
COc1ccccc1OCC[NH2+]CCCCn1c(=O)c(NCCN(C)C)c2n(c1=O)CCC2

>  <Energy>  (18) 
80.32748236731587

>  <Genealogy>  (18) 
COc1ccccc1OCC[NH2+]CCCCn1c(=O)c(NCCN(C)C)c2n(c1=O)CCC2 (protonated)
COc1ccccc1OCC[NH2+]CCCCn1c(=O)c(NCCN(C)C)c2n(c1=O)CCC2 (3D coordinates assigned)
COc1ccccc1OCC[NH2+]CCCCn1c(=O)c(NCCN(C)C)c2n(c1=O)CCC2 (nonaromatic ring conformer: 80.32748236731587 kcal/mol)

>  <smiles>  (18) 
COc1ccccc1OCCNCCCCn1c(=O)c(NCCN(C)C)c2n(c1=O)CCC2

>  <score_type>  (18) 
oracle

>  <origin>  (18) 
adg

>  <m_score__min__energy>  (18) 
-7.4900000000000002

>  <m_primary>  (18) 
energy

$$$$
18:0
     RDKit          3D

 62 65  0  0  0  0  0  0  0  0999 V2000
   -1.5620   19.8740  -27.8950 C   0  0  0  0  0  0  0  0  0  0  0  0
   -1.4110   20.2690  -29.3620 C   0  0  0  0  0  0  0  0  0  0  0  0
   -2.0390   21.5830  -29.6200 N   0  0  0  0  0  0  0  0  0  0  0  0
   -1.3660   22.6840  -29.1620 C   0  0  0  0  0  0  0  0  0  0  0  0
   -1.8510   23.9830  -29.3630 C   0  0  0  0  0  0  0  0  0  0  0  0
   -1.0660   25.1400  -28.8520 C   0  0  0  0  0  0  0  0  0  0  0  0
   -1.5010   26.3170  -28.9530 O   0  0  0  0  0  0  0  0  0  0  0  0
    0.1710   24.9390  -28.2480 O   0  0  0  0  0  0  0  0  0  0  0  0
   -3.0690   24.1450  -30.0460 C   0  0  0  0  0  0  0  0  0  0  0  0
   -3.5280   25.3020  -30.2530 O   0  0  0  0  0  0  0  0  0  0  0  0
   -3.7790   23.0170  -30.4940 C   0  0  0  0  0  0  0  0  0  0  0  0
   -5.0040   23.1620  -31.1580 C   0  0  0  0  0  0  0  0  0  0  0  0
   -5.7300   22.0580  -31.5930 C   0  0  0  0  0  0  0  0  0  0  0  0
   -6.9060   22.3230  -32.2110 F   0  0  0  0  0  0  0  0  0  0  0  0
   -5.2520   20.7370  -31.3750 C   0  0  0  0  0  0  0  0  0  0  0  0
   -5.9960   19.5450  -31.8130 N   0  0  0  0  0  0  0  0  0  0  0  0
   -7.2660   19.7320  -32.5530 C   0  0  0  0  0  0  0  0  0  0  0  0
   -8.0080   18.4390  -32.9190 C   0  0  0  0  0  0  0  0  0  0  0  0
   -7.1000   17.3390  -33.2690 N   0  0  0  0  0  0  0  0  0  0  0  0
   -6.3130   17.6250  -34.4960 C   0  0  0  0  0  0  0  0  0  0  0  0
   -5.1060   16.7180  -34.6170 C   0  0  0  0  0  0  0  0  0  0  0  0
   -3.8420   17.2730  -34.8660 C   0  0  0  0  0  0  0  0  0  0  0  0
   -2.7120   16.4580  -34.9590 C   0  0  0  0  0  0  0  0  0  0  0  0
   -2.8290   15.0670  -34.8020 C   0  0  0  0  0  0  0  0  0  0  0  0
   -1.7250   14.2060  -34.8850 O   0  0  0  0  0  0  0  0  0  0  0  0
   -0.7700   14.2220  -35.9410 C   0  0  0  0  0  0  0  0  0  0  0  0
   -4.0890   14.5090  -34.5530 C   0  0  0  0  0  0  0  0  0  0  0  0
   -5.2340   15.3230  -34.4580 C   0  0  0  0  0  0  0  0  0  0  0  0
   -6.5070   14.7820  -34.2090 O   0  0  0  0  0  0  0  0  0  0  0  0
   -6.8110   13.3910  -34.2170 C   0  0  0  0  0  0  0  0  0  0  0  0
   -6.2750   17.0220  -32.0920 C   0  0  0  0  0  0  0  0  0  0  0  0
   -5.4080   18.2000  -31.6200 C   0  0  0  0  0  0  0  0  0  0  0  0
   -4.0130   20.6060  -30.6970 C   0  0  0  0  0  0  0  0  0  0  0  0
   -3.2560   21.7220  -30.2630 C   0  0  0  0  0  0  0  0  0  0  0  0
   -1.2424   20.7100  -27.2554 H   0  0  0  0  0  0  0  0  0  0  0  0
   -2.6151   19.6344  -27.6863 H   0  0  0  0  0  0  0  0  0  0  0  0
   -0.9372   18.9930  -27.6863 H   0  0  0  0  0  0  0  0  0  0  0  0
   -0.3413   20.3254  -29.6119 H   0  0  0  0  0  0  0  0  0  0  0  0
   -1.9104   19.5116  -29.9840 H   0  0  0  0  0  0  0  0  0  0  0  0
   -0.4183   22.5448  -28.6213 H   0  0  0  0  0  0  0  0  0  0  0  0
   -5.4008   24.1718  -31.3395 H   0  0  0  0  0  0  0  0  0  0  0  0
   -7.9355   20.3434  -31.9301 H   0  0  0  0  0  0  0  0  0  0  0  0
   -6.9951   20.2079  -33.5070 H   0  0  0  0  0  0  0  0  0  0  0  0
   -8.6192   18.1294  -32.0584 H   0  0  0  0  0  0  0  0  0  0  0  0
   -8.6256   18.6518  -33.8040 H   0  0  0  0  0  0  0  0  0  0  0  0
   -7.7050   16.5040  -33.4570 H   0  0  0  0  0  0  0  0  0  0  0  0
   -6.9581   17.4776  -35.3747 H   0  0  0  0  0  0  0  0  0  0  0  0
   -5.9546   18.6633  -34.4369 H   0  0  0  0  0  0  0  0  0  0  0  0
   -3.7400   18.3613  -34.9892 H   0  0  0  0  0  0  0  0  0  0  0  0
   -1.7271   16.9066  -35.1558 H   0  0  0  0  0  0  0  0  0  0  0  0
    0.2450   14.2390  -35.5173 H   0  0  0  0  0  0  0  0  0  0  0  0
   -0.8935   13.3217  -36.5608 H   0  0  0  0  0  0  0  0  0  0  0  0
   -0.9236   15.1177  -36.5608 H   0  0  0  0  0  0  0  0  0  0  0  0
   -4.1856   13.4202  -34.4300 H   0  0  0  0  0  0  0  0  0  0  0  0
   -6.8905   13.0271  -33.1820 H   0  0  0  0  0  0  0  0  0  0  0  0
   -7.7661   13.2274  -34.7376 H   0  0  0  0  0  0  0  0  0  0  0  0
   -6.0112   12.8439  -34.7376 H   0  0  0  0  0  0  0  0  0  0  0  0
   -6.9415   16.7273  -31.2680 H   0  0  0  0  0  0  0  0  0  0  0  0
   -5.5910   16.2113  -32.3833 H   0  0  0  0  0  0  0  0  0  0  0  0
   -5.2125   18.0671  -30.5457 H   0  0  0  0  0  0  0  0  0  0  0  0
   -4.5021   18.1755  -32.2434 H   0  0  0  0  0  0  0  0  0  0  0  0
   -3.6239   19.5961  -30.5001 H   0  0  0  0  0  0  0  0  0  0  0  0
  1  2  1  0
  2  3  1  0
  3  4  1  0
  4  5  2  0
  5  6  1  0
  6  7  2  0
  6  8  1  0
  5  9  1  0
  9 10  2  0
  9 11  1  0
 11 12  2  0
 12 13  1  0
 13 14  1  0
 13 15  2  0
 15 16  1  0
 16 17  1  0
 17 18  1  0
 18 19  1  0
 19 20  1  0
 20 21  1  0
 21 22  2  0
 22 23  1  0
 23 24  2  0
 24 25  1  0
 25 26  1  0
 24 27  1  0
 27 28  2  0
 28 29  1  0
 29 30  1  0
 19 31  1  0
 31 32  1  0
 15 33  1  0
 33 34  2  0
 34  3  1  0
 34 11  1  0
 32 16  1  0
 28 21  1  0
  1 35  1  0
  1 36  1  0
  1 37  1  0
  2 38  1  0
  2 39  1  0
  4 40  1  0
 12 41  1  0
 17 42  1  0
 17 43  1  0
 18 44  1  0
 18 45  1  0
 19 46  1  0
 20 47  1  0
 20 48  1  0
 22 49  1  0
 23 50  1  0
 26 51  1  0
 26 52  1  0
 26 53  1  0
 27 54  1  0
 30 55  1  0
 30 56  1  0
 30 57  1  0
 31 58  1  0
 31 59  1  0
 32 60  1  0
 32 61  1  0
 33 62  1  0
M  CHG  2   8  -1  19   1
M  END
>  <UniqueID>  (19) 
18

>  <SMILES>  (19) 
CCn1cc(C(=O)[O-])c(=O)c2cc(F)c(N3CC[NH+](Cc4ccc(OC)cc4OC)CC3)cc21

>  <Energy>  (19) 
90.32310948916636

>  <Genealogy>  (19) 
CCn1cc(C(=O)[O-])c(=O)c2cc(F)c(N3CC[NH+](Cc4ccc(OC)cc4OC)CC3)cc21 (protonated)
CCn1cc(C(=O)[O-])c(=O)c2cc(F)c(N3CC[NH+](Cc4ccc(OC)cc4OC)CC3)cc21 (3D coordinates assigned)
CCn1cc(C(=O)[O-])c(=O)c2cc(F)c(N3CC[NH+](Cc4ccc(OC)cc4OC)CC3)cc21 (nonaromatic ring conformer: 90.32310948916636 kcal/mol)

>  <smiles>  (19) 
CCn1cc(C(=O)O)c(=O)c2cc(F)c(N3CCN(Cc4ccc(OC)cc4OC)CC3)cc21

>  <score_type>  (19) 
oracle

>  <origin>  (19) 
adg

>  <m_score__min__energy>  (19) 
-9.1300000000000008

>  <m_primary>  (19) 
energy

$$$$
19:0
     RDKit          3D

 46 48  0  0  0  0  0  0  0  0999 V2000
   -0.3030   20.1230  -32.9760 C   0  0  0  0  0  0  0  0  0  0  0  0
   -1.2770   20.1200  -31.9360 O   0  0  0  0  0  0  0  0  0  0  0  0
   -2.3920   20.9700  -31.8920 C   0  0  0  0  0  0  0  0  0  0  0  0
   -3.0660   21.3870  -33.0450 C   0  0  0  0  0  0  0  0  0  0  0  0
   -4.1610   22.2450  -32.9510 C   0  0  0  0  0  0  0  0  0  0  0  0
   -4.6190   22.7190  -31.7030 C   0  0  0  0  0  0  0  0  0  0  0  0
   -3.9610   22.2550  -30.5240 C   0  0  0  0  0  0  0  0  0  0  0  0
   -2.8430   21.4080  -30.6460 C   0  0  0  0  0  0  0  0  0  0  0  0
   -4.3770   22.6420  -29.1110 C   0  0  0  0  0  0  0  0  0  0  0  0
   -4.4630   24.0960  -28.8800 N   0  0  0  0  0  0  0  0  0  0  0  0
   -4.1470   24.5110  -27.5020 C   0  0  0  0  0  0  0  0  0  0  0  0
   -5.6650   24.7470  -29.4390 C   0  0  0  0  0  0  0  0  0  0  0  0
   -5.6350   24.9220  -30.9650 C   0  0  0  0  0  0  0  0  0  0  0  0
   -5.7510   23.6310  -31.6500 N   0  0  0  0  0  0  0  0  0  0  0  0
   -7.0600   23.2590  -32.2170 C   0  0  0  0  0  0  0  0  0  0  0  0
   -7.8560   22.3210  -31.2880 C   0  0  0  0  0  0  0  0  0  0  0  0
   -7.7750   20.8780  -31.7140 C   0  0  0  0  0  0  0  0  0  0  0  0
   -8.6930   19.9400  -31.2110 C   0  0  0  0  0  0  0  0  0  0  0  0
   -8.6340   18.6060  -31.6260 C   0  0  0  0  0  0  0  0  0  0  0  0
   -7.6640   18.2010  -32.5460 C   0  0  0  0  0  0  0  0  0  0  0  0
   -6.7490   19.1280  -33.0520 C   0  0  0  0  0  0  0  0  0  0  0  0
   -6.8020   20.4620  -32.6390 C   0  0  0  0  0  0  0  0  0  0  0  0
    0.7046   20.1261  -32.5347 H   0  0  0  0  0  0  0  0  0  0  0  0
   -0.4281   19.2245  -33.5981 H   0  0  0  0  0  0  0  0  0  0  0  0
   -0.4336   21.0207  -33.5981 H   0  0  0  0  0  0  0  0  0  0  0  0
   -2.7299   21.0358  -34.0318 H   0  0  0  0  0  0  0  0  0  0  0  0
   -4.6790   22.5592  -33.8691 H   0  0  0  0  0  0  0  0  0  0  0  0
   -2.3128   21.0840  -29.7383 H   0  0  0  0  0  0  0  0  0  0  0  0
   -5.3651   22.2023  -28.9103 H   0  0  0  0  0  0  0  0  0  0  0  0
   -3.5949   22.2619  -28.4373 H   0  0  0  0  0  0  0  0  0  0  0  0
   -4.6560   23.8426  -26.7919 H   0  0  0  0  0  0  0  0  0  0  0  0
   -3.0600   24.4560  -27.3427 H   0  0  0  0  0  0  0  0  0  0  0  0
   -4.4891   25.5442  -27.3427 H   0  0  0  0  0  0  0  0  0  0  0  0
   -6.5411   24.1347  -29.1793 H   0  0  0  0  0  0  0  0  0  0  0  0
   -5.7072   25.7573  -29.0060 H   0  0  0  0  0  0  0  0  0  0  0  0
   -6.4737   25.5658  -31.2687 H   0  0  0  0  0  0  0  0  0  0  0  0
   -4.6740   25.3788  -31.2440 H   0  0  0  0  0  0  0  0  0  0  0  0
   -7.6469   24.1746  -32.3820 H   0  0  0  0  0  0  0  0  0  0  0  0
   -6.8776   22.7226  -33.1599 H   0  0  0  0  0  0  0  0  0  0  0  0
   -7.4534   22.4104  -30.2682 H   0  0  0  0  0  0  0  0  0  0  0  0
   -8.9126   22.6235  -31.3351 H   0  0  0  0  0  0  0  0  0  0  0  0
   -9.4601   20.2562  -30.4888 H   0  0  0  0  0  0  0  0  0  0  0  0
   -9.3524   17.8745  -31.2275 H   0  0  0  0  0  0  0  0  0  0  0  0
   -7.6204   17.1515  -32.8724 H   0  0  0  0  0  0  0  0  0  0  0  0
   -5.9859   18.8072  -33.7764 H   0  0  0  0  0  0  0  0  0  0  0  0
   -6.0798   21.1889  -33.0392 H   0  0  0  0  0  0  0  0  0  0  0  0
  1  2  1  0
  2  3  1  0
  3  4  2  0
  4  5  1  0
  5  6  2  0
  6  7  1  0
  7  8  2  0
  7  9  1  0
  9 10  1  0
 10 11  1  0
 10 12  1  0
 12 13  1  0
 13 14  1  0
 14 15  1  0
 15 16  1  0
 16 17  1  0
 17 18  2  0
 18 19  1  0
 19 20  2  0
 20 21  1  0
 21 22  2  0
  8  3  1  0
 22 17  1  0
 14  6  1  0
  1 23  1  0
  1 24  1  0
  1 25  1  0
  4 26  1  0
  5 27  1  0
  8 28  1  0
  9 29  1  0
  9 30  1  0
 11 31  1  0
 11 32  1  0
 11 33  1  0
 12 34  1  0
 12 35  1  0
 13 36  1  0
 13 37  1  0
 15 38  1  0
 15 39  1  0
 16 40  1  0
 16 41  1  0
 18 42  1  0
 19 43  1  0
 20 44  1  0
 21 45  1  0
 22 46  1  0
M  END
>  <UniqueID>  (20) 
19

>  <SMILES>  (20) 
COc1ccc2c(c1)CN(C)CCN2CCc1ccccc1

>  <Energy>  (20) 
60.67939579162746

>  <Genealogy>  (20) 
COc1ccc2c(c1)CN(C)CCN2CCc1ccccc1 (3D coordinates assigned)
COc1ccc2c(c1)CN(C)CCN2CCc1ccccc1 (nonaromatic ring conformer: 60.67939579162746 kcal/mol)

>  <smiles>  (20) 
COc1ccc2c(c1)CN(C)CCN2CCc1ccccc1

>  <score_type>  (20) 
oracle

>  <origin>  (20) 
adg

>  <m_score__min__energy>  (20) 
-5.8600000000000003

>  <m_primary>  (20) 
energy

$$$$
20:0
     RDKit          3D

 55 57  0  0  0  0  0  0  0  0999 V2000
   -2.1410   22.9970  -30.0790 C   0  0  0  0  0  0  0  0  0  0  0  0
   -3.1710   24.1340  -30.0620 C   0  0  0  0  0  0  0  0  0  0  0  0
   -4.5470   23.7190  -29.6940 N   0  0  0  0  0  0  0  0  0  0  0  0
   -4.6060   23.1260  -28.3480 C   0  0  0  0  0  0  0  0  0  0  0  0
   -5.5760   24.7710  -29.8560 C   0  0  0  0  0  0  0  0  0  0  0  0
   -6.4650   24.5590  -31.0980 C   0  0  0  0  0  0  0  0  0  0  0  0
   -5.8970   23.5700  -32.1340 C   0  0  0  0  0  0  0  0  0  0  0  0
   -5.5760   22.2580  -31.5560 N   0  0  0  0  0  0  0  0  0  0  0  0
   -5.6690   21.0190  -32.2830 C   0  0  0  0  0  0  0  0  0  0  0  0
   -6.8400   20.2450  -32.1900 C   0  0  0  0  0  0  0  0  0  0  0  0
   -7.9420   20.6920  -31.4300 C   0  0  0  0  0  0  0  0  0  0  0  0
   -9.0740   19.8960  -31.2760 C   0  0  0  0  0  0  0  0  0  0  0  0
   -9.1220   18.6370  -31.8600 C   0  0  0  0  0  0  0  0  0  0  0  0
   -8.0500   18.1740  -32.6220 C   0  0  0  0  0  0  0  0  0  0  0  0
   -6.8990   18.9780  -32.8320 C   0  0  0  0  0  0  0  0  0  0  0  0
   -5.8420   18.5450  -33.6120 N   0  0  0  0  0  0  0  0  0  0  0  0
   -6.0030   17.3570  -34.4810 C   0  0  0  0  0  0  0  0  0  0  0  0
   -4.6470   19.2400  -33.6070 C   0  0  0  0  0  0  0  0  0  0  0  0
   -3.4660   18.6930  -34.1690 C   0  0  0  0  0  0  0  0  0  0  0  0
   -2.2850   19.4300  -34.2210 C   0  0  0  0  0  0  0  0  0  0  0  0
   -2.2480   20.7450  -33.7480 C   0  0  0  0  0  0  0  0  0  0  0  0
   -1.0200   21.5020  -33.7890 N   0  0  0  0  0  0  0  0  0  0  0  0
    0.1190   20.6000  -33.9770 C   0  0  0  0  0  0  0  0  0  0  0  0
   -3.3950   21.2890  -33.1570 C   0  0  0  0  0  0  0  0  0  0  0  0
   -4.5700   20.5260  -33.0110 C   0  0  0  0  0  0  0  0  0  0  0  0
   -1.8871   22.7168  -29.0460 H   0  0  0  0  0  0  0  0  0  0  0  0
   -2.5643   22.1265  -30.6016 H   0  0  0  0  0  0  0  0  0  0  0  0
   -1.2331   23.3325  -30.6016 H   0  0  0  0  0  0  0  0  0  0  0  0
   -2.8354   24.8894  -29.3363 H   0  0  0  0  0  0  0  0  0  0  0  0
   -3.2272   24.5175  -31.0915 H   0  0  0  0  0  0  0  0  0  0  0  0
   -4.5268   23.9219  -27.5929 H   0  0  0  0  0  0  0  0  0  0  0  0
   -5.5614   22.5954  -28.2226 H   0  0  0  0  0  0  0  0  0  0  0  0
   -3.7739   22.4175  -28.2226 H   0  0  0  0  0  0  0  0  0  0  0  0
   -6.2174   24.7743  -28.9624 H   0  0  0  0  0  0  0  0  0  0  0  0
   -5.0499   25.7280  -29.9878 H   0  0  0  0  0  0  0  0  0  0  0  0
   -7.4406   24.1792  -30.7605 H   0  0  0  0  0  0  0  0  0  0  0  0
   -6.5318   25.5340  -31.6028 H   0  0  0  0  0  0  0  0  0  0  0  0
   -6.6424   23.4297  -32.9307 H   0  0  0  0  0  0  0  0  0  0  0  0
   -4.9605   23.9985  -32.5204 H   0  0  0  0  0  0  0  0  0  0  0  0
   -5.1440   22.2340  -30.6040 H   0  0  0  0  0  0  0  0  0  0  0  0
   -7.9061   21.6825  -30.9529 H   0  0  0  0  0  0  0  0  0  0  0  0
   -9.9302   20.2644  -30.6918 H   0  0  0  0  0  0  0  0  0  0  0  0
  -10.0095   18.0023  -31.7209 H   0  0  0  0  0  0  0  0  0  0  0  0
   -8.0969   17.1694  -33.0677 H   0  0  0  0  0  0  0  0  0  0  0  0
   -6.1246   16.4597  -33.8565 H   0  0  0  0  0  0  0  0  0  0  0  0
   -6.8920   17.4850  -35.1160 H   0  0  0  0  0  0  0  0  0  0  0  0
   -5.1120   17.2438  -35.1160 H   0  0  0  0  0  0  0  0  0  0  0  0
   -3.4825   17.6692  -34.5709 H   0  0  0  0  0  0  0  0  0  0  0  0
   -1.3748   18.9738  -34.6374 H   0  0  0  0  0  0  0  0  0  0  0  0
   -0.8960   22.0320  -32.8950 H   0  0  0  0  0  0  0  0  0  0  0  0
   -1.0460   22.1930  -34.5740 H   0  0  0  0  0  0  0  0  0  0  0  0
    0.5084   20.2916  -32.9955 H   0  0  0  0  0  0  0  0  0  0  0  0
   -0.2057   19.7115  -34.5383 H   0  0  0  0  0  0  0  0  0  0  0  0
    0.9095   21.1197  -34.5383 H   0  0  0  0  0  0  0  0  0  0  0  0
   -3.3782   22.3296  -32.8008 H   0  0  0  0  0  0  0  0  0  0  0  0
  1  2  1  0
  2  3  1  0
  3  4  1  0
  3  5  1  0
  5  6  1  0
  6  7  1  0
  7  8  1  0
  8  9  1  0
  9 10  2  0
 10 11  1  0
 11 12  2  0
 12 13  1  0
 13 14  2  0
 14 15  1  0
 15 16  2  0
 16 17  1  0
 16 18  1  0
 18 19  2  0
 19 20  1  0
 20 21  2  0
 21 22  1  0
 22 23  1  0
 21 24  1  0
 24 25  2  0
 25  9  1  0
 15 10  1  0
 25 18  1  0
  1 26  1  0
  1 27  1  0
  1 28  1  0
  2 29  1  0
  2 30  1  0
  4 31  1  0
  4 32  1  0
  4 33  1  0
  5 34  1  0
  5 35  1  0
  6 36  1  0
  6 37  1  0
  7 38  1  0
  7 39  1  0
  8 40  1  0
 11 41  1  0
 12 42  1  0
 13 43  1  0
 14 44  1  0
 17 45  1  0
 17 46  1  0
 17 47  1  0
 19 48  1  0
 20 49  1  0
 22 50  1  0
 22 51  1  0
 23 52  1  0
 23 53  1  0
 23 54  1  0
 24 55  1  0
M  CHG  2  16   1  22   1
M  END
>  <UniqueID>  (21) 
20

>  <SMILES>  (21) 
CCN(C)CCCNc1c2ccccc2[n+](C)c2ccc([NH2+]C)cc12

>  <Energy>  (21) 
80.0794791699847

>  <Genealogy>  (21) 
CCN(C)CCCNc1c2ccccc2[n+](C)c2ccc([NH2+]C)cc12 (protonated)
CCN(C)CCCNc1c2ccccc2[n+](C)c2ccc([NH2+]C)cc12 (3D coordinates assigned)
CCN(C)CCCNc1c2ccccc2[n+](C)c2ccc([NH2+]C)cc12 (optimized conformer: 80.0794791699847 kcal/mol)

>  <smiles>  (21) 
CCN(C)CCCNc1c2ccccc2[n+](C)c2ccc(NC)cc12

>  <score_type>  (21) 
oracle

>  <origin>  (21) 
adg

>  <m_score__min__energy>  (21) 
-7.8799999999999999

>  <m_primary>  (21) 
energy

$$$$
21:0
     RDKit          3D

 32 32  0  0  0  0  0  0  0  0999 V2000
   -9.4920   21.0450  -31.9690 C   0  0  0  0  0  0  0  0  0  0  0  0
   -8.1940   20.4940  -32.6050 C   0  0  2  0  0  0  0  0  0  0  0  0
   -8.1770   18.9200  -32.7130 C   0  0  2  0  0  0  0  0  0  0  0  0
   -8.9910   18.2150  -31.5920 C   0  0  0  0  0  0  0  0  0  0  0  0
   -6.7780   18.3560  -32.8660 N   0  0  0  0  0  0  0  0  0  0  0  0
   -6.1500   17.9720  -31.5660 C   0  0  0  0  0  0  0  0  0  0  0  0
   -6.8210   17.1400  -33.7190 C   0  0  0  0  0  0  0  0  0  0  0  0
   -5.9000   19.3460  -33.5490 C   0  0  0  0  0  0  0  0  0  0  0  0
   -5.7720   20.6680  -32.7600 C   0  0  0  0  0  0  0  0  0  0  0  0
   -6.9590   20.9530  -31.9210 N   0  0  0  0  0  0  0  0  0  0  0  0
   -6.9690   22.3870  -31.5750 C   0  0  0  0  0  0  0  0  0  0  0  0
   -9.4072   21.0090  -30.8729 H   0  0  0  0  0  0  0  0  0  0  0  0
   -9.6450   22.0857  -32.2909 H   0  0  0  0  0  0  0  0  0  0  0  0
  -10.3469   20.4322  -32.2909 H   0  0  0  0  0  0  0  0  0  0  0  0
   -8.1986   20.9143  -33.6215 H   0  0  0  0  0  0  0  0  0  0  0  0
   -8.7049   18.6861  -33.6493 H   0  0  0  0  0  0  0  0  0  0  0  0
   -8.6177   18.5383  -30.6091 H   0  0  0  0  0  0  0  0  0  0  0  0
  -10.0537   18.4828  -31.6868 H   0  0  0  0  0  0  0  0  0  0  0  0
   -8.8777   17.1250  -31.6868 H   0  0  0  0  0  0  0  0  0  0  0  0
   -6.7658   18.3485  -30.7359 H   0  0  0  0  0  0  0  0  0  0  0  0
   -6.0794   16.8761  -31.5024 H   0  0  0  0  0  0  0  0  0  0  0  0
   -5.1424   18.4086  -31.5024 H   0  0  0  0  0  0  0  0  0  0  0  0
   -6.8526   16.2450  -33.0803 H   0  0  0  0  0  0  0  0  0  0  0  0
   -7.7187   17.1692  -34.3541 H   0  0  0  0  0  0  0  0  0  0  0  0
   -5.9235   17.1057  -34.3541 H   0  0  0  0  0  0  0  0  0  0  0  0
   -4.8982   18.9070  -33.6663 H   0  0  0  0  0  0  0  0  0  0  0  0
   -6.3557   19.5808  -34.5222 H   0  0  0  0  0  0  0  0  0  0  0  0
   -4.8881   20.6042  -32.1083 H   0  0  0  0  0  0  0  0  0  0  0  0
   -5.6808   21.4834  -33.4926 H   0  0  0  0  0  0  0  0  0  0  0  0
   -6.9698   22.5002  -30.4808 H   0  0  0  0  0  0  0  0  0  0  0  0
   -6.0742   22.8713  -31.9931 H   0  0  0  0  0  0  0  0  0  0  0  0
   -7.8705   22.8588  -31.9931 H   0  0  0  0  0  0  0  0  0  0  0  0
  1  2  1  0
  2  3  1  0
  3  4  1  0
  3  5  1  0
  5  6  1  0
  5  7  1  0
  5  8  1  0
  8  9  1  0
  9 10  1  0
 10 11  1  0
 10  2  1  0
  1 12  1  0
  1 13  1  0
  1 14  1  0
  2 15  1  6
  3 16  1  6
  4 17  1  0
  4 18  1  0
  4 19  1  0
  6 20  1  0
  6 21  1  0
  6 22  1  0
  7 23  1  0
  7 24  1  0
  7 25  1  0
  8 26  1  0
  8 27  1  0
  9 28  1  0
  9 29  1  0
 11 30  1  0
 11 31  1  0
 11 32  1  0
M  CHG  1   5   1
M  END
>  <UniqueID>  (22) 
21

>  <SMILES>  (22) 
C[C@@H]1[C@H](C)[N+](C)(C)CCN1C

>  <Energy>  (22) 
53.96067100268249

>  <Genealogy>  (22) 
C[C@@H]1[C@H](C)[N+](C)(C)CCN1C (chirality)
C[C@@H]1[C@H](C)[N+](C)(C)CCN1C (3D coordinates assigned)
C[C@@H]1[C@H](C)[N+](C)(C)CCN1C (nonaromatic ring conformer: 53.96067100268249 kcal/mol)

>  <smiles>  (22) 
CC1C(C)[N+](C)(C)CCN1C

>  <score_type>  (22) 
oracle

>  <origin>  (22) 
adg

>  <m_score__min__energy>  (22) 
-4.5300000000000002

>  <m_primary>  (22) 
energy

$$$$
22:0
     RDKit          3D

 61 65  0  0  0  0  0  0  0  0999 V2000
   -3.8920   19.5860  -32.3340 C   0  0  0  0  0  0  0  0  0  0  0  0
   -4.7540   18.5560  -32.9640 N   0  0  0  0  0  0  0  0  0  0  0  0
   -3.8680   17.5230  -33.5570 C   0  0  0  0  0  0  0  0  0  0  0  0
   -5.5630   19.1880  -34.0570 C   0  0  0  0  0  0  0  0  0  0  0  0
   -6.9430   19.6490  -33.5640 C   0  0  0  0  0  0  0  0  0  0  0  0
   -7.7380   18.4880  -33.1120 N   0  0  0  0  0  0  0  0  0  0  0  0
   -8.9840   18.8600  -32.4070 C   0  0  0  0  0  0  0  0  0  0  0  0
   -8.7740   19.8250  -31.2230 C   0  0  0  0  0  0  0  0  0  0  0  0
   -8.5410   21.1520  -31.6950 O   0  0  0  0  0  0  0  0  0  0  0  0
   -7.4440   21.9610  -31.3510 C   0  0  0  0  0  0  0  0  0  0  0  0
   -7.5570   23.3430  -31.5490 C   0  0  0  0  0  0  0  0  0  0  0  0
   -6.5010   24.2000  -31.2280 C   0  0  0  0  0  0  0  0  0  0  0  0
   -5.3080   23.6810  -30.6980 C   0  0  0  0  0  0  0  0  0  0  0  0
   -4.2210   24.4980  -30.3530 C   0  0  0  0  0  0  0  0  0  0  0  0
   -4.2720   25.7490  -30.5100 O   0  0  0  0  0  0  0  0  0  0  0  0
   -3.0670   23.9170  -29.8230 C   0  0  0  0  0  0  0  0  0  0  0  0
   -3.0180   22.5230  -29.6460 C   0  0  0  0  0  0  0  0  0  0  0  0
   -1.8270   21.8490  -29.0720 C   0  0  0  0  0  0  0  0  0  0  0  0
   -0.8370   22.5660  -28.3680 C   0  0  0  0  0  0  0  0  0  0  0  0
    0.2820   21.9080  -27.8490 C   0  0  0  0  0  0  0  0  0  0  0  0
    0.4300   20.5330  -28.0340 C   0  0  0  0  0  0  0  0  0  0  0  0
   -0.5540   19.8070  -28.7150 C   0  0  0  0  0  0  0  0  0  0  0  0
   -1.6660   20.4620  -29.2500 C   0  0  0  0  0  0  0  0  0  0  0  0
   -0.4060   18.4230  -28.8490 O   0  0  0  0  0  0  0  0  0  0  0  0
    0.5620   17.7060  -28.0800 C   0  0  0  0  0  0  0  0  0  0  0  0
    1.8550   18.5240  -27.9590 C   0  0  0  0  0  0  0  0  0  0  0  0
    1.5570   19.8610  -27.5480 O   0  0  0  0  0  0  0  0  0  0  0  0
   -4.0710   21.7800  -29.9850 O   0  0  0  0  0  0  0  0  0  0  0  0
   -5.1870   22.2890  -30.4940 C   0  0  0  0  0  0  0  0  0  0  0  0
   -6.2470   21.4380  -30.8270 C   0  0  0  0  0  0  0  0  0  0  0  0
   -6.9520   17.4120  -32.4610 C   0  0  0  0  0  0  0  0  0  0  0  0
   -5.6120   17.9310  -31.9060 C   0  0  0  0  0  0  0  0  0  0  0  0
   -3.9616   19.5028  -31.2394 H   0  0  0  0  0  0  0  0  0  0  0  0
   -2.8489   19.4330  -32.6478 H   0  0  0  0  0  0  0  0  0  0  0  0
   -4.2264   20.5859  -32.6478 H   0  0  0  0  0  0  0  0  0  0  0  0
   -3.3795   16.9534  -32.7527 H   0  0  0  0  0  0  0  0  0  0  0  0
   -4.4657   16.8404  -34.1788 H   0  0  0  0  0  0  0  0  0  0  0  0
   -3.1023   18.0098  -34.1788 H   0  0  0  0  0  0  0  0  0  0  0  0
   -5.0155   20.0600  -34.4442 H   0  0  0  0  0  0  0  0  0  0  0  0
   -5.7192   18.4331  -34.8417 H   0  0  0  0  0  0  0  0  0  0  0  0
   -6.8139   20.3494  -32.7257 H   0  0  0  0  0  0  0  0  0  0  0  0
   -7.4717   20.1458  -34.3908 H   0  0  0  0  0  0  0  0  0  0  0  0
   -9.6590   19.3418  -33.1297 H   0  0  0  0  0  0  0  0  0  0  0  0
   -9.4010   17.9318  -31.9892 H   0  0  0  0  0  0  0  0  0  0  0  0
   -9.6719   19.8192  -30.5876 H   0  0  0  0  0  0  0  0  0  0  0  0
   -7.8985   19.4940  -30.6452 H   0  0  0  0  0  0  0  0  0  0  0  0
   -8.4880   23.7586  -31.9620 H   0  0  0  0  0  0  0  0  0  0  0  0
   -6.6041   25.2830  -31.3906 H   0  0  0  0  0  0  0  0  0  0  0  0
   -2.2057   24.5431  -29.5470 H   0  0  0  0  0  0  0  0  0  0  0  0
   -0.9463   23.6513  -28.2263 H   0  0  0  0  0  0  0  0  0  0  0  0
    1.0454   22.4740  -27.2951 H   0  0  0  0  0  0  0  0  0  0  0  0
   -2.4192   19.8912  -29.8129 H   0  0  0  0  0  0  0  0  0  0  0  0
    0.1580   17.5144  -27.0750 H   0  0  0  0  0  0  0  0  0  0  0  0
    0.7858   16.7536  -28.5829 H   0  0  0  0  0  0  0  0  0  0  0  0
    2.5143   18.0535  -27.2147 H   0  0  0  0  0  0  0  0  0  0  0  0
    2.3546   18.5526  -28.9386 H   0  0  0  0  0  0  0  0  0  0  0  0
   -6.1439   20.3530  -30.6782 H   0  0  0  0  0  0  0  0  0  0  0  0
   -7.5415   16.9935  -31.6319 H   0  0  0  0  0  0  0  0  0  0  0  0
   -6.7318   16.6460  -33.2191 H   0  0  0  0  0  0  0  0  0  0  0  0
   -5.8193   18.6832  -31.1306 H   0  0  0  0  0  0  0  0  0  0  0  0
   -5.0637   17.0690  -31.4983 H   0  0  0  0  0  0  0  0  0  0  0  0
  1  2  1  0
  2  3  1  0
  2  4  1  0
  4  5  1  0
  5  6  1  0
  6  7  1  0
  7  8  1  0
  8  9  1  0
  9 10  1  0
 10 11  2  0
 11 12  1  0
 12 13  2  0
 13 14  1  0
 14 15  2  0
 14 16  1  0
 16 17  2  0
 17 18  1  0
 18 19  2  0
 19 20  1  0
 20 21  2  0
 21 22  1  0
 22 23  2  0
 22 24  1  0
 24 25  1  0
 25 26  1  0
 26 27  1  0
 17 28  1  0
 28 29  1  0
 29 30  2  0
  6 31  1  0
 31 32  1  0
 32  2  1  0
 30 10  1  0
 29 13  1  0
 23 18  1  0
 27 21  1  0
  1 33  1  0
  1 34  1  0
  1 35  1  0
  3 36  1  0
  3 37  1  0
  3 38  1  0
  4 39  1  0
  4 40  1  0
  5 41  1  0
  5 42  1  0
  7 43  1  0
  7 44  1  0
  8 45  1  0
  8 46  1  0
 11 47  1  0
 12 48  1  0
 16 49  1  0
 19 50  1  0
 20 51  1  0
 23 52  1  0
 25 53  1  0
 25 54  1  0
 26 55  1  0
 26 56  1  0
 30 57  1  0
 31 58  1  0
 31 59  1  0
 32 60  1  0
 32 61  1  0
M  CHG  1   2   1
M  END
>  <UniqueID>  (23) 
22

>  <SMILES>  (23) 
C[N+]1(C)CCN(CCOc2ccc3c(=O)cc(-c4ccc5c(c4)OCCO5)oc3c2)CC1

>  <Energy>  (23) 
93.75521474363953

>  <Genealogy>  (23) 
C[N+]1(C)CCN(CCOc2ccc3c(=O)cc(-c4ccc5c(c4)OCCO5)oc3c2)CC1 (3D coordinates assigned)
C[N+]1(C)CCN(CCOc2ccc3c(=O)cc(-c4ccc5c(c4)OCCO5)oc3c2)CC1 (nonaromatic ring conformer: 93.75521474363953 kcal/mol)

>  <smiles>  (23) 
C[N+]1(C)CCN(CCOc2ccc3c(=O)cc(-c4ccc5c(c4)OCCO5)oc3c2)CC1

>  <score_type>  (23) 
oracle

>  <origin>  (23) 
adg

>  <m_score__min__energy>  (23) 
-9.6500000000000004

>  <m_primary>  (23) 
energy

$$$$
23:0
     RDKit          3D

 50 53  0  0  0  0  0  0  0  0999 V2000
   -3.9390   24.1330  -28.0450 C   0  0  0  0  0  0  0  0  0  0  0  0
   -4.3880   23.8260  -29.4440 C   0  0  0  0  0  0  0  0  0  0  0  0
   -5.4180   24.5710  -30.0340 C   0  0  0  0  0  0  0  0  0  0  0  0
   -5.8460   24.2730  -31.3290 C   0  0  0  0  0  0  0  0  0  0  0  0
   -5.2500   23.2310  -32.0450 C   0  0  0  0  0  0  0  0  0  0  0  0
   -4.2260   22.4620  -31.4640 C   0  0  0  0  0  0  0  0  0  0  0  0
   -3.5820   21.4120  -32.2130 N   0  0  0  0  0  0  0  0  0  0  0  0
   -2.5010   21.5430  -33.0120 C   0  0  0  0  0  0  0  0  0  0  0  0
   -2.1150   20.3100  -33.4960 C   0  0  0  0  0  0  0  0  0  0  0  0
   -2.9990   19.3900  -32.9630 C   0  0  0  0  0  0  0  0  0  0  0  0
   -2.9460   17.8990  -33.1600 C   0  0  0  0  0  0  0  0  0  0  0  0
   -4.2420   17.3090  -33.5620 N   0  0  0  0  0  0  0  0  0  0  0  0
   -4.9970   18.0890  -34.5710 C   0  0  0  0  0  0  0  0  0  0  0  0
   -6.4760   18.2870  -34.2220 C   0  0  0  0  0  0  0  0  0  0  0  0
   -6.6360   18.5860  -32.7950 N   0  0  0  0  0  0  0  0  0  0  0  0
   -7.5850   19.5840  -32.3550 C   0  0  0  0  0  0  0  0  0  0  0  0
   -8.9350   19.5120  -32.7440 C   0  0  0  0  0  0  0  0  0  0  0  0
   -9.8420   20.4980  -32.3440 C   0  0  0  0  0  0  0  0  0  0  0  0
   -9.4170   21.5620  -31.5490 C   0  0  0  0  0  0  0  0  0  0  0  0
   -8.0840   21.6390  -31.1440 C   0  0  0  0  0  0  0  0  0  0  0  0
   -7.1730   20.6550  -31.5380 C   0  0  0  0  0  0  0  0  0  0  0  0
   -5.9950   17.7070  -31.8090 C   0  0  0  0  0  0  0  0  0  0  0  0
   -5.0350   16.7040  -32.4700 C   0  0  0  0  0  0  0  0  0  0  0  0
   -3.8970   20.0980  -32.1890 C   0  0  0  0  0  0  0  0  0  0  0  0
   -3.8140   22.7590  -30.1500 C   0  0  0  0  0  0  0  0  0  0  0  0
   -4.6272   23.6624  -27.3274 H   0  0  0  0  0  0  0  0  0  0  0  0
   -2.9234   23.7394  -27.8912 H   0  0  0  0  0  0  0  0  0  0  0  0
   -3.9373   25.2222  -27.8912 H   0  0  0  0  0  0  0  0  0  0  0  0
   -5.8903   25.3925  -29.4754 H   0  0  0  0  0  0  0  0  0  0  0  0
   -6.6552   24.8604  -31.7875 H   0  0  0  0  0  0  0  0  0  0  0  0
   -5.5841   23.0110  -33.0697 H   0  0  0  0  0  0  0  0  0  0  0  0
   -2.0007   22.4949  -33.2434 H   0  0  0  0  0  0  0  0  0  0  0  0
   -1.2722   20.1006  -34.1712 H   0  0  0  0  0  0  0  0  0  0  0  0
   -2.2053   17.6776  -33.9425 H   0  0  0  0  0  0  0  0  0  0  0  0
   -2.6756   17.4546  -32.1908 H   0  0  0  0  0  0  0  0  0  0  0  0
   -4.5277   19.0794  -34.6656 H   0  0  0  0  0  0  0  0  0  0  0  0
   -4.9639   17.5152  -35.5089 H   0  0  0  0  0  0  0  0  0  0  0  0
   -6.8779   19.1229  -34.8134 H   0  0  0  0  0  0  0  0  0  0  0  0
   -7.0211   17.3598  -34.4525 H   0  0  0  0  0  0  0  0  0  0  0  0
   -9.2796   18.6738  -33.3675 H   0  0  0  0  0  0  0  0  0  0  0  0
  -10.8945   20.4342  -32.6575 H   0  0  0  0  0  0  0  0  0  0  0  0
  -10.1317   22.3396  -31.2416 H   0  0  0  0  0  0  0  0  0  0  0  0
   -7.7494   22.4759  -30.5133 H   0  0  0  0  0  0  0  0  0  0  0  0
   -6.1257   20.7174  -31.2074 H   0  0  0  0  0  0  0  0  0  0  0  0
   -5.4280   18.3253  -31.0975 H   0  0  0  0  0  0  0  0  0  0  0  0
   -6.7846   17.1360  -31.2986 H   0  0  0  0  0  0  0  0  0  0  0  0
   -4.3446   16.3204  -31.7043 H   0  0  0  0  0  0  0  0  0  0  0  0
   -5.6441   15.8994  -32.9076 H   0  0  0  0  0  0  0  0  0  0  0  0
   -4.7409   19.6590  -31.6366 H   0  0  0  0  0  0  0  0  0  0  0  0
   -3.0339   22.1476  -29.6728 H   0  0  0  0  0  0  0  0  0  0  0  0
  1  2  1  0
  2  3  2  0
  3  4  1  0
  4  5  2  0
  5  6  1  0
  6  7  1  0
  7  8  1  0
  8  9  2  0
  9 10  1  0
 10 11  1  0
 11 12  1  0
 12 13  1  0
 13 14  1  0
 14 15  1  0
 15 16  1  0
 16 17  2  0
 17 18  1  0
 18 19  2  0
 19 20  1  0
 20 21  2  0
 15 22  1  0
 22 23  1  0
 10 24  2  0
  6 25  2  0
 25  2  1  0
 24  7  1  0
 23 12  1  0
 21 16  1  0
  1 26  1  0
  1 27  1  0
  1 28  1  0
  3 29  1  0
  4 30  1  0
  5 31  1  0
  8 32  1  0
  9 33  1  0
 11 34  1  0
 11 35  1  0
 13 36  1  0
 13 37  1  0
 14 38  1  0
 14 39  1  0
 17 40  1  0
 18 41  1  0
 19 42  1  0
 20 43  1  0
 21 44  1  0
 22 45  1  0
 22 46  1  0
 23 47  1  0
 23 48  1  0
 24 49  1  0
 25 50  1  0
M  END
>  <UniqueID>  (24) 
23

>  <SMILES>  (24) 
Cc1cccc(-n2ccc(CN3CCN(c4ccccc4)CC3)c2)c1

>  <Energy>  (24) 
92.3211616116091

>  <Genealogy>  (24) 
Cc1cccc(-n2ccc(CN3CCN(c4ccccc4)CC3)c2)c1 (3D coordinates assigned)
Cc1cccc(-n2ccc(CN3CCN(c4ccccc4)CC3)c2)c1 (nonaromatic ring conformer: 92.3211616116091 kcal/mol)

>  <smiles>  (24) 
Cc1cccc(-n2ccc(CN3CCN(c4ccccc4)CC3)c2)c1

>  <score_type>  (24) 
oracle

>  <origin>  (24) 
adg

>  <m_score__min__energy>  (24) 
-8.2300000000000004

>  <m_primary>  (24) 
energy

$$$$
24:0
     RDKit          3D

 50 51  0  0  0  0  0  0  0  0999 V2000
   -3.0510   24.1620  -28.2040 C   0  0  0  0  0  0  0  0  0  0  0  0
   -2.8800   24.0610  -29.7270 C   0  0  0  0  0  0  0  0  0  0  0  0
   -3.9370   23.2660  -30.3930 N   0  0  0  0  0  0  0  0  0  0  0  0
   -5.3040   23.7560  -30.0920 C   0  0  0  0  0  0  0  0  0  0  0  0
   -5.4370   25.2020  -30.5540 C   0  0  0  0  0  0  0  0  0  0  0  0
   -3.7740   21.8110  -30.1860 C   0  0  0  0  0  0  0  0  0  0  0  0
   -2.4040   21.3400  -30.7080 C   0  0  0  0  0  0  0  0  0  0  0  0
   -2.1570   21.6090  -32.2150 C   0  0  1  0  0  0  0  0  0  0  0  0
   -0.7480   21.1710  -32.6450 C   0  0  0  0  0  0  0  0  0  0  0  0
   -3.2220   20.9870  -33.1520 C   0  0  0  0  0  0  0  0  0  0  0  0
   -4.4950   21.7270  -33.1130 N   0  0  0  0  0  0  0  0  0  0  0  0
   -5.6040   20.8100  -32.9530 C   0  0  0  0  0  0  0  0  0  0  0  0
   -5.4000   19.4450  -33.2370 C   0  0  0  0  0  0  0  0  0  0  0  0
   -6.4310   18.5180  -33.0920 C   0  0  0  0  0  0  0  0  0  0  0  0
   -7.6910   18.9310  -32.6700 C   0  0  0  0  0  0  0  0  0  0  0  0
   -7.9390   20.2840  -32.4020 C   0  0  0  0  0  0  0  0  0  0  0  0
   -9.2200   20.6900  -31.9930 C   0  0  0  0  0  0  0  0  0  0  0  0
   -9.4840   22.0350  -31.7390 C   0  0  0  0  0  0  0  0  0  0  0  0
   -8.4790   22.9880  -31.8960 C   0  0  0  0  0  0  0  0  0  0  0  0
   -7.1990   22.6030  -32.2980 C   0  0  0  0  0  0  0  0  0  0  0  0
   -6.9000   21.2440  -32.5490 C   0  0  0  0  0  0  0  0  0  0  0  0
   -2.2064   23.6631  -27.7063 H   0  0  0  0  0  0  0  0  0  0  0  0
   -3.0778   25.2209  -27.9075 H   0  0  0  0  0  0  0  0  0  0  0  0
   -3.9913   23.6743  -27.9075 H   0  0  0  0  0  0  0  0  0  0  0  0
   -2.8940   25.0779  -30.1463 H   0  0  0  0  0  0  0  0  0  0  0  0
   -1.9260   23.5449  -29.9100 H   0  0  0  0  0  0  0  0  0  0  0  0
   -6.0415   23.1330  -30.6193 H   0  0  0  0  0  0  0  0  0  0  0  0
   -5.4844   23.6986  -29.0084 H   0  0  0  0  0  0  0  0  0  0  0  0
   -5.4978   25.8630  -29.6769 H   0  0  0  0  0  0  0  0  0  0  0  0
   -4.5602   25.4756  -31.1593 H   0  0  0  0  0  0  0  0  0  0  0  0
   -6.3490   25.3111  -31.1593 H   0  0  0  0  0  0  0  0  0  0  0  0
   -3.8476   21.5882  -29.1113 H   0  0  0  0  0  0  0  0  0  0  0  0
   -4.5650   21.2831  -30.7388 H   0  0  0  0  0  0  0  0  0  0  0  0
   -1.6220   21.8593  -30.1346 H   0  0  0  0  0  0  0  0  0  0  0  0
   -2.3817   20.2477  -30.5798 H   0  0  0  0  0  0  0  0  0  0  0  0
   -2.2457   22.6998  -32.3255 H   0  0  0  0  0  0  0  0  0  0  0  0
   -0.1348   20.9804  -31.7519 H   0  0  0  0  0  0  0  0  0  0  0  0
   -0.8170   20.2519  -33.2454 H   0  0  0  0  0  0  0  0  0  0  0  0
   -0.2838   21.9672  -33.2454 H   0  0  0  0  0  0  0  0  0  0  0  0
   -2.8372   20.9974  -34.1824 H   0  0  0  0  0  0  0  0  0  0  0  0
   -3.4167   19.9602  -32.8088 H   0  0  0  0  0  0  0  0  0  0  0  0
   -4.6200   22.3130  -33.9690 H   0  0  0  0  0  0  0  0  0  0  0  0
   -4.4830   22.3890  -32.3040 H   0  0  0  0  0  0  0  0  0  0  0  0
   -4.4111   19.1054  -33.5787 H   0  0  0  0  0  0  0  0  0  0  0  0
   -6.2478   17.4559  -33.3120 H   0  0  0  0  0  0  0  0  0  0  0  0
   -8.4963   18.1919  -32.5462 H   0  0  0  0  0  0  0  0  0  0  0  0
  -10.0186   19.9431  -31.8726 H   0  0  0  0  0  0  0  0  0  0  0  0
  -10.4881   22.3451  -31.4138 H   0  0  0  0  0  0  0  0  0  0  0  0
   -8.6957   24.0489  -31.7021 H   0  0  0  0  0  0  0  0  0  0  0  0
   -6.4149   23.3646  -32.4208 H   0  0  0  0  0  0  0  0  0  0  0  0
  1  2  1  0
  2  3  1  0
  3  4  1  0
  4  5  1  0
  3  6  1  0
  6  7  1  0
  7  8  1  0
  8  9  1  0
  8 10  1  0
 10 11  1  0
 11 12  1  0
 12 13  2  0
 13 14  1  0
 14 15  2  0
 15 16  1  0
 16 17  2  0
 17 18  1  0
 18 19  2  0
 19 20  1  0
 20 21  2  0
 21 12  1  0
 21 16  1  0
  1 22  1  0
  1 23  1  0
  1 24  1  0
  2 25  1  0
  2 26  1  0
  4 27  1  0
  4 28  1  0
  5 29  1  0
  5 30  1  0
  5 31  1  0
  6 32  1  0
  6 33  1  0
  7 34  1  0
  7 35  1  0
  8 36  1  1
  9 37  1  0
  9 38  1  0
  9 39  1  0
 10 40  1  0
 10 41  1  0
 11 42  1  0
 11 43  1  0
 13 44  1  0
 14 45  1  0
 15 46  1  0
 17 47  1  0
 18 48  1  0
 19 49  1  0
 20 50  1  0
M  CHG  1  11   1
M  END
>  <UniqueID>  (25) 
24

>  <SMILES>  (25) 
CCN(CC)CC[C@@H](C)C[NH2+]c1cccc2ccccc12

>  <Energy>  (25) 
52.76528964548926

>  <Genealogy>  (25) 
CCN(CC)CCC(C)C[NH2+]c1cccc2ccccc12 (protonated)
CCN(CC)CC[C@@H](C)C[NH2+]c1cccc2ccccc12 (chirality)
CCN(CC)CC[C@@H](C)C[NH2+]c1cccc2ccccc12 (3D coordinates assigned)
CCN(CC)CC[C@@H](C)C[NH2+]c1cccc2ccccc12 (optimized conformer: 52.76528964548926 kcal/mol)

>  <smiles>  (25) 
CCN(CC)CCC(C)CNc1cccc2ccccc12

>  <score_type>  (25) 
oracle

>  <origin>  (25) 
adg

>  <m_score__min__energy>  (25) 
-7.3099999999999996

>  <m_primary>  (25) 
energy

$$$$
25:0
     RDKit          3D

 32 33  0  0  0  0  0  0  0  0999 V2000
   -3.0941   20.4227  -34.3827 H   0  0  0  0  0  0  0  0  0  0  0  0
   -3.0110   20.7980  -33.3520 C   0  0  0  0  0  0  0  0  0  0  0  0
   -2.4059   20.2504  -32.6144 H   0  0  0  0  0  0  0  0  0  0  0  0
   -3.6450   21.9190  -32.9960 C   0  0  0  0  0  0  0  0  0  0  0  0
   -4.2467   22.4567  -33.7436 H   0  0  0  0  0  0  0  0  0  0  0  0
   -3.5550   22.4620  -31.5980 C   0  0  0  0  0  0  0  0  0  0  0  0
   -3.3302   21.6389  -30.9038 H   0  0  0  0  0  0  0  0  0  0  0  0
   -2.7570   23.2182  -31.5608 H   0  0  0  0  0  0  0  0  0  0  0  0
   -4.8220   23.0900  -31.2080 N   0  0  0  0  0  0  0  0  0  0  0  0
   -5.9250   22.3340  -31.1910 N   0  0  0  0  0  0  0  0  0  0  0  0
   -7.1400   22.8240  -30.8210 C   0  0  0  0  0  0  0  0  0  0  0  0
   -8.3370   21.9570  -30.8130 C   0  0  0  0  0  0  0  0  0  0  0  0
   -8.9496   21.9075  -29.9007 H   0  0  0  0  0  0  0  0  0  0  0  0
   -8.7030   21.2290  -31.8770 C   0  0  0  0  0  0  0  0  0  0  0  0
   -9.6602   21.4648  -32.3651 H   0  0  0  0  0  0  0  0  0  0  0  0
   -7.8850   20.1210  -32.4320 C   0  0  0  0  0  0  0  0  0  0  0  0
   -6.8910   20.3420  -33.4090 C   0  0  0  0  0  0  0  0  0  0  0  0
   -6.6983   21.3626  -33.7714 H   0  0  0  0  0  0  0  0  0  0  0  0
   -6.1500   19.2730  -33.9190 C   0  0  0  0  0  0  0  0  0  0  0  0
   -5.3725   19.4563  -34.6753 H   0  0  0  0  0  0  0  0  0  0  0  0
   -6.3930   17.9730  -33.4720 C   0  0  0  0  0  0  0  0  0  0  0  0
   -5.8038   17.1344  -33.8715 H   0  0  0  0  0  0  0  0  0  0  0  0
   -7.3850   17.7380  -32.5170 C   0  0  0  0  0  0  0  0  0  0  0  0
   -7.5794   16.7128  -32.1689 H   0  0  0  0  0  0  0  0  0  0  0  0
   -8.1320   18.8030  -32.0020 C   0  0  0  0  0  0  0  0  0  0  0  0
   -9.0860   18.5450  -31.0720 F   0  0  0  0  0  0  0  0  0  0  0  0
   -7.2400   24.1650  -30.4400 C   0  0  0  0  0  0  0  0  0  0  0  0
   -8.2102   24.5868  -30.1388 H   0  0  0  0  0  0  0  0  0  0  0  0
   -6.0990   24.9600  -30.4460 C   0  0  0  0  0  0  0  0  0  0  0  0
   -6.1584   26.0174  -30.1486 H   0  0  0  0  0  0  0  0  0  0  0  0
   -4.8790   24.4060  -30.8320 C   0  0  0  0  0  0  0  0  0  0  0  0
   -3.8420   25.1240  -30.8270 O   0  0  0  0  0  0  0  0  0  0  0  0
  1  2  1  0
  2  3  1  0
  2  4  2  0
  4  5  1  0
  4  6  1  0
  6  7  1  0
  6  8  1  0
  6  9  1  0
  9 10  1  0
 10 11  2  0
 11 12  1  0
 12 13  1  0
 12 14  2  0
 14 15  1  0
 14 16  1  0
 16 17  2  0
 17 18  1  0
 17 19  1  0
 19 20  1  0
 19 21  2  0
 21 22  1  0
 21 23  1  0
 23 24  1  0
 23 25  2  0
 25 26  1  0
 11 27  1  0
 27 28  1  0
 27 29  2  0
 29 30  1  0
 29 31  1  0
 31 32  2  0
 31  9  1  0
 25 16  1  0
M  END
>  <UniqueID>  (26) 
25

>  <SMILES>  (26) 
C=CCn1nc(/C=C/c2ccccc2F)ccc1=O

>  <Energy>  (26) 
33.41779150616828

>  <Genealogy>  (26) 
C=CCn1nc(/C=C/c2ccccc2F)ccc1=O (cis-trans isomerization)
C=CCn1nc(/C=C/c2ccccc2F)ccc1=O (3D coordinates assigned)
C=CCn1nc(/C=C/c2ccccc2F)ccc1=O (optimized conformer: 33.41779150616828 kcal/mol)

>  <smiles>  (26) 
C=CCn1nc(C=Cc2ccccc2F)ccc1=O

>  <score_type>  (26) 
oracle

>  <origin>  (26) 
adg

>  <m_score__min__energy>  (26) 
-7.8399999999999999

>  <m_primary>  (26) 
energy

$$$$
26:0
     RDKit          3D

 50 53  0  0  0  0  0  0  0  0999 V2000
   -0.5380   23.9700  -25.2200 C   0  0  0  0  0  0  0  0  0  0  0  0
   -0.8320   25.3760  -25.5510 N   0  0  0  0  0  0  0  0  0  0  0  0
   -0.0850   25.8300  -26.7550 C   0  0  0  0  0  0  0  0  0  0  0  0
   -0.9540   25.9580  -28.0210 C   0  0  0  0  0  0  0  0  0  0  0  0
   -2.0320   24.9670  -28.0040 N   0  0  0  0  0  0  0  0  0  0  0  0
   -2.1100   23.9490  -29.0170 C   0  0  0  0  0  0  0  0  0  0  0  0
   -1.3030   22.8050  -28.9150 C   0  0  0  0  0  0  0  0  0  0  0  0
   -1.3940   21.7840  -29.8600 C   0  0  0  0  0  0  0  0  0  0  0  0
   -2.2870   21.8890  -30.9380 C   0  0  0  0  0  0  0  0  0  0  0  0
   -2.3990   20.7970  -31.9380 C   0  0  0  0  0  0  0  0  0  0  0  0
   -3.6060   20.5850  -32.6310 C   0  0  0  0  0  0  0  0  0  0  0  0
   -3.7100   19.5560  -33.5720 C   0  0  0  0  0  0  0  0  0  0  0  0
   -2.6150   18.7300  -33.8320 C   0  0  0  0  0  0  0  0  0  0  0  0
   -1.4130   18.9300  -33.1510 C   0  0  0  0  0  0  0  0  0  0  0  0
   -1.3020   19.9570  -32.2080 C   0  0  0  0  0  0  0  0  0  0  0  0
   -3.0810   23.0420  -31.0530 C   0  0  0  0  0  0  0  0  0  0  0  0
   -3.0160   24.0620  -30.0890 C   0  0  0  0  0  0  0  0  0  0  0  0
   -3.8090   25.2510  -30.2290 N   0  0  0  0  0  0  0  0  0  0  0  0
   -5.1850   25.3010  -30.6230 C   0  0  0  0  0  0  0  0  0  0  0  0
   -5.7350   26.4230  -30.7730 O   0  0  0  0  0  0  0  0  0  0  0  0
   -5.9920   24.0800  -30.8090 C   0  0  0  0  0  0  0  0  0  0  0  0
   -6.9620   23.5920  -29.9500 C   0  0  0  0  0  0  0  0  0  0  0  0
   -7.4450   22.4430  -30.5410 C   0  0  0  0  0  0  0  0  0  0  0  0
   -6.7450   22.3130  -31.7220 C   0  0  0  0  0  0  0  0  0  0  0  0
   -6.9140   21.2560  -32.6800 C   0  0  0  0  0  0  0  0  0  0  0  0
   -7.0500   20.4040  -33.4500 N   0  0  0  0  0  0  0  0  0  0  0  0
   -5.8910   23.3000  -31.8610 O   0  0  0  0  0  0  0  0  0  0  0  0
   -2.9240   24.9150  -26.8390 C   0  0  0  0  0  0  0  0  0  0  0  0
   -2.2880   25.6260  -25.6340 C   0  0  0  0  0  0  0  0  0  0  0  0
   -0.5125   23.8482  -24.1271 H   0  0  0  0  0  0  0  0  0  0  0  0
   -1.3202   23.3225  -25.6430 H   0  0  0  0  0  0  0  0  0  0  0  0
    0.4381   23.6901  -25.6430 H   0  0  0  0  0  0  0  0  0  0  0  0
    0.3563   26.8139  -26.5375 H   0  0  0  0  0  0  0  0  0  0  0  0
    0.6740   25.0624  -26.9665 H   0  0  0  0  0  0  0  0  0  0  0  0
   -1.3902   26.9671  -28.0604 H   0  0  0  0  0  0  0  0  0  0  0  0
   -0.3234   25.7833  -28.9052 H   0  0  0  0  0  0  0  0  0  0  0  0
   -0.5916   22.7131  -28.0810 H   0  0  0  0  0  0  0  0  0  0  0  0
   -0.7614   20.8896  -29.7601 H   0  0  0  0  0  0  0  0  0  0  0  0
   -4.4723   21.2327  -32.4310 H   0  0  0  0  0  0  0  0  0  0  0  0
   -4.6569   19.3970  -34.1087 H   0  0  0  0  0  0  0  0  0  0  0  0
   -2.6994   17.9217  -34.5733 H   0  0  0  0  0  0  0  0  0  0  0  0
   -0.5510   18.2783  -33.3565 H   0  0  0  0  0  0  0  0  0  0  0  0
   -0.3522   20.1092  -31.6744 H   0  0  0  0  0  0  0  0  0  0  0  0
   -3.7630   23.1478  -31.9095 H   0  0  0  0  0  0  0  0  0  0  0  0
   -7.2817   24.0304  -28.9931 H   0  0  0  0  0  0  0  0  0  0  0  0
   -8.2247   21.7716  -30.1520 H   0  0  0  0  0  0  0  0  0  0  0  0
   -3.8741   25.4096  -27.0896 H   0  0  0  0  0  0  0  0  0  0  0  0
   -3.0993   23.8616  -26.5753 H   0  0  0  0  0  0  0  0  0  0  0  0
   -2.4580   26.7086  -25.7295 H   0  0  0  0  0  0  0  0  0  0  0  0
   -2.7544   25.2304  -24.7197 H   0  0  0  0  0  0  0  0  0  0  0  0
  1  2  1  0
  2  3  1  0
  3  4  1  0
  4  5  1  0
  5  6  1  0
  6  7  2  0
  7  8  1  0
  8  9  2  0
  9 10  1  0
 10 11  2  0
 11 12  1  0
 12 13  2  0
 13 14  1  0
 14 15  2  0
  9 16  1  0
 16 17  2  0
 17 18  1  0
 18 19  1  0
 19 20  2  0
 19 21  1  0
 21 22  2  0
 22 23  1  0
 23 24  2  0
 24 25  1  0
 25 26  3  0
 24 27  1  0
  5 28  1  0
 28 29  1  0
 29  2  1  0
 17  6  1  0
 27 21  1  0
 15 10  1  0
  1 30  1  0
  1 31  1  0
  1 32  1  0
  3 33  1  0
  3 34  1  0
  4 35  1  0
  4 36  1  0
  7 37  1  0
  8 38  1  0
 11 39  1  0
 12 40  1  0
 13 41  1  0
 14 42  1  0
 15 43  1  0
 16 44  1  0
 22 45  1  0
 23 46  1  0
 28 47  1  0
 28 48  1  0
 29 49  1  0
 29 50  1  0
M  CHG  1  18  -1
M  END
>  <UniqueID>  (27) 
26

>  <SMILES>  (27) 
CN1CCN(c2ccc(-c3ccccc3)cc2[N-]C(=O)c2ccc(C#N)o2)CC1

>  <Energy>  (27) 
100.24479478762005

>  <Genealogy>  (27) 
CN1CCN(c2ccc(-c3ccccc3)cc2[N-]C(=O)c2ccc(C#N)o2)CC1 (protonated)
CN1CCN(c2ccc(-c3ccccc3)cc2[N-]C(=O)c2ccc(C#N)o2)CC1 (3D coordinates assigned)
CN1CCN(c2ccc(-c3ccccc3)cc2[N-]C(=O)c2ccc(C#N)o2)CC1 (nonaromatic ring conformer: 100.24479478762005 kcal/mol)

>  <smiles>  (27) 
CN1CCN(c2ccc(-c3ccccc3)cc2NC(=O)c2ccc(C#N)o2)CC1

>  <score_type>  (27) 
oracle

>  <origin>  (27) 
adg

>  <m_score__min__energy>  (27) 
-9.9700000000000006

>  <m_primary>  (27) 
energy

$$$$
27:0
     RDKit          3D

 37 39  0  0  0  0  0  0  0  0999 V2000
   -1.6618   19.5803  -28.0613 H   0  0  0  0  0  0  0  0  0  0  0  0
   -1.8810   20.6430  -28.2420 C   0  0  0  0  0  0  0  0  0  0  0  0
   -1.0000   21.4100  -28.9360 N   0  0  0  0  0  0  0  0  0  0  0  0
   -1.2330   22.7270  -29.1790 C   0  0  0  0  0  0  0  0  0  0  0  0
   -0.4991   23.3185  -29.7460 H   0  0  0  0  0  0  0  0  0  0  0  0
   -2.4080   23.3340  -28.7080 C   0  0  0  0  0  0  0  0  0  0  0  0
   -2.6830   24.7850  -28.9980 C   0  0  0  0  0  0  0  0  0  0  0  0
   -1.7284   25.3118  -29.1441 H   0  0  0  0  0  0  0  0  0  0  0  0
   -3.2308   25.2190  -28.1485 H   0  0  0  0  0  0  0  0  0  0  0  0
   -3.4980   24.9230  -30.2050 N   0  0  0  0  0  0  0  0  0  0  0  0
   -4.0990   23.9440  -30.8170 C   0  0  0  0  0  0  0  0  0  0  0  0
   -3.3680   22.9950  -31.4710 N   0  0  0  0  0  0  0  0  0  0  0  0
   -3.9570   21.9640  -32.1250 C   0  0  0  0  0  0  0  0  0  0  0  0
   -3.1830   21.0090  -32.7920 C   0  0  0  0  0  0  0  0  0  0  0  0
   -2.0859   21.0884  -32.7902 H   0  0  0  0  0  0  0  0  0  0  0  0
   -3.8090   19.9530  -33.4610 C   0  0  0  0  0  0  0  0  0  0  0  0
   -3.1984   19.2026  -33.9845 H   0  0  0  0  0  0  0  0  0  0  0  0
   -5.2060   19.8400  -33.4720 C   0  0  0  0  0  0  0  0  0  0  0  0
   -5.7810   18.7600  -34.1590 O   0  0  0  0  0  0  0  0  0  0  0  0
   -6.5140   17.7100  -33.5370 C   0  0  0  0  0  0  0  0  0  0  0  0
   -6.4434   17.8111  -32.4439 H   0  0  0  0  0  0  0  0  0  0  0  0
   -7.5689   17.7679  -33.8432 H   0  0  0  0  0  0  0  0  0  0  0  0
   -6.0960   16.7397  -33.8432 H   0  0  0  0  0  0  0  0  0  0  0  0
   -5.9820   20.8050  -32.7980 C   0  0  0  0  0  0  0  0  0  0  0  0
   -7.0792   20.7261  -32.7981 H   0  0  0  0  0  0  0  0  0  0  0  0
   -5.3570   21.8630  -32.1290 C   0  0  0  0  0  0  0  0  0  0  0  0
   -6.0910   22.8010  -31.4770 N   0  0  0  0  0  0  0  0  0  0  0  0
   -5.5130   23.8430  -30.8180 C   0  0  0  0  0  0  0  0  0  0  0  0
   -6.3970   24.8260  -30.1350 C   0  0  0  0  0  0  0  0  0  0  0  0
   -7.6130   24.9270  -30.4500 O   0  0  0  0  0  0  0  0  0  0  0  0
   -5.8810   25.6730  -29.1060 N   0  0  0  0  0  0  0  0  0  0  0  0
   -4.8820   25.6280  -28.8090 H   0  0  0  0  0  0  0  0  0  0  0  0
   -6.5090   26.3590  -28.6300 H   0  0  0  0  0  0  0  0  0  0  0  0
   -3.3290   22.5540  -27.9930 C   0  0  0  0  0  0  0  0  0  0  0  0
   -4.2589   23.0063  -27.6178 H   0  0  0  0  0  0  0  0  0  0  0  0
   -3.0650   21.2040  -27.7580 C   0  0  0  0  0  0  0  0  0  0  0  0
   -3.7826   20.5875  -27.1968 H   0  0  0  0  0  0  0  0  0  0  0  0
  1  2  1  0
  2  3  2  0
  3  4  1  0
  4  5  1  0
  4  6  2  0
  6  7  1  0
  7  8  1  0
  7  9  1  0
  7 10  1  0
 10 11  2  0
 11 12  1  0
 12 13  1  0
 13 14  2  0
 14 15  1  0
 14 16  1  0
 16 17  1  0
 16 18  2  0
 18 19  1  0
 19 20  1  0
 20 21  1  0
 20 22  1  0
 20 23  1  0
 18 24  1  0
 24 25  1  0
 24 26  2  0
 26 27  1  0
 27 28  2  0
 28 29  1  0
 29 30  2  0
 29 31  1  0
 31 32  1  0
 31 33  1  0
  6 34  1  0
 34 35  1  0
 34 36  2  0
 36 37  1  0
 36  2  1  0
 28 11  1  0
 26 13  1  0
M  CHG  1  12  -1
M  END
>  <UniqueID>  (28) 
27

>  <SMILES>  (28) 
COc1ccc2[n-]/c(=N\Cc3cccnc3)c(C(N)=O)nc2c1

>  <Energy>  (28) 
43.32952089156092

>  <Genealogy>  (28) 
COc1ccc2[n-]c(=NCc3cccnc3)c(C(N)=O)nc2c1 (protonated)
COc1ccc2[n-]/c(=N\Cc3cccnc3)c(C(N)=O)nc2c1 (cis-trans isomerization)
COc1ccc2[n-]/c(=N\Cc3cccnc3)c(C(N)=O)nc2c1 (3D coordinates assigned)
COc1ccc2[n-]/c(=N\Cc3cccnc3)c(C(N)=O)nc2c1 (optimized conformer: 43.32952089156092 kcal/mol)

>  <smiles>  (28) 
COc1ccc2[nH]c(=NCc3cccnc3)c(C(N)=O)nc2c1

>  <score_type>  (28) 
oracle

>  <origin>  (28) 
adg

>  <m_score__min__energy>  (28) 
-7.7300000000000004

>  <m_primary>  (28) 
energy

$$$$
28:0
     RDKit          3D

 55 58  0  0  0  0  0  0  0  0999 V2000
   -3.0600   21.5180  -31.9950 C   0  0  0  0  0  0  0  0  0  0  0  0
   -2.8960   21.1420  -33.4640 C   0  0  0  0  0  0  0  0  0  0  0  0
   -3.7050   20.0140  -33.7920 O   0  0  0  0  0  0  0  0  0  0  0  0
   -3.3820   18.6670  -33.5430 C   0  0  0  0  0  0  0  0  0  0  0  0
   -2.0600   18.2480  -33.2950 C   0  0  0  0  0  0  0  0  0  0  0  0
   -1.7750   16.9010  -33.0640 C   0  0  0  0  0  0  0  0  0  0  0  0
   -2.8020   15.9500  -33.0670 C   0  0  0  0  0  0  0  0  0  0  0  0
   -2.4880   14.4960  -32.8650 C   0  0  0  0  0  0  0  0  0  0  0  0
   -4.1160   16.3560  -33.3270 C   0  0  0  0  0  0  0  0  0  0  0  0
   -4.4160   17.7100  -33.5420 C   0  0  0  0  0  0  0  0  0  0  0  0
   -6.0890   18.1890  -33.8590 S   0  0  0  0  0  0  0  0  0  0  0  0
   -6.1290   19.2000  -34.9730 O   0  0  0  0  0  0  0  0  0  0  0  0
   -6.8650   16.9690  -34.2660 O   0  0  0  0  0  0  0  0  0  0  0  0
   -6.8000   18.8890  -32.4240 N   0  0  0  0  0  0  0  0  0  0  0  0
   -5.9430   19.9640  -31.8690 C   0  0  0  0  0  0  0  0  0  0  0  0
   -6.4500   21.3730  -32.2250 C   0  0  0  0  0  0  0  0  0  0  0  0
   -7.8510   21.6040  -31.7810 N   0  0  0  0  0  0  0  0  0  0  0  0
   -7.9180   22.3680  -30.5190 C   0  0  0  0  0  0  0  0  0  0  0  0
   -6.6730   23.1930  -30.3360 C   0  0  0  0  0  0  0  0  0  0  0  0
   -6.5430   24.4360  -31.0080 C   0  0  0  0  0  0  0  0  0  0  0  0
   -5.3820   25.2140  -30.8540 C   0  0  0  0  0  0  0  0  0  0  0  0
   -4.3760   24.7230  -30.0260 C   0  0  0  0  0  0  0  0  0  0  0  0
   -4.4930   23.5360  -29.3800 C   0  0  0  0  0  0  0  0  0  0  0  0
   -5.6250   22.7360  -29.5040 C   0  0  0  0  0  0  0  0  0  0  0  0
   -3.3530   23.3040  -28.6350 O   0  0  0  0  0  0  0  0  0  0  0  0
   -2.4650   24.4140  -28.8250 C   0  0  0  0  0  0  0  0  0  0  0  0
   -3.1570   25.2970  -29.7200 O   0  0  0  0  0  0  0  0  0  0  0  0
   -8.6510   20.3610  -31.6840 C   0  0  0  0  0  0  0  0  0  0  0  0
   -8.1860   19.3200  -32.7050 C   0  0  0  0  0  0  0  0  0  0  0  0
   -2.7001   20.6928  -31.3629 H   0  0  0  0  0  0  0  0  0  0  0  0
   -2.4759   22.4253  -31.7813 H   0  0  0  0  0  0  0  0  0  0  0  0
   -4.1223   21.7071  -31.7813 H   0  0  0  0  0  0  0  0  0  0  0  0
   -3.1960   21.9952  -34.0902 H   0  0  0  0  0  0  0  0  0  0  0  0
   -1.8422   20.8848  -33.6463 H   0  0  0  0  0  0  0  0  0  0  0  0
   -1.2461   18.9879  -33.2833 H   0  0  0  0  0  0  0  0  0  0  0  0
   -0.7377   16.5853  -32.8786 H   0  0  0  0  0  0  0  0  0  0  0  0
   -2.4408   14.2773  -31.7880 H   0  0  0  0  0  0  0  0  0  0  0  0
   -3.2745   13.8831  -33.3295 H   0  0  0  0  0  0  0  0  0  0  0  0
   -1.5187   14.2622  -33.3295 H   0  0  0  0  0  0  0  0  0  0  0  0
   -4.9208   15.6070  -33.3631 H   0  0  0  0  0  0  0  0  0  0  0  0
   -5.9197   19.8650  -30.7737 H   0  0  0  0  0  0  0  0  0  0  0  0
   -4.9416   19.8507  -32.3098 H   0  0  0  0  0  0  0  0  0  0  0  0
   -5.7993   22.1151  -31.7394 H   0  0  0  0  0  0  0  0  0  0  0  0
   -6.4266   21.4695  -33.3205 H   0  0  0  0  0  0  0  0  0  0  0  0
   -8.7931   23.0340  -30.5450 H   0  0  0  0  0  0  0  0  0  0  0  0
   -8.0037   21.6621  -29.6798 H   0  0  0  0  0  0  0  0  0  0  0  0
   -7.3575   24.7940  -31.6549 H   0  0  0  0  0  0  0  0  0  0  0  0
   -5.2721   26.1789  -31.3707 H   0  0  0  0  0  0  0  0  0  0  0  0
   -5.7021   21.7770  -28.9708 H   0  0  0  0  0  0  0  0  0  0  0  0
   -2.2631   24.9155  -27.8670 H   0  0  0  0  0  0  0  0  0  0  0  0
   -1.4912   24.0987  -29.2279 H   0  0  0  0  0  0  0  0  0  0  0  0
   -8.5433   19.9435  -30.6720 H   0  0  0  0  0  0  0  0  0  0  0  0
   -9.7025   20.6073  -31.8932 H   0  0  0  0  0  0  0  0  0  0  0  0
   -8.8519   18.4458  -32.6570 H   0  0  0  0  0  0  0  0  0  0  0  0
   -8.2175   19.7719  -33.7074 H   0  0  0  0  0  0  0  0  0  0  0  0
  1  2  1  0
  2  3  1  0
  3  4  1  0
  4  5  2  0
  5  6  1  0
  6  7  2  0
  7  8  1  0
  7  9  1  0
  9 10  2  0
 10 11  1  0
 11 12  2  0
 11 13  2  0
 11 14  1  0
 14 15  1  0
 15 16  1  0
 16 17  1  0
 17 18  1  0
 18 19  1  0
 19 20  2  0
 20 21  1  0
 21 22  2  0
 22 23  1  0
 23 24  2  0
 23 25  1  0
 25 26  1  0
 26 27  1  0
 17 28  1  0
 28 29  1  0
 10  4  1  0
 29 14  1  0
 24 19  1  0
 27 22  1  0
  1 30  1  0
  1 31  1  0
  1 32  1  0
  2 33  1  0
  2 34  1  0
  5 35  1  0
  6 36  1  0
  8 37  1  0
  8 38  1  0
  8 39  1  0
  9 40  1  0
 15 41  1  0
 15 42  1  0
 16 43  1  0
 16 44  1  0
 18 45  1  0
 18 46  1  0
 20 47  1  0
 21 48  1  0
 24 49  1  0
 26 50  1  0
 26 51  1  0
 28 52  1  0
 28 53  1  0
 29 54  1  0
 29 55  1  0
M  END
>  <UniqueID>  (29) 
28

>  <SMILES>  (29) 
CCOc1ccc(C)cc1S(=O)(=O)N1CCN(Cc2ccc3c(c2)OCO3)CC1

>  <Energy>  (29) 
94.04703864522638

>  <Genealogy>  (29) 
CCOc1ccc(C)cc1S(=O)(=O)N1CCN(Cc2ccc3c(c2)OCO3)CC1 (3D coordinates assigned)
CCOc1ccc(C)cc1S(=O)(=O)N1CCN(Cc2ccc3c(c2)OCO3)CC1 (nonaromatic ring conformer: 94.04703864522638 kcal/mol)

>  <smiles>  (29) 
CCOc1ccc(C)cc1S(=O)(=O)N1CCN(Cc2ccc3c(c2)OCO3)CC1

>  <score_type>  (29) 
oracle

>  <origin>  (29) 
adg

>  <m_score__min__energy>  (29) 
-10.06

>  <m_primary>  (29) 
energy

$$$$
29:0
     RDKit          3D

 46 49  0  0  0  0  0  0  0  0999 V2000
   -1.5890   19.8120  -33.0670 C   0  0  0  0  0  0  0  0  0  0  0  0
   -1.3390   20.2380  -31.6740 N   0  0  0  0  0  0  0  0  0  0  0  0
    0.1230   20.2530  -31.4640 C   0  0  0  0  0  0  0  0  0  0  0  0
   -1.9740   21.5650  -31.4100 C   0  0  1  0  0  0  0  0  0  0  0  0
   -3.4780   21.4820  -31.3190 C   0  0  0  0  0  0  0  0  0  0  0  0
   -4.0850   20.3810  -31.4270 O   0  0  0  0  0  0  0  0  0  0  0  0
   -4.2040   22.6940  -31.0750 N   0  0  0  0  0  0  0  0  0  0  0  0
   -5.6130   22.7830  -31.3410 C   0  0  0  0  0  0  0  0  0  0  0  0
   -6.5260   22.0220  -30.5930 C   0  0  0  0  0  0  0  0  0  0  0  0
   -7.8970   22.1140  -30.8540 C   0  0  0  0  0  0  0  0  0  0  0  0
   -8.3630   22.9650  -31.8600 C   0  0  0  0  0  0  0  0  0  0  0  0
   -7.4590   23.7260  -32.6070 C   0  0  0  0  0  0  0  0  0  0  0  0
   -6.0880   23.6370  -32.3490 C   0  0  0  0  0  0  0  0  0  0  0  0
   -3.4880   23.8030  -30.5010 C   0  0  0  0  0  0  0  0  0  0  0  0
   -4.0280   24.9420  -30.4400 O   0  0  0  0  0  0  0  0  0  0  0  0
   -2.1710   23.5980  -29.9440 N   0  0  0  0  0  0  0  0  0  0  0  0
   -1.7220   24.4940  -28.8560 C   0  0  0  0  0  0  0  0  0  0  0  0
   -0.7810   23.7840  -27.8550 C   0  0  0  0  0  0  0  0  0  0  0  0
   -1.1870   22.3400  -27.6650 C   0  0  0  0  0  0  0  0  0  0  0  0
   -1.2000   21.7540  -26.3900 C   0  0  0  0  0  0  0  0  0  0  0  0
   -1.5990   20.4240  -26.2370 C   0  0  0  0  0  0  0  0  0  0  0  0
   -1.9870   19.6750  -27.3500 C   0  0  0  0  0  0  0  0  0  0  0  0
   -1.9650   20.2460  -28.6270 C   0  0  0  0  0  0  0  0  0  0  0  0
   -1.5430   21.5780  -28.7980 C   0  0  0  0  0  0  0  0  0  0  0  0
   -1.4730   22.3080  -30.1300 C   0  0  1  0  0  0  0  0  0  0  0  0
   -2.1457   18.8633  -33.0660 H   0  0  0  0  0  0  0  0  0  0  0  0
   -2.1783   20.5824  -33.5859 H   0  0  0  0  0  0  0  0  0  0  0  0
   -0.6290   19.6732  -33.5859 H   0  0  0  0  0  0  0  0  0  0  0  0
    0.3385   20.2552  -30.3853 H   0  0  0  0  0  0  0  0  0  0  0  0
    0.5689   19.3594  -31.9251 H   0  0  0  0  0  0  0  0  0  0  0  0
    0.5504   21.1556  -31.9251 H   0  0  0  0  0  0  0  0  0  0  0  0
   -1.6603   22.1488  -32.2879 H   0  0  0  0  0  0  0  0  0  0  0  0
   -6.1621   21.3521  -29.8001 H   0  0  0  0  0  0  0  0  0  0  0  0
   -8.6093   21.5159  -30.2668 H   0  0  0  0  0  0  0  0  0  0  0  0
   -9.4416   23.0360  -32.0641 H   0  0  0  0  0  0  0  0  0  0  0  0
   -7.8269   24.3954  -33.3985 H   0  0  0  0  0  0  0  0  0  0  0  0
   -5.3792   24.2379  -32.9376 H   0  0  0  0  0  0  0  0  0  0  0  0
   -1.1869   25.3467  -29.2993 H   0  0  0  0  0  0  0  0  0  0  0  0
   -2.6144   24.8206  -28.3020 H   0  0  0  0  0  0  0  0  0  0  0  0
    0.2487   23.8210  -28.2401 H   0  0  0  0  0  0  0  0  0  0  0  0
   -0.8468   24.2984  -26.8849 H   0  0  0  0  0  0  0  0  0  0  0  0
   -0.8961   22.3418  -25.5113 H   0  0  0  0  0  0  0  0  0  0  0  0
   -1.6076   19.9655  -25.2372 H   0  0  0  0  0  0  0  0  0  0  0  0
   -2.3113   18.6317  -27.2221 H   0  0  0  0  0  0  0  0  0  0  0  0
   -2.2780   19.6530  -29.4990 H   0  0  0  0  0  0  0  0  0  0  0  0
   -0.4032   22.4140  -30.3629 H   0  0  0  0  0  0  0  0  0  0  0  0
  1  2  1  0
  2  3  1  0
  2  4  1  0
  4  5  1  0
  5  6  2  0
  5  7  1  0
  7  8  1  0
  8  9  2  0
  9 10  1  0
 10 11  2  0
 11 12  1  0
 12 13  2  0
  7 14  1  0
 14 15  2  0
 14 16  1  0
 16 17  1  0
 17 18  1  0
 18 19  1  0
 19 20  2  0
 20 21  1  0
 21 22  2  0
 22 23  1  0
 23 24  2  0
 24 25  1  0
 25  4  1  0
 13  8  1  0
 25 16  1  0
 24 19  1  0
  1 26  1  0
  1 27  1  0
  1 28  1  0
  3 29  1  0
  3 30  1  0
  3 31  1  0
  4 32  1  6
  9 33  1  0
 10 34  1  0
 11 35  1  0
 12 36  1  0
 13 37  1  0
 17 38  1  0
 17 39  1  0
 18 40  1  0
 18 41  1  0
 20 42  1  0
 21 43  1  0
 22 44  1  0
 23 45  1  0
 25 46  1  6
M  END
>  <UniqueID>  (30) 
29

>  <SMILES>  (30) 
CN(C)[C@H]1C(=O)N(c2ccccc2)C(=O)N2CCc3ccccc3[C@@H]12

>  <Energy>  (30) 
78.16371608855438

>  <Genealogy>  (30) 
CN(C)[C@H]1C(=O)N(c2ccccc2)C(=O)N2CCc3ccccc3[C@@H]12 (chirality)
CN(C)[C@H]1C(=O)N(c2ccccc2)C(=O)N2CCc3ccccc3[C@@H]12 (3D coordinates assigned)
CN(C)[C@H]1C(=O)N(c2ccccc2)C(=O)N2CCc3ccccc3[C@@H]12 (nonaromatic ring conformer: 78.16371608855438 kcal/mol)

>  <smiles>  (30) 
CN(C)C1C(=O)N(c2ccccc2)C(=O)N2CCc3ccccc3C12

>  <score_type>  (30) 
oracle

>  <origin>  (30) 
adg

>  <m_score__min__energy>  (30) 
-7.5499999999999998

>  <m_primary>  (30) 
energy

$$$$
30:0
     RDKit          3D

 51 54  0  0  0  0  0  0  0  0999 V2000
   -1.0020   14.8950  -34.8810 C   0  0  0  0  0  0  0  0  0  0  0  0
   -2.2690   14.3690  -34.5030 O   0  0  0  0  0  0  0  0  0  0  0  0
   -3.3530   15.1480  -34.0710 C   0  0  0  0  0  0  0  0  0  0  0  0
   -3.9330   16.0410  -34.9780 C   0  0  0  0  0  0  0  0  0  0  0  0
   -5.0150   16.8400  -34.5970 C   0  0  0  0  0  0  0  0  0  0  0  0
   -5.5280   16.7670  -33.2900 C   0  0  0  0  0  0  0  0  0  0  0  0
   -6.6830   17.5980  -32.8750 C   0  0  0  0  0  0  0  0  0  0  0  0
   -7.8020   17.0450  -32.6990 O   0  0  0  0  0  0  0  0  0  0  0  0
   -6.5550   19.0520  -32.6350 C   0  0  0  0  0  0  0  0  0  0  0  0
   -7.5490   19.9070  -32.1630 C   0  0  0  0  0  0  0  0  0  0  0  0
   -7.0900   21.1790  -32.1080 N   0  0  0  0  0  0  0  0  0  0  0  0
   -7.8330   22.3330  -31.6010 C   0  0  0  0  0  0  0  0  0  0  0  0
   -7.2440   22.7940  -30.2630 C   0  0  0  0  0  0  0  0  0  0  0  0
   -6.0630   23.6620  -30.4690 N   0  0  0  0  0  0  0  0  0  0  0  0
   -5.1160   23.5060  -29.3500 C   0  0  0  0  0  0  0  0  0  0  0  0
   -3.8580   24.3700  -29.5900 C   0  0  0  0  0  0  0  0  0  0  0  0
   -4.0330   25.3030  -30.6420 O   0  0  0  0  0  0  0  0  0  0  0  0
   -5.2360   26.0180  -30.4510 C   0  0  0  0  0  0  0  0  0  0  0  0
   -6.4520   25.0840  -30.6110 C   0  0  0  0  0  0  0  0  0  0  0  0
   -5.8090   21.1410  -32.5310 C   0  0  0  0  0  0  0  0  0  0  0  0
   -4.9010   22.2010  -32.6240 C   0  0  0  0  0  0  0  0  0  0  0  0
   -3.6040   21.9200  -33.0840 C   0  0  0  0  0  0  0  0  0  0  0  0
   -3.2380   20.6020  -33.4340 C   0  0  0  0  0  0  0  0  0  0  0  0
   -4.1660   19.5530  -33.3260 C   0  0  0  0  0  0  0  0  0  0  0  0
   -5.4530   19.8580  -32.8730 C   0  0  0  0  0  0  0  0  0  0  0  0
   -4.9560   15.8590  -32.3840 C   0  0  0  0  0  0  0  0  0  0  0  0
   -3.8740   15.0600  -32.7670 C   0  0  0  0  0  0  0  0  0  0  0  0
   -0.4211   15.1362  -33.9786 H   0  0  0  0  0  0  0  0  0  0  0  0
   -0.4584   14.1482  -35.4783 H   0  0  0  0  0  0  0  0  0  0  0  0
   -1.1471   15.8072  -35.4783 H   0  0  0  0  0  0  0  0  0  0  0  0
   -3.5341   16.1152  -36.0004 H   0  0  0  0  0  0  0  0  0  0  0  0
   -5.4678   17.5300  -35.3242 H   0  0  0  0  0  0  0  0  0  0  0  0
   -8.5632   19.5926  -31.8758 H   0  0  0  0  0  0  0  0  0  0  0  0
   -7.7689   23.1551  -32.3290 H   0  0  0  0  0  0  0  0  0  0  0  0
   -8.8843   22.0460  -31.4511 H   0  0  0  0  0  0  0  0  0  0  0  0
   -8.0099   23.3559  -29.7083 H   0  0  0  0  0  0  0  0  0  0  0  0
   -6.9287   21.9054  -29.6965 H   0  0  0  0  0  0  0  0  0  0  0  0
   -5.6021   23.8239  -28.4158 H   0  0  0  0  0  0  0  0  0  0  0  0
   -4.8171   22.4498  -29.2779 H   0  0  0  0  0  0  0  0  0  0  0  0
   -3.6261   24.9198  -28.6659 H   0  0  0  0  0  0  0  0  0  0  0  0
   -3.0381   23.6945  -29.8754 H   0  0  0  0  0  0  0  0  0  0  0  0
   -5.2429   26.4509  -29.4398 H   0  0  0  0  0  0  0  0  0  0  0  0
   -5.2989   26.8155  -31.2060 H   0  0  0  0  0  0  0  0  0  0  0  0
   -7.1965   25.3302  -29.8395 H   0  0  0  0  0  0  0  0  0  0  0  0
   -6.8706   25.2297  -31.6177 H   0  0  0  0  0  0  0  0  0  0  0  0
   -5.1940   23.2240  -32.3452 H   0  0  0  0  0  0  0  0  0  0  0  0
   -2.8680   22.7327  -33.1722 H   0  0  0  0  0  0  0  0  0  0  0  0
   -2.2192   20.3952  -33.7937 H   0  0  0  0  0  0  0  0  0  0  0  0
   -3.8883   18.5219  -33.5901 H   0  0  0  0  0  0  0  0  0  0  0  0
   -5.3622   15.7756  -31.3652 H   0  0  0  0  0  0  0  0  0  0  0  0
   -3.4282   14.3595  -32.0455 H   0  0  0  0  0  0  0  0  0  0  0  0
  1  2  1  0
  2  3  1  0
  3  4  2  0
  4  5  1  0
  5  6  2  0
  6  7  1  0
  7  8  2  0
  7  9  1  0
  9 10  2  0
 10 11  1  0
 11 12  1  0
 12 13  1  0
 13 14  1  0
 14 15  1  0
 15 16  1  0
 16 17  1  0
 17 18  1  0
 18 19  1  0
 11 20  1  0
 20 21  2  0
 21 22  1  0
 22 23  2  0
 23 24  1  0
 24 25  2  0
  6 26  1  0
 26 27  2  0
 27  3  1  0
 25  9  1  0
 19 14  1  0
 25 20  1  0
  1 28  1  0
  1 29  1  0
  1 30  1  0
  4 31  1  0
  5 32  1  0
 10 33  1  0
 12 34  1  0
 12 35  1  0
 13 36  1  0
 13 37  1  0
 15 38  1  0
 15 39  1  0
 16 40  1  0
 16 41  1  0
 18 42  1  0
 18 43  1  0
 19 44  1  0
 19 45  1  0
 21 46  1  0
 22 47  1  0
 23 48  1  0
 24 49  1  0
 26 50  1  0
 27 51  1  0
M  END
>  <UniqueID>  (31) 
30

>  <SMILES>  (31) 
COc1ccc(C(=O)c2cn(CCN3CCOCC3)c3ccccc23)cc1

>  <Energy>  (31) 
99.60736435798884

>  <Genealogy>  (31) 
COc1ccc(C(=O)c2cn(CCN3CCOCC3)c3ccccc23)cc1 (3D coordinates assigned)
COc1ccc(C(=O)c2cn(CCN3CCOCC3)c3ccccc23)cc1 (nonaromatic ring conformer: 99.60736435798884 kcal/mol)

>  <smiles>  (31) 
COc1ccc(C(=O)c2cn(CCN3CCOCC3)c3ccccc23)cc1

>  <score_type>  (31) 
oracle

>  <origin>  (31) 
adg

>  <m_score__min__energy>  (31) 
-8.8399999999999999

>  <m_primary>  (31) 
energy

$$$$
31:0
     RDKit          3D

 30 31  0  0  0  0  0  0  0  0999 V2000
   -2.8260   24.9290  -26.7470 C   0  0  0  0  0  0  0  0  0  0  0  0
   -3.5760   24.5520  -27.9550 N   0  0  0  0  0  0  0  0  0  0  0  0
   -3.8720   23.1110  -27.9610 C   0  0  0  0  0  0  0  0  0  0  0  0
   -2.8340   24.9160  -29.1370 C   0  0  0  0  0  0  0  0  0  0  0  0
   -1.6300   25.2870  -29.0420 O   0  0  0  0  0  0  0  0  0  0  0  0
   -3.4930   24.9210  -30.4120 N   0  0  0  0  0  0  0  0  0  0  0  0
   -4.7180   24.2490  -30.7390 C   0  0  0  0  0  0  0  0  0  0  0  0
   -5.9250   24.8060  -30.3000 C   0  0  0  0  0  0  0  0  0  0  0  0
   -7.1430   24.1790  -30.5790 C   0  0  0  0  0  0  0  0  0  0  0  0
   -7.1670   22.9710  -31.2900 C   0  0  0  0  0  0  0  0  0  0  0  0
   -8.3840   22.3320  -31.5730 C   0  0  0  0  0  0  0  0  0  0  0  0
   -8.3930   21.1220  -32.2740 C   0  0  0  0  0  0  0  0  0  0  0  0
   -7.1930   20.5430  -32.6920 C   0  0  0  0  0  0  0  0  0  0  0  0
   -5.9750   21.1680  -32.4150 C   0  0  0  0  0  0  0  0  0  0  0  0
   -5.9500   22.3860  -31.7170 C   0  0  0  0  0  0  0  0  0  0  0  0
   -4.7330   23.0250  -31.4320 C   0  0  0  0  0  0  0  0  0  0  0  0
   -3.4000   24.6405  -25.8541 H   0  0  0  0  0  0  0  0  0  0  0  0
   -1.8552   24.4118  -26.7418 H   0  0  0  0  0  0  0  0  0  0  0  0
   -2.6620   26.0167  -26.7418 H   0  0  0  0  0  0  0  0  0  0  0  0
   -4.4860   25.0700  -27.9510 H   0  0  0  0  0  0  0  0  0  0  0  0
   -3.9466   22.7477  -26.9254 H   0  0  0  0  0  0  0  0  0  0  0  0
   -4.8251   22.9346  -28.4810 H   0  0  0  0  0  0  0  0  0  0  0  0
   -3.0656   22.5732  -28.4810 H   0  0  0  0  0  0  0  0  0  0  0  0
   -5.9150   25.7466  -29.7297 H   0  0  0  0  0  0  0  0  0  0  0  0
   -8.0849   24.6347  -30.2398 H   0  0  0  0  0  0  0  0  0  0  0  0
   -9.3314   22.7832  -31.2432 H   0  0  0  0  0  0  0  0  0  0  0  0
   -9.3485   20.6247  -32.4969 H   0  0  0  0  0  0  0  0  0  0  0  0
   -7.2070   19.5904  -33.2419 H   0  0  0  0  0  0  0  0  0  0  0  0
   -5.0332   20.7049  -32.7445 H   0  0  0  0  0  0  0  0  0  0  0  0
   -3.7860   22.5661  -31.7523 H   0  0  0  0  0  0  0  0  0  0  0  0
  1  2  1  0
  2  3  1  0
  2  4  1  0
  4  5  2  0
  4  6  1  0
  6  7  1  0
  7  8  2  0
  8  9  1  0
  9 10  2  0
 10 11  1  0
 11 12  2  0
 12 13  1  0
 13 14  2  0
 14 15  1  0
 15 16  2  0
 16  7  1  0
 15 10  1  0
  1 17  1  0
  1 18  1  0
  1 19  1  0
  2 20  1  0
  3 21  1  0
  3 22  1  0
  3 23  1  0
  8 24  1  0
  9 25  1  0
 11 26  1  0
 12 27  1  0
 13 28  1  0
 14 29  1  0
 16 30  1  0
M  CHG  2   2   1   6  -1
M  END
>  <UniqueID>  (32) 
31

>  <SMILES>  (32) 
C[NH+](C)C(=O)[N-]c1ccc2ccccc2c1

>  <Energy>  (32) 
36.91620119117237

>  <Genealogy>  (32) 
C[NH+](C)C(=O)[N-]c1ccc2ccccc2c1 (protonated)
C[NH+](C)C(=O)[N-]c1ccc2ccccc2c1 (3D coordinates assigned)
C[NH+](C)C(=O)[N-]c1ccc2ccccc2c1 (optimized conformer: 36.91620119117237 kcal/mol)

>  <smiles>  (32) 
CN(C)C(=O)Nc1ccc2ccccc2c1

>  <score_type>  (32) 
oracle

>  <origin>  (32) 
adg

>  <m_score__min__energy>  (32) 
-7.6399999999999997

>  <m_primary>  (32) 
energy

$$$$
32:0
     RDKit          3D

 66 69  0  0  0  0  0  0  0  0999 V2000
   -4.2190   22.0660  -28.6780 O   0  0  0  0  0  0  0  0  0  0  0  0
   -3.2840   22.4020  -29.4570 C   0  0  0  0  0  0  0  0  0  0  0  0
   -3.2720   21.8430  -30.8270 C   0  0  0  0  0  0  0  0  0  0  0  0
   -2.4170   20.7590  -31.1630 C   0  0  0  0  0  0  0  0  0  0  0  0
   -1.4490   20.2260  -30.2250 N   0  0  0  0  0  0  0  0  0  0  0  0
   -0.2310   19.7590  -30.9260 C   0  0  0  0  0  0  0  0  0  0  0  0
    0.9690   19.6430  -29.9710 C   0  0  0  0  0  0  0  0  0  0  0  0
    0.5980   18.8800  -28.6890 C   0  0  0  0  0  0  0  0  0  0  0  0
   -0.5750   19.4830  -28.0220 N   0  0  0  0  0  0  0  0  0  0  0  0
   -1.2390   18.5310  -27.1110 C   0  0  0  0  0  0  0  0  0  0  0  0
   -2.4730   19.1970  -26.4610 C   0  0  0  0  0  0  0  0  0  0  0  0
   -2.5270   20.5900  -26.7140 O   0  0  0  0  0  0  0  0  0  0  0  0
   -1.2970   21.1860  -26.3500 C   0  0  0  0  0  0  0  0  0  0  0  0
   -0.1600   20.6840  -27.2640 C   0  0  0  0  0  0  0  0  0  0  0  0
   -2.4280   20.2590  -32.4780 C   0  0  0  0  0  0  0  0  0  0  0  0
   -3.2690   20.8070  -33.4430 C   0  0  0  0  0  0  0  0  0  0  0  0
   -4.1180   21.8580  -33.1110 C   0  0  0  0  0  0  0  0  0  0  0  0
   -4.1390   22.3730  -31.8110 C   0  0  0  0  0  0  0  0  0  0  0  0
   -5.3210   23.6860  -31.4430 S   0  0  0  0  0  0  0  0  0  0  0  0
   -6.7400   22.6070  -31.6360 C   0  0  0  0  0  0  0  0  0  0  0  0
   -8.0250   23.1490  -31.7550 C   0  0  0  0  0  0  0  0  0  0  0  0
   -9.1270   22.3100  -31.9230 C   0  0  0  0  0  0  0  0  0  0  0  0
   -8.9500   20.9220  -31.9640 C   0  0  0  0  0  0  0  0  0  0  0  0
   -7.6670   20.3610  -31.8330 C   0  0  0  0  0  0  0  0  0  0  0  0
   -7.5020   18.8620  -31.8780 C   0  0  0  0  0  0  0  0  0  0  0  0
   -6.3480   18.5080  -31.2010 F   0  0  0  0  0  0  0  0  0  0  0  0
   -8.5870   18.2600  -31.2690 F   0  0  0  0  0  0  0  0  0  0  0  0
   -7.4180   18.3950  -33.1810 F   0  0  0  0  0  0  0  0  0  0  0  0
   -6.5620   21.2170  -31.6550 C   0  0  0  0  0  0  0  0  0  0  0  0
   -2.2640   23.3150  -29.0010 N   0  0  0  0  0  0  0  0  0  0  0  0
   -0.9870   23.4610  -29.7050 C   0  0  0  0  0  0  0  0  0  0  0  0
    0.1280   23.7480  -28.6850 C   0  0  0  0  0  0  0  0  0  0  0  0
   -0.1070   24.8540  -27.8180 O   0  0  0  0  0  0  0  0  0  0  0  0
   -1.4720   25.2400  -27.7020 C   0  0  0  0  0  0  0  0  0  0  0  0
   -2.4590   24.0640  -27.7580 C   0  0  0  0  0  0  0  0  0  0  0  0
   -1.8910   19.4550  -29.6730 H   0  0  0  0  0  0  0  0  0  0  0  0
   -1.1840   20.9450  -29.5160 H   0  0  0  0  0  0  0  0  0  0  0  0
   -0.4310   18.7717  -31.3679 H   0  0  0  0  0  0  0  0  0  0  0  0
    0.0203   20.4964  -31.7026 H   0  0  0  0  0  0  0  0  0  0  0  0
    1.7824   19.1077  -30.4827 H   0  0  0  0  0  0  0  0  0  0  0  0
    1.2846   20.6583  -29.6889 H   0  0  0  0  0  0  0  0  0  0  0  0
    0.3650   17.8367  -28.9484 H   0  0  0  0  0  0  0  0  0  0  0  0
    1.4522   18.9293  -27.9977 H   0  0  0  0  0  0  0  0  0  0  0  0
   -1.5597   17.6456  -27.6795 H   0  0  0  0  0  0  0  0  0  0  0  0
   -0.5324   18.2315  -26.3229 H   0  0  0  0  0  0  0  0  0  0  0  0
   -3.3823   18.7283  -26.8655 H   0  0  0  0  0  0  0  0  0  0  0  0
   -2.3984   19.0549  -25.3728 H   0  0  0  0  0  0  0  0  0  0  0  0
   -1.3822   22.2785  -26.4455 H   0  0  0  0  0  0  0  0  0  0  0  0
   -1.0638   20.9125  -25.3104 H   0  0  0  0  0  0  0  0  0  0  0  0
    0.1090   21.4808  -27.9730 H   0  0  0  0  0  0  0  0  0  0  0  0
    0.7021   20.4185  -26.6345 H   0  0  0  0  0  0  0  0  0  0  0  0
   -1.7638   19.4245  -32.7472 H   0  0  0  0  0  0  0  0  0  0  0  0
   -3.2621   20.4087  -34.4684 H   0  0  0  0  0  0  0  0  0  0  0  0
   -4.7788   22.2878  -33.8781 H   0  0  0  0  0  0  0  0  0  0  0  0
   -8.1664   24.2392  -31.7160 H   0  0  0  0  0  0  0  0  0  0  0  0
  -10.1349   22.7392  -32.0232 H   0  0  0  0  0  0  0  0  0  0  0  0
   -9.8215   20.2647  -32.0998 H   0  0  0  0  0  0  0  0  0  0  0  0
   -5.5550   20.7923  -31.5304 H   0  0  0  0  0  0  0  0  0  0  0  0
   -0.7583   22.5316  -30.2471 H   0  0  0  0  0  0  0  0  0  0  0  0
   -1.0545   24.2941  -30.4201 H   0  0  0  0  0  0  0  0  0  0  0  0
    0.2578   22.8504  -28.0625 H   0  0  0  0  0  0  0  0  0  0  0  0
    1.0188   24.0093  -29.2751 H   0  0  0  0  0  0  0  0  0  0  0  0
   -1.6048   25.7580  -26.7407 H   0  0  0  0  0  0  0  0  0  0  0  0
   -1.6954   25.8854  -28.5643 H   0  0  0  0  0  0  0  0  0  0  0  0
   -2.2847   23.3991  -26.8992 H   0  0  0  0  0  0  0  0  0  0  0  0
   -3.4884   24.4503  -27.7230 H   0  0  0  0  0  0  0  0  0  0  0  0
  1  2  2  0
  2  3  1  0
  3  4  1  0
  4  5  1  0
  5  6  1  0
  6  7  1  0
  7  8  1  0
  8  9  1  0
  9 10  1  0
 10 11  1  0
 11 12  1  0
 12 13  1  0
 13 14  1  0
  4 15  2  0
 15 16  1  0
 16 17  2  0
 17 18  1  0
 18 19  1  0
 19 20  1  0
 20 21  2  0
 21 22  1  0
 22 23  2  0
 23 24  1  0
 24 25  1  0
 25 26  1  0
 25 27  1  0
 25 28  1  0
 24 29  2  0
  2 30  1  0
 30 31  1  0
 31 32  1  0
 32 33  1  0
 33 34  1  0
 34 35  1  0
 18  3  2  0
 29 20  1  0
 35 30  1  0
 14  9  1  0
  5 36  1  0
  5 37  1  0
  6 38  1  0
  6 39  1  0
  7 40  1  0
  7 41  1  0
  8 42  1  0
  8 43  1  0
 10 44  1  0
 10 45  1  0
 11 46  1  0
 11 47  1  0
 13 48  1  0
 13 49  1  0
 14 50  1  0
 14 51  1  0
 15 52  1  0
 16 53  1  0
 17 54  1  0
 21 55  1  0
 22 56  1  0
 23 57  1  0
 29 58  1  0
 31 59  1  0
 31 60  1  0
 32 61  1  0
 32 62  1  0
 34 63  1  0
 34 64  1  0
 35 65  1  0
 35 66  1  0
M  CHG  1   5   1
M  END
>  <UniqueID>  (33) 
32

>  <SMILES>  (33) 
O=C(c1c([NH2+]CCCN2CCOCC2)cccc1Sc1cccc(C(F)(F)F)c1)N1CCOCC1

>  <Energy>  (33) 
90.56514857194296

>  <Genealogy>  (33) 
O=C(c1c([NH2+]CCCN2CCOCC2)cccc1Sc1cccc(C(F)(F)F)c1)N1CCOCC1 (protonated)
O=C(c1c([NH2+]CCCN2CCOCC2)cccc1Sc1cccc(C(F)(F)F)c1)N1CCOCC1 (3D coordinates assigned)
O=C(c1c([NH2+]CCCN2CCOCC2)cccc1Sc1cccc(C(F)(F)F)c1)N1CCOCC1 (nonaromatic ring conformer: 90.56514857194296 kcal/mol)

>  <smiles>  (33) 
O=C(c1c(NCCCN2CCOCC2)cccc1Sc1cccc(C(F)(F)F)c1)N1CCOCC1

>  <score_type>  (33) 
oracle

>  <origin>  (33) 
adg

>  <m_score__min__energy>  (33) 
-7.7800000000000002

>  <m_primary>  (33) 
energy

$$$$
33:0
     RDKit          3D

 57 60  0  0  0  0  0  0  0  0999 V2000
   -1.2550   18.4870  -32.4710 C   0  0  0  0  0  0  0  0  0  0  0  0
   -0.9010   19.1870  -33.7840 C   0  0  0  0  0  0  0  0  0  0  0  0
   -1.4350   20.5720  -33.8090 N   0  0  0  0  0  0  0  0  0  0  0  0
   -0.4870   21.4580  -34.5330 C   0  0  0  0  0  0  0  0  0  0  0  0
    0.0870   20.7950  -35.7830 C   0  0  0  0  0  0  0  0  0  0  0  0
   -1.7140   21.0690  -32.4330 C   0  0  0  0  0  0  0  0  0  0  0  0
   -2.9060   22.0470  -32.4250 C   0  0  0  0  0  0  0  0  0  0  0  0
   -3.8600   21.8180  -33.5270 N   0  0  0  0  0  0  0  0  0  0  0  0
   -4.9860   20.9930  -33.1160 C   0  0  0  0  0  0  0  0  0  0  0  0
   -6.0880   21.4750  -32.3390 C   0  0  0  0  0  0  0  0  0  0  0  0
   -6.0870   22.7560  -31.7380 C   0  0  0  0  0  0  0  0  0  0  0  0
   -7.1670   23.1970  -30.9740 C   0  0  0  0  0  0  0  0  0  0  0  0
   -8.2590   22.3700  -30.7610 C   0  0  0  0  0  0  0  0  0  0  0  0
   -8.2900   21.0930  -31.3140 C   0  0  0  0  0  0  0  0  0  0  0  0
   -7.2280   20.6170  -32.1220 C   0  0  0  0  0  0  0  0  0  0  0  0
   -7.2650   19.3430  -32.6680 N   0  0  0  0  0  0  0  0  0  0  0  0
   -8.5100   18.5560  -32.7140 C   0  0  0  0  0  0  0  0  0  0  0  0
   -6.1160   18.8470  -33.2190 C   0  0  0  0  0  0  0  0  0  0  0  0
   -5.0180   19.6380  -33.4730 C   0  0  0  0  0  0  0  0  0  0  0  0
   -4.0290   18.9270  -34.0620 N   0  0  0  0  0  0  0  0  0  0  0  0
   -4.5010   17.6700  -34.1580 C   0  0  0  0  0  0  0  0  0  0  0  0
   -3.8090   16.5630  -34.6460 C   0  0  0  0  0  0  0  0  0  0  0  0
   -4.4410   15.3050  -34.6000 C   0  0  0  0  0  0  0  0  0  0  0  0
   -3.7190   14.0810  -35.0740 C   0  0  0  0  0  0  0  0  0  0  0  0
   -5.7260   15.1850  -34.0180 C   0  0  0  0  0  0  0  0  0  0  0  0
   -6.4000   16.3150  -33.5240 C   0  0  0  0  0  0  0  0  0  0  0  0
   -5.7770   17.5620  -33.6410 C   0  0  0  0  0  0  0  0  0  0  0  0
   -0.9381   19.1137  -31.6243 H   0  0  0  0  0  0  0  0  0  0  0  0
   -2.3422   18.3273  -32.4222 H   0  0  0  0  0  0  0  0  0  0  0  0
   -0.7393   17.5166  -32.4222 H   0  0  0  0  0  0  0  0  0  0  0  0
    0.1934   19.2214  -33.8897 H   0  0  0  0  0  0  0  0  0  0  0  0
   -1.3507   18.6229  -34.6144 H   0  0  0  0  0  0  0  0  0  0  0  0
   -1.0169   22.3749  -34.8306 H   0  0  0  0  0  0  0  0  0  0  0  0
    0.3505   21.6798  -33.8552 H   0  0  0  0  0  0  0  0  0  0  0  0
    0.7805   19.9939  -35.4875 H   0  0  0  0  0  0  0  0  0  0  0  0
   -0.7320   20.3689  -36.3810 H   0  0  0  0  0  0  0  0  0  0  0  0
    0.6260   21.5446  -36.3810 H   0  0  0  0  0  0  0  0  0  0  0  0
   -1.9476   20.2131  -31.7827 H   0  0  0  0  0  0  0  0  0  0  0  0
   -0.8236   21.6017  -32.0676 H   0  0  0  0  0  0  0  0  0  0  0  0
   -3.4421   21.9353  -31.4710 H   0  0  0  0  0  0  0  0  0  0  0  0
   -2.4960   23.0593  -32.5559 H   0  0  0  0  0  0  0  0  0  0  0  0
   -3.3410   21.4560  -34.3510 H   0  0  0  0  0  0  0  0  0  0  0  0
   -4.2340   22.7450  -33.8350 H   0  0  0  0  0  0  0  0  0  0  0  0
   -5.2181   23.4163  -31.8760 H   0  0  0  0  0  0  0  0  0  0  0  0
   -7.1524   24.2068  -30.5379 H   0  0  0  0  0  0  0  0  0  0  0  0
   -9.1042   22.7243  -30.1527 H   0  0  0  0  0  0  0  0  0  0  0  0
   -9.1548   20.4415  -31.1201 H   0  0  0  0  0  0  0  0  0  0  0  0
   -8.8471   18.3429  -31.6889 H   0  0  0  0  0  0  0  0  0  0  0  0
   -9.2860   19.1280  -33.2437 H   0  0  0  0  0  0  0  0  0  0  0  0
   -8.3262   17.6096  -33.2437 H   0  0  0  0  0  0  0  0  0  0  0  0
   -3.0790   19.2550  -34.3440 H   0  0  0  0  0  0  0  0  0  0  0  0
   -2.7942   16.6691  -35.0570 H   0  0  0  0  0  0  0  0  0  0  0  0
   -3.3756   13.4988  -34.2062 H   0  0  0  0  0  0  0  0  0  0  0  0
   -4.3992   13.4664  -35.6819 H   0  0  0  0  0  0  0  0  0  0  0  0
   -2.8521   14.3790  -35.6819 H   0  0  0  0  0  0  0  0  0  0  0  0
   -6.2025   14.1958  -33.9517 H   0  0  0  0  0  0  0  0  0  0  0  0
   -7.3917   16.2213  -33.0574 H   0  0  0  0  0  0  0  0  0  0  0  0
  1  2  1  0
  2  3  1  0
  3  4  1  0
  4  5  1  0
  3  6  1  0
  6  7  1  0
  7  8  1  0
  8  9  1  0
  9 10  2  0
 10 11  1  0
 11 12  2  0
 12 13  1  0
 13 14  2  0
 14 15  1  0
 15 16  2  0
 16 17  1  0
 16 18  1  0
 18 19  2  0
 19 20  1  0
 20 21  1  0
 21 22  2  0
 22 23  1  0
 23 24  1  0
 23 25  2  0
 25 26  1  0
 26 27  2  0
 19  9  1  0
 27 21  1  0
 15 10  1  0
 27 18  1  0
  1 28  1  0
  1 29  1  0
  1 30  1  0
  2 31  1  0
  2 32  1  0
  4 33  1  0
  4 34  1  0
  5 35  1  0
  5 36  1  0
  5 37  1  0
  6 38  1  0
  6 39  1  0
  7 40  1  0
  7 41  1  0
  8 42  1  0
  8 43  1  0
 11 44  1  0
 12 45  1  0
 13 46  1  0
 14 47  1  0
 17 48  1  0
 17 49  1  0
 17 50  1  0
 20 51  1  0
 22 52  1  0
 24 53  1  0
 24 54  1  0
 24 55  1  0
 25 56  1  0
 26 57  1  0
M  CHG  2   8   1  16   1
M  END
>  <UniqueID>  (34) 
33

>  <SMILES>  (34) 
CCN(CC)CC[NH2+]c1c2ccccc2[n+](C)c2c1[nH]c1cc(C)ccc12

>  <Energy>  (34) 
122.25156671715

>  <Genealogy>  (34) 
CCN(CC)CC[NH2+]c1c2ccccc2[n+](C)c2c1[nH]c1cc(C)ccc12 (protonated)
CCN(CC)CC[NH2+]c1c2ccccc2[n+](C)c2c1[nH]c1cc(C)ccc12 (3D coordinates assigned)
CCN(CC)CC[NH2+]c1c2ccccc2[n+](C)c2c1[nH]c1cc(C)ccc12 (optimized conformer: 122.25156671715 kcal/mol)

>  <smiles>  (34) 
CCN(CC)CCNc1c2ccccc2[n+](C)c2c1[nH]c1cc(C)ccc12

>  <score_type>  (34) 
oracle

>  <origin>  (34) 
adg

>  <m_score__min__energy>  (34) 
-8.1699999999999999

>  <m_primary>  (34) 
energy

$$$$
34:0
     RDKit          3D

 54 56  0  0  0  0  0  0  0  0999 V2000
    0.7320   18.6590  -35.5010 C   0  0  0  0  0  0  0  0  0  0  0  0
    0.3380   20.0130  -36.0840 C   0  0  0  0  0  0  0  0  0  0  0  0
   -0.2450   20.9170  -35.0640 N   0  0  0  0  0  0  0  0  0  0  0  0
    0.2180   22.2900  -35.3330 C   0  0  0  0  0  0  0  0  0  0  0  0
    0.1080   20.5180  -33.6750 C   0  0  0  0  0  0  0  0  0  0  0  0
   -1.0630   20.7460  -32.7050 C   0  0  0  0  0  0  0  0  0  0  0  0
   -2.2910   21.1410  -33.4010 N   0  0  0  0  0  0  0  0  0  0  0  0
   -3.6010   20.9400  -32.8380 C   0  0  0  0  0  0  0  0  0  0  0  0
   -4.3600   19.8060  -33.1750 C   0  0  0  0  0  0  0  0  0  0  0  0
   -3.7800   18.7210  -33.8640 C   0  0  0  0  0  0  0  0  0  0  0  0
   -4.5340   17.5970  -34.1900 C   0  0  0  0  0  0  0  0  0  0  0  0
   -5.8690   17.5180  -33.8050 C   0  0  0  0  0  0  0  0  0  0  0  0
   -6.8030   16.0820  -34.1830 Cl  0  0  0  0  0  0  0  0  0  0  0  0
   -6.4560   18.5660  -33.0920 C   0  0  0  0  0  0  0  0  0  0  0  0
   -5.7210   19.7360  -32.7740 C   0  0  0  0  0  0  0  0  0  0  0  0
   -6.2890   20.7830  -32.0730 N   0  0  0  0  0  0  0  0  0  0  0  0
   -7.7590   20.8620  -31.9240 C   0  0  0  0  0  0  0  0  0  0  0  0
   -5.4820   21.7640  -31.5260 C   0  0  0  0  0  0  0  0  0  0  0  0
   -5.9710   22.6760  -30.5590 C   0  0  0  0  0  0  0  0  0  0  0  0
   -5.1670   23.7160  -30.0620 C   0  0  0  0  0  0  0  0  0  0  0  0
   -5.6430   24.6400  -29.1160 O   0  0  0  0  0  0  0  0  0  0  0  0
   -6.5270   25.7170  -29.4050 C   0  0  0  0  0  0  0  0  0  0  0  0
   -3.8520   23.8520  -30.5110 C   0  0  0  0  0  0  0  0  0  0  0  0
   -3.0860   24.9180  -30.0120 O   0  0  0  0  0  0  0  0  0  0  0  0
   -2.2660   24.8510  -28.8490 C   0  0  0  0  0  0  0  0  0  0  0  0
   -3.3350   22.9280  -31.4330 C   0  0  0  0  0  0  0  0  0  0  0  0
   -4.1280   21.8750  -31.9290 C   0  0  0  0  0  0  0  0  0  0  0  0
    0.7160   18.7141  -34.4025 H   0  0  0  0  0  0  0  0  0  0  0  0
    0.0197   17.8925  -35.8401 H   0  0  0  0  0  0  0  0  0  0  0  0
    1.7444   18.3944  -35.8401 H   0  0  0  0  0  0  0  0  0  0  0  0
    1.2340   20.4896  -36.5083 H   0  0  0  0  0  0  0  0  0  0  0  0
   -0.4271   19.8376  -36.8547 H   0  0  0  0  0  0  0  0  0  0  0  0
    0.3937   22.8110  -34.3803 H   0  0  0  0  0  0  0  0  0  0  0  0
    1.1540   22.2549  -35.9098 H   0  0  0  0  0  0  0  0  0  0  0  0
   -0.5481   22.8289  -35.9098 H   0  0  0  0  0  0  0  0  0  0  0  0
    0.3753   19.4510  -33.6672 H   0  0  0  0  0  0  0  0  0  0  0  0
    0.9543   21.1377  -33.3439 H   0  0  0  0  0  0  0  0  0  0  0  0
   -1.2529   19.8132  -32.1538 H   0  0  0  0  0  0  0  0  0  0  0  0
   -0.7830   21.5638  -32.0247 H   0  0  0  0  0  0  0  0  0  0  0  0
   -2.2130   21.5490  -34.3600 H   0  0  0  0  0  0  0  0  0  0  0  0
   -2.7180   18.7632  -34.1476 H   0  0  0  0  0  0  0  0  0  0  0  0
   -4.0743   16.7708  -34.7522 H   0  0  0  0  0  0  0  0  0  0  0  0
   -7.5051   18.4822  -32.7722 H   0  0  0  0  0  0  0  0  0  0  0  0
   -8.0190   20.8760  -30.8553 H   0  0  0  0  0  0  0  0  0  0  0  0
   -8.1272   21.7812  -32.4030 H   0  0  0  0  0  0  0  0  0  0  0  0
   -8.2236   19.9875  -32.4030 H   0  0  0  0  0  0  0  0  0  0  0  0
   -7.0014   22.5681  -30.1893 H   0  0  0  0  0  0  0  0  0  0  0  0
   -6.8884   26.1573  -28.4640 H   0  0  0  0  0  0  0  0  0  0  0  0
   -5.9937   26.4829  -29.9872 H   0  0  0  0  0  0  0  0  0  0  0  0
   -7.3822   25.3433  -29.9872 H   0  0  0  0  0  0  0  0  0  0  0  0
   -2.8988   24.9027  -27.9507 H   0  0  0  0  0  0  0  0  0  0  0  0
   -1.7062   23.9041  -28.8491 H   0  0  0  0  0  0  0  0  0  0  0  0
   -1.5599   25.6944  -28.8491 H   0  0  0  0  0  0  0  0  0  0  0  0
   -2.2938   23.0281  -31.7735 H   0  0  0  0  0  0  0  0  0  0  0  0
  1  2  1  0
  2  3  1  0
  3  4  1  0
  3  5  1  0
  5  6  1  0
  6  7  1  0
  7  8  1  0
  8  9  2  0
  9 10  1  0
 10 11  2  0
 11 12  1  0
 12 13  1  0
 12 14  2  0
 14 15  1  0
 15 16  2  0
 16 17  1  0
 16 18  1  0
 18 19  2  0
 19 20  1  0
 20 21  1  0
 21 22  1  0
 20 23  2  0
 23 24  1  0
 24 25  1  0
 23 26  1  0
 26 27  2  0
 27  8  1  0
 15  9  1  0
 27 18  1  0
  1 28  1  0
  1 29  1  0
  1 30  1  0
  2 31  1  0
  2 32  1  0
  4 33  1  0
  4 34  1  0
  4 35  1  0
  5 36  1  0
  5 37  1  0
  6 38  1  0
  6 39  1  0
  7 40  1  0
 10 41  1  0
 11 42  1  0
 14 43  1  0
 17 44  1  0
 17 45  1  0
 17 46  1  0
 19 47  1  0
 22 48  1  0
 22 49  1  0
 22 50  1  0
 25 51  1  0
 25 52  1  0
 25 53  1  0
 26 54  1  0
M  CHG  1  16   1
M  END
>  <UniqueID>  (35) 
34

>  <SMILES>  (35) 
CCN(C)CCNc1c2ccc(Cl)cc2[n+](C)c2cc(OC)c(OC)cc12

>  <Energy>  (35) 
78.07620643330705

>  <Genealogy>  (35) 
CCN(C)CCNc1c2ccc(Cl)cc2[n+](C)c2cc(OC)c(OC)cc12 (3D coordinates assigned)
CCN(C)CCNc1c2ccc(Cl)cc2[n+](C)c2cc(OC)c(OC)cc12 (optimized conformer: 78.07620643330705 kcal/mol)

>  <smiles>  (35) 
CCN(C)CCNc1c2ccc(Cl)cc2[n+](C)c2cc(OC)c(OC)cc12

>  <score_type>  (35) 
oracle

>  <origin>  (35) 
adg

>  <m_score__min__energy>  (35) 
-7.5800000000000001

>  <m_primary>  (35) 
energy

$$$$
35:0
     RDKit          3D

 25 27  0  0  0  0  0  0  0  0999 V2000
   -9.0390   18.1880  -31.5970 O   0  0  0  0  0  0  0  0  0  0  0  0
   -8.2720   18.9930  -32.1920 C   0  0  0  0  0  0  0  0  0  0  0  0
   -7.1790   18.4620  -33.0270 C   0  0  0  0  0  0  0  0  0  0  0  0
   -6.3420   19.2190  -33.8400 C   0  0  0  0  0  0  0  0  0  0  0  0
   -5.4330   18.4450  -34.5720 C   0  0  0  0  0  0  0  0  0  0  0  0
   -5.5570   17.0790  -34.3540 C   0  0  0  0  0  0  0  0  0  0  0  0
   -6.8010   16.8350  -33.2500 S   0  0  0  0  0  0  0  0  0  0  0  0
   -8.4680   20.4390  -31.9940 C   0  0  0  0  0  0  0  0  0  0  0  0
   -9.6420   21.1420  -32.2420 C   0  0  0  0  0  0  0  0  0  0  0  0
   -9.4690   22.4580  -31.9820 N   0  0  0  0  0  0  0  0  0  0  0  0
   -8.1900   22.5960  -31.5930 C   0  0  0  0  0  0  0  0  0  0  0  0
   -7.5350   23.7810  -31.2600 C   0  0  0  0  0  0  0  0  0  0  0  0
   -6.1680   23.7090  -30.9310 C   0  0  0  0  0  0  0  0  0  0  0  0
   -5.2190   25.2990  -30.4690 Br  0  0  0  0  0  0  0  0  0  0  0  0
   -5.4930   22.4680  -30.9580 C   0  0  0  0  0  0  0  0  0  0  0  0
   -6.1790   21.2900  -31.3030 C   0  0  0  0  0  0  0  0  0  0  0  0
   -7.5410   21.3870  -31.5950 C   0  0  0  0  0  0  0  0  0  0  0  0
   -6.3893   20.3162  -33.9018 H   0  0  0  0  0  0  0  0  0  0  0  0
   -4.6893   18.8790  -35.2565 H   0  0  0  0  0  0  0  0  0  0  0  0
   -4.9468   16.2928  -34.8226 H   0  0  0  0  0  0  0  0  0  0  0  0
  -10.5796   20.6911  -32.5994 H   0  0  0  0  0  0  0  0  0  0  0  0
  -10.1820   23.2140  -32.0850 H   0  0  0  0  0  0  0  0  0  0  0  0
   -8.0697   24.7423  -31.2545 H   0  0  0  0  0  0  0  0  0  0  0  0
   -4.4229   22.4230  -30.7073 H   0  0  0  0  0  0  0  0  0  0  0  0
   -5.6586   20.3217  -31.3417 H   0  0  0  0  0  0  0  0  0  0  0  0
  1  2  2  0
  2  3  1  0
  3  4  2  0
  4  5  1  0
  5  6  2  0
  6  7  1  0
  2  8  1  0
  8  9  2  0
  9 10  1  0
 10 11  1  0
 11 12  2  0
 12 13  1  0
 13 14  1  0
 13 15  2  0
 15 16  1  0
 16 17  2  0
  7  3  1  0
 17  8  1  0
 17 11  1  0
  4 18  1  0
  5 19  1  0
  6 20  1  0
  9 21  1  0
 10 22  1  0
 12 23  1  0
 15 24  1  0
 16 25  1  0
M  END
>  <UniqueID>  (36) 
35

>  <SMILES>  (36) 
O=C(c1cccs1)c1c[nH]c2cc(Br)ccc12

>  <Energy>  (36) 
90.69206830792187

>  <Genealogy>  (36) 
O=C(c1cccs1)c1c[nH]c2cc(Br)ccc12 (3D coordinates assigned)
O=C(c1cccs1)c1c[nH]c2cc(Br)ccc12 (optimized conformer: 90.69206830792187 kcal/mol)

>  <smiles>  (36) 
O=C(c1cccs1)c1c[nH]c2cc(Br)ccc12

>  <score_type>  (36) 
oracle

>  <origin>  (36) 
adg

>  <m_score__min__energy>  (36) 
-7.6900000000000004

>  <m_primary>  (36) 
energy

$$$$
36:0
     RDKit          3D

 56 58  0  0  0  0  0  0  0  0999 V2000
   -2.7300   21.1650  -29.0920 C   0  0  0  0  0  0  0  0  0  0  0  0
   -3.8360   22.0630  -28.5470 C   0  0  0  0  0  0  0  0  0  0  0  0
   -3.8930   23.3280  -29.3150 N   0  0  0  0  0  0  0  0  0  0  0  0
   -2.5390   23.7720  -29.7170 C   0  0  0  0  0  0  0  0  0  0  0  0
   -1.9660   24.7320  -28.6780 C   0  0  0  0  0  0  0  0  0  0  0  0
   -4.6180   24.3860  -28.5680 C   0  0  0  0  0  0  0  0  0  0  0  0
   -5.7500   24.9590  -29.4280 C   0  0  0  0  0  0  0  0  0  0  0  0
   -6.4110   23.9380  -30.1530 O   0  0  0  0  0  0  0  0  0  0  0  0
   -6.4970   24.2770  -31.5220 C   0  0  0  0  0  0  0  0  0  0  0  0
   -5.6890   23.2620  -32.3350 C   0  0  0  0  0  0  0  0  0  0  0  0
   -4.9970   22.2750  -31.4840 N   0  0  0  0  0  0  0  0  0  0  0  0
   -5.0700   20.9250  -32.0210 C   0  0  0  0  0  0  0  0  0  0  0  0
   -3.9100   20.3190  -32.5730 C   0  0  0  0  0  0  0  0  0  0  0  0
   -2.2150   21.2180  -32.7120 Br  0  0  0  0  0  0  0  0  0  0  0  0
   -3.9470   19.0050  -33.0380 C   0  0  0  0  0  0  0  0  0  0  0  0
   -5.1330   18.2740  -33.0140 C   0  0  0  0  0  0  0  0  0  0  0  0
   -6.3030   18.8580  -32.5090 C   0  0  0  0  0  0  0  0  0  0  0  0
   -6.2940   20.1820  -32.0030 C   0  0  0  0  0  0  0  0  0  0  0  0
   -7.5640   20.7250  -31.3530 C   0  0  0  0  0  0  0  0  0  0  0  0
   -8.8410   20.0560  -31.8810 C   0  0  0  0  0  0  0  0  0  0  0  0
   -8.7490   18.5360  -31.7670 C   0  0  0  0  0  0  0  0  0  0  0  0
   -7.5500   18.0540  -32.5210 C   0  0  0  0  0  0  0  0  0  0  0  0
   -7.5990   16.9180  -33.1530 N   0  0  0  0  0  0  0  0  0  0  0  0
   -6.5060   16.4320  -33.9970 C   0  0  0  0  0  0  0  0  0  0  0  0
   -5.1400   16.8210  -33.4190 C   0  0  0  0  0  0  0  0  0  0  0  0
   -2.1765   20.7156  -28.2544 H   0  0  0  0  0  0  0  0  0  0  0  0
   -3.1741   20.3687  -29.7073 H   0  0  0  0  0  0  0  0  0  0  0  0
   -2.0418   21.7632  -29.7073 H   0  0  0  0  0  0  0  0  0  0  0  0
   -4.8014   21.5426  -28.6319 H   0  0  0  0  0  0  0  0  0  0  0  0
   -3.6246   22.2928  -27.4923 H   0  0  0  0  0  0  0  0  0  0  0  0
   -1.8803   22.8952  -29.8032 H   0  0  0  0  0  0  0  0  0  0  0  0
   -2.6051   24.2903  -30.6850 H   0  0  0  0  0  0  0  0  0  0  0  0
   -2.1902   24.3564  -27.6687 H   0  0  0  0  0  0  0  0  0  0  0  0
   -0.8762   24.8054  -28.8082 H   0  0  0  0  0  0  0  0  0  0  0  0
   -2.4186   25.7261  -28.8082 H   0  0  0  0  0  0  0  0  0  0  0  0
   -5.0420   23.9562  -27.6485 H   0  0  0  0  0  0  0  0  0  0  0  0
   -3.9149   25.1933  -28.3153 H   0  0  0  0  0  0  0  0  0  0  0  0
   -6.4772   25.4628  -28.7742 H   0  0  0  0  0  0  0  0  0  0  0  0
   -5.3154   25.6699  -30.1462 H   0  0  0  0  0  0  0  0  0  0  0  0
   -7.5489   24.2539  -31.8429 H   0  0  0  0  0  0  0  0  0  0  0  0
   -6.0946   25.2882  -31.6819 H   0  0  0  0  0  0  0  0  0  0  0  0
   -6.3730   22.7269  -33.0102 H   0  0  0  0  0  0  0  0  0  0  0  0
   -4.9208   23.8178  -32.8926 H   0  0  0  0  0  0  0  0  0  0  0  0
   -5.3830   22.3240  -30.5150 H   0  0  0  0  0  0  0  0  0  0  0  0
   -3.9990   22.5590  -31.3670 H   0  0  0  0  0  0  0  0  0  0  0  0
   -3.0295   18.5402  -33.4282 H   0  0  0  0  0  0  0  0  0  0  0  0
   -7.5024   20.5556  -30.2679 H   0  0  0  0  0  0  0  0  0  0  0  0
   -7.6276   21.7954  -31.5984 H   0  0  0  0  0  0  0  0  0  0  0  0
   -9.7015   20.4094  -31.2940 H   0  0  0  0  0  0  0  0  0  0  0  0
   -8.9632   20.3214  -32.9415 H   0  0  0  0  0  0  0  0  0  0  0  0
   -8.6556   18.2521  -30.7084 H   0  0  0  0  0  0  0  0  0  0  0  0
   -9.6567   18.0798  -32.1887 H   0  0  0  0  0  0  0  0  0  0  0  0
   -6.5668   15.3359  -34.0660 H   0  0  0  0  0  0  0  0  0  0  0  0
   -6.6053   16.8908  -34.9918 H   0  0  0  0  0  0  0  0  0  0  0  0
   -4.9293   16.1982  -32.5371 H   0  0  0  0  0  0  0  0  0  0  0  0
   -4.3696   16.6619  -34.1879 H   0  0  0  0  0  0  0  0  0  0  0  0
  1  2  1  0
  2  3  1  0
  3  4  1  0
  4  5  1  0
  3  6  1  0
  6  7  1  0
  7  8  1  0
  8  9  1  0
  9 10  1  0
 10 11  1  0
 11 12  1  0
 12 13  2  0
 13 14  1  0
 13 15  1  0
 15 16  2  0
 16 17  1  0
 17 18  2  0
 18 19  1  0
 19 20  1  0
 20 21  1  0
 21 22  1  0
 22 23  2  0
 23 24  1  0
 24 25  1  0
 18 12  1  0
 25 16  1  0
 22 17  1  0
  1 26  1  0
  1 27  1  0
  1 28  1  0
  2 29  1  0
  2 30  1  0
  4 31  1  0
  4 32  1  0
  5 33  1  0
  5 34  1  0
  5 35  1  0
  6 36  1  0
  6 37  1  0
  7 38  1  0
  7 39  1  0
  9 40  1  0
  9 41  1  0
 10 42  1  0
 10 43  1  0
 11 44  1  0
 11 45  1  0
 15 46  1  0
 19 47  1  0
 19 48  1  0
 20 49  1  0
 20 50  1  0
 21 51  1  0
 21 52  1  0
 24 53  1  0
 24 54  1  0
 25 55  1  0
 25 56  1  0
M  CHG  1  11   1
M  END
>  <UniqueID>  (37) 
36

>  <SMILES>  (37) 
CCN(CC)CCOCC[NH2+]c1c(Br)cc2c3c1CCCC3=NCC2

>  <Energy>  (37) 
62.561774643544574

>  <Genealogy>  (37) 
CCN(CC)CCOCC[NH2+]c1c(Br)cc2c3c1CCCC3=NCC2 (protonated)
CCN(CC)CCOCC[NH2+]c1c(Br)cc2c3c1CCCC3=NCC2 (3D coordinates assigned)
CCN(CC)CCOCC[NH2+]c1c(Br)cc2c3c1CCCC3=NCC2 (nonaromatic ring conformer: 62.561774643544574 kcal/mol)

>  <smiles>  (37) 
CCN(CC)CCOCCNc1c(Br)cc2c3c1CCCC3=NCC2

>  <score_type>  (37) 
oracle

>  <origin>  (37) 
adg

>  <m_score__min__energy>  (37) 
-8.0600000000000005

>  <m_primary>  (37) 
energy

$$$$
37:0
     RDKit          3D

 49 50  0  0  0  0  0  0  0  0999 V2000
   -7.8130   20.0390  -32.2380 C   0  0  0  0  0  0  0  0  0  0  0  0
   -7.2800   21.0710  -31.2280 C   0  0  0  0  0  0  0  0  0  0  0  0
   -6.3430   22.0980  -31.7760 N   0  0  0  0  0  0  0  0  0  0  0  0
   -6.9830   23.3330  -32.3000 C   0  0  0  0  0  0  0  0  0  0  0  0
   -8.4800   23.3960  -31.9720 C   0  0  0  0  0  0  0  0  0  0  0  0
   -5.3400   21.5360  -32.7190 C   0  0  0  0  0  0  0  0  0  0  0  0
   -3.9160   21.4300  -32.1570 C   0  0  0  0  0  0  0  0  0  0  0  0
   -3.9480   21.7030  -30.7610 O   0  0  0  0  0  0  0  0  0  0  0  0
   -3.7850   22.9900  -30.2380 C   0  0  0  0  0  0  0  0  0  0  0  0
   -4.2480   23.9880  -30.8590 O   0  0  0  0  0  0  0  0  0  0  0  0
   -3.0010   23.1660  -28.9490 C   0  0  0  0  0  0  0  0  0  0  0  0
   -2.3830   21.8040  -28.5340 C   0  0  0  0  0  0  0  0  0  0  0  0
   -2.8600   21.0830  -27.4100 C   0  0  0  0  0  0  0  0  0  0  0  0
   -2.3030   19.8550  -27.0460 C   0  0  0  0  0  0  0  0  0  0  0  0
   -1.2700   19.3040  -27.7950 C   0  0  0  0  0  0  0  0  0  0  0  0
   -0.7970   19.9700  -28.9210 C   0  0  0  0  0  0  0  0  0  0  0  0
   -1.3440   21.2010  -29.3050 C   0  0  0  0  0  0  0  0  0  0  0  0
   -0.6920   21.9180  -30.7790 Cl  0  0  0  0  0  0  0  0  0  0  0  0
   -3.8410   23.7170  -27.7810 C   0  0  0  0  0  0  0  0  0  0  0  0
   -2.8570   24.4730  -26.8980 C   0  0  0  0  0  0  0  0  0  0  0  0
   -1.7430   24.9600  -27.8190 C   0  0  0  0  0  0  0  0  0  0  0  0
   -1.9850   24.3060  -29.1780 C   0  0  0  0  0  0  0  0  0  0  0  0
   -8.2522   19.1885  -31.6960 H   0  0  0  0  0  0  0  0  0  0  0  0
   -8.5818   20.5076  -32.8699 H   0  0  0  0  0  0  0  0  0  0  0  0
   -6.9858   19.6833  -32.8699 H   0  0  0  0  0  0  0  0  0  0  0  0
   -8.1440   21.5987  -30.7978 H   0  0  0  0  0  0  0  0  0  0  0  0
   -6.6949   20.4954  -30.4956 H   0  0  0  0  0  0  0  0  0  0  0  0
   -5.7630   22.4030  -30.9570 H   0  0  0  0  0  0  0  0  0  0  0  0
   -6.4857   24.2064  -31.8529 H   0  0  0  0  0  0  0  0  0  0  0  0
   -6.8780   23.3283  -33.3950 H   0  0  0  0  0  0  0  0  0  0  0  0
   -8.6163   23.4017  -30.8805 H   0  0  0  0  0  0  0  0  0  0  0  0
   -8.9109   24.3131  -32.4001 H   0  0  0  0  0  0  0  0  0  0  0  0
   -8.9864   22.5184  -32.4001 H   0  0  0  0  0  0  0  0  0  0  0  0
   -5.6697   20.5271  -33.0078 H   0  0  0  0  0  0  0  0  0  0  0  0
   -5.2868   22.2349  -33.5667 H   0  0  0  0  0  0  0  0  0  0  0  0
   -3.5275   20.4148  -32.3255 H   0  0  0  0  0  0  0  0  0  0  0  0
   -3.2616   22.1552  -32.6628 H   0  0  0  0  0  0  0  0  0  0  0  0
   -3.6849   21.4990  -26.8130 H   0  0  0  0  0  0  0  0  0  0  0  0
   -2.6836   19.3215  -26.1625 H   0  0  0  0  0  0  0  0  0  0  0  0
   -0.8268   18.3421  -27.4977 H   0  0  0  0  0  0  0  0  0  0  0  0
    0.0146   19.5255  -29.5157 H   0  0  0  0  0  0  0  0  0  0  0  0
   -4.6223   24.3950  -28.1549 H   0  0  0  0  0  0  0  0  0  0  0  0
   -4.3525   22.9141  -27.2299 H   0  0  0  0  0  0  0  0  0  0  0  0
   -3.3553   25.3280  -26.4177 H   0  0  0  0  0  0  0  0  0  0  0  0
   -2.4620   23.8300  -26.0977 H   0  0  0  0  0  0  0  0  0  0  0  0
   -1.7794   26.0554  -27.9128 H   0  0  0  0  0  0  0  0  0  0  0  0
   -0.7530   24.6933  -27.4205 H   0  0  0  0  0  0  0  0  0  0  0  0
   -2.3948   25.0423  -29.8851 H   0  0  0  0  0  0  0  0  0  0  0  0
   -1.0469   23.9196  -29.6031 H   0  0  0  0  0  0  0  0  0  0  0  0
  1  2  1  0
  2  3  1  0
  3  4  1  0
  4  5  1  0
  3  6  1  0
  6  7  1  0
  7  8  1  0
  8  9  1  0
  9 10  2  0
  9 11  1  0
 11 12  1  0
 12 13  2  0
 13 14  1  0
 14 15  2  0
 15 16  1  0
 16 17  2  0
 17 18  1  0
 11 19  1  0
 19 20  1  0
 20 21  1  0
 21 22  1  0
 22 11  1  0
 17 12  1  0
  1 23  1  0
  1 24  1  0
  1 25  1  0
  2 26  1  0
  2 27  1  0
  3 28  1  0
  4 29  1  0
  4 30  1  0
  5 31  1  0
  5 32  1  0
  5 33  1  0
  6 34  1  0
  6 35  1  0
  7 36  1  0
  7 37  1  0
 13 38  1  0
 14 39  1  0
 15 40  1  0
 16 41  1  0
 19 42  1  0
 19 43  1  0
 20 44  1  0
 20 45  1  0
 21 46  1  0
 21 47  1  0
 22 48  1  0
 22 49  1  0
M  CHG  1   3   1
M  END
>  <UniqueID>  (38) 
37

>  <SMILES>  (38) 
CC[NH+](CC)CCOC(=O)C1(c2ccccc2Cl)CCCC1

>  <Energy>  (38) 
63.94105903286425

>  <Genealogy>  (38) 
CC[NH+](CC)CCOC(=O)C1(c2ccccc2Cl)CCCC1 (protonated)
CC[NH+](CC)CCOC(=O)C1(c2ccccc2Cl)CCCC1 (3D coordinates assigned)
CC[NH+](CC)CCOC(=O)C1(c2ccccc2Cl)CCCC1 (nonaromatic ring conformer: 63.94105903286425 kcal/mol)

>  <smiles>  (38) 
CCN(CC)CCOC(=O)C1(c2ccccc2Cl)CCCC1

>  <score_type>  (38) 
oracle

>  <origin>  (38) 
adg

>  <m_score__min__energy>  (38) 
-5.6799999999999997

>  <m_primary>  (38) 
energy

$$$$
38:0
     RDKit          3D

 54 57  0  0  0  0  0  0  0  0999 V2000
    0.4420   20.2680  -34.8020 C   0  0  0  0  0  0  0  0  0  0  0  0
   -0.5270   19.4080  -34.2130 O   0  0  0  0  0  0  0  0  0  0  0  0
   -1.7740   19.8330  -33.7320 C   0  0  0  0  0  0  0  0  0  0  0  0
   -2.6210   18.8830  -33.1480 C   0  0  0  0  0  0  0  0  0  0  0  0
   -3.8720   19.2560  -32.6520 C   0  0  0  0  0  0  0  0  0  0  0  0
   -4.2920   20.5950  -32.7190 C   0  0  0  0  0  0  0  0  0  0  0  0
   -5.6210   21.0040  -32.2130 C   0  0  0  0  0  0  0  0  0  0  0  0
   -6.7490   20.3890  -32.6630 N   0  0  0  0  0  0  0  0  0  0  0  0
   -7.8630   20.8410  -32.0500 C   0  0  0  0  0  0  0  0  0  0  0  0
   -9.2470   20.3800  -32.4010 C   0  0  0  0  0  0  0  0  0  0  0  0
   -9.3020   18.9270  -32.6220 N   0  0  0  0  0  0  0  0  0  0  0  0
   -8.3670   18.2050  -31.7510 C   0  0  0  0  0  0  0  0  0  0  0  0
   -7.2300   17.6640  -32.5710 C   0  0  0  0  0  0  0  0  0  0  0  0
   -6.3860   16.6770  -32.0420 C   0  0  0  0  0  0  0  0  0  0  0  0
   -5.3120   16.2120  -32.8040 C   0  0  0  0  0  0  0  0  0  0  0  0
   -5.0840   16.7390  -34.0740 C   0  0  0  0  0  0  0  0  0  0  0  0
   -5.9330   17.7320  -34.5650 C   0  0  0  0  0  0  0  0  0  0  0  0
   -6.9760   18.1760  -33.8120 N   0  0  0  0  0  0  0  0  0  0  0  0
   -7.5050   22.0460  -30.9360 S   0  0  0  0  0  0  0  0  0  0  0  0
   -5.8480   21.9860  -31.2340 C   0  0  0  0  0  0  0  0  0  0  0  0
   -4.8700   22.9150  -30.6290 C   0  0  0  0  0  0  0  0  0  0  0  0
   -3.6990   22.4340  -30.0200 C   0  0  0  0  0  0  0  0  0  0  0  0
   -2.7780   23.3210  -29.4560 C   0  0  0  0  0  0  0  0  0  0  0  0
   -3.0080   24.7090  -29.5070 C   0  0  0  0  0  0  0  0  0  0  0  0
   -2.1150   25.6390  -28.9520 O   0  0  0  0  0  0  0  0  0  0  0  0
   -1.5260   25.5190  -27.6620 C   0  0  0  0  0  0  0  0  0  0  0  0
   -4.1640   25.1870  -30.1330 C   0  0  0  0  0  0  0  0  0  0  0  0
   -5.0850   24.3000  -30.6950 C   0  0  0  0  0  0  0  0  0  0  0  0
   -3.4550   21.5450  -33.3220 C   0  0  0  0  0  0  0  0  0  0  0  0
   -2.2020   21.1710  -33.8200 C   0  0  0  0  0  0  0  0  0  0  0  0
    1.0127   20.7745  -34.0096 H   0  0  0  0  0  0  0  0  0  0  0  0
    1.1273   19.6754  -35.4258 H   0  0  0  0  0  0  0  0  0  0  0  0
   -0.0650   21.0189  -35.4258 H   0  0  0  0  0  0  0  0  0  0  0  0
   -2.2981   17.8337  -33.0793 H   0  0  0  0  0  0  0  0  0  0  0  0
   -4.5322   18.4973  -32.2064 H   0  0  0  0  0  0  0  0  0  0  0  0
   -9.9281   20.6404  -31.5774 H   0  0  0  0  0  0  0  0  0  0  0  0
   -9.5454   20.8782  -33.3352 H   0  0  0  0  0  0  0  0  0  0  0  0
   -9.0620   18.7240  -33.6220 H   0  0  0  0  0  0  0  0  0  0  0  0
   -7.9733   18.8919  -30.9873 H   0  0  0  0  0  0  0  0  0  0  0  0
   -8.8928   17.3722  -31.2611 H   0  0  0  0  0  0  0  0  0  0  0  0
   -6.5683   16.2725  -31.0355 H   0  0  0  0  0  0  0  0  0  0  0  0
   -4.6479   15.4321  -32.4031 H   0  0  0  0  0  0  0  0  0  0  0  0
   -4.2432   16.3759  -34.6833 H   0  0  0  0  0  0  0  0  0  0  0  0
   -5.7584   18.1573  -35.5643 H   0  0  0  0  0  0  0  0  0  0  0  0
   -7.5900   18.9270  -34.2010 H   0  0  0  0  0  0  0  0  0  0  0  0
   -3.5056   21.3516  -29.9868 H   0  0  0  0  0  0  0  0  0  0  0  0
   -1.8702   22.9333  -28.9705 H   0  0  0  0  0  0  0  0  0  0  0  0
   -2.2954   25.6757  -26.8916 H   0  0  0  0  0  0  0  0  0  0  0  0
   -1.0930   24.5142  -27.5487 H   0  0  0  0  0  0  0  0  0  0  0  0
   -0.7344   26.2743  -27.5487 H   0  0  0  0  0  0  0  0  0  0  0  0
   -4.3492   26.2701  -30.1831 H   0  0  0  0  0  0  0  0  0  0  0  0
   -5.9851   24.6899  -31.1928 H   0  0  0  0  0  0  0  0  0  0  0  0
   -3.7856   22.5909  -33.4040 H   0  0  0  0  0  0  0  0  0  0  0  0
   -1.5488   21.9258  -34.2822 H   0  0  0  0  0  0  0  0  0  0  0  0
  1  2  1  0
  2  3  1  0
  3  4  2  0
  4  5  1  0
  5  6  2  0
  6  7  1  0
  7  8  1  0
  8  9  2  0
  9 10  1  0
 10 11  1  0
 11 12  1  0
 12 13  1  0
 13 14  2  0
 14 15  1  0
 15 16  2  0
 16 17  1  0
 17 18  2  0
  9 19  1  0
 19 20  1  0
 20 21  1  0
 21 22  2  0
 22 23  1  0
 23 24  2  0
 24 25  1  0
 25 26  1  0
 24 27  1  0
 27 28  2  0
  6 29  1  0
 29 30  2  0
 30  3  1  0
 20  7  2  0
 28 21  1  0
 18 13  1  0
  1 31  1  0
  1 32  1  0
  1 33  1  0
  4 34  1  0
  5 35  1  0
 10 36  1  0
 10 37  1  0
 11 38  1  0
 12 39  1  0
 12 40  1  0
 14 41  1  0
 15 42  1  0
 16 43  1  0
 17 44  1  0
 18 45  1  0
 22 46  1  0
 23 47  1  0
 26 48  1  0
 26 49  1  0
 26 50  1  0
 27 51  1  0
 28 52  1  0
 29 53  1  0
 30 54  1  0
M  CHG  1  18   1
M  END
>  <UniqueID>  (39) 
38

>  <SMILES>  (39) 
COc1ccc(-c2nc(CNCc3cccc[nH+]3)sc2-c2ccc(OC)cc2)cc1

>  <Energy>  (39) 
93.0237253268541

>  <Genealogy>  (39) 
COc1ccc(-c2nc(CNCc3cccc[nH+]3)sc2-c2ccc(OC)cc2)cc1 (protonated)
COc1ccc(-c2nc(CNCc3cccc[nH+]3)sc2-c2ccc(OC)cc2)cc1 (3D coordinates assigned)
COc1ccc(-c2nc(CNCc3cccc[nH+]3)sc2-c2ccc(OC)cc2)cc1 (optimized conformer: 93.0237253268541 kcal/mol)

>  <smiles>  (39) 
COc1ccc(-c2nc(CNCc3ccccn3)sc2-c2ccc(OC)cc2)cc1

>  <score_type>  (39) 
oracle

>  <origin>  (39) 
adg

>  <m_score__min__energy>  (39) 
-8.5999999999999996

>  <m_primary>  (39) 
energy

$$$$
39:0
     RDKit          3D

 55 58  0  0  1  0  0  0  0  0999 V2000
   -9.0760   18.5510  -31.9780 C   0  0  0  0  0  0  0  0  0  0  0  0
   -8.3830   19.2070  -33.0290 O   0  0  0  0  0  0  0  0  0  0  0  0
   -7.2980   20.0280  -32.7510 C   0  0  0  0  0  0  0  0  0  0  0  0
   -6.0880   19.6560  -33.2890 C   0  0  0  0  0  0  0  0  0  0  0  0
   -5.0190   20.4670  -33.0130 C   0  0  0  0  0  0  0  0  0  0  0  0
   -3.8330   20.1250  -33.5360 N   0  0  0  0  0  0  0  0  0  0  0  0
   -2.7680   20.8970  -33.2930 C   0  0  0  0  0  0  0  0  0  0  0  0
   -1.4270   20.6010  -33.8270 C   0  0  0  0  0  0  0  0  0  0  0  0
   -0.9130   19.3010  -33.7800 C   0  0  0  0  0  0  0  0  0  0  0  0
    0.3330   18.9870  -34.2670 C   0  0  0  0  0  0  0  0  0  0  0  0
    1.0780   19.9680  -34.8070 N   0  0  0  0  0  0  0  0  0  0  0  0
    0.6370   21.2280  -34.8780 C   0  0  0  0  0  0  0  0  0  0  0  0
    1.4460   22.2310  -35.4530 N   0  0  0  0  0  0  0  0  0  0  0  0
    2.8990   22.1070  -35.4240 C   0  0  0  0  0  0  0  0  0  0  0  0
    0.8490   23.3940  -36.0770 C   0  0  0  0  0  0  0  0  0  0  0  0
   -0.6190   21.5490  -34.3890 C   0  0  0  0  0  0  0  0  0  0  0  0
   -2.9120   21.9850  -32.5350 N   0  0  0  0  0  0  0  0  0  0  0  0
   -4.0940   22.3470  -31.9970 C   0  0  0  0  0  0  0  0  0  0  0  0
   -4.1300   23.3420  -31.2660 N   0  0  0  0  0  0  0  0  0  0  0  0
   -4.4080   23.4530  -29.9270 C   0  0  2  0  0  0  0  0  0  0  0  0
   -5.6560   24.2050  -29.5150 C   0  0  0  0  0  0  0  0  0  0  0  0
   -5.6410   25.3190  -30.5450 C   0  0  0  0  0  0  0  0  0  0  0  0
   -4.2330   25.6700  -30.6390 N   0  0  0  0  0  0  0  0  0  0  0  0
   -3.5410   24.7870  -29.7200 C   0  0  0  0  0  0  0  0  0  0  0  0
   -5.2120   21.5910  -32.2230 C   0  0  0  0  0  0  0  0  0  0  0  0
   -6.4160   21.9480  -31.7010 C   0  0  0  0  0  0  0  0  0  0  0  0
   -7.5240   21.1180  -31.9800 C   0  0  0  0  0  0  0  0  0  0  0  0
   -8.7860   21.3890  -31.4970 O   0  0  0  0  0  0  0  0  0  0  0  0
   -9.4690   22.5330  -31.9600 C   0  0  0  0  0  0  0  0  0  0  0  0
   -8.6974   18.9094  -31.0094 H   0  0  0  0  0  0  0  0  0  0  0  0
  -10.1512   18.7699  -32.0551 H   0  0  0  0  0  0  0  0  0  0  0  0
   -8.9164   17.4654  -32.0551 H   0  0  0  0  0  0  0  0  0  0  0  0
   -5.9840   18.7535  -33.9092 H   0  0  0  0  0  0  0  0  0  0  0  0
   -3.7420   19.2690  -34.1240 H   0  0  0  0  0  0  0  0  0  0  0  0
   -1.5272   18.5026  -33.3380 H   0  0  0  0  0  0  0  0  0  0  0  0
    0.7128   17.9559  -34.2163 H   0  0  0  0  0  0  0  0  0  0  0  0
    3.2437   22.0776  -34.3798 H   0  0  0  0  0  0  0  0  0  0  0  0
    3.1982   21.1801  -35.9352 H   0  0  0  0  0  0  0  0  0  0  0  0
    3.3509   22.9698  -35.9352 H   0  0  0  0  0  0  0  0  0  0  0  0
    0.4939   24.0858  -35.2990 H   0  0  0  0  0  0  0  0  0  0  0  0
    1.5989   23.8998  -36.7029 H   0  0  0  0  0  0  0  0  0  0  0  0
    0.0009   23.0795  -36.7029 H   0  0  0  0  0  0  0  0  0  0  0  0
   -0.9731   22.5884  -34.4545 H   0  0  0  0  0  0  0  0  0  0  0  0
   -4.3431   22.4557  -29.4674 H   0  0  0  0  0  0  0  0  0  0  0  0
   -6.5571   23.5801  -29.6019 H   0  0  0  0  0  0  0  0  0  0  0  0
   -5.6712   24.5411  -28.4677 H   0  0  0  0  0  0  0  0  0  0  0  0
   -6.0242   24.9652  -31.5135 H   0  0  0  0  0  0  0  0  0  0  0  0
   -6.2789   26.1708  -30.2666 H   0  0  0  0  0  0  0  0  0  0  0  0
   -3.8500   25.6250  -31.5910 H   0  0  0  0  0  0  0  0  0  0  0  0
   -2.4889   24.6406  -30.0059 H   0  0  0  0  0  0  0  0  0  0  0  0
   -3.4790   25.1477  -28.6827 H   0  0  0  0  0  0  0  0  0  0  0  0
   -6.5231   22.8517  -31.0830 H   0  0  0  0  0  0  0  0  0  0  0  0
   -9.8210   23.1227  -31.1007 H   0  0  0  0  0  0  0  0  0  0  0  0
   -8.7881   23.1446  -32.5702 H   0  0  0  0  0  0  0  0  0  0  0  0
  -10.3305   22.2238  -32.5702 H   0  0  0  0  0  0  0  0  0  0  0  0
  1  2  1  0
  2  3  1  0
  3  4  2  0
  4  5  1  0
  5  6  1  0
  6  7  1  0
  7  8  1  0
  8  9  2  0
  9 10  1  0
 10 11  2  0
 11 12  1  0
 12 13  1  0
 13 14  1  0
 13 15  1  0
 12 16  2  0
  7 17  2  0
 17 18  1  0
 18 19  2  0
 19 20  1  0
 20 21  1  0
 21 22  1  0
 22 23  1  0
 23 24  1  0
 18 25  1  0
 25 26  1  0
 26 27  2  0
 27 28  1  0
 28 29  1  0
 27  3  1  0
 25  5  2  0
 16  8  1  0
 24 20  1  0
  1 30  1  0
  1 31  1  0
  1 32  1  0
  4 33  1  0
  6 34  1  0
  9 35  1  0
 10 36  1  0
 14 37  1  0
 14 38  1  0
 14 39  1  0
 15 40  1  0
 15 41  1  0
 15 42  1  0
 16 43  1  0
 20 44  1  1
 21 45  1  0
 21 46  1  0
 22 47  1  0
 22 48  1  0
 23 49  1  0
 24 50  1  0
 24 51  1  0
 26 52  1  0
 29 53  1  0
 29 54  1  0
 29 55  1  0
M  END
>  <smiles>  (40) 
COc1cc2[nH]c(-c3ccnc(N(C)C)c3)nc(=NC3CCNC3)c2cc1OC

>  <score_type>  (40) 
oracle

>  <origin>  (40) 
adg

>  <m_score__min__energy>  (40) 
-8.7200000000000006

>  <m_primary>  (40) 
energy

$$$$
40:0
     RDKit          3D

 66 69  0  0  0  0  0  0  0  0999 V2000
   -3.0220   21.1300  -28.1590 C   0  0  0  0  0  0  0  0  0  0  0  0
   -2.4620   22.5140  -27.8310 C   0  0  0  0  0  0  0  0  0  0  0  0
   -3.4530   23.6470  -28.1330 C   0  0  0  0  0  0  0  0  0  0  0  0
   -2.8320   24.8110  -28.9080 C   0  0  0  0  0  0  0  0  0  0  0  0
   -3.4590   24.9500  -30.1800 O   0  0  0  0  0  0  0  0  0  0  0  0
   -4.1630   23.9260  -30.8270 C   0  0  0  0  0  0  0  0  0  0  0  0
   -5.5620   24.0130  -31.0730 C   0  0  0  0  0  0  0  0  0  0  0  0
   -6.2300   22.9970  -31.7730 C   0  0  0  0  0  0  0  0  0  0  0  0
   -5.4900   21.9030  -32.2040 C   0  0  0  0  0  0  0  0  0  0  0  0
   -5.9250   20.9070  -32.9400 O   0  0  0  0  0  0  0  0  0  0  0  0
   -4.8980   20.1170  -33.1640 C   0  0  0  0  0  0  0  0  0  0  0  0
   -4.8880   18.9760  -33.9580 C   0  0  0  0  0  0  0  0  0  0  0  0
   -6.1010   18.5850  -34.6470 N   0  0  0  0  0  0  0  0  0  0  0  0
   -6.4720   17.2070  -34.2820 C   0  0  0  0  0  0  0  0  0  0  0  0
   -7.4360   17.1840  -33.0920 C   0  0  0  0  0  0  0  0  0  0  0  0
   -7.5720   18.5560  -32.5500 N   0  0  0  0  0  0  0  0  0  0  0  0
   -8.9840   19.0050  -32.5400 C   0  0  0  0  0  0  0  0  0  0  0  0
   -9.0560   20.4860  -32.1850 C   0  0  0  0  0  0  0  0  0  0  0  0
   -6.9480   18.6830  -31.2120 C   0  0  0  0  0  0  0  0  0  0  0  0
   -6.1160   17.4410  -30.8990 C   0  0  0  0  0  0  0  0  0  0  0  0
   -3.6290   18.3490  -34.1640 C   0  0  0  0  0  0  0  0  0  0  0  0
   -3.4890   17.2480  -35.0370 C   0  0  0  0  0  0  0  0  0  0  0  0
   -2.2450   16.6510  -35.2400 C   0  0  0  0  0  0  0  0  0  0  0  0
   -1.1140   17.1550  -34.6110 C   0  0  0  0  0  0  0  0  0  0  0  0
   -1.2140   18.2460  -33.7500 C   0  0  0  0  0  0  0  0  0  0  0  0
   -2.4660   18.8530  -33.4800 C   0  0  0  0  0  0  0  0  0  0  0  0
   -2.5740   19.9130  -32.5910 N   0  0  0  0  0  0  0  0  0  0  0  0
   -1.4740   20.2800  -31.6850 C   0  0  0  0  0  0  0  0  0  0  0  0
   -3.7660   20.5780  -32.5340 C   0  0  0  0  0  0  0  0  0  0  0  0
   -4.1430   21.7730  -31.9240 C   0  0  0  0  0  0  0  0  0  0  0  0
   -3.4460   22.7920  -31.2620 C   0  0  0  0  0  0  0  0  0  0  0  0
   -3.2398   20.5917  -27.2247 H   0  0  0  0  0  0  0  0  0  0  0  0
   -3.9472   21.2380  -28.7441 H   0  0  0  0  0  0  0  0  0  0  0  0
   -2.2820   20.5643  -28.7441 H   0  0  0  0  0  0  0  0  0  0  0  0
   -2.2085   22.5454  -26.7611 H   0  0  0  0  0  0  0  0  0  0  0  0
   -1.5778   22.6711  -28.4662 H   0  0  0  0  0  0  0  0  0  0  0  0
   -4.2816   23.2354  -28.7279 H   0  0  0  0  0  0  0  0  0  0  0  0
   -3.7919   24.0466  -27.1658 H   0  0  0  0  0  0  0  0  0  0  0  0
   -2.9648   25.7403  -28.3347 H   0  0  0  0  0  0  0  0  0  0  0  0
   -1.7610   24.6097  -29.0576 H   0  0  0  0  0  0  0  0  0  0  0  0
   -6.1253   24.8856  -30.7107 H   0  0  0  0  0  0  0  0  0  0  0  0
   -7.3092   23.0647  -31.9749 H   0  0  0  0  0  0  0  0  0  0  0  0
   -6.8860   19.2430  -34.4420 H   0  0  0  0  0  0  0  0  0  0  0  0
   -5.9400   18.6500  -35.6800 H   0  0  0  0  0  0  0  0  0  0  0  0
   -6.9568   16.7266  -35.1446 H   0  0  0  0  0  0  0  0  0  0  0  0
   -5.5574   16.6664  -33.9970 H   0  0  0  0  0  0  0  0  0  0  0  0
   -8.4199   16.8195  -33.4223 H   0  0  0  0  0  0  0  0  0  0  0  0
   -7.0445   16.5150  -32.3115 H   0  0  0  0  0  0  0  0  0  0  0  0
   -9.4239   18.8470  -33.5358 H   0  0  0  0  0  0  0  0  0  0  0  0
   -9.5426   18.4256  -31.7901 H   0  0  0  0  0  0  0  0  0  0  0  0
   -9.0616   20.6010  -31.0910 H   0  0  0  0  0  0  0  0  0  0  0  0
   -8.1821   21.0064  -32.6039 H   0  0  0  0  0  0  0  0  0  0  0  0
   -9.9763   20.9192  -32.6039 H   0  0  0  0  0  0  0  0  0  0  0  0
   -6.2972   19.5697  -31.1971 H   0  0  0  0  0  0  0  0  0  0  0  0
   -7.7393   18.7856  -30.4548 H   0  0  0  0  0  0  0  0  0  0  0  0
   -6.0346   17.3194  -29.8088 H   0  0  0  0  0  0  0  0  0  0  0  0
   -6.6033   16.5547  -31.3314 H   0  0  0  0  0  0  0  0  0  0  0  0
   -5.1109   17.5544  -31.3314 H   0  0  0  0  0  0  0  0  0  0  0  0
   -4.3719   16.8564  -35.5634 H   0  0  0  0  0  0  0  0  0  0  0  0
   -2.1592   15.7765  -35.9017 H   0  0  0  0  0  0  0  0  0  0  0  0
   -0.1338   16.6903  -34.7935 H   0  0  0  0  0  0  0  0  0  0  0  0
   -0.3062   18.6427  -33.2719 H   0  0  0  0  0  0  0  0  0  0  0  0
   -1.8056   20.1694  -30.6420 H   0  0  0  0  0  0  0  0  0  0  0  0
   -0.6128   19.6205  -31.8679 H   0  0  0  0  0  0  0  0  0  0  0  0
   -1.1813   21.3245  -31.8679 H   0  0  0  0  0  0  0  0  0  0  0  0
   -2.3634   22.7096  -31.0853 H   0  0  0  0  0  0  0  0  0  0  0  0
  1  2  1  0
  2  3  1  0
  3  4  1  0
  4  5  1  0
  5  6  1  0
  6  7  2  0
  7  8  1  0
  8  9  2  0
  9 10  1  0
 10 11  1  0
 11 12  2  0
 12 13  1  0
 13 14  1  0
 14 15  1  0
 15 16  1  0
 16 17  1  0
 17 18  1  0
 16 19  1  0
 19 20  1  0
 12 21  1  0
 21 22  2  0
 22 23  1  0
 23 24  2  0
 24 25  1  0
 25 26  2  0
 26 27  1  0
 27 28  1  0
 27 29  2  0
 29 30  1  0
 30 31  2  0
 31  6  1  0
 30  9  1  0
 29 11  1  0
 26 21  1  0
  1 32  1  0
  1 33  1  0
  1 34  1  0
  2 35  1  0
  2 36  1  0
  3 37  1  0
  3 38  1  0
  4 39  1  0
  4 40  1  0
  7 41  1  0
  8 42  1  0
 13 43  1  0
 13 44  1  0
 14 45  1  0
 14 46  1  0
 15 47  1  0
 15 48  1  0
 17 49  1  0
 17 50  1  0
 18 51  1  0
 18 52  1  0
 18 53  1  0
 19 54  1  0
 19 55  1  0
 20 56  1  0
 20 57  1  0
 20 58  1  0
 22 59  1  0
 23 60  1  0
 24 61  1  0
 25 62  1  0
 28 63  1  0
 28 64  1  0
 28 65  1  0
 31 66  1  0
M  CHG  2  13   1  27   1
M  END
>  <UniqueID>  (41) 
39

>  <SMILES>  (41) 
CCCCOc1ccc2oc3c([NH2+]CCN(CC)CC)c4ccccc4[n+](C)c3c2c1

>  <Energy>  (41) 
120.75400565893906

>  <Genealogy>  (41) 
CCCCOc1ccc2oc3c([NH2+]CCN(CC)CC)c4ccccc4[n+](C)c3c2c1 (protonated)
CCCCOc1ccc2oc3c([NH2+]CCN(CC)CC)c4ccccc4[n+](C)c3c2c1 (3D coordinates assigned)
CCCCOc1ccc2oc3c([NH2+]CCN(CC)CC)c4ccccc4[n+](C)c3c2c1 (optimized conformer: 120.75400565893906 kcal/mol)

>  <smiles>  (41) 
CCCCOc1ccc2oc3c(NCCN(CC)CC)c4ccccc4[n+](C)c3c2c1

>  <score_type>  (41) 
oracle

>  <origin>  (41) 
adg

>  <m_score__min__energy>  (41) 
-7.4100000000000001

>  <m_primary>  (41) 
energy

$$$$
41:0
     RDKit          3D

 35 36  0  0  0  0  0  0  0  0999 V2000
   -3.3790   21.9210  -32.7740 C   0  0  0  0  0  0  0  0  0  0  0  0
   -4.5090   21.0080  -32.3010 C   0  0  0  0  0  0  0  0  0  0  0  0
   -5.7250   21.2100  -33.1040 N   0  0  0  0  0  0  0  0  0  0  0  0
   -6.7850   20.3280  -32.6630 C   0  0  0  0  0  0  0  0  0  0  0  0
   -6.6530   18.9410  -32.8750 C   0  0  0  0  0  0  0  0  0  0  0  0
   -7.6760   18.0610  -32.5180 C   0  0  0  0  0  0  0  0  0  0  0  0
   -8.8570   18.5510  -31.9640 C   0  0  0  0  0  0  0  0  0  0  0  0
   -9.8570   17.6950  -31.6350 F   0  0  0  0  0  0  0  0  0  0  0  0
   -9.0160   19.9220  -31.7600 C   0  0  0  0  0  0  0  0  0  0  0  0
   -7.9850   20.8180  -32.0790 C   0  0  0  0  0  0  0  0  0  0  0  0
   -8.2900   22.5790  -31.8210 S   0  0  0  0  0  0  0  0  0  0  0  0
   -7.6030   22.6590  -30.1280 C   0  0  0  0  0  0  0  0  0  0  0  0
   -6.3270   23.4490  -30.0770 C   0  0  0  0  0  0  0  0  0  0  0  0
   -6.2030   24.6500  -30.7980 C   0  0  0  0  0  0  0  0  0  0  0  0
   -4.9970   25.3580  -30.7840 C   0  0  0  0  0  0  0  0  0  0  0  0
   -3.9110   24.8780  -30.0460 C   0  0  0  0  0  0  0  0  0  0  0  0
   -4.0290   23.6890  -29.3210 C   0  0  0  0  0  0  0  0  0  0  0  0
   -5.2310   22.9750  -29.3360 C   0  0  0  0  0  0  0  0  0  0  0  0
   -2.8581   22.3419  -31.9014 H   0  0  0  0  0  0  0  0  0  0  0  0
   -2.6682   21.3406  -33.3806 H   0  0  0  0  0  0  0  0  0  0  0  0
   -3.7971   22.7378  -33.3806 H   0  0  0  0  0  0  0  0  0  0  0  0
   -4.1871   19.9603  -32.3941 H   0  0  0  0  0  0  0  0  0  0  0  0
   -4.7384   21.2506  -31.2529 H   0  0  0  0  0  0  0  0  0  0  0  0
   -5.5100   21.0000  -34.1070 H   0  0  0  0  0  0  0  0  0  0  0  0
   -6.0130   22.2120  -33.0550 H   0  0  0  0  0  0  0  0  0  0  0  0
   -5.7314   18.5466  -33.3279 H   0  0  0  0  0  0  0  0  0  0  0  0
   -7.5498   16.9795  -32.6742 H   0  0  0  0  0  0  0  0  0  0  0  0
   -9.9600   20.3044  -31.3445 H   0  0  0  0  0  0  0  0  0  0  0  0
   -8.3422   23.1346  -29.4666 H   0  0  0  0  0  0  0  0  0  0  0  0
   -7.3809   21.6322  -29.8019 H   0  0  0  0  0  0  0  0  0  0  0  0
   -7.0574   25.0338  -31.3749 H   0  0  0  0  0  0  0  0  0  0  0  0
   -4.9028   26.2938  -31.3544 H   0  0  0  0  0  0  0  0  0  0  0  0
   -2.9633   25.4363  -30.0359 H   0  0  0  0  0  0  0  0  0  0  0  0
   -3.1749   23.3144  -28.7377 H   0  0  0  0  0  0  0  0  0  0  0  0
   -5.3191   22.0386  -28.7656 H   0  0  0  0  0  0  0  0  0  0  0  0
  1  2  1  0
  2  3  1  0
  3  4  1  0
  4  5  2  0
  5  6  1  0
  6  7  2  0
  7  8  1  0
  7  9  1  0
  9 10  2  0
 10 11  1  0
 11 12  1  0
 12 13  1  0
 13 14  2  0
 14 15  1  0
 15 16  2  0
 16 17  1  0
 17 18  2  0
 10  4  1  0
 18 13  1  0
  1 19  1  0
  1 20  1  0
  1 21  1  0
  2 22  1  0
  2 23  1  0
  3 24  1  0
  3 25  1  0
  5 26  1  0
  6 27  1  0
  9 28  1  0
 12 29  1  0
 12 30  1  0
 14 31  1  0
 15 32  1  0
 16 33  1  0
 17 34  1  0
 18 35  1  0
M  CHG  1   3   1
M  END
>  <UniqueID>  (42) 
40

>  <SMILES>  (42) 
CC[NH2+]c1ccc(F)cc1SCc1ccccc1

>  <Energy>  (42) 
30.51185047186221

>  <Genealogy>  (42) 
CC[NH2+]c1ccc(F)cc1SCc1ccccc1 (protonated)
CC[NH2+]c1ccc(F)cc1SCc1ccccc1 (3D coordinates assigned)
CC[NH2+]c1ccc(F)cc1SCc1ccccc1 (optimized conformer: 30.51185047186221 kcal/mol)

>  <smiles>  (42) 
CCNc1ccc(F)cc1SCc1ccccc1

>  <score_type>  (42) 
oracle

>  <origin>  (42) 
adg

>  <m_score__min__energy>  (42) 
-6.3099999999999996

>  <m_primary>  (42) 
energy

$$$$
42:0
     RDKit          3D

 44 46  0  0  0  0  0  0  0  0999 V2000
   -3.6990   23.9700  -30.0960 C   0  0  0  0  0  0  0  0  0  0  0  0
   -4.8740   23.1750  -29.5180 C   0  0  0  0  0  0  0  0  0  0  0  0
   -6.1660   23.8870  -29.6580 N   0  0  1  0  0  0  0  0  0  0  0  0
   -6.0300   25.1410  -30.4290 C   0  0  0  0  0  0  0  0  0  0  0  0
   -7.2290   23.0050  -30.2060 C   0  0  0  0  0  0  0  0  0  0  0  0
   -7.7640   23.4130  -31.5990 C   0  0  0  0  0  0  0  0  0  0  0  0
   -6.9760   22.8080  -32.6760 N   0  0  0  0  0  0  0  0  0  0  0  0
   -6.6200   21.4120  -32.7050 C   0  0  0  0  0  0  0  0  0  0  0  0
   -5.2700   20.9910  -32.8400 C   0  0  0  0  0  0  0  0  0  0  0  0
   -4.2200   21.9280  -32.9270 C   0  0  0  0  0  0  0  0  0  0  0  0
   -2.9010   21.5090  -33.0840 C   0  0  0  0  0  0  0  0  0  0  0  0
   -2.5990   20.1520  -33.1530 C   0  0  0  0  0  0  0  0  0  0  0  0
   -3.6140   19.1990  -33.0630 C   0  0  0  0  0  0  0  0  0  0  0  0
   -4.9640   19.5870  -32.9060 C   0  0  0  0  0  0  0  0  0  0  0  0
   -5.9770   18.6470  -32.8130 N   0  0  0  0  0  0  0  0  0  0  0  0
   -5.7090   17.2010  -32.8740 C   0  0  0  0  0  0  0  0  0  0  0  0
   -7.2560   19.0870  -32.6380 C   0  0  0  0  0  0  0  0  0  0  0  0
   -8.3200   18.3360  -32.4800 O   0  0  0  0  0  0  0  0  0  0  0  0
   -9.3530   19.1350  -32.3060 C   0  0  0  0  0  0  0  0  0  0  0  0
   -8.9460   20.4610  -32.3540 C   0  0  0  0  0  0  0  0  0  0  0  0
   -7.5860   20.4110  -32.5840 C   0  0  0  0  0  0  0  0  0  0  0  0
   -3.0937   24.3796  -29.2739 H   0  0  0  0  0  0  0  0  0  0  0  0
   -3.0765   23.3068  -30.7146 H   0  0  0  0  0  0  0  0  0  0  0  0
   -4.0831   24.7945  -30.7146 H   0  0  0  0  0  0  0  0  0  0  0  0
   -4.9426   22.2128  -30.0466 H   0  0  0  0  0  0  0  0  0  0  0  0
   -4.6853   23.0343  -28.4435 H   0  0  0  0  0  0  0  0  0  0  0  0
   -6.4880   24.1550  -28.6960 H   0  0  0  0  0  0  0  0  0  0  0  0
   -5.9380   25.9898  -29.7354 H   0  0  0  0  0  0  0  0  0  0  0  0
   -5.1325   25.0863  -31.0627 H   0  0  0  0  0  0  0  0  0  0  0  0
   -6.9183   25.2800  -31.0627 H   0  0  0  0  0  0  0  0  0  0  0  0
   -6.8213   21.9862  -30.2821 H   0  0  0  0  0  0  0  0  0  0  0  0
   -8.0808   23.0843  -29.5145 H   0  0  0  0  0  0  0  0  0  0  0  0
   -8.8089   23.0819  -31.6914 H   0  0  0  0  0  0  0  0  0  0  0  0
   -7.6898   24.5067  -31.6900 H   0  0  0  0  0  0  0  0  0  0  0  0
   -6.6000   23.4370  -33.4200 H   0  0  0  0  0  0  0  0  0  0  0  0
   -4.4453   23.0032  -32.8702 H   0  0  0  0  0  0  0  0  0  0  0  0
   -2.0945   22.2537  -33.1538 H   0  0  0  0  0  0  0  0  0  0  0  0
   -1.5550   19.8294  -33.2791 H   0  0  0  0  0  0  0  0  0  0  0  0
   -3.3599   18.1300  -33.1150 H   0  0  0  0  0  0  0  0  0  0  0  0
   -5.6344   16.7985  -31.8530 H   0  0  0  0  0  0  0  0  0  0  0  0
   -6.5293   16.6982  -33.4073 H   0  0  0  0  0  0  0  0  0  0  0  0
   -4.7630   17.0256  -33.4073 H   0  0  0  0  0  0  0  0  0  0  0  0
  -10.3883   18.7997  -32.1458 H   0  0  0  0  0  0  0  0  0  0  0  0
   -9.5718   21.3577  -32.2346 H   0  0  0  0  0  0  0  0  0  0  0  0
  1  2  1  0
  2  3  1  0
  3  4  1  0
  3  5  1  0
  5  6  1  0
  6  7  1  0
  7  8  1  0
  8  9  2  0
  9 10  1  0
 10 11  2  0
 11 12  1  0
 12 13  2  0
 13 14  1  0
 14 15  2  0
 15 16  1  0
 15 17  1  0
 17 18  1  0
 18 19  1  0
 19 20  2  0
 20 21  1  0
 21  8  1  0
 14  9  1  0
 21 17  2  0
  1 22  1  0
  1 23  1  0
  1 24  1  0
  2 25  1  0
  2 26  1  0
  3 27  1  1
  4 28  1  0
  4 29  1  0
  4 30  1  0
  5 31  1  0
  5 32  1  0
  6 33  1  0
  6 34  1  0
  7 35  1  0
 10 36  1  0
 11 37  1  0
 12 38  1  0
 13 39  1  0
 16 40  1  0
 16 41  1  0
 16 42  1  0
 19 43  1  0
 20 44  1  0
M  CHG  2   3   1  15   1
M  END
>  <UniqueID>  (43) 
41

>  <SMILES>  (43) 
CC[N@@H+](C)CCNc1c2ccccc2[n+](C)c2occc12

>  <Energy>  (43) 
93.55191822183902

>  <Genealogy>  (43) 
CC[NH+](C)CCNc1c2ccccc2[n+](C)c2occc12 (protonated)
CC[N@@H+](C)CCNc1c2ccccc2[n+](C)c2occc12 (chirality)
CC[N@@H+](C)CCNc1c2ccccc2[n+](C)c2occc12 (3D coordinates assigned)
CC[N@@H+](C)CCNc1c2ccccc2[n+](C)c2occc12 (optimized conformer: 93.55191822183902 kcal/mol)

>  <smiles>  (43) 
CCN(C)CCNc1c2ccccc2[n+](C)c2occc12

>  <score_type>  (43) 
oracle

>  <origin>  (43) 
adg

>  <m_score__min__energy>  (43) 
-6.3200000000000003

>  <m_primary>  (43) 
energy

$$$$
