0:0
     RDKit          3D

 35 36  0  0  0  0  0  0  0  0999 V2000
   -9.3400   20.2960  -32.2960 C   0  0  0  0  0  0  0  0  0  0  0  0
   -7.8860   20.4420  -32.4370 N   0  0  0  0  0  0  0  0  0  0  0  0
   -7.1140   19.3340  -33.0150 C   0  0  0  0  0  0  0  0  0  0  0  0
   -7.2220   21.6610  -32.0140 C   0  0  0  0  0  0  0  0  0  0  0  0
   -7.8890   22.6100  -31.2100 C   0  0  0  0  0  0  0  0  0  0  0  0
   -7.2460   23.7820  -30.8020 C   0  0  0  0  0  0  0  0  0  0  0  0
   -5.9190   24.0310  -31.1770 C   0  0  0  0  0  0  0  0  0  0  0  0
   -5.2230   25.2940  -30.7410 C   0  0  0  0  0  0  0  0  0  0  0  0
   -3.8260   25.0230  -30.3960 N   0  0  0  0  0  0  0  0  0  0  0  0
   -3.3840   23.8950  -29.6160 C   0  0  0  0  0  0  0  0  0  0  0  0
   -3.9620   23.6660  -28.3550 C   0  0  0  0  0  0  0  0  0  0  0  0
   -3.5510   22.5850  -27.5710 C   0  0  0  0  0  0  0  0  0  0  0  0
   -2.5610   21.7160  -28.0370 C   0  0  0  0  0  0  0  0  0  0  0  0
   -2.0470   20.3590  -27.0520 Cl  0  0  0  0  0  0  0  0  0  0  0  0
   -1.9840   21.9290  -29.2930 C   0  0  0  0  0  0  0  0  0  0  0  0
   -2.3910   23.0090  -30.0800 C   0  0  0  0  0  0  0  0  0  0  0  0
   -5.2510   23.1020  -31.9850 C   0  0  0  0  0  0  0  0  0  0  0  0
   -5.8900   21.9300  -32.3970 C   0  0  0  0  0  0  0  0  0  0  0  0
   -9.6040   20.2695  -31.2285 H   0  0  0  0  0  0  0  0  0  0  0  0
   -9.8424   21.1482  -32.7769 H   0  0  0  0  0  0  0  0  0  0  0  0
   -9.6630   19.3609  -32.7769 H   0  0  0  0  0  0  0  0  0  0  0  0
   -6.6880   18.7226  -32.2058 H   0  0  0  0  0  0  0  0  0  0  0  0
   -7.7749   18.7114  -33.6360 H   0  0  0  0  0  0  0  0  0  0  0  0
   -6.3010   19.7383  -33.6360 H   0  0  0  0  0  0  0  0  0  0  0  0
   -8.9282   22.4249  -30.9005 H   0  0  0  0  0  0  0  0  0  0  0  0
   -7.7852   24.5137  -30.1824 H   0  0  0  0  0  0  0  0  0  0  0  0
   -5.2568   26.0263  -31.5611 H   0  0  0  0  0  0  0  0  0  0  0  0
   -5.7357   25.6915  -29.8527 H   0  0  0  0  0  0  0  0  0  0  0  0
   -3.1060   25.6740  -30.7830 H   0  0  0  0  0  0  0  0  0  0  0  0
   -4.7444   24.3436  -27.9825 H   0  0  0  0  0  0  0  0  0  0  0  0
   -4.0079   22.4176  -26.5845 H   0  0  0  0  0  0  0  0  0  0  0  0
   -1.2069   21.2437  -29.6625 H   0  0  0  0  0  0  0  0  0  0  0  0
   -1.9338   23.1689  -31.0676 H   0  0  0  0  0  0  0  0  0  0  0  0
   -4.2146   23.2969  -32.2977 H   0  0  0  0  0  0  0  0  0  0  0  0
   -5.3492   21.2085  -33.0270 H   0  0  0  0  0  0  0  0  0  0  0  0
  1  2  1  0
  2  3  1  0
  2  4  1  0
  4  5  2  0
  5  6  1  0
  6  7  2  0
  7  8  1  0
  8  9  1  0
  9 10  1  0
 10 11  2  0
 11 12  1  0
 12 13  2  0
 13 14  1  0
 13 15  1  0
 15 16  2  0
  7 17  1  0
 17 18  2  0
 18  4  1  0
 16 10  1  0
  1 19  1  0
  1 20  1  0
  1 21  1  0
  3 22  1  0
  3 23  1  0
  3 24  1  0
  5 25  1  0
  6 26  1  0
  8 27  1  0
  8 28  1  0
  9 29  1  0
 11 30  1  0
 12 31  1  0
 15 32  1  0
 16 33  1  0
 17 34  1  0
 18 35  1  0
M  END
>  <UniqueID>  (1) 
1

>  <SMILES>  (1) 
CN(C)c1ccc(CNc2ccc(Cl)cc2)cc1

>  <Energy>  (1) 
35.633368149887694

>  <Genealogy>  (1) 
CN(C)c1ccc(CNc2ccc(Cl)cc2)cc1 (3D coordinates assigned)
CN(C)c1ccc(CNc2ccc(Cl)cc2)cc1 (optimized conformer: 35.633368149887694 kcal/mol)

>  <smiles>  (1) 
CN(C)c1ccc(CNc2ccc(Cl)cc2)cc1

>  <score_type>  (1) 
oracle

>  <origin>  (1) 
adg

>  <m_score__min__energy>  (1) 
-7.21

>  <m_primary>  (1) 
energy

$$$$
1:0
     RDKit          3D

 28 30  0  0  0  0  0  0  0  0999 V2000
   -0.8900   23.2300  -28.6980 O   0  0  0  0  0  0  0  0  0  0  0  0
   -1.9530   23.2910  -29.3710 C   0  0  0  0  0  0  0  0  0  0  0  0
   -2.4840   22.1500  -29.8820 N   0  0  0  0  0  0  0  0  0  0  0  0
   -3.6270   22.1700  -30.6120 C   0  0  0  0  0  0  0  0  0  0  0  0
   -4.1500   20.9790  -31.1250 C   0  0  0  0  0  0  0  0  0  0  0  0
   -5.3370   20.9890  -31.8740 C   0  0  0  0  0  0  0  0  0  0  0  0
   -5.8770   19.7280  -32.4300 C   0  0  0  0  0  0  0  0  0  0  0  0
   -5.0280   18.8890  -33.1720 C   0  0  0  0  0  0  0  0  0  0  0  0
   -5.5110   17.6970  -33.7200 C   0  0  0  0  0  0  0  0  0  0  0  0
   -6.8430   17.3290  -33.5290 C   0  0  0  0  0  0  0  0  0  0  0  0
   -7.6950   18.1470  -32.7830 C   0  0  0  0  0  0  0  0  0  0  0  0
   -7.2220   19.3430  -32.2290 C   0  0  0  0  0  0  0  0  0  0  0  0
   -8.3260   20.2950  -31.2390 Cl  0  0  0  0  0  0  0  0  0  0  0  0
   -5.9830   22.2110  -32.1230 C   0  0  0  0  0  0  0  0  0  0  0  0
   -5.4640   23.4050  -31.6130 C   0  0  0  0  0  0  0  0  0  0  0  0
   -4.2820   23.3930  -30.8530 C   0  0  0  0  0  0  0  0  0  0  0  0
   -3.7180   24.5640  -30.3160 C   0  0  0  0  0  0  0  0  0  0  0  0
   -4.2750   25.6800  -30.5090 O   0  0  0  0  0  0  0  0  0  0  0  0
   -2.5630   24.4920  -29.5850 N   0  0  0  0  0  0  0  0  0  0  0  0
   -1.9930   25.6320  -29.0490 O   0  0  0  0  0  0  0  0  0  0  0  0
   -3.6280   20.0285  -30.9405 H   0  0  0  0  0  0  0  0  0  0  0  0
   -3.9758   19.1723  -33.3227 H   0  0  0  0  0  0  0  0  0  0  0  0
   -4.8400   17.0485  -34.3024 H   0  0  0  0  0  0  0  0  0  0  0  0
   -7.2228   16.3938  -33.9662 H   0  0  0  0  0  0  0  0  0  0  0  0
   -8.7430   17.8501  -32.6299 H   0  0  0  0  0  0  0  0  0  0  0  0
   -6.9043   22.2289  -32.7238 H   0  0  0  0  0  0  0  0  0  0  0  0
   -5.9820   24.3558  -31.8071 H   0  0  0  0  0  0  0  0  0  0  0  0
   -2.5030   26.5040  -28.9670 H   0  0  0  0  0  0  0  0  0  0  0  0
  1  2  2  0
  2  3  1  0
  3  4  1  0
  4  5  2  0
  5  6  1  0
  6  7  1  0
  7  8  2  0
  8  9  1  0
  9 10  2  0
 10 11  1  0
 11 12  2  0
 12 13  1  0
  6 14  2  0
 14 15  1  0
 15 16  2  0
 16 17  1  0
 17 18  2  0
 17 19  1  0
 19 20  1  0
 19  2  1  0
 16  4  1  0
 12  7  1  0
  5 21  1  0
  8 22  1  0
  9 23  1  0
 10 24  1  0
 11 25  1  0
 14 26  1  0
 15 27  1  0
 20 28  1  0
M  CHG  1   3  -1
M  END
>  <UniqueID>  (2) 
2

>  <SMILES>  (2) 
O=c1[n-]c2cc(-c3ccccc3Cl)ccc2c(=O)n1O

>  <Energy>  (2) 
44.512427034502764

>  <Genealogy>  (2) 
O=c1[n-]c2cc(-c3ccccc3Cl)ccc2c(=O)n1O (protonated)
O=c1[n-]c2cc(-c3ccccc3Cl)ccc2c(=O)n1O (3D coordinates assigned)
O=c1[n-]c2cc(-c3ccccc3Cl)ccc2c(=O)n1O (optimized conformer: 44.512427034502764 kcal/mol)

>  <smiles>  (2) 
O=c1[nH]c2cc(-c3ccccc3Cl)ccc2c(=O)n1O

>  <score_type>  (2) 
oracle

>  <origin>  (2) 
adg

>  <m_score__min__energy>  (2) 
-9.9100000000000001

>  <m_primary>  (2) 
energy

$$$$
2:0
     RDKit          3D

 32 33  0  0  0  0  0  0  0  0999 V2000
   -7.5150   22.7700  -31.9610 C   0  0  0  0  0  0  0  0  0  0  0  0
   -7.6460   21.2850  -32.1590 C   0  0  0  0  0  0  0  0  0  0  0  0
   -8.8520   20.6450  -31.8250 C   0  0  0  0  0  0  0  0  0  0  0  0
   -8.9970   19.2680  -32.0070 C   0  0  0  0  0  0  0  0  0  0  0  0
   -7.9470   18.5170  -32.5350 C   0  0  0  0  0  0  0  0  0  0  0  0
   -6.7480   19.1410  -32.8830 C   0  0  0  0  0  0  0  0  0  0  0  0
   -6.5800   20.5240  -32.6910 C   0  0  0  0  0  0  0  0  0  0  0  0
   -5.3560   21.1620  -33.0960 N   0  0  0  0  0  0  0  0  0  0  0  0
   -4.3030   21.5150  -32.1870 C   0  0  0  0  0  0  0  0  0  0  0  0
   -2.7600   21.5320  -32.7510 S   0  0  0  0  0  0  0  0  0  0  0  0
   -4.5980   21.8210  -30.8090 N   0  0  0  0  0  0  0  0  0  0  0  0
   -3.6550   22.3730  -29.8760 C   0  0  0  0  0  0  0  0  0  0  0  0
   -3.3410   23.7430  -29.8930 C   0  0  0  0  0  0  0  0  0  0  0  0
   -2.4460   24.2760  -28.9530 C   0  0  0  0  0  0  0  0  0  0  0  0
   -2.1220   25.6300  -28.9710 O   0  0  0  0  0  0  0  0  0  0  0  0
   -1.8770   23.4430  -27.9850 C   0  0  0  0  0  0  0  0  0  0  0  0
   -2.2080   22.0860  -27.9470 C   0  0  0  0  0  0  0  0  0  0  0  0
   -3.1000   21.5530  -28.8820 C   0  0  0  0  0  0  0  0  0  0  0  0
   -3.4120   20.2330  -28.8310 F   0  0  0  0  0  0  0  0  0  0  0  0
   -7.4951   22.9960  -30.8847 H   0  0  0  0  0  0  0  0  0  0  0  0
   -6.5824   23.1212  -32.4268 H   0  0  0  0  0  0  0  0  0  0  0  0
   -8.3717   23.2790  -32.4268 H   0  0  0  0  0  0  0  0  0  0  0  0
   -9.6876   21.2329  -31.4174 H   0  0  0  0  0  0  0  0  0  0  0  0
   -9.9413   18.7746  -31.7334 H   0  0  0  0  0  0  0  0  0  0  0  0
   -8.0639   17.4325  -32.6772 H   0  0  0  0  0  0  0  0  0  0  0  0
   -5.9277   18.5461  -33.3110 H   0  0  0  0  0  0  0  0  0  0  0  0
   -5.2090   21.3510  -34.1130 H   0  0  0  0  0  0  0  0  0  0  0  0
   -5.5530   21.6130  -30.4410 H   0  0  0  0  0  0  0  0  0  0  0  0
   -3.7991   24.4003  -30.6467 H   0  0  0  0  0  0  0  0  0  0  0  0
   -1.6060   26.0420  -29.7400 H   0  0  0  0  0  0  0  0  0  0  0  0
   -1.1680   23.8563  -27.2525 H   0  0  0  0  0  0  0  0  0  0  0  0
   -1.7652   21.4350  -27.1788 H   0  0  0  0  0  0  0  0  0  0  0  0
  1  2  1  0
  2  3  2  0
  3  4  1  0
  4  5  2  0
  5  6  1  0
  6  7  2  0
  7  8  1  0
  8  9  1  0
  9 10  2  0
  9 11  1  0
 11 12  1  0
 12 13  2  0
 13 14  1  0
 14 15  1  0
 14 16  2  0
 16 17  1  0
 17 18  2  0
 18 19  1  0
  7  2  1  0
 18 12  1  0
  1 20  1  0
  1 21  1  0
  1 22  1  0
  3 23  1  0
  4 24  1  0
  5 25  1  0
  6 26  1  0
  8 27  1  0
 11 28  1  0
 13 29  1  0
 15 30  1  0
 16 31  1  0
 17 32  1  0
M  END
>  <UniqueID>  (3) 
3

>  <SMILES>  (3) 
Cc1ccccc1NC(=S)Nc1cc(O)ccc1F

>  <Energy>  (3) 
43.08676774879337

>  <Genealogy>  (3) 
Cc1ccccc1NC(=S)Nc1cc(O)ccc1F (3D coordinates assigned)
Cc1ccccc1NC(=S)Nc1cc(O)ccc1F (optimized conformer: 43.08676774879337 kcal/mol)

>  <smiles>  (3) 
Cc1ccccc1NC(=S)Nc1cc(O)ccc1F

>  <score_type>  (3) 
oracle

>  <origin>  (3) 
adg

>  <m_score__min__energy>  (3) 
-7.9400000000000004

>  <m_primary>  (3) 
energy

$$$$
3:0
     RDKit          3D

 37 40  0  0  0  0  0  0  0  0999 V2000
   -3.8610   25.2970  -30.7610 O   0  0  0  0  0  0  0  0  0  0  0  0
   -4.1340   24.1350  -30.3550 C   0  0  0  0  0  0  0  0  0  0  0  0
   -3.3280   23.5140  -29.3400 N   0  0  0  0  0  0  0  0  0  0  0  0
   -2.3620   24.2130  -28.5380 C   0  0  0  0  0  0  0  0  0  0  0  0
   -1.0310   24.2950  -28.9730 C   0  0  0  0  0  0  0  0  0  0  0  0
   -0.0970   24.9340  -28.2190 N   0  0  0  0  0  0  0  0  0  0  0  0
   -0.4060   25.5000  -27.0230 C   0  0  0  0  0  0  0  0  0  0  0  0
    0.5830   26.1490  -26.2750 C   0  0  0  0  0  0  0  0  0  0  0  0
    0.2620   26.7220  -25.0400 C   0  0  0  0  0  0  0  0  0  0  0  0
   -1.0450   26.6480  -24.5480 C   0  0  0  0  0  0  0  0  0  0  0  0
   -2.0390   26.0000  -25.2880 C   0  0  0  0  0  0  0  0  0  0  0  0
   -1.7280   25.4250  -26.5300 C   0  0  0  0  0  0  0  0  0  0  0  0
   -2.7020   24.7720  -27.2940 C   0  0  0  0  0  0  0  0  0  0  0  0
   -5.2980   23.4120  -30.9180 C   0  0  0  0  0  0  0  0  0  0  0  0
   -6.5770   23.9350  -30.6640 C   0  0  0  0  0  0  0  0  0  0  0  0
   -7.7140   23.3450  -31.2160 C   0  0  0  0  0  0  0  0  0  0  0  0
   -7.5970   22.2210  -32.0300 C   0  0  0  0  0  0  0  0  0  0  0  0
   -6.3390   21.6610  -32.2870 C   0  0  0  0  0  0  0  0  0  0  0  0
   -6.2350   20.5150  -33.0900 C   0  0  0  0  0  0  0  0  0  0  0  0
   -4.9900   19.9310  -33.3250 C   0  0  0  0  0  0  0  0  0  0  0  0
   -3.8430   20.4760  -32.7520 C   0  0  0  0  0  0  0  0  0  0  0  0
   -3.9260   21.6180  -31.9520 C   0  0  0  0  0  0  0  0  0  0  0  0
   -5.1710   22.2460  -31.7220 C   0  0  0  0  0  0  0  0  0  0  0  0
   -3.3830   22.4740  -29.2450 H   0  0  0  0  0  0  0  0  0  0  0  0
   -0.7406   23.8391  -29.9310 H   0  0  0  0  0  0  0  0  0  0  0  0
    1.6124   26.2085  -26.6582 H   0  0  0  0  0  0  0  0  0  0  0  0
    1.0403   27.2326  -24.4538 H   0  0  0  0  0  0  0  0  0  0  0  0
   -1.2918   27.1007  -23.5763 H   0  0  0  0  0  0  0  0  0  0  0  0
   -3.0653   25.9409  -24.8965 H   0  0  0  0  0  0  0  0  0  0  0  0
   -3.7340   24.6962  -26.9208 H   0  0  0  0  0  0  0  0  0  0  0  0
   -6.6831   24.8214  -30.0214 H   0  0  0  0  0  0  0  0  0  0  0  0
   -8.7072   23.7693  -31.0075 H   0  0  0  0  0  0  0  0  0  0  0  0
   -8.4973   21.7706  -32.4735 H   0  0  0  0  0  0  0  0  0  0  0  0
   -7.1391   20.0751  -33.5362 H   0  0  0  0  0  0  0  0  0  0  0  0
   -4.9138   19.0387  -33.9638 H   0  0  0  0  0  0  0  0  0  0  0  0
   -2.8657   20.0039  -32.9308 H   0  0  0  0  0  0  0  0  0  0  0  0
   -3.0142   22.0322  -31.4970 H   0  0  0  0  0  0  0  0  0  0  0  0
  1  2  2  0
  2  3  1  0
  3  4  1  0
  4  5  2  0
  5  6  1  0
  6  7  2  0
  7  8  1  0
  8  9  2  0
  9 10  1  0
 10 11  2  0
 11 12  1  0
 12 13  2  0
  2 14  1  0
 14 15  2  0
 15 16  1  0
 16 17  2  0
 17 18  1  0
 18 19  2  0
 19 20  1  0
 20 21  2  0
 21 22  1  0
 22 23  2  0
 13  4  1  0
 23 14  1  0
 12  7  1  0
 23 18  1  0
  3 24  1  0
  5 25  1  0
  8 26  1  0
  9 27  1  0
 10 28  1  0
 11 29  1  0
 13 30  1  0
 15 31  1  0
 16 32  1  0
 17 33  1  0
 19 34  1  0
 20 35  1  0
 21 36  1  0
 22 37  1  0
M  END
>  <UniqueID>  (4) 
4

>  <SMILES>  (4) 
O=C(Nc1cnc2ccccc2c1)c1cccc2ccccc12

>  <Energy>  (4) 
59.01165641618164

>  <Genealogy>  (4) 
O=C(Nc1cnc2ccccc2c1)c1cccc2ccccc12 (3D coordinates assigned)
O=C(Nc1cnc2ccccc2c1)c1cccc2ccccc12 (optimized conformer: 59.01165641618164 kcal/mol)

>  <smiles>  (4) 
O=C(Nc1cnc2ccccc2c1)c1cccc2ccccc12

>  <score_type>  (4) 
oracle

>  <origin>  (4) 
adg

>  <m_score__min__energy>  (4) 
-9.3000000000000007

>  <m_primary>  (4) 
energy

$$$$
4:0
     RDKit          3D

 52 54  0  0  0  0  0  0  0  0999 V2000
   -9.4340   20.4440  -32.3270 C   0  0  0  0  0  0  0  0  0  0  0  0
   -8.9710   21.5810  -31.6070 O   0  0  0  0  0  0  0  0  0  0  0  0
   -7.8910   22.3580  -32.0380 C   0  0  0  0  0  0  0  0  0  0  0  0
   -8.0800   23.5580  -32.3830 O   0  0  0  0  0  0  0  0  0  0  0  0
   -6.5660   21.7910  -32.0870 N   0  0  0  0  0  0  0  0  0  0  0  0
   -5.4080   22.6560  -32.3430 C   0  0  0  0  0  0  0  0  0  0  0  0
   -4.3030   21.8900  -33.0770 C   0  0  0  0  0  0  0  0  0  0  0  0
   -3.8860   20.5520  -32.3920 C   0  0  0  0  0  0  0  0  0  0  0  0
   -5.2100   19.7250  -32.2560 C   0  0  0  0  0  0  0  0  0  0  0  0
   -6.3280   20.4630  -31.5080 C   0  0  0  0  0  0  0  0  0  0  0  0
   -3.2670   20.7530  -30.9600 C   0  0  0  0  0  0  0  0  0  0  0  0
   -1.8550   21.2040  -30.9180 N   0  0  0  0  0  0  0  0  0  0  0  0
   -1.6340   22.6660  -30.8970 C   0  0  0  0  0  0  0  0  0  0  0  0
   -2.6990   23.3700  -30.1140 C   0  0  0  0  0  0  0  0  0  0  0  0
   -2.7190   23.4000  -28.7630 N   0  0  0  0  0  0  0  0  0  0  0  0
   -3.8080   24.1330  -28.4780 C   0  0  0  0  0  0  0  0  0  0  0  0
   -4.2380   24.4860  -27.0920 C   0  0  0  0  0  0  0  0  0  0  0  0
   -4.4120   24.5270  -29.6510 C   0  0  0  0  0  0  0  0  0  0  0  0
   -5.6320   25.3790  -29.7840 C   0  0  0  0  0  0  0  0  0  0  0  0
   -3.7160   24.0440  -30.6950 N   0  0  0  0  0  0  0  0  0  0  0  0
   -0.9840   20.4910  -31.8640 C   0  0  0  0  0  0  0  0  0  0  0  0
   -1.5720   20.4670  -33.2750 C   0  0  0  0  0  0  0  0  0  0  0  0
   -2.9180   19.8530  -33.2980 N   0  0  0  0  0  0  0  0  0  0  0  0
   -2.8280   18.3860  -33.1140 C   0  0  0  0  0  0  0  0  0  0  0  0
   -9.7512   19.6652  -31.6179 H   0  0  0  0  0  0  0  0  0  0  0  0
  -10.2862   20.7328  -32.9598 H   0  0  0  0  0  0  0  0  0  0  0  0
   -8.6225   20.0553  -32.9598 H   0  0  0  0  0  0  0  0  0  0  0  0
   -5.7256   23.5091  -32.9605 H   0  0  0  0  0  0  0  0  0  0  0  0
   -5.0112   23.0054  -31.3784 H   0  0  0  0  0  0  0  0  0  0  0  0
   -4.6586   21.6610  -34.0924 H   0  0  0  0  0  0  0  0  0  0  0  0
   -3.4137   22.5374  -33.0715 H   0  0  0  0  0  0  0  0  0  0  0  0
   -5.5713   19.4805  -33.2658 H   0  0  0  0  0  0  0  0  0  0  0  0
   -4.9682   18.8284  -31.6663 H   0  0  0  0  0  0  0  0  0  0  0  0
   -7.2537   19.8722  -31.5723 H   0  0  0  0  0  0  0  0  0  0  0  0
   -6.0213   20.5896  -30.4592 H   0  0  0  0  0  0  0  0  0  0  0  0
   -3.8753   21.5028  -30.4330 H   0  0  0  0  0  0  0  0  0  0  0  0
   -3.2736   19.7573  -30.4924 H   0  0  0  0  0  0  0  0  0  0  0  0
   -0.6563   22.8733  -30.4375 H   0  0  0  0  0  0  0  0  0  0  0  0
   -1.6656   23.0351  -31.9327 H   0  0  0  0  0  0  0  0  0  0  0  0
   -3.5997   23.9620  -26.3654 H   0  0  0  0  0  0  0  0  0  0  0  0
   -4.1456   25.5722  -26.9449 H   0  0  0  0  0  0  0  0  0  0  0  0
   -5.2854   24.1838  -26.9449 H   0  0  0  0  0  0  0  0  0  0  0  0
   -6.0071   25.6410  -28.7837 H   0  0  0  0  0  0  0  0  0  0  0  0
   -5.3793   26.2980  -30.3331 H   0  0  0  0  0  0  0  0  0  0  0  0
   -6.4078   24.8253  -30.3331 H   0  0  0  0  0  0  0  0  0  0  0  0
   -0.0061   20.9937  -31.8950 H   0  0  0  0  0  0  0  0  0  0  0  0
   -0.8852   19.4513  -31.5186 H   0  0  0  0  0  0  0  0  0  0  0  0
   -1.6449   21.4992  -33.6482 H   0  0  0  0  0  0  0  0  0  0  0  0
   -0.9092   19.8628  -33.9118 H   0  0  0  0  0  0  0  0  0  0  0  0
   -2.8136   18.1514  -32.0394 H   0  0  0  0  0  0  0  0  0  0  0  0
   -3.6982   17.9036  -33.5830 H   0  0  0  0  0  0  0  0  0  0  0  0
   -1.9053   18.0136  -33.5830 H   0  0  0  0  0  0  0  0  0  0  0  0
  1  2  1  0
  2  3  1  0
  3  4  2  0
  3  5  1  0
  5  6  1  0
  6  7  1  0
  7  8  1  0
  8  9  1  0
  9 10  1  0
  8 11  1  0
 11 12  1  0
 12 13  1  0
 13 14  1  0
 14 15  2  0
 15 16  1  0
 16 17  1  0
 16 18  2  0
 18 19  1  0
 18 20  1  0
 12 21  1  0
 21 22  1  0
 22 23  1  0
 23 24  1  0
 10  5  1  0
 20 14  1  0
 23  8  1  0
  1 25  1  0
  1 26  1  0
  1 27  1  0
  6 28  1  0
  6 29  1  0
  7 30  1  0
  7 31  1  0
  9 32  1  0
  9 33  1  0
 10 34  1  0
 10 35  1  0
 11 36  1  0
 11 37  1  0
 13 38  1  0
 13 39  1  0
 17 40  1  0
 17 41  1  0
 17 42  1  0
 19 43  1  0
 19 44  1  0
 19 45  1  0
 21 46  1  0
 21 47  1  0
 22 48  1  0
 22 49  1  0
 24 50  1  0
 24 51  1  0
 24 52  1  0
M  CHG  1  20  -1
M  END
>  <UniqueID>  (5) 
5

>  <SMILES>  (5) 
COC(=O)N1CCC2(CC1)CN(Cc1nc(C)c(C)[n-]1)CCN2C

>  <Energy>  (5) 
93.1426261921679

>  <Genealogy>  (5) 
COC(=O)N1CCC2(CC1)CN(Cc1nc(C)c(C)[n-]1)CCN2C (protonated)
COC(=O)N1CCC2(CC1)CN(Cc1nc(C)c(C)[n-]1)CCN2C (3D coordinates assigned)
COC(=O)N1CCC2(CC1)CN(Cc1nc(C)c(C)[n-]1)CCN2C (nonaromatic ring conformer: 93.1426261921679 kcal/mol)

>  <smiles>  (5) 
COC(=O)N1CCC2(CC1)CN(Cc1nc(C)c(C)[nH]1)CCN2C

>  <score_type>  (5) 
oracle

>  <origin>  (5) 
adg

>  <m_score__min__energy>  (5) 
-7.5599999999999996

>  <m_primary>  (5) 
energy

$$$$
5:0
     RDKit          3D

 28 30  0  0  0  0  0  0  0  0999 V2000
   -5.7360   26.2200  -30.9470 O   0  0  0  0  0  0  0  0  0  0  0  0
   -5.2420   24.9500  -30.3160 S   0  0  0  0  0  0  0  0  0  0  0  0
   -5.6040   24.9540  -28.8560 O   0  0  0  0  0  0  0  0  0  0  0  0
   -3.5160   24.8740  -30.4700 N   0  0  0  0  0  0  0  0  0  0  0  0
   -2.6480   24.0680  -29.6610 C   0  0  0  0  0  0  0  0  0  0  0  0
   -2.7640   22.6650  -29.6070 C   0  0  0  0  0  0  0  0  0  0  0  0
   -1.8930   21.9180  -28.8100 C   0  0  0  0  0  0  0  0  0  0  0  0
   -0.9030   22.5580  -28.0600 C   0  0  0  0  0  0  0  0  0  0  0  0
   -0.7830   23.9490  -28.1060 C   0  0  0  0  0  0  0  0  0  0  0  0
   -1.6530   24.7030  -28.9030 C   0  0  0  0  0  0  0  0  0  0  0  0
   -1.5230   26.0520  -28.9400 F   0  0  0  0  0  0  0  0  0  0  0  0
   -5.9830   23.5800  -31.1370 C   0  0  0  0  0  0  0  0  0  0  0  0
   -5.2260   22.8210  -32.0520 C   0  0  0  0  0  0  0  0  0  0  0  0
   -5.7910   21.7190  -32.7090 C   0  0  0  0  0  0  0  0  0  0  0  0
   -7.1200   21.3840  -32.4480 C   0  0  0  0  0  0  0  0  0  0  0  0
   -7.7600   20.3420  -33.0270 N   0  0  0  0  0  0  0  0  0  0  0  0
   -9.2590   20.4460  -32.3470 S   0  0  0  0  0  0  0  0  0  0  0  0
   -9.1790   21.7550  -31.3330 N   0  0  0  0  0  0  0  0  0  0  0  0
   -7.8910   22.1480  -31.5300 C   0  0  0  0  0  0  0  0  0  0  0  0
   -7.3240   23.2440  -30.8780 C   0  0  0  0  0  0  0  0  0  0  0  0
   -3.5427   22.1562  -30.1941 H   0  0  0  0  0  0  0  0  0  0  0  0
   -1.9869   20.8226  -28.7728 H   0  0  0  0  0  0  0  0  0  0  0  0
   -0.2186   21.9669  -27.4338 H   0  0  0  0  0  0  0  0  0  0  0  0
   -0.0038   24.4528  -27.5152 H   0  0  0  0  0  0  0  0  0  0  0  0
   -4.1801   23.0964  -32.2529 H   0  0  0  0  0  0  0  0  0  0  0  0
   -5.1954   21.1272  -33.4197 H   0  0  0  0  0  0  0  0  0  0  0  0
   -7.3970   19.6520  -33.7220 H   0  0  0  0  0  0  0  0  0  0  0  0
   -7.9193   23.8385  -30.1694 H   0  0  0  0  0  0  0  0  0  0  0  0
  1  2  2  0
  2  3  2  0
  2  4  1  0
  4  5  1  0
  5  6  2  0
  6  7  1  0
  7  8  2  0
  8  9  1  0
  9 10  2  0
 10 11  1  0
  2 12  1  0
 12 13  1  0
 13 14  2  0
 14 15  1  0
 15 16  2  0
 16 17  1  0
 17 18  1  0
 18 19  2  0
 19 20  1  0
 10  5  1  0
 20 12  2  0
 19 15  1  0
  6 21  1  0
  7 22  1  0
  8 23  1  0
  9 24  1  0
 13 25  1  0
 14 26  1  0
 16 27  1  0
 20 28  1  0
M  CHG  2   4  -1  16   1
M  END
>  <UniqueID>  (6) 
6

>  <SMILES>  (6) 
O=S(=O)([N-]c1ccccc1F)c1ccc2[nH+]snc2c1

>  <Energy>  (6) 
73.87841681657241

>  <Genealogy>  (6) 
O=S(=O)([N-]c1ccccc1F)c1ccc2[nH+]snc2c1 (protonated)
O=S(=O)([N-]c1ccccc1F)c1ccc2[nH+]snc2c1 (3D coordinates assigned)
O=S(=O)([N-]c1ccccc1F)c1ccc2[nH+]snc2c1 (optimized conformer: 73.87841681657241 kcal/mol)

>  <smiles>  (6) 
O=S(=O)(Nc1ccccc1F)c1ccc2nsnc2c1

>  <score_type>  (6) 
oracle

>  <origin>  (6) 
adg

>  <m_score__min__energy>  (6) 
-9.2599999999999998

>  <m_primary>  (6) 
energy

$$$$
6:0
     RDKit          3D

 53 56  0  0  0  0  0  0  0  0999 V2000
   -6.8720   17.8480  -32.0410 C   0  0  0  0  0  0  0  0  0  0  0  0
   -7.8550   18.7240  -32.7000 N   0  0  0  0  0  0  0  0  0  0  0  0
   -9.0940   18.8030  -31.9050 C   0  0  0  0  0  0  0  0  0  0  0  0
   -7.3390   20.0740  -33.0760 C   0  0  0  0  0  0  0  0  0  0  0  0
   -8.0210   21.2620  -32.3310 C   0  0  0  0  0  0  0  0  0  0  0  0
   -7.2380   21.7580  -31.1010 C   0  0  0  0  0  0  0  0  0  0  0  0
   -5.8030   21.9490  -31.3820 N   0  0  0  0  0  0  0  0  0  0  0  0
   -4.9430   22.6050  -30.4140 C   0  0  0  0  0  0  0  0  0  0  0  0
   -5.4490   23.5540  -29.5010 C   0  0  0  0  0  0  0  0  0  0  0  0
   -4.5920   24.1340  -28.5630 C   0  0  0  0  0  0  0  0  0  0  0  0
   -3.2400   23.7640  -28.5150 C   0  0  0  0  0  0  0  0  0  0  0  0
   -2.3730   24.3490  -27.5270 N   0  0  0  0  0  0  0  0  0  0  0  0
   -1.6040   25.5440  -27.7590 C   0  0  0  0  0  0  0  0  0  0  0  0
   -1.4150   25.9450  -28.9410 O   0  0  0  0  0  0  0  0  0  0  0  0
   -0.9740   26.2720  -26.6320 C   0  0  0  0  0  0  0  0  0  0  0  0
   -1.0030   25.7270  -25.3360 C   0  0  0  0  0  0  0  0  0  0  0  0
   -0.4120   26.4020  -24.2630 C   0  0  0  0  0  0  0  0  0  0  0  0
    0.2240   27.6280  -24.4720 C   0  0  0  0  0  0  0  0  0  0  0  0
    0.8010   28.2880  -23.4300 N   0  0  0  0  0  0  0  0  0  0  0  0
    1.4310   29.4830  -23.6000 C   0  0  0  0  0  0  0  0  0  0  0  0
    1.5030   30.0660  -24.8690 C   0  0  0  0  0  0  0  0  0  0  0  0
    0.9200   29.4150  -25.9580 C   0  0  0  0  0  0  0  0  0  0  0  0
    0.2700   28.1840  -25.7690 C   0  0  0  0  0  0  0  0  0  0  0  0
   -0.3270   27.5040  -26.8420 C   0  0  0  0  0  0  0  0  0  0  0  0
   -2.7600   22.8460  -29.4630 C   0  0  0  0  0  0  0  0  0  0  0  0
   -3.6110   22.2960  -30.3690 N   0  0  0  0  0  0  0  0  0  0  0  0
   -5.2550   21.4940  -32.6710 C   0  0  0  0  0  0  0  0  0  0  0  0
   -5.7900   20.0990  -32.9900 C   0  0  0  0  0  0  0  0  0  0  0  0
   -6.9737   17.9387  -30.9495 H   0  0  0  0  0  0  0  0  0  0  0  0
   -7.0515   16.8049  -32.3406 H   0  0  0  0  0  0  0  0  0  0  0  0
   -5.8564   18.1460  -32.3406 H   0  0  0  0  0  0  0  0  0  0  0  0
   -8.8440   18.7871  -30.8339 H   0  0  0  0  0  0  0  0  0  0  0  0
   -9.6241   19.7368  -32.1440 H   0  0  0  0  0  0  0  0  0  0  0  0
   -9.7384   17.9441  -32.1440 H   0  0  0  0  0  0  0  0  0  0  0  0
   -7.6267   20.2423  -34.1243 H   0  0  0  0  0  0  0  0  0  0  0  0
   -8.1250   22.0996  -33.0365 H   0  0  0  0  0  0  0  0  0  0  0  0
   -8.9916   20.8953  -31.9656 H   0  0  0  0  0  0  0  0  0  0  0  0
   -7.6643   22.7185  -30.7757 H   0  0  0  0  0  0  0  0  0  0  0  0
   -7.3251   20.9899  -30.3184 H   0  0  0  0  0  0  0  0  0  0  0  0
   -6.5120   23.8355  -29.5277 H   0  0  0  0  0  0  0  0  0  0  0  0
   -4.9793   24.8847  -27.8584 H   0  0  0  0  0  0  0  0  0  0  0  0
   -2.1410   23.7780  -26.6840 H   0  0  0  0  0  0  0  0  0  0  0  0
   -1.4961   24.7588  -25.1642 H   0  0  0  0  0  0  0  0  0  0  0  0
   -0.4481   25.9669  -23.2533 H   0  0  0  0  0  0  0  0  0  0  0  0
    1.8847   29.9914  -22.7365 H   0  0  0  0  0  0  0  0  0  0  0  0
    2.0148   31.0297  -25.0082 H   0  0  0  0  0  0  0  0  0  0  0  0
    0.9695   29.8646  -26.9607 H   0  0  0  0  0  0  0  0  0  0  0  0
   -0.2889   27.9365  -27.8527 H   0  0  0  0  0  0  0  0  0  0  0  0
   -1.6948   22.5718  -29.4724 H   0  0  0  0  0  0  0  0  0  0  0  0
   -5.5576   22.1928  -33.4648 H   0  0  0  0  0  0  0  0  0  0  0  0
   -4.1572   21.4598  -32.6102 H   0  0  0  0  0  0  0  0  0  0  0  0
   -5.3758   19.7723  -33.9553 H   0  0  0  0  0  0  0  0  0  0  0  0
   -5.4848   19.4247  -32.1763 H   0  0  0  0  0  0  0  0  0  0  0  0
  1  2  1  0
  2  3  1  0
  2  4  1  0
  4  5  1  0
  5  6  1  0
  6  7  1  0
  7  8  1  0
  8  9  2  0
  9 10  1  0
 10 11  2  0
 11 12  1  0
 12 13  1  0
 13 14  2  0
 13 15  1  0
 15 16  2  0
 16 17  1  0
 17 18  2  0
 18 19  1  0
 19 20  2  0
 20 21  1  0
 21 22  2  0
 22 23  1  0
 23 24  2  0
 11 25  1  0
 25 26  2  0
  7 27  1  0
 27 28  1  0
 28  4  1  0
 26  8  1  0
 24 15  1  0
 23 18  1  0
  1 29  1  0
  1 30  1  0
  1 31  1  0
  3 32  1  0
  3 33  1  0
  3 34  1  0
  4 35  1  0
  5 36  1  0
  5 37  1  0
  6 38  1  0
  6 39  1  0
  9 40  1  0
 10 41  1  0
 12 42  1  0
 16 43  1  0
 17 44  1  0
 20 45  1  0
 21 46  1  0
 22 47  1  0
 24 48  1  0
 25 49  1  0
 27 50  1  0
 27 51  1  0
 28 52  1  0
 28 53  1  0
M  END
>  <UniqueID>  (7) 
7

>  <SMILES>  (7) 
CN(C)C1CCN(c2ccc(NC(=O)c3ccc4ncccc4c3)cn2)CC1

>  <Energy>  (7) 
76.68461812416226

>  <Genealogy>  (7) 
CN(C)C1CCN(c2ccc(NC(=O)c3ccc4ncccc4c3)cn2)CC1 (3D coordinates assigned)
CN(C)C1CCN(c2ccc(NC(=O)c3ccc4ncccc4c3)cn2)CC1 (nonaromatic ring conformer: 76.68461812416226 kcal/mol)

>  <smiles>  (7) 
CN(C)C1CCN(c2ccc(NC(=O)c3ccc4ncccc4c3)cn2)CC1

>  <score_type>  (7) 
oracle

>  <origin>  (7) 
adg

>  <m_score__min__energy>  (7) 
-8.9900000000000002

>  <m_primary>  (7) 
energy

$$$$
7:0
     RDKit          3D

 43 45  0  0  0  0  0  0  0  0999 V2000
   -5.4890   24.9360  -28.7500 O   0  0  0  0  0  0  0  0  0  0  0  0
   -5.0040   24.9200  -30.1720 S   0  0  0  0  0  0  0  0  0  0  0  0
   -5.5040   26.1490  -30.8750 O   0  0  0  0  0  0  0  0  0  0  0  0
   -3.2640   24.9190  -30.1940 N   0  0  0  0  0  0  0  0  0  0  0  0
   -2.7120   24.5700  -28.8790 C   0  0  0  0  0  0  0  0  0  0  0  0
   -2.3730   23.0650  -28.8590 C   0  0  0  0  0  0  0  0  0  0  0  0
   -0.9230   22.8150  -29.2960 C   0  0  0  0  0  0  0  0  0  0  0  0
    0.0670   23.4770  -28.4050 N   0  0  0  0  0  0  0  0  0  0  0  0
    0.6440   22.5220  -27.4360 C   0  0  0  0  0  0  0  0  0  0  0  0
   -0.2000   21.2770  -27.3390 C   0  0  0  0  0  0  0  0  0  0  0  0
   -1.2370   21.1920  -26.3970 C   0  0  0  0  0  0  0  0  0  0  0  0
   -1.9880   20.0190  -26.3080 C   0  0  0  0  0  0  0  0  0  0  0  0
   -1.6990   18.9450  -27.1510 C   0  0  0  0  0  0  0  0  0  0  0  0
   -0.6580   19.0600  -28.0730 C   0  0  0  0  0  0  0  0  0  0  0  0
    0.0680   20.2100  -28.1480 N   0  0  0  0  0  0  0  0  0  0  0  0
   -0.4560   24.6900  -27.7200 C   0  0  0  0  0  0  0  0  0  0  0  0
   -1.4720   25.4430  -28.5860 C   0  0  0  0  0  0  0  0  0  0  0  0
   -5.6200   23.4950  -31.0050 C   0  0  0  0  0  0  0  0  0  0  0  0
   -4.7490   22.6640  -31.7200 C   0  0  0  0  0  0  0  0  0  0  0  0
   -5.2450   21.5350  -32.3740 C   0  0  0  0  0  0  0  0  0  0  0  0
   -6.6110   21.2510  -32.3090 C   0  0  0  0  0  0  0  0  0  0  0  0
   -7.2610   19.8410  -33.1190 Cl  0  0  0  0  0  0  0  0  0  0  0  0
   -7.4440   22.0730  -31.6140 N   0  0  0  0  0  0  0  0  0  0  0  0
   -6.9830   23.1780  -30.9690 C   0  0  0  0  0  0  0  0  0  0  0  0
   -3.4503   24.7670  -28.0877 H   0  0  0  0  0  0  0  0  0  0  0  0
   -2.5111   22.6800  -27.8379 H   0  0  0  0  0  0  0  0  0  0  0  0
   -3.0421   22.5486  -29.5630 H   0  0  0  0  0  0  0  0  0  0  0  0
   -0.7347   21.7313  -29.2875 H   0  0  0  0  0  0  0  0  0  0  0  0
   -0.8011   23.2411  -30.3028 H   0  0  0  0  0  0  0  0  0  0  0  0
    1.6573   22.2455  -27.7629 H   0  0  0  0  0  0  0  0  0  0  0  0
    0.6766   23.0020  -26.4468 H   0  0  0  0  0  0  0  0  0  0  0  0
   -1.4559   22.0425  -25.7346 H   0  0  0  0  0  0  0  0  0  0  0  0
   -2.8051   19.9413  -25.5757 H   0  0  0  0  0  0  0  0  0  0  0  0
   -2.2861   18.0169  -27.0892 H   0  0  0  0  0  0  0  0  0  0  0  0
   -0.4228   18.2189  -28.7417 H   0  0  0  0  0  0  0  0  0  0  0  0
    0.8460   20.2670  -28.8430 H   0  0  0  0  0  0  0  0  0  0  0  0
   -0.9442   24.3860  -26.7823 H   0  0  0  0  0  0  0  0  0  0  0  0
    0.3916   25.3637  -27.5259 H   0  0  0  0  0  0  0  0  0  0  0  0
   -1.7908   26.3527  -28.0560 H   0  0  0  0  0  0  0  0  0  0  0  0
   -0.9925   25.6991  -29.5423 H   0  0  0  0  0  0  0  0  0  0  0  0
   -3.6757   22.9004  -31.7663 H   0  0  0  0  0  0  0  0  0  0  0  0
   -4.5667   20.8754  -32.9351 H   0  0  0  0  0  0  0  0  0  0  0  0
   -7.6825   23.8239  -30.4180 H   0  0  0  0  0  0  0  0  0  0  0  0
  1  2  2  0
  2  3  2  0
  2  4  1  0
  4  5  1  0
  5  6  1  0
  6  7  1  0
  7  8  1  0
  8  9  1  0
  9 10  1  0
 10 11  2  0
 11 12  1  0
 12 13  2  0
 13 14  1  0
 14 15  2  0
  8 16  1  0
 16 17  1  0
  2 18  1  0
 18 19  2  0
 19 20  1  0
 20 21  2  0
 21 22  1  0
 21 23  1  0
 23 24  2  0
 17  5  1  0
 24 18  1  0
 15 10  1  0
  5 25  1  0
  6 26  1  0
  6 27  1  0
  7 28  1  0
  7 29  1  0
  9 30  1  0
  9 31  1  0
 11 32  1  0
 12 33  1  0
 13 34  1  0
 14 35  1  0
 15 36  1  0
 16 37  1  0
 16 38  1  0
 17 39  1  0
 17 40  1  0
 19 41  1  0
 20 42  1  0
 24 43  1  0
M  CHG  2   4  -1  15   1
M  END
>  <UniqueID>  (8) 
8

>  <SMILES>  (8) 
O=S(=O)([N-]C1CCN(Cc2cccc[nH+]2)CC1)c1ccc(Cl)nc1

>  <Energy>  (8) 
52.582602640675994

>  <Genealogy>  (8) 
O=S(=O)([N-]C1CCN(Cc2cccc[nH+]2)CC1)c1ccc(Cl)nc1 (protonated)
O=S(=O)([N-]C1CCN(Cc2cccc[nH+]2)CC1)c1ccc(Cl)nc1 (3D coordinates assigned)
O=S(=O)([N-]C1CCN(Cc2cccc[nH+]2)CC1)c1ccc(Cl)nc1 (nonaromatic ring conformer: 52.582602640675994 kcal/mol)

>  <smiles>  (8) 
O=S(=O)(NC1CCN(Cc2ccccn2)CC1)c1ccc(Cl)nc1

>  <score_type>  (8) 
oracle

>  <origin>  (8) 
adg

>  <m_score__min__energy>  (8) 
-9.6400000000000006

>  <m_primary>  (8) 
energy

$$$$
8:0
     RDKit          3D

 26 27  0  0  0  0  0  0  0  0999 V2000
   -1.8850   25.6280  -28.9830 O   0  0  0  0  0  0  0  0  0  0  0  0
   -2.7820   24.8690  -29.4380 C   0  0  0  0  0  0  0  0  0  0  0  0
   -3.5790   25.2990  -30.4900 O   0  0  0  0  0  0  0  0  0  0  0  0
   -2.9560   23.4920  -28.8780 C   0  0  0  0  0  0  0  0  0  0  0  0
   -2.8130   22.4250  -29.9660 C   0  0  0  0  0  0  0  0  0  0  0  0
   -4.0460   22.3000  -30.7370 N   0  0  0  0  0  0  0  0  0  0  0  0
   -4.8150   21.2250  -30.7470 N   0  0  0  0  0  0  0  0  0  0  0  0
   -5.8570   21.5800  -31.5310 C   0  0  0  0  0  0  0  0  0  0  0  0
   -6.9970   20.6950  -31.8490 C   0  0  0  0  0  0  0  0  0  0  0  0
   -8.2830   21.2320  -32.0440 C   0  0  0  0  0  0  0  0  0  0  0  0
   -9.3610   20.3920  -32.3440 C   0  0  0  0  0  0  0  0  0  0  0  0
   -9.1660   19.0130  -32.4530 C   0  0  0  0  0  0  0  0  0  0  0  0
   -7.8930   18.4700  -32.2610 C   0  0  0  0  0  0  0  0  0  0  0  0
   -6.8120   19.3060  -31.9610 C   0  0  0  0  0  0  0  0  0  0  0  0
   -5.7280   22.8490  -31.9790 N   0  0  0  0  0  0  0  0  0  0  0  0
   -4.5870   23.2650  -31.4580 N   0  0  0  0  0  0  0  0  0  0  0  0
   -2.1917   23.3204  -28.1057 H   0  0  0  0  0  0  0  0  0  0  0  0
   -3.9666   23.4172  -28.4502 H   0  0  0  0  0  0  0  0  0  0  0  0
   -1.9924   22.7074  -30.6420 H   0  0  0  0  0  0  0  0  0  0  0  0
   -2.5991   21.4589  -29.4854 H   0  0  0  0  0  0  0  0  0  0  0  0
   -8.4415   22.3173  -31.9602 H   0  0  0  0  0  0  0  0  0  0  0  0
  -10.3639   20.8182  -32.4943 H   0  0  0  0  0  0  0  0  0  0  0  0
  -10.0147   18.3546  -32.6900 H   0  0  0  0  0  0  0  0  0  0  0  0
   -7.7405   17.3839  -32.3458 H   0  0  0  0  0  0  0  0  0  0  0  0
   -5.8115   18.8739  -31.8119 H   0  0  0  0  0  0  0  0  0  0  0  0
   -4.1840   24.2190  -31.5920 H   0  0  0  0  0  0  0  0  0  0  0  0
  1  2  2  0
  2  3  1  0
  2  4  1  0
  4  5  1  0
  5  6  1  0
  6  7  1  0
  7  8  2  0
  8  9  1  0
  9 10  2  0
 10 11  1  0
 11 12  2  0
 12 13  1  0
 13 14  2  0
  8 15  1  0
 15 16  2  0
 16  6  1  0
 14  9  1  0
  4 17  1  0
  4 18  1  0
  5 19  1  0
  5 20  1  0
 10 21  1  0
 11 22  1  0
 12 23  1  0
 13 24  1  0
 14 25  1  0
 16 26  1  0
M  CHG  2   3  -1  16   1
M  END
>  <UniqueID>  (9) 
9

>  <SMILES>  (9) 
O=C([O-])CCn1nc(-c2ccccc2)n[nH+]1

>  <Energy>  (9) 
61.33433742953087

>  <Genealogy>  (9) 
O=C([O-])CCn1nc(-c2ccccc2)n[nH+]1 (protonated)
O=C([O-])CCn1nc(-c2ccccc2)n[nH+]1 (3D coordinates assigned)
O=C([O-])CCn1nc(-c2ccccc2)n[nH+]1 (optimized conformer: 61.33433742953087 kcal/mol)

>  <smiles>  (9) 
O=C(O)CCn1nnc(-c2ccccc2)n1

>  <score_type>  (9) 
oracle

>  <origin>  (9) 
adg

>  <m_score__min__energy>  (9) 
-8.6799999999999997

>  <m_primary>  (9) 
energy

$$$$
9:0
     RDKit          3D

 34 36  0  0  0  0  0  0  0  0999 V2000
   -4.2370   24.5120  -27.1140 C   0  0  0  0  0  0  0  0  0  0  0  0
   -2.8490   24.3780  -27.6770 C   0  0  0  0  0  0  0  0  0  0  0  0
   -1.7800   25.0380  -27.0450 C   0  0  0  0  0  0  0  0  0  0  0  0
   -0.4830   24.9300  -27.5490 C   0  0  0  0  0  0  0  0  0  0  0  0
   -0.2390   24.1740  -28.6950 C   0  0  0  0  0  0  0  0  0  0  0  0
   -1.2910   23.5220  -29.3410 C   0  0  0  0  0  0  0  0  0  0  0  0
   -2.6030   23.6080  -28.8390 C   0  0  0  0  0  0  0  0  0  0  0  0
   -3.6860   22.9640  -29.5350 N   0  0  0  0  0  0  0  0  0  0  0  0
   -4.5700   23.6570  -30.4320 C   0  0  0  0  0  0  0  0  0  0  0  0
   -4.2870   24.8250  -30.8170 O   0  0  0  0  0  0  0  0  0  0  0  0
   -5.7970   22.9980  -30.9330 C   0  0  0  0  0  0  0  0  0  0  0  0
   -6.9620   23.7390  -31.1940 C   0  0  0  0  0  0  0  0  0  0  0  0
   -8.1060   23.0900  -31.6630 C   0  0  0  0  0  0  0  0  0  0  0  0
   -8.0870   21.7050  -31.8680 C   0  0  0  0  0  0  0  0  0  0  0  0
   -9.2180   21.0210  -32.3380 C   0  0  0  0  0  0  0  0  0  0  0  0
   -9.1650   19.6370  -32.5320 C   0  0  0  0  0  0  0  0  0  0  0  0
   -7.9890   18.9320  -32.2580 C   0  0  0  0  0  0  0  0  0  0  0  0
   -6.8570   19.6070  -31.7900 C   0  0  0  0  0  0  0  0  0  0  0  0
   -6.9000   20.9920  -31.5930 C   0  0  0  0  0  0  0  0  0  0  0  0
   -5.8020   21.6520  -31.1380 N   0  0  0  0  0  0  0  0  0  0  0  0
   -4.1890   24.5074  -26.0151 H   0  0  0  0  0  0  0  0  0  0  0  0
   -4.6824   25.4573  -27.4576 H   0  0  0  0  0  0  0  0  0  0  0  0
   -4.8550   23.6693  -27.4576 H   0  0  0  0  0  0  0  0  0  0  0  0
   -1.9676   25.6441  -26.1464 H   0  0  0  0  0  0  0  0  0  0  0  0
    0.3479   25.4420  -27.0415 H   0  0  0  0  0  0  0  0  0  0  0  0
    0.7840   24.0912  -29.0907 H   0  0  0  0  0  0  0  0  0  0  0  0
   -1.0927   22.9358  -30.2504 H   0  0  0  0  0  0  0  0  0  0  0  0
   -3.7950   21.9300  -29.4300 H   0  0  0  0  0  0  0  0  0  0  0  0
   -6.9728   24.8266  -31.0294 H   0  0  0  0  0  0  0  0  0  0  0  0
   -9.0201   23.6655  -31.8709 H   0  0  0  0  0  0  0  0  0  0  0  0
  -10.1451   21.5724  -32.5536 H   0  0  0  0  0  0  0  0  0  0  0  0
  -10.0517   19.1011  -32.9015 H   0  0  0  0  0  0  0  0  0  0  0  0
   -7.9541   17.8432  -32.4110 H   0  0  0  0  0  0  0  0  0  0  0  0
   -5.9330   19.0495  -31.5768 H   0  0  0  0  0  0  0  0  0  0  0  0
  1  2  1  0
  2  3  2  0
  3  4  1  0
  4  5  2  0
  5  6  1  0
  6  7  2  0
  7  8  1  0
  8  9  1  0
  9 10  2  0
  9 11  1  0
 11 12  2  0
 12 13  1  0
 13 14  2  0
 14 15  1  0
 15 16  2  0
 16 17  1  0
 17 18  2  0
 18 19  1  0
 19 20  2  0
  7  2  1  0
 20 11  1  0
 19 14  1  0
  1 21  1  0
  1 22  1  0
  1 23  1  0
  3 24  1  0
  4 25  1  0
  5 26  1  0
  6 27  1  0
  8 28  1  0
 12 29  1  0
 13 30  1  0
 15 31  1  0
 16 32  1  0
 17 33  1  0
 18 34  1  0
M  END
>  <UniqueID>  (10) 
10

>  <SMILES>  (10) 
Cc1ccccc1NC(=O)c1ccc2ccccc2n1

>  <Energy>  (10) 
44.179159179918585

>  <Genealogy>  (10) 
Cc1ccccc1NC(=O)c1ccc2ccccc2n1 (3D coordinates assigned)
Cc1ccccc1NC(=O)c1ccc2ccccc2n1 (optimized conformer: 44.179159179918585 kcal/mol)

>  <smiles>  (10) 
Cc1ccccc1NC(=O)c1ccc2ccccc2n1

>  <score_type>  (10) 
oracle

>  <origin>  (10) 
adg

>  <m_score__min__energy>  (10) 
-8.1999999999999993

>  <m_primary>  (10) 
energy

$$$$
11:0
     RDKit          3D

 49 53  0  0  0  0  0  0  0  0999 V2000
    1.4371   21.0996  -33.3047 H   0  0  0  0  0  0  0  0  0  0  0  0
    0.3500   20.9870  -33.1800 C   0  0  0  0  0  0  0  0  0  0  0  0
   -0.4760   20.8970  -34.3030 C   0  0  0  0  0  0  0  0  0  0  0  0
   -0.0388   20.9379  -35.3115 H   0  0  0  0  0  0  0  0  0  0  0  0
   -1.8580   20.7550  -34.1460 C   0  0  0  0  0  0  0  0  0  0  0  0
   -2.5040   20.6834  -35.0334 H   0  0  0  0  0  0  0  0  0  0  0  0
   -2.4280   20.7030  -32.8610 C   0  0  0  0  0  0  0  0  0  0  0  0
   -3.8950   20.5510  -32.7000 C   0  0  0  0  0  0  0  0  0  0  0  0
   -4.6960   21.6680  -32.4550 C   0  0  0  0  0  0  0  0  0  0  0  0
   -4.2273   22.6606  -32.3838 H   0  0  0  0  0  0  0  0  0  0  0  0
   -6.0820   21.5530  -32.2980 C   0  0  0  0  0  0  0  0  0  0  0  0
   -6.6980   22.6790  -32.0400 N   0  0  0  0  0  0  0  0  0  0  0  0
   -6.5120   23.7210  -31.0370 C   0  0  0  0  0  0  0  0  0  0  0  0
   -7.4830   24.1818  -30.8030 H   0  0  0  0  0  0  0  0  0  0  0  0
   -5.8264   24.4872  -31.4280 H   0  0  0  0  0  0  0  0  0  0  0  0
   -5.9200   23.1090  -29.7680 C   0  0  0  0  0  0  0  0  0  0  0  0
   -5.8902   22.0150  -29.8787 H   0  0  0  0  0  0  0  0  0  0  0  0
   -6.5533   23.3984  -28.9165 H   0  0  0  0  0  0  0  0  0  0  0  0
   -4.5290   23.6120  -29.5140 C   0  0  0  0  0  0  0  0  0  0  0  0
   -3.9810   24.8060  -29.9750 C   0  0  0  0  0  0  0  0  0  0  0  0
   -4.5292   25.5679  -30.5486 H   0  0  0  0  0  0  0  0  0  0  0  0
   -2.6790   24.8970  -29.6180 N   0  0  0  0  0  0  0  0  0  0  0  0
   -2.0250   25.6810  -29.8350 H   0  0  0  0  0  0  0  0  0  0  0  0
   -2.3980   23.7660  -28.9470 C   0  0  0  0  0  0  0  0  0  0  0  0
   -1.1740   23.3920  -28.3960 C   0  0  0  0  0  0  0  0  0  0  0  0
   -0.2959   24.0509  -28.4653 H   0  0  0  0  0  0  0  0  0  0  0  0
   -1.0960   22.1450  -27.7480 C   0  0  0  0  0  0  0  0  0  0  0  0
    0.0760   21.7430  -27.1980 F   0  0  0  0  0  0  0  0  0  0  0  0
   -2.2320   21.3070  -27.6720 C   0  0  0  0  0  0  0  0  0  0  0  0
   -2.1595   20.3331  -27.1659 H   0  0  0  0  0  0  0  0  0  0  0  0
   -3.4540   21.7100  -28.2390 C   0  0  0  0  0  0  0  0  0  0  0  0
   -4.3439   21.0655  -28.1875 H   0  0  0  0  0  0  0  0  0  0  0  0
   -3.5010   22.9540  -28.8690 C   0  0  0  0  0  0  0  0  0  0  0  0
   -6.6810   20.2520  -32.4130 C   0  0  0  0  0  0  0  0  0  0  0  0
   -8.0710   19.9790  -32.3170 C   0  0  0  0  0  0  0  0  0  0  0  0
   -8.7732   20.8091  -32.1503 H   0  0  0  0  0  0  0  0  0  0  0  0
   -8.5640   18.6780  -32.4300 C   0  0  0  0  0  0  0  0  0  0  0  0
   -9.6455   18.4955  -32.3456 H   0  0  0  0  0  0  0  0  0  0  0  0
   -7.7010   17.6120  -32.6480 C   0  0  0  0  0  0  0  0  0  0  0  0
   -8.0974   16.5890  -32.7279 H   0  0  0  0  0  0  0  0  0  0  0  0
   -6.3350   17.8410  -32.7650 C   0  0  0  0  0  0  0  0  0  0  0  0
   -5.6544   16.9957  -32.9446 H   0  0  0  0  0  0  0  0  0  0  0  0
   -5.8150   19.1420  -32.6560 C   0  0  0  0  0  0  0  0  0  0  0  0
   -4.4700   19.3230  -32.7890 N   0  0  0  0  0  0  0  0  0  0  0  0
   -3.8580   18.4910  -32.9490 H   0  0  0  0  0  0  0  0  0  0  0  0
   -1.5850   20.7940  -31.7380 C   0  0  0  0  0  0  0  0  0  0  0  0
   -2.0160   20.7547  -30.7267 H   0  0  0  0  0  0  0  0  0  0  0  0
   -0.2040   20.9340  -31.8990 C   0  0  0  0  0  0  0  0  0  0  0  0
    0.4477   21.0026  -31.0155 H   0  0  0  0  0  0  0  0  0  0  0  0
  1  2  1  0
  2  3  2  0
  3  4  1  0
  3  5  1  0
  5  6  1  0
  5  7  2  0
  7  8  1  0
  8  9  2  0
  9 10  1  0
  9 11  1  0
 11 12  2  0
 12 13  1  0
 13 14  1  0
 13 15  1  0
 13 16  1  0
 16 17  1  0
 16 18  1  0
 16 19  1  0
 19 20  2  0
 20 21  1  0
 20 22  1  0
 22 23  1  0
 22 24  1  0
 24 25  2  0
 25 26  1  0
 25 27  1  0
 27 28  1  0
 27 29  2  0
 29 30  1  0
 29 31  1  0
 31 32  1  0
 31 33  2  0
 11 34  1  0
 34 35  2  0
 35 36  1  0
 35 37  1  0
 37 38  1  0
 37 39  2  0
 39 40  1  0
 39 41  1  0
 41 42  1  0
 41 43  2  0
 43 44  1  0
 44 45  1  0
  7 46  1  0
 46 47  1  0
 46 48  2  0
 48 49  1  0
 48  2  1  0
 44  8  1  0
 33 19  1  0
 43 34  1  0
 33 24  1  0
M  END
>  <UniqueID>  (11) 
11

>  <SMILES>  (11) 
Fc1ccc2c(CC/N=c3/cc(-c4ccccc4)[nH]c4ccccc34)c[nH]c2c1

>  <Energy>  (11) 
108.48291770885577

>  <Genealogy>  (11) 
Fc1ccc2c(CC/N=c3/cc(-c4ccccc4)[nH]c4ccccc34)c[nH]c2c1 (cis-trans isomerization)
Fc1ccc2c(CC/N=c3/cc(-c4ccccc4)[nH]c4ccccc34)c[nH]c2c1 (3D coordinates assigned)
Fc1ccc2c(CC/N=c3/cc(-c4ccccc4)[nH]c4ccccc34)c[nH]c2c1 (optimized conformer: 108.48291770885577 kcal/mol)

>  <smiles>  (11) 
Fc1ccc2c(CCN=c3cc(-c4ccccc4)[nH]c4ccccc34)c[nH]c2c1

>  <score_type>  (11) 
oracle

>  <origin>  (11) 
adg

>  <m_score__min__energy>  (11) 
-9.8200000000000003

>  <m_primary>  (11) 
energy

$$$$
12:0
     RDKit          3D

 52 54  0  0  0  0  0  0  0  0999 V2000
   -6.2730   25.0210  -30.1980 C   0  0  0  0  0  0  0  0  0  0  0  0
   -5.3200   24.5190  -31.1980 N   0  0  0  0  0  0  0  0  0  0  0  0
   -4.2930   23.6740  -30.5700 C   0  0  0  0  0  0  0  0  0  0  0  0
   -5.9850   23.8680  -32.3500 C   0  0  0  0  0  0  0  0  0  0  0  0
   -6.8830   22.6940  -31.9730 C   0  0  0  0  0  0  0  0  0  0  0  0
   -8.2300   22.9570  -31.6590 C   0  0  0  0  0  0  0  0  0  0  0  0
   -9.1150   21.9190  -31.3670 C   0  0  0  0  0  0  0  0  0  0  0  0
   -8.6700   20.5990  -31.3760 C   0  0  0  0  0  0  0  0  0  0  0  0
   -7.3350   20.3140  -31.6590 C   0  0  0  0  0  0  0  0  0  0  0  0
   -6.4250   21.3470  -31.9420 C   0  0  0  0  0  0  0  0  0  0  0  0
   -5.0100   20.9780  -32.1680 C   0  0  0  0  0  0  0  0  0  0  0  0
   -4.2430   20.4310  -31.1280 C   0  0  0  0  0  0  0  0  0  0  0  0
   -2.9170   20.0520  -31.3540 C   0  0  0  0  0  0  0  0  0  0  0  0
   -2.3450   20.1990  -32.6270 C   0  0  0  0  0  0  0  0  0  0  0  0
   -0.9190   19.7700  -32.8810 C   0  0  0  0  0  0  0  0  0  0  0  0
   -0.8360   18.6090  -33.7860 N   0  0  0  0  0  0  0  0  0  0  0  0
   -1.8110   17.5380  -33.4960 C   0  0  0  0  0  0  0  0  0  0  0  0
   -2.8550   17.3220  -34.6080 C   0  0  0  0  0  0  0  0  0  0  0  0
   -4.2590   17.3680  -34.0850 C   0  0  0  0  0  0  0  0  0  0  0  0
   -5.3010   18.1200  -34.6120 C   0  0  0  0  0  0  0  0  0  0  0  0
   -6.4880   18.0000  -33.8820 C   0  0  0  0  0  0  0  0  0  0  0  0
   -6.3840   17.1610  -32.7800 C   0  0  0  0  0  0  0  0  0  0  0  0
   -4.8110   16.5710  -32.7110 S   0  0  0  0  0  0  0  0  0  0  0  0
   -3.1220   20.7170  -33.6750 C   0  0  0  0  0  0  0  0  0  0  0  0
   -4.4480   21.0950  -33.4490 C   0  0  0  0  0  0  0  0  0  0  0  0
   -5.8864   24.8174  -29.1885 H   0  0  0  0  0  0  0  0  0  0  0  0
   -6.4043   26.1053  -30.3285 H   0  0  0  0  0  0  0  0  0  0  0  0
   -7.2415   24.5160  -30.3285 H   0  0  0  0  0  0  0  0  0  0  0  0
   -4.3789   23.7447  -29.4756 H   0  0  0  0  0  0  0  0  0  0  0  0
   -4.4366   22.6291  -30.8823 H   0  0  0  0  0  0  0  0  0  0  0  0
   -3.2953   24.0162  -30.8823 H   0  0  0  0  0  0  0  0  0  0  0  0
   -6.6000   24.6214  -32.8640 H   0  0  0  0  0  0  0  0  0  0  0  0
   -5.1859   23.4622  -32.9878 H   0  0  0  0  0  0  0  0  0  0  0  0
   -8.5899   23.9964  -31.6437 H   0  0  0  0  0  0  0  0  0  0  0  0
  -10.1654   22.1431  -31.1294 H   0  0  0  0  0  0  0  0  0  0  0  0
   -9.3726   19.7808  -31.1596 H   0  0  0  0  0  0  0  0  0  0  0  0
   -6.9902   19.2694  -31.6608 H   0  0  0  0  0  0  0  0  0  0  0  0
   -4.6875   20.2999  -30.1304 H   0  0  0  0  0  0  0  0  0  0  0  0
   -2.3186   19.6364  -30.5299 H   0  0  0  0  0  0  0  0  0  0  0  0
   -0.3721   20.6105  -33.3331 H   0  0  0  0  0  0  0  0  0  0  0  0
   -0.4793   19.4765  -31.9164 H   0  0  0  0  0  0  0  0  0  0  0  0
   -0.9920   18.9370  -34.7690 H   0  0  0  0  0  0  0  0  0  0  0  0
    0.1360   18.2230  -33.7520 H   0  0  0  0  0  0  0  0  0  0  0  0
   -1.2589   16.5974  -33.3526 H   0  0  0  0  0  0  0  0  0  0  0  0
   -2.3639   17.8465  -32.5965 H   0  0  0  0  0  0  0  0  0  0  0  0
   -2.7335   18.1102  -35.3656 H   0  0  0  0  0  0  0  0  0  0  0  0
   -2.6879   16.3234  -35.0379 H   0  0  0  0  0  0  0  0  0  0  0  0
   -5.2028   18.7458  -35.5113 H   0  0  0  0  0  0  0  0  0  0  0  0
   -7.4172   18.5215  -34.1552 H   0  0  0  0  0  0  0  0  0  0  0  0
   -7.1926   16.9231  -32.0731 H   0  0  0  0  0  0  0  0  0  0  0  0
   -2.6850   20.8258  -34.6786 H   0  0  0  0  0  0  0  0  0  0  0  0
   -5.0546   21.4862  -34.2791 H   0  0  0  0  0  0  0  0  0  0  0  0
  1  2  1  0
  2  3  1  0
  2  4  1  0
  4  5  1  0
  5  6  2  0
  6  7  1  0
  7  8  2  0
  8  9  1  0
  9 10  2  0
 10 11  1  0
 11 12  2  0
 12 13  1  0
 13 14  2  0
 14 15  1  0
 15 16  1  0
 16 17  1  0
 17 18  1  0
 18 19  1  0
 19 20  2  0
 20 21  1  0
 21 22  2  0
 22 23  1  0
 14 24  1  0
 24 25  2  0
 10  5  1  0
 25 11  1  0
 23 19  1  0
  1 26  1  0
  1 27  1  0
  1 28  1  0
  3 29  1  0
  3 30  1  0
  3 31  1  0
  4 32  1  0
  4 33  1  0
  6 34  1  0
  7 35  1  0
  8 36  1  0
  9 37  1  0
 12 38  1  0
 13 39  1  0
 15 40  1  0
 15 41  1  0
 16 42  1  0
 16 43  1  0
 17 44  1  0
 17 45  1  0
 18 46  1  0
 18 47  1  0
 20 48  1  0
 21 49  1  0
 22 50  1  0
 24 51  1  0
 25 52  1  0
M  CHG  1  16   1
M  END
>  <UniqueID>  (12) 
12

>  <SMILES>  (12) 
CN(C)Cc1ccccc1-c1ccc(C[NH2+]CCc2cccs2)cc1

>  <Energy>  (12) 
88.57186802141189

>  <Genealogy>  (12) 
CN(C)Cc1ccccc1-c1ccc(C[NH2+]CCc2cccs2)cc1 (protonated)
CN(C)Cc1ccccc1-c1ccc(C[NH2+]CCc2cccs2)cc1 (3D coordinates assigned)
CN(C)Cc1ccccc1-c1ccc(C[NH2+]CCc2cccs2)cc1 (optimized conformer: 88.57186802141189 kcal/mol)

>  <smiles>  (12) 
CN(C)Cc1ccccc1-c1ccc(CNCCc2cccs2)cc1

>  <score_type>  (12) 
oracle

>  <origin>  (12) 
adg

>  <m_score__min__energy>  (12) 
-8.4700000000000006

>  <m_primary>  (12) 
energy

$$$$
13:0
     RDKit          3D

 43 45  0  0  0  0  0  0  0  0999 V2000
   -9.4729   22.6496  -31.3429 H   0  0  0  0  0  0  0  0  0  0  0  0
   -8.4260   22.4370  -31.6050 C   0  0  0  0  0  0  0  0  0  0  0  0
   -7.4210   23.3410  -31.2500 C   0  0  0  0  0  0  0  0  0  0  0  0
   -7.6832   24.2684  -30.7198 H   0  0  0  0  0  0  0  0  0  0  0  0
   -6.0840   23.0750  -31.5640 C   0  0  0  0  0  0  0  0  0  0  0  0
   -5.0870   24.0500  -31.2170 N   0  0  0  0  0  0  0  0  0  0  0  0
   -4.1700   23.9380  -30.2990 C   0  0  0  0  0  0  0  0  0  0  0  0
   -4.1140   22.8040  -29.5560 N   0  0  0  0  0  0  0  0  0  0  0  0
   -3.1480   22.6480  -28.6150 C   0  0  0  0  0  0  0  0  0  0  0  0
   -3.1180   21.4190  -27.7700 C   0  0  0  0  0  0  0  0  0  0  0  0
   -3.1250   21.7042  -26.7076 H   0  0  0  0  0  0  0  0  0  0  0  0
   -4.0013   20.8014  -27.9896 H   0  0  0  0  0  0  0  0  0  0  0  0
   -2.2056   20.8452  -27.9896 H   0  0  0  0  0  0  0  0  0  0  0  0
   -2.2440   23.6390  -28.4060 N   0  0  0  0  0  0  0  0  0  0  0  0
   -2.2880   24.7750  -29.1500 C   0  0  0  0  0  0  0  0  0  0  0  0
   -1.4230   25.7290  -28.9700 N   0  0  0  0  0  0  0  0  0  0  0  0
   -0.6290   25.9200  -27.7560 C   0  0  0  0  0  0  0  0  0  0  0  0
    0.0282   25.0495  -27.6134 H   0  0  0  0  0  0  0  0  0  0  0  0
   -0.0299   26.8360  -27.8652 H   0  0  0  0  0  0  0  0  0  0  0  0
   -1.5390   26.0690  -26.5330 C   0  0  0  0  0  0  0  0  0  0  0  0
   -2.3746   26.7390  -26.7835 H   0  0  0  0  0  0  0  0  0  0  0  0
   -1.9194   25.0763  -26.2505 H   0  0  0  0  0  0  0  0  0  0  0  0
   -0.7750   26.6440  -25.3730 C   0  0  0  0  0  0  0  0  0  0  0  0
   -0.5000   28.0170  -25.3070 C   0  0  0  0  0  0  0  0  0  0  0  0
   -0.8666   28.6900  -26.0961 H   0  0  0  0  0  0  0  0  0  0  0  0
    0.2390   28.5300  -24.2400 C   0  0  0  0  0  0  0  0  0  0  0  0
    0.4508   29.6077  -24.1786 H   0  0  0  0  0  0  0  0  0  0  0  0
    0.7070   27.6620  -23.2510 C   0  0  0  0  0  0  0  0  0  0  0  0
    1.2880   28.0569  -22.4045 H   0  0  0  0  0  0  0  0  0  0  0  0
    0.4460   26.3290  -23.3320 N   0  0  0  0  0  0  0  0  0  0  0  0
    0.8090   25.6910  -22.5890 H   0  0  0  0  0  0  0  0  0  0  0  0
   -0.2730   25.8060  -24.3640 C   0  0  0  0  0  0  0  0  0  0  0  0
   -0.4612   24.7231  -24.4072 H   0  0  0  0  0  0  0  0  0  0  0  0
   -3.2470   24.9160  -30.0990 N   0  0  0  0  0  0  0  0  0  0  0  0
   -5.7660   21.9080  -32.2870 C   0  0  0  0  0  0  0  0  0  0  0  0
   -4.7249   21.7169  -32.5862 H   0  0  0  0  0  0  0  0  0  0  0  0
   -6.7710   20.9870  -32.6280 C   0  0  0  0  0  0  0  0  0  0  0  0
   -6.4320   19.7610  -33.4230 C   0  0  0  0  0  0  0  0  0  0  0  0
   -6.2026   18.9315  -32.7379 H   0  0  0  0  0  0  0  0  0  0  0  0
   -7.2880   19.4868  -34.0571 H   0  0  0  0  0  0  0  0  0  0  0  0
   -5.5567   19.9656  -34.0571 H   0  0  0  0  0  0  0  0  0  0  0  0
   -8.1040   21.2640  -32.2920 C   0  0  0  0  0  0  0  0  0  0  0  0
   -8.8983   20.5557  -32.5702 H   0  0  0  0  0  0  0  0  0  0  0  0
  1  2  1  0
  2  3  2  0
  3  4  1  0
  3  5  1  0
  5  6  1  0
  6  7  2  0
  7  8  1  0
  8  9  2  0
  9 10  1  0
 10 11  1  0
 10 12  1  0
 10 13  1  0
  9 14  1  0
 14 15  1  0
 15 16  2  0
 16 17  1  0
 17 18  1  0
 17 19  1  0
 17 20  1  0
 20 21  1  0
 20 22  1  0
 20 23  1  0
 23 24  2  0
 24 25  1  0
 24 26  1  0
 26 27  1  0
 26 28  2  0
 28 29  1  0
 28 30  1  0
 30 31  1  0
 30 32  2  0
 32 33  1  0
 15 34  1  0
  5 35  2  0
 35 36  1  0
 35 37  1  0
 37 38  1  0
 38 39  1  0
 38 40  1  0
 38 41  1  0
 37 42  2  0
 42 43  1  0
 42  2  1  0
 34  7  1  0
 32 23  1  0
M  CHG  3  14  -1  30   1  34  -1
M  END
>  <UniqueID>  (13) 
13

>  <SMILES>  (13) 
Cc1cccc(/N=c2/nc(C)[n-]/c(=N\CCc3ccc[nH+]c3)[n-]2)c1

>  <Energy>  (13) 
46.72872213183918

>  <Genealogy>  (13) 
Cc1cccc(N=c2nc(C)[n-]c(=NCCc3ccc[nH+]c3)[n-]2)c1 (protonated)
Cc1cccc(/N=c2/nc(C)[n-]/c(=N\CCc3ccc[nH+]c3)[n-]2)c1 (cis-trans isomerization)
Cc1cccc(/N=c2/nc(C)[n-]/c(=N\CCc3ccc[nH+]c3)[n-]2)c1 (3D coordinates assigned)
Cc1cccc(/N=c2/nc(C)[n-]/c(=N\CCc3ccc[nH+]c3)[n-]2)c1 (optimized conformer: 46.72872213183918 kcal/mol)

>  <smiles>  (13) 
Cc1cccc(N=c2nc(C)[nH]c(=NCCc3cccnc3)[nH]2)c1

>  <score_type>  (13) 
oracle

>  <origin>  (13) 
adg

>  <m_score__min__energy>  (13) 
-11.609999999999999

>  <m_primary>  (13) 
energy

$$$$
14:0
     RDKit          3D

 36 38  0  0  1  0  0  0  0  0999 V2000
   -1.5780   25.8220  -28.9500 O   0  0  0  0  0  0  0  0  0  0  0  0
   -1.9230   24.9580  -28.0710 C   0  0  0  0  0  0  0  0  0  0  0  0
   -2.6840   23.8650  -28.5440 N   0  0  0  0  0  0  0  0  0  0  0  0
   -3.5890   23.9780  -29.4570 C   0  0  0  0  0  0  0  0  0  0  0  0
   -3.7630   24.8830  -30.4290 N   0  0  0  0  0  0  0  0  0  0  0  0
   -4.8010   24.6950  -31.1620 N   0  0  0  0  0  0  0  0  0  0  0  0
   -5.6260   23.8930  -31.1500 C   0  0  0  0  0  0  0  0  0  0  0  0
   -7.1600   23.3240  -31.9450 S   0  0  0  0  0  0  0  0  0  0  0  0
   -8.1080   22.2410  -30.8430 C   0  0  0  0  0  0  0  0  0  0  0  0
   -9.4640   21.8660  -31.3800 C   0  0  0  0  0  0  0  0  0  0  0  0
   -9.2690   21.1310  -32.5640 O   0  0  0  0  0  0  0  0  0  0  0  0
   -8.3410   20.0890  -32.5490 C   0  0  0  0  0  0  0  0  0  0  0  0
   -7.1530   20.1730  -33.2900 C   0  0  0  0  0  0  0  0  0  0  0  0
   -6.2210   19.1520  -33.3010 C   0  0  0  0  0  0  0  0  0  0  0  0
   -6.4550   18.0150  -32.5670 C   0  0  0  0  0  0  0  0  0  0  0  0
   -7.6290   17.9510  -31.8440 C   0  0  0  0  0  0  0  0  0  0  0  0
   -8.5640   18.9500  -31.8190 C   0  0  0  0  0  0  0  0  0  0  0  0
   -5.0000   22.8440  -29.6560 S   0  0  0  0  0  0  0  0  0  0  0  0
   -1.5050   25.1820  -26.7180 C   0  0  0  0  0  0  0  0  0  0  0  0
   -1.6980   26.2350  -25.9170 C   0  0  0  0  0  0  0  0  0  0  0  0
   -1.2130   26.2250  -24.6650 C   0  0  0  0  0  0  0  0  0  0  0  0
   -0.5250   25.0940  -24.2670 C   0  0  0  0  0  0  0  0  0  0  0  0
   -0.5550   23.9810  -25.7250 S   0  0  0  0  0  0  0  0  0  0  0  0
   -3.0590   25.6750  -30.5360 H   0  0  0  0  0  0  0  0  0  0  0  0
   -7.5310   21.3183  -30.6826 H   0  0  0  0  0  0  0  0  0  0  0  0
   -8.2755   22.7996  -29.9103 H   0  0  0  0  0  0  0  0  0  0  0  0
  -10.0019   21.2520  -30.6426 H   0  0  0  0  0  0  0  0  0  0  0  0
  -10.0607   22.7679  -31.5813 H   0  0  0  0  0  0  0  0  0  0  0  0
   -6.9568   21.0798  -33.8809 H   0  0  0  0  0  0  0  0  0  0  0  0
   -5.2991   19.2495  -33.8931 H   0  0  0  0  0  0  0  0  0  0  0  0
   -5.7329   17.1853  -32.5557 H   0  0  0  0  0  0  0  0  0  0  0  0
   -7.8245   17.0439  -31.2533 H   0  0  0  0  0  0  0  0  0  0  0  0
   -9.4813   18.8408  -31.2218 H   0  0  0  0  0  0  0  0  0  0  0  0
   -2.2545   27.1101  -26.2839 H   0  0  0  0  0  0  0  0  0  0  0  0
   -1.3567   27.0787  -23.9863 H   0  0  0  0  0  0  0  0  0  0  0  0
   -0.0604   24.9029  -23.2884 H   0  0  0  0  0  0  0  0  0  0  0  0
  1  2  2  0
  2  3  1  0
  3  4  2  0
  4  5  1  0
  5  6  1  0
  6  7  2  0
  7  8  1  0
  8  9  1  0
  9 10  1  0
 10 11  1  0
 11 12  1  0
 12 13  2  0
 13 14  1  0
 14 15  2  0
 15 16  1  0
 16 17  2  0
  7 18  1  0
  2 19  1  0
 19 20  2  0
 20 21  1  0
 21 22  2  0
 22 23  1  0
 18  4  1  0
 23 19  1  0
 17 12  1  0
  5 24  1  0
  9 25  1  0
  9 26  1  0
 10 27  1  0
 10 28  1  0
 13 29  1  0
 14 30  1  0
 15 31  1  0
 16 32  1  0
 17 33  1  0
 20 34  1  0
 21 35  1  0
 22 36  1  0
M  END
>  <smiles>  (14) 
O=C(N=c1[nH]nc(SCCOc2ccccc2)s1)c1cccs1

>  <score_type>  (14) 
oracle

>  <origin>  (14) 
adg

>  <m_score__min__energy>  (14) 
-9.1300000000000008

>  <m_primary>  (14) 
energy

$$$$
15:0
     RDKit          3D

 62 66  0  0  0  0  0  0  0  0999 V2000
   -5.7917   22.5693  -32.8492 H   0  0  0  0  0  0  0  0  0  0  0  0
   -5.7900   23.2660  -31.9980 C   0  0  0  0  0  0  0  0  0  0  0  0
   -4.6490   23.8410  -31.5270 N   0  0  0  0  0  0  0  0  0  0  0  0
   -4.8950   24.6560  -30.4790 C   0  0  0  0  0  0  0  0  0  0  0  0
   -3.9460   25.3010  -29.8680 N   0  0  0  0  0  0  0  0  0  0  0  0
   -2.7400   24.5940  -28.8330 S   0  0  0  0  0  0  0  0  0  0  0  0
   -1.5750   25.5440  -28.7720 O   0  0  0  0  0  0  0  0  0  0  0  0
   -3.2810   24.4130  -27.4410 O   0  0  0  0  0  0  0  0  0  0  0  0
   -2.1890   23.0480  -29.4730 C   0  0  0  0  0  0  0  0  0  0  0  0
   -2.9770   21.8960  -29.3470 C   0  0  0  0  0  0  0  0  0  0  0  0
   -3.9516   21.9525  -28.8401 H   0  0  0  0  0  0  0  0  0  0  0  0
   -2.5310   20.6760  -29.8620 C   0  0  0  0  0  0  0  0  0  0  0  0
   -3.1547   19.7765  -29.7529 H   0  0  0  0  0  0  0  0  0  0  0  0
   -1.2920   20.5900  -30.5180 C   0  0  0  0  0  0  0  0  0  0  0  0
   -0.8220   19.3410  -31.0730 N   0  0  0  0  0  0  0  0  0  0  0  0
    0.4190   18.8270  -30.5430 C   0  0  0  0  0  0  0  0  0  0  0  0
    0.6020   18.7460  -29.2980 O   0  0  0  0  0  0  0  0  0  0  0  0
    1.5100   18.3930  -31.4940 C   0  0  0  0  0  0  0  0  0  0  0  0
    1.4443   17.3061  -31.6502 H   0  0  0  0  0  0  0  0  0  0  0  0
    2.4872   18.6526  -31.0607 H   0  0  0  0  0  0  0  0  0  0  0  0
    1.3570   19.1010  -32.8280 C   0  0  0  0  0  0  0  0  0  0  0  0
    2.4880   19.4870  -33.5580 C   0  0  0  0  0  0  0  0  0  0  0  0
    3.4887   19.1931  -33.2085 H   0  0  0  0  0  0  0  0  0  0  0  0
    2.3560   20.2470  -34.7340 C   0  0  0  0  0  0  0  0  0  0  0  0
    3.4680   20.6400  -35.4970 O   0  0  0  0  0  0  0  0  0  0  0  0
    4.1270   21.8960  -35.3760 C   0  0  0  0  0  0  0  0  0  0  0  0
    4.2558   22.1414  -34.3115 H   0  0  0  0  0  0  0  0  0  0  0  0
    5.1125   21.8413  -35.8615 H   0  0  0  0  0  0  0  0  0  0  0  0
    3.5219   22.6758  -35.8615 H   0  0  0  0  0  0  0  0  0  0  0  0
    1.0820   20.6460  -35.1630 C   0  0  0  0  0  0  0  0  0  0  0  0
    0.9890   21.4430  -36.3160 O   0  0  0  0  0  0  0  0  0  0  0  0
    0.9520   22.8670  -36.3140 C   0  0  0  0  0  0  0  0  0  0  0  0
    0.9425   23.2321  -35.2764 H   0  0  0  0  0  0  0  0  0  0  0  0
    1.8403   23.2576  -36.8320 H   0  0  0  0  0  0  0  0  0  0  0  0
    0.0446   23.2109  -36.8320 H   0  0  0  0  0  0  0  0  0  0  0  0
   -0.0570   20.2480  -34.4370 C   0  0  0  0  0  0  0  0  0  0  0  0
   -1.0526   20.5937  -34.7521 H   0  0  0  0  0  0  0  0  0  0  0  0
    0.0670   19.4120  -33.3120 C   0  0  0  0  0  0  0  0  0  0  0  0
   -1.1000   18.9190  -32.4620 C   0  0  2  0  0  0  0  0  0  0  0  0
   -1.1314   17.8218  -32.5342 H   0  0  0  0  0  0  0  0  0  0  0  0
   -2.5300   19.1450  -32.9730 C   0  0  0  0  0  0  0  0  0  0  0  0
   -3.0990   20.4340  -33.0720 C   0  0  0  0  0  0  0  0  0  0  0  0
   -2.4790   21.3170  -32.8576 H   0  0  0  0  0  0  0  0  0  0  0  0
   -4.4370   20.6060  -33.4380 C   0  0  0  0  0  0  0  0  0  0  0  0
   -4.8433   21.6204  -33.5639 H   0  0  0  0  0  0  0  0  0  0  0  0
   -5.2660   19.4910  -33.6460 C   0  0  0  0  0  0  0  0  0  0  0  0
   -6.6140   19.6110  -34.0140 O   0  0  0  0  0  0  0  0  0  0  0  0
   -7.6630   19.9670  -33.1180 C   0  0  0  0  0  0  0  0  0  0  0  0
   -7.3154   19.8490  -32.0811 H   0  0  0  0  0  0  0  0  0  0  0  0
   -7.9531   21.0139  -33.2906 H   0  0  0  0  0  0  0  0  0  0  0  0
   -8.5304   19.3129  -33.2906 H   0  0  0  0  0  0  0  0  0  0  0  0
   -4.7400   18.2120  -33.4540 C   0  0  0  0  0  0  0  0  0  0  0  0
   -5.3831   17.3307  -33.5945 H   0  0  0  0  0  0  0  0  0  0  0  0
   -3.4040   18.0430  -33.0850 C   0  0  0  0  0  0  0  0  0  0  0  0
   -3.0256   17.0312  -32.8776 H   0  0  0  0  0  0  0  0  0  0  0  0
   -0.5060   21.7470  -30.6410 C   0  0  0  0  0  0  0  0  0  0  0  0
    0.4645   21.6948  -31.1561 H   0  0  0  0  0  0  0  0  0  0  0  0
   -0.9460   22.9630  -30.1150 C   0  0  0  0  0  0  0  0  0  0  0  0
   -0.3140   23.8588  -30.2048 H   0  0  0  0  0  0  0  0  0  0  0  0
   -6.5390   24.6970  -30.0950 S   0  0  0  0  0  0  0  0  0  0  0  0
   -6.9540   23.6240  -31.3240 C   0  0  0  0  0  0  0  0  0  0  0  0
   -7.9689   23.2677  -31.5544 H   0  0  0  0  0  0  0  0  0  0  0  0
  1  2  1  0
  2  3  1  0
  3  4  1  0
  4  5  2  0
  5  6  1  0
  6  7  2  0
  6  8  2  0
  6  9  1  0
  9 10  2  0
 10 11  1  0
 10 12  1  0
 12 13  1  0
 12 14  2  0
 14 15  1  0
 15 16  1  0
 16 17  2  0
 16 18  1  0
 18 19  1  0
 18 20  1  0
 18 21  1  0
 21 22  2  0
 22 23  1  0
 22 24  1  0
 24 25  1  0
 25 26  1  0
 26 27  1  0
 26 28  1  0
 26 29  1  0
 24 30  2  0
 30 31  1  0
 31 32  1  0
 32 33  1  0
 32 34  1  0
 32 35  1  0
 30 36  1  0
 36 37  1  0
 36 38  2  0
 38 39  1  0
 39 40  1  1
 39 41  1  0
 41 42  2  0
 42 43  1  0
 42 44  1  0
 44 45  1  0
 44 46  2  0
 46 47  1  0
 47 48  1  0
 48 49  1  0
 48 50  1  0
 48 51  1  0
 46 52  1  0
 52 53  1  0
 52 54  2  0
 54 55  1  0
 14 56  1  0
 56 57  1  0
 56 58  2  0
 58 59  1  0
  4 60  1  0
 60 61  1  0
 61 62  1  0
 61  2  2  0
 58  9  1  0
 39 15  1  0
 54 41  1  0
 38 21  1  0
M  CHG  1   3  -1
M  END
>  <UniqueID>  (15) 
14

>  <SMILES>  (15) 
COc1ccc([C@H]2c3cc(OC)c(OC)cc3CC(=O)N2c2ccc(S(=O)(=O)/N=c3/[n-]ccs3)cc2)cc1

>  <Energy>  (15) 
130.48915341669755

>  <Genealogy>  (15) 
COc1ccc(C2c3cc(OC)c(OC)cc3CC(=O)N2c2ccc(S(=O)(=O)N=c3[n-]ccs3)cc2)cc1 (protonated)
COc1ccc([C@H]2c3cc(OC)c(OC)cc3CC(=O)N2c2ccc(S(=O)(=O)N=c3[n-]ccs3)cc2)cc1 (chirality)
COc1ccc([C@H]2c3cc(OC)c(OC)cc3CC(=O)N2c2ccc(S(=O)(=O)/N=c3/[n-]ccs3)cc2)cc1 (cis-trans isomerization)
COc1ccc([C@H]2c3cc(OC)c(OC)cc3CC(=O)N2c2ccc(S(=O)(=O)/N=c3/[n-]ccs3)cc2)cc1 (3D coordinates assigned)
COc1ccc([C@H]2c3cc(OC)c(OC)cc3CC(=O)N2c2ccc(S(=O)(=O)/N=c3/[n-]ccs3)cc2)cc1 (nonaromatic ring conformer: 130.48915341669755 kcal/mol)

>  <smiles>  (15) 
COc1ccc(C2c3cc(OC)c(OC)cc3CC(=O)N2c2ccc(S(=O)(=O)N=c3[nH]ccs3)cc2)cc1

>  <score_type>  (15) 
oracle

>  <origin>  (15) 
adg

>  <m_score__min__energy>  (15) 
-9.6400000000000006

>  <m_primary>  (15) 
energy

$$$$
16:0
     RDKit          3D

 42 45  0  0  0  0  0  0  0  0999 V2000
   -5.1971   26.7885  -30.2230 H   0  0  0  0  0  0  0  0  0  0  0  0
   -4.9900   25.7430  -30.4950 C   0  0  0  0  0  0  0  0  0  0  0  0
   -3.7970   25.1880  -30.1840 N   0  0  0  0  0  0  0  0  0  0  0  0
   -3.5100   23.8920  -30.4630 C   0  0  0  0  0  0  0  0  0  0  0  0
   -2.2620   23.3860  -30.0840 C   0  0  0  0  0  0  0  0  0  0  0  0
   -1.5198   24.0521  -29.6198 H   0  0  0  0  0  0  0  0  0  0  0  0
   -1.9540   22.0440  -30.2910 C   0  0  0  0  0  0  0  0  0  0  0  0
   -0.7460   21.5580  -29.9120 F   0  0  0  0  0  0  0  0  0  0  0  0
   -2.9040   21.1940  -30.8480 C   0  0  0  0  0  0  0  0  0  0  0  0
   -2.6697   20.1280  -30.9848 H   0  0  0  0  0  0  0  0  0  0  0  0
   -4.1540   21.6850  -31.2350 C   0  0  0  0  0  0  0  0  0  0  0  0
   -4.9028   20.9918  -31.6458 H   0  0  0  0  0  0  0  0  0  0  0  0
   -4.4740   23.0580  -31.1080 C   0  0  0  0  0  0  0  0  0  0  0  0
   -5.7080   23.6630  -31.5250 C   0  0  0  0  0  0  0  0  0  0  0  0
   -6.6210   23.1230  -32.2960 N   0  0  0  0  0  0  0  0  0  0  0  0
   -7.9120   22.4810  -32.0510 C   0  0  0  0  0  0  0  0  0  0  0  0
   -8.6198   22.7933  -32.8330 H   0  0  0  0  0  0  0  0  0  0  0  0
   -8.2650   22.7881  -31.0554 H   0  0  0  0  0  0  0  0  0  0  0  0
   -7.7980   20.9850  -32.0670 C   0  0  0  0  0  0  0  0  0  0  0  0
   -6.5310   20.1020  -32.7300 S   0  0  0  0  0  0  0  0  0  0  0  0
   -7.1780   18.5720  -32.4260 C   0  0  0  0  0  0  0  0  0  0  0  0
   -6.5240   17.2780  -32.7640 C   0  0  0  0  0  0  0  0  0  0  0  0
   -6.8730   16.5670  -33.9280 C   0  0  0  0  0  0  0  0  0  0  0  0
   -7.6403   16.9717  -34.6044 H   0  0  0  0  0  0  0  0  0  0  0  0
   -6.2530   15.3510  -34.2320 C   0  0  0  0  0  0  0  0  0  0  0  0
   -6.5378   14.8080  -35.1453 H   0  0  0  0  0  0  0  0  0  0  0  0
   -5.2760   14.8190  -33.3880 C   0  0  0  0  0  0  0  0  0  0  0  0
   -4.6850   13.5940  -33.7370 O   0  0  0  0  0  0  0  0  0  0  0  0
   -4.4860   12.5120  -32.8350 C   0  0  0  0  0  0  0  0  0  0  0  0
   -4.5537   12.8798  -31.8005 H   0  0  0  0  0  0  0  0  0  0  0  0
   -5.2586   11.7473  -33.0035 H   0  0  0  0  0  0  0  0  0  0  0  0
   -3.4919   12.0722  -33.0035 H   0  0  0  0  0  0  0  0  0  0  0  0
   -4.9200   15.5230  -32.2240 C   0  0  0  0  0  0  0  0  0  0  0  0
   -4.1516   15.1144  -31.5512 H   0  0  0  0  0  0  0  0  0  0  0  0
   -5.5370   16.7390  -31.9170 C   0  0  0  0  0  0  0  0  0  0  0  0
   -5.2484   17.2805  -31.0041 H   0  0  0  0  0  0  0  0  0  0  0  0
   -8.4200   18.7530  -31.8110 C   0  0  0  0  0  0  0  0  0  0  0  0
   -9.0649   17.9170  -31.5022 H   0  0  0  0  0  0  0  0  0  0  0  0
   -8.7680   20.0970  -31.6240 C   0  0  0  0  0  0  0  0  0  0  0  0
   -9.7175   20.4172  -31.1703 H   0  0  0  0  0  0  0  0  0  0  0  0
   -5.9550   24.9940  -31.1580 C   0  0  0  0  0  0  0  0  0  0  0  0
   -6.9261   25.4515  -31.3983 H   0  0  0  0  0  0  0  0  0  0  0  0
  1  2  1  0
  2  3  1  0
  3  4  1  0
  4  5  2  0
  5  6  1  0
  5  7  1  0
  7  8  1  0
  7  9  2  0
  9 10  1  0
  9 11  1  0
 11 12  1  0
 11 13  2  0
 13 14  1  0
 14 15  2  0
 15 16  1  0
 16 17  1  0
 16 18  1  0
 16 19  1  0
 19 20  1  0
 20 21  1  0
 21 22  1  0
 22 23  2  0
 23 24  1  0
 23 25  1  0
 25 26  1  0
 25 27  2  0
 27 28  1  0
 28 29  1  0
 29 30  1  0
 29 31  1  0
 29 32  1  0
 27 33  1  0
 33 34  1  0
 33 35  2  0
 35 36  1  0
 21 37  2  0
 37 38  1  0
 37 39  1  0
 39 40  1  0
 14 41  1  0
 41 42  1  0
 41  2  2  0
 13  4  1  0
 39 19  2  0
 35 22  1  0
M  CHG  1   3  -1
M  END
>  <UniqueID>  (16) 
15

>  <SMILES>  (16) 
COc1ccc(-c2ccc(C/N=c3/cc[n-]c4cc(F)ccc34)s2)cc1

>  <Energy>  (16) 
92.96073901761903

>  <Genealogy>  (16) 
COc1ccc(-c2ccc(CN=c3cc[n-]c4cc(F)ccc34)s2)cc1 (protonated)
COc1ccc(-c2ccc(C/N=c3/cc[n-]c4cc(F)ccc34)s2)cc1 (cis-trans isomerization)
COc1ccc(-c2ccc(C/N=c3/cc[n-]c4cc(F)ccc34)s2)cc1 (3D coordinates assigned)
COc1ccc(-c2ccc(C/N=c3/cc[n-]c4cc(F)ccc34)s2)cc1 (optimized conformer: 92.96073901761903 kcal/mol)

>  <smiles>  (16) 
COc1ccc(-c2ccc(CN=c3cc[nH]c4cc(F)ccc34)s2)cc1

>  <score_type>  (16) 
oracle

>  <origin>  (16) 
adg

>  <m_score__min__energy>  (16) 
-10.25

>  <m_primary>  (16) 
energy

$$$$
17:0
     RDKit          3D

 34 35  0  0  0  0  0  0  0  0999 V2000
   -4.2160   25.6730  -31.7320 H   0  0  0  0  0  0  0  0  0  0  0  0
   -3.8620   25.6450  -30.7840 O   0  0  0  0  0  0  0  0  0  0  0  0
   -3.4980   24.4430  -30.2200 N   0  0  0  0  0  0  0  0  0  0  0  0
   -3.2160   23.4020  -30.9410 C   0  0  0  0  0  0  0  0  0  0  0  0
   -2.1606   23.1592  -31.1337 H   0  0  0  0  0  0  0  0  0  0  0  0
   -4.2660   22.5300  -31.5130 C   0  0  0  0  0  0  0  0  0  0  0  0
   -4.0540   21.1490  -31.7410 C   0  0  0  0  0  0  0  0  0  0  0  0
   -2.7540   20.4660  -31.3980 C   0  0  0  0  0  0  0  0  0  0  0  0
   -2.6467   20.4096  -30.3047 H   0  0  0  0  0  0  0  0  0  0  0  0
   -2.7512   19.4500  -31.8196 H   0  0  0  0  0  0  0  0  0  0  0  0
   -1.9158   21.0402  -31.8196 H   0  0  0  0  0  0  0  0  0  0  0  0
   -5.0790   20.3870  -32.3180 C   0  0  0  0  0  0  0  0  0  0  0  0
   -4.9179   19.3208  -32.5353 H   0  0  0  0  0  0  0  0  0  0  0  0
   -6.3040   20.9840  -32.6160 C   0  0  0  0  0  0  0  0  0  0  0  0
   -7.6130   20.0070  -33.3590 S   0  0  0  0  0  0  0  0  0  0  0  0
   -6.7290   18.4690  -33.0990 C   0  0  0  0  0  0  0  0  0  0  0  0
   -6.0730   17.8480  -34.1670 C   0  0  0  0  0  0  0  0  0  0  0  0
   -6.1057   18.2999  -35.1694 H   0  0  0  0  0  0  0  0  0  0  0  0
   -5.3760   16.6540  -33.9620 C   0  0  0  0  0  0  0  0  0  0  0  0
   -4.8585   16.1729  -34.8050 H   0  0  0  0  0  0  0  0  0  0  0  0
   -5.3310   16.0650  -32.6920 C   0  0  0  0  0  0  0  0  0  0  0  0
   -4.6170   14.8680  -32.5360 O   0  0  0  0  0  0  0  0  0  0  0  0
   -3.9780   14.1690  -33.6000 C   0  0  0  0  0  0  0  0  0  0  0  0
   -3.2908   13.4173  -33.1844 H   0  0  0  0  0  0  0  0  0  0  0  0
   -4.7378   13.6690  -34.2186 H   0  0  0  0  0  0  0  0  0  0  0  0
   -3.4120   14.8809  -34.2186 H   0  0  0  0  0  0  0  0  0  0  0  0
   -5.9980   16.6930  -31.6200 C   0  0  0  0  0  0  0  0  0  0  0  0
   -5.9704   16.2415  -30.6173 H   0  0  0  0  0  0  0  0  0  0  0  0
   -6.6940   17.8870  -31.8270 C   0  0  0  0  0  0  0  0  0  0  0  0
   -7.2156   18.3705  -30.9879 H   0  0  0  0  0  0  0  0  0  0  0  0
   -6.5080   22.3000  -32.3440 N   0  0  0  0  0  0  0  0  0  0  0  0
   -7.4370   22.7270  -32.5660 H   0  0  0  0  0  0  0  0  0  0  0  0
   -5.5300   23.0790  -31.8050 C   0  0  0  0  0  0  0  0  0  0  0  0
   -5.7620   24.2980  -31.5800 O   0  0  0  0  0  0  0  0  0  0  0  0
  1  2  1  0
  2  3  1  0
  3  4  2  0
  4  5  1  0
  4  6  1  0
  6  7  2  0
  7  8  1  0
  8  9  1  0
  8 10  1  0
  8 11  1  0
  7 12  1  0
 12 13  1  0
 12 14  2  0
 14 15  1  0
 15 16  1  0
 16 17  2  0
 17 18  1  0
 17 19  1  0
 19 20  1  0
 19 21  2  0
 21 22  1  0
 22 23  1  0
 23 24  1  0
 23 25  1  0
 23 26  1  0
 21 27  1  0
 27 28  1  0
 27 29  2  0
 29 30  1  0
 14 31  1  0
 31 32  1  0
 31 33  1  0
 33 34  2  0
 33  6  1  0
 29 16  1  0
M  END
>  <UniqueID>  (17) 
16

>  <SMILES>  (17) 
COc1ccc(Sc2cc(C)c(/C=N\O)c(=O)[nH]2)cc1

>  <Energy>  (17) 
36.98285804484603

>  <Genealogy>  (17) 
COc1ccc(Sc2cc(C)c(/C=N\O)c(=O)[nH]2)cc1 (cis-trans isomerization)
COc1ccc(Sc2cc(C)c(/C=N\O)c(=O)[nH]2)cc1 (3D coordinates assigned)
COc1ccc(Sc2cc(C)c(/C=N\O)c(=O)[nH]2)cc1 (optimized conformer: 36.98285804484603 kcal/mol)

>  <smiles>  (17) 
COc1ccc(Sc2cc(C)c(C=NO)c(=O)[nH]2)cc1

>  <score_type>  (17) 
oracle

>  <origin>  (17) 
adg

>  <m_score__min__energy>  (17) 
-8.0099999999999998

>  <m_primary>  (17) 
energy

$$$$
18:0
     RDKit          3D

 45 47  0  0  0  0  0  0  0  0999 V2000
   -8.4670   20.6030  -32.1850 C   0  0  0  0  0  0  0  0  0  0  0  0
   -7.2400   20.3870  -31.4980 O   0  0  0  0  0  0  0  0  0  0  0  0
   -5.9670   20.6060  -32.0500 C   0  0  0  0  0  0  0  0  0  0  0  0
   -5.3630   19.6750  -32.9150 C   0  0  0  0  0  0  0  0  0  0  0  0
   -4.1130   19.9430  -33.4720 C   0  0  0  0  0  0  0  0  0  0  0  0
   -3.4710   21.1400  -33.1630 C   0  0  0  0  0  0  0  0  0  0  0  0
   -4.0580   22.0280  -32.3220 N   0  0  0  0  0  0  0  0  0  0  0  0
   -5.2750   21.7980  -31.7510 C   0  0  0  0  0  0  0  0  0  0  0  0
   -5.8240   22.7810  -30.8500 N   0  0  0  0  0  0  0  0  0  0  0  0
   -5.3760   22.8430  -29.4490 C   0  0  0  0  0  0  0  0  0  0  0  0
   -5.3600   24.2920  -28.9300 C   0  0  0  0  0  0  0  0  0  0  0  0
   -4.9140   25.2670  -30.0370 C   0  0  0  0  0  0  0  0  0  0  0  0
   -3.5600   24.9390  -30.4860 N   0  0  0  0  0  0  0  0  0  0  0  0
   -2.6240   24.1800  -29.7160 C   0  0  0  0  0  0  0  0  0  0  0  0
   -1.8840   24.7550  -28.8710 O   0  0  0  0  0  0  0  0  0  0  0  0
   -2.5100   22.7700  -29.9440 N   0  0  0  0  0  0  0  0  0  0  0  0
   -1.7530   21.8820  -29.1020 C   0  0  0  0  0  0  0  0  0  0  0  0
   -1.9930   21.8340  -27.7150 C   0  0  0  0  0  0  0  0  0  0  0  0
   -1.2770   20.9510  -26.9040 C   0  0  0  0  0  0  0  0  0  0  0  0
   -0.3250   20.0990  -27.4650 C   0  0  0  0  0  0  0  0  0  0  0  0
   -0.0900   20.1250  -28.8410 C   0  0  0  0  0  0  0  0  0  0  0  0
   -0.8020   21.0060  -29.6630 C   0  0  0  0  0  0  0  0  0  0  0  0
   -0.4560   21.0150  -31.3890 Cl  0  0  0  0  0  0  0  0  0  0  0  0
   -5.8820   25.2230  -31.2450 C   0  0  0  0  0  0  0  0  0  0  0  0
   -6.6350   23.8870  -31.3770 C   0  0  0  0  0  0  0  0  0  0  0  0
   -9.2764   20.7455  -31.4539 H   0  0  0  0  0  0  0  0  0  0  0  0
   -8.3809   21.4998  -32.8161 H   0  0  0  0  0  0  0  0  0  0  0  0
   -8.6923   19.7307  -32.8161 H   0  0  0  0  0  0  0  0  0  0  0  0
   -5.8785   18.7328  -33.1526 H   0  0  0  0  0  0  0  0  0  0  0  0
   -3.6388   19.2166  -34.1484 H   0  0  0  0  0  0  0  0  0  0  0  0
   -2.4875   21.3653  -33.6012 H   0  0  0  0  0  0  0  0  0  0  0  0
   -6.0606   22.2473  -28.8273 H   0  0  0  0  0  0  0  0  0  0  0  0
   -4.3526   22.4434  -29.3940 H   0  0  0  0  0  0  0  0  0  0  0  0
   -6.3713   24.5658  -28.5947 H   0  0  0  0  0  0  0  0  0  0  0  0
   -4.6475   24.3586  -28.0946 H   0  0  0  0  0  0  0  0  0  0  0  0
   -4.9261   26.2825  -29.6143 H   0  0  0  0  0  0  0  0  0  0  0  0
   -2.9720   22.3820  -30.7960 H   0  0  0  0  0  0  0  0  0  0  0  0
   -2.7491   22.4961  -27.2678 H   0  0  0  0  0  0  0  0  0  0  0  0
   -1.4640   20.9271  -25.8203 H   0  0  0  0  0  0  0  0  0  0  0  0
    0.2402   19.4070  -26.8233 H   0  0  0  0  0  0  0  0  0  0  0  0
    0.6585   19.4497  -29.2812 H   0  0  0  0  0  0  0  0  0  0  0  0
   -6.6209   26.0297  -31.1292 H   0  0  0  0  0  0  0  0  0  0  0  0
   -5.2733   25.3437  -32.1533 H   0  0  0  0  0  0  0  0  0  0  0  0
   -7.5769   23.9457  -30.8118 H   0  0  0  0  0  0  0  0  0  0  0  0
   -6.8404   23.6998  -32.4413 H   0  0  0  0  0  0  0  0  0  0  0  0
  1  2  1  0
  2  3  1  0
  3  4  2  0
  4  5  1  0
  5  6  2  0
  6  7  1  0
  7  8  2  0
  8  9  1  0
  9 10  1  0
 10 11  1  0
 11 12  1  0
 12 13  1  0
 13 14  1  0
 14 15  2  0
 14 16  1  0
 16 17  1  0
 17 18  2  0
 18 19  1  0
 19 20  2  0
 20 21  1  0
 21 22  2  0
 22 23  1  0
 12 24  1  0
 24 25  1  0
  8  3  1  0
 25  9  1  0
 22 17  1  0
  1 26  1  0
  1 27  1  0
  1 28  1  0
  4 29  1  0
  5 30  1  0
  6 31  1  0
 10 32  1  0
 10 33  1  0
 11 34  1  0
 11 35  1  0
 12 36  1  0
 16 37  1  0
 18 38  1  0
 19 39  1  0
 20 40  1  0
 21 41  1  0
 24 42  1  0
 24 43  1  0
 25 44  1  0
 25 45  1  0
M  CHG  1  13  -1
M  END
>  <UniqueID>  (18) 
17

>  <SMILES>  (18) 
COc1cccnc1N1CCC([N-]C(=O)Nc2ccccc2Cl)CC1

>  <Energy>  (18) 
55.56745123545877

>  <Genealogy>  (18) 
COc1cccnc1N1CCC([N-]C(=O)Nc2ccccc2Cl)CC1 (protonated)
COc1cccnc1N1CCC([N-]C(=O)Nc2ccccc2Cl)CC1 (3D coordinates assigned)
COc1cccnc1N1CCC([N-]C(=O)Nc2ccccc2Cl)CC1 (nonaromatic ring conformer: 55.56745123545877 kcal/mol)

>  <smiles>  (18) 
COc1cccnc1N1CCC(NC(=O)Nc2ccccc2Cl)CC1

>  <score_type>  (18) 
oracle

>  <origin>  (18) 
adg

>  <m_score__min__energy>  (18) 
-8.1799999999999997

>  <m_primary>  (18) 
energy

$$$$
19:0
     RDKit          3D

 45 48  0  0  0  0  0  0  0  0999 V2000
   -6.5360   23.1040  -30.0850 O   0  0  0  0  0  0  0  0  0  0  0  0
   -5.8150   23.4670  -31.0550 C   0  0  0  0  0  0  0  0  0  0  0  0
   -4.6000   24.1900  -30.8160 N   0  0  0  0  0  0  0  0  0  0  0  0
   -3.8480   24.2110  -29.5940 C   0  0  0  0  0  0  0  0  0  0  0  0
   -4.4550   24.4550  -28.3490 C   0  0  0  0  0  0  0  0  0  0  0  0
   -3.6810   24.4870  -27.1840 C   0  0  0  0  0  0  0  0  0  0  0  0
   -2.3000   24.2880  -27.2530 C   0  0  0  0  0  0  0  0  0  0  0  0
   -1.6870   24.0680  -28.4910 C   0  0  0  0  0  0  0  0  0  0  0  0
    0.0490   23.8330  -28.5800 Cl  0  0  0  0  0  0  0  0  0  0  0  0
   -2.4590   24.0380  -29.6580 C   0  0  0  0  0  0  0  0  0  0  0  0
   -6.1640   23.0950  -32.4130 N   0  0  2  0  0  0  0  0  0  0  0  0
   -7.5750   23.4130  -32.7140 C   0  0  0  0  0  0  0  0  0  0  0  0
   -8.5640   22.5450  -31.9200 C   0  0  0  0  0  0  0  0  0  0  0  0
   -8.1500   21.0980  -31.8550 C   0  0  0  0  0  0  0  0  0  0  0  0
   -9.0830   20.1530  -31.3990 C   0  0  0  0  0  0  0  0  0  0  0  0
   -8.7490   18.7990  -31.3420 C   0  0  0  0  0  0  0  0  0  0  0  0
   -7.4850   18.3750  -31.7500 C   0  0  0  0  0  0  0  0  0  0  0  0
   -6.5440   19.3050  -32.1930 C   0  0  0  0  0  0  0  0  0  0  0  0
   -6.8420   20.6830  -32.2000 C   0  0  0  0  0  0  0  0  0  0  0  0
   -5.8350   21.6850  -32.7590 C   0  0  2  0  0  0  0  0  0  0  0  0
   -4.3760   21.3650  -32.4280 C   0  0  0  0  0  0  0  0  0  0  0  0
   -3.3940   21.5200  -33.4220 C   0  0  0  0  0  0  0  0  0  0  0  0
   -2.0460   21.2870  -33.1310 C   0  0  0  0  0  0  0  0  0  0  0  0
   -1.6620   20.9100  -31.8420 C   0  0  0  0  0  0  0  0  0  0  0  0
   -2.6240   20.7700  -30.8400 C   0  0  0  0  0  0  0  0  0  0  0  0
   -3.9740   21.0010  -31.1260 C   0  0  0  0  0  0  0  0  0  0  0  0
   -5.5408   24.6211  -28.2911 H   0  0  0  0  0  0  0  0  0  0  0  0
   -4.1611   24.6693  -26.2112 H   0  0  0  0  0  0  0  0  0  0  0  0
   -1.6950   24.3043  -26.3345 H   0  0  0  0  0  0  0  0  0  0  0  0
   -1.9724   23.8776  -30.6314 H   0  0  0  0  0  0  0  0  0  0  0  0
   -5.5930   23.7000  -33.0510 H   0  0  0  0  0  0  0  0  0  0  0  0
   -7.7576   24.4692  -32.4669 H   0  0  0  0  0  0  0  0  0  0  0  0
   -7.7396   23.2093  -33.7824 H   0  0  0  0  0  0  0  0  0  0  0  0
   -8.6313   22.9376  -30.8946 H   0  0  0  0  0  0  0  0  0  0  0  0
   -9.5331   22.5889  -32.4386 H   0  0  0  0  0  0  0  0  0  0  0  0
  -10.0844   20.4821  -31.0844 H   0  0  0  0  0  0  0  0  0  0  0  0
   -9.4830   18.0664  -30.9752 H   0  0  0  0  0  0  0  0  0  0  0  0
   -7.2292   17.3055  -31.7226 H   0  0  0  0  0  0  0  0  0  0  0  0
   -5.5592   18.9594  -32.5405 H   0  0  0  0  0  0  0  0  0  0  0  0
   -5.9327   21.5758  -33.8492 H   0  0  0  0  0  0  0  0  0  0  0  0
   -3.6881   21.8269  -34.4365 H   0  0  0  0  0  0  0  0  0  0  0  0
   -1.2867   21.4009  -33.9187 H   0  0  0  0  0  0  0  0  0  0  0  0
   -0.6017   20.7234  -31.6164 H   0  0  0  0  0  0  0  0  0  0  0  0
   -2.3201   20.4776  -29.8240 H   0  0  0  0  0  0  0  0  0  0  0  0
   -4.7266   20.8981  -30.3304 H   0  0  0  0  0  0  0  0  0  0  0  0
  1  2  2  0
  2  3  1  0
  3  4  1  0
  4  5  2  0
  5  6  1  0
  6  7  2  0
  7  8  1  0
  8  9  1  0
  8 10  2  0
  2 11  1  0
 11 12  1  0
 12 13  1  0
 13 14  1  0
 14 15  2  0
 15 16  1  0
 16 17  2  0
 17 18  1  0
 18 19  2  0
 19 20  1  0
 20 21  1  0
 21 22  2  0
 22 23  1  0
 23 24  2  0
 24 25  1  0
 25 26  2  0
 10  4  1  0
 20 11  1  0
 26 21  1  0
 19 14  1  0
  5 27  1  0
  6 28  1  0
  7 29  1  0
 10 30  1  0
 11 31  1  6
 12 32  1  0
 12 33  1  0
 13 34  1  0
 13 35  1  0
 15 36  1  0
 16 37  1  0
 17 38  1  0
 18 39  1  0
 20 40  1  6
 22 41  1  0
 23 42  1  0
 24 43  1  0
 25 44  1  0
 26 45  1  0
M  CHG  2   3  -1  11   1
M  END
>  <UniqueID>  (19) 
18

>  <SMILES>  (19) 
O=C([N-]c1cccc(Cl)c1)[N@@H+]1CCc2ccccc2[C@@H]1c1ccccc1

>  <Energy>  (19) 
65.44858943243055

>  <Genealogy>  (19) 
O=C([N-]c1cccc(Cl)c1)[NH+]1CCc2ccccc2C1c1ccccc1 (protonated)
O=C([N-]c1cccc(Cl)c1)[N@@H+]1CCc2ccccc2[C@@H]1c1ccccc1 (chirality)
O=C([N-]c1cccc(Cl)c1)[N@@H+]1CCc2ccccc2[C@@H]1c1ccccc1 (3D coordinates assigned)
O=C([N-]c1cccc(Cl)c1)[N@@H+]1CCc2ccccc2[C@@H]1c1ccccc1 (nonaromatic ring conformer: 65.44858943243055 kcal/mol)

>  <smiles>  (19) 
O=C(Nc1cccc(Cl)c1)N1CCc2ccccc2C1c1ccccc1

>  <score_type>  (19) 
oracle

>  <origin>  (19) 
adg

>  <m_score__min__energy>  (19) 
-9.3699999999999992

>  <m_primary>  (19) 
energy

$$$$
20:0
     RDKit          3D

 47 50  0  0  0  0  0  0  0  0999 V2000
   -7.5810   17.8160  -32.0180 C   0  0  0  0  0  0  0  0  0  0  0  0
   -8.7900   18.7380  -32.1430 C   0  0  0  0  0  0  0  0  0  0  0  0
   -8.4420   19.9500  -32.8840 N   0  0  0  0  0  0  0  0  0  0  0  0
   -7.7070   21.0650  -32.3400 C   0  0  0  0  0  0  0  0  0  0  0  0
   -8.3010   22.3440  -32.1750 C   0  0  0  0  0  0  0  0  0  0  0  0
   -7.5640   23.4110  -31.6360 C   0  0  0  0  0  0  0  0  0  0  0  0
   -6.2440   23.1760  -31.2720 C   0  0  0  0  0  0  0  0  0  0  0  0
   -5.3280   24.0260  -30.7100 C   0  0  0  0  0  0  0  0  0  0  0  0
   -4.1720   23.2680  -30.5390 C   0  0  0  0  0  0  0  0  0  0  0  0
   -4.3580   21.9920  -30.9860 N   0  0  0  0  0  0  0  0  0  0  0  0
   -5.6450   21.9530  -31.4210 C   0  0  0  0  0  0  0  0  0  0  0  0
   -6.3620   20.8690  -31.9500 C   0  0  0  0  0  0  0  0  0  0  0  0
   -3.4850   20.8210  -30.7900 C   0  0  0  0  0  0  0  0  0  0  0  0
   -2.0070   21.0200  -31.2380 C   0  0  0  0  0  0  0  0  0  0  0  0
   -1.3010   19.6190  -31.2110 C   0  0  0  0  0  0  0  0  0  0  0  0
   -0.2040   19.5120  -32.2790 C   0  0  0  0  0  0  0  0  0  0  0  0
   -0.7510   19.6380  -33.6440 N   0  0  0  0  0  0  0  0  0  0  0  0
   -1.9180   20.5360  -33.7530 C   0  0  0  0  0  0  0  0  0  0  0  0
   -1.9200   21.6300  -32.6770 C   0  0  0  0  0  0  0  0  0  0  0  0
   -1.2830   21.9300  -30.2140 C   0  0  0  0  0  0  0  0  0  0  0  0
   -1.6390   23.3340  -30.3570 N   0  0  0  0  0  0  0  0  0  0  0  0
   -2.9230   23.8520  -30.0130 C   0  0  0  0  0  0  0  0  0  0  0  0
   -2.9830   24.9230  -29.3510 O   0  0  0  0  0  0  0  0  0  0  0  0
   -7.3580   17.6459  -30.9544 H   0  0  0  0  0  0  0  0  0  0  0  0
   -7.8013   16.8545  -32.5048 H   0  0  0  0  0  0  0  0  0  0  0  0
   -6.7120   18.2828  -32.5048 H   0  0  0  0  0  0  0  0  0  0  0  0
   -9.5944   18.2084  -32.6744 H   0  0  0  0  0  0  0  0  0  0  0  0
   -9.1224   19.0237  -31.1341 H   0  0  0  0  0  0  0  0  0  0  0  0
   -8.7490   19.9990  -33.8830 H   0  0  0  0  0  0  0  0  0  0  0  0
   -9.3484   22.5006  -32.4722 H   0  0  0  0  0  0  0  0  0  0  0  0
   -8.0187   24.4041  -31.5058 H   0  0  0  0  0  0  0  0  0  0  0  0
   -5.4747   25.0844  -30.4488 H   0  0  0  0  0  0  0  0  0  0  0  0
   -5.8859   19.8835  -32.0595 H   0  0  0  0  0  0  0  0  0  0  0  0
   -3.4861   20.5699  -29.7190 H   0  0  0  0  0  0  0  0  0  0  0  0
   -3.8943   20.0224  -31.4261 H   0  0  0  0  0  0  0  0  0  0  0  0
   -0.8487   19.4674  -30.2198 H   0  0  0  0  0  0  0  0  0  0  0  0
   -2.0591   18.8504  -31.4218 H   0  0  0  0  0  0  0  0  0  0  0  0
    0.5313   20.3135  -32.1151 H   0  0  0  0  0  0  0  0  0  0  0  0
    0.2638   18.5205  -32.1893 H   0  0  0  0  0  0  0  0  0  0  0  0
    0.0100   20.0040  -34.2630 H   0  0  0  0  0  0  0  0  0  0  0  0
   -1.9033   21.0150  -34.7431 H   0  0  0  0  0  0  0  0  0  0  0  0
   -2.8229   19.9267  -33.6120 H   0  0  0  0  0  0  0  0  0  0  0  0
   -0.9928   22.2158  -32.7613 H   0  0  0  0  0  0  0  0  0  0  0  0
   -2.8022   22.2677  -32.8352 H   0  0  0  0  0  0  0  0  0  0  0  0
   -1.5519   21.6008  -29.1994 H   0  0  0  0  0  0  0  0  0  0  0  0
   -0.2022   21.8418  -30.3985 H   0  0  0  0  0  0  0  0  0  0  0  0
   -0.8580   24.0180  -30.4700 H   0  0  0  0  0  0  0  0  0  0  0  0
  1  2  1  0
  2  3  1  0
  3  4  1  0
  4  5  2  0
  5  6  1  0
  6  7  2  0
  7  8  1  0
  8  9  2  0
  9 10  1  0
 10 11  1  0
 11 12  2  0
 10 13  1  0
 13 14  1  0
 14 15  1  0
 15 16  1  0
 16 17  1  0
 17 18  1  0
 18 19  1  0
 14 20  1  0
 20 21  1  0
 21 22  1  0
 22 23  2  0
 12  4  1  0
 19 14  1  0
 11  7  1  0
 22  9  1  0
  1 24  1  0
  1 25  1  0
  1 26  1  0
  2 27  1  0
  2 28  1  0
  3 29  1  0
  5 30  1  0
  6 31  1  0
  8 32  1  0
 12 33  1  0
 13 34  1  0
 13 35  1  0
 15 36  1  0
 15 37  1  0
 16 38  1  0
 16 39  1  0
 17 40  1  0
 18 41  1  0
 18 42  1  0
 19 43  1  0
 19 44  1  0
 20 45  1  0
 20 46  1  0
 21 47  1  0
M  END
>  <UniqueID>  (20) 
19

>  <SMILES>  (20) 
CCNc1ccc2cc3n(c2c1)CC1(CCNCC1)CNC3=O

>  <Energy>  (20) 
98.61333935690291

>  <Genealogy>  (20) 
CCNc1ccc2cc3n(c2c1)CC1(CCNCC1)CNC3=O (3D coordinates assigned)
CCNc1ccc2cc3n(c2c1)CC1(CCNCC1)CNC3=O (nonaromatic ring conformer: 98.61333935690291 kcal/mol)

>  <smiles>  (20) 
CCNc1ccc2cc3n(c2c1)CC1(CCNCC1)CNC3=O

>  <score_type>  (20) 
oracle

>  <origin>  (20) 
adg

>  <m_score__min__energy>  (20) 
-7.21

>  <m_primary>  (20) 
energy

$$$$
21:0
     RDKit          3D

 34 35  0  0  0  0  0  0  0  0999 V2000
   -9.1350   22.3900  -31.9270 C   0  0  0  0  0  0  0  0  0  0  0  0
   -7.6570   22.2020  -31.5620 C   0  0  0  0  0  0  0  0  0  0  0  0
   -7.3990   22.5950  -30.1000 C   0  0  0  0  0  0  0  0  0  0  0  0
   -7.2050   20.7720  -31.8390 C   0  0  0  0  0  0  0  0  0  0  0  0
   -8.1010   19.7100  -31.5950 C   0  0  0  0  0  0  0  0  0  0  0  0
   -7.7420   18.3910  -31.8740 C   0  0  0  0  0  0  0  0  0  0  0  0
   -6.4890   18.1070  -32.4130 C   0  0  0  0  0  0  0  0  0  0  0  0
   -5.5880   19.1400  -32.6640 C   0  0  0  0  0  0  0  0  0  0  0  0
   -5.9220   20.4700  -32.3690 C   0  0  0  0  0  0  0  0  0  0  0  0
   -4.6860   21.7360  -32.7200 S   0  0  0  0  0  0  0  0  0  0  0  0
   -4.0620   21.7660  -31.0290 C   0  0  0  0  0  0  0  0  0  0  0  0
   -3.6870   20.5870  -30.4530 N   0  0  0  0  0  0  0  0  0  0  0  0
   -3.1310   20.5370  -29.2140 C   0  0  0  0  0  0  0  0  0  0  0  0
   -2.9350   21.7080  -28.4860 C   0  0  0  0  0  0  0  0  0  0  0  0
   -3.3340   22.9270  -29.0320 C   0  0  0  0  0  0  0  0  0  0  0  0
   -3.9230   22.9750  -30.3070 C   0  0  0  0  0  0  0  0  0  0  0  0
   -4.3730   24.2350  -30.8330 N   0  0  0  0  0  0  0  0  0  0  0  0
   -3.8460   25.3000  -30.4470 O   0  0  0  0  0  0  0  0  0  0  0  0
   -5.4950   24.3020  -31.6260 O   0  0  0  0  0  0  0  0  0  0  0  0
   -9.7331   22.4661  -31.0069 H   0  0  0  0  0  0  0  0  0  0  0  0
   -9.2526   23.3103  -32.5179 H   0  0  0  0  0  0  0  0  0  0  0  0
   -9.4792   21.5284  -32.5179 H   0  0  0  0  0  0  0  0  0  0  0  0
   -7.0598   22.8710  -32.1990 H   0  0  0  0  0  0  0  0  0  0  0  0
   -7.8792   21.8635  -29.4335 H   0  0  0  0  0  0  0  0  0  0  0  0
   -6.3157   22.6086  -29.9097 H   0  0  0  0  0  0  0  0  0  0  0  0
   -7.8173   23.5944  -29.9097 H   0  0  0  0  0  0  0  0  0  0  0  0
   -9.0964   19.9248  -31.1790 H   0  0  0  0  0  0  0  0  0  0  0  0
   -8.4493   17.5741  -31.6681 H   0  0  0  0  0  0  0  0  0  0  0  0
   -6.2109   17.0673  -32.6404 H   0  0  0  0  0  0  0  0  0  0  0  0
   -4.6039   18.9099  -33.0983 H   0  0  0  0  0  0  0  0  0  0  0  0
   -3.8230   19.6920  -30.9720 H   0  0  0  0  0  0  0  0  0  0  0  0
   -2.8348   19.5685  -28.7847 H   0  0  0  0  0  0  0  0  0  0  0  0
   -2.4699   21.6713  -27.4899 H   0  0  0  0  0  0  0  0  0  0  0  0
   -3.1870   23.8562  -28.4619 H   0  0  0  0  0  0  0  0  0  0  0  0
  1  2  1  0
  2  3  1  0
  2  4  1  0
  4  5  2  0
  5  6  1  0
  6  7  2  0
  7  8  1  0
  8  9  2  0
  9 10  1  0
 10 11  1  0
 11 12  2  0
 12 13  1  0
 13 14  2  0
 14 15  1  0
 15 16  2  0
 16 17  1  0
 17 18  2  0
 17 19  1  0
  9  4  1  0
 16 11  1  0
  1 20  1  0
  1 21  1  0
  1 22  1  0
  2 23  1  0
  3 24  1  0
  3 25  1  0
  3 26  1  0
  5 27  1  0
  6 28  1  0
  7 29  1  0
  8 30  1  0
 12 31  1  0
 13 32  1  0
 14 33  1  0
 15 34  1  0
M  CHG  3  12   1  17   1  19  -1
M  END
>  <UniqueID>  (21) 
20

>  <SMILES>  (21) 
CC(C)c1ccccc1Sc1[nH+]cccc1[N+](=O)[O-]

>  <Energy>  (21) 
33.359554355154714

>  <Genealogy>  (21) 
CC(C)c1ccccc1Sc1[nH+]cccc1[N+](=O)[O-] (protonated)
CC(C)c1ccccc1Sc1[nH+]cccc1[N+](=O)[O-] (3D coordinates assigned)
CC(C)c1ccccc1Sc1[nH+]cccc1[N+](=O)[O-] (optimized conformer: 33.359554355154714 kcal/mol)

>  <smiles>  (21) 
CC(C)c1ccccc1Sc1ncccc1[N+](=O)[O-]

>  <score_type>  (21) 
oracle

>  <origin>  (21) 
adg

>  <m_score__min__energy>  (21) 
-7.2199999999999998

>  <m_primary>  (21) 
energy

$$$$
22:0
     RDKit          3D

 46 49  0  0  0  0  0  0  0  0999 V2000
   -2.3260   21.9980  -30.4010 C   0  0  0  0  0  0  0  0  0  0  0  0
   -2.0040   22.9910  -29.3620 N   0  0  0  0  0  0  0  0  0  0  0  0
   -2.9370   23.8970  -28.9200 C   0  0  0  0  0  0  0  0  0  0  0  0
   -4.2330   24.0050  -29.5320 N   0  0  0  0  0  0  0  0  0  0  0  0
   -4.6200   25.2900  -30.1090 C   0  0  0  0  0  0  0  0  0  0  0  0
   -5.7610   25.0700  -31.0970 C   0  0  0  0  0  0  0  0  0  0  0  0
   -6.8560   24.4280  -30.4700 O   0  0  0  0  0  0  0  0  0  0  0  0
   -6.5100   23.1270  -30.0130 C   0  0  1  0  0  0  0  0  0  0  0  0
   -6.3990   22.1400  -31.1690 C   0  0  0  0  0  0  0  0  0  0  0  0
   -5.1560   21.9900  -31.8090 C   0  0  0  0  0  0  0  0  0  0  0  0
   -5.0020   21.0860  -32.8640 C   0  0  0  0  0  0  0  0  0  0  0  0
   -6.0830   20.3080  -33.2800 C   0  0  0  0  0  0  0  0  0  0  0  0
   -5.9310   19.4270  -34.2980 F   0  0  0  0  0  0  0  0  0  0  0  0
   -7.3190   20.4320  -32.6420 C   0  0  0  0  0  0  0  0  0  0  0  0
   -7.4800   21.3420  -31.5940 C   0  0  0  0  0  0  0  0  0  0  0  0
   -5.3140   23.1540  -29.0270 C   0  0  0  0  0  0  0  0  0  0  0  0
   -2.6430   24.7230  -27.8810 N   0  0  0  0  0  0  0  0  0  0  0  0
   -1.4400   24.6970  -27.2520 C   0  0  0  0  0  0  0  0  0  0  0  0
   -1.1750   25.6200  -26.1230 C   0  0  0  0  0  0  0  0  0  0  0  0
   -1.1080   27.0080  -26.3230 C   0  0  0  0  0  0  0  0  0  0  0  0
   -0.8570   27.8330  -25.2280 C   0  0  0  0  0  0  0  0  0  0  0  0
   -0.6840   27.2920  -23.9940 N   0  0  0  0  0  0  0  0  0  0  0  0
   -0.7490   25.9460  -23.8120 C   0  0  0  0  0  0  0  0  0  0  0  0
   -0.9920   25.1270  -24.8670 N   0  0  0  0  0  0  0  0  0  0  0  0
   -0.4740   23.7900  -27.6860 C   0  0  0  0  0  0  0  0  0  0  0  0
   -0.7800   22.9300  -28.7410 C   0  0  0  0  0  0  0  0  0  0  0  0
    0.0890   22.0910  -29.1110 O   0  0  0  0  0  0  0  0  0  0  0  0
   -2.6318   21.0549  -29.9246 H   0  0  0  0  0  0  0  0  0  0  0  0
   -3.1477   22.3758  -31.0272 H   0  0  0  0  0  0  0  0  0  0  0  0
   -1.4390   21.8217  -31.0272 H   0  0  0  0  0  0  0  0  0  0  0  0
   -4.9512   25.9683  -29.3089 H   0  0  0  0  0  0  0  0  0  0  0  0
   -3.7600   25.7366  -30.6295 H   0  0  0  0  0  0  0  0  0  0  0  0
   -6.0907   26.0435  -31.4889 H   0  0  0  0  0  0  0  0  0  0  0  0
   -5.3991   24.4291  -31.9145 H   0  0  0  0  0  0  0  0  0  0  0  0
   -7.3367   22.7350  -29.4023 H   0  0  0  0  0  0  0  0  0  0  0  0
   -4.2962   22.5900  -31.4761 H   0  0  0  0  0  0  0  0  0  0  0  0
   -4.0284   20.9879  -33.3664 H   0  0  0  0  0  0  0  0  0  0  0  0
   -8.1680   19.8117  -32.9653 H   0  0  0  0  0  0  0  0  0  0  0  0
   -8.4570   21.4361  -31.0974 H   0  0  0  0  0  0  0  0  0  0  0  0
   -5.6563   23.5454  -28.0576 H   0  0  0  0  0  0  0  0  0  0  0  0
   -4.9293   22.1294  -28.9162 H   0  0  0  0  0  0  0  0  0  0  0  0
   -1.2510   27.4367  -27.3259 H   0  0  0  0  0  0  0  0  0  0  0  0
   -0.7989   28.9231  -25.3632 H   0  0  0  0  0  0  0  0  0  0  0  0
   -0.4970   27.9150  -23.1780 H   0  0  0  0  0  0  0  0  0  0  0  0
   -0.6044   25.5201  -22.8082 H   0  0  0  0  0  0  0  0  0  0  0  0
    0.5141   23.7531  -27.2040 H   0  0  0  0  0  0  0  0  0  0  0  0
  1  2  1  0
  2  3  1  0
  3  4  1  0
  4  5  1  0
  5  6  1  0
  6  7  1  0
  7  8  1  0
  8  9  1  0
  9 10  2  0
 10 11  1  0
 11 12  2  0
 12 13  1  0
 12 14  1  0
 14 15  2  0
  8 16  1  0
  3 17  2  0
 17 18  1  0
 18 19  1  0
 19 20  2  0
 20 21  1  0
 21 22  2  0
 22 23  1  0
 23 24  2  0
 18 25  2  0
 25 26  1  0
 26 27  2  0
 26  2  1  0
 16  4  1  0
 24 19  1  0
 15  9  1  0
  1 28  1  0
  1 29  1  0
  1 30  1  0
  5 31  1  0
  5 32  1  0
  6 33  1  0
  6 34  1  0
  8 35  1  1
 10 36  1  0
 11 37  1  0
 14 38  1  0
 15 39  1  0
 16 40  1  0
 16 41  1  0
 20 42  1  0
 21 43  1  0
 22 44  1  0
 23 45  1  0
 25 46  1  0
M  CHG  1  22   1
M  END
>  <UniqueID>  (22) 
21

>  <SMILES>  (22) 
Cn1c(N2CCO[C@@H](c3ccc(F)cc3)C2)nc(-c2cc[nH+]cn2)cc1=O

>  <Energy>  (22) 
66.84113042939114

>  <Genealogy>  (22) 
Cn1c(N2CCOC(c3ccc(F)cc3)C2)nc(-c2cc[nH+]cn2)cc1=O (protonated)
Cn1c(N2CCO[C@@H](c3ccc(F)cc3)C2)nc(-c2cc[nH+]cn2)cc1=O (chirality)
Cn1c(N2CCO[C@@H](c3ccc(F)cc3)C2)nc(-c2cc[nH+]cn2)cc1=O (3D coordinates assigned)
Cn1c(N2CCO[C@@H](c3ccc(F)cc3)C2)nc(-c2cc[nH+]cn2)cc1=O (nonaromatic ring conformer: 66.84113042939114 kcal/mol)

>  <smiles>  (22) 
Cn1c(N2CCOC(c3ccc(F)cc3)C2)nc(-c2ccncn2)cc1=O

>  <score_type>  (22) 
oracle

>  <origin>  (22) 
adg

>  <m_score__min__energy>  (22) 
-8.0399999999999991

>  <m_primary>  (22) 
energy

$$$$
23:0
     RDKit          3D

 44 47  0  0  0  0  0  0  0  0999 V2000
   -5.4923   25.9661  -31.6338 H   0  0  0  0  0  0  0  0  0  0  0  0
   -4.9930   25.1500  -31.0910 C   0  0  0  0  0  0  0  0  0  0  0  0
   -3.8680   25.4070  -30.3830 N   0  0  0  0  0  0  0  0  0  0  0  0
   -3.2160   24.4400  -29.6910 C   0  0  0  0  0  0  0  0  0  0  0  0
   -2.0610   24.7660  -28.9720 C   0  0  0  0  0  0  0  0  0  0  0  0
   -1.5970   26.0420  -28.9650 F   0  0  0  0  0  0  0  0  0  0  0  0
   -1.3740   23.7810  -28.2620 C   0  0  0  0  0  0  0  0  0  0  0  0
   -0.4669   24.0482  -27.7000 H   0  0  0  0  0  0  0  0  0  0  0  0
   -1.8270   22.4550  -28.2570 C   0  0  0  0  0  0  0  0  0  0  0  0
   -1.0800   21.4620  -27.5270 N   0  0  0  0  0  0  0  0  0  0  0  0
   -0.6900   20.6460  -28.0520 H   0  0  0  0  0  0  0  0  0  0  0  0
   -0.8750   21.4770  -26.0770 C   0  0  0  0  0  0  0  0  0  0  0  0
   -1.8526   21.5289  -25.5753 H   0  0  0  0  0  0  0  0  0  0  0  0
   -0.3434   20.5586  -25.7871 H   0  0  0  0  0  0  0  0  0  0  0  0
   -0.0450   22.6650  -25.6650 C   0  0  0  0  0  0  0  0  0  0  0  0
    1.0380   23.0810  -26.4510 C   0  0  0  0  0  0  0  0  0  0  0  0
    1.2853   22.5404  -27.3765 H   0  0  0  0  0  0  0  0  0  0  0  0
    1.8030   24.1810  -26.0600 C   0  0  0  0  0  0  0  0  0  0  0  0
    2.6569   24.5090  -26.6710 H   0  0  0  0  0  0  0  0  0  0  0  0
    1.4740   24.8610  -24.8860 C   0  0  0  0  0  0  0  0  0  0  0  0
    2.0732   25.7264  -24.5664 H   0  0  0  0  0  0  0  0  0  0  0  0
    0.4130   24.4550  -24.1360 N   0  0  0  0  0  0  0  0  0  0  0  0
    0.1780   24.9770  -23.2630 H   0  0  0  0  0  0  0  0  0  0  0  0
   -0.3470   23.3860  -24.5000 C   0  0  0  0  0  0  0  0  0  0  0  0
   -1.2026   23.0858  -23.8773 H   0  0  0  0  0  0  0  0  0  0  0  0
   -2.9990   22.1300  -28.9660 C   0  0  0  0  0  0  0  0  0  0  0  0
   -3.3734   21.0958  -28.9497 H   0  0  0  0  0  0  0  0  0  0  0  0
   -3.7010   23.1130  -29.6980 C   0  0  0  0  0  0  0  0  0  0  0  0
   -4.8600   22.7990  -30.4540 C   0  0  0  0  0  0  0  0  0  0  0  0
   -5.2610   21.5510  -30.4760 N   0  0  0  0  0  0  0  0  0  0  0  0
   -5.2480   20.6110  -31.5560 C   0  0  0  0  0  0  0  0  0  0  0  0
   -6.2880   19.6810  -31.6760 C   0  0  0  0  0  0  0  0  0  0  0  0
   -7.1283   19.7030  -30.9665 H   0  0  0  0  0  0  0  0  0  0  0  0
   -6.2610   18.7240  -32.6960 C   0  0  0  0  0  0  0  0  0  0  0  0
   -7.0893   18.0076  -32.7991 H   0  0  0  0  0  0  0  0  0  0  0  0
   -5.1820   18.6770  -33.5850 C   0  0  0  0  0  0  0  0  0  0  0  0
   -5.1450   17.3690  -34.9760 Br  0  0  0  0  0  0  0  0  0  0  0  0
   -4.1240   19.5830  -33.4480 C   0  0  0  0  0  0  0  0  0  0  0  0
   -3.2717   19.5412  -34.1422 H   0  0  0  0  0  0  0  0  0  0  0  0
   -4.1490   20.5420  -32.4290 C   0  0  0  0  0  0  0  0  0  0  0  0
   -3.1090   21.4020  -32.2910 F   0  0  0  0  0  0  0  0  0  0  0  0
   -5.5280   23.8570  -31.1400 C   0  0  0  0  0  0  0  0  0  0  0  0
   -6.7920   23.7060  -31.8210 C   0  0  0  0  0  0  0  0  0  0  0  0
   -7.8060   23.5750  -32.3640 N   0  0  0  0  0  0  0  0  0  0  0  0
  1  2  1  0
  2  3  1  0
  3  4  1  0
  4  5  2  0
  5  6  1  0
  5  7  1  0
  7  8  1  0
  7  9  2  0
  9 10  1  0
 10 11  1  0
 10 12  1  0
 12 13  1  0
 12 14  1  0
 12 15  1  0
 15 16  2  0
 16 17  1  0
 16 18  1  0
 18 19  1  0
 18 20  2  0
 20 21  1  0
 20 22  1  0
 22 23  1  0
 22 24  2  0
 24 25  1  0
  9 26  1  0
 26 27  1  0
 26 28  2  0
 28 29  1  0
 29 30  2  0
 30 31  1  0
 31 32  2  0
 32 33  1  0
 32 34  1  0
 34 35  1  0
 34 36  2  0
 36 37  1  0
 36 38  1  0
 38 39  1  0
 38 40  2  0
 40 41  1  0
 29 42  1  0
 42 43  1  0
 43 44  3  0
 42  2  2  0
 28  4  1  0
 40 31  1  0
 24 15  1  0
M  CHG  2   3  -1  22   1
M  END
>  <UniqueID>  (23) 
22

>  <SMILES>  (23) 
N#Cc1c[n-]c2c(F)cc(NCc3ccc[nH+]c3)cc2/c1=N/c1ccc(Br)cc1F

>  <Energy>  (23) 
68.46446059783824

>  <Genealogy>  (23) 
N#Cc1c[n-]c2c(F)cc(NCc3ccc[nH+]c3)cc2c1=Nc1ccc(Br)cc1F (protonated)
N#Cc1c[n-]c2c(F)cc(NCc3ccc[nH+]c3)cc2/c1=N/c1ccc(Br)cc1F (cis-trans isomerization)
N#Cc1c[n-]c2c(F)cc(NCc3ccc[nH+]c3)cc2/c1=N/c1ccc(Br)cc1F (3D coordinates assigned)
N#Cc1c[n-]c2c(F)cc(NCc3ccc[nH+]c3)cc2/c1=N/c1ccc(Br)cc1F (optimized conformer: 68.46446059783824 kcal/mol)

>  <smiles>  (23) 
N#Cc1c[nH]c2c(F)cc(NCc3cccnc3)cc2c1=Nc1ccc(Br)cc1F

>  <score_type>  (23) 
oracle

>  <origin>  (23) 
adg

>  <m_score__min__energy>  (23) 
-10.4

>  <m_primary>  (23) 
energy

$$$$
24:0
     RDKit          3D

 43 45  0  0  0  0  0  0  0  0999 V2000
   -4.6430   21.8900  -32.4510 C   0  0  0  0  0  0  0  0  0  0  0  0
   -6.0840   21.8050  -32.2030 N   0  0  0  0  0  0  0  0  0  0  0  0
   -6.9100   22.7680  -31.7070 C   0  0  0  0  0  0  0  0  0  0  0  0
   -6.5120   24.1970  -31.4030 C   0  0  0  0  0  0  0  0  0  0  0  0
   -5.9140   24.3830  -30.0570 N   0  0  2  0  0  0  0  0  0  0  0  0
   -6.4580   25.5660  -29.3650 C   0  0  0  0  0  0  0  0  0  0  0  0
   -4.4610   24.4280  -30.1100 C   0  0  0  0  0  0  0  0  0  0  0  0
   -3.8990   25.2970  -30.8370 O   0  0  0  0  0  0  0  0  0  0  0  0
   -3.6340   23.4620  -29.4090 N   0  0  0  0  0  0  0  0  0  0  0  0
   -2.1900   23.4630  -29.7110 C   0  0  0  0  0  0  0  0  0  0  0  0
   -1.3940   22.4880  -28.8430 C   0  0  0  0  0  0  0  0  0  0  0  0
   -2.1050   21.2850  -28.6650 O   0  0  0  0  0  0  0  0  0  0  0  0
   -3.2190   21.5420  -27.8410 C   0  0  0  0  0  0  0  0  0  0  0  0
   -4.2480   22.4230  -28.5590 C   0  0  0  0  0  0  0  0  0  0  0  0
   -8.1910   22.2590  -31.5000 C   0  0  0  0  0  0  0  0  0  0  0  0
   -8.1220   20.9390  -31.8830 C   0  0  0  0  0  0  0  0  0  0  0  0
   -9.1000   19.9470  -31.8690 C   0  0  0  0  0  0  0  0  0  0  0  0
   -8.7340   18.6580  -32.2950 C   0  0  0  0  0  0  0  0  0  0  0  0
   -7.4120   18.3920  -32.7140 C   0  0  0  0  0  0  0  0  0  0  0  0
   -6.4450   19.4140  -32.7120 C   0  0  0  0  0  0  0  0  0  0  0  0
   -6.8370   20.6900  -32.2940 C   0  0  0  0  0  0  0  0  0  0  0  0
   -4.1070   21.9216  -31.4910 H   0  0  0  0  0  0  0  0  0  0  0  0
   -4.3170   21.0095  -33.0241 H   0  0  0  0  0  0  0  0  0  0  0  0
   -4.4228   22.8027  -33.0241 H   0  0  0  0  0  0  0  0  0  0  0  0
   -5.7773   24.5192  -32.1556 H   0  0  0  0  0  0  0  0  0  0  0  0
   -7.4338   24.7967  -31.4278 H   0  0  0  0  0  0  0  0  0  0  0  0
   -6.2190   23.5700  -29.4780 H   0  0  0  0  0  0  0  0  0  0  0  0
   -6.3899   25.4180  -28.2771 H   0  0  0  0  0  0  0  0  0  0  0  0
   -5.8789   26.4565  -29.6508 H   0  0  0  0  0  0  0  0  0  0  0  0
   -7.5109   25.7060  -29.6508 H   0  0  0  0  0  0  0  0  0  0  0  0
   -2.0530   23.1841  -30.7662 H   0  0  0  0  0  0  0  0  0  0  0  0
   -1.8118   24.4740  -29.4992 H   0  0  0  0  0  0  0  0  0  0  0  0
   -0.4332   22.2705  -29.3324 H   0  0  0  0  0  0  0  0  0  0  0  0
   -1.2252   22.9480  -27.8582 H   0  0  0  0  0  0  0  0  0  0  0  0
   -3.6920   20.5869  -27.5689 H   0  0  0  0  0  0  0  0  0  0  0  0
   -2.8724   22.0731  -26.9422 H   0  0  0  0  0  0  0  0  0  0  0  0
   -4.8769   21.7801  -29.1924 H   0  0  0  0  0  0  0  0  0  0  0  0
   -4.8328   22.9395  -27.7836 H   0  0  0  0  0  0  0  0  0  0  0  0
   -9.0690   22.7971  -31.1133 H   0  0  0  0  0  0  0  0  0  0  0  0
  -10.1253   20.1651  -31.5355 H   0  0  0  0  0  0  0  0  0  0  0  0
   -9.4822   17.8517  -32.3019 H   0  0  0  0  0  0  0  0  0  0  0  0
   -7.1365   17.3795  -33.0440 H   0  0  0  0  0  0  0  0  0  0  0  0
   -5.4108   19.2154  -33.0299 H   0  0  0  0  0  0  0  0  0  0  0  0
  1  2  1  0
  2  3  1  0
  3  4  1  0
  4  5  1  0
  5  6  1  0
  5  7  1  0
  7  8  2  0
  7  9  1  0
  9 10  1  0
 10 11  1  0
 11 12  1  0
 12 13  1  0
 13 14  1  0
  3 15  2  0
 15 16  1  0
 16 17  2  0
 17 18  1  0
 18 19  2  0
 19 20  1  0
 20 21  2  0
 21  2  1  0
 14  9  1  0
 21 16  1  0
  1 22  1  0
  1 23  1  0
  1 24  1  0
  4 25  1  0
  4 26  1  0
  5 27  1  1
  6 28  1  0
  6 29  1  0
  6 30  1  0
 10 31  1  0
 10 32  1  0
 11 33  1  0
 11 34  1  0
 13 35  1  0
 13 36  1  0
 14 37  1  0
 14 38  1  0
 15 39  1  0
 17 40  1  0
 18 41  1  0
 19 42  1  0
 20 43  1  0
M  CHG  1   5   1
M  END
>  <UniqueID>  (24) 
23

>  <SMILES>  (24) 
Cn1c(C[N@H+](C)C(=O)N2CCOCC2)cc2ccccc21

>  <Energy>  (24) 
84.87991444368802

>  <Genealogy>  (24) 
Cn1c(C[NH+](C)C(=O)N2CCOCC2)cc2ccccc21 (protonated)
Cn1c(C[N@H+](C)C(=O)N2CCOCC2)cc2ccccc21 (chirality)
Cn1c(C[N@H+](C)C(=O)N2CCOCC2)cc2ccccc21 (3D coordinates assigned)
Cn1c(C[N@H+](C)C(=O)N2CCOCC2)cc2ccccc21 (nonaromatic ring conformer: 84.87991444368802 kcal/mol)

>  <smiles>  (24) 
CN(Cc1cc2ccccc2n1C)C(=O)N1CCOCC1

>  <score_type>  (24) 
oracle

>  <origin>  (24) 
adg

>  <m_score__min__energy>  (24) 
-7.2800000000000002

>  <m_primary>  (24) 
energy

$$$$
25:0
     RDKit          3D

 43 46  0  0  0  0  0  0  0  0999 V2000
   -4.5860   21.5110  -32.9490 C   0  0  0  0  0  0  0  0  0  0  0  0
   -5.8250   21.9970  -32.2690 C   0  0  0  0  0  0  0  0  0  0  0  0
   -7.0590   21.5860  -32.6220 N   0  0  0  0  0  0  0  0  0  0  0  0
   -7.9240   22.1990  -31.8310 N   0  0  0  0  0  0  0  0  0  0  0  0
   -9.3700   22.0630  -31.9470 C   0  0  0  0  0  0  0  0  0  0  0  0
   -7.2780   23.0180  -30.9830 C   0  0  0  0  0  0  0  0  0  0  0  0
   -5.9210   22.9140  -31.2260 C   0  0  0  0  0  0  0  0  0  0  0  0
   -4.8680   23.6570  -30.5040 C   0  0  0  0  0  0  0  0  0  0  0  0
   -4.1700   23.2560  -29.3800 C   0  0  0  0  0  0  0  0  0  0  0  0
   -3.3170   24.3120  -29.1230 C   0  0  0  0  0  0  0  0  0  0  0  0
   -2.3070   24.3970  -28.0090 C   0  0  1  0  0  0  0  0  0  0  0  0
   -1.0960   25.2480  -28.3830 C   0  0  0  0  0  0  0  0  0  0  0  0
   -1.0860   26.4060  -27.3960 C   0  0  0  0  0  0  0  0  0  0  0  0
   -1.9340   26.0380  -26.2560 N   0  0  0  0  0  0  0  0  0  0  0  0
   -1.1700   25.5940  -25.0650 C   0  0  0  0  0  0  0  0  0  0  0  0
   -0.3560   26.6840  -24.4140 C   0  0  0  0  0  0  0  0  0  0  0  0
   -0.1960   27.9770  -24.8730 C   0  0  0  0  0  0  0  0  0  0  0  0
    0.6230   28.5690  -23.9310 C   0  0  0  0  0  0  0  0  0  0  0  0
    0.9130   27.6780  -23.0090 O   0  0  0  0  0  0  0  0  0  0  0  0
    0.3420   26.5420  -23.2740 N   0  0  0  0  0  0  0  0  0  0  0  0
   -2.8940   25.0400  -26.7460 C   0  0  0  0  0  0  0  0  0  0  0  0
   -3.4980   25.2780  -30.0430 N   0  0  0  0  0  0  0  0  0  0  0  0
   -4.4430   24.8790  -30.8820 N   0  0  0  0  0  0  0  0  0  0  0  0
   -3.8428   21.2195  -32.1923 H   0  0  0  0  0  0  0  0  0  0  0  0
   -4.8296   20.6418  -33.5776 H   0  0  0  0  0  0  0  0  0  0  0  0
   -4.1737   22.3140  -33.5776 H   0  0  0  0  0  0  0  0  0  0  0  0
   -9.8161   22.0210  -30.9424 H   0  0  0  0  0  0  0  0  0  0  0  0
   -9.7769   22.9268  -32.4931 H   0  0  0  0  0  0  0  0  0  0  0  0
   -9.6087   21.1384  -32.4931 H   0  0  0  0  0  0  0  0  0  0  0  0
   -7.7488   23.6612  -30.2250 H   0  0  0  0  0  0  0  0  0  0  0  0
   -4.2705   22.3145  -28.8201 H   0  0  0  0  0  0  0  0  0  0  0  0
   -2.0120   23.3532  -27.8260 H   0  0  0  0  0  0  0  0  0  0  0  0
   -0.1711   24.6594  -28.2931 H   0  0  0  0  0  0  0  0  0  0  0  0
   -1.1537   25.6015  -29.4231 H   0  0  0  0  0  0  0  0  0  0  0  0
   -0.0584   26.5939  -27.0515 H   0  0  0  0  0  0  0  0  0  0  0  0
   -1.4662   27.3200  -27.8756 H   0  0  0  0  0  0  0  0  0  0  0  0
   -1.8826   25.2049  -24.3228 H   0  0  0  0  0  0  0  0  0  0  0  0
   -0.4580   24.8304  -25.4115 H   0  0  0  0  0  0  0  0  0  0  0  0
   -0.6225   28.4308  -25.7797 H   0  0  0  0  0  0  0  0  0  0  0  0
    0.9737   29.6114  -23.9494 H   0  0  0  0  0  0  0  0  0  0  0  0
    0.4280   25.6810  -22.6900 H   0  0  0  0  0  0  0  0  0  0  0  0
   -3.0577   24.2706  -25.9771 H   0  0  0  0  0  0  0  0  0  0  0  0
   -3.8586   25.5174  -26.9735 H   0  0  0  0  0  0  0  0  0  0  0  0
  1  2  1  0
  2  3  2  0
  3  4  1  0
  4  5  1  0
  4  6  1  0
  6  7  2  0
  7  8  1  0
  8  9  1  0
  9 10  2  0
 10 11  1  0
 11 12  1  0
 12 13  1  0
 13 14  1  0
 14 15  1  0
 15 16  1  0
 16 17  1  0
 17 18  2  0
 18 19  1  0
 19 20  1  0
 14 21  1  0
 10 22  1  0
 22 23  1  0
  7  2  1  0
 23  8  2  0
 21 11  1  0
 20 16  2  0
  1 24  1  0
  1 25  1  0
  1 26  1  0
  5 27  1  0
  5 28  1  0
  5 29  1  0
  6 30  1  0
  9 31  1  0
 11 32  1  1
 12 33  1  0
 12 34  1  0
 13 35  1  0
 13 36  1  0
 15 37  1  0
 15 38  1  0
 17 39  1  0
 18 40  1  0
 20 41  1  0
 21 42  1  0
 21 43  1  0
M  CHG  2  20   1  22  -1
M  END
>  <UniqueID>  (25) 
24

>  <SMILES>  (25) 
Cc1nn(C)cc1-c1cc([C@H]2CCN(Cc3cco[nH+]3)C2)[n-]n1

>  <Energy>  (25) 
139.79179434976518

>  <Genealogy>  (25) 
Cc1nn(C)cc1-c1cc(C2CCN(Cc3cco[nH+]3)C2)[n-]n1 (protonated)
Cc1nn(C)cc1-c1cc([C@H]2CCN(Cc3cco[nH+]3)C2)[n-]n1 (chirality)
Cc1nn(C)cc1-c1cc([C@H]2CCN(Cc3cco[nH+]3)C2)[n-]n1 (3D coordinates assigned)
Cc1nn(C)cc1-c1cc([C@H]2CCN(Cc3cco[nH+]3)C2)[n-]n1 (nonaromatic ring conformer: 139.79179434976518 kcal/mol)

>  <smiles>  (25) 
Cc1nn(C)cc1-c1cc(C2CCN(Cc3ccon3)C2)[nH]n1

>  <score_type>  (25) 
oracle

>  <origin>  (25) 
adg

>  <m_score__min__energy>  (25) 
-11.029999999999999

>  <m_primary>  (25) 
energy

$$$$
26:0
     RDKit          3D

 34 35  0  0  0  0  0  0  0  0999 V2000
   -6.4980   16.6880  -33.5280 C   0  0  0  0  0  0  0  0  0  0  0  0
   -7.0880   17.4500  -32.4790 O   0  0  0  0  0  0  0  0  0  0  0  0
   -7.1400   18.8510  -32.4340 C   0  0  0  0  0  0  0  0  0  0  0  0
   -8.3420   19.5220  -32.1270 C   0  0  0  0  0  0  0  0  0  0  0  0
   -8.3900   20.9160  -32.0810 C   0  0  0  0  0  0  0  0  0  0  0  0
   -7.2400   21.6710  -32.3360 C   0  0  0  0  0  0  0  0  0  0  0  0
   -7.3030   23.1780  -32.3320 C   0  0  0  0  0  0  0  0  0  0  0  0
   -7.2250   23.7470  -30.9090 C   0  0  0  0  0  0  0  0  0  0  0  0
   -5.8030   23.9830  -30.4810 C   0  0  0  0  0  0  0  0  0  0  0  0
   -5.2040   23.1810  -29.5040 C   0  0  0  0  0  0  0  0  0  0  0  0
   -3.8990   23.4620  -29.1020 C   0  0  0  0  0  0  0  0  0  0  0  0
   -3.2270   24.5380  -29.6800 C   0  0  0  0  0  0  0  0  0  0  0  0
   -2.0490   24.8140  -29.3350 O   0  0  0  0  0  0  0  0  0  0  0  0
   -3.8540   25.2930  -30.6190 N   0  0  0  0  0  0  0  0  0  0  0  0
   -5.1030   25.0260  -31.0060 N   0  0  0  0  0  0  0  0  0  0  0  0
   -6.0430   21.0140  -32.6510 C   0  0  0  0  0  0  0  0  0  0  0  0
   -5.9740   19.6160  -32.7010 C   0  0  0  0  0  0  0  0  0  0  0  0
   -4.7230   19.0580  -33.0230 O   0  0  0  0  0  0  0  0  0  0  0  0
   -3.5650   19.7680  -33.4440 C   0  0  0  0  0  0  0  0  0  0  0  0
   -5.8786   15.8880  -33.0964 H   0  0  0  0  0  0  0  0  0  0  0  0
   -7.2901   16.2439  -34.1488 H   0  0  0  0  0  0  0  0  0  0  0  0
   -5.8698   17.3436  -34.1488 H   0  0  0  0  0  0  0  0  0  0  0  0
   -9.2523   18.9397  -31.9214 H   0  0  0  0  0  0  0  0  0  0  0  0
   -9.3365   21.4236  -31.8431 H   0  0  0  0  0  0  0  0  0  0  0  0
   -6.4604   23.5713  -32.9196 H   0  0  0  0  0  0  0  0  0  0  0  0
   -8.2654   23.4815  -32.7697 H   0  0  0  0  0  0  0  0  0  0  0  0
   -7.7701   24.7019  -30.8766 H   0  0  0  0  0  0  0  0  0  0  0  0
   -7.6725   23.0139  -30.2218 H   0  0  0  0  0  0  0  0  0  0  0  0
   -5.7553   22.3397  -29.0587 H   0  0  0  0  0  0  0  0  0  0  0  0
   -3.4058   22.8425  -28.3384 H   0  0  0  0  0  0  0  0  0  0  0  0
   -5.1411   21.6071  -32.8629 H   0  0  0  0  0  0  0  0  0  0  0  0
   -3.0047   20.1115  -32.5619 H   0  0  0  0  0  0  0  0  0  0  0  0
   -2.9278   19.1051  -34.0479 H   0  0  0  0  0  0  0  0  0  0  0  0
   -3.8668   20.6365  -34.0479 H   0  0  0  0  0  0  0  0  0  0  0  0
  1  2  1  0
  2  3  1  0
  3  4  2  0
  4  5  1  0
  5  6  2  0
  6  7  1  0
  7  8  1  0
  8  9  1  0
  9 10  1  0
 10 11  2  0
 11 12  1  0
 12 13  2  0
 12 14  1  0
 14 15  1  0
  6 16  1  0
 16 17  2  0
 17 18  1  0
 18 19  1  0
 17  3  1  0
 15  9  2  0
  1 20  1  0
  1 21  1  0
  1 22  1  0
  4 23  1  0
  5 24  1  0
  7 25  1  0
  7 26  1  0
  8 27  1  0
  8 28  1  0
 10 29  1  0
 11 30  1  0
 16 31  1  0
 19 32  1  0
 19 33  1  0
 19 34  1  0
M  CHG  1  14  -1
M  END
>  <UniqueID>  (26) 
25

>  <SMILES>  (26) 
COc1ccc(CCc2ccc(=O)[n-]n2)cc1OC

>  <Energy>  (26) 
33.46651512035865

>  <Genealogy>  (26) 
COc1ccc(CCc2ccc(=O)[n-]n2)cc1OC (protonated)
COc1ccc(CCc2ccc(=O)[n-]n2)cc1OC (3D coordinates assigned)
COc1ccc(CCc2ccc(=O)[n-]n2)cc1OC (optimized conformer: 33.46651512035865 kcal/mol)

>  <smiles>  (26) 
COc1ccc(CCc2ccc(=O)[nH]n2)cc1OC

>  <score_type>  (26) 
oracle

>  <origin>  (26) 
adg

>  <m_score__min__energy>  (26) 
-9.1999999999999993

>  <m_primary>  (26) 
energy

$$$$
27:0
     RDKit          3D

 52 54  0  0  0  0  0  0  0  0999 V2000
   -4.7430   13.8330  -32.9470 C   0  0  0  0  0  0  0  0  0  0  0  0
   -4.5260   15.0780  -32.2910 O   0  0  0  0  0  0  0  0  0  0  0  0
   -5.1250   16.2890  -32.6730 C   0  0  0  0  0  0  0  0  0  0  0  0
   -6.1290   16.9020  -31.8970 C   0  0  0  0  0  0  0  0  0  0  0  0
   -6.7020   18.1210  -32.2930 C   0  0  0  0  0  0  0  0  0  0  0  0
   -6.2590   18.7380  -33.4850 C   0  0  0  0  0  0  0  0  0  0  0  0
   -5.2860   18.1120  -34.2740 C   0  0  0  0  0  0  0  0  0  0  0  0
   -4.7050   16.8980  -33.8660 C   0  0  0  0  0  0  0  0  0  0  0  0
   -3.6970   16.2650  -34.6150 O   0  0  0  0  0  0  0  0  0  0  0  0
   -2.2990   16.4380  -34.4040 C   0  0  0  0  0  0  0  0  0  0  0  0
   -6.8740   20.0360  -33.9480 C   0  0  0  0  0  0  0  0  0  0  0  0
   -7.4140   20.7640  -32.7930 N   0  0  0  0  0  0  0  0  0  0  0  0
   -6.6810   21.8710  -32.2190 C   0  0  0  0  0  0  0  0  0  0  0  0
   -7.2880   22.9260  -31.8800 O   0  0  0  0  0  0  0  0  0  0  0  0
   -5.2300   21.8020  -31.9950 C   0  0  0  0  0  0  0  0  0  0  0  0
   -4.3480   21.6840  -33.0800 C   0  0  0  0  0  0  0  0  0  0  0  0
   -2.9730   21.5800  -32.8560 C   0  0  0  0  0  0  0  0  0  0  0  0
   -2.4680   21.6020  -31.5530 C   0  0  0  0  0  0  0  0  0  0  0  0
   -3.3390   21.7320  -30.4590 C   0  0  0  0  0  0  0  0  0  0  0  0
   -2.8060   21.7510  -29.0500 C   0  0  0  0  0  0  0  0  0  0  0  0
   -3.4930   22.7660  -28.2370 N   0  0  0  0  0  0  0  0  0  0  0  0
   -2.6050   23.8790  -27.8550 C   0  0  0  0  0  0  0  0  0  0  0  0
   -2.5450   24.9110  -28.9370 C   0  0  0  0  0  0  0  0  0  0  0  0
   -1.6100   25.9870  -28.8640 N   0  0  0  0  0  0  0  0  0  0  0  0
   -3.3770   24.8720  -29.8820 O   0  0  0  0  0  0  0  0  0  0  0  0
   -4.7220   21.8230  -30.6860 C   0  0  0  0  0  0  0  0  0  0  0  0
   -8.3880   20.0060  -32.0040 C   0  0  0  0  0  0  0  0  0  0  0  0
   -7.6910   18.7980  -31.3640 C   0  0  0  0  0  0  0  0  0  0  0  0
   -4.8809   13.0417  -32.1955 H   0  0  0  0  0  0  0  0  0  0  0  0
   -5.6427   13.9020  -33.5762 H   0  0  0  0  0  0  0  0  0  0  0  0
   -3.8731   13.5935  -33.5762 H   0  0  0  0  0  0  0  0  0  0  0  0
   -6.4682   16.4190  -30.9687 H   0  0  0  0  0  0  0  0  0  0  0  0
   -4.9732   18.5742  -35.2219 H   0  0  0  0  0  0  0  0  0  0  0  0
   -2.0916   16.4637  -33.3240 H   0  0  0  0  0  0  0  0  0  0  0  0
   -1.7526   15.6006  -34.8625 H   0  0  0  0  0  0  0  0  0  0  0  0
   -1.9732   17.3833  -34.8625 H   0  0  0  0  0  0  0  0  0  0  0  0
   -6.1059   20.6498  -34.4412 H   0  0  0  0  0  0  0  0  0  0  0  0
   -7.6865   19.8228  -34.6582 H   0  0  0  0  0  0  0  0  0  0  0  0
   -4.7396   21.6734  -34.1079 H   0  0  0  0  0  0  0  0  0  0  0  0
   -2.2851   21.4804  -33.7085 H   0  0  0  0  0  0  0  0  0  0  0  0
   -1.3844   21.5172  -31.3837 H   0  0  0  0  0  0  0  0  0  0  0  0
   -2.9598   20.7616  -28.5945 H   0  0  0  0  0  0  0  0  0  0  0  0
   -1.7348   21.9985  -29.0853 H   0  0  0  0  0  0  0  0  0  0  0  0
   -4.2580   23.1640  -28.8320 H   0  0  0  0  0  0  0  0  0  0  0  0
   -2.9868   24.3445  -26.9344 H   0  0  0  0  0  0  0  0  0  0  0  0
   -1.5925   23.4806  -27.6933 H   0  0  0  0  0  0  0  0  0  0  0  0
   -1.2120   26.4120  -29.7310 H   0  0  0  0  0  0  0  0  0  0  0  0
   -5.4114   21.9112  -29.8334 H   0  0  0  0  0  0  0  0  0  0  0  0
   -8.8039   20.6506  -31.2157 H   0  0  0  0  0  0  0  0  0  0  0  0
   -9.2018   19.6587  -32.6575 H   0  0  0  0  0  0  0  0  0  0  0  0
   -7.1524   19.1390  -30.4676 H   0  0  0  0  0  0  0  0  0  0  0  0
   -8.4702   18.0606  -31.1207 H   0  0  0  0  0  0  0  0  0  0  0  0
  1  2  1  0
  2  3  1  0
  3  4  2  0
  4  5  1  0
  5  6  2  0
  6  7  1  0
  7  8  2  0
  8  9  1  0
  9 10  1  0
  6 11  1  0
 11 12  1  0
 12 13  1  0
 13 14  2  0
 13 15  1  0
 15 16  2  0
 16 17  1  0
 17 18  2  0
 18 19  1  0
 19 20  1  0
 20 21  1  0
 21 22  1  0
 22 23  1  0
 23 24  1  0
 23 25  2  0
 19 26  2  0
 12 27  1  0
 27 28  1  0
  8  3  1  0
 26 15  1  0
 28  5  1  0
  1 29  1  0
  1 30  1  0
  1 31  1  0
  4 32  1  0
  7 33  1  0
 10 34  1  0
 10 35  1  0
 10 36  1  0
 11 37  1  0
 11 38  1  0
 16 39  1  0
 17 40  1  0
 18 41  1  0
 20 42  1  0
 20 43  1  0
 21 44  1  0
 22 45  1  0
 22 46  1  0
 24 47  1  0
 26 48  1  0
 27 49  1  0
 27 50  1  0
 28 51  1  0
 28 52  1  0
M  CHG  1  24  -1
M  END
>  <UniqueID>  (27) 
26

>  <SMILES>  (27) 
COc1cc2c(cc1OC)CN(C(=O)c1cccc(CNCC([NH-])=O)c1)CC2

>  <Energy>  (27) 
60.79044697185406

>  <Genealogy>  (27) 
COc1cc2c(cc1OC)CN(C(=O)c1cccc(CNCC([NH-])=O)c1)CC2 (protonated)
COc1cc2c(cc1OC)CN(C(=O)c1cccc(CNCC([NH-])=O)c1)CC2 (3D coordinates assigned)
COc1cc2c(cc1OC)CN(C(=O)c1cccc(CNCC([NH-])=O)c1)CC2 (nonaromatic ring conformer: 60.79044697185406 kcal/mol)

>  <smiles>  (27) 
COc1cc2c(cc1OC)CN(C(=O)c1cccc(CNCC(N)=O)c1)CC2

>  <score_type>  (27) 
oracle

>  <origin>  (27) 
adg

>  <m_score__min__energy>  (27) 
-10.81

>  <m_primary>  (27) 
energy

$$$$
28:0
     RDKit          3D

 27 29  0  0  0  0  0  0  0  0999 V2000
   -3.8670   25.2650  -30.8500 O   0  0  0  0  0  0  0  0  0  0  0  0
   -5.1020   25.6790  -30.3350 C   0  0  0  0  0  0  0  0  0  0  0  0
   -5.8710   24.4810  -29.7790 C   0  0  0  0  0  0  0  0  0  0  0  0
   -7.2510   24.0190  -30.8830 S   0  0  0  0  0  0  0  0  0  0  0  0
   -6.3710   22.6760  -31.6770 C   0  0  0  0  0  0  0  0  0  0  0  0
   -4.9990   22.6220  -31.6130 N   0  0  0  0  0  0  0  0  0  0  0  0
   -4.3090   21.6350  -32.1990 N   0  0  0  0  0  0  0  0  0  0  0  0
   -5.0000   20.6840  -32.8640 C   0  0  0  0  0  0  0  0  0  0  0  0
   -6.3590   20.7230  -32.9450 C   0  0  0  0  0  0  0  0  0  0  0  0
   -7.0670   21.7160  -32.3580 N   0  0  0  0  0  0  0  0  0  0  0  0
   -6.8510   19.6870  -33.6540 N   0  0  0  0  0  0  0  0  0  0  0  0
   -5.7500   18.9870  -34.0220 C   0  0  0  0  0  0  0  0  0  0  0  0
   -5.7090   17.8160  -34.7770 C   0  0  0  0  0  0  0  0  0  0  0  0
   -4.4480   17.2490  -35.0470 C   0  0  0  0  0  0  0  0  0  0  0  0
   -3.2660   17.8560  -34.5630 C   0  0  0  0  0  0  0  0  0  0  0  0
   -3.3270   19.0370  -33.8020 C   0  0  0  0  0  0  0  0  0  0  0  0
   -4.5870   19.5730  -33.5520 C   0  0  0  0  0  0  0  0  0  0  0  0
   -4.0610   24.5600  -31.5230 H   0  0  0  0  0  0  0  0  0  0  0  0
   -4.9334   26.4083  -29.5289 H   0  0  0  0  0  0  0  0  0  0  0  0
   -5.6907   26.1400  -31.1418 H   0  0  0  0  0  0  0  0  0  0  0  0
   -5.1852   23.6263  -29.6835 H   0  0  0  0  0  0  0  0  0  0  0  0
   -6.2845   24.7551  -28.7972 H   0  0  0  0  0  0  0  0  0  0  0  0
   -7.8510   19.4740  -33.8700 H   0  0  0  0  0  0  0  0  0  0  0  0
   -6.6324   17.3492  -35.1503 H   0  0  0  0  0  0  0  0  0  0  0  0
   -4.3821   16.3250  -35.6402 H   0  0  0  0  0  0  0  0  0  0  0  0
   -2.2896   17.4000  -34.7839 H   0  0  0  0  0  0  0  0  0  0  0  0
   -2.4149   19.5183  -33.4194 H   0  0  0  0  0  0  0  0  0  0  0  0
  1  2  1  0
  2  3  1  0
  3  4  1  0
  4  5  1  0
  5  6  2  0
  6  7  1  0
  7  8  2  0
  8  9  1  0
  9 10  2  0
  9 11  1  0
 11 12  1  0
 12 13  2  0
 13 14  1  0
 14 15  2  0
 15 16  1  0
 16 17  2  0
 10  5  1  0
 17 12  1  0
 17  8  1  0
  1 18  1  0
  2 19  1  0
  2 20  1  0
  3 21  1  0
  3 22  1  0
 11 23  1  0
 13 24  1  0
 14 25  1  0
 15 26  1  0
 16 27  1  0
M  END
>  <UniqueID>  (28) 
27

>  <SMILES>  (28) 
OCCSc1nnc2c(n1)[nH]c1ccccc12

>  <Energy>  (28) 
70.63291483431958

>  <Genealogy>  (28) 
OCCSc1nnc2c(n1)[nH]c1ccccc12 (3D coordinates assigned)
OCCSc1nnc2c(n1)[nH]c1ccccc12 (optimized conformer: 70.63291483431958 kcal/mol)

>  <smiles>  (28) 
OCCSc1nnc2c(n1)[nH]c1ccccc12

>  <score_type>  (28) 
oracle

>  <origin>  (28) 
adg

>  <m_score__min__energy>  (28) 
-7.4199999999999999

>  <m_primary>  (28) 
energy

$$$$
29:0
     RDKit          3D

 42 45  0  0  0  0  0  0  0  0999 V2000
    1.8200   20.3410  -33.6320 O   0  0  0  0  0  0  0  0  0  0  0  0
    1.1130   19.9430  -32.6830 N   0  0  0  0  0  0  0  0  0  0  0  0
    1.7330   19.4560  -31.5550 O   0  0  0  0  0  0  0  0  0  0  0  0
   -0.3240   19.9810  -32.7690 C   0  0  0  0  0  0  0  0  0  0  0  0
   -1.0880   18.8260  -32.5290 C   0  0  0  0  0  0  0  0  0  0  0  0
   -2.4830   18.8660  -32.6120 C   0  0  0  0  0  0  0  0  0  0  0  0
   -3.1450   20.0640  -32.9270 C   0  0  0  0  0  0  0  0  0  0  0  0
   -4.6540   20.0800  -33.0660 C   0  0  2  0  0  0  0  0  0  0  0  0
   -5.1850   21.5350  -33.0640 C   0  0  0  0  0  0  0  0  0  0  0  0
   -5.4990   22.0720  -31.6760 C   0  0  0  0  0  0  0  0  0  0  0  0
   -4.5700   23.0020  -30.9930 C   0  0  0  0  0  0  0  0  0  0  0  0
   -4.9520   24.3400  -30.7820 C   0  0  0  0  0  0  0  0  0  0  0  0
   -4.1020   25.2220  -30.1100 C   0  0  0  0  0  0  0  0  0  0  0  0
   -2.8540   24.7860  -29.6590 C   0  0  0  0  0  0  0  0  0  0  0  0
   -2.0070   25.6660  -28.9960 O   0  0  0  0  0  0  0  0  0  0  0  0
   -2.4550   23.4660  -29.8810 C   0  0  0  0  0  0  0  0  0  0  0  0
   -3.3050   22.5770  -30.5450 C   0  0  0  0  0  0  0  0  0  0  0  0
   -6.5960   21.7230  -31.0590 N   0  0  0  0  0  0  0  0  0  0  0  0
   -7.5400   20.7650  -31.5620 C   0  0  0  0  0  0  0  0  0  0  0  0
   -8.8980   21.0980  -31.6170 C   0  0  0  0  0  0  0  0  0  0  0  0
   -9.8150   20.2150  -32.1950 C   0  0  0  0  0  0  0  0  0  0  0  0
   -9.3780   18.9920  -32.7140 C   0  0  0  0  0  0  0  0  0  0  0  0
   -8.0280   18.6390  -32.6350 C   0  0  0  0  0  0  0  0  0  0  0  0
   -7.1100   19.5140  -32.0440 C   0  0  0  0  0  0  0  0  0  0  0  0
   -5.4100   18.9860  -31.7920 S   0  0  0  0  0  0  0  0  0  0  0  0
   -2.3800   21.2150  -33.1790 C   0  0  0  0  0  0  0  0  0  0  0  0
   -0.9860   21.1760  -33.0990 C   0  0  0  0  0  0  0  0  0  0  0  0
   -0.5839   17.8822  -32.2736 H   0  0  0  0  0  0  0  0  0  0  0  0
   -3.0668   17.9518  -32.4291 H   0  0  0  0  0  0  0  0  0  0  0  0
   -4.9546   19.6648  -34.0393 H   0  0  0  0  0  0  0  0  0  0  0  0
   -4.4232   22.1828  -33.5223 H   0  0  0  0  0  0  0  0  0  0  0  0
   -6.1296   21.5321  -33.6276 H   0  0  0  0  0  0  0  0  0  0  0  0
   -5.9268   24.6939  -31.1488 H   0  0  0  0  0  0  0  0  0  0  0  0
   -4.4162   26.2617  -29.9358 H   0  0  0  0  0  0  0  0  0  0  0  0
   -1.4690   23.1251  -29.5323 H   0  0  0  0  0  0  0  0  0  0  0  0
   -2.9836   21.5394  -30.7185 H   0  0  0  0  0  0  0  0  0  0  0  0
   -9.2449   22.0569  -31.2044 H   0  0  0  0  0  0  0  0  0  0  0  0
  -10.8810   20.4824  -32.2416 H   0  0  0  0  0  0  0  0  0  0  0  0
  -10.0980   18.3068  -33.1852 H   0  0  0  0  0  0  0  0  0  0  0  0
   -7.6873   17.6736  -33.0373 H   0  0  0  0  0  0  0  0  0  0  0  0
   -2.8840   22.1567  -33.4420 H   0  0  0  0  0  0  0  0  0  0  0  0
   -0.4021   22.0873  -33.2957 H   0  0  0  0  0  0  0  0  0  0  0  0
  1  2  2  0
  2  3  1  0
  2  4  1  0
  4  5  2  0
  5  6  1  0
  6  7  2  0
  7  8  1  0
  8  9  1  0
  9 10  1  0
 10 11  1  0
 11 12  2  0
 12 13  1  0
 13 14  2  0
 14 15  1  0
 14 16  1  0
 16 17  2  0
 10 18  2  0
 18 19  1  0
 19 20  2  0
 20 21  1  0
 21 22  2  0
 22 23  1  0
 23 24  2  0
 24 25  1  0
  7 26  1  0
 26 27  2  0
 27  4  1  0
 25  8  1  0
 17 11  1  0
 24 19  1  0
  5 28  1  0
  6 29  1  0
  8 30  1  6
  9 31  1  0
  9 32  1  0
 12 33  1  0
 13 34  1  0
 16 35  1  0
 17 36  1  0
 20 37  1  0
 21 38  1  0
 22 39  1  0
 23 40  1  0
 26 41  1  0
 27 42  1  0
M  CHG  3   2   1   3  -1  15  -1
M  END
>  <UniqueID>  (29) 
28

>  <SMILES>  (29) 
O=[N+]([O-])c1ccc([C@@H]2CC(c3ccc([O-])cc3)=Nc3ccccc3S2)cc1

>  <Energy>  (29) 
62.4247795805961

>  <Genealogy>  (29) 
O=[N+]([O-])c1ccc(C2CC(c3ccc([O-])cc3)=Nc3ccccc3S2)cc1 (protonated)
O=[N+]([O-])c1ccc([C@@H]2CC(c3ccc([O-])cc3)=Nc3ccccc3S2)cc1 (chirality)
O=[N+]([O-])c1ccc([C@@H]2CC(c3ccc([O-])cc3)=Nc3ccccc3S2)cc1 (3D coordinates assigned)
O=[N+]([O-])c1ccc([C@@H]2CC(c3ccc([O-])cc3)=Nc3ccccc3S2)cc1 (nonaromatic ring conformer: 62.4247795805961 kcal/mol)

>  <smiles>  (29) 
O=[N+]([O-])c1ccc(C2CC(c3ccc(O)cc3)=Nc3ccccc3S2)cc1

>  <score_type>  (29) 
oracle

>  <origin>  (29) 
adg

>  <m_score__min__energy>  (29) 
-8.9499999999999993

>  <m_primary>  (29) 
energy

$$$$
30:0
     RDKit          3D

 38 41  0  0  0  0  0  0  0  0999 V2000
   -2.8827   18.0838  -26.2115 H   0  0  0  0  0  0  0  0  0  0  0  0
   -2.3920   18.9060  -26.7530 C   0  0  0  0  0  0  0  0  0  0  0  0
   -3.1200   20.0490  -27.0970 C   0  0  0  0  0  0  0  0  0  0  0  0
   -4.1830   20.1259  -26.8248 H   0  0  0  0  0  0  0  0  0  0  0  0
   -2.4980   21.0950  -27.7870 C   0  0  0  0  0  0  0  0  0  0  0  0
   -3.0765   21.9881  -28.0657 H   0  0  0  0  0  0  0  0  0  0  0  0
   -1.1380   21.0090  -28.1250 C   0  0  0  0  0  0  0  0  0  0  0  0
   -0.4870   22.0940  -28.9410 C   0  0  0  0  0  0  0  0  0  0  0  0
   -0.0229   21.6526  -29.8353 H   0  0  0  0  0  0  0  0  0  0  0  0
    0.2852   22.5947  -28.3385 H   0  0  0  0  0  0  0  0  0  0  0  0
   -1.5230   23.0910  -29.3560 C   0  0  0  0  0  0  0  0  0  0  0  0
   -2.5570   22.9020  -30.6710 S   0  0  0  0  0  0  0  0  0  0  0  0
   -3.5120   24.2230  -30.2310 C   0  0  0  0  0  0  0  0  0  0  0  0
   -4.5880   24.6280  -30.8430 N   0  0  0  0  0  0  0  0  0  0  0  0
   -5.9190   24.1690  -30.5670 C   0  0  0  0  0  0  0  0  0  0  0  0
   -6.6570   24.8540  -29.8110 O   0  0  0  0  0  0  0  0  0  0  0  0
   -6.4190   22.8830  -31.0920 C   0  0  0  0  0  0  0  0  0  0  0  0
   -5.4390   21.6100  -31.6270 S   0  0  0  0  0  0  0  0  0  0  0  0
   -6.7160   20.5780  -31.9810 C   0  0  0  0  0  0  0  0  0  0  0  0
   -6.6650   19.2740  -32.4650 C   0  0  0  0  0  0  0  0  0  0  0  0
   -5.7020   18.7910  -32.6871 H   0  0  0  0  0  0  0  0  0  0  0  0
   -7.8760   18.5920  -32.6620 C   0  0  0  0  0  0  0  0  0  0  0  0
   -7.8680   17.5599  -33.0424 H   0  0  0  0  0  0  0  0  0  0  0  0
   -9.1030   19.2250  -32.3740 C   0  0  0  0  0  0  0  0  0  0  0  0
  -10.0469   18.6818  -32.5290 H   0  0  0  0  0  0  0  0  0  0  0  0
   -9.1290   20.5430  -31.8910 C   0  0  0  0  0  0  0  0  0  0  0  0
  -10.0849   21.0396  -31.6680 H   0  0  0  0  0  0  0  0  0  0  0  0
   -7.9170   21.2120  -31.6990 C   0  0  0  0  0  0  0  0  0  0  0  0
   -7.7620   22.5130  -31.2130 C   0  0  0  0  0  0  0  0  0  0  0  0
   -8.6032   23.1729  -30.9543 H   0  0  0  0  0  0  0  0  0  0  0  0
   -3.0380   24.8240  -29.1180 N   0  0  0  0  0  0  0  0  0  0  0  0
   -3.4840   25.6520  -28.6650 H   0  0  0  0  0  0  0  0  0  0  0  0
   -1.9480   24.1880  -28.6110 C   0  0  0  0  0  0  0  0  0  0  0  0
   -1.4439   24.5132  -27.6889 H   0  0  0  0  0  0  0  0  0  0  0  0
   -0.4140   19.8530  -27.7810 C   0  0  0  0  0  0  0  0  0  0  0  0
    0.6491   19.7713  -28.0513 H   0  0  0  0  0  0  0  0  0  0  0  0
   -1.0410   18.8080  -27.0970 C   0  0  0  0  0  0  0  0  0  0  0  0
   -0.4702   17.9067  -26.8289 H   0  0  0  0  0  0  0  0  0  0  0  0
  1  2  1  0
  2  3  2  0
  3  4  1  0
  3  5  1  0
  5  6  1  0
  5  7  2  0
  7  8  1  0
  8  9  1  0
  8 10  1  0
  8 11  1  0
 11 12  1  0
 12 13  1  0
 13 14  2  0
 14 15  1  0
 15 16  2  0
 15 17  1  0
 17 18  1  0
 18 19  1  0
 19 20  2  0
 20 21  1  0
 20 22  1  0
 22 23  1  0
 22 24  2  0
 24 25  1  0
 24 26  1  0
 26 27  1  0
 26 28  2  0
 28 29  1  0
 29 30  1  0
 13 31  1  0
 31 32  1  0
 31 33  1  0
 33 34  1  0
  7 35  1  0
 35 36  1  0
 35 37  2  0
 37 38  1  0
 37  2  1  0
 33 11  2  0
 29 17  2  0
 28 19  1  0
M  END
>  <UniqueID>  (30) 
29

>  <SMILES>  (30) 
O=C(/N=c1/[nH]cc(Cc2ccccc2)s1)c1cc2ccccc2s1

>  <Energy>  (30) 
107.18760315608434

>  <Genealogy>  (30) 
O=C(/N=c1/[nH]cc(Cc2ccccc2)s1)c1cc2ccccc2s1 (cis-trans isomerization)
O=C(/N=c1/[nH]cc(Cc2ccccc2)s1)c1cc2ccccc2s1 (3D coordinates assigned)
O=C(/N=c1/[nH]cc(Cc2ccccc2)s1)c1cc2ccccc2s1 (optimized conformer: 107.18760315608434 kcal/mol)

>  <smiles>  (30) 
O=C(N=c1[nH]cc(Cc2ccccc2)s1)c1cc2ccccc2s1

>  <score_type>  (30) 
oracle

>  <origin>  (30) 
adg

>  <m_score__min__energy>  (30) 
-9.8200000000000003

>  <m_primary>  (30) 
energy

$$$$
31:0
     RDKit          3D

 52 55  0  0  0  0  0  0  0  0999 V2000
    2.1240   25.7880  -25.7670 C   0  0  0  0  0  0  0  0  0  0  0  0
    0.9290   25.1360  -25.0640 C   0  0  0  0  0  0  0  0  0  0  0  0
    0.2820   26.1380  -24.0950 C   0  0  0  0  0  0  0  0  0  0  0  0
    1.3880   24.0070  -24.3600 O   0  0  0  0  0  0  0  0  0  0  0  0
   -0.0570   24.7210  -26.0810 C   0  0  0  0  0  0  0  0  0  0  0  0
   -0.8630   24.3830  -26.9130 C   0  0  0  0  0  0  0  0  0  0  0  0
   -1.8230   23.9780  -27.9040 C   0  0  0  0  0  0  0  0  0  0  0  0
   -1.4770   23.0370  -28.8680 C   0  0  0  0  0  0  0  0  0  0  0  0
   -2.4070   22.6450  -29.8290 C   0  0  0  0  0  0  0  0  0  0  0  0
   -3.7180   23.1740  -29.8480 C   0  0  0  0  0  0  0  0  0  0  0  0
   -4.0580   24.1610  -28.8660 C   0  0  0  0  0  0  0  0  0  0  0  0
   -3.1010   24.5360  -27.9100 C   0  0  0  0  0  0  0  0  0  0  0  0
   -5.2910   24.8290  -28.7610 O   0  0  0  0  0  0  0  0  0  0  0  0
   -6.4690   24.6280  -29.5290 C   0  0  0  0  0  0  0  0  0  0  0  0
   -6.1690   24.7420  -31.0150 C   0  0  0  0  0  0  0  0  0  0  0  0
   -5.6740   23.4250  -31.4900 C   0  0  0  0  0  0  0  0  0  0  0  0
   -6.4380   22.5070  -32.6740 S   0  0  0  0  0  0  0  0  0  0  0  0
   -5.4720   21.1450  -32.4940 C   0  0  0  0  0  0  0  0  0  0  0  0
   -5.5900   19.8860  -33.2630 C   0  0  0  0  0  0  0  0  0  0  0  0
   -4.5350   19.3510  -33.7080 O   0  0  0  0  0  0  0  0  0  0  0  0
   -6.8900   19.3060  -33.5550 N   0  0  0  0  0  0  0  0  0  0  0  0
   -6.7870   17.8380  -33.6810 C   0  0  0  0  0  0  0  0  0  0  0  0
   -6.5700   17.1480  -32.3120 C   0  0  0  0  0  0  0  0  0  0  0  0
   -6.8540   17.9900  -31.2070 O   0  0  0  0  0  0  0  0  0  0  0  0
   -8.0690   18.6740  -31.4190 C   0  0  0  0  0  0  0  0  0  0  0  0
   -7.9270   19.6950  -32.5660 C   0  0  0  0  0  0  0  0  0  0  0  0
   -4.5430   21.3940  -31.4900 C   0  0  0  0  0  0  0  0  0  0  0  0
   -4.6440   22.6810  -30.9150 C   0  0  0  0  0  0  0  0  0  0  0  0
    2.8277   26.1720  -25.0138 H   0  0  0  0  0  0  0  0  0  0  0  0
    2.6313   25.0417  -26.3960 H   0  0  0  0  0  0  0  0  0  0  0  0
    1.7710   26.6185  -26.3960 H   0  0  0  0  0  0  0  0  0  0  0  0
    0.4824   25.8277  -23.0589 H   0  0  0  0  0  0  0  0  0  0  0  0
    0.7048   27.1390  -24.2663 H   0  0  0  0  0  0  0  0  0  0  0  0
   -0.8043   26.1646  -24.2663 H   0  0  0  0  0  0  0  0  0  0  0  0
    1.1350   24.1170  -23.4040 H   0  0  0  0  0  0  0  0  0  0  0  0
   -0.4670   22.6012  -28.8719 H   0  0  0  0  0  0  0  0  0  0  0  0
   -2.1143   21.9070  -30.5903 H   0  0  0  0  0  0  0  0  0  0  0  0
   -3.3647   25.2858  -27.1496 H   0  0  0  0  0  0  0  0  0  0  0  0
   -6.8709   23.6261  -29.3178 H   0  0  0  0  0  0  0  0  0  0  0  0
   -7.2040   25.3998  -29.2569 H   0  0  0  0  0  0  0  0  0  0  0  0
   -7.0848   25.0144  -31.5601 H   0  0  0  0  0  0  0  0  0  0  0  0
   -5.4109   25.5193  -31.1914 H   0  0  0  0  0  0  0  0  0  0  0  0
   -7.2060   19.6800  -34.4800 H   0  0  0  0  0  0  0  0  0  0  0  0
   -7.7162   17.4546  -34.1278 H   0  0  0  0  0  0  0  0  0  0  0  0
   -5.9162   17.6134  -34.3145 H   0  0  0  0  0  0  0  0  0  0  0  0
   -7.2266   16.2671  -32.2573 H   0  0  0  0  0  0  0  0  0  0  0  0
   -5.5057   16.8770  -32.2494 H   0  0  0  0  0  0  0  0  0  0  0  0
   -8.8524   17.9466  -31.6781 H   0  0  0  0  0  0  0  0  0  0  0  0
   -8.3372   19.2121  -30.4978 H   0  0  0  0  0  0  0  0  0  0  0  0
   -8.8937   19.7786  -33.0843 H   0  0  0  0  0  0  0  0  0  0  0  0
   -7.6192   20.6530  -32.1216 H   0  0  0  0  0  0  0  0  0  0  0  0
   -3.7945   20.6537  -31.1710 H   0  0  0  0  0  0  0  0  0  0  0  0
  1  2  1  0
  2  3  1  0
  2  4  1  0
  2  5  1  0
  5  6  3  0
  6  7  1  0
  7  8  2  0
  8  9  1  0
  9 10  2  0
 10 11  1  0
 11 12  2  0
 11 13  1  0
 13 14  1  0
 14 15  1  0
 15 16  1  0
 16 17  1  0
 17 18  1  0
 18 19  1  0
 19 20  2  0
 19 21  1  0
 21 22  1  0
 22 23  1  0
 23 24  1  0
 24 25  1  0
 25 26  1  0
 18 27  2  0
 27 28  1  0
 12  7  1  0
 28 16  2  0
 28 10  1  0
 26 21  1  0
  1 29  1  0
  1 30  1  0
  1 31  1  0
  3 32  1  0
  3 33  1  0
  3 34  1  0
  4 35  1  0
  8 36  1  0
  9 37  1  0
 12 38  1  0
 14 39  1  0
 14 40  1  0
 15 41  1  0
 15 42  1  0
 21 43  1  0
 22 44  1  0
 22 45  1  0
 23 46  1  0
 23 47  1  0
 25 48  1  0
 25 49  1  0
 26 50  1  0
 26 51  1  0
 27 52  1  0
M  CHG  1  21   1
M  END
>  <UniqueID>  (31) 
30

>  <SMILES>  (31) 
CC(C)(O)C#Cc1ccc2c(c1)OCCc1sc(C(=O)[NH+]3CCOCC3)cc1-2

>  <Energy>  (31) 
98.01646377308732

>  <Genealogy>  (31) 
CC(C)(O)C#Cc1ccc2c(c1)OCCc1sc(C(=O)[NH+]3CCOCC3)cc1-2 (protonated)
CC(C)(O)C#Cc1ccc2c(c1)OCCc1sc(C(=O)[NH+]3CCOCC3)cc1-2 (3D coordinates assigned)
CC(C)(O)C#Cc1ccc2c(c1)OCCc1sc(C(=O)[NH+]3CCOCC3)cc1-2 (nonaromatic ring conformer: 98.01646377308732 kcal/mol)

>  <smiles>  (31) 
CC(C)(O)C#Cc1ccc2c(c1)OCCc1sc(C(=O)N3CCOCC3)cc1-2

>  <score_type>  (31) 
oracle

>  <origin>  (31) 
adg

>  <m_score__min__energy>  (31) 
-6.2199999999999998

>  <m_primary>  (31) 
energy

$$$$
32:0
     RDKit          3D

 24 24  0  0  0  0  0  0  0  0999 V2000
   -7.7620   18.2040  -31.9980 C   0  0  0  0  0  0  0  0  0  0  0  0
   -9.1100   18.9120  -32.1310 C   0  0  0  0  0  0  0  0  0  0  0  0
   -8.9750   20.4290  -32.3460 C   0  0  0  0  0  0  0  0  0  0  0  0
   -8.0520   21.1110  -31.3250 C   0  0  0  0  0  0  0  0  0  0  0  0
   -7.1500   22.0220  -31.9550 O   0  0  0  0  0  0  0  0  0  0  0  0
   -6.5460   23.1280  -31.3380 C   0  0  0  0  0  0  0  0  0  0  0  0
   -7.2310   23.9880  -30.4600 C   0  0  0  0  0  0  0  0  0  0  0  0
   -6.5640   25.0710  -29.8830 C   0  0  0  0  0  0  0  0  0  0  0  0
   -5.2190   25.2880  -30.1850 C   0  0  0  0  0  0  0  0  0  0  0  0
   -4.5690   24.4460  -31.0320 N   0  0  0  0  0  0  0  0  0  0  0  0
   -5.1960   23.3850  -31.6060 C   0  0  0  0  0  0  0  0  0  0  0  0
   -7.5185   18.0761  -30.9329 H   0  0  0  0  0  0  0  0  0  0  0  0
   -7.8163   17.2180  -32.4827 H   0  0  0  0  0  0  0  0  0  0  0  0
   -6.9810   18.8083  -32.4827 H   0  0  0  0  0  0  0  0  0  0  0  0
   -9.6477   18.4831  -32.9894 H   0  0  0  0  0  0  0  0  0  0  0  0
   -9.6547   18.7612  -31.1873 H   0  0  0  0  0  0  0  0  0  0  0  0
   -8.5694   20.6035  -33.3535 H   0  0  0  0  0  0  0  0  0  0  0  0
   -9.9770   20.8650  -32.2194 H   0  0  0  0  0  0  0  0  0  0  0  0
   -8.6683   21.6632  -30.6003 H   0  0  0  0  0  0  0  0  0  0  0  0
   -7.4587   20.3316  -30.8244 H   0  0  0  0  0  0  0  0  0  0  0  0
   -8.2910   23.8075  -30.2282 H   0  0  0  0  0  0  0  0  0  0  0  0
   -7.0944   25.7472  -29.1963 H   0  0  0  0  0  0  0  0  0  0  0  0
   -4.6850   26.1396  -29.7382 H   0  0  0  0  0  0  0  0  0  0  0  0
   -4.6387   22.7237  -32.2858 H   0  0  0  0  0  0  0  0  0  0  0  0
  1  2  1  0
  2  3  1  0
  3  4  1  0
  4  5  1  0
  5  6  1  0
  6  7  2  0
  7  8  1  0
  8  9  2  0
  9 10  1  0
 10 11  2  0
 11  6  1  0
  1 12  1  0
  1 13  1  0
  1 14  1  0
  2 15  1  0
  2 16  1  0
  3 17  1  0
  3 18  1  0
  4 19  1  0
  4 20  1  0
  7 21  1  0
  8 22  1  0
  9 23  1  0
 11 24  1  0
M  END
>  <UniqueID>  (32) 
31

>  <SMILES>  (32) 
CCCCOc1cccnc1

>  <Energy>  (32) 
17.929036174710355

>  <Genealogy>  (32) 
CCCCOc1cccnc1 (3D coordinates assigned)
CCCCOc1cccnc1 (optimized conformer: 17.929036174710355 kcal/mol)

>  <smiles>  (32) 
CCCCOc1cccnc1

>  <score_type>  (32) 
oracle

>  <origin>  (32) 
adg

>  <m_score__min__energy>  (32) 
-4.5899999999999999

>  <m_primary>  (32) 
energy

$$$$
33:0
     RDKit          3D

 25 28  0  0  0  0  0  0  0  0999 V2000
   -4.1160   20.5580  -31.7030 O   0  0  0  0  0  0  0  0  0  0  0  0
   -5.2390   21.0970  -31.6280 C   0  0  0  0  0  0  0  0  0  0  0  0
   -5.4420   22.4860  -31.2000 C   0  0  0  0  0  0  0  0  0  0  0  0
   -4.3390   23.2440  -30.8590 C   0  0  0  0  0  0  0  0  0  0  0  0
   -4.5650   24.5440  -30.4620 C   0  0  0  0  0  0  0  0  0  0  0  0
   -3.4870   25.2990  -30.1260 F   0  0  0  0  0  0  0  0  0  0  0  0
   -5.8150   25.1120  -30.3880 C   0  0  0  0  0  0  0  0  0  0  0  0
   -6.9200   24.3500  -30.7280 C   0  0  0  0  0  0  0  0  0  0  0  0
   -6.7230   23.0440  -31.1310 C   0  0  0  0  0  0  0  0  0  0  0  0
   -7.8690   22.2280  -31.4920 C   0  0  0  0  0  0  0  0  0  0  0  0
   -9.2130   22.4170  -31.5480 N   0  0  0  0  0  0  0  0  0  0  0  0
   -9.7910   21.2750  -31.9650 N   0  0  0  0  0  0  0  0  0  0  0  0
   -8.8480   20.3440  -32.1830 C   0  0  0  0  0  0  0  0  0  0  0  0
   -8.8080   19.0330  -32.6000 C   0  0  0  0  0  0  0  0  0  0  0  0
   -7.5810   18.3870  -32.7010 C   0  0  0  0  0  0  0  0  0  0  0  0
   -6.3880   19.0170  -32.3960 C   0  0  0  0  0  0  0  0  0  0  0  0
   -6.4290   20.3330  -31.9770 C   0  0  0  0  0  0  0  0  0  0  0  0
   -7.6370   20.9390  -31.8860 C   0  0  0  0  0  0  0  0  0  0  0  0
   -3.3220   22.8271  -30.9025 H   0  0  0  0  0  0  0  0  0  0  0  0
   -5.9354   26.1561  -30.0635 H   0  0  0  0  0  0  0  0  0  0  0  0
   -7.9330   24.7758  -30.6782 H   0  0  0  0  0  0  0  0  0  0  0  0
  -10.8180   21.1140  -32.1060 H   0  0  0  0  0  0  0  0  0  0  0  0
   -9.7378   18.5015  -32.8509 H   0  0  0  0  0  0  0  0  0  0  0  0
   -7.5582   17.3391  -33.0349 H   0  0  0  0  0  0  0  0  0  0  0  0
   -5.4302   18.4835  -32.4848 H   0  0  0  0  0  0  0  0  0  0  0  0
  1  2  2  0
  2  3  1  0
  3  4  2  0
  4  5  1  0
  5  6  1  0
  5  7  2  0
  7  8  1  0
  8  9  2  0
  9 10  1  0
 10 11  2  0
 11 12  1  0
 12 13  1  0
 13 14  1  0
 14 15  2  0
 15 16  1  0
 16 17  2  0
 17 18  1  0
 17  2  1  0
  9  3  1  0
 18 10  1  0
 18 13  2  0
  4 19  1  0
  7 20  1  0
  8 21  1  0
 12 22  1  0
 14 23  1  0
 15 24  1  0
 16 25  1  0
M  END
>  <smiles>  (33) 
O=C1c2cc(F)ccc2-c2n[nH]c3cccc1c23

>  <score_type>  (33) 
oracle

>  <origin>  (33) 
adg

>  <m_score__min__energy>  (33) 
-7.9500000000000002

>  <m_primary>  (33) 
energy

$$$$
34:0
     RDKit          3D

 40 41  0  0  0  0  0  0  0  0999 V2000
   -5.8110   19.1190  -34.0370 C   0  0  0  0  0  0  0  0  0  0  0  0
   -6.7400   20.0250  -33.4490 O   0  0  0  0  0  0  0  0  0  0  0  0
   -6.3820   21.1640  -32.7110 C   0  0  0  0  0  0  0  0  0  0  0  0
   -5.0410   21.5740  -32.5740 C   0  0  0  0  0  0  0  0  0  0  0  0
   -4.7230   22.7070  -31.8230 C   0  0  0  0  0  0  0  0  0  0  0  0
   -5.7340   23.4500  -31.2050 C   0  0  0  0  0  0  0  0  0  0  0  0
   -5.3390   24.8610  -30.2270 S   0  0  0  0  0  0  0  0  0  0  0  0
   -4.2370   25.6570  -30.8660 O   0  0  0  0  0  0  0  0  0  0  0  0
   -6.5650   25.7200  -30.1050 O   0  0  0  0  0  0  0  0  0  0  0  0
   -4.8300   24.3570  -28.6470 N   0  0  0  0  0  0  0  0  0  0  0  0
   -3.6740   23.5280  -28.4470 C   0  0  0  0  0  0  0  0  0  0  0  0
   -3.8200   22.2520  -27.8770 C   0  0  0  0  0  0  0  0  0  0  0  0
   -2.7090   21.4270  -27.6880 C   0  0  0  0  0  0  0  0  0  0  0  0
   -1.4360   21.8550  -28.0790 C   0  0  0  0  0  0  0  0  0  0  0  0
   -0.2390   20.9840  -27.8380 C   0  0  0  0  0  0  0  0  0  0  0  0
   -1.2790   23.1350  -28.6290 C   0  0  0  0  0  0  0  0  0  0  0  0
   -2.3860   23.9770  -28.8170 C   0  0  0  0  0  0  0  0  0  0  0  0
   -2.1730   25.3000  -29.3290 N   0  0  0  0  0  0  0  0  0  0  0  0
   -7.0700   23.0570  -31.3530 C   0  0  0  0  0  0  0  0  0  0  0  0
   -7.4000   21.9070  -32.0930 C   0  0  0  0  0  0  0  0  0  0  0  0
   -8.7260   21.4680  -32.2330 O   0  0  0  0  0  0  0  0  0  0  0  0
   -9.1660   20.1400  -31.9660 C   0  0  0  0  0  0  0  0  0  0  0  0
   -5.2655   18.5870  -33.2437 H   0  0  0  0  0  0  0  0  0  0  0  0
   -6.3522   18.3923  -34.6607 H   0  0  0  0  0  0  0  0  0  0  0  0
   -5.0980   19.6782  -34.6607 H   0  0  0  0  0  0  0  0  0  0  0  0
   -4.2404   20.9983  -33.0614 H   0  0  0  0  0  0  0  0  0  0  0  0
   -3.6728   23.0167  -31.7168 H   0  0  0  0  0  0  0  0  0  0  0  0
   -5.4480   24.5960  -27.8400 H   0  0  0  0  0  0  0  0  0  0  0  0
   -4.8180   21.8998  -27.5770 H   0  0  0  0  0  0  0  0  0  0  0  0
   -2.8358   20.4353  -27.2292 H   0  0  0  0  0  0  0  0  0  0  0  0
   -0.0811   20.8691  -26.7555 H   0  0  0  0  0  0  0  0  0  0  0  0
   -0.4074   19.9958  -28.2909 H   0  0  0  0  0  0  0  0  0  0  0  0
    0.6494   21.4483  -28.2909 H   0  0  0  0  0  0  0  0  0  0  0  0
   -0.2761   23.4836  -28.9166 H   0  0  0  0  0  0  0  0  0  0  0  0
   -2.9520   25.9950  -29.3390 H   0  0  0  0  0  0  0  0  0  0  0  0
   -1.2740   25.5840  -29.7740 H   0  0  0  0  0  0  0  0  0  0  0  0
   -7.8684   23.6528  -30.8865 H   0  0  0  0  0  0  0  0  0  0  0  0
   -9.2181   19.9827  -30.8786 H   0  0  0  0  0  0  0  0  0  0  0  0
  -10.1624   19.9883  -32.4066 H   0  0  0  0  0  0  0  0  0  0  0  0
   -8.4573   19.4234  -32.4066 H   0  0  0  0  0  0  0  0  0  0  0  0
  1  2  1  0
  2  3  1  0
  3  4  2  0
  4  5  1  0
  5  6  2  0
  6  7  1  0
  7  8  2  0
  7  9  2  0
  7 10  1  0
 10 11  1  0
 11 12  2  0
 12 13  1  0
 13 14  2  0
 14 15  1  0
 14 16  1  0
 16 17  2  0
 17 18  1  0
  6 19  1  0
 19 20  2  0
 20 21  1  0
 21 22  1  0
 20  3  1  0
 17 11  1  0
  1 23  1  0
  1 24  1  0
  1 25  1  0
  4 26  1  0
  5 27  1  0
 10 28  1  0
 12 29  1  0
 13 30  1  0
 15 31  1  0
 15 32  1  0
 15 33  1  0
 16 34  1  0
 18 35  1  0
 18 36  1  0
 19 37  1  0
 22 38  1  0
 22 39  1  0
 22 40  1  0
M  END
>  <UniqueID>  (34) 
32

>  <SMILES>  (34) 
COc1ccc(S(=O)(=O)Nc2ccc(C)cc2N)cc1OC

>  <Energy>  (34) 
42.18434737661908

>  <Genealogy>  (34) 
COc1ccc(S(=O)(=O)Nc2ccc(C)cc2N)cc1OC (3D coordinates assigned)
COc1ccc(S(=O)(=O)Nc2ccc(C)cc2N)cc1OC (optimized conformer: 42.18434737661908 kcal/mol)

>  <smiles>  (34) 
COc1ccc(S(=O)(=O)Nc2ccc(C)cc2N)cc1OC

>  <score_type>  (34) 
oracle

>  <origin>  (34) 
adg

>  <m_score__min__energy>  (34) 
-8.3000000000000007

>  <m_primary>  (34) 
energy

$$$$
35:0
     RDKit          3D

 39 41  0  0  1  0  0  0  0  0999 V2000
   -4.7180   16.0460  -32.9250 C   0  0  0  0  0  0  0  0  0  0  0  0
   -4.3350   16.7270  -34.2240 C   0  0  0  0  0  0  0  0  0  0  0  0
   -5.3870   17.5850  -34.7110 N   0  0  0  0  0  0  0  0  0  0  0  0
   -6.0870   18.2670  -33.8700 C   0  0  0  0  0  0  0  0  0  0  0  0
   -7.2830   17.8340  -33.4480 N   0  0  0  0  0  0  0  0  0  0  0  0
   -7.9890   18.5680  -32.5700 C   0  0  0  0  0  0  0  0  0  0  0  0
   -7.5390   19.7460  -32.0810 N   0  0  0  0  0  0  0  0  0  0  0  0
   -6.3540   20.1990  -32.4820 C   0  0  0  0  0  0  0  0  0  0  0  0
   -5.5970   19.4670  -33.3900 C   0  0  0  0  0  0  0  0  0  0  0  0
   -4.4820   20.1610  -33.5960 N   0  0  0  0  0  0  0  0  0  0  0  0
   -4.5290   21.2700  -32.8630 C   0  0  0  0  0  0  0  0  0  0  0  0
   -5.6750   21.3270  -32.1590 N   0  0  0  0  0  0  0  0  0  0  0  0
   -6.0240   22.3960  -31.2740 C   0  0  1  0  0  0  0  0  0  0  0  0
   -5.0700   22.5730  -30.2750 O   0  0  0  0  0  0  0  0  0  0  0  0
   -5.2860   23.8000  -29.7030 C   0  0  1  0  0  0  0  0  0  0  0  0
   -4.0170   24.5290  -29.3130 C   0  0  0  0  0  0  0  0  0  0  0  0
   -3.4360   25.2350  -30.3370 O   0  0  0  0  0  0  0  0  0  0  0  0
   -6.1200   24.6150  -30.6500 C   0  0  1  0  0  0  0  0  0  0  0  0
   -5.6900   25.9660  -30.8270 N   0  0  0  0  0  0  0  0  0  0  0  0
   -6.0040   23.7680  -31.9240 C   0  0  2  0  0  0  0  0  0  0  0  0
   -7.1230   24.0090  -32.6970 O   0  0  0  0  0  0  0  0  0  0  0  0
   -4.3750   16.6559  -32.0763 H   0  0  0  0  0  0  0  0  0  0  0  0
   -5.8113   15.9342  -32.8781 H   0  0  0  0  0  0  0  0  0  0  0  0
   -4.2456   15.0537  -32.8781 H   0  0  0  0  0  0  0  0  0  0  0  0
   -3.4318   17.3319  -34.0558 H   0  0  0  0  0  0  0  0  0  0  0  0
   -4.1544   15.9467  -34.9781 H   0  0  0  0  0  0  0  0  0  0  0  0
   -7.6970   16.9220  -33.7890 H   0  0  0  0  0  0  0  0  0  0  0  0
   -8.9693   18.1964  -32.2369 H   0  0  0  0  0  0  0  0  0  0  0  0
   -3.7396   22.0356  -32.8358 H   0  0  0  0  0  0  0  0  0  0  0  0
   -7.0228   22.0952  -30.9250 H   0  0  0  0  0  0  0  0  0  0  0  0
   -5.8160   23.6449  -28.7517 H   0  0  0  0  0  0  0  0  0  0  0  0
   -4.2585   25.2325  -28.5026 H   0  0  0  0  0  0  0  0  0  0  0  0
   -3.2919   23.7601  -29.0081 H   0  0  0  0  0  0  0  0  0  0  0  0
   -3.8060   24.9160  -31.2160 H   0  0  0  0  0  0  0  0  0  0  0  0
   -7.1474   24.7793  -30.2929 H   0  0  0  0  0  0  0  0  0  0  0  0
   -5.2400   26.3930  -30.0080 H   0  0  0  0  0  0  0  0  0  0  0  0
   -5.0010   25.9910  -31.6280 H   0  0  0  0  0  0  0  0  0  0  0  0
   -5.1459   23.9371  -32.5911 H   0  0  0  0  0  0  0  0  0  0  0  0
   -6.8680   23.7700  -33.6320 H   0  0  0  0  0  0  0  0  0  0  0  0
  1  2  1  0
  2  3  1  0
  3  4  2  0
  4  5  1  0
  5  6  1  0
  6  7  2  0
  7  8  1  0
  8  9  2  0
  9 10  1  0
 10 11  2  0
 11 12  1  0
 12 13  1  0
 13 14  1  0
 14 15  1  0
 15 16  1  0
 16 17  1  0
 15 18  1  0
 18 19  1  0
 18 20  1  0
 20 21  1  0
  9  4  1  0
 20 13  1  0
 12  8  1  0
  1 22  1  0
  1 23  1  0
  1 24  1  0
  2 25  1  0
  2 26  1  0
  5 27  1  0
  6 28  1  0
 11 29  1  0
 13 30  1  1
 15 31  1  1
 16 32  1  0
 16 33  1  0
 17 34  1  0
 18 35  1  1
 19 36  1  0
 19 37  1  0
 20 38  1  6
 21 39  1  0
M  END
>  <smiles>  (35) 
CCN=c1[nH]cnc2c1ncn2C1OC(CO)C(N)C1O

>  <score_type>  (35) 
oracle

>  <origin>  (35) 
adg

>  <m_score__min__energy>  (35) 
-7

>  <m_primary>  (35) 
energy

$$$$
36:0
     RDKit          3D

 40 41  0  0  0  0  0  0  0  0999 V2000
   -6.4820   17.6370  -31.0730 C   0  0  0  0  0  0  0  0  0  0  0  0
   -6.1370   17.6140  -32.5330 C   0  0  0  0  0  0  0  0  0  0  0  0
   -6.0040   16.4180  -33.2570 C   0  0  0  0  0  0  0  0  0  0  0  0
   -5.6980   16.6070  -34.5980 C   0  0  0  0  0  0  0  0  0  0  0  0
   -5.6040   18.2580  -34.8870 S   0  0  0  0  0  0  0  0  0  0  0  0
   -5.9350   18.7570  -33.3130 C   0  0  0  0  0  0  0  0  0  0  0  0
   -6.0820   20.1630  -32.8760 C   0  0  0  0  0  0  0  0  0  0  0  0
   -5.2250   21.0060  -33.2570 O   0  0  0  0  0  0  0  0  0  0  0  0
   -7.1750   20.5900  -32.0320 N   0  0  0  0  0  0  0  0  0  0  0  0
   -8.5610   20.2090  -32.3490 C   0  0  0  0  0  0  0  0  0  0  0  0
   -9.5730   21.2060  -31.7600 C   0  0  0  0  0  0  0  0  0  0  0  0
   -9.0850   22.6440  -31.9720 C   0  0  0  0  0  0  0  0  0  0  0  0
   -7.6930   22.9100  -31.3280 C   0  0  2  0  0  0  0  0  0  0  0  0
   -6.8470   23.8190  -32.2440 C   0  0  0  0  0  0  0  0  0  0  0  0
   -5.4200   23.6700  -31.9450 N   0  0  0  0  0  0  0  0  0  0  0  0
   -5.0580   24.3820  -30.4010 S   0  0  0  0  0  0  0  0  0  0  0  0
   -6.4430   25.3400  -29.8240 C   0  0  0  0  0  0  0  0  0  0  0  0
   -3.8700   25.2920  -30.5490 O   0  0  0  0  0  0  0  0  0  0  0  0
   -4.7330   23.3120  -29.3960 O   0  0  0  0  0  0  0  0  0  0  0  0
   -6.9460   21.5980  -30.9860 C   0  0  0  0  0  0  0  0  0  0  0  0
   -5.5594   17.5755  -30.4772 H   0  0  0  0  0  0  0  0  0  0  0  0
   -7.0100   18.5723  -30.8357 H   0  0  0  0  0  0  0  0  0  0  0  0
   -7.1295   16.7800  -30.8357 H   0  0  0  0  0  0  0  0  0  0  0  0
   -6.1305   15.4238  -32.8037 H   0  0  0  0  0  0  0  0  0  0  0  0
   -5.5438   15.8121  -35.3426 H   0  0  0  0  0  0  0  0  0  0  0  0
   -8.6822   20.1815  -33.4420 H   0  0  0  0  0  0  0  0  0  0  0  0
   -8.7552   19.2209  -31.9063 H   0  0  0  0  0  0  0  0  0  0  0  0
  -10.5446   21.0748  -32.2588 H   0  0  0  0  0  0  0  0  0  0  0  0
   -9.6760   21.0175  -30.6812 H   0  0  0  0  0  0  0  0  0  0  0  0
   -9.0145   22.8354  -33.0529 H   0  0  0  0  0  0  0  0  0  0  0  0
   -9.8086   23.3144  -31.4851 H   0  0  0  0  0  0  0  0  0  0  0  0
   -7.8588   23.4311  -30.3735 H   0  0  0  0  0  0  0  0  0  0  0  0
   -7.0270   23.5424  -33.2933 H   0  0  0  0  0  0  0  0  0  0  0  0
   -7.1377   24.8656  -32.0704 H   0  0  0  0  0  0  0  0  0  0  0  0
   -5.2090   22.6490  -31.8660 H   0  0  0  0  0  0  0  0  0  0  0  0
   -6.4518   25.3461  -28.7241 H   0  0  0  0  0  0  0  0  0  0  0  0
   -6.3556   26.3716  -30.1957 H   0  0  0  0  0  0  0  0  0  0  0  0
   -7.3774   24.8943  -30.1957 H   0  0  0  0  0  0  0  0  0  0  0  0
   -5.8680   21.8037  -30.9107 H   0  0  0  0  0  0  0  0  0  0  0  0
   -7.3248   21.2110  -30.0285 H   0  0  0  0  0  0  0  0  0  0  0  0
  1  2  1  0
  2  3  1  0
  3  4  2  0
  4  5  1  0
  5  6  1  0
  6  7  1  0
  7  8  2  0
  7  9  1  0
  9 10  1  0
 10 11  1  0
 11 12  1  0
 12 13  1  0
 13 14  1  0
 14 15  1  0
 15 16  1  0
 16 17  1  0
 16 18  2  0
 16 19  2  0
 13 20  1  0
  6  2  2  0
 20  9  1  0
  1 21  1  0
  1 22  1  0
  1 23  1  0
  3 24  1  0
  4 25  1  0
 10 26  1  0
 10 27  1  0
 11 28  1  0
 11 29  1  0
 12 30  1  0
 12 31  1  0
 13 32  1  1
 14 33  1  0
 14 34  1  0
 15 35  1  0
 17 36  1  0
 17 37  1  0
 17 38  1  0
 20 39  1  0
 20 40  1  0
M  END
>  <UniqueID>  (36) 
33

>  <SMILES>  (36) 
Cc1ccsc1C(=O)N1CCC[C@H](CNS(C)(=O)=O)C1

>  <Energy>  (36) 
61.53228582654873

>  <Genealogy>  (36) 
Cc1ccsc1C(=O)N1CCC[C@H](CNS(C)(=O)=O)C1 (chirality)
Cc1ccsc1C(=O)N1CCC[C@H](CNS(C)(=O)=O)C1 (3D coordinates assigned)
Cc1ccsc1C(=O)N1CCC[C@H](CNS(C)(=O)=O)C1 (nonaromatic ring conformer: 61.53228582654873 kcal/mol)

>  <smiles>  (36) 
Cc1ccsc1C(=O)N1CCCC(CNS(C)(=O)=O)C1

>  <score_type>  (36) 
oracle

>  <origin>  (36) 
adg

>  <m_score__min__energy>  (36) 
-8.6500000000000004

>  <m_primary>  (36) 
energy

$$$$
37:0
     RDKit          3D

 48 49  0  0  1  0  0  0  0  0999 V2000
   -6.2390   17.3600  -31.2690 C   0  0  0  0  0  0  0  0  0  0  0  0
   -7.4280   18.0810  -31.7950 C   0  0  0  0  0  0  0  0  0  0  0  0
   -7.1540   19.3200  -32.4420 N   0  0  0  0  0  0  0  0  0  0  0  0
   -8.2500   20.1470  -32.7650 C   0  0  0  0  0  0  0  0  0  0  0  0
   -8.8400   20.9790  -31.6940 C   0  0  0  0  0  0  0  0  0  0  0  0
   -6.1520   19.1570  -33.4340 C   0  0  0  0  0  0  0  0  0  0  0  0
   -4.8150   19.7700  -33.1140 C   0  0  0  0  0  0  0  0  0  0  0  0
   -4.7930   21.1890  -33.3900 N   0  0  0  0  0  0  0  0  0  0  0  0
   -4.9090   22.1050  -32.4970 C   0  0  0  0  0  0  0  0  0  0  0  0
   -3.9210   22.4130  -31.5800 C   0  0  0  0  0  0  0  0  0  0  0  0
   -4.1080   23.4130  -30.6500 C   0  0  0  0  0  0  0  0  0  0  0  0
   -3.0580   23.7580  -29.6670 C   0  0  0  0  0  0  0  0  0  0  0  0
   -1.9140   23.3010  -29.8570 O   0  0  0  0  0  0  0  0  0  0  0  0
   -3.3990   24.5800  -28.5730 N   0  0  0  0  0  0  0  0  0  0  0  0
   -2.5270   25.0030  -27.5500 C   0  0  0  0  0  0  0  0  0  0  0  0
   -2.7330   24.8520  -26.2050 C   0  0  0  0  0  0  0  0  0  0  0  0
   -1.8170   25.2930  -25.2440 C   0  0  0  0  0  0  0  0  0  0  0  0
   -0.6420   25.9130  -25.6240 C   0  0  0  0  0  0  0  0  0  0  0  0
   -0.4400   26.0620  -26.9820 C   0  0  0  0  0  0  0  0  0  0  0  0
   -1.3450   25.6260  -27.9250 C   0  0  0  0  0  0  0  0  0  0  0  0
   -1.0200   25.8400  -29.3000 N   0  0  0  0  0  0  0  0  0  0  0  0
   -5.2720   24.0780  -30.6590 N   0  0  0  0  0  0  0  0  0  0  0  0
   -6.2450   23.7980  -31.5400 C   0  0  0  0  0  0  0  0  0  0  0  0
   -6.0650   22.8180  -32.4520 N   0  0  0  0  0  0  0  0  0  0  0  0
   -6.2595   17.3724  -30.1693 H   0  0  0  0  0  0  0  0  0  0  0  0
   -6.2546   16.3191  -31.6243 H   0  0  0  0  0  0  0  0  0  0  0  0
   -5.3232   17.8550  -31.6243 H   0  0  0  0  0  0  0  0  0  0  0  0
   -7.9305   17.4235  -32.5197 H   0  0  0  0  0  0  0  0  0  0  0  0
   -8.0458   18.3267  -30.9187 H   0  0  0  0  0  0  0  0  0  0  0  0
   -7.9196   20.8288  -33.5625 H   0  0  0  0  0  0  0  0  0  0  0  0
   -9.0512   19.4431  -33.0345 H   0  0  0  0  0  0  0  0  0  0  0  0
   -8.5518   20.5727  -30.7133 H   0  0  0  0  0  0  0  0  0  0  0  0
   -8.4709   22.0111  -31.7861 H   0  0  0  0  0  0  0  0  0  0  0  0
   -9.9361   20.9720  -31.7861 H   0  0  0  0  0  0  0  0  0  0  0  0
   -6.0015   18.0784  -33.5891 H   0  0  0  0  0  0  0  0  0  0  0  0
   -6.5209   19.6869  -34.3246 H   0  0  0  0  0  0  0  0  0  0  0  0
   -4.5972   19.6117  -32.0475 H   0  0  0  0  0  0  0  0  0  0  0  0
   -4.0577   19.2872  -33.7491 H   0  0  0  0  0  0  0  0  0  0  0  0
   -2.9742   21.8531  -31.5928 H   0  0  0  0  0  0  0  0  0  0  0  0
   -4.3960   24.9030  -28.5280 H   0  0  0  0  0  0  0  0  0  0  0  0
   -3.6581   24.3631  -25.8655 H   0  0  0  0  0  0  0  0  0  0  0  0
   -2.0341   25.1448  -24.1759 H   0  0  0  0  0  0  0  0  0  0  0  0
    0.0919   26.2682  -24.8856 H   0  0  0  0  0  0  0  0  0  0  0  0
    0.4838   26.5501  -27.3259 H   0  0  0  0  0  0  0  0  0  0  0  0
   -1.2310   26.7900  -29.7090 H   0  0  0  0  0  0  0  0  0  0  0  0
   -0.5940   25.1280  -29.9140 H   0  0  0  0  0  0  0  0  0  0  0  0
   -7.1871   24.3654  -31.5194 H   0  0  0  0  0  0  0  0  0  0  0  0
   -6.8600   22.6500  -33.1020 H   0  0  0  0  0  0  0  0  0  0  0  0
  1  2  1  0
  2  3  1  0
  3  4  1  0
  4  5  1  0
  3  6  1  0
  6  7  1  0
  7  8  1  0
  8  9  2  0
  9 10  1  0
 10 11  2  0
 11 12  1  0
 12 13  2  0
 12 14  1  0
 14 15  1  0
 15 16  2  0
 16 17  1  0
 17 18  2  0
 18 19  1  0
 19 20  2  0
 20 21  1  0
 11 22  1  0
 22 23  2  0
 23 24  1  0
 24  9  1  0
 20 15  1  0
  1 25  1  0
  1 26  1  0
  1 27  1  0
  2 28  1  0
  2 29  1  0
  4 30  1  0
  4 31  1  0
  5 32  1  0
  5 33  1  0
  5 34  1  0
  6 35  1  0
  6 36  1  0
  7 37  1  0
  7 38  1  0
 10 39  1  0
 14 40  1  0
 16 41  1  0
 17 42  1  0
 18 43  1  0
 19 44  1  0
 21 45  1  0
 21 46  1  0
 23 47  1  0
 24 48  1  0
M  END
>  <smiles>  (37) 
CCN(CC)CCN=c1cc(C(=O)Nc2ccccc2N)nc[nH]1

>  <score_type>  (37) 
oracle

>  <origin>  (37) 
adg

>  <m_score__min__energy>  (37) 
-7.79

>  <m_primary>  (37) 
energy

$$$$
38:0
     RDKit          3D

 53 56  0  0  0  0  0  0  0  0999 V2000
   -0.6000   18.5560  -27.5340 C   0  0  0  0  0  0  0  0  0  0  0  0
   -0.3700   19.8860  -27.0800 O   0  0  0  0  0  0  0  0  0  0  0  0
   -1.2860   20.9380  -27.2170 C   0  0  0  0  0  0  0  0  0  0  0  0
   -0.9560   22.2730  -26.9130 C   0  0  0  0  0  0  0  0  0  0  0  0
   -1.8990   23.2890  -27.0860 C   0  0  0  0  0  0  0  0  0  0  0  0
   -3.1760   22.9970  -27.5880 C   0  0  0  0  0  0  0  0  0  0  0  0
   -4.1760   24.1060  -27.8330 C   0  0  0  0  0  0  0  0  0  0  0  0
   -4.0860   24.7210  -29.1780 N   0  0  0  0  0  0  0  0  0  0  0  0
   -2.9980   24.2360  -30.0490 C   0  0  0  0  0  0  0  0  0  0  0  0
   -3.3490   22.9600  -30.8420 C   0  0  0  0  0  0  0  0  0  0  0  0
   -4.8160   22.7740  -31.1070 C   0  0  0  0  0  0  0  0  0  0  0  0
   -5.2260   21.6490  -31.7490 N   0  0  0  0  0  0  0  0  0  0  0  0
   -6.5430   21.4000  -31.9900 C   0  0  0  0  0  0  0  0  0  0  0  0
   -6.9400   20.1740  -32.6340 N   0  0  0  0  0  0  0  0  0  0  0  0
   -5.9860   19.4680  -33.4990 C   0  0  0  0  0  0  0  0  0  0  0  0
   -6.5110   18.0750  -33.8800 C   0  0  0  0  0  0  0  0  0  0  0  0
   -7.1530   17.4040  -32.7320 N   0  0  0  0  0  0  0  0  0  0  0  0
   -6.1790   17.0640  -31.6790 C   0  0  0  0  0  0  0  0  0  0  0  0
   -8.3130   18.1550  -32.1860 C   0  0  0  0  0  0  0  0  0  0  0  0
   -8.3120   19.6580  -32.5290 C   0  0  0  0  0  0  0  0  0  0  0  0
   -7.4740   22.3070  -31.5880 N   0  0  0  0  0  0  0  0  0  0  0  0
   -7.1170   23.4440  -30.9390 C   0  0  0  0  0  0  0  0  0  0  0  0
   -5.7710   23.6940  -30.6540 C   0  0  0  0  0  0  0  0  0  0  0  0
   -5.3630   24.9190  -29.8870 C   0  0  0  0  0  0  0  0  0  0  0  0
   -3.5180   21.6590  -27.8460 C   0  0  0  0  0  0  0  0  0  0  0  0
   -2.5750   20.6430  -27.6730 C   0  0  0  0  0  0  0  0  0  0  0  0
   -0.7156   17.8878  -26.6679 H   0  0  0  0  0  0  0  0  0  0  0  0
   -1.5161   18.5295  -28.1424 H   0  0  0  0  0  0  0  0  0  0  0  0
    0.2540   18.2234  -28.1424 H   0  0  0  0  0  0  0  0  0  0  0  0
    0.0488   22.5168  -26.5376 H   0  0  0  0  0  0  0  0  0  0  0  0
   -1.6383   24.3257  -26.8267 H   0  0  0  0  0  0  0  0  0  0  0  0
   -5.1874   23.6913  -27.7107 H   0  0  0  0  0  0  0  0  0  0  0  0
   -3.9496   24.9008  -27.1070 H   0  0  0  0  0  0  0  0  0  0  0  0
   -2.7491   25.0315  -30.7667 H   0  0  0  0  0  0  0  0  0  0  0  0
   -2.1547   23.9793  -29.3910 H   0  0  0  0  0  0  0  0  0  0  0  0
   -2.8279   23.0029  -31.8098 H   0  0  0  0  0  0  0  0  0  0  0  0
   -3.0334   22.1091  -30.2204 H   0  0  0  0  0  0  0  0  0  0  0  0
   -5.8289   20.0558  -34.4154 H   0  0  0  0  0  0  0  0  0  0  0  0
   -5.0402   19.3470  -32.9505 H   0  0  0  0  0  0  0  0  0  0  0  0
   -7.2479   18.1803  -34.6898 H   0  0  0  0  0  0  0  0  0  0  0  0
   -5.6570   17.4619  -34.2037 H   0  0  0  0  0  0  0  0  0  0  0  0
   -6.6362   17.2236  -30.6913 H   0  0  0  0  0  0  0  0  0  0  0  0
   -5.8830   16.0094  -31.7800 H   0  0  0  0  0  0  0  0  0  0  0  0
   -5.2910   17.7053  -31.7800 H   0  0  0  0  0  0  0  0  0  0  0  0
   -9.2336   17.7095  -32.5909 H   0  0  0  0  0  0  0  0  0  0  0  0
   -8.2494   18.0812  -31.0903 H   0  0  0  0  0  0  0  0  0  0  0  0
   -8.8271   19.8080  -33.4893 H   0  0  0  0  0  0  0  0  0  0  0  0
   -8.8297   20.2011  -31.7246 H   0  0  0  0  0  0  0  0  0  0  0  0
   -7.8868   24.1694  -30.6369 H   0  0  0  0  0  0  0  0  0  0  0  0
   -5.2539   25.7587  -30.5891 H   0  0  0  0  0  0  0  0  0  0  0  0
   -6.1410   25.1282  -29.1380 H   0  0  0  0  0  0  0  0  0  0  0  0
   -4.5340   21.4100  -28.1861 H   0  0  0  0  0  0  0  0  0  0  0  0
   -2.8486   19.6015  -27.8974 H   0  0  0  0  0  0  0  0  0  0  0  0
  1  2  1  0
  2  3  1  0
  3  4  2  0
  4  5  1  0
  5  6  2  0
  6  7  1  0
  7  8  1  0
  8  9  1  0
  9 10  1  0
 10 11  1  0
 11 12  2  0
 12 13  1  0
 13 14  1  0
 14 15  1  0
 15 16  1  0
 16 17  1  0
 17 18  1  0
 17 19  1  0
 19 20  1  0
 13 21  2  0
 21 22  1  0
 22 23  2  0
 23 24  1  0
  6 25  1  0
 25 26  2  0
 26  3  1  0
 24  8  1  0
 23 11  1  0
 20 14  1  0
  1 27  1  0
  1 28  1  0
  1 29  1  0
  4 30  1  0
  5 31  1  0
  7 32  1  0
  7 33  1  0
  9 34  1  0
  9 35  1  0
 10 36  1  0
 10 37  1  0
 15 38  1  0
 15 39  1  0
 16 40  1  0
 16 41  1  0
 18 42  1  0
 18 43  1  0
 18 44  1  0
 19 45  1  0
 19 46  1  0
 20 47  1  0
 20 48  1  0
 22 49  1  0
 24 50  1  0
 24 51  1  0
 25 52  1  0
 26 53  1  0
M  END
>  <UniqueID>  (38) 
34

>  <SMILES>  (38) 
COc1ccc(CN2CCc3nc(N4CCN(C)CC4)ncc3C2)cc1

>  <Energy>  (38) 
70.81646050110568

>  <Genealogy>  (38) 
COc1ccc(CN2CCc3nc(N4CCN(C)CC4)ncc3C2)cc1 (3D coordinates assigned)
COc1ccc(CN2CCc3nc(N4CCN(C)CC4)ncc3C2)cc1 (nonaromatic ring conformer: 70.81646050110568 kcal/mol)

>  <smiles>  (38) 
COc1ccc(CN2CCc3nc(N4CCN(C)CC4)ncc3C2)cc1

>  <score_type>  (38) 
oracle

>  <origin>  (38) 
adg

>  <m_score__min__energy>  (38) 
-9.1699999999999999

>  <m_primary>  (38) 
energy

$$$$
39:0
     RDKit          3D

 39 42  0  0  0  0  0  0  0  0999 V2000
   -5.3140   17.2710  -35.2460 C   0  0  0  0  0  0  0  0  0  0  0  0
   -5.2900   18.3790  -34.2260 C   0  0  0  0  0  0  0  0  0  0  0  0
   -6.4680   19.0840  -33.9480 C   0  0  0  0  0  0  0  0  0  0  0  0
   -6.4650   20.1180  -33.0030 C   0  0  0  0  0  0  0  0  0  0  0  0
   -7.6730   20.8290  -32.7480 C   0  0  0  0  0  0  0  0  0  0  0  0
   -7.7150   21.8770  -31.8160 C   0  0  0  0  0  0  0  0  0  0  0  0
   -6.5380   22.1800  -31.1570 C   0  0  0  0  0  0  0  0  0  0  0  0
   -6.2000   23.1250  -30.2200 C   0  0  0  0  0  0  0  0  0  0  0  0
   -6.9840   23.9820  -29.7310 O   0  0  0  0  0  0  0  0  0  0  0  0
   -4.8870   23.0170  -29.8930 N   0  0  0  0  0  0  0  0  0  0  0  0
   -4.1480   23.8860  -28.9780 C   0  0  0  0  0  0  0  0  0  0  0  0
   -3.3870   24.9130  -29.7530 C   0  0  0  0  0  0  0  0  0  0  0  0
   -3.9130   25.4670  -30.7550 O   0  0  0  0  0  0  0  0  0  0  0  0
   -2.1190   25.2980  -29.3400 O   0  0  0  0  0  0  0  0  0  0  0  0
   -4.3450   22.0110  -30.6270 C   0  0  0  0  0  0  0  0  0  0  0  0
   -5.3340   21.4520  -31.4250 C   0  0  0  0  0  0  0  0  0  0  0  0
   -5.2940   20.4370  -32.3360 N   0  0  0  0  0  0  0  0  0  0  0  0
   -4.1400   19.7450  -32.5850 C   0  0  0  0  0  0  0  0  0  0  0  0
   -4.1120   18.7070  -33.5250 C   0  0  0  0  0  0  0  0  0  0  0  0
   -2.8450   17.9720  -33.7470 C   0  0  0  0  0  0  0  0  0  0  0  0
   -1.7560   18.6460  -34.3180 C   0  0  0  0  0  0  0  0  0  0  0  0
   -0.5560   17.9720  -34.5480 C   0  0  0  0  0  0  0  0  0  0  0  0
   -0.4530   16.6250  -34.2060 C   0  0  0  0  0  0  0  0  0  0  0  0
   -1.5130   15.9800  -33.6520 N   0  0  0  0  0  0  0  0  0  0  0  0
   -2.6980   16.6060  -33.4160 C   0  0  0  0  0  0  0  0  0  0  0  0
   -3.9110   15.7490  -32.7210 S   0  0  0  0  0  0  0  0  0  0  0  0
   -5.3351   16.2991  -34.7312 H   0  0  0  0  0  0  0  0  0  0  0  0
   -6.2102   17.3718  -35.8759 H   0  0  0  0  0  0  0  0  0  0  0  0
   -4.4143   17.3329  -35.8759 H   0  0  0  0  0  0  0  0  0  0  0  0
   -7.3988   18.8247  -34.4737 H   0  0  0  0  0  0  0  0  0  0  0  0
   -8.5885   20.5516  -33.2911 H   0  0  0  0  0  0  0  0  0  0  0  0
   -8.6434   22.4330  -31.6184 H   0  0  0  0  0  0  0  0  0  0  0  0
   -4.8552   24.3893  -28.3023 H   0  0  0  0  0  0  0  0  0  0  0  0
   -3.4422   23.2782  -28.3928 H   0  0  0  0  0  0  0  0  0  0  0  0
   -3.2931   21.6910  -30.5945 H   0  0  0  0  0  0  0  0  0  0  0  0
   -3.2217   20.0076  -32.0394 H   0  0  0  0  0  0  0  0  0  0  0  0
   -1.8479   19.7090  -34.5854 H   0  0  0  0  0  0  0  0  0  0  0  0
    0.3001   18.4987  -34.9948 H   0  0  0  0  0  0  0  0  0  0  0  0
    0.4875   16.0832  -34.3847 H   0  0  0  0  0  0  0  0  0  0  0  0
  1  2  1  0
  2  3  2  0
  3  4  1  0
  4  5  2  0
  5  6  1  0
  6  7  2  0
  7  8  1  0
  8  9  2  0
  8 10  1  0
 10 11  1  0
 11 12  1  0
 12 13  2  0
 12 14  1  0
 10 15  1  0
 15 16  2  0
 16 17  1  0
 17 18  1  0
 18 19  2  0
 19 20  1  0
 20 21  2  0
 21 22  1  0
 22 23  2  0
 23 24  1  0
 24 25  1  0
 25 26  2  0
 19  2  1  0
 25 20  1  0
 17  4  1  0
 16  7  1  0
  1 27  1  0
  1 28  1  0
  1 29  1  0
  3 30  1  0
  5 31  1  0
  6 32  1  0
 11 33  1  0
 11 34  1  0
 15 35  1  0
 18 36  1  0
 21 37  1  0
 22 38  1  0
 23 39  1  0
M  CHG  2  14  -1  24  -1
M  END
>  <UniqueID>  (39) 
35

>  <SMILES>  (39) 
Cc1cc2ccc3c(=O)n(CC(=O)[O-])cc-3n2cc1-c1ccc[n-]c1=S

>  <Energy>  (39) 
94.088636637106

>  <Genealogy>  (39) 
Cc1cc2ccc3c(=O)n(CC(=O)[O-])cc-3n2cc1-c1ccc[n-]c1=S (protonated)
Cc1cc2ccc3c(=O)n(CC(=O)[O-])cc-3n2cc1-c1ccc[n-]c1=S (3D coordinates assigned)
Cc1cc2ccc3c(=O)n(CC(=O)[O-])cc-3n2cc1-c1ccc[n-]c1=S (optimized conformer: 94.088636637106 kcal/mol)

>  <smiles>  (39) 
Cc1cc2ccc3c(=O)n(CC(=O)O)cc-3n2cc1-c1ccc[nH]c1=S

>  <score_type>  (39) 
oracle

>  <origin>  (39) 
adg

>  <m_score__min__energy>  (39) 
-10.77

>  <m_primary>  (39) 
energy

$$$$
40:0
     RDKit          3D

 40 42  0  0  0  0  0  0  0  0999 V2000
   -1.8410   19.8480  -26.7790 C   0  0  0  0  0  0  0  0  0  0  0  0
   -2.2770   21.1350  -27.3040 N   0  0  0  0  0  0  0  0  0  0  0  0
   -1.5120   22.2370  -27.4390 C   0  0  0  0  0  0  0  0  0  0  0  0
   -2.2420   23.2330  -28.0530 C   0  0  0  0  0  0  0  0  0  0  0  0
   -1.6110   24.9890  -28.4630 Br  0  0  0  0  0  0  0  0  0  0  0  0
   -3.4950   22.7020  -28.3160 C   0  0  0  0  0  0  0  0  0  0  0  0
   -4.6490   23.3840  -28.9910 C   0  0  0  0  0  0  0  0  0  0  0  0
   -4.2240   24.0570  -30.2400 N   0  0  0  0  0  0  0  0  0  0  0  0
   -3.6410   23.0970  -31.2150 C   0  0  0  0  0  0  0  0  0  0  0  0
   -4.6270   22.6400  -32.3100 C   0  0  0  0  0  0  0  0  0  0  0  0
   -6.0090   22.7490  -31.8350 N   0  0  0  0  0  0  0  0  0  0  0  0
   -6.8960   21.6140  -31.8350 C   0  0  0  0  0  0  0  0  0  0  0  0
   -8.2710   21.7820  -31.5910 C   0  0  0  0  0  0  0  0  0  0  0  0
   -9.1330   20.6820  -31.6140 C   0  0  0  0  0  0  0  0  0  0  0  0
   -8.6330   19.4050  -31.8840 C   0  0  0  0  0  0  0  0  0  0  0  0
   -9.4700   18.3390  -31.9060 F   0  0  0  0  0  0  0  0  0  0  0  0
   -7.2690   19.2280  -32.1360 C   0  0  0  0  0  0  0  0  0  0  0  0
   -6.4050   20.3260  -32.1170 C   0  0  0  0  0  0  0  0  0  0  0  0
   -6.4740   24.0490  -31.3410 C   0  0  0  0  0  0  0  0  0  0  0  0
   -5.2870   24.8940  -30.8470 C   0  0  0  0  0  0  0  0  0  0  0  0
   -3.4810   21.4020  -27.8460 C   0  0  0  0  0  0  0  0  0  0  0  0
   -1.8512   19.8781  -25.6795 H   0  0  0  0  0  0  0  0  0  0  0  0
   -2.5220   19.0589  -27.1306 H   0  0  0  0  0  0  0  0  0  0  0  0
   -0.8206   19.6352  -27.1306 H   0  0  0  0  0  0  0  0  0  0  0  0
   -0.4663   22.3277  -27.1100 H   0  0  0  0  0  0  0  0  0  0  0  0
   -5.4166   22.6339  -29.2321 H   0  0  0  0  0  0  0  0  0  0  0  0
   -5.0492   24.1462  -28.3062 H   0  0  0  0  0  0  0  0  0  0  0  0
   -2.7808   23.5787  -31.7029 H   0  0  0  0  0  0  0  0  0  0  0  0
   -3.3568   22.1989  -30.6470 H   0  0  0  0  0  0  0  0  0  0  0  0
   -4.4991   23.2741  -33.1997 H   0  0  0  0  0  0  0  0  0  0  0  0
   -4.4188   21.5892  -32.5598 H   0  0  0  0  0  0  0  0  0  0  0  0
   -8.6703   22.7852  -31.3808 H   0  0  0  0  0  0  0  0  0  0  0  0
  -10.2066   20.8215  -31.4193 H   0  0  0  0  0  0  0  0  0  0  0  0
   -6.8757   18.2231  -32.3495 H   0  0  0  0  0  0  0  0  0  0  0  0
   -5.3342   20.1825  -32.3238 H   0  0  0  0  0  0  0  0  0  0  0  0
   -6.9850   24.5838  -32.1551 H   0  0  0  0  0  0  0  0  0  0  0  0
   -7.1664   23.8838  -30.5023 H   0  0  0  0  0  0  0  0  0  0  0  0
   -4.8626   25.4434  -31.7003 H   0  0  0  0  0  0  0  0  0  0  0  0
   -5.6588   25.5838  -30.0750 H   0  0  0  0  0  0  0  0  0  0  0  0
   -4.3221   20.6956  -27.9054 H   0  0  0  0  0  0  0  0  0  0  0  0
  1  2  1  0
  2  3  1  0
  3  4  2  0
  4  5  1  0
  4  6  1  0
  6  7  1  0
  7  8  1  0
  8  9  1  0
  9 10  1  0
 10 11  1  0
 11 12  1  0
 12 13  2  0
 13 14  1  0
 14 15  2  0
 15 16  1  0
 15 17  1  0
 17 18  2  0
 11 19  1  0
 19 20  1  0
  6 21  2  0
 21  2  1  0
 20  8  1  0
 18 12  1  0
  1 22  1  0
  1 23  1  0
  1 24  1  0
  3 25  1  0
  7 26  1  0
  7 27  1  0
  9 28  1  0
  9 29  1  0
 10 30  1  0
 10 31  1  0
 13 32  1  0
 14 33  1  0
 17 34  1  0
 18 35  1  0
 19 36  1  0
 19 37  1  0
 20 38  1  0
 20 39  1  0
 21 40  1  0
M  END
>  <UniqueID>  (40) 
36

>  <SMILES>  (40) 
Cn1cc(Br)c(CN2CCN(c3ccc(F)cc3)CC2)c1

>  <Energy>  (40) 
77.97786349934366

>  <Genealogy>  (40) 
Cn1cc(Br)c(CN2CCN(c3ccc(F)cc3)CC2)c1 (3D coordinates assigned)
Cn1cc(Br)c(CN2CCN(c3ccc(F)cc3)CC2)c1 (nonaromatic ring conformer: 77.97786349934366 kcal/mol)

>  <smiles>  (40) 
Cn1cc(Br)c(CN2CCN(c3ccc(F)cc3)CC2)c1

>  <score_type>  (40) 
oracle

>  <origin>  (40) 
adg

>  <m_score__min__energy>  (40) 
-7.3499999999999996

>  <m_primary>  (40) 
energy

$$$$
41:0
     RDKit          3D

 33 35  0  0  0  0  0  0  0  0999 V2000
   -6.3460   16.4820  -33.2610 C   0  0  0  0  0  0  0  0  0  0  0  0
   -6.0280   17.8910  -32.9770 N   0  0  1  0  0  0  0  0  0  0  0  0
   -6.1100   18.7390  -34.1810 C   0  0  0  0  0  0  0  0  0  0  0  0
   -6.7990   20.0460  -33.7890 C   0  0  0  0  0  0  0  0  0  0  0  0
   -6.9710   19.9730  -32.2710 C   0  0  2  0  0  0  0  0  0  0  0  0
   -8.2770   20.6350  -31.7760 C   0  0  0  0  0  0  0  0  0  0  0  0
   -8.2260   22.1580  -31.9670 C   0  0  0  0  0  0  0  0  0  0  0  0
   -6.9440   22.7440  -31.4330 C   0  0  0  0  0  0  0  0  0  0  0  0
   -6.8700   24.1090  -31.1180 C   0  0  0  0  0  0  0  0  0  0  0  0
   -5.6720   24.6590  -30.6520 C   0  0  0  0  0  0  0  0  0  0  0  0
   -5.6060   25.9770  -30.3420 F   0  0  0  0  0  0  0  0  0  0  0  0
   -4.5400   23.8520  -30.5090 C   0  0  0  0  0  0  0  0  0  0  0  0
   -4.6010   22.4950  -30.8360 C   0  0  0  0  0  0  0  0  0  0  0  0
   -5.7950   21.9380  -31.3070 C   0  0  0  0  0  0  0  0  0  0  0  0
   -5.8420   20.5770  -31.6300 O   0  0  0  0  0  0  0  0  0  0  0  0
   -6.9510   18.4740  -31.9950 C   0  0  0  0  0  0  0  0  0  0  0  0
   -6.4693   15.9359  -32.3141 H   0  0  0  0  0  0  0  0  0  0  0  0
   -7.2793   16.4264  -33.8405 H   0  0  0  0  0  0  0  0  0  0  0  0
   -5.5271   16.0309  -33.8405 H   0  0  0  0  0  0  0  0  0  0  0  0
   -5.0540   17.9390  -32.5910 H   0  0  0  0  0  0  0  0  0  0  0  0
   -5.0989   18.9486  -34.5601 H   0  0  0  0  0  0  0  0  0  0  0  0
   -6.6790   18.2280  -34.9716 H   0  0  0  0  0  0  0  0  0  0  0  0
   -6.1744   20.9084  -34.0648 H   0  0  0  0  0  0  0  0  0  0  0  0
   -7.7623   20.1722  -34.3049 H   0  0  0  0  0  0  0  0  0  0  0  0
   -9.1253   20.2287  -32.3463 H   0  0  0  0  0  0  0  0  0  0  0  0
   -8.3961   20.4190  -30.7040 H   0  0  0  0  0  0  0  0  0  0  0  0
   -8.3020   22.3854  -33.0405 H   0  0  0  0  0  0  0  0  0  0  0  0
   -9.0642   22.6018  -31.4099 H   0  0  0  0  0  0  0  0  0  0  0  0
   -7.7570   24.7484  -31.2380 H   0  0  0  0  0  0  0  0  0  0  0  0
   -3.5995   24.2858  -30.1384 H   0  0  0  0  0  0  0  0  0  0  0  0
   -3.7079   21.8628  -30.7229 H   0  0  0  0  0  0  0  0  0  0  0  0
   -6.5941   18.2788  -30.9730 H   0  0  0  0  0  0  0  0  0  0  0  0
   -7.9567   18.0365  -32.0798 H   0  0  0  0  0  0  0  0  0  0  0  0
  1  2  1  0
  2  3  1  0
  3  4  1  0
  4  5  1  0
  5  6  1  0
  6  7  1  0
  7  8  1  0
  8  9  2  0
  9 10  1  0
 10 11  1  0
 10 12  2  0
 12 13  1  0
 13 14  2  0
 14 15  1  0
  5 16  1  0
 16  2  1  0
  5 15  1  1
 14  8  1  0
  1 17  1  0
  1 18  1  0
  1 19  1  0
  2 20  1  1
  3 21  1  0
  3 22  1  0
  4 23  1  0
  4 24  1  0
  6 25  1  0
  6 26  1  0
  7 27  1  0
  7 28  1  0
  9 29  1  0
 12 30  1  0
 13 31  1  0
 16 32  1  0
 16 33  1  0
M  CHG  1   2   1
M  END
>  <UniqueID>  (41) 
37

>  <SMILES>  (41) 
C[N@H+]1CC[C@@]2(CCc3cc(F)ccc3O2)C1

>  <Energy>  (41) 
37.37643135370056

>  <Genealogy>  (41) 
C[NH+]1CCC2(CCc3cc(F)ccc3O2)C1 (protonated)
C[N@H+]1CC[C@@]2(CCc3cc(F)ccc3O2)C1 (chirality)
C[N@H+]1CC[C@@]2(CCc3cc(F)ccc3O2)C1 (3D coordinates assigned)
C[N@H+]1CC[C@@]2(CCc3cc(F)ccc3O2)C1 (nonaromatic ring conformer: 37.37643135370056 kcal/mol)

>  <smiles>  (41) 
CN1CCC2(CCc3cc(F)ccc3O2)C1

>  <score_type>  (41) 
oracle

>  <origin>  (41) 
adg

>  <m_score__min__energy>  (41) 
-5.7800000000000002

>  <m_primary>  (41) 
energy

$$$$
42:0
     RDKit          3D

 67 70  0  0  0  0  0  0  0  0999 V2000
    0.2640   24.0990  -36.1830 C   0  0  0  0  0  0  0  0  0  0  0  0
    1.6680   24.1370  -35.6370 C   0  0  0  0  0  0  0  0  0  0  0  0
    2.4770   25.4080  -35.7550 C   0  0  0  0  0  0  0  0  0  0  0  0
    2.1600   23.0210  -35.0560 C   0  0  0  0  0  0  0  0  0  0  0  0
    3.0340   22.0020  -35.7540 C   0  0  0  0  0  0  0  0  0  0  0  0
    3.1470   20.6850  -34.9510 C   0  0  0  0  0  0  0  0  0  0  0  0
    1.9790   19.6610  -35.1290 C   0  0  2  0  0  0  0  0  0  0  0  0
    1.8660   19.1900  -36.5950 C   0  0  0  0  0  0  0  0  0  0  0  0
    0.6430   20.1390  -34.4380 C   0  0  1  0  0  0  0  0  0  0  0  0
   -0.5390   20.4170  -35.3720 C   0  0  0  0  0  0  0  0  0  0  0  0
   -1.7720   20.4350  -34.4720 C   0  0  2  0  0  0  0  0  0  0  0  0
   -1.8890   21.7050  -33.8910 O   0  0  0  0  0  0  0  0  0  0  0  0
   -1.5090   19.3200  -33.4180 C   0  0  2  0  0  0  0  0  0  0  0  0
   -1.9680   17.9840  -34.1030 C   0  0  0  0  0  0  0  0  0  0  0  0
   -2.2900   19.4640  -32.0400 C   0  0  2  0  0  0  0  0  0  0  0  0
   -3.8260   19.3130  -32.1170 C   0  0  0  0  0  0  0  0  0  0  0  0
   -4.4300   20.5740  -32.6220 C   0  0  0  0  0  0  0  0  0  0  0  0
   -5.1110   20.5680  -33.6810 O   0  0  0  0  0  0  0  0  0  0  0  0
   -4.1160   21.8210  -31.9000 C   0  0  0  0  0  0  0  0  0  0  0  0
   -4.9960   22.9340  -31.8810 C   0  0  0  0  0  0  0  0  0  0  0  0
   -6.2500   22.9260  -32.5000 O   0  0  0  0  0  0  0  0  0  0  0  0
   -4.6360   24.0890  -31.1840 C   0  0  0  0  0  0  0  0  0  0  0  0
   -3.4560   24.1340  -30.4480 C   0  0  0  0  0  0  0  0  0  0  0  0
   -3.1330   25.2750  -29.7230 O   0  0  0  0  0  0  0  0  0  0  0  0
   -2.6010   23.0330  -30.4280 C   0  0  0  0  0  0  0  0  0  0  0  0
   -2.8930   21.8770  -31.1780 C   0  0  0  0  0  0  0  0  0  0  0  0
   -1.9060   20.6950  -31.1400 C   0  0  2  0  0  0  0  0  0  0  0  0
   -0.4530   21.1790  -31.3530 C   0  0  0  0  0  0  0  0  0  0  0  0
    0.4490   20.1300  -31.9290 C   0  0  0  0  0  0  0  0  0  0  0  0
    1.5720   20.0120  -31.4540 O   0  0  0  0  0  0  0  0  0  0  0  0
    0.0710   19.3440  -33.1920 C   0  0  2  0  0  0  0  0  0  0  0  0
    0.6580   17.9120  -32.9720 C   0  0  0  0  0  0  0  0  0  0  0  0
   -0.4533   24.0796  -35.3492 H   0  0  0  0  0  0  0  0  0  0  0  0
    0.0859   24.9927  -36.7992 H   0  0  0  0  0  0  0  0  0  0  0  0
    0.1345   23.1970  -36.7992 H   0  0  0  0  0  0  0  0  0  0  0  0
    2.7168   25.7847  -34.7497 H   0  0  0  0  0  0  0  0  0  0  0  0
    3.4092   25.2000  -36.3006 H   0  0  0  0  0  0  0  0  0  0  0  0
    1.8939   26.1645  -36.3006 H   0  0  0  0  0  0  0  0  0  0  0  0
    1.9073   22.8403  -34.0008 H   0  0  0  0  0  0  0  0  0  0  0  0
    2.6012   21.7799  -36.7406 H   0  0  0  0  0  0  0  0  0  0  0  0
    4.0433   22.4291  -35.8480 H   0  0  0  0  0  0  0  0  0  0  0  0
    4.0790   20.1862  -35.2553 H   0  0  0  0  0  0  0  0  0  0  0  0
    3.1155   20.9838  -33.8928 H   0  0  0  0  0  0  0  0  0  0  0  0
    2.2213   18.7448  -34.5706 H   0  0  0  0  0  0  0  0  0  0  0  0
    1.6094   18.1206  -36.6178 H   0  0  0  0  0  0  0  0  0  0  0  0
    1.0807   19.7665  -37.1058 H   0  0  0  0  0  0  0  0  0  0  0  0
    2.8274   19.3474  -37.1058 H   0  0  0  0  0  0  0  0  0  0  0  0
    1.0718   21.0731  -34.0462 H   0  0  0  0  0  0  0  0  0  0  0  0
   -0.4137   21.3885  -35.8725 H   0  0  0  0  0  0  0  0  0  0  0  0
   -0.6218   19.6579  -36.1638 H   0  0  0  0  0  0  0  0  0  0  0  0
   -2.7167   20.2466  -35.0031 H   0  0  0  0  0  0  0  0  0  0  0  0
   -2.7280   22.1110  -34.2340 H   0  0  0  0  0  0  0  0  0  0  0  0
   -2.2222   17.2440  -33.3298 H   0  0  0  0  0  0  0  0  0  0  0  0
   -2.8511   18.1778  -34.7296 H   0  0  0  0  0  0  0  0  0  0  0  0
   -1.1523   17.5941  -34.7296 H   0  0  0  0  0  0  0  0  0  0  0  0
   -1.9023   18.5729  -31.5246 H   0  0  0  0  0  0  0  0  0  0  0  0
   -4.0783   18.4880  -32.7995 H   0  0  0  0  0  0  0  0  0  0  0  0
   -4.2210   19.0969  -31.1134 H   0  0  0  0  0  0  0  0  0  0  0  0
   -6.4180   23.2480  -33.4430 H   0  0  0  0  0  0  0  0  0  0  0  0
   -5.2915   24.9718  -31.2170 H   0  0  0  0  0  0  0  0  0  0  0  0
   -1.6861   23.0675  -29.8183 H   0  0  0  0  0  0  0  0  0  0  0  0
   -1.9818   20.2831  -30.1229 H   0  0  0  0  0  0  0  0  0  0  0  0
   -0.4696   22.0386  -32.0391 H   0  0  0  0  0  0  0  0  0  0  0  0
   -0.0517   21.4423  -30.3632 H   0  0  0  0  0  0  0  0  0  0  0  0
    0.7403   17.7112  -31.8936 H   0  0  0  0  0  0  0  0  0  0  0  0
   -0.0077   17.1679  -33.4338 H   0  0  0  0  0  0  0  0  0  0  0  0
    1.6544   17.8492  -33.4338 H   0  0  0  0  0  0  0  0  0  0  0  0
  1  2  1  0
  2  3  1  0
  2  4  2  3
  4  5  1  0
  5  6  1  0
  6  7  1  0
  7  8  1  0
  7  9  1  0
  9 10  1  0
 10 11  1  0
 11 12  1  0
 11 13  1  0
 13 14  1  6
 13 15  1  0
 15 16  1  0
 16 17  1  0
 17 18  2  0
 17 19  1  0
 19 20  2  0
 20 21  1  0
 20 22  1  0
 22 23  2  0
 23 24  1  0
 23 25  1  0
 25 26  2  0
 26 27  1  0
 27 28  1  0
 28 29  1  0
 29 30  2  0
 29 31  1  0
 31 32  1  1
 31  9  1  0
 31 13  1  0
 27 15  1  0
 26 19  1  0
  1 33  1  0
  1 34  1  0
  1 35  1  0
  3 36  1  0
  3 37  1  0
  3 38  1  0
  4 39  1  0
  5 40  1  0
  5 41  1  0
  6 42  1  0
  6 43  1  0
  7 44  1  1
  8 45  1  0
  8 46  1  0
  8 47  1  0
  9 48  1  1
 10 49  1  0
 10 50  1  0
 11 51  1  6
 12 52  1  0
 14 53  1  0
 14 54  1  0
 14 55  1  0
 15 56  1  1
 16 57  1  0
 16 58  1  0
 21 59  1  0
 22 60  1  0
 25 61  1  0
 27 62  1  1
 28 63  1  0
 28 64  1  0
 32 65  1  0
 32 66  1  0
 32 67  1  0
M  CHG  1  24  -1
M  END
>  <UniqueID>  (42) 
38

>  <SMILES>  (42) 
CC(C)=CCC[C@H](C)[C@H]1CC(O)C2(C)C3CC(=O)c4c(O)cc([O-])cc4C3CC(=O)C12C

>  <Energy>  (42) 
117.05063020653573

>  <Genealogy>  (42) 
CC(C)=CCCC(C)C1CC(O)C2(C)C3CC(=O)c4c(O)cc([O-])cc4C3CC(=O)C12C (protonated)
CC(C)=CCC[C@H](C)[C@H]1CC(O)C2(C)C3CC(=O)c4c(O)cc([O-])cc4C3CC(=O)C12C (chirality)
CC(C)=CCC[C@H](C)[C@H]1CC(O)C2(C)C3CC(=O)c4c(O)cc([O-])cc4C3CC(=O)C12C (3D coordinates assigned)
CC(C)=CCC[C@H](C)[C@H]1CC(O)C2(C)C3CC(=O)c4c(O)cc([O-])cc4C3CC(=O)C12C (nonaromatic ring conformer: 117.05063020653573 kcal/mol)

>  <smiles>  (42) 
CC(C)=CCCC(C)C1CC(O)C2(C)C3CC(=O)c4c(O)cc(O)cc4C3CC(=O)C12C

>  <score_type>  (42) 
oracle

>  <origin>  (42) 
adg

>  <m_score__min__energy>  (42) 
-9.5500000000000007

>  <m_primary>  (42) 
energy

$$$$
43:0
     RDKit          3D

 34 34  0  0  0  0  0  0  0  0999 V2000
   -1.9420   25.3050  -29.3400 O   0  0  0  0  0  0  0  0  0  0  0  0
   -3.1230   24.9240  -29.5530 C   0  0  0  0  0  0  0  0  0  0  0  0
   -3.8830   25.5510  -30.5310 O   0  0  0  0  0  0  0  0  0  0  0  0
   -3.6860   23.7680  -28.7930 C   0  0  0  0  0  0  0  0  0  0  0  0
   -2.6180   22.8050  -28.5040 N   0  0  0  0  0  0  0  0  0  0  0  0
   -2.9920   21.4210  -28.8470 C   0  0  0  0  0  0  0  0  0  0  0  0
   -2.4290   20.9600  -30.2030 C   0  0  0  0  0  0  0  0  0  0  0  0
   -2.1900   22.1120  -31.0830 N   0  0  0  0  0  0  0  0  0  0  0  0
   -2.8330   21.9270  -32.3900 C   0  0  0  0  0  0  0  0  0  0  0  0
   -4.2780   22.3150  -32.3110 C   0  0  0  0  0  0  0  0  0  0  0  0
   -4.6260   23.2800  -31.5780 O   0  0  0  0  0  0  0  0  0  0  0  0
   -5.2530   21.5910  -33.0740 N   0  0  0  0  0  0  0  0  0  0  0  0
   -6.6310   21.4520  -32.6860 C   0  0  0  0  0  0  0  0  0  0  0  0
   -7.3410   22.5180  -32.1010 C   0  0  0  0  0  0  0  0  0  0  0  0
   -8.6670   22.3420  -31.6920 C   0  0  0  0  0  0  0  0  0  0  0  0
   -9.2910   21.1010  -31.8510 C   0  0  0  0  0  0  0  0  0  0  0  0
   -8.5860   20.0330  -32.4120 C   0  0  0  0  0  0  0  0  0  0  0  0
   -7.2600   20.2050  -32.8200 C   0  0  0  0  0  0  0  0  0  0  0  0
   -4.1210   24.1272  -27.8487 H   0  0  0  0  0  0  0  0  0  0  0  0
   -4.4667   23.2795  -29.3945 H   0  0  0  0  0  0  0  0  0  0  0  0
   -1.7530   23.0810  -29.0270 H   0  0  0  0  0  0  0  0  0  0  0  0
   -2.6091   20.7508  -28.0633 H   0  0  0  0  0  0  0  0  0  0  0  0
   -4.0891   21.3869  -28.9196 H   0  0  0  0  0  0  0  0  0  0  0  0
   -1.4804   20.4280  -30.0384 H   0  0  0  0  0  0  0  0  0  0  0  0
   -3.1611   20.2936  -30.6826 H   0  0  0  0  0  0  0  0  0  0  0  0
   -2.6170   22.9540  -30.6320 H   0  0  0  0  0  0  0  0  0  0  0  0
   -2.3273   22.5566  -33.1369 H   0  0  0  0  0  0  0  0  0  0  0  0
   -2.7592   20.8689  -32.6816 H   0  0  0  0  0  0  0  0  0  0  0  0
   -4.9340   21.1150  -33.9480 H   0  0  0  0  0  0  0  0  0  0  0  0
   -6.8508   23.4933  -31.9651 H   0  0  0  0  0  0  0  0  0  0  0  0
   -9.2197   23.1813  -31.2446 H   0  0  0  0  0  0  0  0  0  0  0  0
  -10.3358   20.9655  -31.5348 H   0  0  0  0  0  0  0  0  0  0  0  0
   -9.0752   19.0552  -32.5328 H   0  0  0  0  0  0  0  0  0  0  0  0
   -6.7060   19.3570  -33.2490 H   0  0  0  0  0  0  0  0  0  0  0  0
  1  2  2  0
  2  3  1  0
  2  4  1  0
  4  5  1  0
  5  6  1  0
  6  7  1  0
  7  8  1  0
  8  9  1  0
  9 10  1  0
 10 11  2  0
 10 12  1  0
 12 13  1  0
 13 14  2  0
 14 15  1  0
 15 16  2  0
 16 17  1  0
 17 18  2  0
 18 13  1  0
  4 19  1  0
  4 20  1  0
  5 21  1  0
  6 22  1  0
  6 23  1  0
  7 24  1  0
  7 25  1  0
  8 26  1  0
  9 27  1  0
  9 28  1  0
 12 29  1  0
 14 30  1  0
 15 31  1  0
 16 32  1  0
 17 33  1  0
 18 34  1  0
M  CHG  1   3  -1
M  END
>  <UniqueID>  (43) 
39

>  <SMILES>  (43) 
O=C([O-])CNCCNCC(=O)Nc1ccccc1

>  <Energy>  (43) 
29.422544167941428

>  <Genealogy>  (43) 
O=C([O-])CNCCNCC(=O)Nc1ccccc1 (protonated)
O=C([O-])CNCCNCC(=O)Nc1ccccc1 (3D coordinates assigned)
O=C([O-])CNCCNCC(=O)Nc1ccccc1 (optimized conformer: 29.422544167941428 kcal/mol)

>  <smiles>  (43) 
O=C(O)CNCCNCC(=O)Nc1ccccc1

>  <score_type>  (43) 
oracle

>  <origin>  (43) 
adg

>  <m_score__min__energy>  (43) 
-8.1799999999999997

>  <m_primary>  (43) 
energy

$$$$
44:0
     RDKit          3D

 34 36  0  0  0  0  0  0  0  0999 V2000
   -3.3974   22.7214  -32.1399 H   0  0  0  0  0  0  0  0  0  0  0  0
   -4.4740   22.4990  -32.1030 C   0  0  0  0  0  0  0  0  0  0  0  0
   -5.4080   23.2970  -31.5750 C   0  0  0  0  0  0  0  0  0  0  0  0
   -5.1230   24.5980  -30.9370 C   0  0  0  0  0  0  0  0  0  0  0  0
   -6.0440   25.4530  -30.8270 O   0  0  0  0  0  0  0  0  0  0  0  0
   -3.8380   24.8830  -30.4650 O   0  0  0  0  0  0  0  0  0  0  0  0
   -3.2240   24.1860  -29.3830 C   0  0  0  0  0  0  0  0  0  0  0  0
   -2.3337   24.7418  -29.0538 H   0  0  0  0  0  0  0  0  0  0  0  0
   -2.9396   23.1800  -29.7250 H   0  0  0  0  0  0  0  0  0  0  0  0
   -4.1920   24.0520  -28.2130 C   0  0  0  0  0  0  0  0  0  0  0  0
   -3.6364   24.1289  -27.2668 H   0  0  0  0  0  0  0  0  0  0  0  0
   -4.9422   24.8549  -28.2640 H   0  0  0  0  0  0  0  0  0  0  0  0
   -4.6959   23.0755  -28.2640 H   0  0  0  0  0  0  0  0  0  0  0  0
   -6.7160   22.6430  -31.7160 C   0  0  0  0  0  0  0  0  0  0  0  0
   -7.9940   23.0670  -31.3320 C   0  0  0  0  0  0  0  0  0  0  0  0
   -8.1393   24.0379  -30.8358 H   0  0  0  0  0  0  0  0  0  0  0  0
   -9.0860   22.2240  -31.5950 C   0  0  0  0  0  0  0  0  0  0  0  0
  -10.0995   22.5350  -31.3015 H   0  0  0  0  0  0  0  0  0  0  0  0
   -8.8920   20.9830  -32.2320 C   0  0  0  0  0  0  0  0  0  0  0  0
   -9.7544   20.3303  -32.4326 H   0  0  0  0  0  0  0  0  0  0  0  0
   -7.6050   20.5750  -32.6120 C   0  0  0  0  0  0  0  0  0  0  0  0
   -7.4448   19.6082  -33.1116 H   0  0  0  0  0  0  0  0  0  0  0  0
   -6.5300   21.4280  -32.3400 C   0  0  0  0  0  0  0  0  0  0  0  0
   -5.1070   21.2760  -32.6280 C   0  0  0  0  0  0  0  0  0  0  0  0
   -4.5270   20.2040  -33.1930 C   0  0  0  0  0  0  0  0  0  0  0  0
   -3.4902   20.3151  -33.5432 H   0  0  0  0  0  0  0  0  0  0  0  0
   -5.1700   18.8900  -33.3810 C   0  0  0  0  0  0  0  0  0  0  0  0
   -5.7010   18.2040  -34.8260 S   0  0  0  0  0  0  0  0  0  0  0  0
   -6.4140   16.8420  -34.1450 C   0  0  0  0  0  0  0  0  0  0  0  0
   -6.9123   16.0302  -34.6952 H   0  0  0  0  0  0  0  0  0  0  0  0
   -6.2640   16.9210  -32.7670 C   0  0  0  0  0  0  0  0  0  0  0  0
   -6.6446   16.1548  -32.0756 H   0  0  0  0  0  0  0  0  0  0  0  0
   -5.5830   18.0670  -32.3400 C   0  0  0  0  0  0  0  0  0  0  0  0
   -5.3927   18.2946  -31.2808 H   0  0  0  0  0  0  0  0  0  0  0  0
  1  2  1  0
  2  3  2  0
  3  4  1  0
  4  5  2  0
  4  6  1  0
  6  7  1  0
  7  8  1  0
  7  9  1  0
  7 10  1  0
 10 11  1  0
 10 12  1  0
 10 13  1  0
  3 14  1  0
 14 15  2  0
 15 16  1  0
 15 17  1  0
 17 18  1  0
 17 19  2  0
 19 20  1  0
 19 21  1  0
 21 22  1  0
 21 23  2  0
 23 24  1  0
 24 25  2  0
 25 26  1  0
 25 27  1  0
 27 28  1  0
 28 29  1  0
 29 30  1  0
 29 31  2  0
 31 32  1  0
 31 33  1  0
 33 34  1  0
 24  2  1  0
 33 27  2  0
 23 14  1  0
M  END
>  <UniqueID>  (44) 
40

>  <SMILES>  (44) 
CCOC(=O)C1=C/C(=C\c2cccs2)c2ccccc21

>  <Energy>  (44) 
89.1414411218756

>  <Genealogy>  (44) 
CCOC(=O)C1=C/C(=C\c2cccs2)c2ccccc21 (cis-trans isomerization)
CCOC(=O)C1=C/C(=C\c2cccs2)c2ccccc21 (3D coordinates assigned)
CCOC(=O)C1=C/C(=C\c2cccs2)c2ccccc21 (nonaromatic ring conformer: 89.1414411218756 kcal/mol)

>  <smiles>  (44) 
CCOC(=O)C1=CC(=Cc2cccs2)c2ccccc21

>  <score_type>  (44) 
oracle

>  <origin>  (44) 
adg

>  <m_score__min__energy>  (44) 
-8.6600000000000001

>  <m_primary>  (44) 
energy

$$$$
45:0
     RDKit          3D

 45 47  0  0  0  0  0  0  0  0999 V2000
   -3.8310   16.4160  -35.2990 C   0  0  0  0  0  0  0  0  0  0  0  0
   -5.0370   17.0370  -34.7320 N   0  0  0  0  0  0  0  0  0  0  0  0
   -4.7550   18.4230  -34.3160 C   0  0  0  0  0  0  0  0  0  0  0  0
   -6.0680   19.1040  -33.9380 C   0  0  0  0  0  0  0  0  0  0  0  0
   -6.8410   18.2770  -32.9990 N   0  0  0  0  0  0  0  0  0  0  0  0
   -8.0020   18.8350  -32.3520 C   0  0  0  0  0  0  0  0  0  0  0  0
   -8.3160   18.4490  -31.1920 O   0  0  0  0  0  0  0  0  0  0  0  0
   -8.8240   19.8000  -33.0260 N   0  0  0  0  0  0  0  0  0  0  0  0
   -9.8580   20.5680  -32.3330 C   0  0  0  0  0  0  0  0  0  0  0  0
   -9.2380   21.5310  -31.3070 C   0  0  0  0  0  0  0  0  0  0  0  0
   -8.5920   22.7760  -31.9410 C   0  0  0  0  0  0  0  0  0  0  0  0
   -7.0870   22.6930  -31.9340 C   0  0  0  0  0  0  0  0  0  0  0  0
   -6.4040   21.7980  -32.6870 N   0  0  0  0  0  0  0  0  0  0  0  0
   -5.1050   21.9790  -32.3540 C   0  0  0  0  0  0  0  0  0  0  0  0
   -5.0300   22.9730  -31.4060 C   0  0  0  0  0  0  0  0  0  0  0  0
   -3.9140   23.4990  -30.7600 C   0  0  0  0  0  0  0  0  0  0  0  0
   -4.1290   24.5180  -29.8190 C   0  0  0  0  0  0  0  0  0  0  0  0
   -5.4360   24.9730  -29.5530 C   0  0  0  0  0  0  0  0  0  0  0  0
   -6.5230   24.4030  -30.2390 C   0  0  0  0  0  0  0  0  0  0  0  0
   -6.2670   23.4180  -31.1410 N   0  0  0  0  0  0  0  0  0  0  0  0
   -6.2670   17.0180  -32.5000 C   0  0  0  0  0  0  0  0  0  0  0  0
   -5.5960   16.2060  -33.6320 C   0  0  0  0  0  0  0  0  0  0  0  0
   -3.1746   16.0780  -34.4835 H   0  0  0  0  0  0  0  0  0  0  0  0
   -4.1192   15.5542  -35.9188 H   0  0  0  0  0  0  0  0  0  0  0  0
   -3.2969   17.1512  -35.9188 H   0  0  0  0  0  0  0  0  0  0  0  0
   -4.0789   18.4176  -33.4483 H   0  0  0  0  0  0  0  0  0  0  0  0
   -4.2766   18.9695  -35.1421 H   0  0  0  0  0  0  0  0  0  0  0  0
   -5.8476   20.0729  -33.4662 H   0  0  0  0  0  0  0  0  0  0  0  0
   -6.6641   19.2461  -34.8515 H   0  0  0  0  0  0  0  0  0  0  0  0
   -8.6180   20.0430  -34.0210 H   0  0  0  0  0  0  0  0  0  0  0  0
  -10.4295   21.1492  -33.0716 H   0  0  0  0  0  0  0  0  0  0  0  0
  -10.5164   19.8662  -31.8001 H   0  0  0  0  0  0  0  0  0  0  0  0
  -10.0296   21.8624  -30.6188 H   0  0  0  0  0  0  0  0  0  0  0  0
   -8.4378   20.9803  -30.7909 H   0  0  0  0  0  0  0  0  0  0  0  0
   -8.9385   22.8659  -32.9811 H   0  0  0  0  0  0  0  0  0  0  0  0
   -8.8880   23.6536  -31.3475 H   0  0  0  0  0  0  0  0  0  0  0  0
   -4.2518   21.4242  -32.7715 H   0  0  0  0  0  0  0  0  0  0  0  0
   -2.9014   23.1295  -30.9791 H   0  0  0  0  0  0  0  0  0  0  0  0
   -3.2748   24.9628  -29.2876 H   0  0  0  0  0  0  0  0  0  0  0  0
   -5.6048   25.7693  -28.8131 H   0  0  0  0  0  0  0  0  0  0  0  0
   -7.5517   24.7443  -30.0513 H   0  0  0  0  0  0  0  0  0  0  0  0
   -5.5136   17.2494  -31.7326 H   0  0  0  0  0  0  0  0  0  0  0  0
   -7.0836   16.4116  -32.0812 H   0  0  0  0  0  0  0  0  0  0  0  0
   -4.7765   15.6169  -33.1945 H   0  0  0  0  0  0  0  0  0  0  0  0
   -6.3817   15.5789  -34.0786 H   0  0  0  0  0  0  0  0  0  0  0  0
  1  2  1  0
  2  3  1  0
  3  4  1  0
  4  5  1  0
  5  6  1  0
  6  7  2  0
  6  8  1  0
  8  9  1  0
  9 10  1  0
 10 11  1  0
 11 12  1  0
 12 13  2  0
 13 14  1  0
 14 15  2  0
 15 16  1  0
 16 17  2  0
 17 18  1  0
 18 19  2  0
 19 20  1  0
  5 21  1  0
 21 22  1  0
 22  2  1  0
 20 12  1  0
 20 15  1  0
  1 23  1  0
  1 24  1  0
  1 25  1  0
  3 26  1  0
  3 27  1  0
  4 28  1  0
  4 29  1  0
  8 30  1  0
  9 31  1  0
  9 32  1  0
 10 33  1  0
 10 34  1  0
 11 35  1  0
 11 36  1  0
 14 37  1  0
 16 38  1  0
 17 39  1  0
 18 40  1  0
 19 41  1  0
 21 42  1  0
 21 43  1  0
 22 44  1  0
 22 45  1  0
M  END
>  <UniqueID>  (45) 
41

>  <SMILES>  (45) 
CN1CCN(C(=O)NCCCc2ncc3ccccn23)CC1

>  <Energy>  (45) 
81.16224399748596

>  <Genealogy>  (45) 
CN1CCN(C(=O)NCCCc2ncc3ccccn23)CC1 (3D coordinates assigned)
CN1CCN(C(=O)NCCCc2ncc3ccccn23)CC1 (nonaromatic ring conformer: 81.16224399748596 kcal/mol)

>  <smiles>  (45) 
CN1CCN(C(=O)NCCCc2ncc3ccccn23)CC1

>  <score_type>  (45) 
oracle

>  <origin>  (45) 
adg

>  <m_score__min__energy>  (45) 
-8.4199999999999999

>  <m_primary>  (45) 
energy

$$$$
46:0
     RDKit          3D

 58 61  0  0  0  0  0  0  0  0999 V2000
   -1.2270   17.6070  -34.3610 C   0  0  0  0  0  0  0  0  0  0  0  0
   -2.5600   17.2970  -34.7540 O   0  0  0  0  0  0  0  0  0  0  0  0
   -3.7030   17.9300  -34.2410 C   0  0  0  0  0  0  0  0  0  0  0  0
   -4.9730   17.7880  -34.8290 C   0  0  0  0  0  0  0  0  0  0  0  0
   -6.0820   18.4380  -34.2800 C   0  0  0  0  0  0  0  0  0  0  0  0
   -5.9470   19.2370  -33.1290 C   0  0  0  0  0  0  0  0  0  0  0  0
   -7.1110   19.9440  -32.5340 C   0  0  0  0  0  0  0  0  0  0  0  0
   -8.4260   19.6760  -32.9350 C   0  0  0  0  0  0  0  0  0  0  0  0
   -9.4750   20.3640  -32.3340 C   0  0  0  0  0  0  0  0  0  0  0  0
   -9.2010   21.3020  -31.3400 C   0  0  0  0  0  0  0  0  0  0  0  0
  -10.1550   21.9210  -30.7950 O   0  0  0  0  0  0  0  0  0  0  0  0
   -7.9030   21.5320  -30.9660 N   0  0  0  0  0  0  0  0  0  0  0  0
   -7.5580   22.4830  -29.9010 C   0  0  0  0  0  0  0  0  0  0  0  0
   -7.2410   23.8710  -30.4780 C   0  0  0  0  0  0  0  0  0  0  0  0
   -6.4430   23.8140  -31.7920 C   0  0  0  0  0  0  0  0  0  0  0  0
   -4.9800   23.7970  -31.5570 N   0  0  0  0  0  0  0  0  0  0  0  0
   -4.6580   24.0130  -30.1220 C   0  0  0  0  0  0  0  0  0  0  0  0
   -4.3800   22.7050  -29.3690 C   0  0  0  0  0  0  0  0  0  0  0  0
   -3.2930   21.9640  -30.0230 N   0  0  0  0  0  0  0  0  0  0  0  0
   -2.4760   21.0420  -29.2690 C   0  0  0  0  0  0  0  0  0  0  0  0
   -1.3340   20.4560  -29.8490 C   0  0  0  0  0  0  0  0  0  0  0  0
   -0.5440   19.5640  -29.1170 C   0  0  0  0  0  0  0  0  0  0  0  0
   -0.8840   19.2460  -27.7990 C   0  0  0  0  0  0  0  0  0  0  0  0
   -0.1160   18.3820  -27.0910 F   0  0  0  0  0  0  0  0  0  0  0  0
   -2.0130   19.8200  -27.2120 C   0  0  0  0  0  0  0  0  0  0  0  0
   -2.8060   20.7120  -27.9400 C   0  0  0  0  0  0  0  0  0  0  0  0
   -3.0380   22.2020  -31.4490 C   0  0  0  0  0  0  0  0  0  0  0  0
   -4.3420   22.5950  -32.1540 C   0  0  0  0  0  0  0  0  0  0  0  0
   -6.9040   20.8630  -31.5530 N   0  0  0  0  0  0  0  0  0  0  0  0
   -4.6730   19.3830  -32.5540 C   0  0  0  0  0  0  0  0  0  0  0  0
   -3.5650   18.7320  -33.1040 C   0  0  0  0  0  0  0  0  0  0  0  0
   -1.1625   17.6220  -33.2630 H   0  0  0  0  0  0  0  0  0  0  0  0
   -0.5409   16.8444  -34.7582 H   0  0  0  0  0  0  0  0  0  0  0  0
   -0.9478   18.5940  -34.7582 H   0  0  0  0  0  0  0  0  0  0  0  0
   -5.0940   17.1622  -35.7255 H   0  0  0  0  0  0  0  0  0  0  0  0
   -7.0692   18.3241  -34.7517 H   0  0  0  0  0  0  0  0  0  0  0  0
   -8.6271   18.9291  -33.7171 H   0  0  0  0  0  0  0  0  0  0  0  0
  -10.5132   20.1693  -32.6409 H   0  0  0  0  0  0  0  0  0  0  0  0
   -8.4071   22.5682  -29.2069 H   0  0  0  0  0  0  0  0  0  0  0  0
   -6.6652   22.1110  -29.3771 H   0  0  0  0  0  0  0  0  0  0  0  0
   -8.1891   24.3956  -30.6674 H   0  0  0  0  0  0  0  0  0  0  0  0
   -6.6176   24.3969  -29.7399 H   0  0  0  0  0  0  0  0  0  0  0  0
   -6.7248   22.9019  -32.3385 H   0  0  0  0  0  0  0  0  0  0  0  0
   -6.6818   24.7176  -32.3721 H   0  0  0  0  0  0  0  0  0  0  0  0
   -3.7659   24.6530  -30.0549 H   0  0  0  0  0  0  0  0  0  0  0  0
   -5.5353   24.4833  -29.6539 H   0  0  0  0  0  0  0  0  0  0  0  0
   -4.0902   22.9365  -28.3334 H   0  0  0  0  0  0  0  0  0  0  0  0
   -5.2900   22.0870  -29.3752 H   0  0  0  0  0  0  0  0  0  0  0  0
   -1.0614   20.7019  -30.8859 H   0  0  0  0  0  0  0  0  0  0  0  0
    0.3461   19.1120  -29.5790 H   0  0  0  0  0  0  0  0  0  0  0  0
   -2.2793   19.5699  -26.1744 H   0  0  0  0  0  0  0  0  0  0  0  0
   -3.6947   21.1597  -27.4712 H   0  0  0  0  0  0  0  0  0  0  0  0
   -2.3052   23.0151  -31.5577 H   0  0  0  0  0  0  0  0  0  0  0  0
   -2.6430   21.2821  -31.9047 H   0  0  0  0  0  0  0  0  0  0  0  0
   -4.1210   22.8030  -33.2113 H   0  0  0  0  0  0  0  0  0  0  0  0
   -5.0450   21.7565  -32.0413 H   0  0  0  0  0  0  0  0  0  0  0  0
   -4.5466   20.0154  -31.6629 H   0  0  0  0  0  0  0  0  0  0  0  0
   -2.5757   18.8517  -32.6382 H   0  0  0  0  0  0  0  0  0  0  0  0
  1  2  1  0
  2  3  1  0
  3  4  2  0
  4  5  1  0
  5  6  2  0
  6  7  1  0
  7  8  1  0
  8  9  2  0
  9 10  1  0
 10 11  2  0
 10 12  1  0
 12 13  1  0
 13 14  1  0
 14 15  1  0
 15 16  1  0
 16 17  1  0
 17 18  1  0
 18 19  1  0
 19 20  1  0
 20 21  2  0
 21 22  1  0
 22 23  2  0
 23 24  1  0
 23 25  1  0
 25 26  2  0
 19 27  1  0
 27 28  1  0
 12 29  1  0
  6 30  1  0
 30 31  2  0
 31  3  1  0
 29  7  2  0
 28 16  1  0
 26 20  1  0
  1 32  1  0
  1 33  1  0
  1 34  1  0
  4 35  1  0
  5 36  1  0
  8 37  1  0
  9 38  1  0
 13 39  1  0
 13 40  1  0
 14 41  1  0
 14 42  1  0
 15 43  1  0
 15 44  1  0
 17 45  1  0
 17 46  1  0
 18 47  1  0
 18 48  1  0
 21 49  1  0
 22 50  1  0
 25 51  1  0
 26 52  1  0
 27 53  1  0
 27 54  1  0
 28 55  1  0
 28 56  1  0
 30 57  1  0
 31 58  1  0
M  END
>  <UniqueID>  (46) 
42

>  <SMILES>  (46) 
COc1ccc(-c2ccc(=O)n(CCCN3CCN(c4ccc(F)cc4)CC3)n2)cc1

>  <Energy>  (46) 
73.49301717065609

>  <Genealogy>  (46) 
COc1ccc(-c2ccc(=O)n(CCCN3CCN(c4ccc(F)cc4)CC3)n2)cc1 (3D coordinates assigned)
COc1ccc(-c2ccc(=O)n(CCCN3CCN(c4ccc(F)cc4)CC3)n2)cc1 (nonaromatic ring conformer: 73.49301717065609 kcal/mol)

>  <smiles>  (46) 
COc1ccc(-c2ccc(=O)n(CCCN3CCN(c4ccc(F)cc4)CC3)n2)cc1

>  <score_type>  (46) 
oracle

>  <origin>  (46) 
adg

>  <m_score__min__energy>  (46) 
-9.4600000000000009

>  <m_primary>  (46) 
energy

$$$$
47:0
     RDKit          3D

 34 36  0  0  0  0  0  0  0  0999 V2000
   -6.4460   16.5920  -33.8440 C   0  0  0  0  0  0  0  0  0  0  0  0
   -7.4870   17.0520  -32.9890 O   0  0  0  0  0  0  0  0  0  0  0  0
   -7.7230   18.4010  -32.6860 C   0  0  0  0  0  0  0  0  0  0  0  0
   -8.8970   18.8370  -32.0420 C   0  0  0  0  0  0  0  0  0  0  0  0
   -9.0800   20.1930  -31.7520 C   0  0  0  0  0  0  0  0  0  0  0  0
   -8.0920   21.1280  -32.0910 C   0  0  0  0  0  0  0  0  0  0  0  0
   -8.2590   22.5530  -31.7570 C   0  0  0  0  0  0  0  0  0  0  0  0
   -9.1330   23.2260  -32.3630 O   0  0  0  0  0  0  0  0  0  0  0  0
   -7.4220   23.2120  -30.7940 N   0  0  0  0  0  0  0  0  0  0  0  0
   -6.5070   24.3180  -31.0770 C   0  0  0  0  0  0  0  0  0  0  0  0
   -5.0970   23.9610  -30.6880 C   0  0  0  0  0  0  0  0  0  0  0  0
   -4.5670   22.6820  -31.0020 C   0  0  0  0  0  0  0  0  0  0  0  0
   -3.2370   22.3570  -30.6800 C   0  0  0  0  0  0  0  0  0  0  0  0
   -2.4720   23.3260  -30.0370 C   0  0  0  0  0  0  0  0  0  0  0  0
   -1.1930   23.2330  -29.6440 N   0  0  0  0  0  0  0  0  0  0  0  0
   -0.9790   24.4530  -29.0890 C   0  0  0  0  0  0  0  0  0  0  0  0
    0.1280   24.7800  -28.5860 O   0  0  0  0  0  0  0  0  0  0  0  0
   -2.0420   25.2960  -29.1120 N   0  0  0  0  0  0  0  0  0  0  0  0
   -2.9770   24.5510  -29.7210 C   0  0  0  0  0  0  0  0  0  0  0  0
   -4.2870   24.9110  -30.0260 C   0  0  0  0  0  0  0  0  0  0  0  0
   -6.9340   20.6980  -32.7530 C   0  0  0  0  0  0  0  0  0  0  0  0
   -6.7500   19.3420  -33.0410 C   0  0  0  0  0  0  0  0  0  0  0  0
   -5.6081   16.2217  -33.2351 H   0  0  0  0  0  0  0  0  0  0  0  0
   -6.8258   15.7779  -34.4788 H   0  0  0  0  0  0  0  0  0  0  0  0
   -6.0997   17.4209  -34.4788 H   0  0  0  0  0  0  0  0  0  0  0  0
   -9.6733   18.1082  -31.7659 H   0  0  0  0  0  0  0  0  0  0  0  0
  -10.0031   20.5272  -31.2558 H   0  0  0  0  0  0  0  0  0  0  0  0
   -6.5375   24.5445  -32.1530 H   0  0  0  0  0  0  0  0  0  0  0  0
   -6.8224   25.1940  -30.4912 H   0  0  0  0  0  0  0  0  0  0  0  0
   -5.2033   21.9372  -31.5025 H   0  0  0  0  0  0  0  0  0  0  0  0
   -2.8160   21.3714  -30.9277 H   0  0  0  0  0  0  0  0  0  0  0  0
   -4.6791   25.9037  -29.7600 H   0  0  0  0  0  0  0  0  0  0  0  0
   -6.1671   21.4297  -33.0471 H   0  0  0  0  0  0  0  0  0  0  0  0
   -5.8328   19.0123  -33.5509 H   0  0  0  0  0  0  0  0  0  0  0  0
  1  2  1  0
  2  3  1  0
  3  4  2  0
  4  5  1  0
  5  6  2  0
  6  7  1  0
  7  8  2  0
  7  9  1  0
  9 10  1  0
 10 11  1  0
 11 12  2  0
 12 13  1  0
 13 14  2  0
 14 15  1  0
 15 16  1  0
 16 17  2  0
 16 18  1  0
 18 19  1  0
 19 20  2  0
  6 21  1  0
 21 22  2  0
 22  3  1  0
 20 11  1  0
 19 14  1  0
  1 23  1  0
  1 24  1  0
  1 25  1  0
  4 26  1  0
  5 27  1  0
 10 28  1  0
 10 29  1  0
 12 30  1  0
 13 31  1  0
 20 32  1  0
 21 33  1  0
 22 34  1  0
M  CHG  3   9  -1  15  -1  18  -1
M  END
>  <UniqueID>  (47) 
43

>  <SMILES>  (47) 
COc1ccc(C(=O)[N-]Cc2ccc3[n-]c(=O)[n-]c3c2)cc1

>  <Energy>  (47) 
73.10094411299995

>  <Genealogy>  (47) 
COc1ccc(C(=O)[N-]Cc2ccc3[n-]c(=O)[n-]c3c2)cc1 (protonated)
COc1ccc(C(=O)[N-]Cc2ccc3[n-]c(=O)[n-]c3c2)cc1 (3D coordinates assigned)
COc1ccc(C(=O)[N-]Cc2ccc3[n-]c(=O)[n-]c3c2)cc1 (optimized conformer: 73.10094411299995 kcal/mol)

>  <smiles>  (47) 
COc1ccc(C(=O)NCc2ccc3[nH]c(=O)[nH]c3c2)cc1

>  <score_type>  (47) 
oracle

>  <origin>  (47) 
adg

>  <m_score__min__energy>  (47) 
-10.220000000000001

>  <m_primary>  (47) 
energy

$$$$
48:0
     RDKit          3D

 42 42  0  0  0  0  0  0  0  0999 V2000
   -9.0640   18.6510  -31.9730 C   0  0  0  0  0  0  0  0  0  0  0  0
   -9.1440   20.1600  -32.2500 C   0  0  0  0  0  0  0  0  0  0  0  0
   -7.8840   20.8960  -31.9810 N   0  0  0  0  0  0  0  0  0  0  0  0
   -6.6590   20.0720  -32.1140 C   0  0  0  0  0  0  0  0  0  0  0  0
   -5.6660   20.6820  -33.1020 C   0  0  0  0  0  0  0  0  0  0  0  0
   -7.9190   21.6060  -30.6830 C   0  0  0  0  0  0  0  0  0  0  0  0
   -6.8210   22.6370  -30.6270 C   0  0  0  0  0  0  0  0  0  0  0  0
   -6.7440   23.6160  -31.6160 C   0  0  0  0  0  0  0  0  0  0  0  0
   -5.7410   24.5750  -31.5670 C   0  0  0  0  0  0  0  0  0  0  0  0
   -4.7870   24.5760  -30.5440 C   0  0  0  0  0  0  0  0  0  0  0  0
   -3.9000   25.6540  -30.5530 O   0  0  0  0  0  0  0  0  0  0  0  0
   -4.7750   23.5260  -29.5670 C   0  0  0  0  0  0  0  0  0  0  0  0
   -3.6490   23.3590  -28.5000 C   0  0  0  0  0  0  0  0  0  0  0  0
   -3.9580   24.2280  -27.2610 C   0  0  0  0  0  0  0  0  0  0  0  0
   -3.5210   21.8950  -27.9940 C   0  0  0  0  0  0  0  0  0  0  0  0
   -2.2610   23.7150  -29.0940 C   0  0  0  0  0  0  0  0  0  0  0  0
   -5.8510   22.5970  -29.6160 C   0  0  0  0  0  0  0  0  0  0  0  0
   -9.0548   18.4776  -30.8868 H   0  0  0  0  0  0  0  0  0  0  0  0
   -9.9368   18.1499  -32.4169 H   0  0  0  0  0  0  0  0  0  0  0  0
   -8.1431   18.2450  -32.4169 H   0  0  0  0  0  0  0  0  0  0  0  0
   -9.4076   20.3028  -33.3084 H   0  0  0  0  0  0  0  0  0  0  0  0
   -9.9006   20.5675  -31.5633 H   0  0  0  0  0  0  0  0  0  0  0  0
   -6.1762   19.9911  -31.1289 H   0  0  0  0  0  0  0  0  0  0  0  0
   -6.9535   19.0826  -32.4940 H   0  0  0  0  0  0  0  0  0  0  0  0
   -4.8562   21.1794  -32.5480 H   0  0  0  0  0  0  0  0  0  0  0  0
   -5.2433   19.8876  -33.7346 H   0  0  0  0  0  0  0  0  0  0  0  0
   -6.1835   21.4182  -33.7346 H   0  0  0  0  0  0  0  0  0  0  0  0
   -8.8926   22.1047  -30.5672 H   0  0  0  0  0  0  0  0  0  0  0  0
   -7.7720   20.8789  -29.8708 H   0  0  0  0  0  0  0  0  0  0  0  0
   -7.4778   23.6290  -32.4354 H   0  0  0  0  0  0  0  0  0  0  0  0
   -5.6958   25.3487  -32.3476 H   0  0  0  0  0  0  0  0  0  0  0  0
   -3.4640   26.0470  -29.7370 H   0  0  0  0  0  0  0  0  0  0  0  0
   -3.7526   23.6505  -26.3476 H   0  0  0  0  0  0  0  0  0  0  0  0
   -3.3245   25.1271  -27.2765 H   0  0  0  0  0  0  0  0  0  0  0  0
   -5.0169   24.5253  -27.2765 H   0  0  0  0  0  0  0  0  0  0  0  0
   -3.5202   21.8860  -26.8940 H   0  0  0  0  0  0  0  0  0  0  0  0
   -4.3708   21.3032  -28.3649 H   0  0  0  0  0  0  0  0  0  0  0  0
   -2.5814   21.4597  -28.3649 H   0  0  0  0  0  0  0  0  0  0  0  0
   -1.5482   23.8978  -28.2764 H   0  0  0  0  0  0  0  0  0  0  0  0
   -1.9021   22.8798  -29.7134 H   0  0  0  0  0  0  0  0  0  0  0  0
   -2.3484   24.6198  -29.7134 H   0  0  0  0  0  0  0  0  0  0  0  0
   -5.9241   21.8238  -28.8370 H   0  0  0  0  0  0  0  0  0  0  0  0
  1  2  1  0
  2  3  1  0
  3  4  1  0
  4  5  1  0
  3  6  1  0
  6  7  1  0
  7  8  2  0
  8  9  1  0
  9 10  2  0
 10 11  1  0
 10 12  1  0
 12 13  1  0
 13 14  1  0
 13 15  1  0
 13 16  1  0
 12 17  2  0
 17  7  1  0
  1 18  1  0
  1 19  1  0
  1 20  1  0
  2 21  1  0
  2 22  1  0
  4 23  1  0
  4 24  1  0
  5 25  1  0
  5 26  1  0
  5 27  1  0
  6 28  1  0
  6 29  1  0
  8 30  1  0
  9 31  1  0
 11 32  1  0
 14 33  1  0
 14 34  1  0
 14 35  1  0
 15 36  1  0
 15 37  1  0
 15 38  1  0
 16 39  1  0
 16 40  1  0
 16 41  1  0
 17 42  1  0
M  END
>  <UniqueID>  (48) 
44

>  <SMILES>  (48) 
CCN(CC)Cc1ccc(O)c(C(C)(C)C)c1

>  <Energy>  (48) 
52.20403662986323

>  <Genealogy>  (48) 
CCN(CC)Cc1ccc(O)c(C(C)(C)C)c1 (3D coordinates assigned)
CCN(CC)Cc1ccc(O)c(C(C)(C)C)c1 (optimized conformer: 52.20403662986323 kcal/mol)

>  <smiles>  (48) 
CCN(CC)Cc1ccc(O)c(C(C)(C)C)c1

>  <score_type>  (48) 
oracle

>  <origin>  (48) 
adg

>  <m_score__min__energy>  (48) 
-7.8700000000000001

>  <m_primary>  (48) 
energy

$$$$
