0:0
     RDKit          3D

 26 28  0  0  0  0  0  0  0  0999 V2000
   -6.8860   17.8860  -33.4610 C   0  0  0  0  0  0  0  0  0  0  0  0
   -7.1870   19.2080  -32.8340 C   0  0  0  0  0  0  0  0  0  0  0  0
   -8.4170   19.6070  -32.4520 N   0  0  0  0  0  0  0  0  0  0  0  0
   -8.3220   20.8280  -31.9360 N   0  0  0  0  0  0  0  0  0  0  0  0
   -9.4910   21.5370  -31.4290 C   0  0  0  0  0  0  0  0  0  0  0  0
   -7.0220   21.2270  -31.9820 C   0  0  0  0  0  0  0  0  0  0  0  0
   -6.2890   20.2110  -32.5500 C   0  0  0  0  0  0  0  0  0  0  0  0
   -4.9140   20.2870  -32.7490 C   0  0  0  0  0  0  0  0  0  0  0  0
   -4.2590   21.4580  -32.3500 C   0  0  0  0  0  0  0  0  0  0  0  0
   -4.9770   22.5200  -31.7640 C   0  0  0  0  0  0  0  0  0  0  0  0
   -4.3190   23.6170  -31.3980 O   0  0  0  0  0  0  0  0  0  0  0  0
   -4.9180   24.6630  -30.8420 C   0  0  0  0  0  0  0  0  0  0  0  0
   -4.2370   25.6710  -30.5170 O   0  0  0  0  0  0  0  0  0  0  0  0
   -6.2940   24.6500  -30.6140 C   0  0  0  0  0  0  0  0  0  0  0  0
   -7.0340   23.5260  -30.9780 C   0  0  0  0  0  0  0  0  0  0  0  0
   -6.3880   22.4260  -31.5670 C   0  0  0  0  0  0  0  0  0  0  0  0
   -6.7155   17.1371  -32.6736 H   0  0  0  0  0  0  0  0  0  0  0  0
   -7.7362   17.5743  -34.0856 H   0  0  0  0  0  0  0  0  0  0  0  0
   -5.9847   17.9731  -34.0856 H   0  0  0  0  0  0  0  0  0  0  0  0
   -9.4766   21.5283  -30.3291 H   0  0  0  0  0  0  0  0  0  0  0  0
   -9.4734   22.5767  -31.7877 H   0  0  0  0  0  0  0  0  0  0  0  0
  -10.4049   21.0408  -31.7877 H   0  0  0  0  0  0  0  0  0  0  0  0
   -4.3595   19.4537  -33.2052 H   0  0  0  0  0  0  0  0  0  0  0  0
   -3.1726   21.5504  -32.4953 H   0  0  0  0  0  0  0  0  0  0  0  0
   -6.7896   25.5167  -30.1523 H   0  0  0  0  0  0  0  0  0  0  0  0
   -8.1200   23.5004  -30.8047 H   0  0  0  0  0  0  0  0  0  0  0  0
  1  2  1  0
  2  3  2  0
  3  4  1  0
  4  5  1  0
  4  6  1  0
  6  7  2  0
  7  8  1  0
  8  9  2  0
  9 10  1  0
 10 11  1  0
 11 12  1  0
 12 13  2  0
 12 14  1  0
 14 15  2  0
 15 16  1  0
  7  2  1  0
 16 10  2  0
 16  6  1  0
  1 17  1  0
  1 18  1  0
  1 19  1  0
  5 20  1  0
  5 21  1  0
  5 22  1  0
  8 23  1  0
  9 24  1  0
 14 25  1  0
 15 26  1  0
M  END
>  <UniqueID>  (1) 
1

>  <SMILES>  (1) 
Cc1nn(C)c2c1ccc1oc(=O)ccc12

>  <Energy>  (1) 
74.36602996961975

>  <Genealogy>  (1) 
Cc1nn(C)c2c1ccc1oc(=O)ccc12 (3D coordinates assigned)
Cc1nn(C)c2c1ccc1oc(=O)ccc12 (optimized conformer: 74.36602996961975 kcal/mol)

>  <smiles>  (1) 
Cc1nn(C)c2c1ccc1oc(=O)ccc12

>  <score_type>  (1) 
oracle

>  <origin>  (1) 
adg

>  <m_score__min__energy>  (1) 
-7.8700000000000001

>  <m_primary>  (1) 
energy

$$$$
1:0
     RDKit          3D

 62 64  0  0  0  0  0  0  0  0999 V2000
    3.4010   22.0170  -35.9830 C   0  0  0  0  0  0  0  0  0  0  0  0
    2.3970   22.7680  -35.0950 C   0  0  0  0  0  0  0  0  0  0  0  0
    0.9840   22.4120  -35.3630 N   0  0  0  0  0  0  0  0  0  0  0  0
    0.2630   23.4850  -36.0820 C   0  0  0  0  0  0  0  0  0  0  0  0
    1.0630   24.7860  -36.0870 C   0  0  0  0  0  0  0  0  0  0  0  0
    0.8320   21.0770  -35.9930 C   0  0  0  0  0  0  0  0  0  0  0  0
   -0.1380   20.2070  -35.1670 C   0  0  0  0  0  0  0  0  0  0  0  0
   -1.1900   21.0250  -34.5410 N   0  0  0  0  0  0  0  0  0  0  0  0
   -1.0640   21.0720  -33.0740 C   0  0  0  0  0  0  0  0  0  0  0  0
   -2.3650   21.5600  -32.3860 C   0  0  0  0  0  0  0  0  0  0  0  0
   -3.5210   21.8070  -33.2930 N   0  0  0  0  0  0  0  0  0  0  0  0
   -4.7430   21.0730  -32.9850 C   0  0  0  0  0  0  0  0  0  0  0  0
   -4.8670   19.7190  -33.3930 C   0  0  0  0  0  0  0  0  0  0  0  0
   -3.7590   18.9960  -33.9040 C   0  0  0  0  0  0  0  0  0  0  0  0
   -3.9040   17.6970  -34.3810 C   0  0  0  0  0  0  0  0  0  0  0  0
   -5.1500   17.0880  -34.3700 C   0  0  0  0  0  0  0  0  0  0  0  0
   -6.2470   17.7560  -33.8350 C   0  0  0  0  0  0  0  0  0  0  0  0
   -6.1210   19.0610  -33.2870 C   0  0  0  0  0  0  0  0  0  0  0  0
   -7.1880   19.6910  -32.6840 N   0  0  0  0  0  0  0  0  0  0  0  0
   -8.3950   18.9100  -32.3220 C   0  0  0  0  0  0  0  0  0  0  0  0
   -7.1160   21.0310  -32.3590 C   0  0  0  0  0  0  0  0  0  0  0  0
   -8.2810   21.7540  -32.0060 C   0  0  0  0  0  0  0  0  0  0  0  0
   -8.2100   23.0650  -31.5640 C   0  0  0  0  0  0  0  0  0  0  0  0
   -6.9820   23.6880  -31.4330 C   0  0  0  0  0  0  0  0  0  0  0  0
   -5.7990   23.0310  -31.8070 C   0  0  0  0  0  0  0  0  0  0  0  0
   -4.5580   23.6410  -31.5600 O   0  0  0  0  0  0  0  0  0  0  0  0
   -3.9930   23.8740  -30.2730 C   0  0  0  0  0  0  0  0  0  0  0  0
   -5.8670   21.7210  -32.3870 C   0  0  0  0  0  0  0  0  0  0  0  0
    4.1206   21.4787  -35.3486 H   0  0  0  0  0  0  0  0  0  0  0  0
    2.8626   21.2981  -36.6181 H   0  0  0  0  0  0  0  0  0  0  0  0
    3.9386   22.7365  -36.6181 H   0  0  0  0  0  0  0  0  0  0  0  0
    2.6207   22.5347  -34.0436 H   0  0  0  0  0  0  0  0  0  0  0  0
    2.5072   23.8392  -35.3192 H   0  0  0  0  0  0  0  0  0  0  0  0
    0.0905   23.1667  -37.1207 H   0  0  0  0  0  0  0  0  0  0  0  0
   -0.6915   23.6670  -35.5664 H   0  0  0  0  0  0  0  0  0  0  0  0
    1.2568   25.1012  -35.0511 H   0  0  0  0  0  0  0  0  0  0  0  0
    2.0192   24.6264  -36.6067 H   0  0  0  0  0  0  0  0  0  0  0  0
    0.4891   25.5673  -36.6067 H   0  0  0  0  0  0  0  0  0  0  0  0
    0.4341   21.1986  -37.0113 H   0  0  0  0  0  0  0  0  0  0  0  0
    1.8143   20.5834  -36.0309 H   0  0  0  0  0  0  0  0  0  0  0  0
   -0.6077   19.4657  -35.8302 H   0  0  0  0  0  0  0  0  0  0  0  0
    0.4347   19.7093  -34.3705 H   0  0  0  0  0  0  0  0  0  0  0  0
   -1.1440   21.9960  -34.9320 H   0  0  0  0  0  0  0  0  0  0  0  0
   -0.8272   20.0624  -32.7070 H   0  0  0  0  0  0  0  0  0  0  0  0
   -0.2651   21.7871  -32.8280 H   0  0  0  0  0  0  0  0  0  0  0  0
   -2.6669   20.7968  -31.6536 H   0  0  0  0  0  0  0  0  0  0  0  0
   -2.1206   22.5348  -31.9388 H   0  0  0  0  0  0  0  0  0  0  0  0
   -3.7150   22.8290  -33.3670 H   0  0  0  0  0  0  0  0  0  0  0  0
   -3.2300   21.6060  -34.2760 H   0  0  0  0  0  0  0  0  0  0  0  0
   -2.7670   19.4709  -33.9236 H   0  0  0  0  0  0  0  0  0  0  0  0
   -3.0296   17.1526  -34.7672 H   0  0  0  0  0  0  0  0  0  0  0  0
   -5.2710   16.0763  -34.7845 H   0  0  0  0  0  0  0  0  0  0  0  0
   -7.2310   17.2643  -33.8363 H   0  0  0  0  0  0  0  0  0  0  0  0
   -8.4809   18.8544  -31.2268 H   0  0  0  0  0  0  0  0  0  0  0  0
   -9.2877   19.4021  -32.7353 H   0  0  0  0  0  0  0  0  0  0  0  0
   -8.3119   17.8940  -32.7353 H   0  0  0  0  0  0  0  0  0  0  0  0
   -9.2630   21.2645  -32.0843 H   0  0  0  0  0  0  0  0  0  0  0  0
   -9.1320   23.6116  -31.3167 H   0  0  0  0  0  0  0  0  0  0  0  0
   -6.9317   24.7106  -31.0309 H   0  0  0  0  0  0  0  0  0  0  0  0
   -4.7137   23.5768  -29.4969 H   0  0  0  0  0  0  0  0  0  0  0  0
   -3.0721   23.2822  -30.1642 H   0  0  0  0  0  0  0  0  0  0  0  0
   -3.7570   24.9429  -30.1642 H   0  0  0  0  0  0  0  0  0  0  0  0
  1  2  1  0
  2  3  1  0
  3  4  1  0
  4  5  1  0
  3  6  1  0
  6  7  1  0
  7  8  1  0
  8  9  1  0
  9 10  1  0
 10 11  1  0
 11 12  1  0
 12 13  2  0
 13 14  1  0
 14 15  2  0
 15 16  1  0
 16 17  2  0
 17 18  1  0
 18 19  2  0
 19 20  1  0
 19 21  1  0
 21 22  2  0
 22 23  1  0
 23 24  2  0
 24 25  1  0
 25 26  1  0
 26 27  1  0
 25 28  2  0
 28 12  1  0
 18 13  1  0
 28 21  1  0
  1 29  1  0
  1 30  1  0
  1 31  1  0
  2 32  1  0
  2 33  1  0
  4 34  1  0
  4 35  1  0
  5 36  1  0
  5 37  1  0
  5 38  1  0
  6 39  1  0
  6 40  1  0
  7 41  1  0
  7 42  1  0
  8 43  1  0
  9 44  1  0
  9 45  1  0
 10 46  1  0
 10 47  1  0
 11 48  1  0
 11 49  1  0
 14 50  1  0
 15 51  1  0
 16 52  1  0
 17 53  1  0
 20 54  1  0
 20 55  1  0
 20 56  1  0
 22 57  1  0
 23 58  1  0
 24 59  1  0
 27 60  1  0
 27 61  1  0
 27 62  1  0
M  CHG  2  11   1  19   1
M  END
>  <UniqueID>  (2) 
2

>  <SMILES>  (2) 
CCN(CC)CCNCC[NH2+]c1c2ccccc2[n+](C)c2cccc(OC)c12

>  <Energy>  (2) 
101.80744479424372

>  <Genealogy>  (2) 
CCN(CC)CCNCC[NH2+]c1c2ccccc2[n+](C)c2cccc(OC)c12 (protonated)
CCN(CC)CCNCC[NH2+]c1c2ccccc2[n+](C)c2cccc(OC)c12 (3D coordinates assigned)
CCN(CC)CCNCC[NH2+]c1c2ccccc2[n+](C)c2cccc(OC)c12 (optimized conformer: 101.80744479424372 kcal/mol)

>  <smiles>  (2) 
CCN(CC)CCNCCNc1c2ccccc2[n+](C)c2cccc(OC)c12

>  <score_type>  (2) 
oracle

>  <origin>  (2) 
adg

>  <m_score__min__energy>  (2) 
-7.5199999999999996

>  <m_primary>  (2) 
energy

$$$$
2:0
     RDKit          3D

 76 78  0  0  0  0  0  0  0  0999 V2000
   -6.1280   17.3570  -31.1190 C   0  0  0  0  0  0  0  0  0  0  0  0
   -6.4420   17.4400  -32.6170 C   0  0  0  0  0  0  0  0  0  0  0  0
   -7.4410   18.4740  -33.0110 N   0  0  0  0  0  0  0  0  0  0  0  0
   -8.5350   18.7320  -32.0280 C   0  0  0  0  0  0  0  0  0  0  0  0
   -9.4400   19.9340  -32.3330 C   0  0  0  0  0  0  0  0  0  0  0  0
   -6.8880   19.6750  -33.7040 C   0  0  0  0  0  0  0  0  0  0  0  0
   -5.4030   19.9740  -33.4390 C   0  0  0  0  0  0  0  0  0  0  0  0
   -5.3040   21.1480  -32.6610 O   0  0  0  0  0  0  0  0  0  0  0  0
   -6.0860   21.0110  -31.4900 C   0  0  0  0  0  0  0  0  0  0  0  0
   -7.2250   22.0520  -31.4970 C   0  0  0  0  0  0  0  0  0  0  0  0
   -7.5620   22.5560  -30.0680 C   0  0  0  0  0  0  0  0  0  0  0  0
   -6.9210   23.9120  -29.7150 C   0  0  0  0  0  0  0  0  0  0  0  0
   -5.6590   24.1110  -30.4450 N   0  0  0  0  0  0  0  0  0  0  0  0
   -4.4310   24.5140  -29.7950 C   0  0  0  0  0  0  0  0  0  0  0  0
   -3.5620   25.1310  -30.4730 O   0  0  0  0  0  0  0  0  0  0  0  0
   -4.1330   24.1710  -28.3380 C   0  0  0  0  0  0  0  0  0  0  0  0
   -2.7580   24.6870  -27.8600 C   0  0  0  0  0  0  0  0  0  0  0  0
   -1.5760   23.8160  -28.3440 C   0  0  0  0  0  0  0  0  0  0  0  0
   -2.0130   22.7630  -29.2830 N   0  0  0  0  0  0  0  0  0  0  0  0
   -0.8620   22.0000  -29.8230 C   0  0  0  0  0  0  0  0  0  0  0  0
   -1.2050   21.4320  -31.1810 C   0  0  0  0  0  0  0  0  0  0  0  0
   -2.2890   21.9730  -31.8960 C   0  0  0  0  0  0  0  0  0  0  0  0
   -2.5800   21.5310  -33.1880 C   0  0  0  0  0  0  0  0  0  0  0  0
   -1.7820   20.5610  -33.7920 C   0  0  0  0  0  0  0  0  0  0  0  0
   -0.6950   20.0200  -33.1040 C   0  0  0  0  0  0  0  0  0  0  0  0
   -0.3930   20.4460  -31.7930 C   0  0  0  0  0  0  0  0  0  0  0  0
    0.6940   19.9120  -31.0780 O   0  0  0  0  0  0  0  0  0  0  0  0
    1.6330   18.9820  -31.6040 C   0  0  0  0  0  0  0  0  0  0  0  0
   -3.0060   21.8730  -28.6470 C   0  0  0  0  0  0  0  0  0  0  0  0
   -4.2140   22.6520  -28.0870 C   0  0  0  0  0  0  0  0  0  0  0  0
   -5.6850   24.0390  -31.9160 C   0  0  0  0  0  0  0  0  0  0  0  0
   -6.8950   23.2380  -32.4300 C   0  0  0  0  0  0  0  0  0  0  0  0
   -7.0328   17.5962  -30.5409 H   0  0  0  0  0  0  0  0  0  0  0  0
   -5.7925   16.3393  -30.8705 H   0  0  0  0  0  0  0  0  0  0  0  0
   -5.3334   18.0760  -30.8705 H   0  0  0  0  0  0  0  0  0  0  0  0
   -5.5033   17.6572  -33.1477 H   0  0  0  0  0  0  0  0  0  0  0  0
   -6.8909   16.4718  -32.8837 H   0  0  0  0  0  0  0  0  0  0  0  0
   -7.9580   17.9930  -33.7890 H   0  0  0  0  0  0  0  0  0  0  0  0
   -9.1694   17.8343  -31.9863 H   0  0  0  0  0  0  0  0  0  0  0  0
   -8.0326   18.9706  -31.0789 H   0  0  0  0  0  0  0  0  0  0  0  0
   -9.7801   20.3857  -31.3894 H   0  0  0  0  0  0  0  0  0  0  0  0
   -8.8767   20.6790  -32.9141 H   0  0  0  0  0  0  0  0  0  0  0  0
  -10.3117   19.5986  -32.9141 H   0  0  0  0  0  0  0  0  0  0  0  0
   -7.0151   19.5286  -34.7868 H   0  0  0  0  0  0  0  0  0  0  0  0
   -7.4431   20.5351  -33.3015 H   0  0  0  0  0  0  0  0  0  0  0  0
   -4.9481   19.1322  -32.8965 H   0  0  0  0  0  0  0  0  0  0  0  0
   -4.8752   20.1144  -34.3938 H   0  0  0  0  0  0  0  0  0  0  0  0
   -6.5163   19.9993  -31.4546 H   0  0  0  0  0  0  0  0  0  0  0  0
   -5.4500   21.1746  -30.6075 H   0  0  0  0  0  0  0  0  0  0  0  0
   -8.1188   21.5436  -31.8877 H   0  0  0  0  0  0  0  0  0  0  0  0
   -8.6542   22.6576  -29.9855 H   0  0  0  0  0  0  0  0  0  0  0  0
   -7.1514   21.8168  -29.3644 H   0  0  0  0  0  0  0  0  0  0  0  0
   -7.6199   24.7190  -29.9803 H   0  0  0  0  0  0  0  0  0  0  0  0
   -6.7048   23.9245  -28.6365 H   0  0  0  0  0  0  0  0  0  0  0  0
   -4.9100   24.6867  -27.7546 H   0  0  0  0  0  0  0  0  0  0  0  0
   -2.6172   25.7094  -28.2407 H   0  0  0  0  0  0  0  0  0  0  0  0
   -2.7606   24.6508  -26.7606 H   0  0  0  0  0  0  0  0  0  0  0  0
   -0.8431   24.4615  -28.8502 H   0  0  0  0  0  0  0  0  0  0  0  0
   -1.1333   23.3250  -27.4648 H   0  0  0  0  0  0  0  0  0  0  0  0
    0.0058   22.6693  -29.9175 H   0  0  0  0  0  0  0  0  0  0  0  0
   -0.6250   21.1734  -29.1370 H   0  0  0  0  0  0  0  0  0  0  0  0
   -2.9131   22.7515  -31.4329 H   0  0  0  0  0  0  0  0  0  0  0  0
   -3.4408   21.9492  -33.7303 H   0  0  0  0  0  0  0  0  0  0  0  0
   -2.0095   20.2211  -34.8132 H   0  0  0  0  0  0  0  0  0  0  0  0
   -0.0688   19.2556  -33.5873 H   0  0  0  0  0  0  0  0  0  0  0  0
    2.1475   18.4724  -30.7760 H   0  0  0  0  0  0  0  0  0  0  0  0
    1.1068   18.2391  -32.2214 H   0  0  0  0  0  0  0  0  0  0  0  0
    2.3708   19.5153  -32.2214 H   0  0  0  0  0  0  0  0  0  0  0  0
   -3.3659   21.1519  -29.3956 H   0  0  0  0  0  0  0  0  0  0  0  0
   -2.5130   21.3646  -27.8053 H   0  0  0  0  0  0  0  0  0  0  0  0
   -5.1279   22.2681  -28.5639 H   0  0  0  0  0  0  0  0  0  0  0  0
   -4.2195   22.5029  -26.9972 H   0  0  0  0  0  0  0  0  0  0  0  0
   -5.7365   25.0603  -32.3212 H   0  0  0  0  0  0  0  0  0  0  0  0
   -4.7704   23.5262  -32.2485 H   0  0  0  0  0  0  0  0  0  0  0  0
   -7.7684   23.9045  -32.4838 H   0  0  0  0  0  0  0  0  0  0  0  0
   -6.6472   22.8372  -33.4240 H   0  0  0  0  0  0  0  0  0  0  0  0
  1  2  1  0
  2  3  1  0
  3  4  1  0
  4  5  1  0
  3  6  1  0
  6  7  1  0
  7  8  1  0
  8  9  1  0
  9 10  1  0
 10 11  1  0
 11 12  1  0
 12 13  1  0
 13 14  1  0
 14 15  2  0
 14 16  1  0
 16 17  1  0
 17 18  1  0
 18 19  1  0
 19 20  1  0
 20 21  1  0
 21 22  2  0
 22 23  1  0
 23 24  2  0
 24 25  1  0
 25 26  2  0
 26 27  1  0
 27 28  1  0
 19 29  1  0
 29 30  1  0
 13 31  1  0
 31 32  1  0
 32 10  1  0
 30 16  1  0
 26 21  1  0
  1 33  1  0
  1 34  1  0
  1 35  1  0
  2 36  1  0
  2 37  1  0
  3 38  1  0
  4 39  1  0
  4 40  1  0
  5 41  1  0
  5 42  1  0
  5 43  1  0
  6 44  1  0
  6 45  1  0
  7 46  1  0
  7 47  1  0
  9 48  1  0
  9 49  1  0
 10 50  1  0
 11 51  1  0
 11 52  1  0
 12 53  1  0
 12 54  1  0
 16 55  1  0
 17 56  1  0
 17 57  1  0
 18 58  1  0
 18 59  1  0
 20 60  1  0
 20 61  1  0
 22 62  1  0
 23 63  1  0
 24 64  1  0
 25 65  1  0
 28 66  1  0
 28 67  1  0
 28 68  1  0
 29 69  1  0
 29 70  1  0
 30 71  1  0
 30 72  1  0
 31 73  1  0
 31 74  1  0
 32 75  1  0
 32 76  1  0
M  CHG  1   3   1
M  END
>  <UniqueID>  (3) 
3

>  <SMILES>  (3) 
CC[NH+](CC)CCOCC1CCN(C(=O)C2CCN(Cc3ccccc3OC)CC2)CC1

>  <Energy>  (3) 
97.55089315457707

>  <Genealogy>  (3) 
CC[NH+](CC)CCOCC1CCN(C(=O)C2CCN(Cc3ccccc3OC)CC2)CC1 (protonated)
CC[NH+](CC)CCOCC1CCN(C(=O)C2CCN(Cc3ccccc3OC)CC2)CC1 (3D coordinates assigned)
CC[NH+](CC)CCOCC1CCN(C(=O)C2CCN(Cc3ccccc3OC)CC2)CC1 (nonaromatic ring conformer: 97.55089315457707 kcal/mol)

>  <smiles>  (3) 
CCN(CC)CCOCC1CCN(C(=O)C2CCN(Cc3ccccc3OC)CC2)CC1

>  <score_type>  (3) 
oracle

>  <origin>  (3) 
adg

>  <m_score__min__energy>  (3) 
-8.7100000000000009

>  <m_primary>  (3) 
energy

$$$$
3:0
     RDKit          3D

 75 80  0  0  0  0  0  0  0  0999 V2000
   -6.0940   17.8730  -32.3760 C   0  0  0  0  0  0  0  0  0  0  0  0
   -6.1960   18.5290  -33.7490 C   0  0  0  0  0  0  0  0  0  0  0  0
   -6.4940   19.9190  -33.6190 O   0  0  0  0  0  0  0  0  0  0  0  0
   -7.5270   20.4670  -32.8400 C   0  0  0  0  0  0  0  0  0  0  0  0
   -8.8030   19.8700  -32.7610 C   0  0  0  0  0  0  0  0  0  0  0  0
   -9.8150   20.4630  -32.0020 C   0  0  0  0  0  0  0  0  0  0  0  0
   -9.5690   21.6500  -31.3120 C   0  0  0  0  0  0  0  0  0  0  0  0
   -8.3100   22.2480  -31.3760 C   0  0  0  0  0  0  0  0  0  0  0  0
   -7.2830   21.6620  -32.1350 C   0  0  0  0  0  0  0  0  0  0  0  0
   -5.9810   22.2740  -32.1580 N   0  0  0  0  0  0  0  0  0  0  0  0
   -5.8450   23.7260  -31.9970 C   0  0  0  0  0  0  0  0  0  0  0  0
   -4.9610   24.0310  -30.7810 C   0  0  0  0  0  0  0  0  0  0  0  0
   -3.7710   23.1610  -30.7300 N   0  0  0  0  0  0  0  0  0  0  0  0
   -2.8810   23.2860  -29.5940 C   0  0  0  0  0  0  0  0  0  0  0  0
   -3.0200   24.2730  -28.8170 O   0  0  0  0  0  0  0  0  0  0  0  0
   -1.8540   22.2240  -29.2460 C   0  0  0  0  0  0  0  0  0  0  0  0
   -0.8380   22.7130  -28.1870 C   0  0  0  0  0  0  0  0  0  0  0  0
    0.2590   21.6560  -27.9770 C   0  0  0  0  0  0  0  0  0  0  0  0
   -0.2960   20.2960  -28.0240 N   0  0  0  0  0  0  0  0  0  0  0  0
    0.5750   19.1880  -28.3080 C   0  0  0  0  0  0  0  0  0  0  0  0
    1.6560   18.9370  -27.5110 N   0  0  0  0  0  0  0  0  0  0  0  0
    2.5260   17.9130  -27.7820 C   0  0  0  0  0  0  0  0  0  0  0  0
    2.3390   17.1160  -28.8790 N   0  0  0  0  0  0  0  0  0  0  0  0
    1.2720   17.3700  -29.6790 C   0  0  0  0  0  0  0  0  0  0  0  0
    0.4020   18.3760  -29.4270 C   0  0  0  0  0  0  0  0  0  0  0  0
   -0.5100   18.4690  -30.4130 N   0  0  0  0  0  0  0  0  0  0  0  0
   -0.1520   17.4670  -31.2590 C   0  0  0  0  0  0  0  0  0  0  0  0
    0.9340   16.7630  -30.8300 N   0  0  0  0  0  0  0  0  0  0  0  0
    1.5910   15.6460  -31.5070 C   0  0  0  0  0  0  0  0  0  0  0  0
    0.6800   14.4080  -31.5390 C   0  0  0  0  0  0  0  0  0  0  0  0
   -0.7990   14.7110  -31.8540 C   0  0  0  0  0  0  0  0  0  0  0  0
   -0.9770   15.7290  -32.9960 C   0  0  0  0  0  0  0  0  0  0  0  0
   -0.9050   17.2070  -32.5410 C   0  0  0  0  0  0  0  0  0  0  0  0
   -1.7300   20.1020  -27.7780 C   0  0  0  0  0  0  0  0  0  0  0  0
   -2.5640   20.9240  -28.7750 C   0  0  0  0  0  0  0  0  0  0  0  0
   -3.5200   22.2380  -31.8530 C   0  0  0  0  0  0  0  0  0  0  0  0
   -4.7830   21.4210  -32.1490 C   0  0  0  0  0  0  0  0  0  0  0  0
   -6.2129   18.6379  -31.5944 H   0  0  0  0  0  0  0  0  0  0  0  0
   -6.8852   17.1160  -32.2716 H   0  0  0  0  0  0  0  0  0  0  0  0
   -5.1103   17.3920  -32.2716 H   0  0  0  0  0  0  0  0  0  0  0  0
   -5.2386   18.4121  -34.2779 H   0  0  0  0  0  0  0  0  0  0  0  0
   -7.0044   18.0437  -34.3156 H   0  0  0  0  0  0  0  0  0  0  0  0
   -9.0022   18.9321  -33.3002 H   0  0  0  0  0  0  0  0  0  0  0  0
  -10.8080   19.9928  -31.9484 H   0  0  0  0  0  0  0  0  0  0  0  0
  -10.3685   22.1152  -30.7167 H   0  0  0  0  0  0  0  0  0  0  0  0
   -8.1204   23.1834  -30.8292 H   0  0  0  0  0  0  0  0  0  0  0  0
   -5.3842   24.1524  -32.9002 H   0  0  0  0  0  0  0  0  0  0  0  0
   -6.8397   24.1703  -31.8448 H   0  0  0  0  0  0  0  0  0  0  0  0
   -4.6323   25.0793  -30.8351 H   0  0  0  0  0  0  0  0  0  0  0  0
   -5.5556   23.8464  -29.8742 H   0  0  0  0  0  0  0  0  0  0  0  0
   -1.2801   22.0079  -30.1592 H   0  0  0  0  0  0  0  0  0  0  0  0
   -0.3778   23.6512  -28.5307 H   0  0  0  0  0  0  0  0  0  0  0  0
   -1.3634   22.8796  -27.2350 H   0  0  0  0  0  0  0  0  0  0  0  0
    1.0155   21.7622  -28.7685 H   0  0  0  0  0  0  0  0  0  0  0  0
    0.7091   21.8140  -26.9858 H   0  0  0  0  0  0  0  0  0  0  0  0
    3.3802   17.7305  -27.1134 H   0  0  0  0  0  0  0  0  0  0  0  0
    3.0200   16.3530  -29.0880 H   0  0  0  0  0  0  0  0  0  0  0  0
    1.8318   15.9421  -32.5387 H   0  0  0  0  0  0  0  0  0  0  0  0
    2.5079   15.3921  -30.9548 H   0  0  0  0  0  0  0  0  0  0  0  0
    1.0614   13.7205  -32.3083 H   0  0  0  0  0  0  0  0  0  0  0  0
    0.7026   13.9764  -30.5275 H   0  0  0  0  0  0  0  0  0  0  0  0
   -1.2952   13.7723  -32.1413 H   0  0  0  0  0  0  0  0  0  0  0  0
   -1.2435   15.1516  -30.9494 H   0  0  0  0  0  0  0  0  0  0  0  0
   -0.1842   15.5571  -33.7389 H   0  0  0  0  0  0  0  0  0  0  0  0
   -1.9851   15.5720  -33.4071 H   0  0  0  0  0  0  0  0  0  0  0  0
   -0.4165   17.7824  -33.3412 H   0  0  0  0  0  0  0  0  0  0  0  0
   -1.9442   17.5077  -32.3416 H   0  0  0  0  0  0  0  0  0  0  0  0
   -1.9759   19.0360  -27.8929 H   0  0  0  0  0  0  0  0  0  0  0  0
   -1.9642   20.4375  -26.7569 H   0  0  0  0  0  0  0  0  0  0  0  0
   -2.7693   20.2993  -29.6568 H   0  0  0  0  0  0  0  0  0  0  0  0
   -3.4862   21.2260  -28.2570 H   0  0  0  0  0  0  0  0  0  0  0  0
   -3.2426   22.8171  -32.7461 H   0  0  0  0  0  0  0  0  0  0  0  0
   -2.7012   21.5545  -31.5840 H   0  0  0  0  0  0  0  0  0  0  0  0
   -4.6771   20.9415  -33.1333 H   0  0  0  0  0  0  0  0  0  0  0  0
   -4.9008   20.6651  -31.3586 H   0  0  0  0  0  0  0  0  0  0  0  0
  1  2  1  0
  2  3  1  0
  3  4  1  0
  4  5  2  0
  5  6  1  0
  6  7  2  0
  7  8  1  0
  8  9  2  0
  9 10  1  0
 10 11  1  0
 11 12  1  0
 12 13  1  0
 13 14  1  0
 14 15  2  0
 14 16  1  0
 16 17  1  0
 17 18  1  0
 18 19  1  0
 19 20  1  0
 20 21  2  0
 21 22  1  0
 22 23  2  0
 23 24  1  0
 24 25  2  0
 25 26  1  0
 26 27  2  0
 27 28  1  0
 28 29  1  0
 29 30  1  0
 30 31  1  0
 31 32  1  0
 32 33  1  0
 19 34  1  0
 34 35  1  0
 13 36  1  0
 36 37  1  0
  9  4  1  0
 37 10  1  0
 35 16  1  0
 25 20  1  0
 33 27  1  0
 28 24  1  0
  1 38  1  0
  1 39  1  0
  1 40  1  0
  2 41  1  0
  2 42  1  0
  5 43  1  0
  6 44  1  0
  7 45  1  0
  8 46  1  0
 11 47  1  0
 11 48  1  0
 12 49  1  0
 12 50  1  0
 16 51  1  0
 17 52  1  0
 17 53  1  0
 18 54  1  0
 18 55  1  0
 22 56  1  0
 23 57  1  0
 29 58  1  0
 29 59  1  0
 30 60  1  0
 30 61  1  0
 31 62  1  0
 31 63  1  0
 32 64  1  0
 32 65  1  0
 33 66  1  0
 33 67  1  0
 34 68  1  0
 34 69  1  0
 35 70  1  0
 35 71  1  0
 36 72  1  0
 36 73  1  0
 37 74  1  0
 37 75  1  0
M  CHG  1  23   1
M  END
>  <UniqueID>  (4) 
4

>  <SMILES>  (4) 
CCOc1ccccc1N1CCN(C(=O)C2CCN(c3nc[nH+]c4c3nc3n4CCCCC3)CC2)CC1

>  <Energy>  (4) 
135.89351829370992

>  <Genealogy>  (4) 
CCOc1ccccc1N1CCN(C(=O)C2CCN(c3nc[nH+]c4c3nc3n4CCCCC3)CC2)CC1 (protonated)
CCOc1ccccc1N1CCN(C(=O)C2CCN(c3nc[nH+]c4c3nc3n4CCCCC3)CC2)CC1 (3D coordinates assigned)
CCOc1ccccc1N1CCN(C(=O)C2CCN(c3nc[nH+]c4c3nc3n4CCCCC3)CC2)CC1 (nonaromatic ring conformer: 135.89351829370992 kcal/mol)

>  <smiles>  (4) 
CCOc1ccccc1N1CCN(C(=O)C2CCN(c3ncnc4c3nc3n4CCCCC3)CC2)CC1

>  <score_type>  (4) 
oracle

>  <origin>  (4) 
adg

>  <m_score__min__energy>  (4) 
-7.2300000000000004

>  <m_primary>  (4) 
energy

$$$$
4:0
     RDKit          3D

 71 73  0  0  0  0  0  0  0  0999 V2000
   -1.2140   28.2500  -34.6130 C   0  0  0  0  0  0  0  0  0  0  0  0
    0.0160   27.5930  -35.2380 C   0  0  0  0  0  0  0  0  0  0  0  0
   -0.3150   27.0270  -36.5650 N   0  0  0  0  0  0  0  0  0  0  0  0
   -1.5670   27.6080  -37.1020 C   0  0  0  0  0  0  0  0  0  0  0  0
   -1.5550   27.5660  -38.6260 C   0  0  0  0  0  0  0  0  0  0  0  0
   -0.3660   25.5450  -36.5390 C   0  0  0  0  0  0  0  0  0  0  0  0
    0.9890   24.9910  -36.1000 C   0  0  0  0  0  0  0  0  0  0  0  0
    1.2660   23.7920  -36.7940 O   0  0  0  0  0  0  0  0  0  0  0  0
    1.8370   22.8330  -35.9220 C   0  0  0  0  0  0  0  0  0  0  0  0
    0.8070   21.7670  -35.5630 C   0  0  0  0  0  0  0  0  0  0  0  0
   -0.0780   22.2950  -34.5970 O   0  0  0  0  0  0  0  0  0  0  0  0
   -0.5350   21.2790  -33.7260 C   0  0  0  0  0  0  0  0  0  0  0  0
   -2.0310   21.0300  -33.9460 C   0  0  0  0  0  0  0  0  0  0  0  0
   -2.6470   20.3980  -32.7770 N   0  0  0  0  0  0  0  0  0  0  0  0
   -4.0410   20.5530  -32.4570 C   0  0  0  0  0  0  0  0  0  0  0  0
   -4.9800   19.5820  -32.8510 C   0  0  0  0  0  0  0  0  0  0  0  0
   -4.5930   18.4770  -33.6400 C   0  0  0  0  0  0  0  0  0  0  0  0
   -5.5060   17.4740  -33.9550 C   0  0  0  0  0  0  0  0  0  0  0  0
   -6.8150   17.5540  -33.4960 C   0  0  0  0  0  0  0  0  0  0  0  0
   -7.2330   18.6640  -32.7620 C   0  0  0  0  0  0  0  0  0  0  0  0
   -6.3400   19.7260  -32.4690 C   0  0  0  0  0  0  0  0  0  0  0  0
   -6.7630   20.8770  -31.8290 N   0  0  0  0  0  0  0  0  0  0  0  0
   -8.2120   21.1660  -31.7100 C   0  0  0  0  0  0  0  0  0  0  0  0
   -5.8360   21.7850  -31.3470 C   0  0  0  0  0  0  0  0  0  0  0  0
   -6.2110   22.8490  -30.4900 C   0  0  0  0  0  0  0  0  0  0  0  0
   -5.2800   23.8120  -30.0640 C   0  0  0  0  0  0  0  0  0  0  0  0
   -5.6440   24.8920  -29.2410 O   0  0  0  0  0  0  0  0  0  0  0  0
   -6.8250   25.6720  -29.3990 C   0  0  0  0  0  0  0  0  0  0  0  0
   -3.9460   23.7110  -30.4650 C   0  0  0  0  0  0  0  0  0  0  0  0
   -3.0460   24.6980  -30.0330 O   0  0  0  0  0  0  0  0  0  0  0  0
   -2.2300   24.5960  -28.8690 C   0  0  0  0  0  0  0  0  0  0  0  0
   -3.5450   22.6360  -31.2710 C   0  0  0  0  0  0  0  0  0  0  0  0
   -4.4680   21.6580  -31.6980 C   0  0  0  0  0  0  0  0  0  0  0  0
   -1.1350   28.2078  -33.5167 H   0  0  0  0  0  0  0  0  0  0  0  0
   -1.2730   29.2998  -34.9362 H   0  0  0  0  0  0  0  0  0  0  0  0
   -2.1194   27.7154  -34.9362 H   0  0  0  0  0  0  0  0  0  0  0  0
    0.8091   28.3464  -35.3537 H   0  0  0  0  0  0  0  0  0  0  0  0
    0.3573   26.7801  -34.5802 H   0  0  0  0  0  0  0  0  0  0  0  0
   -2.4252   27.0296  -36.7292 H   0  0  0  0  0  0  0  0  0  0  0  0
   -1.6478   28.6543  -36.7722 H   0  0  0  0  0  0  0  0  0  0  0  0
   -1.2673   26.5591  -38.9628 H   0  0  0  0  0  0  0  0  0  0  0  0
   -2.5581   27.8075  -39.0074 H   0  0  0  0  0  0  0  0  0  0  0  0
   -0.8309   28.3010  -39.0074 H   0  0  0  0  0  0  0  0  0  0  0  0
   -1.1416   25.2181  -35.8308 H   0  0  0  0  0  0  0  0  0  0  0  0
   -0.6039   25.1708  -37.5457 H   0  0  0  0  0  0  0  0  0  0  0  0
    1.7738   25.7296  -36.3204 H   0  0  0  0  0  0  0  0  0  0  0  0
    0.9637   24.7865  -35.0195 H   0  0  0  0  0  0  0  0  0  0  0  0
    2.6952   22.3563  -36.4183 H   0  0  0  0  0  0  0  0  0  0  0  0
    2.1672   23.3369  -35.0017 H   0  0  0  0  0  0  0  0  0  0  0  0
    0.2433   21.4799  -36.4629 H   0  0  0  0  0  0  0  0  0  0  0  0
    1.3144   20.8787  -35.1586 H   0  0  0  0  0  0  0  0  0  0  0  0
    0.0214   20.3513  -33.9256 H   0  0  0  0  0  0  0  0  0  0  0  0
   -0.3722   21.5968  -32.6856 H   0  0  0  0  0  0  0  0  0  0  0  0
   -2.5293   21.9919  -34.1365 H   0  0  0  0  0  0  0  0  0  0  0  0
   -2.1457   20.3529  -34.8053 H   0  0  0  0  0  0  0  0  0  0  0  0
   -2.0800   19.7220  -32.2180 H   0  0  0  0  0  0  0  0  0  0  0  0
   -3.5593   18.4077  -34.0098 H   0  0  0  0  0  0  0  0  0  0  0  0
   -5.1905   16.6170  -34.5682 H   0  0  0  0  0  0  0  0  0  0  0  0
   -7.5231   16.7404  -33.7119 H   0  0  0  0  0  0  0  0  0  0  0  0
   -8.2720   18.7165  -32.4047 H   0  0  0  0  0  0  0  0  0  0  0  0
   -8.4888   21.2212  -30.6468 H   0  0  0  0  0  0  0  0  0  0  0  0
   -8.4356   22.1264  -32.1974 H   0  0  0  0  0  0  0  0  0  0  0  0
   -8.7869   20.3648  -32.1974 H   0  0  0  0  0  0  0  0  0  0  0  0
   -7.2546   22.9232  -30.1502 H   0  0  0  0  0  0  0  0  0  0  0  0
   -7.2251   25.9362  -28.4090 H   0  0  0  0  0  0  0  0  0  0  0  0
   -6.5861   26.5906  -29.9550 H   0  0  0  0  0  0  0  0  0  0  0  0
   -7.5760   25.0917  -29.9550 H   0  0  0  0  0  0  0  0  0  0  0  0
   -2.8606   24.6748  -27.9711 H   0  0  0  0  0  0  0  0  0  0  0  0
   -1.7112   23.6260  -28.8687 H   0  0  0  0  0  0  0  0  0  0  0  0
   -1.4884   25.4084  -28.8687 H   0  0  0  0  0  0  0  0  0  0  0  0
   -2.4914   22.5536  -31.5760 H   0  0  0  0  0  0  0  0  0  0  0  0
  1  2  1  0
  2  3  1  0
  3  4  1  0
  4  5  1  0
  3  6  1  0
  6  7  1  0
  7  8  1  0
  8  9  1  0
  9 10  1  0
 10 11  1  0
 11 12  1  0
 12 13  1  0
 13 14  1  0
 14 15  1  0
 15 16  2  0
 16 17  1  0
 17 18  2  0
 18 19  1  0
 19 20  2  0
 20 21  1  0
 21 22  2  0
 22 23  1  0
 22 24  1  0
 24 25  2  0
 25 26  1  0
 26 27  1  0
 27 28  1  0
 26 29  2  0
 29 30  1  0
 30 31  1  0
 29 32  1  0
 32 33  2  0
 33 15  1  0
 21 16  1  0
 33 24  1  0
  1 34  1  0
  1 35  1  0
  1 36  1  0
  2 37  1  0
  2 38  1  0
  4 39  1  0
  4 40  1  0
  5 41  1  0
  5 42  1  0
  5 43  1  0
  6 44  1  0
  6 45  1  0
  7 46  1  0
  7 47  1  0
  9 48  1  0
  9 49  1  0
 10 50  1  0
 10 51  1  0
 12 52  1  0
 12 53  1  0
 13 54  1  0
 13 55  1  0
 14 56  1  0
 17 57  1  0
 18 58  1  0
 19 59  1  0
 20 60  1  0
 23 61  1  0
 23 62  1  0
 23 63  1  0
 25 64  1  0
 28 65  1  0
 28 66  1  0
 28 67  1  0
 31 68  1  0
 31 69  1  0
 31 70  1  0
 32 71  1  0
M  CHG  1  22   1
M  END
>  <UniqueID>  (5) 
5

>  <SMILES>  (5) 
CCN(CC)CCOCCOCCNc1c2ccccc2[n+](C)c2cc(OC)c(OC)cc12

>  <Energy>  (5) 
95.61409000460436

>  <Genealogy>  (5) 
CCN(CC)CCOCCOCCNc1c2ccccc2[n+](C)c2cc(OC)c(OC)cc12 (3D coordinates assigned)
CCN(CC)CCOCCOCCNc1c2ccccc2[n+](C)c2cc(OC)c(OC)cc12 (optimized conformer: 95.61409000460436 kcal/mol)

>  <smiles>  (5) 
CCN(CC)CCOCCOCCNc1c2ccccc2[n+](C)c2cc(OC)c(OC)cc12

>  <score_type>  (5) 
oracle

>  <origin>  (5) 
adg

>  <m_score__min__energy>  (5) 
-9.2100000000000009

>  <m_primary>  (5) 
energy

$$$$
5:0
     RDKit          3D

 54 56  0  0  0  0  0  0  0  0999 V2000
   -1.8480   24.8660  -27.6510 C   0  0  0  0  0  0  0  0  0  0  0  0
   -2.7960   23.7590  -27.8720 N   0  0  0  0  0  0  0  0  0  0  0  0
   -4.1530   24.1370  -27.4370 C   0  0  0  0  0  0  0  0  0  0  0  0
   -2.3390   22.4740  -27.2810 C   0  0  0  0  0  0  0  0  0  0  0  0
   -1.4930   21.5780  -28.2110 C   0  0  0  0  0  0  0  0  0  0  0  0
   -1.8740   21.7750  -29.6200 N   0  0  0  0  0  0  0  0  0  0  0  0
   -0.7180   22.1680  -30.4410 C   0  0  0  0  0  0  0  0  0  0  0  0
   -0.5280   21.1570  -31.5850 C   0  0  0  0  0  0  0  0  0  0  0  0
   -1.3980   19.9750  -31.4750 N   0  0  0  0  0  0  0  0  0  0  0  0
   -2.0100   19.5440  -32.7450 C   0  0  0  0  0  0  0  0  0  0  0  0
   -3.4450   20.0720  -32.9170 C   0  0  0  0  0  0  0  0  0  0  0  0
   -3.9140   20.7100  -31.6890 N   0  0  0  0  0  0  0  0  0  0  0  0
   -4.9390   21.7140  -31.6660 C   0  0  0  0  0  0  0  0  0  0  0  0
   -4.7480   23.0210  -31.2490 C   0  0  0  0  0  0  0  0  0  0  0  0
   -3.6070   23.7150  -30.8620 C   0  0  0  0  0  0  0  0  0  0  0  0
   -3.7450   25.0140  -30.4620 N   0  0  0  0  0  0  0  0  0  0  0  0
   -4.9560   25.6560  -30.4170 C   0  0  0  0  0  0  0  0  0  0  0  0
   -6.1430   24.9960  -30.7850 C   0  0  0  0  0  0  0  0  0  0  0  0
   -6.0290   23.6780  -31.2080 C   0  0  0  0  0  0  0  0  0  0  0  0
   -6.9710   22.7420  -31.5760 C   0  0  0  0  0  0  0  0  0  0  0  0
   -8.3600   22.8530  -31.6210 C   0  0  0  0  0  0  0  0  0  0  0  0
   -9.1060   21.7100  -31.9450 C   0  0  0  0  0  0  0  0  0  0  0  0
   -8.4580   20.4850  -32.2030 C   0  0  0  0  0  0  0  0  0  0  0  0
   -7.0570   20.3900  -32.1480 C   0  0  0  0  0  0  0  0  0  0  0  0
   -6.3190   21.5420  -31.8480 C   0  0  0  0  0  0  0  0  0  0  0  0
   -1.7133   25.0233  -26.5707 H   0  0  0  0  0  0  0  0  0  0  0  0
   -0.8794   24.6162  -28.1087 H   0  0  0  0  0  0  0  0  0  0  0  0
   -2.2438   25.7846  -28.1087 H   0  0  0  0  0  0  0  0  0  0  0  0
   -2.8460   23.6080  -28.9070 H   0  0  0  0  0  0  0  0  0  0  0  0
   -4.1957   24.1489  -26.3379 H   0  0  0  0  0  0  0  0  0  0  0  0
   -4.3969   25.1373  -27.8243 H   0  0  0  0  0  0  0  0  0  0  0  0
   -4.8789   23.4069  -27.8243 H   0  0  0  0  0  0  0  0  0  0  0  0
   -1.7342   22.7060  -26.3919 H   0  0  0  0  0  0  0  0  0  0  0  0
   -3.2521   21.9020  -27.0594 H   0  0  0  0  0  0  0  0  0  0  0  0
   -0.4300   21.8320  -28.0865 H   0  0  0  0  0  0  0  0  0  0  0  0
   -1.6708   20.5261  -27.9427 H   0  0  0  0  0  0  0  0  0  0  0  0
   -2.2340   20.8610  -29.9830 H   0  0  0  0  0  0  0  0  0  0  0  0
   -0.8921   23.1690  -30.8626 H   0  0  0  0  0  0  0  0  0  0  0  0
    0.1859   22.1837  -29.8143 H   0  0  0  0  0  0  0  0  0  0  0  0
   -0.7471   21.6631  -32.5368 H   0  0  0  0  0  0  0  0  0  0  0  0
    0.5110   20.7998  -31.5316 H   0  0  0  0  0  0  0  0  0  0  0  0
   -0.8390   19.1780  -31.0880 H   0  0  0  0  0  0  0  0  0  0  0  0
   -1.3949   19.9167  -33.5773 H   0  0  0  0  0  0  0  0  0  0  0  0
   -2.0571   18.4450  -32.7372 H   0  0  0  0  0  0  0  0  0  0  0  0
   -3.4631   20.8073  -33.7350 H   0  0  0  0  0  0  0  0  0  0  0  0
   -4.1069   19.2246  -33.1490 H   0  0  0  0  0  0  0  0  0  0  0  0
   -3.2700   20.6700  -30.8670 H   0  0  0  0  0  0  0  0  0  0  0  0
   -2.6194   23.2309  -30.8775 H   0  0  0  0  0  0  0  0  0  0  0  0
   -5.0002   26.7046  -30.0877 H   0  0  0  0  0  0  0  0  0  0  0  0
   -7.1187   25.5019  -30.7396 H   0  0  0  0  0  0  0  0  0  0  0  0
   -8.8574   23.8108  -31.4082 H   0  0  0  0  0  0  0  0  0  0  0  0
  -10.2031   21.7700  -31.9980 H   0  0  0  0  0  0  0  0  0  0  0  0
   -9.0549   19.5946  -32.4498 H   0  0  0  0  0  0  0  0  0  0  0  0
   -6.5509   19.4317  -32.3365 H   0  0  0  0  0  0  0  0  0  0  0  0
  1  2  1  0
  2  3  1  0
  2  4  1  0
  4  5  1  0
  5  6  1  0
  6  7  1  0
  7  8  1  0
  8  9  1  0
  9 10  1  0
 10 11  1  0
 11 12  1  0
 12 13  1  0
 13 14  1  0
 14 15  2  0
 15 16  1  0
 16 17  1  0
 17 18  2  0
 18 19  1  0
 19 20  2  0
 20 21  1  0
 21 22  2  0
 22 23  1  0
 23 24  2  0
 24 25  1  0
 25 13  2  0
 19 14  1  0
 25 20  1  0
  1 26  1  0
  1 27  1  0
  1 28  1  0
  2 29  1  0
  3 30  1  0
  3 31  1  0
  3 32  1  0
  4 33  1  0
  4 34  1  0
  5 35  1  0
  5 36  1  0
  6 37  1  0
  7 38  1  0
  7 39  1  0
  8 40  1  0
  8 41  1  0
  9 42  1  0
 10 43  1  0
 10 44  1  0
 11 45  1  0
 11 46  1  0
 12 47  1  0
 15 48  1  0
 17 49  1  0
 18 50  1  0
 21 51  1  0
 22 52  1  0
 23 53  1  0
 24 54  1  0
M  CHG  2   2   1  16  -1
M  END
>  <UniqueID>  (6) 
6

>  <SMILES>  (6) 
C[NH+](C)CCNCCNCCNc1c2c[n-]ccc-2c2ccccc12

>  <Energy>  (6) 
93.8857100439521

>  <Genealogy>  (6) 
C[NH+](C)CCNCCNCCNc1c2c[n-]ccc-2c2ccccc12 (protonated)
C[NH+](C)CCNCCNCCNc1c2c[n-]ccc-2c2ccccc12 (3D coordinates assigned)
C[NH+](C)CCNCCNCCNc1c2c[n-]ccc-2c2ccccc12 (optimized conformer: 93.8857100439521 kcal/mol)

>  <smiles>  (6) 
CN(C)CCNCCNCCNc1c2c[nH]ccc-2c2ccccc12

>  <score_type>  (6) 
oracle

>  <origin>  (6) 
adg

>  <m_score__min__energy>  (6) 
-8.1500000000000004

>  <m_primary>  (6) 
energy

$$$$
6:0
     RDKit          3D

 57 60  0  0  0  0  0  0  0  0999 V2000
   -6.9520   17.0050  -33.2110 C   0  0  0  0  0  0  0  0  0  0  0  0
   -7.3970   18.3700  -32.7740 C   0  0  0  0  0  0  0  0  0  0  0  0
   -8.7080   18.5980  -32.3140 C   0  0  0  0  0  0  0  0  0  0  0  0
   -9.1000   19.8780  -31.8890 C   0  0  0  0  0  0  0  0  0  0  0  0
   -8.1820   20.9350  -31.9350 C   0  0  0  0  0  0  0  0  0  0  0  0
   -6.9300   20.6900  -32.4110 N   0  0  0  0  0  0  0  0  0  0  0  0
   -5.8580   21.5060  -32.5450 C   0  0  0  0  0  0  0  0  0  0  0  0
   -5.8610   22.9960  -32.2540 C   0  0  0  0  0  0  0  0  0  0  0  0
   -5.8510   23.3400  -30.8120 N   0  0  0  0  0  0  0  0  0  0  0  0
   -4.6140   23.0050  -30.0810 C   0  0  0  0  0  0  0  0  0  0  0  0
   -3.7370   24.2400  -29.8070 C   0  0  0  0  0  0  0  0  0  0  0  0
   -4.0260   25.2780  -30.7190 O   0  0  0  0  0  0  0  0  0  0  0  0
   -5.3260   25.7760  -30.4710 C   0  0  0  0  0  0  0  0  0  0  0  0
   -6.4010   24.6650  -30.4620 C   0  0  0  0  0  0  0  0  0  0  0  0
   -4.7910   20.7120  -32.9940 C   0  0  0  0  0  0  0  0  0  0  0  0
   -3.3730   21.0910  -33.1710 C   0  0  0  0  0  0  0  0  0  0  0  0
   -2.8850   22.0510  -32.5240 O   0  0  0  0  0  0  0  0  0  0  0  0
   -2.5050   20.2990  -33.9880 N   0  0  0  0  0  0  0  0  0  0  0  0
   -1.3200   19.6160  -33.4750 C   0  0  0  0  0  0  0  0  0  0  0  0
   -1.7020   18.3340  -32.7280 C   0  0  0  0  0  0  0  0  0  0  0  0
   -1.5270   17.1400  -33.5880 N   0  0  0  0  0  0  0  0  0  0  0  0
   -2.2070   15.9580  -33.0230 C   0  0  0  0  0  0  0  0  0  0  0  0
   -3.7480   16.0910  -33.0990 C   0  0  0  0  0  0  0  0  0  0  0  0
   -4.1750   17.1230  -33.9730 O   0  0  0  0  0  0  0  0  0  0  0  0
   -3.4690   17.0530  -35.1930 C   0  0  0  0  0  0  0  0  0  0  0  0
   -1.9690   17.3630  -34.9860 C   0  0  0  0  0  0  0  0  0  0  0  0
   -5.2270   19.4430  -33.1470 N   0  0  0  0  0  0  0  0  0  0  0  0
   -6.5250   19.4660  -32.7960 C   0  0  0  0  0  0  0  0  0  0  0  0
   -6.7497   16.3844  -32.3256 H   0  0  0  0  0  0  0  0  0  0  0  0
   -7.7440   16.5367  -33.8138 H   0  0  0  0  0  0  0  0  0  0  0  0
   -6.0362   17.0934  -33.8138 H   0  0  0  0  0  0  0  0  0  0  0  0
   -9.4298   17.7684  -32.2873 H   0  0  0  0  0  0  0  0  0  0  0  0
  -10.1227   20.0495  -31.5219 H   0  0  0  0  0  0  0  0  0  0  0  0
   -8.4664   21.9414  -31.5939 H   0  0  0  0  0  0  0  0  0  0  0  0
   -4.9680   23.4389  -32.7192 H   0  0  0  0  0  0  0  0  0  0  0  0
   -6.8011   23.3933  -32.6643 H   0  0  0  0  0  0  0  0  0  0  0  0
   -4.8862   22.5456  -29.1193 H   0  0  0  0  0  0  0  0  0  0  0  0
   -4.0316   22.3149  -30.7092 H   0  0  0  0  0  0  0  0  0  0  0  0
   -3.9274   24.5966  -28.7840 H   0  0  0  0  0  0  0  0  0  0  0  0
   -2.6815   23.9535  -29.9250 H   0  0  0  0  0  0  0  0  0  0  0  0
   -5.3297   26.2767  -29.4916 H   0  0  0  0  0  0  0  0  0  0  0  0
   -5.5753   26.4718  -31.2857 H   0  0  0  0  0  0  0  0  0  0  0  0
   -6.8414   24.6090  -29.4556 H   0  0  0  0  0  0  0  0  0  0  0  0
   -7.1543   24.9241  -31.2206 H   0  0  0  0  0  0  0  0  0  0  0  0
   -0.6612   19.3582  -34.3173 H   0  0  0  0  0  0  0  0  0  0  0  0
   -0.8054   20.2889  -32.7733 H   0  0  0  0  0  0  0  0  0  0  0  0
   -1.0622   18.2326  -31.8389 H   0  0  0  0  0  0  0  0  0  0  0  0
   -2.7610   18.4022  -32.4382 H   0  0  0  0  0  0  0  0  0  0  0  0
   -1.8982   15.0658  -33.5874 H   0  0  0  0  0  0  0  0  0  0  0  0
   -1.9226   15.8733  -31.9638 H   0  0  0  0  0  0  0  0  0  0  0  0
   -4.1646   15.1369  -33.4541 H   0  0  0  0  0  0  0  0  0  0  0  0
   -4.1052   16.3466  -32.0905 H   0  0  0  0  0  0  0  0  0  0  0  0
   -3.5724   16.0405  -35.6104 H   0  0  0  0  0  0  0  0  0  0  0  0
   -3.8884   17.8001  -35.8829 H   0  0  0  0  0  0  0  0  0  0  0  0
   -1.3802   16.7125  -35.6494 H   0  0  0  0  0  0  0  0  0  0  0  0
   -1.8141   18.4270  -35.2181 H   0  0  0  0  0  0  0  0  0  0  0  0
   -4.6600   18.6060  -33.4060 H   0  0  0  0  0  0  0  0  0  0  0  0
  1  2  1  0
  2  3  2  0
  3  4  1  0
  4  5  2  0
  5  6  1  0
  6  7  1  0
  7  8  1  0
  8  9  1  0
  9 10  1  0
 10 11  1  0
 11 12  1  0
 12 13  1  0
 13 14  1  0
  7 15  2  0
 15 16  1  0
 16 17  2  0
 16 18  1  0
 18 19  1  0
 19 20  1  0
 20 21  1  0
 21 22  1  0
 22 23  1  0
 23 24  1  0
 24 25  1  0
 25 26  1  0
 15 27  1  0
 27 28  2  0
 28  2  1  0
 28  6  1  0
 14  9  1  0
 26 21  1  0
  1 29  1  0
  1 30  1  0
  1 31  1  0
  3 32  1  0
  4 33  1  0
  5 34  1  0
  8 35  1  0
  8 36  1  0
 10 37  1  0
 10 38  1  0
 11 39  1  0
 11 40  1  0
 13 41  1  0
 13 42  1  0
 14 43  1  0
 14 44  1  0
 19 45  1  0
 19 46  1  0
 20 47  1  0
 20 48  1  0
 22 49  1  0
 22 50  1  0
 23 51  1  0
 23 52  1  0
 25 53  1  0
 25 54  1  0
 26 55  1  0
 26 56  1  0
 27 57  1  0
M  CHG  2  18  -1  27   1
M  END
>  <UniqueID>  (7) 
7

>  <SMILES>  (7) 
Cc1cccn2c(CN3CCOCC3)c(C(=O)[N-]CCN3CCOCC3)[nH+]c12

>  <Energy>  (7) 
125.4514157672824

>  <Genealogy>  (7) 
Cc1cccn2c(CN3CCOCC3)c(C(=O)[N-]CCN3CCOCC3)[nH+]c12 (protonated)
Cc1cccn2c(CN3CCOCC3)c(C(=O)[N-]CCN3CCOCC3)[nH+]c12 (3D coordinates assigned)
Cc1cccn2c(CN3CCOCC3)c(C(=O)[N-]CCN3CCOCC3)[nH+]c12 (nonaromatic ring conformer: 125.4514157672824 kcal/mol)

>  <smiles>  (7) 
Cc1cccn2c(CN3CCOCC3)c(C(=O)NCCN3CCOCC3)nc12

>  <score_type>  (7) 
oracle

>  <origin>  (7) 
adg

>  <m_score__min__energy>  (7) 
-9.2400000000000002

>  <m_primary>  (7) 
energy

$$$$
7:0
     RDKit          3D

 50 53  0  0  0  0  0  0  0  0999 V2000
   -1.8720   16.0400  -35.3400 C   0  0  0  0  0  0  0  0  0  0  0  0
   -3.2770   15.9440  -35.5430 O   0  0  0  0  0  0  0  0  0  0  0  0
   -4.2430   16.4640  -34.6700 C   0  0  0  0  0  0  0  0  0  0  0  0
   -4.4050   15.9940  -33.3560 C   0  0  0  0  0  0  0  0  0  0  0  0
   -5.3760   16.5550  -32.5210 C   0  0  0  0  0  0  0  0  0  0  0  0
   -6.1860   17.6090  -32.9780 C   0  0  0  0  0  0  0  0  0  0  0  0
   -7.1900   18.2790  -32.0610 C   0  0  0  0  0  0  0  0  0  0  0  0
   -7.6720   19.6800  -32.5530 C   0  0  1  0  0  0  0  0  0  0  0  0
   -9.1500   19.7980  -32.3830 N   0  0  0  0  0  0  0  0  0  0  0  0
   -9.6510   21.1830  -32.3390 C   0  0  0  0  0  0  0  0  0  0  0  0
   -9.0740   21.9410  -31.1350 C   0  0  0  0  0  0  0  0  0  0  0  0
   -7.5900   21.8110  -31.1710 C   0  0  0  0  0  0  0  0  0  0  0  0
   -6.9280   20.8230  -31.8760 C   0  0  0  0  0  0  0  0  0  0  0  0
   -5.5980   21.1080  -31.9510 N   0  0  0  0  0  0  0  0  0  0  0  0
   -4.5910   20.5060  -32.8270 C   0  0  0  0  0  0  0  0  0  0  0  0
   -5.4290   22.2420  -31.2280 C   0  0  0  0  0  0  0  0  0  0  0  0
   -4.2460   22.9580  -31.0210 C   0  0  0  0  0  0  0  0  0  0  0  0
   -4.3100   24.1580  -30.2670 C   0  0  0  0  0  0  0  0  0  0  0  0
   -3.1710   24.9280  -29.9910 O   0  0  0  0  0  0  0  0  0  0  0  0
   -2.1960   24.5950  -29.0110 C   0  0  0  0  0  0  0  0  0  0  0  0
   -5.5560   24.6080  -29.7730 C   0  0  0  0  0  0  0  0  0  0  0  0
   -6.7330   23.8810  -30.0170 C   0  0  0  0  0  0  0  0  0  0  0  0
   -6.6290   22.6940  -30.7370 C   0  0  0  0  0  0  0  0  0  0  0  0
   -6.0350   18.0550  -34.3010 C   0  0  0  0  0  0  0  0  0  0  0  0
   -5.0720   17.4880  -35.1370 C   0  0  0  0  0  0  0  0  0  0  0  0
   -1.6576   16.0547  -34.2612 H   0  0  0  0  0  0  0  0  0  0  0  0
   -1.3749   15.1737  -35.8009 H   0  0  0  0  0  0  0  0  0  0  0  0
   -1.4973   16.9658  -35.8009 H   0  0  0  0  0  0  0  0  0  0  0  0
   -3.7651   15.1810  -32.9825 H   0  0  0  0  0  0  0  0  0  0  0  0
   -5.5070   16.1689  -31.4994 H   0  0  0  0  0  0  0  0  0  0  0  0
   -8.0687   17.6231  -31.9739 H   0  0  0  0  0  0  0  0  0  0  0  0
   -6.6808   18.4401  -31.0994 H   0  0  0  0  0  0  0  0  0  0  0  0
   -7.4355   19.7629  -33.6241 H   0  0  0  0  0  0  0  0  0  0  0  0
   -9.6150   19.3110  -33.1850 H   0  0  0  0  0  0  0  0  0  0  0  0
   -9.4700   19.3220  -31.5120 H   0  0  0  0  0  0  0  0  0  0  0  0
   -9.3574   21.7009  -33.2640 H   0  0  0  0  0  0  0  0  0  0  0  0
  -10.7464   21.1556  -32.2426 H   0  0  0  0  0  0  0  0  0  0  0  0
   -9.3564   23.0026  -31.1931 H   0  0  0  0  0  0  0  0  0  0  0  0
   -9.4695   21.5229  -30.1976 H   0  0  0  0  0  0  0  0  0  0  0  0
   -3.8063   20.0369  -32.2154 H   0  0  0  0  0  0  0  0  0  0  0  0
   -5.0660   19.7435  -33.4619 H   0  0  0  0  0  0  0  0  0  0  0  0
   -4.1443   21.2853  -33.4619 H   0  0  0  0  0  0  0  0  0  0  0  0
   -3.2905   22.6001  -31.4321 H   0  0  0  0  0  0  0  0  0  0  0  0
   -2.6210   24.7401  -28.0068 H   0  0  0  0  0  0  0  0  0  0  0  0
   -1.8967   23.5437  -29.1340 H   0  0  0  0  0  0  0  0  0  0  0  0
   -1.3161   25.2436  -29.1340 H   0  0  0  0  0  0  0  0  0  0  0  0
   -5.6044   25.5395  -29.1900 H   0  0  0  0  0  0  0  0  0  0  0  0
   -7.7066   24.2385  -29.6505 H   0  0  0  0  0  0  0  0  0  0  0  0
   -6.6819   18.8589  -34.6820 H   0  0  0  0  0  0  0  0  0  0  0  0
   -4.9646   17.8494  -36.1704 H   0  0  0  0  0  0  0  0  0  0  0  0
  1  2  1  0
  2  3  1  0
  3  4  2  0
  4  5  1  0
  5  6  2  0
  6  7  1  0
  7  8  1  0
  8  9  1  0
  9 10  1  0
 10 11  1  0
 11 12  1  0
 12 13  2  0
 13 14  1  0
 14 15  1  0
 14 16  1  0
 16 17  2  0
 17 18  1  0
 18 19  1  0
 19 20  1  0
 18 21  2  0
 21 22  1  0
 22 23  2  0
  6 24  1  0
 24 25  2  0
 25  3  1  0
 13  8  1  0
 23 16  1  0
 23 12  1  0
  1 26  1  0
  1 27  1  0
  1 28  1  0
  4 29  1  0
  5 30  1  0
  7 31  1  0
  7 32  1  0
  8 33  1  6
  9 34  1  0
  9 35  1  0
 10 36  1  0
 10 37  1  0
 11 38  1  0
 11 39  1  0
 15 40  1  0
 15 41  1  0
 15 42  1  0
 17 43  1  0
 20 44  1  0
 20 45  1  0
 20 46  1  0
 21 47  1  0
 22 48  1  0
 24 49  1  0
 25 50  1  0
M  CHG  1   9   1
M  END
>  <UniqueID>  (8) 
8

>  <SMILES>  (8) 
COc1ccc(C[C@H]2[NH2+]CCc3c2n(C)c2cc(OC)ccc32)cc1

>  <Energy>  (8) 
93.51486191242414

>  <Genealogy>  (8) 
COc1ccc(CC2[NH2+]CCc3c2n(C)c2cc(OC)ccc32)cc1 (protonated)
COc1ccc(C[C@H]2[NH2+]CCc3c2n(C)c2cc(OC)ccc32)cc1 (chirality)
COc1ccc(C[C@H]2[NH2+]CCc3c2n(C)c2cc(OC)ccc32)cc1 (3D coordinates assigned)
COc1ccc(C[C@H]2[NH2+]CCc3c2n(C)c2cc(OC)ccc32)cc1 (nonaromatic ring conformer: 93.51486191242414 kcal/mol)

>  <smiles>  (8) 
COc1ccc(CC2NCCc3c2n(C)c2cc(OC)ccc32)cc1

>  <score_type>  (8) 
oracle

>  <origin>  (8) 
adg

>  <m_score__min__energy>  (8) 
-8.3699999999999992

>  <m_primary>  (8) 
energy

$$$$
8:0
     RDKit          3D

 41 42  0  0  0  0  0  0  0  0999 V2000
   -1.3210   21.1960  -32.3530 C   0  0  0  0  0  0  0  0  0  0  0  0
   -2.7400   21.7320  -32.5280 C   0  0  0  0  0  0  0  0  0  0  0  0
   -3.3050   21.3090  -33.8180 N   0  0  0  0  0  0  0  0  0  0  0  0
   -3.5670   19.8620  -33.8180 C   0  0  0  0  0  0  0  0  0  0  0  0
   -5.0230   19.5700  -33.4380 C   0  0  0  0  0  0  0  0  0  0  0  0
   -5.6330   20.7290  -32.8730 O   0  0  0  0  0  0  0  0  0  0  0  0
   -6.9800   20.8430  -32.4880 C   0  0  0  0  0  0  0  0  0  0  0  0
   -7.7920   19.7130  -32.2610 C   0  0  0  0  0  0  0  0  0  0  0  0
   -9.1260   19.8670  -31.8760 C   0  0  0  0  0  0  0  0  0  0  0  0
   -9.6650   21.1420  -31.7090 C   0  0  0  0  0  0  0  0  0  0  0  0
   -8.8730   22.2710  -31.9300 C   0  0  0  0  0  0  0  0  0  0  0  0
   -7.5320   22.1330  -32.3290 C   0  0  0  0  0  0  0  0  0  0  0  0
   -6.6790   23.3650  -32.5030 C   0  0  0  0  0  0  0  0  0  0  0  0
   -6.0300   23.7400  -31.1970 C   0  0  0  0  0  0  0  0  0  0  0  0
   -5.0150   22.9330  -30.6570 C   0  0  0  0  0  0  0  0  0  0  0  0
   -4.3810   23.3000  -29.4650 C   0  0  0  0  0  0  0  0  0  0  0  0
   -4.7510   24.4770  -28.8090 C   0  0  0  0  0  0  0  0  0  0  0  0
   -5.7550   25.2890  -29.3430 C   0  0  0  0  0  0  0  0  0  0  0  0
   -6.3940   24.9240  -30.5320 C   0  0  0  0  0  0  0  0  0  0  0  0
   -1.0914   21.1093  -31.2807 H   0  0  0  0  0  0  0  0  0  0  0  0
   -1.2420   20.2061  -32.8261 H   0  0  0  0  0  0  0  0  0  0  0  0
   -0.6073   21.8865  -32.8261 H   0  0  0  0  0  0  0  0  0  0  0  0
   -3.3729   21.3482  -31.7143 H   0  0  0  0  0  0  0  0  0  0  0  0
   -2.7063   22.8312  -32.5024 H   0  0  0  0  0  0  0  0  0  0  0  0
   -2.6270   21.5360  -34.5830 H   0  0  0  0  0  0  0  0  0  0  0  0
   -4.2040   21.8210  -33.9850 H   0  0  0  0  0  0  0  0  0  0  0  0
   -3.3694   19.4602  -34.8227 H   0  0  0  0  0  0  0  0  0  0  0  0
   -2.9080   19.3854  -33.0773 H   0  0  0  0  0  0  0  0  0  0  0  0
   -5.5792   19.2705  -34.3385 H   0  0  0  0  0  0  0  0  0  0  0  0
   -5.0414   18.7596  -32.6945 H   0  0  0  0  0  0  0  0  0  0  0  0
   -7.3726   18.7040  -32.3878 H   0  0  0  0  0  0  0  0  0  0  0  0
   -9.7531   18.9797  -31.7041 H   0  0  0  0  0  0  0  0  0  0  0  0
  -10.7151   21.2588  -31.4029 H   0  0  0  0  0  0  0  0  0  0  0  0
   -9.3012   23.2746  -31.7910 H   0  0  0  0  0  0  0  0  0  0  0  0
   -5.8984   23.1632  -33.2513 H   0  0  0  0  0  0  0  0  0  0  0  0
   -7.3160   24.1969  -32.8379 H   0  0  0  0  0  0  0  0  0  0  0  0
   -4.7173   22.0085  -31.1735 H   0  0  0  0  0  0  0  0  0  0  0  0
   -3.5905   22.6614  -29.0439 H   0  0  0  0  0  0  0  0  0  0  0  0
   -4.2517   24.7644  -27.8719 H   0  0  0  0  0  0  0  0  0  0  0  0
   -6.0432   26.2169  -28.8272 H   0  0  0  0  0  0  0  0  0  0  0  0
   -7.1844   25.5656  -30.9486 H   0  0  0  0  0  0  0  0  0  0  0  0
  1  2  1  0
  2  3  1  0
  3  4  1  0
  4  5  1  0
  5  6  1  0
  6  7  1  0
  7  8  2  0
  8  9  1  0
  9 10  2  0
 10 11  1  0
 11 12  2  0
 12 13  1  0
 13 14  1  0
 14 15  2  0
 15 16  1  0
 16 17  2  0
 17 18  1  0
 18 19  2  0
 12  7  1  0
 19 14  1  0
  1 20  1  0
  1 21  1  0
  1 22  1  0
  2 23  1  0
  2 24  1  0
  3 25  1  0
  3 26  1  0
  4 27  1  0
  4 28  1  0
  5 29  1  0
  5 30  1  0
  8 31  1  0
  9 32  1  0
 10 33  1  0
 11 34  1  0
 13 35  1  0
 13 36  1  0
 15 37  1  0
 16 38  1  0
 17 39  1  0
 18 40  1  0
 19 41  1  0
M  CHG  1   3   1
M  END
>  <UniqueID>  (9) 
9

>  <SMILES>  (9) 
CC[NH2+]CCOc1ccccc1Cc1ccccc1

>  <Energy>  (9) 
33.908979175543024

>  <Genealogy>  (9) 
CC[NH2+]CCOc1ccccc1Cc1ccccc1 (protonated)
CC[NH2+]CCOc1ccccc1Cc1ccccc1 (3D coordinates assigned)
CC[NH2+]CCOc1ccccc1Cc1ccccc1 (optimized conformer: 33.908979175543024 kcal/mol)

>  <smiles>  (9) 
CCNCCOc1ccccc1Cc1ccccc1

>  <score_type>  (9) 
oracle

>  <origin>  (9) 
adg

>  <m_score__min__energy>  (9) 
-5.8799999999999999

>  <m_primary>  (9) 
energy

$$$$
9:0
     RDKit          3D

 78 80  0  0  0  0  0  0  0  0999 V2000
   -2.5050   20.0620  -27.2430 C   0  0  0  0  0  0  0  0  0  0  0  0
   -2.7160   21.1350  -28.3120 C   0  0  0  0  0  0  0  0  0  0  0  0
   -1.5650   22.0620  -28.3910 N   0  0  0  0  0  0  0  0  0  0  0  0
   -0.9530   22.0640  -29.7410 C   0  0  0  0  0  0  0  0  0  0  0  0
   -0.4010   20.6850  -30.1140 C   0  0  0  0  0  0  0  0  0  0  0  0
   -1.8200   23.4220  -27.8360 C   0  0  0  0  0  0  0  0  0  0  0  0
   -1.3270   24.6120  -28.6900 C   0  0  0  0  0  0  0  0  0  0  0  0
   -2.3900   25.2780  -29.3480 O   0  0  0  0  0  0  0  0  0  0  0  0
   -3.5940   24.5380  -29.2640 C   0  0  0  0  0  0  0  0  0  0  0  0
   -3.8470   23.7770  -30.5760 C   0  0  0  0  0  0  0  0  0  0  0  0
   -5.2340   24.0730  -31.1840 C   0  0  0  0  0  0  0  0  0  0  0  0
   -5.4850   23.3530  -32.4440 N   0  0  0  0  0  0  0  0  0  0  0  0
   -5.6680   21.9070  -32.2630 C   0  0  0  0  0  0  0  0  0  0  0  0
   -7.1440   21.5840  -32.1860 C   0  0  0  0  0  0  0  0  0  0  0  0
   -8.0470   22.5830  -31.7770 C   0  0  0  0  0  0  0  0  0  0  0  0
   -9.4120   22.3070  -31.6730 C   0  0  0  0  0  0  0  0  0  0  0  0
   -9.8940   21.0320  -31.9690 C   0  0  0  0  0  0  0  0  0  0  0  0
   -9.0160   20.0290  -32.3780 C   0  0  0  0  0  0  0  0  0  0  0  0
   -7.6430   20.2930  -32.5060 C   0  0  0  0  0  0  0  0  0  0  0  0
   -6.7480   19.1950  -32.9270 C   0  0  0  0  0  0  0  0  0  0  0  0
   -6.1210   19.2470  -34.1820 C   0  0  0  0  0  0  0  0  0  0  0  0
   -5.3320   18.1800  -34.6170 C   0  0  0  0  0  0  0  0  0  0  0  0
   -5.1590   17.0480  -33.8060 C   0  0  0  0  0  0  0  0  0  0  0  0
   -4.3740   15.8700  -34.3190 C   0  0  0  0  0  0  0  0  0  0  0  0
   -2.9600   16.0010  -33.9410 N   0  0  0  0  0  0  0  0  0  0  0  0
   -2.1580   16.5740  -35.0340 C   0  0  0  0  0  0  0  0  0  0  0  0
   -1.0570   17.4750  -34.4690 C   0  0  0  0  0  0  0  0  0  0  0  0
   -1.6250   18.7180  -33.8370 C   0  0  0  0  0  0  0  0  0  0  0  0
   -1.1200   19.9810  -34.1860 C   0  0  0  0  0  0  0  0  0  0  0  0
   -1.6450   21.1210  -33.5770 C   0  0  0  0  0  0  0  0  0  0  0  0
   -2.6520   20.9980  -32.6190 C   0  0  0  0  0  0  0  0  0  0  0  0
   -3.1220   19.7260  -32.2820 C   0  0  0  0  0  0  0  0  0  0  0  0
   -2.6040   18.6220  -32.8880 N   0  0  0  0  0  0  0  0  0  0  0  0
   -5.7590   17.0120  -32.5370 C   0  0  0  0  0  0  0  0  0  0  0  0
   -6.5420   18.0820  -32.0980 C   0  0  0  0  0  0  0  0  0  0  0  0
   -2.5943   20.5161  -26.2451 H   0  0  0  0  0  0  0  0  0  0  0  0
   -3.2657   19.2758  -27.3575 H   0  0  0  0  0  0  0  0  0  0  0  0
   -1.5032   19.6224  -27.3575 H   0  0  0  0  0  0  0  0  0  0  0  0
   -2.8469   20.6450  -29.2881 H   0  0  0  0  0  0  0  0  0  0  0  0
   -3.6084   21.7183  -28.0412 H   0  0  0  0  0  0  0  0  0  0  0  0
   -1.7163   22.3539  -30.4781 H   0  0  0  0  0  0  0  0  0  0  0  0
   -0.1170   22.7789  -29.7378 H   0  0  0  0  0  0  0  0  0  0  0  0
   -0.1750   20.1203  -29.1974 H   0  0  0  0  0  0  0  0  0  0  0  0
   -1.1496   20.1383  -30.7062 H   0  0  0  0  0  0  0  0  0  0  0  0
    0.5180   20.8059  -30.7062 H   0  0  0  0  0  0  0  0  0  0  0  0
   -2.9064   23.5318  -27.7032 H   0  0  0  0  0  0  0  0  0  0  0  0
   -1.2417   23.4713  -26.9016 H   0  0  0  0  0  0  0  0  0  0  0  0
   -0.8124   25.3293  -28.0337 H   0  0  0  0  0  0  0  0  0  0  0  0
   -0.6497   24.2155  -29.4608 H   0  0  0  0  0  0  0  0  0  0  0  0
   -3.5201   23.8180  -28.4357 H   0  0  0  0  0  0  0  0  0  0  0  0
   -4.4285   25.2325  -29.0872 H   0  0  0  0  0  0  0  0  0  0  0  0
   -3.0754   24.0670  -31.3044 H   0  0  0  0  0  0  0  0  0  0  0  0
   -3.8098   22.7019  -30.3464 H   0  0  0  0  0  0  0  0  0  0  0  0
   -6.0041   23.7798  -30.4553 H   0  0  0  0  0  0  0  0  0  0  0  0
   -5.2662   25.1486  -31.4122 H   0  0  0  0  0  0  0  0  0  0  0  0
   -4.7100   23.5280  -33.1260 H   0  0  0  0  0  0  0  0  0  0  0  0
   -5.2210   21.3727  -33.1143 H   0  0  0  0  0  0  0  0  0  0  0  0
   -5.1777   21.5924  -31.3299 H   0  0  0  0  0  0  0  0  0  0  0  0
   -7.6744   23.5898  -31.5372 H   0  0  0  0  0  0  0  0  0  0  0  0
  -10.1089   23.0972  -31.3568 H   0  0  0  0  0  0  0  0  0  0  0  0
  -10.9691   20.8173  -31.8796 H   0  0  0  0  0  0  0  0  0  0  0  0
   -9.4019   19.0236  -32.6020 H   0  0  0  0  0  0  0  0  0  0  0  0
   -6.2515   20.1304  -34.8243 H   0  0  0  0  0  0  0  0  0  0  0  0
   -4.8432   18.2272  -35.6013 H   0  0  0  0  0  0  0  0  0  0  0  0
   -4.7820   14.9448  -33.8860 H   0  0  0  0  0  0  0  0  0  0  0  0
   -4.4514   15.8364  -35.4158 H   0  0  0  0  0  0  0  0  0  0  0  0
   -2.5940   15.0400  -33.7450 H   0  0  0  0  0  0  0  0  0  0  0  0
   -1.6987   15.7591  -35.6128 H   0  0  0  0  0  0  0  0  0  0  0  0
   -2.8136   17.1737  -35.6825 H   0  0  0  0  0  0  0  0  0  0  0  0
   -0.4926   16.9146  -33.7091 H   0  0  0  0  0  0  0  0  0  0  0  0
   -0.4035   17.7802  -35.2995 H   0  0  0  0  0  0  0  0  0  0  0  0
   -0.3175   20.0706  -34.9330 H   0  0  0  0  0  0  0  0  0  0  0  0
   -1.2654   22.1162  -33.8518 H   0  0  0  0  0  0  0  0  0  0  0  0
   -3.0711   21.8922  -32.1346 H   0  0  0  0  0  0  0  0  0  0  0  0
   -3.9126   19.6161  -31.5251 H   0  0  0  0  0  0  0  0  0  0  0  0
   -2.9750   17.6840  -32.6130 H   0  0  0  0  0  0  0  0  0  0  0  0
   -5.6118   16.1376  -31.8860 H   0  0  0  0  0  0  0  0  0  0  0  0
   -6.9992   18.0520  -31.0979 H   0  0  0  0  0  0  0  0  0  0  0  0
  1  2  1  0
  2  3  1  0
  3  4  1  0
  4  5  1  0
  3  6  1  0
  6  7  1  0
  7  8  1  0
  8  9  1  0
  9 10  1  0
 10 11  1  0
 11 12  1  0
 12 13  1  0
 13 14  1  0
 14 15  2  0
 15 16  1  0
 16 17  2  0
 17 18  1  0
 18 19  2  0
 19 20  1  0
 20 21  2  0
 21 22  1  0
 22 23  2  0
 23 24  1  0
 24 25  1  0
 25 26  1  0
 26 27  1  0
 27 28  1  0
 28 29  2  0
 29 30  1  0
 30 31  2  0
 31 32  1  0
 32 33  2  0
 23 34  1  0
 34 35  2  0
 19 14  1  0
 35 20  1  0
 33 28  1  0
  1 36  1  0
  1 37  1  0
  1 38  1  0
  2 39  1  0
  2 40  1  0
  4 41  1  0
  4 42  1  0
  5 43  1  0
  5 44  1  0
  5 45  1  0
  6 46  1  0
  6 47  1  0
  7 48  1  0
  7 49  1  0
  9 50  1  0
  9 51  1  0
 10 52  1  0
 10 53  1  0
 11 54  1  0
 11 55  1  0
 12 56  1  0
 13 57  1  0
 13 58  1  0
 15 59  1  0
 16 60  1  0
 17 61  1  0
 18 62  1  0
 21 63  1  0
 22 64  1  0
 24 65  1  0
 24 66  1  0
 25 67  1  0
 26 68  1  0
 26 69  1  0
 27 70  1  0
 27 71  1  0
 29 72  1  0
 30 73  1  0
 31 74  1  0
 32 75  1  0
 33 76  1  0
 34 77  1  0
 35 78  1  0
M  CHG  1  33   1
M  END
>  <UniqueID>  (10) 
10

>  <SMILES>  (10) 
CCN(CC)CCOCCCNCc1ccccc1-c1ccc(CNCCc2cccc[nH+]2)cc1

>  <Energy>  (10) 
86.56174804383441

>  <Genealogy>  (10) 
CCN(CC)CCOCCCNCc1ccccc1-c1ccc(CNCCc2cccc[nH+]2)cc1 (protonated)
CCN(CC)CCOCCCNCc1ccccc1-c1ccc(CNCCc2cccc[nH+]2)cc1 (3D coordinates assigned)
CCN(CC)CCOCCCNCc1ccccc1-c1ccc(CNCCc2cccc[nH+]2)cc1 (optimized conformer: 86.56174804383441 kcal/mol)

>  <smiles>  (10) 
CCN(CC)CCOCCCNCc1ccccc1-c1ccc(CNCCc2ccccn2)cc1

>  <score_type>  (10) 
oracle

>  <origin>  (10) 
adg

>  <m_score__min__energy>  (10) 
-9.4499999999999993

>  <m_primary>  (10) 
energy

$$$$
10:0
     RDKit          3D

 59 62  0  0  0  0  0  0  0  0999 V2000
   -4.1720   24.1560  -27.9470 C   0  0  0  0  0  0  0  0  0  0  0  0
   -3.1960   24.5480  -29.0670 C   0  0  0  0  0  0  0  0  0  0  0  0
   -3.7990   24.6110  -30.4200 N   0  0  0  0  0  0  0  0  0  0  0  0
   -5.0900   25.3120  -30.5130 C   0  0  0  0  0  0  0  0  0  0  0  0
   -3.7310   23.3620  -31.2080 C   0  0  0  0  0  0  0  0  0  0  0  0
   -5.1000   22.7130  -31.4690 C   0  0  0  0  0  0  0  0  0  0  0  0
   -5.1200   22.0710  -32.7830 N   0  0  0  0  0  0  0  0  0  0  0  0
   -5.3700   20.6630  -32.9310 C   0  0  0  0  0  0  0  0  0  0  0  0
   -6.6290   20.1270  -32.6100 C   0  0  0  0  0  0  0  0  0  0  0  0
   -7.6270   20.9290  -32.0180 C   0  0  0  0  0  0  0  0  0  0  0  0
   -8.8600   20.3860  -31.6660 C   0  0  0  0  0  0  0  0  0  0  0  0
   -9.1110   19.0350  -31.8760 C   0  0  0  0  0  0  0  0  0  0  0  0
   -8.1360   18.2210  -32.4510 C   0  0  0  0  0  0  0  0  0  0  0  0
   -6.8830   18.7510  -32.8530 C   0  0  0  0  0  0  0  0  0  0  0  0
   -5.9150   17.9610  -33.4460 N   0  0  0  0  0  0  0  0  0  0  0  0
   -6.2700   16.6240  -33.9690 C   0  0  0  0  0  0  0  0  0  0  0  0
   -4.6200   18.4320  -33.5690 C   0  0  0  0  0  0  0  0  0  0  0  0
   -3.5430   17.5740  -33.9000 C   0  0  0  0  0  0  0  0  0  0  0  0
   -2.2390   18.0620  -34.0760 C   0  0  0  0  0  0  0  0  0  0  0  0
   -1.1380   17.0900  -34.4170 C   0  0  0  0  0  0  0  0  0  0  0  0
   -1.9940   19.4440  -33.9460 C   0  0  0  0  0  0  0  0  0  0  0  0
   -0.6550   20.0290  -34.1880 C   0  0  0  0  0  0  0  0  0  0  0  0
    0.3950   19.7910  -33.2840 C   0  0  0  0  0  0  0  0  0  0  0  0
    1.6550   20.3550  -33.5040 C   0  0  0  0  0  0  0  0  0  0  0  0
    1.8750   21.1680  -34.6200 C   0  0  0  0  0  0  0  0  0  0  0  0
    0.8320   21.4200  -35.5160 C   0  0  0  0  0  0  0  0  0  0  0  0
   -0.4300   20.8580  -35.3010 C   0  0  0  0  0  0  0  0  0  0  0  0
   -3.0350   20.2930  -33.5570 C   0  0  0  0  0  0  0  0  0  0  0  0
   -4.3390   19.8030  -33.3470 C   0  0  0  0  0  0  0  0  0  0  0  0
   -3.7034   24.3442  -26.9698 H   0  0  0  0  0  0  0  0  0  0  0  0
   -5.0904   24.7550  -28.0347 H   0  0  0  0  0  0  0  0  0  0  0  0
   -4.4209   23.0881  -28.0347 H   0  0  0  0  0  0  0  0  0  0  0  0
   -2.7823   25.5392  -28.8297 H   0  0  0  0  0  0  0  0  0  0  0  0
   -2.4317   23.7578  -29.1039 H   0  0  0  0  0  0  0  0  0  0  0  0
   -5.4692   25.5179  -29.5011 H   0  0  0  0  0  0  0  0  0  0  0  0
   -4.9542   26.2603  -31.0537 H   0  0  0  0  0  0  0  0  0  0  0  0
   -5.8114   24.6817  -31.0537 H   0  0  0  0  0  0  0  0  0  0  0  0
   -3.2654   23.5899  -32.1782 H   0  0  0  0  0  0  0  0  0  0  0  0
   -3.1453   22.6433  -30.6160 H   0  0  0  0  0  0  0  0  0  0  0  0
   -5.2962   21.9575  -30.6939 H   0  0  0  0  0  0  0  0  0  0  0  0
   -5.8747   23.4934  -31.4424 H   0  0  0  0  0  0  0  0  0  0  0  0
   -5.0020   22.6570  -33.6400 H   0  0  0  0  0  0  0  0  0  0  0  0
   -7.4291   21.9950  -31.8324 H   0  0  0  0  0  0  0  0  0  0  0  0
   -9.6359   21.0266  -31.2215 H   0  0  0  0  0  0  0  0  0  0  0  0
  -10.0822   18.6067  -31.5875 H   0  0  0  0  0  0  0  0  0  0  0  0
   -8.3417   17.1501  -32.5953 H   0  0  0  0  0  0  0  0  0  0  0  0
   -6.4521   15.9380  -33.1286 H   0  0  0  0  0  0  0  0  0  0  0  0
   -7.1790   16.7002  -34.5837 H   0  0  0  0  0  0  0  0  0  0  0  0
   -5.4429   16.2393  -34.5837 H   0  0  0  0  0  0  0  0  0  0  0  0
   -3.7334   16.4975  -34.0223 H   0  0  0  0  0  0  0  0  0  0  0  0
   -0.6944   16.6984  -33.4897 H   0  0  0  0  0  0  0  0  0  0  0  0
   -1.5526   16.2579  -35.0050 H   0  0  0  0  0  0  0  0  0  0  0  0
   -0.3638   17.6045  -35.0050 H   0  0  0  0  0  0  0  0  0  0  0  0
    0.2245   19.1586  -32.4003 H   0  0  0  0  0  0  0  0  0  0  0  0
    2.4751   20.1588  -32.7976 H   0  0  0  0  0  0  0  0  0  0  0  0
    2.8678   21.6089  -34.7928 H   0  0  0  0  0  0  0  0  0  0  0  0
    1.0046   22.0620  -36.3924 H   0  0  0  0  0  0  0  0  0  0  0  0
   -1.2495   21.0651  -36.0049 H   0  0  0  0  0  0  0  0  0  0  0  0
   -2.8316   21.3643  -33.4122 H   0  0  0  0  0  0  0  0  0  0  0  0
  1  2  1  0
  2  3  1  0
  3  4  1  0
  3  5  1  0
  5  6  1  0
  6  7  1  0
  7  8  1  0
  8  9  2  0
  9 10  1  0
 10 11  2  0
 11 12  1  0
 12 13  2  0
 13 14  1  0
 14 15  2  0
 15 16  1  0
 15 17  1  0
 17 18  2  0
 18 19  1  0
 19 20  1  0
 19 21  2  0
 21 22  1  0
 22 23  2  0
 23 24  1  0
 24 25  2  0
 25 26  1  0
 26 27  2  0
 21 28  1  0
 28 29  2  0
 29  8  1  0
 14  9  1  0
 29 17  1  0
 27 22  1  0
  1 30  1  0
  1 31  1  0
  1 32  1  0
  2 33  1  0
  2 34  1  0
  4 35  1  0
  4 36  1  0
  4 37  1  0
  5 38  1  0
  5 39  1  0
  6 40  1  0
  6 41  1  0
  7 42  1  0
 10 43  1  0
 11 44  1  0
 12 45  1  0
 13 46  1  0
 16 47  1  0
 16 48  1  0
 16 49  1  0
 18 50  1  0
 20 51  1  0
 20 52  1  0
 20 53  1  0
 23 54  1  0
 24 55  1  0
 25 56  1  0
 26 57  1  0
 27 58  1  0
 28 59  1  0
M  CHG  1  15   1
M  END
>  <UniqueID>  (11) 
11

>  <SMILES>  (11) 
CCN(C)CCNc1c2ccccc2[n+](C)c2cc(C)c(-c3ccccc3)cc12

>  <Energy>  (11) 
100.63592053247915

>  <Genealogy>  (11) 
CCN(C)CCNc1c2ccccc2[n+](C)c2cc(C)c(-c3ccccc3)cc12 (3D coordinates assigned)
CCN(C)CCNc1c2ccccc2[n+](C)c2cc(C)c(-c3ccccc3)cc12 (optimized conformer: 100.63592053247915 kcal/mol)

>  <smiles>  (11) 
CCN(C)CCNc1c2ccccc2[n+](C)c2cc(C)c(-c3ccccc3)cc12

>  <score_type>  (11) 
oracle

>  <origin>  (11) 
adg

>  <m_score__min__energy>  (11) 
-9.1999999999999993

>  <m_primary>  (11) 
energy

$$$$
11:0
     RDKit          3D

 52 53  0  0  0  0  0  0  0  0999 V2000
   -3.9400   24.1630  -28.3240 C   0  0  0  0  0  0  0  0  0  0  0  0
   -3.2390   24.2940  -29.6750 C   0  0  0  0  0  0  0  0  0  0  0  0
   -3.9980   25.1470  -30.6100 N   0  0  0  0  0  0  0  0  0  0  0  0
   -5.3820   25.4060  -30.1790 C   0  0  0  0  0  0  0  0  0  0  0  0
   -6.3730   24.3020  -30.5930 C   0  0  0  0  0  0  0  0  0  0  0  0
   -6.0680   23.7110  -31.9780 C   0  0  0  0  0  0  0  0  0  0  0  0
   -6.2310   22.2030  -31.9650 C   0  0  0  0  0  0  0  0  0  0  0  0
   -7.5030   21.6190  -31.9170 C   0  0  0  0  0  0  0  0  0  0  0  0
   -7.6540   20.2550  -31.8440 C   0  0  0  0  0  0  0  0  0  0  0  0
   -6.5750   19.4070  -31.7850 N   0  0  0  0  0  0  0  0  0  0  0  0
   -6.7580   17.9390  -31.6850 C   0  0  0  0  0  0  0  0  0  0  0  0
   -6.6660   17.2000  -33.0500 C   0  0  0  0  0  0  0  0  0  0  0  0
   -5.4570   17.4710  -33.8680 N   0  0  0  0  0  0  0  0  0  0  0  0
   -5.6780   18.5020  -34.8990 C   0  0  0  0  0  0  0  0  0  0  0  0
   -4.8580   16.2540  -34.4420 C   0  0  0  0  0  0  0  0  0  0  0  0
   -5.3090   19.9400  -31.9090 C   0  0  0  0  0  0  0  0  0  0  0  0
   -4.3050   19.1800  -31.9990 O   0  0  0  0  0  0  0  0  0  0  0  0
   -5.1140   21.3390  -31.9590 C   0  0  0  0  0  0  0  0  0  0  0  0
   -3.7670   21.8650  -32.0110 C   0  0  0  0  0  0  0  0  0  0  0  0
   -2.6890   22.2880  -32.0520 N   0  0  0  0  0  0  0  0  0  0  0  0
   -9.0930   19.8650  -31.8580 C   0  0  0  0  0  0  0  0  0  0  0  0
   -9.8550   21.1930  -31.9820 C   0  0  0  0  0  0  0  0  0  0  0  0
   -8.8150   22.3200  -31.9350 C   0  0  0  0  0  0  0  0  0  0  0  0
   -3.2067   24.3000  -27.5156 H   0  0  0  0  0  0  0  0  0  0  0  0
   -4.7240   24.9302  -28.2418 H   0  0  0  0  0  0  0  0  0  0  0  0
   -4.3940   23.1645  -28.2418 H   0  0  0  0  0  0  0  0  0  0  0  0
   -2.2443   24.7366  -29.5178 H   0  0  0  0  0  0  0  0  0  0  0  0
   -3.1616   23.2897  -30.1170 H   0  0  0  0  0  0  0  0  0  0  0  0
   -3.5050   26.0420  -30.8340 H   0  0  0  0  0  0  0  0  0  0  0  0
   -5.3946   25.4914  -29.0824 H   0  0  0  0  0  0  0  0  0  0  0  0
   -5.7062   26.3331  -30.6743 H   0  0  0  0  0  0  0  0  0  0  0  0
   -6.3278   23.4931  -29.8489 H   0  0  0  0  0  0  0  0  0  0  0  0
   -7.3726   24.7584  -30.6426 H   0  0  0  0  0  0  0  0  0  0  0  0
   -6.7607   24.1428  -32.7154 H   0  0  0  0  0  0  0  0  0  0  0  0
   -5.0283   23.9521  -32.2443 H   0  0  0  0  0  0  0  0  0  0  0  0
   -5.9794   17.5371  -31.0200 H   0  0  0  0  0  0  0  0  0  0  0  0
   -7.7730   17.7687  -31.2966 H   0  0  0  0  0  0  0  0  0  0  0  0
   -6.6979   16.1192  -32.8481 H   0  0  0  0  0  0  0  0  0  0  0  0
   -7.5111   17.5780  -33.6441 H   0  0  0  0  0  0  0  0  0  0  0  0
   -4.7460   17.8660  -33.2070 H   0  0  0  0  0  0  0  0  0  0  0  0
   -5.8849   19.4673  -34.4138 H   0  0  0  0  0  0  0  0  0  0  0  0
   -4.7788   18.5921  -35.5261 H   0  0  0  0  0  0  0  0  0  0  0  0
   -6.5352   18.2156  -35.5261 H   0  0  0  0  0  0  0  0  0  0  0  0
   -4.5304   15.5884  -33.6298 H   0  0  0  0  0  0  0  0  0  0  0  0
   -5.6039   15.7357  -35.0624 H   0  0  0  0  0  0  0  0  0  0  0  0
   -3.9923   16.5290  -35.0624 H   0  0  0  0  0  0  0  0  0  0  0  0
   -9.3096   19.2117  -32.7161 H   0  0  0  0  0  0  0  0  0  0  0  0
   -9.3807   19.3022  -30.9577 H   0  0  0  0  0  0  0  0  0  0  0  0
  -10.4028   21.2254  -32.9354 H   0  0  0  0  0  0  0  0  0  0  0  0
  -10.5850   21.3015  -31.1663 H   0  0  0  0  0  0  0  0  0  0  0  0
   -8.8993   22.9636  -32.8231 H   0  0  0  0  0  0  0  0  0  0  0  0
   -8.9496   22.9759  -31.0623 H   0  0  0  0  0  0  0  0  0  0  0  0
  1  2  1  0
  2  3  1  0
  3  4  1  0
  4  5  1  0
  5  6  1  0
  6  7  1  0
  7  8  1  0
  8  9  2  0
  9 10  1  0
 10 11  1  0
 11 12  1  0
 12 13  1  0
 13 14  1  0
 13 15  1  0
 10 16  1  0
 16 17  2  0
 16 18  1  0
 18 19  1  0
 19 20  3  0
  9 21  1  0
 21 22  1  0
 22 23  1  0
 18  7  2  0
 23  8  1  0
  1 24  1  0
  1 25  1  0
  1 26  1  0
  2 27  1  0
  2 28  1  0
  3 29  1  0
  4 30  1  0
  4 31  1  0
  5 32  1  0
  5 33  1  0
  6 34  1  0
  6 35  1  0
 11 36  1  0
 11 37  1  0
 12 38  1  0
 12 39  1  0
 13 40  1  0
 14 41  1  0
 14 42  1  0
 14 43  1  0
 15 44  1  0
 15 45  1  0
 15 46  1  0
 21 47  1  0
 21 48  1  0
 22 49  1  0
 22 50  1  0
 23 51  1  0
 23 52  1  0
M  CHG  1  13   1
M  END
>  <UniqueID>  (12) 
12

>  <SMILES>  (12) 
CCNCCCc1c2c(n(CC[NH+](C)C)c(=O)c1C#N)CCC2

>  <Energy>  (12) 
64.98426334969899

>  <Genealogy>  (12) 
CCNCCCc1c2c(n(CC[NH+](C)C)c(=O)c1C#N)CCC2 (protonated)
CCNCCCc1c2c(n(CC[NH+](C)C)c(=O)c1C#N)CCC2 (3D coordinates assigned)
CCNCCCc1c2c(n(CC[NH+](C)C)c(=O)c1C#N)CCC2 (nonaromatic ring conformer: 64.98426334969899 kcal/mol)

>  <smiles>  (12) 
CCNCCCc1c2c(n(CCN(C)C)c(=O)c1C#N)CCC2

>  <score_type>  (12) 
oracle

>  <origin>  (12) 
adg

>  <m_score__min__energy>  (12) 
-7.7300000000000004

>  <m_primary>  (12) 
energy

$$$$
12:0
     RDKit          3D

 36 37  0  0  0  0  0  0  0  0999 V2000
   -2.3845   21.0851  -27.5804 H   0  0  0  0  0  0  0  0  0  0  0  0
   -2.0180   22.1050  -27.7690 C   0  0  0  0  0  0  0  0  0  0  0  0
   -1.9210   22.5420  -28.9860 N   0  0  0  0  0  0  0  0  0  0  0  0
   -2.8370   23.4350  -29.6350 C   0  0  0  0  0  0  0  0  0  0  0  0
   -2.8120   24.8270  -29.7280 C   0  0  0  0  0  0  0  0  0  0  0  0
   -1.8470   25.6610  -29.1800 O   0  0  0  0  0  0  0  0  0  0  0  0
   -3.8790   25.3020  -30.4150 N   0  0  0  0  0  0  0  0  0  0  0  0
   -4.5770   24.1980  -30.7510 C   0  0  0  0  0  0  0  0  0  0  0  0
   -5.7700   24.1550  -31.4710 C   0  0  0  0  0  0  0  0  0  0  0  0
   -6.2452   25.0778  -31.8352 H   0  0  0  0  0  0  0  0  0  0  0  0
   -6.3480   22.8970  -31.7180 C   0  0  0  0  0  0  0  0  0  0  0  0
   -7.2889   22.8298  -32.2838 H   0  0  0  0  0  0  0  0  0  0  0  0
   -5.7280   21.7180  -31.2440 C   0  0  0  0  0  0  0  0  0  0  0  0
   -6.1893   20.7395  -31.4435 H   0  0  0  0  0  0  0  0  0  0  0  0
   -4.5250   21.7890  -30.5190 C   0  0  0  0  0  0  0  0  0  0  0  0
   -4.0319   20.8797  -30.1447 H   0  0  0  0  0  0  0  0  0  0  0  0
   -3.9790   23.0510  -30.2910 C   0  0  0  0  0  0  0  0  0  0  0  0
   -1.6310   22.9880  -26.6140 C   0  0  0  0  0  0  0  0  0  0  0  0
   -0.6202   22.7055  -26.2848 H   0  0  0  0  0  0  0  0  0  0  0  0
   -2.3865   22.8381  -25.8286 H   0  0  0  0  0  0  0  0  0  0  0  0
   -1.6290   24.4410  -26.9430 N   0  0  0  0  0  0  0  0  0  0  0  0
   -1.7500   24.5020  -27.9830 H   0  0  0  0  0  0  0  0  0  0  0  0
   -0.3440   25.1060  -26.5950 C   0  0  0  0  0  0  0  0  0  0  0  0
    0.3888   24.8896  -27.3863 H   0  0  0  0  0  0  0  0  0  0  0  0
   -0.0219   24.7119  -25.6199 H   0  0  0  0  0  0  0  0  0  0  0  0
   -0.4780   26.6270  -26.4550 C   0  0  0  0  0  0  0  0  0  0  0  0
   -0.5017   26.8964  -25.3888 H   0  0  0  0  0  0  0  0  0  0  0  0
    0.3805   27.1167  -26.9379 H   0  0  0  0  0  0  0  0  0  0  0  0
   -1.4089   26.9591  -26.9379 H   0  0  0  0  0  0  0  0  0  0  0  0
   -2.7790   25.1370  -26.3050 C   0  0  0  0  0  0  0  0  0  0  0  0
   -2.6825   25.0494  -25.2128 H   0  0  0  0  0  0  0  0  0  0  0  0
   -2.7559   26.1876  -26.6301 H   0  0  0  0  0  0  0  0  0  0  0  0
   -4.1300   24.5480  -26.7280 C   0  0  0  0  0  0  0  0  0  0  0  0
   -4.7153   24.2928  -25.8323 H   0  0  0  0  0  0  0  0  0  0  0  0
   -4.6809   25.2876  -27.3276 H   0  0  0  0  0  0  0  0  0  0  0  0
   -3.9630   23.6410  -27.3276 H   0  0  0  0  0  0  0  0  0  0  0  0
  1  2  1  0
  2  3  2  0
  3  4  1  0
  4  5  2  0
  5  6  1  0
  5  7  1  0
  7  8  1  0
  8  9  2  0
  9 10  1  0
  9 11  1  0
 11 12  1  0
 11 13  2  0
 13 14  1  0
 13 15  1  0
 15 16  1  0
 15 17  2  0
  2 18  1  0
 18 19  1  0
 18 20  1  0
 18 21  1  0
 21 22  1  0
 21 23  1  0
 23 24  1  0
 23 25  1  0
 23 26  1  0
 26 27  1  0
 26 28  1  0
 26 29  1  0
 21 30  1  0
 30 31  1  0
 30 32  1  0
 30 33  1  0
 33 34  1  0
 33 35  1  0
 33 36  1  0
 17  4  1  0
 17  8  1  0
M  CHG  3   6  -1   7  -1  21   1
M  END
>  <UniqueID>  (13) 
13

>  <SMILES>  (13) 
CC[NH+](CC)C/C=N/c1c([O-])[n-]c2ccccc12

>  <Energy>  (13) 
72.81661109190242

>  <Genealogy>  (13) 
CC[NH+](CC)CC=Nc1c([O-])[n-]c2ccccc12 (protonated)
CC[NH+](CC)C/C=N/c1c([O-])[n-]c2ccccc12 (cis-trans isomerization)
CC[NH+](CC)C/C=N/c1c([O-])[n-]c2ccccc12 (3D coordinates assigned)
CC[NH+](CC)C/C=N/c1c([O-])[n-]c2ccccc12 (optimized conformer: 72.81661109190242 kcal/mol)

>  <smiles>  (13) 
CCN(CC)CC=Nc1c(O)[nH]c2ccccc12

>  <score_type>  (13) 
oracle

>  <origin>  (13) 
adg

>  <m_score__min__energy>  (13) 
-9.0999999999999996

>  <m_primary>  (13) 
energy

$$$$
13:0
     RDKit          3D

 52 54  0  0  0  0  0  0  0  0999 V2000
   -3.2020   21.3180  -29.1780 C   0  0  0  0  0  0  0  0  0  0  0  0
   -3.2090   22.6810  -29.7360 N   0  0  0  0  0  0  0  0  0  0  0  0
   -1.8380   23.0510  -30.1320 C   0  0  0  0  0  0  0  0  0  0  0  0
   -3.7560   23.6300  -28.7400 C   0  0  0  0  0  0  0  0  0  0  0  0
   -4.7980   24.5720  -29.3650 C   0  0  0  0  0  0  0  0  0  0  0  0
   -4.5940   24.7040  -30.8150 N   0  0  0  0  0  0  0  0  0  0  0  0
   -5.8440   24.5630  -31.5880 C   0  0  0  0  0  0  0  0  0  0  0  0
   -6.0610   23.1360  -32.1270 C   0  0  0  0  0  0  0  0  0  0  0  0
   -5.0800   22.1850  -31.5750 N   0  0  0  0  0  0  0  0  0  0  0  0
   -5.2270   20.8750  -32.1890 C   0  0  0  0  0  0  0  0  0  0  0  0
   -6.4580   20.1700  -32.1110 C   0  0  0  0  0  0  0  0  0  0  0  0
   -7.5230   20.6180  -31.2920 C   0  0  0  0  0  0  0  0  0  0  0  0
   -8.7120   19.8980  -31.2020 C   0  0  0  0  0  0  0  0  0  0  0  0
   -8.8640   18.7140  -31.9070 C   0  0  0  0  0  0  0  0  0  0  0  0
   -7.8360   18.2480  -32.7200 C   0  0  0  0  0  0  0  0  0  0  0  0
   -6.6240   18.9730  -32.8630 C   0  0  0  0  0  0  0  0  0  0  0  0
   -5.6180   18.5300  -33.6960 N   0  0  0  0  0  0  0  0  0  0  0  0
   -5.9040   17.4930  -34.7140 C   0  0  0  0  0  0  0  0  0  0  0  0
   -4.3490   19.0580  -33.5860 C   0  0  0  0  0  0  0  0  0  0  0  0
   -3.2320   18.4200  -34.1840 C   0  0  0  0  0  0  0  0  0  0  0  0
   -1.9560   18.9710  -34.1020 C   0  0  0  0  0  0  0  0  0  0  0  0
   -1.7530   20.1580  -33.4100 C   0  0  0  0  0  0  0  0  0  0  0  0
   -0.1380   20.8380  -33.2980 Cl  0  0  0  0  0  0  0  0  0  0  0  0
   -2.8220   20.7910  -32.7820 C   0  0  0  0  0  0  0  0  0  0  0  0
   -4.1330   20.2560  -32.8490 C   0  0  0  0  0  0  0  0  0  0  0  0
   -3.2023   21.3716  -28.0793 H   0  0  0  0  0  0  0  0  0  0  0  0
   -4.0974   20.7776  -29.5190 H   0  0  0  0  0  0  0  0  0  0  0  0
   -2.3011   20.7868  -29.5190 H   0  0  0  0  0  0  0  0  0  0  0  0
   -1.2281   23.2156  -29.2315 H   0  0  0  0  0  0  0  0  0  0  0  0
   -1.3975   22.2396  -30.7300 H   0  0  0  0  0  0  0  0  0  0  0  0
   -1.8655   23.9739  -30.7300 H   0  0  0  0  0  0  0  0  0  0  0  0
   -4.2320   23.0601  -27.9284 H   0  0  0  0  0  0  0  0  0  0  0  0
   -2.9259   24.2421  -28.3575 H   0  0  0  0  0  0  0  0  0  0  0  0
   -5.8040   24.1676  -29.1796 H   0  0  0  0  0  0  0  0  0  0  0  0
   -4.6885   25.5657  -28.9061 H   0  0  0  0  0  0  0  0  0  0  0  0
   -3.8810   24.0010  -31.1250 H   0  0  0  0  0  0  0  0  0  0  0  0
   -6.6906   24.8239  -30.9360 H   0  0  0  0  0  0  0  0  0  0  0  0
   -5.7717   25.2350  -32.4559 H   0  0  0  0  0  0  0  0  0  0  0  0
   -7.0728   22.8024  -31.8530 H   0  0  0  0  0  0  0  0  0  0  0  0
   -5.9340   23.1612  -33.2193 H   0  0  0  0  0  0  0  0  0  0  0  0
   -4.1080   22.5410  -31.7080 H   0  0  0  0  0  0  0  0  0  0  0  0
   -5.1770   22.1170  -30.5370 H   0  0  0  0  0  0  0  0  0  0  0  0
   -7.4094   21.5494  -30.7178 H   0  0  0  0  0  0  0  0  0  0  0  0
   -9.5322   20.2697  -30.5702 H   0  0  0  0  0  0  0  0  0  0  0  0
   -9.7997   18.1418  -31.8233 H   0  0  0  0  0  0  0  0  0  0  0  0
   -7.9647   17.2997  -33.2624 H   0  0  0  0  0  0  0  0  0  0  0  0
   -6.1643   16.5491  -34.2128 H   0  0  0  0  0  0  0  0  0  0  0  0
   -6.7459   17.8187  -35.3427 H   0  0  0  0  0  0  0  0  0  0  0  0
   -5.0142   17.3411  -35.3427 H   0  0  0  0  0  0  0  0  0  0  0  0
   -3.3767   17.4719  -34.7227 H   0  0  0  0  0  0  0  0  0  0  0  0
   -1.1074   18.4655  -34.5860 H   0  0  0  0  0  0  0  0  0  0  0  0
   -2.6463   21.7226  -32.2241 H   0  0  0  0  0  0  0  0  0  0  0  0
  1  2  1  0
  2  3  1  0
  2  4  1  0
  4  5  1  0
  5  6  1  0
  6  7  1  0
  7  8  1  0
  8  9  1  0
  9 10  1  0
 10 11  2  0
 11 12  1  0
 12 13  2  0
 13 14  1  0
 14 15  2  0
 15 16  1  0
 16 17  2  0
 17 18  1  0
 17 19  1  0
 19 20  2  0
 20 21  1  0
 21 22  2  0
 22 23  1  0
 22 24  1  0
 24 25  2  0
 25 10  1  0
 16 11  1  0
 25 19  1  0
  1 26  1  0
  1 27  1  0
  1 28  1  0
  3 29  1  0
  3 30  1  0
  3 31  1  0
  4 32  1  0
  4 33  1  0
  5 34  1  0
  5 35  1  0
  6 36  1  0
  7 37  1  0
  7 38  1  0
  8 39  1  0
  8 40  1  0
  9 41  1  0
  9 42  1  0
 12 43  1  0
 13 44  1  0
 14 45  1  0
 15 46  1  0
 18 47  1  0
 18 48  1  0
 18 49  1  0
 20 50  1  0
 21 51  1  0
 24 52  1  0
M  CHG  2   9   1  17   1
M  END
>  <UniqueID>  (14) 
14

>  <SMILES>  (14) 
CN(C)CCNCC[NH2+]c1c2ccccc2[n+](C)c2ccc(Cl)cc12

>  <Energy>  (14) 
81.73059577955631

>  <Genealogy>  (14) 
CN(C)CCNCC[NH2+]c1c2ccccc2[n+](C)c2ccc(Cl)cc12 (protonated)
CN(C)CCNCC[NH2+]c1c2ccccc2[n+](C)c2ccc(Cl)cc12 (3D coordinates assigned)
CN(C)CCNCC[NH2+]c1c2ccccc2[n+](C)c2ccc(Cl)cc12 (optimized conformer: 81.73059577955631 kcal/mol)

>  <smiles>  (14) 
CN(C)CCNCCNc1c2ccccc2[n+](C)c2ccc(Cl)cc12

>  <score_type>  (14) 
oracle

>  <origin>  (14) 
adg

>  <m_score__min__energy>  (14) 
-7.8600000000000003

>  <m_primary>  (14) 
energy

$$$$
14:0
     RDKit          3D

 53 55  0  0  0  0  0  0  0  0999 V2000
   -2.6230   24.9730  -26.6620 C   0  0  0  0  0  0  0  0  0  0  0  0
   -4.1530   24.8780  -26.6850 C   0  0  0  0  0  0  0  0  0  0  0  0
   -4.6740   24.5500  -28.0260 N   0  0  0  0  0  0  0  0  0  0  0  0
   -4.0310   23.3540  -28.6280 C   0  0  0  0  0  0  0  0  0  0  0  0
   -4.5400   23.0430  -30.0690 C   0  0  2  0  0  0  0  0  0  0  0  0
   -3.3670   23.1020  -31.0990 C   0  0  0  0  0  0  0  0  0  0  0  0
   -3.0970   21.7800  -31.7780 C   0  0  0  0  0  0  0  0  0  0  0  0
   -3.8140   21.4090  -32.9300 C   0  0  0  0  0  0  0  0  0  0  0  0
   -3.5490   20.1910  -33.5650 C   0  0  0  0  0  0  0  0  0  0  0  0
   -2.5720   19.3340  -33.0520 C   0  0  0  0  0  0  0  0  0  0  0  0
   -1.8520   19.6970  -31.9100 C   0  0  0  0  0  0  0  0  0  0  0  0
   -2.1080   20.9160  -31.2760 C   0  0  0  0  0  0  0  0  0  0  0  0
   -5.6860   23.9540  -30.3950 N   0  0  0  0  0  0  0  0  0  0  0  0
   -6.9450   23.5820  -29.7150 C   0  0  0  0  0  0  0  0  0  0  0  0
   -7.5670   22.2880  -30.2750 C   0  0  0  0  0  0  0  0  0  0  0  0
   -7.0780   21.9660  -31.6220 N   0  0  0  0  0  0  0  0  0  0  0  0
   -6.9880   20.5840  -32.0070 C   0  0  0  0  0  0  0  0  0  0  0  0
   -6.0360   19.8840  -31.5670 O   0  0  0  0  0  0  0  0  0  0  0  0
   -8.0870   19.8940  -32.7660 C   0  0  0  0  0  0  0  0  0  0  0  0
   -9.0250   18.9590  -32.0160 C   0  0  0  0  0  0  0  0  0  0  0  0
   -9.4680   20.3750  -32.3400 C   0  0  0  0  0  0  0  0  0  0  0  0
   -6.6080   23.0030  -32.5490 C   0  0  0  0  0  0  0  0  0  0  0  0
   -5.9770   24.2090  -31.8240 C   0  0  0  0  0  0  0  0  0  0  0  0
   -2.2726   24.9948  -25.6195 H   0  0  0  0  0  0  0  0  0  0  0  0
   -2.1937   24.0998  -27.1750 H   0  0  0  0  0  0  0  0  0  0  0  0
   -2.3050   25.8926  -27.1750 H   0  0  0  0  0  0  0  0  0  0  0  0
   -4.4693   24.0940  -25.9812 H   0  0  0  0  0  0  0  0  0  0  0  0
   -4.5554   25.8610  -26.3990 H   0  0  0  0  0  0  0  0  0  0  0  0
   -4.5450   25.3720  -28.6630 H   0  0  0  0  0  0  0  0  0  0  0  0
   -5.7070   24.4130  -27.9310 H   0  0  0  0  0  0  0  0  0  0  0  0
   -2.9451   23.5247  -28.6700 H   0  0  0  0  0  0  0  0  0  0  0  0
   -4.2894   22.4911  -27.9966 H   0  0  0  0  0  0  0  0  0  0  0  0
   -4.9219   22.0130  -30.1266 H   0  0  0  0  0  0  0  0  0  0  0  0
   -3.6174   23.8452  -31.8703 H   0  0  0  0  0  0  0  0  0  0  0  0
   -2.4583   23.3716  -30.5408 H   0  0  0  0  0  0  0  0  0  0  0  0
   -4.5868   22.0799  -33.3335 H   0  0  0  0  0  0  0  0  0  0  0  0
   -4.1097   19.9080  -34.4681 H   0  0  0  0  0  0  0  0  0  0  0  0
   -2.3692   18.3729  -33.5471 H   0  0  0  0  0  0  0  0  0  0  0  0
   -1.0819   19.0214  -31.5093 H   0  0  0  0  0  0  0  0  0  0  0  0
   -1.5340   21.2002  -30.3817 H   0  0  0  0  0  0  0  0  0  0  0  0
   -6.7367   23.4371  -28.6447 H   0  0  0  0  0  0  0  0  0  0  0  0
   -7.6655   24.3958  -29.8843 H   0  0  0  0  0  0  0  0  0  0  0  0
   -7.3168   21.4558  -29.6006 H   0  0  0  0  0  0  0  0  0  0  0  0
   -8.6542   22.4415  -30.3420 H   0  0  0  0  0  0  0  0  0  0  0  0
   -7.5107   19.7772  -33.6956 H   0  0  0  0  0  0  0  0  0  0  0  0
   -9.4842   18.1064  -32.5378 H   0  0  0  0  0  0  0  0  0  0  0  0
   -8.9527   18.3584  -31.0973 H   0  0  0  0  0  0  0  0  0  0  0  0
  -10.2477   20.5477  -33.0965 H   0  0  0  0  0  0  0  0  0  0  0  0
   -9.8489   21.2240  -31.7533 H   0  0  0  0  0  0  0  0  0  0  0  0
   -5.8549   22.5615  -33.2182 H   0  0  0  0  0  0  0  0  0  0  0  0
   -7.4822   23.3710  -33.1062 H   0  0  0  0  0  0  0  0  0  0  0  0
   -5.0349   24.4656  -32.3306 H   0  0  0  0  0  0  0  0  0  0  0  0
   -6.7092   25.0290  -31.8633 H   0  0  0  0  0  0  0  0  0  0  0  0
  1  2  1  0
  2  3  1  0
  3  4  1  0
  4  5  1  0
  5  6  1  0
  6  7  1  0
  7  8  2  0
  8  9  1  0
  9 10  2  0
 10 11  1  0
 11 12  2  0
  5 13  1  0
 13 14  1  0
 14 15  1  0
 15 16  1  0
 16 17  1  0
 17 18  2  0
 17 19  1  0
 19 20  1  0
 20 21  1  0
 16 22  1  0
 22 23  1  0
 12  7  1  0
 23 13  1  0
 21 19  1  0
  1 24  1  0
  1 25  1  0
  1 26  1  0
  2 27  1  0
  2 28  1  0
  3 29  1  0
  3 30  1  0
  4 31  1  0
  4 32  1  0
  5 33  1  1
  6 34  1  0
  6 35  1  0
  8 36  1  0
  9 37  1  0
 10 38  1  0
 11 39  1  0
 12 40  1  0
 14 41  1  0
 14 42  1  0
 15 43  1  0
 15 44  1  0
 19 45  1  0
 20 46  1  0
 20 47  1  0
 21 48  1  0
 21 49  1  0
 22 50  1  0
 22 51  1  0
 23 52  1  0
 23 53  1  0
M  CHG  1   3   1
M  END
>  <UniqueID>  (15) 
15

>  <SMILES>  (15) 
CC[NH2+]C[C@H](Cc1ccccc1)N1CCN(C(=O)C2CC2)CC1

>  <Energy>  (15) 
339.1353913036059

>  <Genealogy>  (15) 
CC[NH2+]CC(Cc1ccccc1)N1CCN(C(=O)C2CC2)CC1 (protonated)
CC[NH2+]C[C@H](Cc1ccccc1)N1CCN(C(=O)C2CC2)CC1 (chirality)
CC[NH2+]C[C@H](Cc1ccccc1)N1CCN(C(=O)C2CC2)CC1 (3D coordinates assigned)
CC[NH2+]C[C@H](Cc1ccccc1)N1CCN(C(=O)C2CC2)CC1 (nonaromatic ring conformer: 339.1353913036059 kcal/mol)

>  <smiles>  (15) 
CCNCC(Cc1ccccc1)N1CCN(C(=O)C2CC2)CC1

>  <score_type>  (15) 
oracle

>  <origin>  (15) 
adg

>  <m_score__min__energy>  (15) 
-6.5599999999999996

>  <m_primary>  (15) 
energy

$$$$
15:0
     RDKit          3D

 33 34  0  0  1  0  0  0  0  0999 V2000
   -6.3400   17.4300  -32.1020 C   0  0  0  0  0  0  0  0  0  0  0  0
   -6.1060   17.4360  -33.5790 C   0  0  0  0  0  0  0  0  0  0  0  0
   -6.3600   18.7450  -34.1920 N   0  0  0  0  0  0  0  0  0  0  0  0
   -6.6620   19.7820  -33.4510 C   0  0  0  0  0  0  0  0  0  0  0  0
   -5.6610   20.5970  -33.0900 N   0  0  0  0  0  0  0  0  0  0  0  0
   -5.9230   21.6670  -32.3350 C   0  0  0  0  0  0  0  0  0  0  0  0
   -7.2350   21.9100  -31.9410 C   0  0  0  0  0  0  0  0  0  0  0  0
   -8.2270   21.0340  -32.3440 C   0  0  0  0  0  0  0  0  0  0  0  0
   -7.9420   19.9600  -33.1070 N   0  0  0  0  0  0  0  0  0  0  0  0
   -7.4930   22.9910  -31.1800 N   0  0  0  0  0  0  0  0  0  0  0  0
   -6.5310   23.8450  -30.7850 C   0  0  0  0  0  0  0  0  0  0  0  0
   -6.8350   25.0350  -29.9430 C   0  0  0  0  0  0  0  0  0  0  0  0
   -5.2300   23.5740  -31.1960 C   0  0  0  0  0  0  0  0  0  0  0  0
   -4.3130   24.3530  -30.8420 O   0  0  0  0  0  0  0  0  0  0  0  0
   -4.9180   22.5090  -31.9550 N   0  0  0  0  0  0  0  0  0  0  0  0
   -3.5930   22.1870  -32.4050 C   0  0  0  0  0  0  0  0  0  0  0  0
   -2.8060   21.4200  -31.3580 C   0  0  0  0  0  0  0  0  0  0  0  0
   -1.9640   22.3060  -30.5650 C   0  0  0  0  0  0  0  0  0  0  0  0
   -1.2950   23.0380  -29.9340 N   0  0  0  0  0  0  0  0  0  0  0  0
   -5.3734   17.4548  -31.5775 H   0  0  0  0  0  0  0  0  0  0  0  0
   -6.9324   18.3132  -31.8210 H   0  0  0  0  0  0  0  0  0  0  0  0
   -6.8863   16.5176  -31.8210 H   0  0  0  0  0  0  0  0  0  0  0  0
   -5.0594   17.1562  -33.7697 H   0  0  0  0  0  0  0  0  0  0  0  0
   -6.8095   16.7192  -34.0277 H   0  0  0  0  0  0  0  0  0  0  0  0
   -9.2671   21.2172  -32.0362 H   0  0  0  0  0  0  0  0  0  0  0  0
   -8.7270   19.3360  -33.3800 H   0  0  0  0  0  0  0  0  0  0  0  0
   -6.7647   24.7599  -28.8803 H   0  0  0  0  0  0  0  0  0  0  0  0
   -6.1122   25.8344  -30.1634 H   0  0  0  0  0  0  0  0  0  0  0  0
   -7.8526   25.3898  -30.1634 H   0  0  0  0  0  0  0  0  0  0  0  0
   -3.6666   21.5724  -33.3143 H   0  0  0  0  0  0  0  0  0  0  0  0
   -3.0636   23.1306  -32.6033 H   0  0  0  0  0  0  0  0  0  0  0  0
   -3.5103   20.9036  -30.6892 H   0  0  0  0  0  0  0  0  0  0  0  0
   -2.1559   20.6993  -31.8756 H   0  0  0  0  0  0  0  0  0  0  0  0
  1  2  1  0
  2  3  1  0
  3  4  2  0
  4  5  1  0
  5  6  2  0
  6  7  1  0
  7  8  2  0
  8  9  1  0
  7 10  1  0
 10 11  2  0
 11 12  1  0
 11 13  1  0
 13 14  2  0
 13 15  1  0
 15 16  1  0
 16 17  1  0
 17 18  1  0
 18 19  3  0
  9  4  1  0
 15  6  1  0
  1 20  1  0
  1 21  1  0
  1 22  1  0
  2 23  1  0
  2 24  1  0
  8 25  1  0
  9 26  1  0
 12 27  1  0
 12 28  1  0
 12 29  1  0
 16 30  1  0
 16 31  1  0
 17 32  1  0
 17 33  1  0
M  END
>  <smiles>  (16) 
CCN=c1nc2c(c[nH]1)nc(C)c(=O)n2CCC#N

>  <score_type>  (16) 
oracle

>  <origin>  (16) 
adg

>  <m_score__min__energy>  (16) 
-6.4100000000000001

>  <m_primary>  (16) 
energy

$$$$
16:0
     RDKit          3D

 38 37  0  0  0  0  0  0  0  0999 V2000
   -6.2990   24.1740  -29.9590 C   0  0  0  0  0  0  0  0  0  0  0  0
   -6.4730   22.6660  -30.1370 C   0  0  0  0  0  0  0  0  0  0  0  0
   -6.6450   22.2940  -31.5620 N   0  0  0  0  0  0  0  0  0  0  0  0
   -5.3950   22.3520  -32.3590 C   0  0  0  0  0  0  0  0  0  0  0  0
   -4.3350   21.3220  -31.9450 C   0  0  0  0  0  0  0  0  0  0  0  0
   -7.7490   23.0520  -32.1950 C   0  0  0  0  0  0  0  0  0  0  0  0
   -9.0910   22.3450  -31.9710 C   0  0  0  0  0  0  0  0  0  0  0  0
   -9.0160   20.9820  -32.3420 O   0  0  0  0  0  0  0  0  0  0  0  0
   -9.1110   20.1480  -31.2050 C   0  0  0  0  0  0  0  0  0  0  0  0
   -8.7900   18.7010  -31.5920 C   0  0  0  0  0  0  0  0  0  0  0  0
   -7.4590   18.5350  -32.3600 C   0  0  0  0  0  0  0  0  0  0  0  0
   -7.1730   19.6200  -33.3160 N   0  0  0  0  0  0  0  0  0  0  0  0
   -6.0810   19.2900  -34.2390 C   0  0  0  0  0  0  0  0  0  0  0  0
   -6.2711   24.4158  -28.8863 H   0  0  0  0  0  0  0  0  0  0  0  0
   -5.3581   24.4928  -30.4313 H   0  0  0  0  0  0  0  0  0  0  0  0
   -7.1426   24.6987  -30.4313 H   0  0  0  0  0  0  0  0  0  0  0  0
   -5.5823   22.1560  -29.7413 H   0  0  0  0  0  0  0  0  0  0  0  0
   -7.3790   22.3607  -29.5931 H   0  0  0  0  0  0  0  0  0  0  0  0
   -5.6508   22.1781  -33.4146 H   0  0  0  0  0  0  0  0  0  0  0  0
   -4.9552   23.3450  -32.1843 H   0  0  0  0  0  0  0  0  0  0  0  0
   -4.2824   21.2709  -30.8474 H   0  0  0  0  0  0  0  0  0  0  0  0
   -4.6074   20.3343  -32.3454 H   0  0  0  0  0  0  0  0  0  0  0  0
   -3.3556   21.6226  -32.3454 H   0  0  0  0  0  0  0  0  0  0  0  0
   -7.7938   24.0593  -31.7552 H   0  0  0  0  0  0  0  0  0  0  0  0
   -7.5593   23.1155  -33.2767 H   0  0  0  0  0  0  0  0  0  0  0  0
   -9.3600   22.4135  -30.9066 H   0  0  0  0  0  0  0  0  0  0  0  0
   -9.8530   22.8356  -32.5944 H   0  0  0  0  0  0  0  0  0  0  0  0
   -8.3958   20.4888  -30.4419 H   0  0  0  0  0  0  0  0  0  0  0  0
  -10.1341   20.1973  -30.8039 H   0  0  0  0  0  0  0  0  0  0  0  0
   -8.7352   18.1010  -30.6716 H   0  0  0  0  0  0  0  0  0  0  0  0
   -9.5909   18.3678  -32.2684 H   0  0  0  0  0  0  0  0  0  0  0  0
   -6.6401   18.4968  -31.6266 H   0  0  0  0  0  0  0  0  0  0  0  0
   -7.5474   17.6102  -32.9490 H   0  0  0  0  0  0  0  0  0  0  0  0
   -8.0360   19.7810  -33.8860 H   0  0  0  0  0  0  0  0  0  0  0  0
   -6.9580   20.5140  -32.8170 H   0  0  0  0  0  0  0  0  0  0  0  0
   -5.1837   19.0188  -33.6634 H   0  0  0  0  0  0  0  0  0  0  0  0
   -6.3802   18.4421  -34.8728 H   0  0  0  0  0  0  0  0  0  0  0  0
   -5.8605   20.1616  -34.8728 H   0  0  0  0  0  0  0  0  0  0  0  0
  1  2  1  0
  2  3  1  0
  3  4  1  0
  4  5  1  0
  3  6  1  0
  6  7  1  0
  7  8  1  0
  8  9  1  0
  9 10  1  0
 10 11  1  0
 11 12  1  0
 12 13  1  0
  1 14  1  0
  1 15  1  0
  1 16  1  0
  2 17  1  0
  2 18  1  0
  4 19  1  0
  4 20  1  0
  5 21  1  0
  5 22  1  0
  5 23  1  0
  6 24  1  0
  6 25  1  0
  7 26  1  0
  7 27  1  0
  9 28  1  0
  9 29  1  0
 10 30  1  0
 10 31  1  0
 11 32  1  0
 11 33  1  0
 12 34  1  0
 12 35  1  0
 13 36  1  0
 13 37  1  0
 13 38  1  0
M  CHG  1  12   1
M  END
>  <UniqueID>  (17) 
16

>  <SMILES>  (17) 
CCN(CC)CCOCCC[NH2+]C

>  <Energy>  (17) 
32.132778269925524

>  <Genealogy>  (17) 
CCN(CC)CCOCCC[NH2+]C (protonated)
CCN(CC)CCOCCC[NH2+]C (3D coordinates assigned)
CCN(CC)CCOCCC[NH2+]C (optimized conformer: 32.132778269925524 kcal/mol)

>  <smiles>  (17) 
CCN(CC)CCOCCCNC

>  <score_type>  (17) 
oracle

>  <origin>  (17) 
adg

>  <m_score__min__energy>  (17) 
-3.1499999999999999

>  <m_primary>  (17) 
energy

$$$$
17:0
     RDKit          3D

 53 55  0  0  0  0  0  0  0  0999 V2000
   -5.1570   19.0650  -33.8520 C   0  0  0  0  0  0  0  0  0  0  0  0
   -6.3710   19.9870  -33.7890 C   0  0  0  0  0  0  0  0  0  0  0  0
   -6.9830   19.9400  -32.4430 N   0  0  0  0  0  0  0  0  0  0  0  0
   -6.4930   18.7860  -31.6470 C   0  0  0  0  0  0  0  0  0  0  0  0
   -7.1800   17.4550  -31.9820 C   0  0  0  0  0  0  0  0  0  0  0  0
   -8.4600   20.0430  -32.5140 C   0  0  0  0  0  0  0  0  0  0  0  0
   -8.9600   21.4280  -32.0860 C   0  0  0  0  0  0  0  0  0  0  0  0
   -8.2650   21.8560  -30.8650 N   0  0  0  0  0  0  0  0  0  0  0  0
   -7.7320   23.2220  -30.9910 C   0  0  0  0  0  0  0  0  0  0  0  0
   -6.2300   23.2320  -31.1000 C   0  0  0  0  0  0  0  0  0  0  0  0
   -5.4970   22.1930  -31.5340 N   0  0  0  0  0  0  0  0  0  0  0  0
   -4.2270   22.6510  -31.5410 C   0  0  0  0  0  0  0  0  0  0  0  0
   -3.0570   21.8660  -31.9900 C   0  0  0  0  0  0  0  0  0  0  0  0
   -2.9790   21.5440  -33.3550 C   0  0  0  0  0  0  0  0  0  0  0  0
   -1.9470   20.7440  -33.8420 C   0  0  0  0  0  0  0  0  0  0  0  0
   -0.9680   20.2570  -32.9780 C   0  0  0  0  0  0  0  0  0  0  0  0
   -0.9980   20.5890  -31.6170 C   0  0  0  0  0  0  0  0  0  0  0  0
    0.0090   20.1200  -30.7600 C   0  0  0  0  0  0  0  0  0  0  0  0
    0.0100   20.4800  -29.4120 C   0  0  0  0  0  0  0  0  0  0  0  0
   -0.9840   21.3190  -28.9100 C   0  0  0  0  0  0  0  0  0  0  0  0
   -1.9970   21.7910  -29.7480 C   0  0  0  0  0  0  0  0  0  0  0  0
   -2.0390   21.4150  -31.1080 C   0  0  0  0  0  0  0  0  0  0  0  0
   -4.1550   23.9070  -31.1540 O   0  0  0  0  0  0  0  0  0  0  0  0
   -5.3770   24.2950  -30.8710 C   0  0  0  0  0  0  0  0  0  0  0  0
   -5.7380   25.6660  -30.4020 C   0  0  0  0  0  0  0  0  0  0  0  0
   -4.8311   18.8175  -32.8309 H   0  0  0  0  0  0  0  0  0  0  0  0
   -5.4255   18.1411  -34.3852 H   0  0  0  0  0  0  0  0  0  0  0  0
   -4.3391   19.5716  -34.3852 H   0  0  0  0  0  0  0  0  0  0  0  0
   -6.0555   21.0177  -34.0082 H   0  0  0  0  0  0  0  0  0  0  0  0
   -7.1120   19.6536  -34.5305 H   0  0  0  0  0  0  0  0  0  0  0  0
   -5.4142   18.6734  -31.8303 H   0  0  0  0  0  0  0  0  0  0  0  0
   -6.7251   19.0060  -30.5945 H   0  0  0  0  0  0  0  0  0  0  0  0
   -7.4479   16.9359  -31.0499 H   0  0  0  0  0  0  0  0  0  0  0  0
   -8.0903   17.6495  -32.5681 H   0  0  0  0  0  0  0  0  0  0  0  0
   -6.4941   16.8257  -32.5681 H   0  0  0  0  0  0  0  0  0  0  0  0
   -8.7799   19.8542  -33.5494 H   0  0  0  0  0  0  0  0  0  0  0  0
   -8.8862   19.2996  -31.8243 H   0  0  0  0  0  0  0  0  0  0  0  0
   -8.7625   22.1516  -32.8906 H   0  0  0  0  0  0  0  0  0  0  0  0
  -10.0409   21.3772  -31.8881 H   0  0  0  0  0  0  0  0  0  0  0  0
   -7.4740   21.1960  -30.6740 H   0  0  0  0  0  0  0  0  0  0  0  0
   -8.1569   23.6876  -31.8925 H   0  0  0  0  0  0  0  0  0  0  0  0
   -8.0114   23.7813  -30.0860 H   0  0  0  0  0  0  0  0  0  0  0  0
   -5.8440   21.2580  -31.8420 H   0  0  0  0  0  0  0  0  0  0  0  0
   -3.7419   21.9280  -34.0482 H   0  0  0  0  0  0  0  0  0  0  0  0
   -1.9050   20.4959  -34.9128 H   0  0  0  0  0  0  0  0  0  0  0  0
   -0.1682   19.6092  -33.3661 H   0  0  0  0  0  0  0  0  0  0  0  0
    0.8012   19.4656  -31.1526 H   0  0  0  0  0  0  0  0  0  0  0  0
    0.7971   20.1009  -28.7436 H   0  0  0  0  0  0  0  0  0  0  0  0
   -0.9704   21.6105  -27.8494 H   0  0  0  0  0  0  0  0  0  0  0  0
   -2.7694   22.4621  -29.3443 H   0  0  0  0  0  0  0  0  0  0  0  0
   -5.7437   25.6877  -29.3022 H   0  0  0  0  0  0  0  0  0  0  0  0
   -4.9996   26.3888  -30.7791 H   0  0  0  0  0  0  0  0  0  0  0  0
   -6.7367   25.9314  -30.7791 H   0  0  0  0  0  0  0  0  0  0  0  0
  1  2  1  0
  2  3  1  0
  3  4  1  0
  4  5  1  0
  3  6  1  0
  6  7  1  0
  7  8  1  0
  8  9  1  0
  9 10  1  0
 10 11  1  0
 11 12  2  0
 12 13  1  0
 13 14  2  0
 14 15  1  0
 15 16  2  0
 16 17  1  0
 17 18  2  0
 18 19  1  0
 19 20  2  0
 20 21  1  0
 21 22  2  0
 12 23  1  0
 23 24  1  0
 24 25  1  0
 24 10  2  0
 22 13  1  0
 22 17  1  0
  1 26  1  0
  1 27  1  0
  1 28  1  0
  2 29  1  0
  2 30  1  0
  4 31  1  0
  4 32  1  0
  5 33  1  0
  5 34  1  0
  5 35  1  0
  6 36  1  0
  6 37  1  0
  7 38  1  0
  7 39  1  0
  8 40  1  0
  9 41  1  0
  9 42  1  0
 11 43  1  0
 14 44  1  0
 15 45  1  0
 16 46  1  0
 18 47  1  0
 19 48  1  0
 20 49  1  0
 21 50  1  0
 25 51  1  0
 25 52  1  0
 25 53  1  0
M  CHG  1  11   1
M  END
>  <UniqueID>  (18) 
17

>  <SMILES>  (18) 
CCN(CC)CCNCc1[nH+]c(-c2cccc3ccccc23)oc1C

>  <Energy>  (18) 
92.59306471287275

>  <Genealogy>  (18) 
CCN(CC)CCNCc1[nH+]c(-c2cccc3ccccc23)oc1C (protonated)
CCN(CC)CCNCc1[nH+]c(-c2cccc3ccccc23)oc1C (3D coordinates assigned)
CCN(CC)CCNCc1[nH+]c(-c2cccc3ccccc23)oc1C (optimized conformer: 92.59306471287275 kcal/mol)

>  <smiles>  (18) 
CCN(CC)CCNCc1nc(-c2cccc3ccccc23)oc1C

>  <score_type>  (18) 
oracle

>  <origin>  (18) 
adg

>  <m_score__min__energy>  (18) 
-7.2999999999999998

>  <m_primary>  (18) 
energy

$$$$
18:0
     RDKit          3D

 69 72  0  0  0  0  0  0  0  0999 V2000
   -4.0540   24.1900  -28.1840 C   0  0  0  0  0  0  0  0  0  0  0  0
   -3.2860   24.5470  -29.4640 C   0  0  0  0  0  0  0  0  0  0  0  0
   -4.1040   24.3570  -30.6870 N   0  0  0  0  0  0  0  0  0  0  0  0
   -5.3150   25.2010  -30.6530 C   0  0  0  0  0  0  0  0  0  0  0  0
   -4.4810   22.9320  -30.7930 C   0  0  0  0  0  0  0  0  0  0  0  0
   -3.7280   22.2180  -31.9350 C   0  0  0  0  0  0  0  0  0  0  0  0
   -4.5990   21.9790  -33.0900 N   0  0  0  0  0  0  0  0  0  0  0  0
   -5.6950   21.0580  -32.9790 C   0  0  0  0  0  0  0  0  0  0  0  0
   -6.9470   21.5100  -32.5330 C   0  0  0  0  0  0  0  0  0  0  0  0
   -7.1910   22.8820  -32.3450 C   0  0  0  0  0  0  0  0  0  0  0  0
   -8.4440   23.3350  -31.9430 C   0  0  0  0  0  0  0  0  0  0  0  0
   -9.4700   22.4240  -31.7180 C   0  0  0  0  0  0  0  0  0  0  0  0
   -9.2440   21.0600  -31.8800 C   0  0  0  0  0  0  0  0  0  0  0  0
   -7.9740   20.5680  -32.2720 C   0  0  0  0  0  0  0  0  0  0  0  0
   -7.7250   19.2130  -32.4120 N   0  0  0  0  0  0  0  0  0  0  0  0
   -8.6810   18.2210  -31.8740 C   0  0  0  0  0  0  0  0  0  0  0  0
   -6.5690   18.7860  -33.0410 C   0  0  0  0  0  0  0  0  0  0  0  0
   -6.3850   17.4400  -33.4300 C   0  0  0  0  0  0  0  0  0  0  0  0
   -5.1780   17.0130  -33.9840 C   0  0  0  0  0  0  0  0  0  0  0  0
   -4.1310   17.9040  -34.2080 C   0  0  0  0  0  0  0  0  0  0  0  0
   -2.9310   17.3850  -34.7260 O   0  0  0  0  0  0  0  0  0  0  0  0
   -1.8680   16.7760  -33.9910 C   0  0  0  0  0  0  0  0  0  0  0  0
   -1.5150   17.6610  -32.7780 C   0  0  0  0  0  0  0  0  0  0  0  0
   -0.6720   18.8530  -33.1140 N   0  0  0  0  0  0  0  0  0  0  0  0
    0.6760   18.7430  -32.4940 C   0  0  0  0  0  0  0  0  0  0  0  0
   -0.5260   18.9640  -34.5830 C   0  0  0  0  0  0  0  0  0  0  0  0
   -0.3000   20.4370  -34.9050 C   0  0  0  0  0  0  0  0  0  0  0  0
   -0.9090   21.1920  -33.7350 C   0  0  0  0  0  0  0  0  0  0  0  0
   -1.3260   20.1260  -32.7240 C   0  0  0  0  0  0  0  0  0  0  0  0
   -4.3140   19.2580  -33.8840 C   0  0  0  0  0  0  0  0  0  0  0  0
   -5.5220   19.7040  -33.3040 C   0  0  0  0  0  0  0  0  0  0  0  0
   -3.4532   24.4693  -27.3059 H   0  0  0  0  0  0  0  0  0  0  0  0
   -5.0082   24.7369  -28.1643 H   0  0  0  0  0  0  0  0  0  0  0  0
   -4.2510   23.1080  -28.1643 H   0  0  0  0  0  0  0  0  0  0  0  0
   -2.9754   25.6007  -29.4071 H   0  0  0  0  0  0  0  0  0  0  0  0
   -2.4188   23.8738  -29.5331 H   0  0  0  0  0  0  0  0  0  0  0  0
   -5.5961   25.3969  -29.6077 H   0  0  0  0  0  0  0  0  0  0  0  0
   -5.1120   26.1543  -31.1630 H   0  0  0  0  0  0  0  0  0  0  0  0
   -6.1391   24.6806  -31.1630 H   0  0  0  0  0  0  0  0  0  0  0  0
   -4.2438   22.4304  -29.8432 H   0  0  0  0  0  0  0  0  0  0  0  0
   -5.5577   22.8809  -31.0121 H   0  0  0  0  0  0  0  0  0  0  0  0
   -2.8809   22.8448  -32.2505 H   0  0  0  0  0  0  0  0  0  0  0  0
   -3.3787   21.2445  -31.5605 H   0  0  0  0  0  0  0  0  0  0  0  0
   -4.5670   22.6090  -33.9260 H   0  0  0  0  0  0  0  0  0  0  0  0
   -6.3814   23.6063  -32.5178 H   0  0  0  0  0  0  0  0  0  0  0  0
   -8.6223   24.4115  -31.8036 H   0  0  0  0  0  0  0  0  0  0  0  0
  -10.4636   22.7823  -31.4109 H   0  0  0  0  0  0  0  0  0  0  0  0
  -10.0659   20.3513  -31.7005 H   0  0  0  0  0  0  0  0  0  0  0  0
   -8.6562   18.2467  -30.7746 H   0  0  0  0  0  0  0  0  0  0  0  0
   -9.6956   18.4625  -32.2236 H   0  0  0  0  0  0  0  0  0  0  0  0
   -8.4022   17.2160  -32.2236 H   0  0  0  0  0  0  0  0  0  0  0  0
   -7.2047   16.7191  -33.2941 H   0  0  0  0  0  0  0  0  0  0  0  0
   -5.0507   15.9530  -34.2489 H   0  0  0  0  0  0  0  0  0  0  0  0
   -2.1851   15.7825  -33.6412 H   0  0  0  0  0  0  0  0  0  0  0  0
   -0.9855   16.6696  -34.6390 H   0  0  0  0  0  0  0  0  0  0  0  0
   -2.4525   18.0174  -32.3262 H   0  0  0  0  0  0  0  0  0  0  0  0
   -0.9226   17.0372  -32.0925 H   0  0  0  0  0  0  0  0  0  0  0  0
    0.5775   18.7510  -31.3985 H   0  0  0  0  0  0  0  0  0  0  0  0
    1.1505   17.8031  -32.8126 H   0  0  0  0  0  0  0  0  0  0  0  0
    1.2966   19.5935  -32.8126 H   0  0  0  0  0  0  0  0  0  0  0  0
    0.3342   18.3681  -34.9221 H   0  0  0  0  0  0  0  0  0  0  0  0
   -1.4242   18.5866  -35.0937 H   0  0  0  0  0  0  0  0  0  0  0  0
    0.7751   20.6543  -34.9881 H   0  0  0  0  0  0  0  0  0  0  0  0
   -0.7540   20.7251  -35.8646 H   0  0  0  0  0  0  0  0  0  0  0  0
   -0.1677   21.8724  -33.2905 H   0  0  0  0  0  0  0  0  0  0  0  0
   -1.7645   21.8070  -34.0511 H   0  0  0  0  0  0  0  0  0  0  0  0
   -1.0017   20.4198  -31.7148 H   0  0  0  0  0  0  0  0  0  0  0  0
   -2.4198   20.0101  -32.7159 H   0  0  0  0  0  0  0  0  0  0  0  0
   -3.5078   19.9791  -34.0841 H   0  0  0  0  0  0  0  0  0  0  0  0
  1  2  1  0
  2  3  1  0
  3  4  1  0
  3  5  1  0
  5  6  1  0
  6  7  1  0
  7  8  1  0
  8  9  2  0
  9 10  1  0
 10 11  2  0
 11 12  1  0
 12 13  2  0
 13 14  1  0
 14 15  2  0
 15 16  1  0
 15 17  1  0
 17 18  2  0
 18 19  1  0
 19 20  2  0
 20 21  1  0
 21 22  1  0
 22 23  1  0
 23 24  1  0
 24 25  1  0
 24 26  1  0
 26 27  1  0
 27 28  1  0
 28 29  1  0
 20 30  1  0
 30 31  2  0
 31  8  1  0
 14  9  1  0
 31 17  1  0
 29 24  1  0
  1 32  1  0
  1 33  1  0
  1 34  1  0
  2 35  1  0
  2 36  1  0
  4 37  1  0
  4 38  1  0
  4 39  1  0
  5 40  1  0
  5 41  1  0
  6 42  1  0
  6 43  1  0
  7 44  1  0
 10 45  1  0
 11 46  1  0
 12 47  1  0
 13 48  1  0
 16 49  1  0
 16 50  1  0
 16 51  1  0
 18 52  1  0
 19 53  1  0
 22 54  1  0
 22 55  1  0
 23 56  1  0
 23 57  1  0
 25 58  1  0
 25 59  1  0
 25 60  1  0
 26 61  1  0
 26 62  1  0
 27 63  1  0
 27 64  1  0
 28 65  1  0
 28 66  1  0
 29 67  1  0
 29 68  1  0
 30 69  1  0
M  CHG  2  15   1  24   1
M  END
>  <UniqueID>  (19) 
18

>  <SMILES>  (19) 
CCN(C)CCNc1c2ccccc2[n+](C)c2ccc(OCC[N+]3(C)CCCC3)cc12

>  <Energy>  (19) 
110.21035768686754

>  <Genealogy>  (19) 
CCN(C)CCNc1c2ccccc2[n+](C)c2ccc(OCC[N+]3(C)CCCC3)cc12 (3D coordinates assigned)
CCN(C)CCNc1c2ccccc2[n+](C)c2ccc(OCC[N+]3(C)CCCC3)cc12 (nonaromatic ring conformer: 110.21035768686754 kcal/mol)

>  <smiles>  (19) 
CCN(C)CCNc1c2ccccc2[n+](C)c2ccc(OCC[N+]3(C)CCCC3)cc12

>  <score_type>  (19) 
oracle

>  <origin>  (19) 
adg

>  <m_score__min__energy>  (19) 
-8.4499999999999993

>  <m_primary>  (19) 
energy

$$$$
19:0
     RDKit          3D

 60 61  0  0  0  0  0  0  0  0999 V2000
   -2.6990   19.0070  -26.6660 C   0  0  0  0  0  0  0  0  0  0  0  0
   -2.7330   20.3230  -27.4420 C   0  0  0  0  0  0  0  0  0  0  0  0
   -1.5450   20.4550  -28.3150 N   0  0  0  0  0  0  0  0  0  0  0  0
   -0.5460   21.3930  -27.7370 C   0  0  0  0  0  0  0  0  0  0  0  0
   -1.1160   22.0330  -26.4780 C   0  0  0  0  0  0  0  0  0  0  0  0
   -1.9510   20.8530  -29.6830 C   0  0  0  0  0  0  0  0  0  0  0  0
   -1.1870   22.0930  -30.1610 C   0  0  0  0  0  0  0  0  0  0  0  0
   -2.0600   23.2070  -30.1890 O   0  0  0  0  0  0  0  0  0  0  0  0
   -3.3970   22.8180  -29.9230 C   0  0  0  0  0  0  0  0  0  0  0  0
   -4.2850   24.0150  -29.5560 C   0  0  0  0  0  0  0  0  0  0  0  0
   -4.1120   25.0700  -30.4840 O   0  0  0  0  0  0  0  0  0  0  0  0
   -5.3220   25.3270  -31.1680 C   0  0  0  0  0  0  0  0  0  0  0  0
   -6.1910   24.0710  -31.1680 C   0  0  0  0  0  0  0  0  0  0  0  0
   -6.0710   23.3400  -32.4310 N   0  0  0  0  0  0  0  0  0  0  0  0
   -5.8750   21.9130  -32.5200 C   0  0  0  0  0  0  0  0  0  0  0  0
   -4.6060   21.4030  -32.8010 C   0  0  0  0  0  0  0  0  0  0  0  0
   -4.4120   20.0340  -32.9430 C   0  0  0  0  0  0  0  0  0  0  0  0
   -5.4500   19.1520  -32.8220 N   0  0  0  0  0  0  0  0  0  0  0  0
   -5.1360   17.7200  -33.0000 C   0  0  0  0  0  0  0  0  0  0  0  0
   -4.4360   17.4840  -34.3380 C   0  0  0  0  0  0  0  0  0  0  0  0
   -6.7300   19.6150  -32.5720 C   0  0  0  0  0  0  0  0  0  0  0  0
   -7.8400   18.7380  -32.5000 C   0  0  0  0  0  0  0  0  0  0  0  0
   -9.1160   19.2190  -32.2100 C   0  0  0  0  0  0  0  0  0  0  0  0
   -9.3170   20.5720  -31.9650 C   0  0  0  0  0  0  0  0  0  0  0  0
   -8.2510   21.4620  -32.0450 C   0  0  0  0  0  0  0  0  0  0  0  0
   -6.9570   21.0110  -32.3830 C   0  0  0  0  0  0  0  0  0  0  0  0
   -2.7044   19.2177  -25.5864 H   0  0  0  0  0  0  0  0  0  0  0  0
   -3.5819   18.4048  -26.9265 H   0  0  0  0  0  0  0  0  0  0  0  0
   -1.7862   18.4512  -26.9265 H   0  0  0  0  0  0  0  0  0  0  0  0
   -3.6406   20.3511  -28.0629 H   0  0  0  0  0  0  0  0  0  0  0  0
   -2.7328   21.1545  -26.7219 H   0  0  0  0  0  0  0  0  0  0  0  0
    0.3712   20.8410  -27.4841 H   0  0  0  0  0  0  0  0  0  0  0  0
   -0.3125   22.1772  -28.4722 H   0  0  0  0  0  0  0  0  0  0  0  0
   -0.6830   21.5469  -25.5913 H   0  0  0  0  0  0  0  0  0  0  0  0
   -0.8676   23.1045  -26.4667 H   0  0  0  0  0  0  0  0  0  0  0  0
   -2.2090   21.9098  -26.4667 H   0  0  0  0  0  0  0  0  0  0  0  0
   -1.7468   20.0204  -30.3722 H   0  0  0  0  0  0  0  0  0  0  0  0
   -3.0238   21.0956  -29.6662 H   0  0  0  0  0  0  0  0  0  0  0  0
   -0.3541   22.2978  -29.4723 H   0  0  0  0  0  0  0  0  0  0  0  0
   -0.7929   21.9121  -31.1719 H   0  0  0  0  0  0  0  0  0  0  0  0
   -3.8098   22.3318  -30.8192 H   0  0  0  0  0  0  0  0  0  0  0  0
   -3.3850   22.1298  -29.0650 H   0  0  0  0  0  0  0  0  0  0  0  0
   -5.3384   23.6982  -29.5617 H   0  0  0  0  0  0  0  0  0  0  0  0
   -3.9995   24.3735  -28.5560 H   0  0  0  0  0  0  0  0  0  0  0  0
   -5.8601   26.1437  -30.6646 H   0  0  0  0  0  0  0  0  0  0  0  0
   -5.0992   25.6155  -32.2059 H   0  0  0  0  0  0  0  0  0  0  0  0
   -5.8735   23.4158  -30.3434 H   0  0  0  0  0  0  0  0  0  0  0  0
   -7.2405   24.3754  -31.0418 H   0  0  0  0  0  0  0  0  0  0  0  0
   -6.1240   23.9040  -33.3080 H   0  0  0  0  0  0  0  0  0  0  0  0
   -3.7536   22.0896  -32.9108 H   0  0  0  0  0  0  0  0  0  0  0  0
   -3.4028   19.6522  -33.1571 H   0  0  0  0  0  0  0  0  0  0  0  0
   -4.4761   17.3906  -32.1839 H   0  0  0  0  0  0  0  0  0  0  0  0
   -6.0749   17.1471  -32.9856 H   0  0  0  0  0  0  0  0  0  0  0  0
   -3.4077   17.1373  -34.1577 H   0  0  0  0  0  0  0  0  0  0  0  0
   -4.9852   16.7213  -34.9096 H   0  0  0  0  0  0  0  0  0  0  0  0
   -4.4113   18.4235  -34.9096 H   0  0  0  0  0  0  0  0  0  0  0  0
   -7.6931   17.6621  -32.6754 H   0  0  0  0  0  0  0  0  0  0  0  0
   -9.9679   18.5240  -32.1749 H   0  0  0  0  0  0  0  0  0  0  0  0
  -10.3211   20.9399  -31.7073 H   0  0  0  0  0  0  0  0  0  0  0  0
   -8.4185   22.5301  -31.8424 H   0  0  0  0  0  0  0  0  0  0  0  0
  1  2  1  0
  2  3  1  0
  3  4  1  0
  4  5  1  0
  3  6  1  0
  6  7  1  0
  7  8  1  0
  8  9  1  0
  9 10  1  0
 10 11  1  0
 11 12  1  0
 12 13  1  0
 13 14  1  0
 14 15  1  0
 15 16  2  0
 16 17  1  0
 17 18  2  0
 18 19  1  0
 19 20  1  0
 18 21  1  0
 21 22  2  0
 22 23  1  0
 23 24  2  0
 24 25  1  0
 25 26  2  0
 26 15  1  0
 26 21  1  0
  1 27  1  0
  1 28  1  0
  1 29  1  0
  2 30  1  0
  2 31  1  0
  4 32  1  0
  4 33  1  0
  5 34  1  0
  5 35  1  0
  5 36  1  0
  6 37  1  0
  6 38  1  0
  7 39  1  0
  7 40  1  0
  9 41  1  0
  9 42  1  0
 10 43  1  0
 10 44  1  0
 12 45  1  0
 12 46  1  0
 13 47  1  0
 13 48  1  0
 14 49  1  0
 16 50  1  0
 17 51  1  0
 19 52  1  0
 19 53  1  0
 20 54  1  0
 20 55  1  0
 20 56  1  0
 22 57  1  0
 23 58  1  0
 24 59  1  0
 25 60  1  0
M  CHG  1  18   1
M  END
>  <UniqueID>  (20) 
19

>  <SMILES>  (20) 
CCN(CC)CCOCCOCCNc1cc[n+](CC)c2ccccc12

>  <Energy>  (20) 
61.779153201415475

>  <Genealogy>  (20) 
CCN(CC)CCOCCOCCNc1cc[n+](CC)c2ccccc12 (3D coordinates assigned)
CCN(CC)CCOCCOCCNc1cc[n+](CC)c2ccccc12 (optimized conformer: 61.779153201415475 kcal/mol)

>  <smiles>  (20) 
CCN(CC)CCOCCOCCNc1cc[n+](CC)c2ccccc12

>  <score_type>  (20) 
oracle

>  <origin>  (20) 
adg

>  <m_score__min__energy>  (20) 
-8.0600000000000005

>  <m_primary>  (20) 
energy

$$$$
20:0
     RDKit          3D

 58 61  0  0  0  0  0  0  0  0999 V2000
   -4.5870   14.4590  -32.3380 C   0  0  0  0  0  0  0  0  0  0  0  0
   -3.5540   14.1890  -33.4410 C   0  0  0  0  0  0  0  0  0  0  0  0
   -2.8300   15.4010  -33.9000 N   0  0  0  0  0  0  0  0  0  0  0  0
   -1.3620   15.2250  -34.0170 C   0  0  0  0  0  0  0  0  0  0  0  0
   -0.6040   15.8880  -32.8670 C   0  0  0  0  0  0  0  0  0  0  0  0
   -3.4060   15.9620  -35.1450 C   0  0  0  0  0  0  0  0  0  0  0  0
   -3.8390   17.4240  -34.9340 C   0  0  0  0  0  0  0  0  0  0  0  0
   -3.5180   17.9500  -33.6000 N   0  0  0  0  0  0  0  0  0  0  0  0
   -3.9750   19.2140  -33.0820 C   0  0  0  0  0  0  0  0  0  0  0  0
   -3.1000   20.3070  -33.0580 C   0  0  0  0  0  0  0  0  0  0  0  0
   -1.2760   20.1800  -33.6410 Br  0  0  0  0  0  0  0  0  0  0  0  0
   -3.5070   21.4940  -32.4700 C   0  0  0  0  0  0  0  0  0  0  0  0
   -4.8170   21.6480  -31.9800 C   0  0  0  0  0  0  0  0  0  0  0  0
   -5.2350   22.8120  -31.2700 C   0  0  0  0  0  0  0  0  0  0  0  0
   -4.3060   23.7960  -30.8390 C   0  0  0  0  0  0  0  0  0  0  0  0
   -4.7150   24.8990  -30.0950 C   0  0  0  0  0  0  0  0  0  0  0  0
   -6.0450   25.0430  -29.7400 C   0  0  0  0  0  0  0  0  0  0  0  0
   -6.9820   24.0940  -30.1360 C   0  0  0  0  0  0  0  0  0  0  0  0
   -6.6080   22.9710  -30.9210 C   0  0  0  0  0  0  0  0  0  0  0  0
   -7.5660   22.0280  -31.3920 C   0  0  0  0  0  0  0  0  0  0  0  0
   -8.9640   22.2400  -31.2610 C   0  0  0  0  0  0  0  0  0  0  0  0
   -9.8840   21.3610  -31.8290 C   0  0  0  0  0  0  0  0  0  0  0  0
   -9.4420   20.2810  -32.5740 C   0  0  0  0  0  0  0  0  0  0  0  0
   -8.0790   20.0440  -32.7140 C   0  0  0  0  0  0  0  0  0  0  0  0
   -7.1190   20.8540  -32.0670 C   0  0  0  0  0  0  0  0  0  0  0  0
   -5.7260   20.5820  -32.1920 C   0  0  0  0  0  0  0  0  0  0  0  0
   -5.2330   19.3270  -32.5300 N   0  0  0  0  0  0  0  0  0  0  0  0
   -5.8600   18.1010  -31.9700 C   0  0  0  0  0  0  0  0  0  0  0  0
   -6.5770   17.2430  -33.0210 C   0  0  0  0  0  0  0  0  0  0  0  0
   -4.1128   14.3351  -31.3532 H   0  0  0  0  0  0  0  0  0  0  0  0
   -4.9671   15.4867  -32.4352 H   0  0  0  0  0  0  0  0  0  0  0  0
   -5.4213   13.7488  -32.4352 H   0  0  0  0  0  0  0  0  0  0  0  0
   -2.8158   13.4705  -33.0552 H   0  0  0  0  0  0  0  0  0  0  0  0
   -4.1086   13.8019  -34.3085 H   0  0  0  0  0  0  0  0  0  0  0  0
   -1.1338   14.1489  -34.0171 H   0  0  0  0  0  0  0  0  0  0  0  0
   -1.0394   15.7045  -34.9529 H   0  0  0  0  0  0  0  0  0  0  0  0
   -1.0095   15.5334  -31.9079 H   0  0  0  0  0  0  0  0  0  0  0  0
    0.4628   15.6278  -32.9328 H   0  0  0  0  0  0  0  0  0  0  0  0
   -0.7198   16.9799  -32.9328 H   0  0  0  0  0  0  0  0  0  0  0  0
   -2.6500   15.9210  -35.9430 H   0  0  0  0  0  0  0  0  0  0  0  0
   -4.2890   15.3686  -35.4247 H   0  0  0  0  0  0  0  0  0  0  0  0
   -3.3314   18.0480  -35.6844 H   0  0  0  0  0  0  0  0  0  0  0  0
   -4.9340   17.4520  -35.0349 H   0  0  0  0  0  0  0  0  0  0  0  0
   -2.7940   17.4380  -33.0490 H   0  0  0  0  0  0  0  0  0  0  0  0
   -2.7953   22.3284  -32.3850 H   0  0  0  0  0  0  0  0  0  0  0  0
   -3.2428   23.6843  -31.0981 H   0  0  0  0  0  0  0  0  0  0  0  0
   -3.9798   25.6577  -29.7886 H   0  0  0  0  0  0  0  0  0  0  0  0
   -6.3622   25.9106  -29.1428 H   0  0  0  0  0  0  0  0  0  0  0  0
   -8.0331   24.2158  -29.8353 H   0  0  0  0  0  0  0  0  0  0  0  0
   -9.3273   23.1142  -30.7008 H   0  0  0  0  0  0  0  0  0  0  0  0
  -10.9621   21.5253  -31.6854 H   0  0  0  0  0  0  0  0  0  0  0  0
  -10.1691   19.6104  -33.0552 H   0  0  0  0  0  0  0  0  0  0  0  0
   -7.7406   19.2071  -33.3426 H   0  0  0  0  0  0  0  0  0  0  0  0
   -5.0736   17.4914  -31.5010 H   0  0  0  0  0  0  0  0  0  0  0  0
   -6.6216   18.4293  -31.2474 H   0  0  0  0  0  0  0  0  0  0  0  0
   -7.2038   16.4930  -32.5165 H   0  0  0  0  0  0  0  0  0  0  0  0
   -7.2098   17.8864  -33.6500 H   0  0  0  0  0  0  0  0  0  0  0  0
   -5.8314   16.7346  -33.6500 H   0  0  0  0  0  0  0  0  0  0  0  0
  1  2  1  0
  2  3  1  0
  3  4  1  0
  4  5  1  0
  3  6  1  0
  6  7  1  0
  7  8  1  0
  8  9  1  0
  9 10  2  0
 10 11  1  0
 10 12  1  0
 12 13  2  0
 13 14  1  0
 14 15  2  0
 15 16  1  0
 16 17  2  0
 17 18  1  0
 18 19  2  0
 19 20  1  0
 20 21  2  0
 21 22  1  0
 22 23  2  0
 23 24  1  0
 24 25  2  0
 25 26  1  0
 26 27  2  0
 27 28  1  0
 28 29  1  0
 27  9  1  0
 26 13  1  0
 19 14  1  0
 25 20  1  0
  1 30  1  0
  1 31  1  0
  1 32  1  0
  2 33  1  0
  2 34  1  0
  4 35  1  0
  4 36  1  0
  5 37  1  0
  5 38  1  0
  5 39  1  0
  6 40  1  0
  6 41  1  0
  7 42  1  0
  7 43  1  0
  8 44  1  0
 12 45  1  0
 15 46  1  0
 16 47  1  0
 17 48  1  0
 18 49  1  0
 21 50  1  0
 22 51  1  0
 23 52  1  0
 24 53  1  0
 28 54  1  0
 28 55  1  0
 29 56  1  0
 29 57  1  0
 29 58  1  0
M  CHG  1  27   1
M  END
>  <UniqueID>  (21) 
20

>  <SMILES>  (21) 
CCN(CC)CCNc1c(Br)cc2c3ccccc3c3ccccc3c2[n+]1CC

>  <Energy>  (21) 
114.23977324111871

>  <Genealogy>  (21) 
CCN(CC)CCNc1c(Br)cc2c3ccccc3c3ccccc3c2[n+]1CC (3D coordinates assigned)
CCN(CC)CCNc1c(Br)cc2c3ccccc3c3ccccc3c2[n+]1CC (optimized conformer: 114.23977324111871 kcal/mol)

>  <smiles>  (21) 
CCN(CC)CCNc1c(Br)cc2c3ccccc3c3ccccc3c2[n+]1CC

>  <score_type>  (21) 
oracle

>  <origin>  (21) 
adg

>  <m_score__min__energy>  (21) 
-8.7799999999999994

>  <m_primary>  (21) 
energy

$$$$
21:0
     RDKit          3D

 35 36  0  0  0  0  0  0  0  0999 V2000
   -0.3500   21.8940  -27.5990 C   0  0  0  0  0  0  0  0  0  0  0  0
   -0.0940   23.1480  -28.4250 C   0  0  0  0  0  0  0  0  0  0  0  0
   -0.7590   23.0320  -29.7290 N   0  0  0  0  0  0  0  0  0  0  0  0
   -2.0500   22.3250  -29.6460 C   0  0  0  0  0  0  0  0  0  0  0  0
   -3.2010   23.2110  -29.1330 C   0  0  0  0  0  0  0  0  0  0  0  0
   -3.0350   24.6540  -29.5310 C   0  0  0  0  0  0  0  0  0  0  0  0
   -2.1230   25.3300  -28.9860 O   0  0  0  0  0  0  0  0  0  0  0  0
   -3.8640   25.2880  -30.5150 N   0  0  0  0  0  0  0  0  0  0  0  0
   -5.3230   25.3370  -30.5120 C   0  0  0  0  0  0  0  0  0  0  0  0
   -5.9040   24.0590  -31.0550 C   0  0  0  0  0  0  0  0  0  0  0  0
   -5.0960   23.1680  -31.8090 C   0  0  0  0  0  0  0  0  0  0  0  0
   -5.6400   21.9800  -32.3330 C   0  0  0  0  0  0  0  0  0  0  0  0
   -6.9860   21.7220  -32.0970 C   0  0  0  0  0  0  0  0  0  0  0  0
   -7.7680   22.5760  -31.3890 C   0  0  0  0  0  0  0  0  0  0  0  0
   -7.2710   23.7600  -30.8520 C   0  0  0  0  0  0  0  0  0  0  0  0
   -9.0520   22.0710  -31.3160 O   0  0  0  0  0  0  0  0  0  0  0  0
   -9.0780   20.8230  -32.0230 C   0  0  0  0  0  0  0  0  0  0  0  0
   -7.7400   20.6380  -32.5040 O   0  0  0  0  0  0  0  0  0  0  0  0
   -0.2991   22.1432  -26.5288 H   0  0  0  0  0  0  0  0  0  0  0  0
   -1.3479   21.4963  -27.8359 H   0  0  0  0  0  0  0  0  0  0  0  0
    0.4121   21.1370  -27.8359 H   0  0  0  0  0  0  0  0  0  0  0  0
   -0.4899   24.0240  -27.8903 H   0  0  0  0  0  0  0  0  0  0  0  0
    0.9888   23.2649  -28.5798 H   0  0  0  0  0  0  0  0  0  0  0  0
   -0.8910   23.9850  -30.1420 H   0  0  0  0  0  0  0  0  0  0  0  0
   -2.3123   21.9592  -30.6497 H   0  0  0  0  0  0  0  0  0  0  0  0
   -1.9251   21.5047  -28.9239 H   0  0  0  0  0  0  0  0  0  0  0  0
   -4.1478   22.8363  -29.5491 H   0  0  0  0  0  0  0  0  0  0  0  0
   -3.1972   23.1633  -28.0340 H   0  0  0  0  0  0  0  0  0  0  0  0
   -5.6764   25.4838  -29.4807 H   0  0  0  0  0  0  0  0  0  0  0  0
   -5.6482   26.1708  -31.1516 H   0  0  0  0  0  0  0  0  0  0  0  0
   -4.0370   23.4076  -31.9851 H   0  0  0  0  0  0  0  0  0  0  0  0
   -5.0203   21.2783  -32.9106 H   0  0  0  0  0  0  0  0  0  0  0  0
   -7.9222   24.4428  -30.2865 H   0  0  0  0  0  0  0  0  0  0  0  0
   -9.3625   20.0025  -31.3478 H   0  0  0  0  0  0  0  0  0  0  0  0
   -9.8130   20.8283  -32.8414 H   0  0  0  0  0  0  0  0  0  0  0  0
  1  2  1  0
  2  3  1  0
  3  4  1  0
  4  5  1  0
  5  6  1  0
  6  7  2  0
  6  8  1  0
  8  9  1  0
  9 10  1  0
 10 11  2  0
 11 12  1  0
 12 13  2  0
 13 14  1  0
 14 15  2  0
 14 16  1  0
 16 17  1  0
 17 18  1  0
 15 10  1  0
 18 13  1  0
  1 19  1  0
  1 20  1  0
  1 21  1  0
  2 22  1  0
  2 23  1  0
  3 24  1  0
  4 25  1  0
  4 26  1  0
  5 27  1  0
  5 28  1  0
  9 29  1  0
  9 30  1  0
 11 31  1  0
 12 32  1  0
 15 33  1  0
 17 34  1  0
 17 35  1  0
M  CHG  1   8  -1
M  END
>  <UniqueID>  (22) 
21

>  <SMILES>  (22) 
CCNCCC(=O)[N-]Cc1ccc2c(c1)OCO2

>  <Energy>  (22) 
56.805402658499595

>  <Genealogy>  (22) 
CCNCCC(=O)[N-]Cc1ccc2c(c1)OCO2 (protonated)
CCNCCC(=O)[N-]Cc1ccc2c(c1)OCO2 (3D coordinates assigned)
CCNCCC(=O)[N-]Cc1ccc2c(c1)OCO2 (nonaromatic ring conformer: 56.805402658499595 kcal/mol)

>  <smiles>  (22) 
CCNCCC(=O)NCc1ccc2c(c1)OCO2

>  <score_type>  (22) 
oracle

>  <origin>  (22) 
adg

>  <m_score__min__energy>  (22) 
-7.6399999999999997

>  <m_primary>  (22) 
energy

$$$$
22:0
     RDKit          3D

 47 49  0  0  0  0  0  0  0  0999 V2000
   -0.7320   18.7350  -32.8770 C   0  0  0  0  0  0  0  0  0  0  0  0
   -1.5900   19.2910  -34.0220 C   0  0  0  0  0  0  0  0  0  0  0  0
   -1.5190   20.7670  -34.1910 N   0  0  2  0  0  0  0  0  0  0  0  0
   -0.1620   21.1980  -34.5780 C   0  0  0  0  0  0  0  0  0  0  0  0
   -1.9840   21.5560  -33.0200 C   0  0  0  0  0  0  0  0  0  0  0  0
   -3.2560   20.9990  -32.3540 C   0  0  0  0  0  0  0  0  0  0  0  0
   -4.4540   21.3060  -33.1390 N   0  0  0  0  0  0  0  0  0  0  0  0
   -5.7010   20.6100  -32.9400 C   0  0  0  0  0  0  0  0  0  0  0  0
   -6.8370   21.2990  -32.4690 C   0  0  0  0  0  0  0  0  0  0  0  0
   -6.8440   22.7070  -32.3720 C   0  0  0  0  0  0  0  0  0  0  0  0
   -7.9760   23.3860  -31.9300 C   0  0  0  0  0  0  0  0  0  0  0  0
   -9.1290   22.6810  -31.6060 C   0  0  0  0  0  0  0  0  0  0  0  0
   -9.1550   21.2910  -31.7160 C   0  0  0  0  0  0  0  0  0  0  0  0
   -8.0080   20.5680  -32.1340 C   0  0  0  0  0  0  0  0  0  0  0  0
   -8.0210   19.1910  -32.2450 N   0  0  0  0  0  0  0  0  0  0  0  0
   -9.1110   18.4080  -31.6230 C   0  0  0  0  0  0  0  0  0  0  0  0
   -7.0100   18.5460  -32.9300 C   0  0  0  0  0  0  0  0  0  0  0  0
   -7.1280   17.1900  -33.3290 C   0  0  0  0  0  0  0  0  0  0  0  0
   -6.0790   16.5330  -33.9710 C   0  0  0  0  0  0  0  0  0  0  0  0
   -6.2170   15.2340  -34.3360 F   0  0  0  0  0  0  0  0  0  0  0  0
   -4.8960   17.2080  -34.2430 C   0  0  0  0  0  0  0  0  0  0  0  0
   -4.7620   18.5500  -33.9000 C   0  0  0  0  0  0  0  0  0  0  0  0
   -5.8150   19.2440  -33.2620 C   0  0  0  0  0  0  0  0  0  0  0  0
   -1.1762   19.0229  -31.9128 H   0  0  0  0  0  0  0  0  0  0  0  0
   -0.6909   17.6381  -32.9489 H   0  0  0  0  0  0  0  0  0  0  0  0
    0.2860   19.1456  -32.9489 H   0  0  0  0  0  0  0  0  0  0  0  0
   -1.2560   18.8222  -34.9594 H   0  0  0  0  0  0  0  0  0  0  0  0
   -2.6347   19.0569  -33.7696 H   0  0  0  0  0  0  0  0  0  0  0  0
   -2.1350   21.0060  -35.0000 H   0  0  0  0  0  0  0  0  0  0  0  0
    0.4345   21.3874  -33.6734 H   0  0  0  0  0  0  0  0  0  0  0  0
    0.3175   20.4079  -35.1746 H   0  0  0  0  0  0  0  0  0  0  0  0
   -0.2263   22.1199  -35.1746 H   0  0  0  0  0  0  0  0  0  0  0  0
   -1.1789   21.5697  -32.2706 H   0  0  0  0  0  0  0  0  0  0  0  0
   -2.2337   22.5605  -33.3922 H   0  0  0  0  0  0  0  0  0  0  0  0
   -3.1609   19.9072  -32.2599 H   0  0  0  0  0  0  0  0  0  0  0  0
   -3.3618   21.4706  -31.3659 H   0  0  0  0  0  0  0  0  0  0  0  0
   -4.3530   21.9550  -33.9500 H   0  0  0  0  0  0  0  0  0  0  0  0
   -5.9437   23.2750  -32.6491 H   0  0  0  0  0  0  0  0  0  0  0  0
   -7.9579   24.4819  -31.8371 H   0  0  0  0  0  0  0  0  0  0  0  0
  -10.0235   23.2208  -31.2619 H   0  0  0  0  0  0  0  0  0  0  0  0
  -10.0797   20.7463  -31.4748 H   0  0  0  0  0  0  0  0  0  0  0  0
   -9.0270   18.4683  -30.5279 H   0  0  0  0  0  0  0  0  0  0  0  0
  -10.0823   18.8161  -31.9393 H   0  0  0  0  0  0  0  0  0  0  0  0
   -9.0343   17.3573  -31.9393 H   0  0  0  0  0  0  0  0  0  0  0  0
   -8.0635   16.6472  -33.1284 H   0  0  0  0  0  0  0  0  0  0  0  0
   -4.0630   16.6805  -34.7307 H   0  0  0  0  0  0  0  0  0  0  0  0
   -3.8242   19.0776  -34.1284 H   0  0  0  0  0  0  0  0  0  0  0  0
  1  2  1  0
  2  3  1  0
  3  4  1  0
  3  5  1  0
  5  6  1  0
  6  7  1  0
  7  8  1  0
  8  9  2  0
  9 10  1  0
 10 11  2  0
 11 12  1  0
 12 13  2  0
 13 14  1  0
 14 15  2  0
 15 16  1  0
 15 17  1  0
 17 18  2  0
 18 19  1  0
 19 20  1  0
 19 21  2  0
 21 22  1  0
 22 23  2  0
 23  8  1  0
 14  9  1  0
 23 17  1  0
  1 24  1  0
  1 25  1  0
  1 26  1  0
  2 27  1  0
  2 28  1  0
  3 29  1  6
  4 30  1  0
  4 31  1  0
  4 32  1  0
  5 33  1  0
  5 34  1  0
  6 35  1  0
  6 36  1  0
  7 37  1  0
 10 38  1  0
 11 39  1  0
 12 40  1  0
 13 41  1  0
 16 42  1  0
 16 43  1  0
 16 44  1  0
 18 45  1  0
 21 46  1  0
 22 47  1  0
M  CHG  2   3   1  15   1
M  END
>  <UniqueID>  (23) 
22

>  <SMILES>  (23) 
CC[N@H+](C)CCNc1c2ccccc2[n+](C)c2cc(F)ccc12

>  <Energy>  (23) 
76.15799915750716

>  <Genealogy>  (23) 
CC[NH+](C)CCNc1c2ccccc2[n+](C)c2cc(F)ccc12 (protonated)
CC[N@H+](C)CCNc1c2ccccc2[n+](C)c2cc(F)ccc12 (chirality)
CC[N@H+](C)CCNc1c2ccccc2[n+](C)c2cc(F)ccc12 (3D coordinates assigned)
CC[N@H+](C)CCNc1c2ccccc2[n+](C)c2cc(F)ccc12 (optimized conformer: 76.15799915750716 kcal/mol)

>  <smiles>  (23) 
CCN(C)CCNc1c2ccccc2[n+](C)c2cc(F)ccc12

>  <score_type>  (23) 
oracle

>  <origin>  (23) 
adg

>  <m_score__min__energy>  (23) 
-6.9500000000000002

>  <m_primary>  (23) 
energy

$$$$
23:0
     RDKit          3D

 52 54  0  0  0  0  0  0  0  0999 V2000
   -6.1440   23.7460  -29.7260 C   0  0  0  0  0  0  0  0  0  0  0  0
   -5.4800   24.6080  -30.8020 C   0  0  0  0  0  0  0  0  0  0  0  0
   -4.1350   24.1300  -31.1580 N   0  0  0  0  0  0  0  0  0  0  0  0
   -3.6100   23.1640  -30.1810 C   0  0  0  0  0  0  0  0  0  0  0  0
   -2.0860   23.2820  -30.0790 C   0  0  0  0  0  0  0  0  0  0  0  0
   -1.4120   21.9880  -30.4110 C   0  0  0  0  0  0  0  0  0  0  0  0
   -1.9390   20.8990  -30.0560 O   0  0  0  0  0  0  0  0  0  0  0  0
   -0.2280   22.0020  -31.1540 O   0  0  0  0  0  0  0  0  0  0  0  0
    0.1380   20.9740  -32.0730 C   0  0  0  0  0  0  0  0  0  0  0  0
   -0.4810   21.2230  -33.4250 C   0  0  0  0  0  0  0  0  0  0  0  0
    0.1300   21.9050  -34.2340 O   0  0  0  0  0  0  0  0  0  0  0  0
   -1.8490   20.6900  -33.7970 C   0  0  1  0  0  0  0  0  0  0  0  0
   -1.9510   19.1740  -33.5430 C   0  0  0  0  0  0  0  0  0  0  0  0
   -3.3080   18.6260  -33.9990 C   0  0  0  0  0  0  0  0  0  0  0  0
   -4.4390   19.4330  -33.4090 C   0  0  0  0  0  0  0  0  0  0  0  0
   -5.5800   18.8270  -33.0460 C   0  0  0  0  0  0  0  0  0  0  0  0
   -6.7230   19.6090  -32.5370 C   0  0  0  0  0  0  0  0  0  0  0  0
   -6.5630   20.9820  -32.3410 C   0  0  0  0  0  0  0  0  0  0  0  0
   -7.6080   21.7310  -31.8060 C   0  0  0  0  0  0  0  0  0  0  0  0
   -8.8100   21.0830  -31.4960 C   0  0  0  0  0  0  0  0  0  0  0  0
   -9.9550   21.8530  -30.9200 C   0  0  0  0  0  0  0  0  0  0  0  0
   -8.9330   19.7710  -31.6940 O   0  0  0  0  0  0  0  0  0  0  0  0
   -7.9510   19.0220  -32.1900 C   0  0  0  0  0  0  0  0  0  0  0  0
   -8.1370   17.7850  -32.3410 O   0  0  0  0  0  0  0  0  0  0  0  0
   -5.3460   21.5900  -32.6620 O   0  0  0  0  0  0  0  0  0  0  0  0
   -4.3550   20.9510  -33.4760 C   0  0  1  0  0  0  0  0  0  0  0  0
   -2.9650   21.4400  -33.0440 C   0  0  0  0  0  0  0  0  0  0  0  0
   -5.8581   24.1172  -28.7308 H   0  0  0  0  0  0  0  0  0  0  0  0
   -7.2371   23.7987  -29.8369 H   0  0  0  0  0  0  0  0  0  0  0  0
   -5.8141   22.7025  -29.8369 H   0  0  0  0  0  0  0  0  0  0  0  0
   -6.1096   24.5930  -31.7039 H   0  0  0  0  0  0  0  0  0  0  0  0
   -5.3762   25.6255  -30.3973 H   0  0  0  0  0  0  0  0  0  0  0  0
   -3.4850   24.9490  -31.2150 H   0  0  0  0  0  0  0  0  0  0  0  0
   -4.0559   23.3661  -29.1959 H   0  0  0  0  0  0  0  0  0  0  0  0
   -3.8677   22.1469  -30.5111 H   0  0  0  0  0  0  0  0  0  0  0  0
   -1.7397   24.0555  -30.7803 H   0  0  0  0  0  0  0  0  0  0  0  0
   -1.8292   23.5489  -29.0432 H   0  0  0  0  0  0  0  0  0  0  0  0
    1.2331   20.9542  -32.1753 H   0  0  0  0  0  0  0  0  0  0  0  0
   -0.2269   20.0099  -31.6890 H   0  0  0  0  0  0  0  0  0  0  0  0
   -1.9843   20.8644  -34.8746 H   0  0  0  0  0  0  0  0  0  0  0  0
   -1.1520   18.6623  -34.0995 H   0  0  0  0  0  0  0  0  0  0  0  0
   -1.8476   18.9939  -32.4628 H   0  0  0  0  0  0  0  0  0  0  0  0
   -3.3655   18.6736  -35.0965 H   0  0  0  0  0  0  0  0  0  0  0  0
   -3.4011   17.5854  -33.6548 H   0  0  0  0  0  0  0  0  0  0  0  0
   -5.6642   17.7334  -33.1290 H   0  0  0  0  0  0  0  0  0  0  0  0
   -7.4915   22.8106  -31.6303 H   0  0  0  0  0  0  0  0  0  0  0  0
   -9.9043   21.8189  -29.8217 H   0  0  0  0  0  0  0  0  0  0  0  0
   -9.9003   22.8986  -31.2573 H   0  0  0  0  0  0  0  0  0  0  0  0
  -10.9027   21.4080  -31.2573 H   0  0  0  0  0  0  0  0  0  0  0  0
   -4.5410   21.2247  -34.5251 H   0  0  0  0  0  0  0  0  0  0  0  0
   -2.8811   22.5158  -33.2577 H   0  0  0  0  0  0  0  0  0  0  0  0
   -2.8480   21.2470  -31.9674 H   0  0  0  0  0  0  0  0  0  0  0  0
  1  2  1  0
  2  3  1  0
  3  4  1  0
  4  5  1  0
  5  6  1  0
  6  7  2  0
  6  8  1  0
  8  9  1  0
  9 10  1  0
 10 11  2  0
 10 12  1  0
 12 13  1  0
 13 14  1  0
 14 15  1  0
 15 16  2  0
 16 17  1  0
 17 18  2  0
 18 19  1  0
 19 20  2  0
 20 21  1  0
 20 22  1  0
 22 23  1  0
 23 24  2  0
 18 25  1  0
 25 26  1  0
 26 27  1  0
 27 12  1  0
 26 15  1  0
 23 17  1  0
  1 28  1  0
  1 29  1  0
  1 30  1  0
  2 31  1  0
  2 32  1  0
  3 33  1  0
  4 34  1  0
  4 35  1  0
  5 36  1  0
  5 37  1  0
  9 38  1  0
  9 39  1  0
 12 40  1  6
 13 41  1  0
 13 42  1  0
 14 43  1  0
 14 44  1  0
 16 45  1  0
 19 46  1  0
 21 47  1  0
 21 48  1  0
 21 49  1  0
 26 50  1  6
 27 51  1  0
 27 52  1  0
M  END
>  <UniqueID>  (24) 
23

>  <SMILES>  (24) 
CCNCCC(=O)OCC(=O)[C@H]1CCC2=Cc3c(cc(C)oc3=O)O[C@H]2C1

>  <Energy>  (24) 
45.27190571345745

>  <Genealogy>  (24) 
CCNCCC(=O)OCC(=O)[C@H]1CCC2=Cc3c(cc(C)oc3=O)O[C@H]2C1 (chirality)
CCNCCC(=O)OCC(=O)[C@H]1CCC2=Cc3c(cc(C)oc3=O)O[C@H]2C1 (3D coordinates assigned)
CCNCCC(=O)OCC(=O)[C@H]1CCC2=Cc3c(cc(C)oc3=O)O[C@H]2C1 (nonaromatic ring conformer: 45.27190571345745 kcal/mol)

>  <smiles>  (24) 
CCNCCC(=O)OCC(=O)C1CCC2=Cc3c(cc(C)oc3=O)OC2C1

>  <score_type>  (24) 
oracle

>  <origin>  (24) 
adg

>  <m_score__min__energy>  (24) 
-8.5700000000000003

>  <m_primary>  (24) 
energy

$$$$
24:0
     RDKit          3D

 36 37  0  0  0  0  0  0  0  0999 V2000
   -3.4900   22.3820  -31.3070 C   0  0  0  0  0  0  0  0  0  0  0  0
   -4.6980   23.0480  -30.6320 C   0  0  0  0  0  0  0  0  0  0  0  0
   -5.1420   24.2910  -31.3020 N   0  0  0  0  0  0  0  0  0  0  0  0
   -5.0020   25.4920  -30.4430 C   0  0  0  0  0  0  0  0  0  0  0  0
   -6.2490   25.6620  -29.5830 C   0  0  0  0  0  0  0  0  0  0  0  0
   -6.4880   24.1570  -31.9000 C   0  0  0  0  0  0  0  0  0  0  0  0
   -6.8990   22.7170  -31.9510 C   0  0  0  0  0  0  0  0  0  0  0  0
   -7.8380   22.1070  -31.1490 C   0  0  0  0  0  0  0  0  0  0  0  0
   -7.8540   20.8310  -31.4570 O   0  0  0  0  0  0  0  0  0  0  0  0
   -6.9600   20.6370  -32.4050 C   0  0  0  0  0  0  0  0  0  0  0  0
   -6.6860   19.3100  -33.0050 C   0  0  0  0  0  0  0  0  0  0  0  0
   -7.1530   18.1490  -32.3620 C   0  0  0  0  0  0  0  0  0  0  0  0
   -6.9050   16.8870  -32.9080 C   0  0  0  0  0  0  0  0  0  0  0  0
   -6.1890   16.7680  -34.1010 C   0  0  0  0  0  0  0  0  0  0  0  0
   -5.7180   17.9120  -34.7500 C   0  0  0  0  0  0  0  0  0  0  0  0
   -5.0230   17.7940  -35.9070 F   0  0  0  0  0  0  0  0  0  0  0  0
   -5.9640   19.1780  -34.2080 C   0  0  0  0  0  0  0  0  0  0  0  0
   -6.3370   21.7870  -32.7430 N   0  0  0  0  0  0  0  0  0  0  0  0
   -2.8024   22.0029  -30.5366 H   0  0  0  0  0  0  0  0  0  0  0  0
   -3.8348   21.5465  -31.9339 H   0  0  0  0  0  0  0  0  0  0  0  0
   -2.9675   23.1196  -31.9339 H   0  0  0  0  0  0  0  0  0  0  0  0
   -5.5348   22.3340  -30.6344 H   0  0  0  0  0  0  0  0  0  0  0  0
   -4.3861   23.3246  -29.6141 H   0  0  0  0  0  0  0  0  0  0  0  0
   -4.1231   25.3746  -29.7921 H   0  0  0  0  0  0  0  0  0  0  0  0
   -4.8768   26.3803  -31.0795 H   0  0  0  0  0  0  0  0  0  0  0  0
   -5.9692   25.6239  -28.5199 H   0  0  0  0  0  0  0  0  0  0  0  0
   -6.7175   26.6323  -29.8043 H   0  0  0  0  0  0  0  0  0  0  0  0
   -6.9602   24.8525  -29.8043 H   0  0  0  0  0  0  0  0  0  0  0  0
   -7.2120   24.7187  -31.2914 H   0  0  0  0  0  0  0  0  0  0  0  0
   -6.4632   24.5562  -32.9247 H   0  0  0  0  0  0  0  0  0  0  0  0
   -8.4614   22.5997  -30.3884 H   0  0  0  0  0  0  0  0  0  0  0  0
   -7.7178   18.2355  -31.4220 H   0  0  0  0  0  0  0  0  0  0  0  0
   -7.2744   15.9856  -32.3972 H   0  0  0  0  0  0  0  0  0  0  0  0
   -5.9959   15.7736  -34.5297 H   0  0  0  0  0  0  0  0  0  0  0  0
   -5.5918   20.0755  -34.7237 H   0  0  0  0  0  0  0  0  0  0  0  0
   -5.5770   21.9420  -33.4410 H   0  0  0  0  0  0  0  0  0  0  0  0
  1  2  1  0
  2  3  1  0
  3  4  1  0
  4  5  1  0
  3  6  1  0
  6  7  1  0
  7  8  2  0
  8  9  1  0
  9 10  1  0
 10 11  1  0
 11 12  2  0
 12 13  1  0
 13 14  2  0
 14 15  1  0
 15 16  1  0
 15 17  2  0
 10 18  2  0
 18  7  1  0
 17 11  1  0
  1 19  1  0
  1 20  1  0
  1 21  1  0
  2 22  1  0
  2 23  1  0
  4 24  1  0
  4 25  1  0
  5 26  1  0
  5 27  1  0
  5 28  1  0
  6 29  1  0
  6 30  1  0
  8 31  1  0
 12 32  1  0
 13 33  1  0
 14 34  1  0
 17 35  1  0
 18 36  1  0
M  CHG  1  18   1
M  END
>  <UniqueID>  (25) 
24

>  <SMILES>  (25) 
CCN(CC)Cc1coc(-c2cccc(F)c2)[nH+]1

>  <Energy>  (25) 
67.48224513246608

>  <Genealogy>  (25) 
CCN(CC)Cc1coc(-c2cccc(F)c2)[nH+]1 (protonated)
CCN(CC)Cc1coc(-c2cccc(F)c2)[nH+]1 (3D coordinates assigned)
CCN(CC)Cc1coc(-c2cccc(F)c2)[nH+]1 (optimized conformer: 67.48224513246608 kcal/mol)

>  <smiles>  (25) 
CCN(CC)Cc1coc(-c2cccc(F)c2)n1

>  <score_type>  (25) 
oracle

>  <origin>  (25) 
adg

>  <m_score__min__energy>  (25) 
-5.9100000000000001

>  <m_primary>  (25) 
energy

$$$$
25:0
     RDKit          3D

 46 45  0  0  0  0  0  0  0  0999 V2000
   -2.7508   21.0364  -34.0792 H   0  0  0  0  0  0  0  0  0  0  0  0
   -3.4530   20.7840  -33.2710 C   0  0  0  0  0  0  0  0  0  0  0  0
   -3.5930   21.6660  -32.2640 C   0  0  0  0  0  0  0  0  0  0  0  0
   -2.6756   22.0736  -31.8143 H   0  0  0  0  0  0  0  0  0  0  0  0
   -4.9150   22.1390  -31.7040 C   0  0  0  0  0  0  0  0  0  0  0  0
   -4.8880   23.2341  -31.6040 H   0  0  0  0  0  0  0  0  0  0  0  0
   -5.0648   21.6564  -30.7269 H   0  0  0  0  0  0  0  0  0  0  0  0
   -6.0440   21.7670  -32.5770 N   0  0  0  0  0  0  0  0  0  0  0  0
   -5.7570   21.7920  -33.5850 H   0  0  0  0  0  0  0  0  0  0  0  0
   -6.2860   20.7710  -32.3590 H   0  0  0  0  0  0  0  0  0  0  0  0
   -7.2580   22.5770  -32.3450 C   0  0  0  0  0  0  0  0  0  0  0  0
   -7.9618   22.4035  -33.1724 H   0  0  0  0  0  0  0  0  0  0  0  0
   -6.9517   23.6321  -32.2907 H   0  0  0  0  0  0  0  0  0  0  0  0
   -7.9570   22.2220  -31.0180 C   0  0  0  0  0  0  0  0  0  0  0  0
   -8.4508   23.1243  -30.6281 H   0  0  0  0  0  0  0  0  0  0  0  0
   -7.1871   21.8483  -30.3269 H   0  0  0  0  0  0  0  0  0  0  0  0
   -9.0140   21.1130  -31.1800 C   0  0  0  0  0  0  0  0  0  0  0  0
  -10.0058   21.5504  -30.9928 H   0  0  0  0  0  0  0  0  0  0  0  0
   -8.7576   20.3214  -30.4606 H   0  0  0  0  0  0  0  0  0  0  0  0
   -9.0280   20.4610  -32.5730 C   0  0  0  0  0  0  0  0  0  0  0  0
   -9.0646   21.2517  -33.3368 H   0  0  0  0  0  0  0  0  0  0  0  0
   -9.9120   19.8096  -32.6390 H   0  0  0  0  0  0  0  0  0  0  0  0
   -7.8310   19.6360  -32.7970 N   0  0  0  0  0  0  0  0  0  0  0  0
   -7.6800   19.5680  -33.8320 H   0  0  0  0  0  0  0  0  0  0  0  0
   -8.0070   18.2720  -32.2850 C   0  0  0  0  0  0  0  0  0  0  0  0
   -8.0061   17.5624  -33.1255 H   0  0  0  0  0  0  0  0  0  0  0  0
   -8.9641   18.2041  -31.7471 H   0  0  0  0  0  0  0  0  0  0  0  0
   -6.8610   17.9310  -31.3290 C   0  0  0  0  0  0  0  0  0  0  0  0
   -7.2815   17.5349  -30.3929 H   0  0  0  0  0  0  0  0  0  0  0  0
   -6.2832   18.8477  -31.1397 H   0  0  0  0  0  0  0  0  0  0  0  0
   -5.9250   16.8890  -31.9330 C   0  0  0  0  0  0  0  0  0  0  0  0
   -5.4256   16.3330  -31.1259 H   0  0  0  0  0  0  0  0  0  0  0  0
   -6.5054   16.1911  -32.5544 H   0  0  0  0  0  0  0  0  0  0  0  0
   -5.1691   17.3915  -32.5544 H   0  0  0  0  0  0  0  0  0  0  0  0
   -4.1920   19.4750  -33.3670 C   0  0  0  0  0  0  0  0  0  0  0  0
   -3.5802   18.7573  -33.9332 H   0  0  0  0  0  0  0  0  0  0  0  0
   -4.3794   19.1032  -32.3488 H   0  0  0  0  0  0  0  0  0  0  0  0
   -5.4830   19.6470  -34.0470 N   0  0  0  0  0  0  0  0  0  0  0  0
   -6.2290   19.6240  -33.3120 H   0  0  0  0  0  0  0  0  0  0  0  0
   -5.7420   18.5410  -34.9780 C   0  0  0  0  0  0  0  0  0  0  0  0
   -6.6575   18.0139  -34.6714 H   0  0  0  0  0  0  0  0  0  0  0  0
   -5.8660   18.9459  -35.9932 H   0  0  0  0  0  0  0  0  0  0  0  0
   -4.5710   17.5650  -34.9690 C   0  0  0  0  0  0  0  0  0  0  0  0
   -4.2940   17.3342  -33.9298 H   0  0  0  0  0  0  0  0  0  0  0  0
   -4.8620   16.6384  -35.4854 H   0  0  0  0  0  0  0  0  0  0  0  0
   -3.7120   18.0182  -35.4854 H   0  0  0  0  0  0  0  0  0  0  0  0
  1  2  1  0
  2  3  2  0
  3  4  1  0
  3  5  1  0
  5  6  1  0
  5  7  1  0
  5  8  1  0
  8  9  1  0
  8 10  1  0
  8 11  1  0
 11 12  1  0
 11 13  1  0
 11 14  1  0
 14 15  1  0
 14 16  1  0
 14 17  1  0
 17 18  1  0
 17 19  1  0
 17 20  1  0
 20 21  1  0
 20 22  1  0
 20 23  1  0
 23 24  1  0
 23 25  1  0
 25 26  1  0
 25 27  1  0
 25 28  1  0
 28 29  1  0
 28 30  1  0
 28 31  1  0
 31 32  1  0
 31 33  1  0
 31 34  1  0
  2 35  1  0
 35 36  1  0
 35 37  1  0
 35 38  1  0
 38 39  1  0
 38 40  1  0
 40 41  1  0
 40 42  1  0
 40 43  1  0
 43 44  1  0
 43 45  1  0
 43 46  1  0
M  CHG  1   8   1
M  END
>  <UniqueID>  (26) 
25

>  <SMILES>  (26) 
CCCNCCCC[NH2+]C/C=C\CNCC

>  <Energy>  (26) 
25.23636179809144

>  <Genealogy>  (26) 
CCCNCCCC[NH2+]CC=CCNCC (protonated)
CCCNCCCC[NH2+]C/C=C\CNCC (cis-trans isomerization)
CCCNCCCC[NH2+]C/C=C\CNCC (3D coordinates assigned)
CCCNCCCC[NH2+]C/C=C\CNCC (optimized conformer: 25.23636179809144 kcal/mol)

>  <smiles>  (26) 
CCCNCCCCNCC=CCNCC

>  <score_type>  (26) 
oracle

>  <origin>  (26) 
adg

>  <m_score__min__energy>  (26) 
-4.8799999999999999

>  <m_primary>  (26) 
energy

$$$$
26:0
     RDKit          3D

 46 45  0  0  0  0  0  0  0  0999 V2000
   -9.0670   20.0130  -31.9470 C   0  0  0  0  0  0  0  0  0  0  0  0
   -8.2410   21.2740  -31.6620 C   0  0  0  0  0  0  0  0  0  0  0  0
   -9.0460   22.5570  -31.9250 C   0  0  0  0  0  0  0  0  0  0  0  0
   -6.9460   21.2490  -32.3730 N   0  0  0  0  0  0  0  0  0  0  0  0
   -6.7240   20.0910  -33.2650 C   0  0  0  0  0  0  0  0  0  0  0  0
   -5.2700   20.0260  -33.7790 C   0  0  0  0  0  0  0  0  0  0  0  0
   -4.4500   21.1460  -33.2750 N   0  0  0  0  0  0  0  0  0  0  0  0
   -3.0010   20.8640  -33.3030 C   0  0  0  0  0  0  0  0  0  0  0  0
   -2.2790   21.4170  -32.0610 C   0  0  0  0  0  0  0  0  0  0  0  0
   -3.1240   22.4170  -31.3900 N   0  0  0  0  0  0  0  0  0  0  0  0
   -2.5840   22.8350  -30.0840 C   0  0  0  0  0  0  0  0  0  0  0  0
   -3.2580   24.1130  -29.5590 C   0  0  0  0  0  0  0  0  0  0  0  0
   -3.8520   24.8680  -30.6730 N   0  0  0  0  0  0  0  0  0  0  0  0
   -5.3010   25.0960  -30.5050 C   0  0  0  0  0  0  0  0  0  0  0  0
   -6.1370   24.4490  -31.6210 C   0  0  0  0  0  0  0  0  0  0  0  0
   -5.3670   23.4350  -32.3330 N   0  0  0  0  0  0  0  0  0  0  0  0
   -9.3700   19.5505  -30.9961 H   0  0  0  0  0  0  0  0  0  0  0  0
   -9.9629   20.2843  -32.5246 H   0  0  0  0  0  0  0  0  0  0  0  0
   -8.4603   19.3001  -32.5246 H   0  0  0  0  0  0  0  0  0  0  0  0
   -8.0031   21.2795  -30.5880 H   0  0  0  0  0  0  0  0  0  0  0  0
   -9.3323   23.0133  -30.9659 H   0  0  0  0  0  0  0  0  0  0  0  0
   -8.4301   23.2652  -32.4986 H   0  0  0  0  0  0  0  0  0  0  0  0
   -9.9516   22.3105  -32.4986 H   0  0  0  0  0  0  0  0  0  0  0  0
   -6.8170   22.1530  -32.8850 H   0  0  0  0  0  0  0  0  0  0  0  0
   -6.9458   19.1677  -32.7098 H   0  0  0  0  0  0  0  0  0  0  0  0
   -7.3871   20.2014  -34.1357 H   0  0  0  0  0  0  0  0  0  0  0  0
   -4.8189   19.0792  -33.4472 H   0  0  0  0  0  0  0  0  0  0  0  0
   -5.2963   20.0937  -34.8766 H   0  0  0  0  0  0  0  0  0  0  0  0
   -4.6400   22.0050  -33.8420 H   0  0  0  0  0  0  0  0  0  0  0  0
   -4.7460   21.3670  -32.2950 H   0  0  0  0  0  0  0  0  0  0  0  0
   -2.8524   19.7749  -33.3440 H   0  0  0  0  0  0  0  0  0  0  0  0
   -2.5769   21.3585  -34.1894 H   0  0  0  0  0  0  0  0  0  0  0  0
   -2.0687   20.5919  -31.3646 H   0  0  0  0  0  0  0  0  0  0  0  0
   -1.3371   21.8918  -32.3731 H   0  0  0  0  0  0  0  0  0  0  0  0
   -3.2340   23.2520  -32.0110 H   0  0  0  0  0  0  0  0  0  0  0  0
   -2.7465   22.0249  -29.3578 H   0  0  0  0  0  0  0  0  0  0  0  0
   -1.5125   23.0473  -30.2139 H   0  0  0  0  0  0  0  0  0  0  0  0
   -4.0474   23.8398  -28.8433 H   0  0  0  0  0  0  0  0  0  0  0  0
   -2.5022   24.7398  -29.0630 H   0  0  0  0  0  0  0  0  0  0  0  0
   -3.6620   24.3630  -31.5690 H   0  0  0  0  0  0  0  0  0  0  0  0
   -5.6143   24.6718  -29.5397 H   0  0  0  0  0  0  0  0  0  0  0  0
   -5.4735   26.1815  -30.5477 H   0  0  0  0  0  0  0  0  0  0  0  0
   -7.0265   23.9785  -31.1768 H   0  0  0  0  0  0  0  0  0  0  0  0
   -6.4302   25.2315  -32.3364 H   0  0  0  0  0  0  0  0  0  0  0  0
   -4.3960   23.7970  -32.4660 H   0  0  0  0  0  0  0  0  0  0  0  0
   -5.2890   22.5990  -31.7100 H   0  0  0  0  0  0  0  0  0  0  0  0
  1  2  1  0
  2  3  1  0
  2  4  1  0
  4  5  1  0
  5  6  1  0
  6  7  1  0
  7  8  1  0
  8  9  1  0
  9 10  1  0
 10 11  1  0
 11 12  1  0
 12 13  1  0
 13 14  1  0
 14 15  1  0
 15 16  1  0
  1 17  1  0
  1 18  1  0
  1 19  1  0
  2 20  1  0
  3 21  1  0
  3 22  1  0
  3 23  1  0
  4 24  1  0
  5 25  1  0
  5 26  1  0
  6 27  1  0
  6 28  1  0
  7 29  1  0
  7 30  1  0
  8 31  1  0
  8 32  1  0
  9 33  1  0
  9 34  1  0
 10 35  1  0
 11 36  1  0
 11 37  1  0
 12 38  1  0
 12 39  1  0
 13 40  1  0
 14 41  1  0
 14 42  1  0
 15 43  1  0
 15 44  1  0
 16 45  1  0
 16 46  1  0
M  CHG  1   7   1
M  END
>  <UniqueID>  (27) 
26

>  <SMILES>  (27) 
CC(C)NCC[NH2+]CCNCCNCCN

>  <Energy>  (27) 
40.352768759090495

>  <Genealogy>  (27) 
CC(C)NCC[NH2+]CCNCCNCCN (protonated)
CC(C)NCC[NH2+]CCNCCNCCN (3D coordinates assigned)
CC(C)NCC[NH2+]CCNCCNCCN (optimized conformer: 40.352768759090495 kcal/mol)

>  <smiles>  (27) 
CC(C)NCCNCCNCCNCCN

>  <score_type>  (27) 
oracle

>  <origin>  (27) 
adg

>  <m_score__min__energy>  (27) 
-3.5600000000000001

>  <m_primary>  (27) 
energy

$$$$
27:0
     RDKit          3D

 51 54  0  0  0  0  0  0  0  0999 V2000
   -6.1150   25.3070  -29.5370 C   0  0  0  0  0  0  0  0  0  0  0  0
   -5.3750   25.4520  -30.8610 C   0  0  0  0  0  0  0  0  0  0  0  0
   -3.9320   25.2780  -30.6500 N   0  0  0  0  0  0  0  0  0  0  0  0
   -3.6420   24.0660  -29.8700 C   0  0  0  0  0  0  0  0  0  0  0  0
   -3.3450   22.8780  -30.7890 C   0  0  0  0  0  0  0  0  0  0  0  0
   -4.2320   22.8800  -31.9540 N   0  0  0  0  0  0  0  0  0  0  0  0
   -4.9130   21.6840  -32.3640 C   0  0  0  0  0  0  0  0  0  0  0  0
   -6.2920   21.4940  -32.1130 C   0  0  0  0  0  0  0  0  0  0  0  0
   -7.0630   22.5140  -31.5190 C   0  0  0  0  0  0  0  0  0  0  0  0
   -8.4080   22.3090  -31.2230 C   0  0  0  0  0  0  0  0  0  0  0  0
   -9.0080   21.0860  -31.5020 C   0  0  0  0  0  0  0  0  0  0  0  0
   -8.2740   20.0610  -32.0980 C   0  0  0  0  0  0  0  0  0  0  0  0
   -6.9110   20.2390  -32.4400 C   0  0  0  0  0  0  0  0  0  0  0  0
   -6.1790   19.2330  -33.0550 N   0  0  0  0  0  0  0  0  0  0  0  0
   -6.8190   17.9730  -33.4780 C   0  0  0  0  0  0  0  0  0  0  0  0
   -4.8390   19.4360  -33.2620 C   0  0  0  0  0  0  0  0  0  0  0  0
   -3.9570   18.5480  -33.7870 N   0  0  0  0  0  0  0  0  0  0  0  0
   -2.7830   19.2070  -33.8420 C   0  0  0  0  0  0  0  0  0  0  0  0
   -1.5770   18.7190  -34.3390 C   0  0  0  0  0  0  0  0  0  0  0  0
   -0.4670   19.5790  -34.3440 C   0  0  0  0  0  0  0  0  0  0  0  0
   -0.5750   20.9070  -33.8730 C   0  0  0  0  0  0  0  0  0  0  0  0
    0.5650   21.7210  -33.9160 O   0  0  0  0  0  0  0  0  0  0  0  0
    1.4560   21.7990  -35.0250 C   0  0  0  0  0  0  0  0  0  0  0  0
   -1.8170   21.3760  -33.3780 C   0  0  0  0  0  0  0  0  0  0  0  0
   -2.8980   20.4910  -33.3570 C   0  0  0  0  0  0  0  0  0  0  0  0
   -4.2170   20.6310  -32.9580 C   0  0  0  0  0  0  0  0  0  0  0  0
   -5.4087   25.4454  -28.7051 H   0  0  0  0  0  0  0  0  0  0  0  0
   -6.9080   26.0668  -29.4750 H   0  0  0  0  0  0  0  0  0  0  0  0
   -6.5626   24.3041  -29.4750 H   0  0  0  0  0  0  0  0  0  0  0  0
   -5.7352   24.6878  -31.5655 H   0  0  0  0  0  0  0  0  0  0  0  0
   -5.5621   26.4550  -31.2720 H   0  0  0  0  0  0  0  0  0  0  0  0
   -3.4870   25.1630  -31.5920 H   0  0  0  0  0  0  0  0  0  0  0  0
   -2.7677   24.2518  -29.2289 H   0  0  0  0  0  0  0  0  0  0  0  0
   -4.5242   23.8237  -29.2593 H   0  0  0  0  0  0  0  0  0  0  0  0
   -2.3015   22.9404  -31.1315 H   0  0  0  0  0  0  0  0  0  0  0  0
   -3.5109   21.9486  -30.2244 H   0  0  0  0  0  0  0  0  0  0  0  0
   -4.5840   23.7990  -32.3030 H   0  0  0  0  0  0  0  0  0  0  0  0
   -6.5967   23.4828  -31.2868 H   0  0  0  0  0  0  0  0  0  0  0  0
   -8.9981   23.1175  -30.7668 H   0  0  0  0  0  0  0  0  0  0  0  0
  -10.0671   20.9262  -31.2513 H   0  0  0  0  0  0  0  0  0  0  0  0
   -8.7620   19.0974  -32.3062 H   0  0  0  0  0  0  0  0  0  0  0  0
   -7.1127   17.3947  -32.5896 H   0  0  0  0  0  0  0  0  0  0  0  0
   -7.7115   18.1991  -34.0799 H   0  0  0  0  0  0  0  0  0  0  0  0
   -6.1100   17.3856  -34.0799 H   0  0  0  0  0  0  0  0  0  0  0  0
   -4.1090   17.5590  -34.0850 H   0  0  0  0  0  0  0  0  0  0  0  0
   -1.4963   17.6891  -34.7169 H   0  0  0  0  0  0  0  0  0  0  0  0
    0.5002   19.2139  -34.7198 H   0  0  0  0  0  0  0  0  0  0  0  0
    2.4895   21.8895  -34.6594 H   0  0  0  0  0  0  0  0  0  0  0  0
    1.3615   20.8892  -35.6359 H   0  0  0  0  0  0  0  0  0  0  0  0
    1.2049   22.6786  -35.6359 H   0  0  0  0  0  0  0  0  0  0  0  0
   -1.9273   22.4101  -33.0195 H   0  0  0  0  0  0  0  0  0  0  0  0
  1  2  1  0
  2  3  1  0
  3  4  1  0
  4  5  1  0
  5  6  1  0
  6  7  1  0
  7  8  2  0
  8  9  1  0
  9 10  2  0
 10 11  1  0
 11 12  2  0
 12 13  1  0
 13 14  2  0
 14 15  1  0
 14 16  1  0
 16 17  1  0
 17 18  1  0
 18 19  2  0
 19 20  1  0
 20 21  2  0
 21 22  1  0
 22 23  1  0
 21 24  1  0
 24 25  2  0
 25 26  1  0
 26  7  1  0
 13  8  1  0
 26 16  2  0
 25 18  1  0
  1 27  1  0
  1 28  1  0
  1 29  1  0
  2 30  1  0
  2 31  1  0
  3 32  1  0
  4 33  1  0
  4 34  1  0
  5 35  1  0
  5 36  1  0
  6 37  1  0
  9 38  1  0
 10 39  1  0
 11 40  1  0
 12 41  1  0
 15 42  1  0
 15 43  1  0
 15 44  1  0
 17 45  1  0
 19 46  1  0
 20 47  1  0
 23 48  1  0
 23 49  1  0
 23 50  1  0
 24 51  1  0
M  CHG  1  14   1
M  END
>  <UniqueID>  (28) 
27

>  <SMILES>  (28) 
CCNCCNc1c2ccccc2[n+](C)c2[nH]c3ccc(OC)cc3c12

>  <Energy>  (28) 
105.3202637434456

>  <Genealogy>  (28) 
CCNCCNc1c2ccccc2[n+](C)c2[nH]c3ccc(OC)cc3c12 (3D coordinates assigned)
CCNCCNc1c2ccccc2[n+](C)c2[nH]c3ccc(OC)cc3c12 (optimized conformer: 105.3202637434456 kcal/mol)

>  <smiles>  (28) 
CCNCCNc1c2ccccc2[n+](C)c2[nH]c3ccc(OC)cc3c12

>  <score_type>  (28) 
oracle

>  <origin>  (28) 
adg

>  <m_score__min__energy>  (28) 
-9.6199999999999992

>  <m_primary>  (28) 
energy

$$$$
28:0
     RDKit          3D

 61 63  0  0  0  0  0  0  0  0999 V2000
   -6.8640   24.6180  -30.1540 C   0  0  0  0  0  0  0  0  0  0  0  0
   -5.5220   24.9800  -29.5000 C   0  0  0  0  0  0  0  0  0  0  0  0
   -4.9730   23.9320  -28.6010 N   0  0  2  0  0  0  0  0  0  0  0  0
   -4.2510   24.5270  -27.4570 C   0  0  0  0  0  0  0  0  0  0  0  0
   -4.1330   22.9560  -29.3460 C   0  0  0  0  0  0  0  0  0  0  0  0
   -3.7990   23.3940  -30.7920 C   0  0  0  0  0  0  0  0  0  0  0  0
   -3.4270   22.2360  -31.7300 C   0  0  0  0  0  0  0  0  0  0  0  0
   -4.4660   21.9980  -32.7310 N   0  0  0  0  0  0  0  0  0  0  0  0
   -5.0110   20.6810  -32.9050 C   0  0  0  0  0  0  0  0  0  0  0  0
   -6.3700   20.4370  -32.6400 C   0  0  0  0  0  0  0  0  0  0  0  0
   -7.2310   21.4910  -32.2730 C   0  0  0  0  0  0  0  0  0  0  0  0
   -8.5890   21.2590  -32.0300 C   0  0  0  0  0  0  0  0  0  0  0  0
   -9.4910   22.4020  -31.6660 C   0  0  0  0  0  0  0  0  0  0  0  0
   -9.1070   19.9770  -32.2130 C   0  0  0  0  0  0  0  0  0  0  0  0
   -8.2720   18.9230  -32.5820 C   0  0  0  0  0  0  0  0  0  0  0  0
   -6.8810   19.1200  -32.7720 C   0  0  0  0  0  0  0  0  0  0  0  0
   -6.0350   18.0770  -33.1010 N   0  0  0  0  0  0  0  0  0  0  0  0
   -6.4960   16.6780  -32.9560 C   0  0  0  0  0  0  0  0  0  0  0  0
   -4.7480   18.3400  -33.5370 C   0  0  0  0  0  0  0  0  0  0  0  0
   -3.9440   17.3380  -34.1370 C   0  0  0  0  0  0  0  0  0  0  0  0
   -2.6120   17.5850  -34.5150 C   0  0  0  0  0  0  0  0  0  0  0  0
   -1.8020   16.5400  -35.1100 N   0  0  0  0  0  0  0  0  0  0  0  0
   -0.3370   16.5950  -35.0310 C   0  0  0  0  0  0  0  0  0  0  0  0
   -2.4340   15.4130  -35.8070 C   0  0  0  0  0  0  0  0  0  0  0  0
   -2.0820   18.8660  -34.3060 C   0  0  0  0  0  0  0  0  0  0  0  0
   -2.8670   19.8810  -33.7660 C   0  0  0  0  0  0  0  0  0  0  0  0
   -4.2060   19.6430  -33.4030 C   0  0  0  0  0  0  0  0  0  0  0  0
   -7.6106   24.4166  -29.3717 H   0  0  0  0  0  0  0  0  0  0  0  0
   -7.2051   25.4562  -30.7793 H   0  0  0  0  0  0  0  0  0  0  0  0
   -6.7373   23.7219  -30.7793 H   0  0  0  0  0  0  0  0  0  0  0  0
   -4.7892   25.1657  -30.2991 H   0  0  0  0  0  0  0  0  0  0  0  0
   -5.7076   25.8646  -28.8731 H   0  0  0  0  0  0  0  0  0  0  0  0
   -5.8040   23.4340  -28.2090 H   0  0  0  0  0  0  0  0  0  0  0  0
   -4.6914   24.1641  -26.5166 H   0  0  0  0  0  0  0  0  0  0  0  0
   -3.1909   24.2368  -27.5014 H   0  0  0  0  0  0  0  0  0  0  0  0
   -4.3333   25.6230  -27.5014 H   0  0  0  0  0  0  0  0  0  0  0  0
   -3.1889   22.8216  -28.7977 H   0  0  0  0  0  0  0  0  0  0  0  0
   -4.7138   22.0247  -29.4198 H   0  0  0  0  0  0  0  0  0  0  0  0
   -4.6782   23.9070  -31.2089 H   0  0  0  0  0  0  0  0  0  0  0  0
   -2.9155   24.0463  -30.7289 H   0  0  0  0  0  0  0  0  0  0  0  0
   -2.4859   22.4813  -32.2439 H   0  0  0  0  0  0  0  0  0  0  0  0
   -3.3182   21.3244  -31.1242 H   0  0  0  0  0  0  0  0  0  0  0  0
   -4.6470   22.7110  -33.4750 H   0  0  0  0  0  0  0  0  0  0  0  0
   -6.8294   22.5105  -32.1763 H   0  0  0  0  0  0  0  0  0  0  0  0
   -9.5555   22.4838  -30.5709 H   0  0  0  0  0  0  0  0  0  0  0  0
   -9.0842   23.3364  -32.0801 H   0  0  0  0  0  0  0  0  0  0  0  0
  -10.4943   22.2236  -32.0801 H   0  0  0  0  0  0  0  0  0  0  0  0
  -10.1819   19.7961  -32.0652 H   0  0  0  0  0  0  0  0  0  0  0  0
   -8.7004   17.9205  -32.7283 H   0  0  0  0  0  0  0  0  0  0  0  0
   -6.5784   16.4279  -31.8880 H   0  0  0  0  0  0  0  0  0  0  0  0
   -7.4791   16.5643  -33.4361 H   0  0  0  0  0  0  0  0  0  0  0  0
   -5.7731   16.0021  -33.4361 H   0  0  0  0  0  0  0  0  0  0  0  0
   -4.3736   16.3405  -34.3116 H   0  0  0  0  0  0  0  0  0  0  0  0
   -0.0269   16.6066  -33.9757 H   0  0  0  0  0  0  0  0  0  0  0  0
    0.0905   15.7123  -35.5291 H   0  0  0  0  0  0  0  0  0  0  0  0
    0.0231   17.5073  -35.5291 H   0  0  0  0  0  0  0  0  0  0  0  0
   -2.8327   14.7021  -35.0683 H   0  0  0  0  0  0  0  0  0  0  0  0
   -3.2548   15.7856  -36.4375 H   0  0  0  0  0  0  0  0  0  0  0  0
   -1.6881   14.9069  -36.4375 H   0  0  0  0  0  0  0  0  0  0  0  0
   -1.0345   19.0713  -34.5716 H   0  0  0  0  0  0  0  0  0  0  0  0
   -2.4352   20.8823  -33.6211 H   0  0  0  0  0  0  0  0  0  0  0  0
  1  2  1  0
  2  3  1  0
  3  4  1  0
  3  5  1  0
  5  6  1  0
  6  7  1  0
  7  8  1  0
  8  9  1  0
  9 10  2  0
 10 11  1  0
 11 12  2  0
 12 13  1  0
 12 14  1  0
 14 15  2  0
 15 16  1  0
 16 17  2  0
 17 18  1  0
 17 19  1  0
 19 20  2  0
 20 21  1  0
 21 22  1  0
 22 23  1  0
 22 24  1  0
 21 25  2  0
 25 26  1  0
 26 27  2  0
 27  9  1  0
 16 10  1  0
 27 19  1  0
  1 28  1  0
  1 29  1  0
  1 30  1  0
  2 31  1  0
  2 32  1  0
  3 33  1  1
  4 34  1  0
  4 35  1  0
  4 36  1  0
  5 37  1  0
  5 38  1  0
  6 39  1  0
  6 40  1  0
  7 41  1  0
  7 42  1  0
  8 43  1  0
 11 44  1  0
 13 45  1  0
 13 46  1  0
 13 47  1  0
 14 48  1  0
 15 49  1  0
 18 50  1  0
 18 51  1  0
 18 52  1  0
 20 53  1  0
 23 54  1  0
 23 55  1  0
 23 56  1  0
 24 57  1  0
 24 58  1  0
 24 59  1  0
 25 60  1  0
 26 61  1  0
M  CHG  2   3   1  17   1
M  END
>  <UniqueID>  (29) 
28

>  <SMILES>  (29) 
CC[N@H+](C)CCCNc1c2cc(C)ccc2[n+](C)c2cc(N(C)C)ccc12

>  <Energy>  (29) 
87.91644727559814

>  <Genealogy>  (29) 
CC[NH+](C)CCCNc1c2cc(C)ccc2[n+](C)c2cc(N(C)C)ccc12 (protonated)
CC[N@H+](C)CCCNc1c2cc(C)ccc2[n+](C)c2cc(N(C)C)ccc12 (chirality)
CC[N@H+](C)CCCNc1c2cc(C)ccc2[n+](C)c2cc(N(C)C)ccc12 (3D coordinates assigned)
CC[N@H+](C)CCCNc1c2cc(C)ccc2[n+](C)c2cc(N(C)C)ccc12 (optimized conformer: 87.91644727559814 kcal/mol)

>  <smiles>  (29) 
CCN(C)CCCNc1c2cc(C)ccc2[n+](C)c2cc(N(C)C)ccc12

>  <score_type>  (29) 
oracle

>  <origin>  (29) 
adg

>  <m_score__min__energy>  (29) 
-7.1500000000000004

>  <m_primary>  (29) 
energy

$$$$
29:0
     RDKit          3D

 49 50  0  0  0  0  0  0  0  0999 V2000
   -0.8550   26.6460  -27.8870 C   0  0  0  0  0  0  0  0  0  0  0  0
   -1.5870   26.0260  -28.9390 O   0  0  0  0  0  0  0  0  0  0  0  0
   -2.0870   24.7140  -28.9100 C   0  0  0  0  0  0  0  0  0  0  0  0
   -1.4550   23.7210  -28.1360 C   0  0  0  0  0  0  0  0  0  0  0  0
   -1.9420   22.4180  -28.1150 C   0  0  0  0  0  0  0  0  0  0  0  0
   -3.0720   22.0820  -28.8530 C   0  0  0  0  0  0  0  0  0  0  0  0
   -3.7390   23.0500  -29.6190 C   0  0  0  0  0  0  0  0  0  0  0  0
   -4.9850   22.6430  -30.3930 C   0  0  0  0  0  0  0  0  0  0  0  0
   -4.9450   22.9980  -31.8320 N   0  0  0  0  0  0  0  0  0  0  0  0
   -4.3140   21.9460  -32.6500 C   0  0  0  0  0  0  0  0  0  0  0  0
   -6.2710   23.3830  -32.3560 C   0  0  0  0  0  0  0  0  0  0  0  0
   -7.2740   22.3010  -32.1020 C   0  0  0  0  0  0  0  0  0  0  0  0
   -8.4220   22.4260  -31.3440 C   0  0  0  0  0  0  0  0  0  0  0  0
   -9.0430   21.1960  -31.4020 C   0  0  0  0  0  0  0  0  0  0  0  0
   -8.2330   20.4040  -32.1940 C   0  0  0  0  0  0  0  0  0  0  0  0
   -8.4800   18.9610  -32.5430 C   0  0  0  0  0  0  0  0  0  0  0  0
   -7.2390   18.1660  -32.6740 N   0  0  0  0  0  0  0  0  0  0  0  0
   -6.4420   18.1660  -31.4360 C   0  0  0  0  0  0  0  0  0  0  0  0
   -6.4230   18.5860  -33.8240 C   0  0  0  0  0  0  0  0  0  0  0  0
   -7.1870   21.0890  -32.5970 O   0  0  0  0  0  0  0  0  0  0  0  0
   -3.2400   24.3740  -29.6700 C   0  0  0  0  0  0  0  0  0  0  0  0
   -3.9200   25.2940  -30.4920 O   0  0  0  0  0  0  0  0  0  0  0  0
   -5.2780   25.7030  -30.3760 C   0  0  0  0  0  0  0  0  0  0  0  0
   -1.2512   26.3104  -26.9173 H   0  0  0  0  0  0  0  0  0  0  0  0
    0.2064   26.3680  -27.9655 H   0  0  0  0  0  0  0  0  0  0  0  0
   -0.9546   27.7387  -27.9655 H   0  0  0  0  0  0  0  0  0  0  0  0
   -0.5662   23.9789  -27.5414 H   0  0  0  0  0  0  0  0  0  0  0  0
   -1.4320   21.6514  -27.5131 H   0  0  0  0  0  0  0  0  0  0  0  0
   -3.4463   21.0478  -28.8360 H   0  0  0  0  0  0  0  0  0  0  0  0
   -5.1033   21.5526  -30.3091 H   0  0  0  0  0  0  0  0  0  0  0  0
   -5.8276   23.1962  -29.9525 H   0  0  0  0  0  0  0  0  0  0  0  0
   -3.8611   21.1910  -31.9906 H   0  0  0  0  0  0  0  0  0  0  0  0
   -5.0753   21.4691  -33.2849 H   0  0  0  0  0  0  0  0  0  0  0  0
   -3.5348   22.3931  -33.2849 H   0  0  0  0  0  0  0  0  0  0  0  0
   -6.6019   24.3064  -31.8582 H   0  0  0  0  0  0  0  0  0  0  0  0
   -6.1900   23.5429  -33.4413 H   0  0  0  0  0  0  0  0  0  0  0  0
   -8.7688   23.3206  -30.8060 H   0  0  0  0  0  0  0  0  0  0  0  0
   -9.9872   20.9054  -30.9183 H   0  0  0  0  0  0  0  0  0  0  0  0
   -9.0993   18.5124  -31.7523 H   0  0  0  0  0  0  0  0  0  0  0  0
   -8.9798   18.9455  -33.5228 H   0  0  0  0  0  0  0  0  0  0  0  0
   -6.2435   17.1289  -31.1277 H   0  0  0  0  0  0  0  0  0  0  0  0
   -5.4883   18.6845  -31.6139 H   0  0  0  0  0  0  0  0  0  0  0  0
   -6.9987   18.6845  -30.6415 H   0  0  0  0  0  0  0  0  0  0  0  0
   -5.4989   19.0616  -33.4637 H   0  0  0  0  0  0  0  0  0  0  0  0
   -6.1690   17.7066  -34.4340 H   0  0  0  0  0  0  0  0  0  0  0  0
   -6.9910   19.3038  -34.4340 H   0  0  0  0  0  0  0  0  0  0  0  0
   -5.5470   25.7840  -29.3125 H   0  0  0  0  0  0  0  0  0  0  0  0
   -5.4094   26.6806  -30.8629 H   0  0  0  0  0  0  0  0  0  0  0  0
   -5.9274   24.9606  -30.8629 H   0  0  0  0  0  0  0  0  0  0  0  0
  1  2  1  0
  2  3  1  0
  3  4  2  0
  4  5  1  0
  5  6  2  0
  6  7  1  0
  7  8  1  0
  8  9  1  0
  9 10  1  0
  9 11  1  0
 11 12  1  0
 12 13  2  0
 13 14  1  0
 14 15  2  0
 15 16  1  0
 16 17  1  0
 17 18  1  0
 17 19  1  0
 15 20  1  0
  7 21  2  0
 21 22  1  0
 22 23  1  0
 21  3  1  0
 20 12  1  0
  1 24  1  0
  1 25  1  0
  1 26  1  0
  4 27  1  0
  5 28  1  0
  6 29  1  0
  8 30  1  0
  8 31  1  0
 10 32  1  0
 10 33  1  0
 10 34  1  0
 11 35  1  0
 11 36  1  0
 13 37  1  0
 14 38  1  0
 16 39  1  0
 16 40  1  0
 18 41  1  0
 18 42  1  0
 18 43  1  0
 19 44  1  0
 19 45  1  0
 19 46  1  0
 23 47  1  0
 23 48  1  0
 23 49  1  0
M  END
>  <UniqueID>  (30) 
29

>  <SMILES>  (30) 
COc1cccc(CN(C)Cc2ccc(CN(C)C)o2)c1OC

>  <Energy>  (30) 
79.9776497880706

>  <Genealogy>  (30) 
COc1cccc(CN(C)Cc2ccc(CN(C)C)o2)c1OC (3D coordinates assigned)
COc1cccc(CN(C)Cc2ccc(CN(C)C)o2)c1OC (optimized conformer: 79.9776497880706 kcal/mol)

>  <smiles>  (30) 
COc1cccc(CN(C)Cc2ccc(CN(C)C)o2)c1OC

>  <score_type>  (30) 
oracle

>  <origin>  (30) 
adg

>  <m_score__min__energy>  (30) 
-8.5

>  <m_primary>  (30) 
energy

$$$$
