0:0
     RDKit          3D

 49 51  0  0  0  0  0  0  0  0999 V2000
   -1.9330   21.4630  -31.6280 C   0  0  0  0  0  0  0  0  0  0  0  0
   -2.8330   20.5940  -32.4560 C   0  0  0  0  0  0  0  0  0  0  0  0
   -4.1990   20.5080  -32.1530 C   0  0  0  0  0  0  0  0  0  0  0  0
   -5.0230   19.6610  -32.9030 C   0  0  0  0  0  0  0  0  0  0  0  0
   -6.4650   19.5600  -32.6040 C   0  0  0  0  0  0  0  0  0  0  0  0
   -7.0150   18.2990  -32.3110 C   0  0  0  0  0  0  0  0  0  0  0  0
   -6.2380   17.1870  -32.3350 F   0  0  0  0  0  0  0  0  0  0  0  0
   -8.3690   18.1770  -31.9950 C   0  0  0  0  0  0  0  0  0  0  0  0
   -9.1860   19.3060  -31.9680 C   0  0  0  0  0  0  0  0  0  0  0  0
   -8.6520   20.5660  -32.2480 C   0  0  0  0  0  0  0  0  0  0  0  0
   -7.2880   20.7120  -32.5580 C   0  0  0  0  0  0  0  0  0  0  0  0
   -6.7330   22.0210  -32.7860 N   0  0  0  0  0  0  0  0  0  0  0  0
   -7.4040   23.2600  -32.3890 C   0  0  0  0  0  0  0  0  0  0  0  0
   -7.5710   23.3330  -30.8640 C   0  0  0  0  0  0  0  0  0  0  0  0
   -6.4150   22.6620  -30.1100 C   0  0  0  0  0  0  0  0  0  0  0  0
   -5.7320   23.6550  -29.2480 N   0  0  0  0  0  0  0  0  0  0  0  0
   -4.2710   23.4530  -29.1920 C   0  0  0  0  0  0  0  0  0  0  0  0
   -3.5870   23.9630  -30.4670 C   0  0  0  0  0  0  0  0  0  0  0  0
   -3.8600   25.3360  -30.6550 O   0  0  0  0  0  0  0  0  0  0  0  0
   -5.2470   25.5190  -30.8540 C   0  0  0  0  0  0  0  0  0  0  0  0
   -6.0520   25.0500  -29.6250 C   0  0  0  0  0  0  0  0  0  0  0  0
   -4.4690   18.9170  -33.9510 C   0  0  0  0  0  0  0  0  0  0  0  0
   -3.1020   19.0130  -34.2130 C   0  0  0  0  0  0  0  0  0  0  0  0
   -2.3150   19.8340  -33.4640 N   0  0  0  0  0  0  0  0  0  0  0  0
   -2.1248   21.2778  -30.5608 H   0  0  0  0  0  0  0  0  0  0  0  0
   -0.8833   21.2281  -31.8580 H   0  0  0  0  0  0  0  0  0  0  0  0
   -2.1310   22.5203  -31.8580 H   0  0  0  0  0  0  0  0  0  0  0  0
   -4.6212   21.1032  -31.3299 H   0  0  0  0  0  0  0  0  0  0  0  0
   -8.7923   17.1877  -31.7668 H   0  0  0  0  0  0  0  0  0  0  0  0
  -10.2541   19.2045  -31.7255 H   0  0  0  0  0  0  0  0  0  0  0  0
   -9.3040   21.4517  -32.2258 H   0  0  0  0  0  0  0  0  0  0  0  0
   -5.7320   22.1040  -33.0720 H   0  0  0  0  0  0  0  0  0  0  0  0
   -6.8037   24.1178  -32.7263 H   0  0  0  0  0  0  0  0  0  0  0  0
   -8.4018   23.2812  -32.8516 H   0  0  0  0  0  0  0  0  0  0  0  0
   -7.6194   24.3906  -30.5653 H   0  0  0  0  0  0  0  0  0  0  0  0
   -8.4945   22.7948  -30.6043 H   0  0  0  0  0  0  0  0  0  0  0  0
   -6.8108   21.8476  -29.4854 H   0  0  0  0  0  0  0  0  0  0  0  0
   -5.6952   22.2569  -30.8365 H   0  0  0  0  0  0  0  0  0  0  0  0
   -3.8671   23.9984  -28.3263 H   0  0  0  0  0  0  0  0  0  0  0  0
   -4.0735   22.3748  -29.1003 H   0  0  0  0  0  0  0  0  0  0  0  0
   -2.5002   23.8181  -30.3784 H   0  0  0  0  0  0  0  0  0  0  0  0
   -3.9735   23.4003  -31.3295 H   0  0  0  0  0  0  0  0  0  0  0  0
   -5.4470   26.5866  -31.0282 H   0  0  0  0  0  0  0  0  0  0  0  0
   -5.5568   24.9202  -31.7232 H   0  0  0  0  0  0  0  0  0  0  0  0
   -5.8187   25.7091  -28.7758 H   0  0  0  0  0  0  0  0  0  0  0  0
   -7.1203   25.0941  -29.8834 H   0  0  0  0  0  0  0  0  0  0  0  0
   -5.1062   18.2619  -34.5632 H   0  0  0  0  0  0  0  0  0  0  0  0
   -2.6580   18.4229  -35.0282 H   0  0  0  0  0  0  0  0  0  0  0  0
   -1.2930   19.8770  -33.6790 H   0  0  0  0  0  0  0  0  0  0  0  0
  1  2  1  0
  2  3  2  0
  3  4  1  0
  4  5  1  0
  5  6  2  0
  6  7  1  0
  6  8  1  0
  8  9  2  0
  9 10  1  0
 10 11  2  0
 11 12  1  0
 12 13  1  0
 13 14  1  0
 14 15  1  0
 15 16  1  0
 16 17  1  0
 17 18  1  0
 18 19  1  0
 19 20  1  0
 20 21  1  0
  4 22  2  0
 22 23  1  0
 23 24  2  0
 24  2  1  0
 11  5  1  0
 21 16  1  0
  1 25  1  0
  1 26  1  0
  1 27  1  0
  3 28  1  0
  8 29  1  0
  9 30  1  0
 10 31  1  0
 12 32  1  0
 13 33  1  0
 13 34  1  0
 14 35  1  0
 14 36  1  0
 15 37  1  0
 15 38  1  0
 17 39  1  0
 17 40  1  0
 18 41  1  0
 18 42  1  0
 20 43  1  0
 20 44  1  0
 21 45  1  0
 21 46  1  0
 22 47  1  0
 23 48  1  0
 24 49  1  0
M  CHG  1  24   1
M  END
>  <UniqueID>  (1) 
1

>  <SMILES>  (1) 
Cc1cc(-c2c(F)cccc2NCCCN2CCOCC2)cc[nH+]1

>  <Energy>  (1) 
59.89089328868009

>  <Genealogy>  (1) 
Cc1cc(-c2c(F)cccc2NCCCN2CCOCC2)cc[nH+]1 (protonated)
Cc1cc(-c2c(F)cccc2NCCCN2CCOCC2)cc[nH+]1 (3D coordinates assigned)
Cc1cc(-c2c(F)cccc2NCCCN2CCOCC2)cc[nH+]1 (nonaromatic ring conformer: 59.89089328868009 kcal/mol)

>  <smiles>  (1) 
Cc1cc(-c2c(F)cccc2NCCCN2CCOCC2)ccn1

>  <score_type>  (1) 
oracle

>  <origin>  (1) 
adg

>  <m_score__min__energy>  (1) 
-7.9299999999999997

>  <m_primary>  (1) 
energy

$$$$
1:0
     RDKit          3D

 54 56  0  0  0  0  0  0  0  0999 V2000
   -7.1750   23.7510  -30.4020 C   0  0  0  0  0  0  0  0  0  0  0  0
   -6.3430   24.8340  -29.7150 C   0  0  0  0  0  0  0  0  0  0  0  0
   -5.5070   25.6560  -30.7150 C   0  0  0  0  0  0  0  0  0  0  0  0
   -4.1060   25.2080  -30.7660 N   0  0  0  0  0  0  0  0  0  0  0  0
   -3.6770   24.3760  -29.6270 C   0  0  0  0  0  0  0  0  0  0  0  0
   -2.9000   23.0980  -30.0100 C   0  0  0  0  0  0  0  0  0  0  0  0
   -3.2360   22.5860  -31.4220 C   0  0  0  0  0  0  0  0  0  0  0  0
   -4.7480   22.3960  -31.6350 C   0  0  0  0  0  0  0  0  0  0  0  0
   -5.0670   22.0120  -33.0210 N   0  0  0  0  0  0  0  0  0  0  0  0
   -5.3820   20.5980  -33.0920 C   0  0  0  0  0  0  0  0  0  0  0  0
   -6.6630   20.1480  -32.7440 C   0  0  0  0  0  0  0  0  0  0  0  0
   -6.9940   18.8180  -32.8010 C   0  0  0  0  0  0  0  0  0  0  0  0
   -6.0970   17.8620  -33.2030 N   0  0  0  0  0  0  0  0  0  0  0  0
   -6.5120   16.4460  -33.2810 C   0  0  0  0  0  0  0  0  0  0  0  0
   -4.8020   18.2390  -33.5150 C   0  0  0  0  0  0  0  0  0  0  0  0
   -3.8260   17.2820  -33.8870 C   0  0  0  0  0  0  0  0  0  0  0  0
   -2.5210   17.6650  -34.1900 C   0  0  0  0  0  0  0  0  0  0  0  0
   -2.1520   19.0020  -34.1280 C   0  0  0  0  0  0  0  0  0  0  0  0
   -3.0830   19.9720  -33.7650 C   0  0  0  0  0  0  0  0  0  0  0  0
   -4.4180   19.6200  -33.4590 C   0  0  0  0  0  0  0  0  0  0  0  0
   -8.4090   18.5910  -32.3910 C   0  0  0  0  0  0  0  0  0  0  0  0
   -8.9110   19.9720  -31.9490 C   0  0  0  0  0  0  0  0  0  0  0  0
   -7.8140   20.9840  -32.3050 C   0  0  0  0  0  0  0  0  0  0  0  0
   -7.6585   23.1217  -29.6403 H   0  0  0  0  0  0  0  0  0  0  0  0
   -7.9448   24.2232  -31.0300 H   0  0  0  0  0  0  0  0  0  0  0  0
   -6.5204   23.1289  -31.0300 H   0  0  0  0  0  0  0  0  0  0  0  0
   -7.0216   25.5140  -29.1792 H   0  0  0  0  0  0  0  0  0  0  0  0
   -5.6458   24.3346  -29.0262 H   0  0  0  0  0  0  0  0  0  0  0  0
   -5.9493   25.5518  -31.7168 H   0  0  0  0  0  0  0  0  0  0  0  0
   -5.5152   26.7043  -30.3818 H   0  0  0  0  0  0  0  0  0  0  0  0
   -3.4800   26.0410  -30.8510 H   0  0  0  0  0  0  0  0  0  0  0  0
   -3.0302   24.9883  -28.9814 H   0  0  0  0  0  0  0  0  0  0  0  0
   -4.5975   24.0388  -29.1281 H   0  0  0  0  0  0  0  0  0  0  0  0
   -1.8229   23.3165  -29.9642 H   0  0  0  0  0  0  0  0  0  0  0  0
   -3.1920   22.3116  -29.2984 H   0  0  0  0  0  0  0  0  0  0  0  0
   -2.8645   23.3134  -32.1588 H   0  0  0  0  0  0  0  0  0  0  0  0
   -2.7549   21.6045  -31.5451 H   0  0  0  0  0  0  0  0  0  0  0  0
   -5.1056   21.6072  -30.9569 H   0  0  0  0  0  0  0  0  0  0  0  0
   -5.2434   23.3557  -31.4262 H   0  0  0  0  0  0  0  0  0  0  0  0
   -5.8790   22.5720  -33.3610 H   0  0  0  0  0  0  0  0  0  0  0  0
   -4.2800   22.2460  -33.6670 H   0  0  0  0  0  0  0  0  0  0  0  0
   -6.6304   16.0421  -32.2647 H   0  0  0  0  0  0  0  0  0  0  0  0
   -7.4692   16.3735  -33.8182 H   0  0  0  0  0  0  0  0  0  0  0  0
   -5.7454   15.8683  -33.8182 H   0  0  0  0  0  0  0  0  0  0  0  0
   -4.1030   16.2187  -33.9375 H   0  0  0  0  0  0  0  0  0  0  0  0
   -1.7802   16.9051  -34.4795 H   0  0  0  0  0  0  0  0  0  0  0  0
   -1.1194   19.2965  -34.3667 H   0  0  0  0  0  0  0  0  0  0  0  0
   -2.7755   21.0270  -33.7156 H   0  0  0  0  0  0  0  0  0  0  0  0
   -9.0027   18.2146  -33.2371 H   0  0  0  0  0  0  0  0  0  0  0  0
   -8.4961   17.8403  -31.5917 H   0  0  0  0  0  0  0  0  0  0  0  0
   -9.8421   20.2226  -32.4784 H   0  0  0  0  0  0  0  0  0  0  0  0
   -9.1219   19.9857  -30.8695 H   0  0  0  0  0  0  0  0  0  0  0  0
   -8.1455   21.6467  -33.1180 H   0  0  0  0  0  0  0  0  0  0  0  0
   -7.5572   21.6373  -31.4581 H   0  0  0  0  0  0  0  0  0  0  0  0
  1  2  1  0
  2  3  1  0
  3  4  1  0
  4  5  1  0
  5  6  1  0
  6  7  1  0
  7  8  1  0
  8  9  1  0
  9 10  1  0
 10 11  2  0
 11 12  1  0
 12 13  2  0
 13 14  1  0
 13 15  1  0
 15 16  2  0
 16 17  1  0
 17 18  2  0
 18 19  1  0
 19 20  2  0
 12 21  1  0
 21 22  1  0
 22 23  1  0
 20 10  1  0
 23 11  1  0
 20 15  1  0
  1 24  1  0
  1 25  1  0
  1 26  1  0
  2 27  1  0
  2 28  1  0
  3 29  1  0
  3 30  1  0
  4 31  1  0
  5 32  1  0
  5 33  1  0
  6 34  1  0
  6 35  1  0
  7 36  1  0
  7 37  1  0
  8 38  1  0
  8 39  1  0
  9 40  1  0
  9 41  1  0
 14 42  1  0
 14 43  1  0
 14 44  1  0
 16 45  1  0
 17 46  1  0
 18 47  1  0
 19 48  1  0
 21 49  1  0
 21 50  1  0
 22 51  1  0
 22 52  1  0
 23 53  1  0
 23 54  1  0
M  CHG  2   9   1  13   1
M  END
>  <UniqueID>  (2) 
2

>  <SMILES>  (2) 
CCCNCCCC[NH2+]c1c2c([n+](C)c3ccccc13)CCC2

>  <Energy>  (2) 
71.36012956365059

>  <Genealogy>  (2) 
CCCNCCCC[NH2+]c1c2c([n+](C)c3ccccc13)CCC2 (protonated)
CCCNCCCC[NH2+]c1c2c([n+](C)c3ccccc13)CCC2 (3D coordinates assigned)
CCCNCCCC[NH2+]c1c2c([n+](C)c3ccccc13)CCC2 (nonaromatic ring conformer: 71.36012956365059 kcal/mol)

>  <smiles>  (2) 
CCCNCCCCNc1c2c([n+](C)c3ccccc13)CCC2

>  <score_type>  (2) 
oracle

>  <origin>  (2) 
adg

>  <m_score__min__energy>  (2) 
-8.3699999999999992

>  <m_primary>  (2) 
energy

$$$$
2:0
     RDKit          3D

 87 91  0  0  0  0  0  0  0  0999 V2000
   -3.7790   24.5370  -27.0940 C   0  0  0  0  0  0  0  0  0  0  0  0
   -2.7670   24.0440  -27.9660 O   0  0  0  0  0  0  0  0  0  0  0  0
   -2.2250   22.7510  -27.8920 C   0  0  0  0  0  0  0  0  0  0  0  0
   -2.8480   21.7290  -28.6150 C   0  0  0  0  0  0  0  0  0  0  0  0
   -2.3410   20.4260  -28.5860 C   0  0  0  0  0  0  0  0  0  0  0  0
   -1.1830   20.1290  -27.8470 C   0  0  0  0  0  0  0  0  0  0  0  0
   -0.6340   18.7140  -27.8060 C   0  0  0  0  0  0  0  0  0  0  0  0
    0.5580   18.4610  -28.6810 N   0  0  1  0  0  0  0  0  0  0  0  0
    1.7560   18.1410  -27.8640 C   0  0  0  0  0  0  0  0  0  0  0  0
    0.3070   17.3760  -29.6610 C   0  0  0  0  0  0  0  0  0  0  0  0
   -0.0820   18.0570  -30.9520 C   0  0  0  0  0  0  0  0  0  0  0  0
    0.6550   19.3350  -30.9560 N   0  0  1  0  0  0  0  0  0  0  0  0
    2.0000   19.1140  -31.5590 C   0  0  0  0  0  0  0  0  0  0  0  0
   -0.0190   20.4230  -31.7360 C   0  0  0  0  0  0  0  0  0  0  0  0
    0.2220   20.4380  -33.2690 C   0  0  0  0  0  0  0  0  0  0  0  0
   -0.5190   19.4090  -33.9320 O   0  0  0  0  0  0  0  0  0  0  0  0
   -1.8840   19.1270  -33.7460 C   0  0  0  0  0  0  0  0  0  0  0  0
   -2.3020   17.8080  -33.8620 C   0  0  0  0  0  0  0  0  0  0  0  0
   -3.6500   17.4790  -33.7520 C   0  0  0  0  0  0  0  0  0  0  0  0
   -4.6360   18.4760  -33.5430 C   0  0  0  0  0  0  0  0  0  0  0  0
   -4.2130   19.8180  -33.3570 C   0  0  0  0  0  0  0  0  0  0  0  0
   -2.8300   20.1210  -33.4530 C   0  0  0  0  0  0  0  0  0  0  0  0
   -5.1810   20.8220  -33.0730 C   0  0  0  0  0  0  0  0  0  0  0  0
   -4.7960   22.2240  -33.0030 N   0  0  0  0  0  0  0  0  0  0  0  0
   -3.8910   22.4550  -31.8640 C   0  0  0  0  0  0  0  0  0  0  0  0
   -4.6000   23.2620  -30.7520 C   0  0  0  0  0  0  0  0  0  0  0  0
   -5.3970   24.4100  -31.2430 N   0  0  0  0  0  0  0  0  0  0  0  0
   -5.0710   25.6750  -30.5680 C   0  0  0  0  0  0  0  0  0  0  0  0
   -6.8460   24.1490  -31.2150 C   0  0  0  0  0  0  0  0  0  0  0  0
   -6.5150   20.4200  -32.7970 C   0  0  0  0  0  0  0  0  0  0  0  0
   -7.4860   21.3320  -32.3080 C   0  0  0  0  0  0  0  0  0  0  0  0
   -8.7820   20.9160  -32.0140 C   0  0  0  0  0  0  0  0  0  0  0  0
   -9.1410   19.5870  -32.1790 C   0  0  0  0  0  0  0  0  0  0  0  0
   -8.2090   18.6650  -32.6490 C   0  0  0  0  0  0  0  0  0  0  0  0
   -6.8910   19.0620  -32.9970 C   0  0  0  0  0  0  0  0  0  0  0  0
   -5.9790   18.1560  -33.5020 N   0  0  0  0  0  0  0  0  0  0  0  0
   -6.4390   16.8450  -34.0130 C   0  0  0  0  0  0  0  0  0  0  0  0
    0.8210   19.6790  -29.5170 C   0  0  0  0  0  0  0  0  0  0  0  0
   -0.5770   21.1470  -27.0910 C   0  0  0  0  0  0  0  0  0  0  0  0
   -1.0870   22.4490  -27.1180 C   0  0  0  0  0  0  0  0  0  0  0  0
   -3.4686   24.3858  -26.0496 H   0  0  0  0  0  0  0  0  0  0  0  0
   -3.9317   25.6105  -27.2794 H   0  0  0  0  0  0  0  0  0  0  0  0
   -4.7184   23.9956  -27.2794 H   0  0  0  0  0  0  0  0  0  0  0  0
   -3.7447   21.9519  -29.2118 H   0  0  0  0  0  0  0  0  0  0  0  0
   -2.8519   19.6283  -29.1452 H   0  0  0  0  0  0  0  0  0  0  0  0
   -0.3463   18.4915  -26.7679 H   0  0  0  0  0  0  0  0  0  0  0  0
   -1.4356   18.0665  -28.1909 H   0  0  0  0  0  0  0  0  0  0  0  0
    1.5005   18.2092  -26.7963 H   0  0  0  0  0  0  0  0  0  0  0  0
    2.0957   17.1206  -28.0953 H   0  0  0  0  0  0  0  0  0  0  0  0
    2.5592   18.8561  -28.0953 H   0  0  0  0  0  0  0  0  0  0  0  0
    1.2167   16.7749  -29.8059 H   0  0  0  0  0  0  0  0  0  0  0  0
   -0.4838   16.6955  -29.3123 H   0  0  0  0  0  0  0  0  0  0  0  0
    0.2100   17.4413  -31.8155 H   0  0  0  0  0  0  0  0  0  0  0  0
   -1.1689   18.2104  -31.0232 H   0  0  0  0  0  0  0  0  0  0  0  0
    2.7449   18.9916  -30.7589 H   0  0  0  0  0  0  0  0  0  0  0  0
    1.9782   18.2074  -32.1816 H   0  0  0  0  0  0  0  0  0  0  0  0
    2.2695   19.9799  -32.1816 H   0  0  0  0  0  0  0  0  0  0  0  0
   -1.1024   20.3288  -31.5705 H   0  0  0  0  0  0  0  0  0  0  0  0
    0.4245   21.3592  -31.3660 H   0  0  0  0  0  0  0  0  0  0  0  0
   -0.0882   21.4146  -33.6690 H   0  0  0  0  0  0  0  0  0  0  0  0
    1.2924   20.2598  -33.4493 H   0  0  0  0  0  0  0  0  0  0  0  0
   -1.5608   17.0155  -34.0425 H   0  0  0  0  0  0  0  0  0  0  0  0
   -3.9561   16.4252  -33.8287 H   0  0  0  0  0  0  0  0  0  0  0  0
   -2.4928   21.1560  -33.2945 H   0  0  0  0  0  0  0  0  0  0  0  0
   -4.3510   22.5280  -33.8980 H   0  0  0  0  0  0  0  0  0  0  0  0
   -5.6360   22.8420  -32.9310 H   0  0  0  0  0  0  0  0  0  0  0  0
   -3.5700   21.4851  -31.4564 H   0  0  0  0  0  0  0  0  0  0  0  0
   -3.0218   23.0299  -32.2162 H   0  0  0  0  0  0  0  0  0  0  0  0
   -5.2737   22.5822  -30.2098 H   0  0  0  0  0  0  0  0  0  0  0  0
   -3.8078   23.6798  -30.1134 H   0  0  0  0  0  0  0  0  0  0  0  0
   -5.1085   25.5294  -29.4783 H   0  0  0  0  0  0  0  0  0  0  0  0
   -4.0606   25.9968  -30.8604 H   0  0  0  0  0  0  0  0  0  0  0  0
   -5.8000   26.4451  -30.8604 H   0  0  0  0  0  0  0  0  0  0  0  0
   -7.1874   24.0875  -30.1711 H   0  0  0  0  0  0  0  0  0  0  0  0
   -7.3757   24.9662  -31.7265 H   0  0  0  0  0  0  0  0  0  0  0  0
   -7.0573   23.1983  -31.7265 H   0  0  0  0  0  0  0  0  0  0  0  0
   -7.2100   22.3863  -32.1585 H   0  0  0  0  0  0  0  0  0  0  0  0
   -9.5226   21.6434  -31.6500 H   0  0  0  0  0  0  0  0  0  0  0  0
  -10.1634   19.2604  -31.9383 H   0  0  0  0  0  0  0  0  0  0  0  0
   -8.4995   17.6091  -32.7526 H   0  0  0  0  0  0  0  0  0  0  0  0
   -6.6715   16.1825  -33.1662 H   0  0  0  0  0  0  0  0  0  0  0  0
   -7.3412   16.9865  -34.6262 H   0  0  0  0  0  0  0  0  0  0  0  0
   -5.6462   16.3918  -34.6262 H   0  0  0  0  0  0  0  0  0  0  0  0
    1.8479   20.0313  -29.3398 H   0  0  0  0  0  0  0  0  0  0  0  0
    0.1103   20.4730  -29.2442 H   0  0  0  0  0  0  0  0  0  0  0  0
    0.3044   20.9182  -26.4739 H   0  0  0  0  0  0  0  0  0  0  0  0
   -0.5974   23.2410  -26.5323 H   0  0  0  0  0  0  0  0  0  0  0  0
  1  2  1  0
  2  3  1  0
  3  4  2  0
  4  5  1  0
  5  6  2  0
  6  7  1  0
  8  7  1  1
  8  9  1  0
  8 10  1  0
 10 11  1  0
 11 12  1  0
 12 13  1  6
 12 14  1  0
 14 15  1  0
 15 16  1  0
 16 17  1  0
 17 18  2  0
 18 19  1  0
 19 20  2  0
 20 21  1  0
 21 22  2  0
 21 23  1  0
 23 24  1  0
 24 25  1  0
 25 26  1  0
 26 27  1  0
 27 28  1  0
 27 29  1  0
 23 30  2  0
 30 31  1  0
 31 32  2  0
 32 33  1  0
 33 34  2  0
 34 35  1  0
 35 36  2  0
 36 37  1  0
 12 38  1  0
  6 39  1  0
 39 40  2  0
 40  3  1  0
 38  8  1  0
 22 17  1  0
 35 30  1  0
 36 20  1  0
  1 41  1  0
  1 42  1  0
  1 43  1  0
  4 44  1  0
  5 45  1  0
  7 46  1  0
  7 47  1  0
  9 48  1  0
  9 49  1  0
  9 50  1  0
 10 51  1  0
 10 52  1  0
 11 53  1  0
 11 54  1  0
 13 55  1  0
 13 56  1  0
 13 57  1  0
 14 58  1  0
 14 59  1  0
 15 60  1  0
 15 61  1  0
 18 62  1  0
 19 63  1  0
 22 64  1  0
 24 65  1  0
 24 66  1  0
 25 67  1  0
 25 68  1  0
 26 69  1  0
 26 70  1  0
 28 71  1  0
 28 72  1  0
 28 73  1  0
 29 74  1  0
 29 75  1  0
 29 76  1  0
 31 77  1  0
 32 78  1  0
 33 79  1  0
 34 80  1  0
 37 81  1  0
 37 82  1  0
 37 83  1  0
 38 84  1  0
 38 85  1  0
 39 86  1  0
 40 87  1  0
M  CHG  4   8   1  12   1  24   1  36   1
M  END
>  <UniqueID>  (3) 
3

>  <SMILES>  (3) 
COc1ccc(C[N@@+]2(C)CC[N@@+](C)(CCOc3ccc4c(c3)c([NH2+]CCN(C)C)c3ccccc3[n+]4C)C2)cc1

>  <Energy>  (3) 
146.07149948161117

>  <Genealogy>  (3) 
COc1ccc(C[N+]2(C)CC[N+](C)(CCOc3ccc4c(c3)c([NH2+]CCN(C)C)c3ccccc3[n+]4C)C2)cc1 (protonated)
COc1ccc(C[N@@+]2(C)CC[N@@+](C)(CCOc3ccc4c(c3)c([NH2+]CCN(C)C)c3ccccc3[n+]4C)C2)cc1 (chirality)
COc1ccc(C[N@@+]2(C)CC[N@@+](C)(CCOc3ccc4c(c3)c([NH2+]CCN(C)C)c3ccccc3[n+]4C)C2)cc1 (3D coordinates assigned)
COc1ccc(C[N@@+]2(C)CC[N@@+](C)(CCOc3ccc4c(c3)c([NH2+]CCN(C)C)c3ccccc3[n+]4C)C2)cc1 (nonaromatic ring conformer: 146.07149948161117 kcal/mol)

>  <smiles>  (3) 
COc1ccc(C[N+]2(C)CC[N+](C)(CCOc3ccc4c(c3)c(NCCN(C)C)c3ccccc3[n+]4C)C2)cc1

>  <score_type>  (3) 
oracle

>  <origin>  (3) 
adg

>  <m_score__min__energy>  (3) 
-8.2599999999999998

>  <m_primary>  (3) 
energy

$$$$
3:0
     RDKit          3D

 61 63  0  0  0  0  0  0  0  0999 V2000
   -2.7240   19.6680  -26.9930 C   0  0  0  0  0  0  0  0  0  0  0  0
   -2.1640   20.3840  -28.2260 C   0  0  0  0  0  0  0  0  0  0  0  0
   -2.2690   21.8580  -28.1080 N   0  0  0  0  0  0  0  0  0  0  0  0
   -1.6030   22.3970  -26.9090 C   0  0  0  0  0  0  0  0  0  0  0  0
   -1.5800   23.9360  -26.8910 C   0  0  0  0  0  0  0  0  0  0  0  0
   -2.9070   24.5120  -27.4010 C   0  0  0  0  0  0  0  0  0  0  0  0
   -3.1090   24.1610  -28.7570 O   0  0  0  0  0  0  0  0  0  0  0  0
   -4.4860   24.1710  -29.0960 C   0  0  0  0  0  0  0  0  0  0  0  0
   -4.8670   22.8740  -29.8160 C   0  0  0  0  0  0  0  0  0  0  0  0
   -3.7150   22.1250  -30.1570 O   0  0  0  0  0  0  0  0  0  0  0  0
   -3.1960   22.5460  -31.4010 C   0  0  0  0  0  0  0  0  0  0  0  0
   -3.2940   21.3910  -32.3910 C   0  0  0  0  0  0  0  0  0  0  0  0
   -4.4610   21.5560  -33.2550 N   0  0  0  0  0  0  0  0  0  0  0  0
   -5.6440   20.7740  -33.0220 C   0  0  0  0  0  0  0  0  0  0  0  0
   -5.6620   19.4030  -33.3350 C   0  0  0  0  0  0  0  0  0  0  0  0
   -4.5330   18.7740  -33.9050 C   0  0  0  0  0  0  0  0  0  0  0  0
   -4.5750   17.4280  -34.2610 C   0  0  0  0  0  0  0  0  0  0  0  0
   -5.7350   16.6900  -34.0620 C   0  0  0  0  0  0  0  0  0  0  0  0
   -6.8520   17.2830  -33.4760 C   0  0  0  0  0  0  0  0  0  0  0  0
   -6.8290   18.6400  -33.0630 C   0  0  0  0  0  0  0  0  0  0  0  0
   -7.9060   19.2230  -32.4210 N   0  0  0  0  0  0  0  0  0  0  0  0
   -8.9920   18.3750  -31.8780 C   0  0  0  0  0  0  0  0  0  0  0  0
   -7.9590   20.5960  -32.2650 C   0  0  0  0  0  0  0  0  0  0  0  0
   -9.1460   21.2570  -31.8610 C   0  0  0  0  0  0  0  0  0  0  0  0
   -9.1750   22.6400  -31.6790 C   0  0  0  0  0  0  0  0  0  0  0  0
   -8.0350   23.4000  -31.9070 C   0  0  0  0  0  0  0  0  0  0  0  0
   -6.8610   22.7850  -32.3380 C   0  0  0  0  0  0  0  0  0  0  0  0
   -6.8100   21.3880  -32.5340 C   0  0  0  0  0  0  0  0  0  0  0  0
   -2.3438   20.1542  -26.0825 H   0  0  0  0  0  0  0  0  0  0  0  0
   -3.8226   19.7212  -27.0056 H   0  0  0  0  0  0  0  0  0  0  0  0
   -2.4077   18.6145  -27.0056 H   0  0  0  0  0  0  0  0  0  0  0  0
   -1.1048   20.1118  -28.3441 H   0  0  0  0  0  0  0  0  0  0  0  0
   -2.7554   20.0702  -29.0988 H   0  0  0  0  0  0  0  0  0  0  0  0
   -1.9020   22.3440  -28.9610 H   0  0  0  0  0  0  0  0  0  0  0  0
   -3.2850   22.1050  -28.0330 H   0  0  0  0  0  0  0  0  0  0  0  0
   -2.1398   22.0415  -26.0171 H   0  0  0  0  0  0  0  0  0  0  0  0
   -0.5604   22.0466  -26.9190 H   0  0  0  0  0  0  0  0  0  0  0  0
   -1.4106   24.2811  -25.8604 H   0  0  0  0  0  0  0  0  0  0  0  0
   -0.7712   24.2820  -27.5514 H   0  0  0  0  0  0  0  0  0  0  0  0
   -3.7329   24.1101  -26.7958 H   0  0  0  0  0  0  0  0  0  0  0  0
   -2.8755   25.6084  -27.3173 H   0  0  0  0  0  0  0  0  0  0  0  0
   -5.0848   24.2655  -28.1781 H   0  0  0  0  0  0  0  0  0  0  0  0
   -4.6831   25.0219  -29.7646 H   0  0  0  0  0  0  0  0  0  0  0  0
   -5.5059   22.2701  -29.1549 H   0  0  0  0  0  0  0  0  0  0  0  0
   -5.4036   23.1317  -30.7410 H   0  0  0  0  0  0  0  0  0  0  0  0
   -3.7775   23.4023  -31.7734 H   0  0  0  0  0  0  0  0  0  0  0  0
   -2.1452   22.8495  -31.2839 H   0  0  0  0  0  0  0  0  0  0  0  0
   -2.3853   21.3669  -33.0104 H   0  0  0  0  0  0  0  0  0  0  0  0
   -3.3958   20.4497  -31.8310 H   0  0  0  0  0  0  0  0  0  0  0  0
   -4.3130   21.9530  -34.2090 H   0  0  0  0  0  0  0  0  0  0  0  0
   -3.6120   19.3525  -34.0693 H   0  0  0  0  0  0  0  0  0  0  0  0
   -3.6879   16.9485  -34.7006 H   0  0  0  0  0  0  0  0  0  0  0  0
   -5.7721   15.6341  -34.3679 H   0  0  0  0  0  0  0  0  0  0  0  0
   -7.7665   16.6890  -33.3314 H   0  0  0  0  0  0  0  0  0  0  0  0
   -8.9612   18.3991  -30.7787 H   0  0  0  0  0  0  0  0  0  0  0  0
   -9.9635   18.7559  -32.2260 H   0  0  0  0  0  0  0  0  0  0  0  0
   -8.8580   17.3401  -32.2260 H   0  0  0  0  0  0  0  0  0  0  0  0
  -10.0598   20.6696  -31.6880 H   0  0  0  0  0  0  0  0  0  0  0  0
  -10.1043   23.1304  -31.3537 H   0  0  0  0  0  0  0  0  0  0  0  0
   -8.0588   24.4881  -31.7473 H   0  0  0  0  0  0  0  0  0  0  0  0
   -5.9650   23.3944  -32.5274 H   0  0  0  0  0  0  0  0  0  0  0  0
  1  2  1  0
  2  3  1  0
  3  4  1  0
  4  5  1  0
  5  6  1  0
  6  7  1  0
  7  8  1  0
  8  9  1  0
  9 10  1  0
 10 11  1  0
 11 12  1  0
 12 13  1  0
 13 14  1  0
 14 15  2  0
 15 16  1  0
 16 17  2  0
 17 18  1  0
 18 19  2  0
 19 20  1  0
 20 21  2  0
 21 22  1  0
 21 23  1  0
 23 24  2  0
 24 25  1  0
 25 26  2  0
 26 27  1  0
 27 28  2  0
 28 14  1  0
 20 15  1  0
 28 23  1  0
  1 29  1  0
  1 30  1  0
  1 31  1  0
  2 32  1  0
  2 33  1  0
  3 34  1  0
  3 35  1  0
  4 36  1  0
  4 37  1  0
  5 38  1  0
  5 39  1  0
  6 40  1  0
  6 41  1  0
  8 42  1  0
  8 43  1  0
  9 44  1  0
  9 45  1  0
 11 46  1  0
 11 47  1  0
 12 48  1  0
 12 49  1  0
 13 50  1  0
 16 51  1  0
 17 52  1  0
 18 53  1  0
 19 54  1  0
 22 55  1  0
 22 56  1  0
 22 57  1  0
 24 58  1  0
 25 59  1  0
 26 60  1  0
 27 61  1  0
M  CHG  2   3   1  21   1
M  END
>  <UniqueID>  (4) 
4

>  <SMILES>  (4) 
CC[NH2+]CCCOCCOCCNc1c2ccccc2[n+](C)c2ccccc12

>  <Energy>  (4) 
84.71570311455986

>  <Genealogy>  (4) 
CC[NH2+]CCCOCCOCCNc1c2ccccc2[n+](C)c2ccccc12 (protonated)
CC[NH2+]CCCOCCOCCNc1c2ccccc2[n+](C)c2ccccc12 (3D coordinates assigned)
CC[NH2+]CCCOCCOCCNc1c2ccccc2[n+](C)c2ccccc12 (optimized conformer: 84.71570311455986 kcal/mol)

>  <smiles>  (4) 
CCNCCCOCCOCCNc1c2ccccc2[n+](C)c2ccccc12

>  <score_type>  (4) 
oracle

>  <origin>  (4) 
adg

>  <m_score__min__energy>  (4) 
-9.6300000000000008

>  <m_primary>  (4) 
energy

$$$$
4:0
     RDKit          3D

 41 42  0  0  0  0  0  0  0  0999 V2000
   -6.8820   14.5830  -34.3120 C   0  0  0  0  0  0  0  0  0  0  0  0
   -5.8430   15.6120  -34.1820 N   0  0  0  0  0  0  0  0  0  0  0  0
   -4.4700   15.2900  -34.5910 C   0  0  0  0  0  0  0  0  0  0  0  0
   -6.1660   16.9270  -33.6590 C   0  0  0  0  0  0  0  0  0  0  0  0
   -6.8620   17.0720  -32.4430 C   0  0  0  0  0  0  0  0  0  0  0  0
   -7.1730   18.3390  -31.9400 C   0  0  0  0  0  0  0  0  0  0  0  0
   -6.8060   19.4990  -32.6420 C   0  0  0  0  0  0  0  0  0  0  0  0
   -7.1190   20.8540  -32.1210 C   0  0  0  0  0  0  0  0  0  0  0  0
   -8.4190   21.3860  -32.1680 C   0  0  0  0  0  0  0  0  0  0  0  0
   -8.6570   22.6660  -31.6690 C   0  0  0  0  0  0  0  0  0  0  0  0
   -7.6090   23.4130  -31.1350 C   0  0  0  0  0  0  0  0  0  0  0  0
   -6.3110   22.8720  -31.1060 C   0  0  0  0  0  0  0  0  0  0  0  0
   -5.1340   23.6650  -30.5370 C   0  0  0  0  0  0  0  0  0  0  0  0
   -5.0220   23.4690  -29.0070 C   0  0  0  0  0  0  0  0  0  0  0  0
   -5.3310   25.1680  -30.8200 C   0  0  0  0  0  0  0  0  0  0  0  0
   -3.8190   23.1840  -31.1830 C   0  0  0  0  0  0  0  0  0  0  0  0
   -6.1150   21.6150  -31.6010 N   0  0  0  0  0  0  0  0  0  0  0  0
   -6.1000   19.3610  -33.8490 C   0  0  0  0  0  0  0  0  0  0  0  0
   -5.7890   18.0960  -34.3530 C   0  0  0  0  0  0  0  0  0  0  0  0
   -7.2067   14.2614  -33.3115 H   0  0  0  0  0  0  0  0  0  0  0  0
   -7.7409   14.9965  -34.8610 H   0  0  0  0  0  0  0  0  0  0  0  0
   -6.4769   13.7202  -34.8610 H   0  0  0  0  0  0  0  0  0  0  0  0
   -3.8459   15.1436  -33.6971 H   0  0  0  0  0  0  0  0  0  0  0  0
   -4.4728   14.3682  -35.1912 H   0  0  0  0  0  0  0  0  0  0  0  0
   -4.0627   16.1170  -35.1912 H   0  0  0  0  0  0  0  0  0  0  0  0
   -7.1651   16.1761  -31.8813 H   0  0  0  0  0  0  0  0  0  0  0  0
   -7.7107   18.4283  -30.9845 H   0  0  0  0  0  0  0  0  0  0  0  0
   -9.2433   20.7964  -32.5957 H   0  0  0  0  0  0  0  0  0  0  0  0
   -9.6731   23.0865  -31.6969 H   0  0  0  0  0  0  0  0  0  0  0  0
   -7.7960   24.4216  -30.7378 H   0  0  0  0  0  0  0  0  0  0  0  0
   -5.5045   24.3133  -28.4929 H   0  0  0  0  0  0  0  0  0  0  0  0
   -5.5207   22.5315  -28.7199 H   0  0  0  0  0  0  0  0  0  0  0  0
   -3.9611   23.4227  -28.7199 H   0  0  0  0  0  0  0  0  0  0  0  0
   -5.4026   25.7141  -29.8678 H   0  0  0  0  0  0  0  0  0  0  0  0
   -4.4749   25.5477  -31.3970 H   0  0  0  0  0  0  0  0  0  0  0  0
   -6.2560   25.3143  -31.3970 H   0  0  0  0  0  0  0  0  0  0  0  0
   -3.0983   22.9204  -30.3949 H   0  0  0  0  0  0  0  0  0  0  0  0
   -4.0189   22.3008  -31.8075 H   0  0  0  0  0  0  0  0  0  0  0  0
   -3.4018   23.9877  -31.8075 H   0  0  0  0  0  0  0  0  0  0  0  0
   -5.7889   20.2589  -34.4030 H   0  0  0  0  0  0  0  0  0  0  0  0
   -5.2427   18.0101  -35.3039 H   0  0  0  0  0  0  0  0  0  0  0  0
  1  2  1  0
  2  3  1  0
  2  4  1  0
  4  5  2  0
  5  6  1  0
  6  7  2  0
  7  8  1  0
  8  9  2  0
  9 10  1  0
 10 11  2  0
 11 12  1  0
 12 13  1  0
 13 14  1  0
 13 15  1  0
 13 16  1  0
 12 17  2  0
  7 18  1  0
 18 19  2  0
 19  4  1  0
 17  8  1  0
  1 20  1  0
  1 21  1  0
  1 22  1  0
  3 23  1  0
  3 24  1  0
  3 25  1  0
  5 26  1  0
  6 27  1  0
  9 28  1  0
 10 29  1  0
 11 30  1  0
 14 31  1  0
 14 32  1  0
 14 33  1  0
 15 34  1  0
 15 35  1  0
 15 36  1  0
 16 37  1  0
 16 38  1  0
 16 39  1  0
 18 40  1  0
 19 41  1  0
M  END
>  <UniqueID>  (5) 
5

>  <SMILES>  (5) 
CN(C)c1ccc(-c2cccc(C(C)(C)C)n2)cc1

>  <Energy>  (5) 
44.18175424158334

>  <Genealogy>  (5) 
CN(C)c1ccc(-c2cccc(C(C)(C)C)n2)cc1 (3D coordinates assigned)
CN(C)c1ccc(-c2cccc(C(C)(C)C)n2)cc1 (optimized conformer: 44.18175424158334 kcal/mol)

>  <smiles>  (5) 
CN(C)c1ccc(-c2cccc(C(C)(C)C)n2)cc1

>  <score_type>  (5) 
oracle

>  <origin>  (5) 
adg

>  <m_score__min__energy>  (5) 
-7.0899999999999999

>  <m_primary>  (5) 
energy

$$$$
5:0
     RDKit          3D

 49 50  0  0  0  0  0  0  0  0999 V2000
   -2.5300   22.6550  -29.8220 C   0  0  0  0  0  0  0  0  0  0  0  0
   -2.6800   23.4180  -28.5480 C   0  0  0  0  0  0  0  0  0  0  0  0
   -1.6790   23.6010  -27.6650 N   0  0  0  0  0  0  0  0  0  0  0  0
   -2.1290   24.4060  -26.7140 N   0  0  0  0  0  0  0  0  0  0  0  0
   -1.2960   24.9300  -25.6410 C   0  0  0  0  0  0  0  0  0  0  0  0
   -3.3960   24.7820  -26.9800 C   0  0  0  0  0  0  0  0  0  0  0  0
   -3.7830   24.1520  -28.1480 C   0  0  0  0  0  0  0  0  0  0  0  0
   -5.0020   24.3260  -28.8880 N   0  0  0  0  0  0  0  0  0  0  0  0
   -5.0620   24.6960  -30.2750 C   0  0  0  0  0  0  0  0  0  0  0  0
   -4.0760   25.2500  -30.8330 O   0  0  0  0  0  0  0  0  0  0  0  0
   -6.3260   24.4820  -31.0620 C   0  0  0  0  0  0  0  0  0  0  0  0
   -6.9430   23.0900  -30.8100 C   0  0  0  0  0  0  0  0  0  0  0  0
   -8.0390   22.6860  -31.8190 C   0  0  0  0  0  0  0  0  0  0  0  0
   -8.9670   21.5430  -31.3700 C   0  0  0  0  0  0  0  0  0  0  0  0
   -8.4760   20.1490  -31.7980 C   0  0  0  0  0  0  0  0  0  0  0  0
   -7.8550   20.2000  -33.1300 N   0  0  0  0  0  0  0  0  0  0  0  0
   -6.8150   19.1790  -33.2950 C   0  0  0  0  0  0  0  0  0  0  0  0
   -5.4640   19.8410  -33.2990 C   0  0  0  0  0  0  0  0  0  0  0  0
   -4.3240   19.1080  -33.6590 C   0  0  0  0  0  0  0  0  0  0  0  0
   -3.0590   19.7060  -33.6190 C   0  0  0  0  0  0  0  0  0  0  0  0
   -2.9270   21.0360  -33.2110 C   0  0  0  0  0  0  0  0  0  0  0  0
   -1.7010   21.6150  -33.1720 F   0  0  0  0  0  0  0  0  0  0  0  0
   -4.0580   21.7690  -32.8410 C   0  0  0  0  0  0  0  0  0  0  0  0
   -5.3210   21.1720  -32.8760 C   0  0  0  0  0  0  0  0  0  0  0  0
   -2.3224   21.5990  -29.5947 H   0  0  0  0  0  0  0  0  0  0  0  0
   -3.4598   22.7286  -30.4051 H   0  0  0  0  0  0  0  0  0  0  0  0
   -1.6973   23.0751  -30.4051 H   0  0  0  0  0  0  0  0  0  0  0  0
   -1.7332   24.6550  -24.6698 H   0  0  0  0  0  0  0  0  0  0  0  0
   -0.2845   24.5052  -25.7213 H   0  0  0  0  0  0  0  0  0  0  0  0
   -1.2410   26.0257  -25.7213 H   0  0  0  0  0  0  0  0  0  0  0  0
   -4.0107   25.4663  -26.3767 H   0  0  0  0  0  0  0  0  0  0  0  0
   -5.9020   24.1260  -28.3970 H   0  0  0  0  0  0  0  0  0  0  0  0
   -7.0575   25.2510  -30.7728 H   0  0  0  0  0  0  0  0  0  0  0  0
   -6.0734   24.5502  -32.1304 H   0  0  0  0  0  0  0  0  0  0  0  0
   -6.1374   22.3426  -30.8595 H   0  0  0  0  0  0  0  0  0  0  0  0
   -7.4263   23.1350  -29.8229 H   0  0  0  0  0  0  0  0  0  0  0  0
   -8.6622   23.5711  -32.0143 H   0  0  0  0  0  0  0  0  0  0  0  0
   -7.5079   22.3117  -32.7066 H   0  0  0  0  0  0  0  0  0  0  0  0
   -9.0400   21.5646  -30.2726 H   0  0  0  0  0  0  0  0  0  0  0  0
   -9.9400   21.7065  -31.8564 H   0  0  0  0  0  0  0  0  0  0  0  0
   -7.7360   19.7878  -31.0687 H   0  0  0  0  0  0  0  0  0  0  0  0
   -9.3390   19.4681  -31.8373 H   0  0  0  0  0  0  0  0  0  0  0  0
   -8.6030   20.0010  -33.8350 H   0  0  0  0  0  0  0  0  0  0  0  0
   -6.8698   18.4610  -32.4635 H   0  0  0  0  0  0  0  0  0  0  0  0
   -6.9678   18.6479  -34.2461 H   0  0  0  0  0  0  0  0  0  0  0  0
   -4.4242   18.0589  -33.9741 H   0  0  0  0  0  0  0  0  0  0  0  0
   -2.1686   19.1288  -33.9088 H   0  0  0  0  0  0  0  0  0  0  0  0
   -3.9539   22.8166  -32.5220 H   0  0  0  0  0  0  0  0  0  0  0  0
   -6.2073   21.7476  -32.5707 H   0  0  0  0  0  0  0  0  0  0  0  0
  1  2  1  0
  2  3  2  0
  3  4  1  0
  4  5  1  0
  4  6  1  0
  6  7  2  0
  7  8  1  0
  8  9  1  0
  9 10  2  0
  9 11  1  0
 11 12  1  0
 12 13  1  0
 13 14  1  0
 14 15  1  0
 15 16  1  0
 16 17  1  0
 17 18  1  0
 18 19  2  0
 19 20  1  0
 20 21  2  0
 21 22  1  0
 21 23  1  0
 23 24  2  0
  7  2  1  0
 24 18  1  0
  1 25  1  0
  1 26  1  0
  1 27  1  0
  5 28  1  0
  5 29  1  0
  5 30  1  0
  6 31  1  0
  8 32  1  0
 11 33  1  0
 11 34  1  0
 12 35  1  0
 12 36  1  0
 13 37  1  0
 13 38  1  0
 14 39  1  0
 14 40  1  0
 15 41  1  0
 15 42  1  0
 16 43  1  0
 17 44  1  0
 17 45  1  0
 19 46  1  0
 20 47  1  0
 23 48  1  0
 24 49  1  0
M  END
>  <UniqueID>  (6) 
6

>  <SMILES>  (6) 
Cc1nn(C)cc1NC(=O)CCCCCNCc1ccc(F)cc1

>  <Energy>  (6) 
67.27904411972237

>  <Genealogy>  (6) 
Cc1nn(C)cc1NC(=O)CCCCCNCc1ccc(F)cc1 (3D coordinates assigned)
Cc1nn(C)cc1NC(=O)CCCCCNCc1ccc(F)cc1 (optimized conformer: 67.27904411972237 kcal/mol)

>  <smiles>  (6) 
Cc1nn(C)cc1NC(=O)CCCCCNCc1ccc(F)cc1

>  <score_type>  (6) 
oracle

>  <origin>  (6) 
adg

>  <m_score__min__energy>  (6) 
-8.8399999999999999

>  <m_primary>  (6) 
energy

$$$$
6:0
     RDKit          3D

 79 82  0  0  0  0  0  0  0  0999 V2000
   -6.2330   15.8600  -33.8480 C   0  0  0  0  0  0  0  0  0  0  0  0
   -4.9060   16.5390  -33.5120 C   0  0  0  0  0  0  0  0  0  0  0  0
   -4.9430   17.9760  -33.8690 N   0  0  0  0  0  0  0  0  0  0  0  0
   -5.7410   18.1610  -35.0930 C   0  0  0  0  0  0  0  0  0  0  0  0
   -3.5760   18.5370  -34.0440 C   0  0  0  0  0  0  0  0  0  0  0  0
   -3.3690   19.7270  -33.1010 C   0  0  0  0  0  0  0  0  0  0  0  0
   -4.0880   19.5420  -31.8290 N   0  0  0  0  0  0  0  0  0  0  0  0
   -4.8600   20.7290  -31.4930 C   0  0  0  0  0  0  0  0  0  0  0  0
   -6.2550   20.7840  -31.7510 C   0  0  0  0  0  0  0  0  0  0  0  0
   -6.9130   19.7800  -32.5030 C   0  0  0  0  0  0  0  0  0  0  0  0
   -8.2800   19.8550  -32.7640 C   0  0  0  0  0  0  0  0  0  0  0  0
   -9.0180   20.9360  -32.3050 C   0  0  0  0  0  0  0  0  0  0  0  0
   -8.3990   21.9450  -31.5740 C   0  0  0  0  0  0  0  0  0  0  0  0
   -7.0140   21.8830  -31.2600 C   0  0  0  0  0  0  0  0  0  0  0  0
   -6.4040   22.8660  -30.5070 N   0  0  0  0  0  0  0  0  0  0  0  0
   -7.2310   23.8200  -29.7330 C   0  0  0  0  0  0  0  0  0  0  0  0
   -5.0260   22.9500  -30.4650 C   0  0  0  0  0  0  0  0  0  0  0  0
   -4.3740   24.1090  -29.9690 C   0  0  0  0  0  0  0  0  0  0  0  0
   -2.9780   24.1770  -29.8630 C   0  0  0  0  0  0  0  0  0  0  0  0
   -2.3020   25.2890  -29.3310 O   0  0  0  0  0  0  0  0  0  0  0  0
   -1.2690   25.2520  -28.3480 C   0  0  0  0  0  0  0  0  0  0  0  0
   -1.7780   25.5310  -26.9100 C   0  0  0  0  0  0  0  0  0  0  0  0
   -0.7740   25.4930  -25.7890 N   0  0  0  0  0  0  0  0  0  0  0  0
   -0.6440   24.0540  -25.4110 C   0  0  0  0  0  0  0  0  0  0  0  0
    0.5780   25.9760  -26.2410 C   0  0  0  0  0  0  0  0  0  0  0  0
    1.0430   27.2680  -25.5340 C   0  0  0  0  0  0  0  0  0  0  0  0
    1.0480   27.1350  -24.0450 N   0  0  0  0  0  0  0  0  0  0  0  0
    2.2550   26.3810  -23.6150 C   0  0  0  0  0  0  0  0  0  0  0  0
    1.1420   28.4980  -23.4660 C   0  0  0  0  0  0  0  0  0  0  0  0
   -0.1830   26.4500  -23.5230 C   0  0  0  0  0  0  0  0  0  0  0  0
   -1.2720   26.2480  -24.5970 C   0  0  0  0  0  0  0  0  0  0  0  0
   -2.2160   23.1010  -30.2950 C   0  0  0  0  0  0  0  0  0  0  0  0
   -2.8210   21.9720  -30.8370 C   0  0  0  0  0  0  0  0  0  0  0  0
   -4.2290   21.8710  -30.9330 C   0  0  0  0  0  0  0  0  0  0  0  0
   -6.7544   15.5932  -32.9169 H   0  0  0  0  0  0  0  0  0  0  0  0
   -6.8590   16.5486  -34.4345 H   0  0  0  0  0  0  0  0  0  0  0  0
   -6.0408   14.9494  -34.4345 H   0  0  0  0  0  0  0  0  0  0  0  0
   -4.7139   16.4406  -32.4334 H   0  0  0  0  0  0  0  0  0  0  0  0
   -4.1061   16.0534  -34.0903 H   0  0  0  0  0  0  0  0  0  0  0  0
   -6.7793   18.4017  -34.8209 H   0  0  0  0  0  0  0  0  0  0  0  0
   -5.3170   18.9847  -35.6861 H   0  0  0  0  0  0  0  0  0  0  0  0
   -5.7227   17.2348  -35.6861 H   0  0  0  0  0  0  0  0  0  0  0  0
   -2.8320   17.7593  -33.8167 H   0  0  0  0  0  0  0  0  0  0  0  0
   -3.4574   18.8771  -35.0834 H   0  0  0  0  0  0  0  0  0  0  0  0
   -2.2944   19.8337  -32.8914 H   0  0  0  0  0  0  0  0  0  0  0  0
   -3.7648   20.6282  -33.5921 H   0  0  0  0  0  0  0  0  0  0  0  0
   -3.4180   19.3150  -31.0620 H   0  0  0  0  0  0  0  0  0  0  0  0
   -4.7040   18.7000  -31.8740 H   0  0  0  0  0  0  0  0  0  0  0  0
   -6.3352   18.9266  -32.8875 H   0  0  0  0  0  0  0  0  0  0  0  0
   -8.7746   19.0554  -33.3351 H   0  0  0  0  0  0  0  0  0  0  0  0
  -10.0952   20.9957  -32.5195 H   0  0  0  0  0  0  0  0  0  0  0  0
   -8.9921   22.8063  -31.2328 H   0  0  0  0  0  0  0  0  0  0  0  0
   -7.0807   23.6466  -28.6572 H   0  0  0  0  0  0  0  0  0  0  0  0
   -6.9346   24.8493  -29.9834 H   0  0  0  0  0  0  0  0  0  0  0  0
   -8.2919   23.6727  -29.9834 H   0  0  0  0  0  0  0  0  0  0  0  0
   -4.9787   24.9745  -29.6604 H   0  0  0  0  0  0  0  0  0  0  0  0
   -0.8054   24.2546  -28.3666 H   0  0  0  0  0  0  0  0  0  0  0  0
   -0.5525   26.0479  -28.5993 H   0  0  0  0  0  0  0  0  0  0  0  0
   -2.2303   26.5337  -26.9111 H   0  0  0  0  0  0  0  0  0  0  0  0
   -2.4652   24.6997  -26.6939 H   0  0  0  0  0  0  0  0  0  0  0  0
   -0.6357   23.9621  -24.3149 H   0  0  0  0  0  0  0  0  0  0  0  0
   -1.4948   23.4892  -25.8199 H   0  0  0  0  0  0  0  0  0  0  0  0
    0.2942   23.6508  -25.8199 H   0  0  0  0  0  0  0  0  0  0  0  0
    1.3150   25.1848  -26.0389 H   0  0  0  0  0  0  0  0  0  0  0  0
    0.4951   26.2078  -27.3131 H   0  0  0  0  0  0  0  0  0  0  0  0
    2.0627   27.5069  -25.8704 H   0  0  0  0  0  0  0  0  0  0  0  0
    0.3335   28.0667  -25.7961 H   0  0  0  0  0  0  0  0  0  0  0  0
    2.2983   26.3540  -22.5162 H   0  0  0  0  0  0  0  0  0  0  0  0
    2.2040   25.3538  -24.0053 H   0  0  0  0  0  0  0  0  0  0  0  0
    3.1557   26.8773  -24.0053 H   0  0  0  0  0  0  0  0  0  0  0  0
    1.1374   28.4311  -22.3680 H   0  0  0  0  0  0  0  0  0  0  0  0
    2.0752   28.9749  -23.8004 H   0  0  0  0  0  0  0  0  0  0  0  0
    0.2831   29.0985  -23.8004 H   0  0  0  0  0  0  0  0  0  0  0  0
    0.1064   25.4643  -23.1298 H   0  0  0  0  0  0  0  0  0  0  0  0
   -0.6106   27.0984  -22.7440 H   0  0  0  0  0  0  0  0  0  0  0  0
   -2.1075   25.6891  -24.1503 H   0  0  0  0  0  0  0  0  0  0  0  0
   -1.5872   27.2437  -24.9421 H   0  0  0  0  0  0  0  0  0  0  0  0
   -1.1202   23.1413  -30.2078 H   0  0  0  0  0  0  0  0  0  0  0  0
   -2.1939   21.1432  -31.1973 H   0  0  0  0  0  0  0  0  0  0  0  0
  1  2  1  0
  2  3  1  0
  3  4  1  0
  3  5  1  0
  5  6  1  0
  6  7  1  0
  7  8  1  0
  8  9  2  0
  9 10  1  0
 10 11  2  0
 11 12  1  0
 12 13  2  0
 13 14  1  0
 14 15  2  0
 15 16  1  0
 15 17  1  0
 17 18  2  0
 18 19  1  0
 19 20  1  0
 20 21  1  0
 21 22  1  0
 22 23  1  0
 23 24  1  0
 23 25  1  0
 25 26  1  0
 26 27  1  0
 27 28  1  0
 27 29  1  0
 27 30  1  0
 30 31  1  0
 19 32  2  0
 32 33  1  0
 33 34  2  0
 34  8  1  0
 14  9  1  0
 34 17  1  0
 31 23  1  0
  1 35  1  0
  1 36  1  0
  1 37  1  0
  2 38  1  0
  2 39  1  0
  4 40  1  0
  4 41  1  0
  4 42  1  0
  5 43  1  0
  5 44  1  0
  6 45  1  0
  6 46  1  0
  7 47  1  0
  7 48  1  0
 10 49  1  0
 11 50  1  0
 12 51  1  0
 13 52  1  0
 16 53  1  0
 16 54  1  0
 16 55  1  0
 18 56  1  0
 21 57  1  0
 21 58  1  0
 22 59  1  0
 22 60  1  0
 24 61  1  0
 24 62  1  0
 24 63  1  0
 25 64  1  0
 25 65  1  0
 26 66  1  0
 26 67  1  0
 28 68  1  0
 28 69  1  0
 28 70  1  0
 29 71  1  0
 29 72  1  0
 29 73  1  0
 30 74  1  0
 30 75  1  0
 31 76  1  0
 31 77  1  0
 32 78  1  0
 33 79  1  0
M  CHG  4   7   1  15   1  23   1  27   1
M  END
>  <UniqueID>  (7) 
7

>  <SMILES>  (7) 
CCN(C)CC[NH2+]c1c2ccccc2[n+](C)c2cc(OCC[N+]3(C)CC[N+](C)(C)CC3)ccc12

>  <Energy>  (7) 
138.0602590255663

>  <Genealogy>  (7) 
CCN(C)CC[NH2+]c1c2ccccc2[n+](C)c2cc(OCC[N+]3(C)CC[N+](C)(C)CC3)ccc12 (protonated)
CCN(C)CC[NH2+]c1c2ccccc2[n+](C)c2cc(OCC[N+]3(C)CC[N+](C)(C)CC3)ccc12 (3D coordinates assigned)
CCN(C)CC[NH2+]c1c2ccccc2[n+](C)c2cc(OCC[N+]3(C)CC[N+](C)(C)CC3)ccc12 (nonaromatic ring conformer: 138.0602590255663 kcal/mol)

>  <smiles>  (7) 
CCN(C)CCNc1c2ccccc2[n+](C)c2cc(OCC[N+]3(C)CC[N+](C)(C)CC3)ccc12

>  <score_type>  (7) 
oracle

>  <origin>  (7) 
adg

>  <m_score__min__energy>  (7) 
-7.4699999999999998

>  <m_primary>  (7) 
energy

$$$$
7:0
     RDKit          3D

 53 57  0  0  0  0  0  0  0  0999 V2000
   -0.1650   21.9470  -30.9070 O   0  0  0  0  0  0  0  0  0  0  0  0
   -1.3190   21.8380  -30.5110 C   0  0  0  0  0  0  0  0  0  0  0  0
   -1.6880   22.6090  -29.2530 C   0  0  0  0  0  0  0  0  0  0  0  0
   -1.0980   23.9960  -29.0460 C   0  0  0  0  0  0  0  0  0  0  0  0
   -2.5630   23.8390  -29.4400 C   0  0  0  0  0  0  0  0  0  0  0  0
   -2.2480   20.9940  -31.2510 N   0  0  1  0  0  0  0  0  0  0  0  0
   -3.4850   20.7740  -30.4570 C   0  0  0  0  0  0  0  0  0  0  0  0
   -4.7160   20.4170  -31.3200 C   0  0  0  0  0  0  0  0  0  0  0  0
   -4.3130   19.7380  -32.6430 C   0  0  1  0  0  0  0  0  0  0  0  0
   -5.5140   19.3120  -33.4090 N   0  0  0  0  0  0  0  0  0  0  0  0
   -6.1650   18.0620  -32.9220 C   0  0  0  0  0  0  0  0  0  0  0  0
   -7.5660   18.4440  -32.6620 C   0  0  0  0  0  0  0  0  0  0  0  0
   -8.3420   18.0660  -31.6270 N   0  0  0  0  0  0  0  0  0  0  0  0
   -9.0960   19.1700  -31.3970 C   0  0  0  0  0  0  0  0  0  0  0  0
   -8.7470   20.2140  -32.1850 N   0  0  0  0  0  0  0  0  0  0  0  0
   -9.1150   21.6160  -31.9870 C   0  0  0  0  0  0  0  0  0  0  0  0
   -7.9240   22.4060  -31.5190 C   0  0  0  0  0  0  0  0  0  0  0  0
   -7.2410   23.2600  -32.4020 C   0  0  0  0  0  0  0  0  0  0  0  0
   -6.1560   24.0170  -31.9500 C   0  0  0  0  0  0  0  0  0  0  0  0
   -5.7490   23.9300  -30.6150 C   0  0  0  0  0  0  0  0  0  0  0  0
   -6.4290   23.0890  -29.7300 C   0  0  0  0  0  0  0  0  0  0  0  0
   -7.5170   22.3320  -30.1770 C   0  0  0  0  0  0  0  0  0  0  0  0
   -7.7870   19.7190  -32.9830 C   0  0  0  0  0  0  0  0  0  0  0  0
   -6.5570   20.3690  -33.4800 C   0  0  0  0  0  0  0  0  0  0  0  0
   -3.3190   20.6160  -33.4610 C   0  0  0  0  0  0  0  0  0  0  0  0
   -2.5380   21.5980  -32.5690 C   0  0  0  0  0  0  0  0  0  0  0  0
   -1.7295   21.6962  -28.6406 H   0  0  0  0  0  0  0  0  0  0  0  0
   -0.8338   24.3362  -28.0338 H   0  0  0  0  0  0  0  0  0  0  0  0
   -0.2365   24.5444  -29.4547 H   0  0  0  0  0  0  0  0  0  0  0  0
   -3.3559   24.0660  -28.7121 H   0  0  0  0  0  0  0  0  0  0  0  0
   -3.1967   24.2273  -30.2510 H   0  0  0  0  0  0  0  0  0  0  0  0
   -1.8200   20.0600  -31.4320 H   0  0  0  0  0  0  0  0  0  0  0  0
   -3.7075   21.6942  -29.8969 H   0  0  0  0  0  0  0  0  0  0  0  0
   -3.2955   19.9173  -29.7935 H   0  0  0  0  0  0  0  0  0  0  0  0
   -5.2700   21.3395  -31.5481 H   0  0  0  0  0  0  0  0  0  0  0  0
   -5.3384   19.7112  -30.7504 H   0  0  0  0  0  0  0  0  0  0  0  0
   -3.7591   18.8166  -32.4100 H   0  0  0  0  0  0  0  0  0  0  0  0
   -6.1138   17.2745  -33.6883 H   0  0  0  0  0  0  0  0  0  0  0  0
   -5.6712   17.6585  -32.0257 H   0  0  0  0  0  0  0  0  0  0  0  0
   -9.9034   19.2123  -30.6511 H   0  0  0  0  0  0  0  0  0  0  0  0
   -9.4772   22.0341  -32.9378 H   0  0  0  0  0  0  0  0  0  0  0  0
   -9.9058   21.6746  -31.2247 H   0  0  0  0  0  0  0  0  0  0  0  0
   -7.5611   23.3330  -33.4519 H   0  0  0  0  0  0  0  0  0  0  0  0
   -5.6220   24.6816  -32.6451 H   0  0  0  0  0  0  0  0  0  0  0  0
   -4.8932   24.5238  -30.2613 H   0  0  0  0  0  0  0  0  0  0  0  0
   -6.1081   23.0222  -28.6800 H   0  0  0  0  0  0  0  0  0  0  0  0
   -8.0550   21.6772  -29.4757 H   0  0  0  0  0  0  0  0  0  0  0  0
   -6.6915   20.7117  -34.5165 H   0  0  0  0  0  0  0  0  0  0  0  0
   -6.2889   21.2574  -32.8893 H   0  0  0  0  0  0  0  0  0  0  0  0
   -3.8864   21.1908  -34.2078 H   0  0  0  0  0  0  0  0  0  0  0  0
   -2.5915   19.9442  -33.9399 H   0  0  0  0  0  0  0  0  0  0  0  0
   -3.1378   22.5087  -32.4242 H   0  0  0  0  0  0  0  0  0  0  0  0
   -1.5854   21.8411  -33.0625 H   0  0  0  0  0  0  0  0  0  0  0  0
  1  2  2  0
  2  3  1  0
  3  4  1  0
  4  5  1  0
  2  6  1  0
  6  7  1  0
  7  8  1  0
  8  9  1  0
  9 10  1  0
 10 11  1  0
 11 12  1  0
 12 13  1  0
 13 14  2  0
 14 15  1  0
 15 16  1  0
 16 17  1  0
 17 18  2  0
 18 19  1  0
 19 20  2  0
 20 21  1  0
 21 22  2  0
 15 23  1  0
 23 24  1  0
  9 25  1  0
 25 26  1  0
  5  3  1  0
 26  6  1  0
 24 10  1  0
 23 12  2  0
 22 17  1  0
  3 27  1  0
  4 28  1  0
  4 29  1  0
  5 30  1  0
  5 31  1  0
  6 32  1  6
  7 33  1  0
  7 34  1  0
  8 35  1  0
  8 36  1  0
  9 37  1  1
 11 38  1  0
 11 39  1  0
 14 40  1  0
 16 41  1  0
 16 42  1  0
 18 43  1  0
 19 44  1  0
 20 45  1  0
 21 46  1  0
 22 47  1  0
 24 48  1  0
 24 49  1  0
 25 50  1  0
 25 51  1  0
 26 52  1  0
 26 53  1  0
M  CHG  1   6   1
M  END
>  <UniqueID>  (8) 
8

>  <SMILES>  (8) 
O=C(C1CC1)[NH+]1CCC(N2Cc3ncn(Cc4ccccc4)c3C2)CC1

>  <Energy>  (8) 
391.3438663210268

>  <Genealogy>  (8) 
O=C(C1CC1)[NH+]1CCC(N2Cc3ncn(Cc4ccccc4)c3C2)CC1 (protonated)
O=C(C1CC1)[NH+]1CCC(N2Cc3ncn(Cc4ccccc4)c3C2)CC1 (3D coordinates assigned)
O=C(C1CC1)[NH+]1CCC(N2Cc3ncn(Cc4ccccc4)c3C2)CC1 (nonaromatic ring conformer: 391.3438663210268 kcal/mol)

>  <smiles>  (8) 
O=C(C1CC1)N1CCC(N2Cc3ncn(Cc4ccccc4)c3C2)CC1

>  <score_type>  (8) 
oracle

>  <origin>  (8) 
adg

>  <m_score__min__energy>  (8) 
-7.54

>  <m_primary>  (8) 
energy

$$$$
8:0
     RDKit          3D

 56 59  0  0  0  0  0  0  0  0999 V2000
   -7.9870   24.1874  -31.6596 H   0  0  0  0  0  0  0  0  0  0  0  0
   -6.9800   23.7980  -31.4490 C   0  0  0  0  0  0  0  0  0  0  0  0
   -6.6530   22.4850  -31.7970 C   0  0  0  0  0  0  0  0  0  0  0  0
   -7.4047   21.8429  -32.2793 H   0  0  0  0  0  0  0  0  0  0  0  0
   -5.3750   21.9840  -31.5350 C   0  0  0  0  0  0  0  0  0  0  0  0
   -5.1253   20.9493  -31.8126 H   0  0  0  0  0  0  0  0  0  0  0  0
   -4.4030   22.7990  -30.9160 C   0  0  0  0  0  0  0  0  0  0  0  0
   -3.1010   22.3300  -30.6270 C   0  0  0  0  0  0  0  0  0  0  0  0
   -2.7710   21.1060  -30.9540 N   0  0  0  0  0  0  0  0  0  0  0  0
   -1.6540   20.6810  -31.7510 C   0  0  0  0  0  0  0  0  0  0  0  0
   -0.7300   19.7850  -31.2010 C   0  0  0  0  0  0  0  0  0  0  0  0
   -0.8934   19.3836  -30.1900 H   0  0  0  0  0  0  0  0  0  0  0  0
    0.3990   19.3970  -31.9280 C   0  0  0  0  0  0  0  0  0  0  0  0
    1.1085   18.6761  -31.4956 H   0  0  0  0  0  0  0  0  0  0  0  0
    0.6300   19.9240  -33.2070 C   0  0  0  0  0  0  0  0  0  0  0  0
    1.7620   19.5440  -33.9450 C   0  0  0  0  0  0  0  0  0  0  0  0
    2.4740   18.8189  -33.5240 H   0  0  0  0  0  0  0  0  0  0  0  0
    1.9860   20.0860  -35.2150 C   0  0  0  0  0  0  0  0  0  0  0  0
    2.8736   19.7847  -35.7907 H   0  0  0  0  0  0  0  0  0  0  0  0
    1.0860   21.0090  -35.7550 C   0  0  0  0  0  0  0  0  0  0  0  0
    1.2687   21.4330  -36.7534 H   0  0  0  0  0  0  0  0  0  0  0  0
   -0.0450   21.3950  -35.0310 C   0  0  0  0  0  0  0  0  0  0  0  0
   -0.7498   22.1220  -35.4607 H   0  0  0  0  0  0  0  0  0  0  0  0
   -0.2840   20.8570  -33.7560 C   0  0  0  0  0  0  0  0  0  0  0  0
   -1.4130   21.2390  -33.0180 C   0  0  0  0  0  0  0  0  0  0  0  0
   -2.1135   21.9789  -33.4326 H   0  0  0  0  0  0  0  0  0  0  0  0
   -2.1780   23.2170  -30.0310 C   0  0  0  0  0  0  0  0  0  0  0  0
   -1.1513   22.8818  -29.8225 H   0  0  0  0  0  0  0  0  0  0  0  0
   -2.5660   24.5210  -29.7050 C   0  0  0  0  0  0  0  0  0  0  0  0
   -1.6160   25.4310  -29.1250 N   0  0  0  0  0  0  0  0  0  0  0  0
   -1.2160   26.1930  -29.7170 H   0  0  0  0  0  0  0  0  0  0  0  0
   -1.2490   25.4050  -27.7080 C   0  0  0  0  0  0  0  0  0  0  0  0
   -1.9327   26.0600  -27.1481 H   0  0  0  0  0  0  0  0  0  0  0  0
   -0.2106   25.7546  -27.6105 H   0  0  0  0  0  0  0  0  0  0  0  0
   -1.3390   23.9810  -27.1370 C   0  0  0  0  0  0  0  0  0  0  0  0
   -2.3457   23.5891  -27.3445 H   0  0  0  0  0  0  0  0  0  0  0  0
   -1.1250   24.0580  -26.0608 H   0  0  0  0  0  0  0  0  0  0  0  0
   -0.3080   22.9990  -27.7240 C   0  0  0  0  0  0  0  0  0  0  0  0
    0.6976   23.3150  -27.4096 H   0  0  0  0  0  0  0  0  0  0  0  0
   -0.4168   23.0179  -28.8184 H   0  0  0  0  0  0  0  0  0  0  0  0
   -0.5370   21.5460  -27.2580 C   0  0  0  0  0  0  0  0  0  0  0  0
   -1.0019   21.5627  -26.2612 H   0  0  0  0  0  0  0  0  0  0  0  0
    0.4397   21.0405  -27.2356 H   0  0  0  0  0  0  0  0  0  0  0  0
   -1.4130   20.7980  -28.1780 N   0  0  0  0  0  0  0  0  0  0  0  0
   -1.5350   21.3370  -29.0680 H   0  0  0  0  0  0  0  0  0  0  0  0
   -2.7330   20.5070  -27.6000 C   0  0  0  0  0  0  0  0  0  0  0  0
   -3.4562   20.3439  -28.4126 H   0  0  0  0  0  0  0  0  0  0  0  0
   -3.0462   21.3598  -26.9799 H   0  0  0  0  0  0  0  0  0  0  0  0
   -2.6690   19.2590  -26.7270 C   0  0  0  0  0  0  0  0  0  0  0  0
   -2.6840   19.5520  -25.6668 H   0  0  0  0  0  0  0  0  0  0  0  0
   -3.5354   18.6162  -26.9421 H   0  0  0  0  0  0  0  0  0  0  0  0
   -1.7414   18.7082  -26.9421 H   0  0  0  0  0  0  0  0  0  0  0  0
   -3.8330   24.9330  -29.9730 N   0  0  0  0  0  0  0  0  0  0  0  0
   -4.7480   24.1260  -30.5660 C   0  0  0  0  0  0  0  0  0  0  0  0
   -6.0300   24.6170  -30.8340 C   0  0  0  0  0  0  0  0  0  0  0  0
   -6.2906   25.6500  -30.5600 H   0  0  0  0  0  0  0  0  0  0  0  0
  1  2  1  0
  2  3  2  0
  3  4  1  0
  3  5  1  0
  5  6  1  0
  5  7  2  0
  7  8  1  0
  8  9  2  0
  9 10  1  0
 10 11  2  0
 11 12  1  0
 11 13  1  0
 13 14  1  0
 13 15  2  0
 15 16  1  0
 16 17  1  0
 16 18  2  0
 18 19  1  0
 18 20  1  0
 20 21  1  0
 20 22  2  0
 22 23  1  0
 22 24  1  0
 24 25  2  0
 25 26  1  0
  8 27  1  0
 27 28  1  0
 27 29  2  0
 29 30  1  0
 30 31  1  0
 30 32  1  0
 32 33  1  0
 32 34  1  0
 32 35  1  0
 35 36  1  0
 35 37  1  0
 35 38  1  0
 38 39  1  0
 38 40  1  0
 38 41  1  0
 41 42  1  0
 41 43  1  0
 41 44  1  0
 44 45  1  0
 44 46  1  0
 46 47  1  0
 46 48  1  0
 46 49  1  0
 49 50  1  0
 49 51  1  0
 49 52  1  0
 29 53  1  0
 53 54  1  0
 54 55  2  0
 55 56  1  0
 55  2  1  0
 54  7  1  0
 25 10  1  0
 24 15  1  0
M  CHG  1  53  -1
M  END
>  <UniqueID>  (9) 
9

>  <SMILES>  (9) 
CCNCCCCNc1c/c(=N\c2ccc3ccccc3c2)c2ccccc2[n-]1

>  <Energy>  (9) 
69.12684493731581

>  <Genealogy>  (9) 
CCNCCCCNc1cc(=Nc2ccc3ccccc3c2)c2ccccc2[n-]1 (protonated)
CCNCCCCNc1c/c(=N\c2ccc3ccccc3c2)c2ccccc2[n-]1 (cis-trans isomerization)
CCNCCCCNc1c/c(=N\c2ccc3ccccc3c2)c2ccccc2[n-]1 (3D coordinates assigned)
CCNCCCCNc1c/c(=N\c2ccc3ccccc3c2)c2ccccc2[n-]1 (optimized conformer: 69.12684493731581 kcal/mol)

>  <smiles>  (9) 
CCNCCCCNc1cc(=Nc2ccc3ccccc3c2)c2ccccc2[nH]1

>  <score_type>  (9) 
oracle

>  <origin>  (9) 
adg

>  <m_score__min__energy>  (9) 
-10.369999999999999

>  <m_primary>  (9) 
energy

$$$$
9:0
     RDKit          3D

 46 48  0  0  0  0  0  0  0  0999 V2000
   -6.4970   17.0920  -33.6960 C   0  0  0  0  0  0  0  0  0  0  0  0
   -6.6110   18.5300  -33.2600 C   0  0  0  0  0  0  0  0  0  0  0  0
   -7.8250   18.9980  -32.7370 C   0  0  0  0  0  0  0  0  0  0  0  0
   -7.9790   20.3330  -32.3270 C   0  0  0  0  0  0  0  0  0  0  0  0
   -9.3020   20.7460  -31.7350 C   0  0  0  0  0  0  0  0  0  0  0  0
   -6.8800   21.2230  -32.4360 C   0  0  0  0  0  0  0  0  0  0  0  0
   -6.9570   22.9410  -31.9690 S   0  0  0  0  0  0  0  0  0  0  0  0
   -7.4740   23.7890  -33.0960 O   0  0  0  0  0  0  0  0  0  0  0  0
   -7.9260   23.0840  -30.8270 O   0  0  0  0  0  0  0  0  0  0  0  0
   -5.3890   23.5450  -31.4730 N   0  0  0  0  0  0  0  0  0  0  0  0
   -4.6760   22.5260  -30.6810 C   0  0  0  0  0  0  0  0  0  0  0  0
   -3.3950   23.0950  -30.0650 C   0  0  0  0  0  0  0  0  0  0  0  0
   -3.6920   24.2890  -29.2630 N   0  0  0  0  0  0  0  0  0  0  0  0
   -2.7130   24.7870  -28.3290 C   0  0  0  0  0  0  0  0  0  0  0  0
   -1.6130   25.4540  -28.7800 N   0  0  0  0  0  0  0  0  0  0  0  0
   -0.6750   25.9280  -27.9190 C   0  0  0  0  0  0  0  0  0  0  0  0
   -0.8310   25.7350  -26.5480 C   0  0  0  0  0  0  0  0  0  0  0  0
   -1.9570   25.0500  -26.0980 C   0  0  0  0  0  0  0  0  0  0  0  0
   -2.8720   24.5910  -26.9900 N   0  0  0  0  0  0  0  0  0  0  0  0
   -5.0190   24.9070  -29.3710 C   0  0  0  0  0  0  0  0  0  0  0  0
   -5.4850   24.8820  -30.8340 C   0  0  0  0  0  0  0  0  0  0  0  0
   -5.6640   20.7450  -32.9470 C   0  0  0  0  0  0  0  0  0  0  0  0
   -5.5170   19.4150  -33.3680 C   0  0  0  0  0  0  0  0  0  0  0  0
   -4.1900   18.9540  -33.9130 C   0  0  0  0  0  0  0  0  0  0  0  0
   -6.4455   16.4430  -32.8093 H   0  0  0  0  0  0  0  0  0  0  0  0
   -7.3765   16.8207  -34.2985 H   0  0  0  0  0  0  0  0  0  0  0  0
   -5.5858   16.9626  -34.2985 H   0  0  0  0  0  0  0  0  0  0  0  0
   -8.6746   18.3053  -32.6458 H   0  0  0  0  0  0  0  0  0  0  0  0
   -9.2350   20.7251  -30.6372 H   0  0  0  0  0  0  0  0  0  0  0  0
   -9.5507   21.7645  -32.0678 H   0  0  0  0  0  0  0  0  0  0  0  0
  -10.0859   20.0498  -32.0678 H   0  0  0  0  0  0  0  0  0  0  0  0
   -5.3354   22.1734  -29.8743 H   0  0  0  0  0  0  0  0  0  0  0  0
   -4.4008   21.6970  -31.3496 H   0  0  0  0  0  0  0  0  0  0  0  0
   -2.9343   22.3321  -29.4202 H   0  0  0  0  0  0  0  0  0  0  0  0
   -2.7063   23.3752  -30.8757 H   0  0  0  0  0  0  0  0  0  0  0  0
    0.2058   26.4631  -28.3035 H   0  0  0  0  0  0  0  0  0  0  0  0
   -0.0821   26.1149  -25.8374 H   0  0  0  0  0  0  0  0  0  0  0  0
   -2.1049   24.8810  -25.0212 H   0  0  0  0  0  0  0  0  0  0  0  0
   -5.7343   24.3478  -28.7500 H   0  0  0  0  0  0  0  0  0  0  0  0
   -4.9643   25.9495  -29.0242 H   0  0  0  0  0  0  0  0  0  0  0  0
   -6.5350   25.2079  -30.8687 H   0  0  0  0  0  0  0  0  0  0  0  0
   -4.8162   25.5523  -31.3938 H   0  0  0  0  0  0  0  0  0  0  0  0
   -4.8057   21.4292  -33.0192 H   0  0  0  0  0  0  0  0  0  0  0  0
   -3.5128   18.7187  -33.0787 H   0  0  0  0  0  0  0  0  0  0  0  0
   -4.3390   18.0550  -34.5291 H   0  0  0  0  0  0  0  0  0  0  0  0
   -3.7495   19.7518  -34.5291 H   0  0  0  0  0  0  0  0  0  0  0  0
  1  2  1  0
  2  3  2  0
  3  4  1  0
  4  5  1  0
  4  6  2  0
  6  7  1  0
  7  8  2  0
  7  9  2  0
  7 10  1  0
 10 11  1  0
 11 12  1  0
 12 13  1  0
 13 14  1  0
 14 15  2  0
 15 16  1  0
 16 17  2  0
 17 18  1  0
 18 19  2  0
 13 20  1  0
 20 21  1  0
  6 22  1  0
 22 23  2  0
 23 24  1  0
 23  2  1  0
 21 10  1  0
 19 14  1  0
  1 25  1  0
  1 26  1  0
  1 27  1  0
  3 28  1  0
  5 29  1  0
  5 30  1  0
  5 31  1  0
 11 32  1  0
 11 33  1  0
 12 34  1  0
 12 35  1  0
 16 36  1  0
 17 37  1  0
 18 38  1  0
 20 39  1  0
 20 40  1  0
 21 41  1  0
 21 42  1  0
 22 43  1  0
 24 44  1  0
 24 45  1  0
 24 46  1  0
M  END
>  <UniqueID>  (10) 
10

>  <SMILES>  (10) 
Cc1cc(C)c(S(=O)(=O)N2CCN(c3ncccn3)CC2)cc1C

>  <Energy>  (10) 
56.563915148142314

>  <Genealogy>  (10) 
Cc1cc(C)c(S(=O)(=O)N2CCN(c3ncccn3)CC2)cc1C (3D coordinates assigned)
Cc1cc(C)c(S(=O)(=O)N2CCN(c3ncccn3)CC2)cc1C (nonaromatic ring conformer: 56.563915148142314 kcal/mol)

>  <smiles>  (10) 
Cc1cc(C)c(S(=O)(=O)N2CCN(c3ncccn3)CC2)cc1C

>  <score_type>  (10) 
oracle

>  <origin>  (10) 
adg

>  <m_score__min__energy>  (10) 
-8.8699999999999992

>  <m_primary>  (10) 
energy

$$$$
10:0
     RDKit          3D

 57 59  0  0  0  0  0  0  0  0999 V2000
   -1.2890   17.4920  -32.9750 C   0  0  0  0  0  0  0  0  0  0  0  0
   -1.5850   16.0210  -32.7000 C   0  0  0  0  0  0  0  0  0  0  0  0
   -2.8460   15.6210  -33.3680 N   0  0  0  0  0  0  0  0  0  0  0  0
   -2.6110   15.2640  -34.7860 C   0  0  0  0  0  0  0  0  0  0  0  0
   -3.2730   16.2850  -35.7060 C   0  0  0  0  0  0  0  0  0  0  0  0
   -3.5150   14.5170  -32.6360 C   0  0  0  0  0  0  0  0  0  0  0  0
   -4.9220   14.8620  -32.3980 N   0  0  0  0  0  0  0  0  0  0  0  0
   -5.0520   16.2890  -32.0670 C   0  0  0  0  0  0  0  0  0  0  0  0
   -6.2470   16.9160  -32.7980 C   0  0  0  0  0  0  0  0  0  0  0  0
   -6.0630   16.9450  -34.3200 C   0  0  0  0  0  0  0  0  0  0  0  0
   -6.0900   18.3270  -34.7960 N   0  0  0  0  0  0  0  0  0  0  0  0
   -5.6580   19.4250  -33.9790 C   0  0  0  0  0  0  0  0  0  0  0  0
   -4.2940   19.6610  -33.7750 C   0  0  0  0  0  0  0  0  0  0  0  0
   -3.3610   18.8670  -34.3570 F   0  0  0  0  0  0  0  0  0  0  0  0
   -3.8790   20.7580  -33.0290 C   0  0  0  0  0  0  0  0  0  0  0  0
   -4.8180   21.6310  -32.4480 C   0  0  0  0  0  0  0  0  0  0  0  0
   -4.3900   22.7660  -31.7360 C   0  0  0  0  0  0  0  0  0  0  0  0
   -3.1550   22.9930  -31.5970 O   0  0  0  0  0  0  0  0  0  0  0  0
   -5.3350   23.6530  -31.1920 C   0  0  0  0  0  0  0  0  0  0  0  0
   -4.9310   24.8940  -30.4720 C   0  0  0  0  0  0  0  0  0  0  0  0
   -3.8860   25.5140  -30.8050 O   0  0  0  0  0  0  0  0  0  0  0  0
   -5.6890   25.3910  -29.4180 O   0  0  0  0  0  0  0  0  0  0  0  0
   -6.6950   23.3440  -31.3300 C   0  0  0  0  0  0  0  0  0  0  0  0
   -7.1160   22.2000  -31.9520 N   0  0  0  0  0  0  0  0  0  0  0  0
   -8.5670   21.9290  -31.9490 C   0  0  0  0  0  0  0  0  0  0  0  0
   -8.9530   20.6120  -31.2810 C   0  0  0  0  0  0  0  0  0  0  0  0
   -9.2230   21.9180  -30.5660 C   0  0  0  0  0  0  0  0  0  0  0  0
   -6.2090   21.3800  -32.5970 C   0  0  0  0  0  0  0  0  0  0  0  0
   -6.6090   20.2910  -33.4210 C   0  0  0  0  0  0  0  0  0  0  0  0
   -7.9130   20.0700  -33.7290 F   0  0  0  0  0  0  0  0  0  0  0  0
   -1.1810   18.0289  -32.0210 H   0  0  0  0  0  0  0  0  0  0  0  0
   -0.3558   17.5768  -33.5511 H   0  0  0  0  0  0  0  0  0  0  0  0
   -2.1168   17.9311  -33.5511 H   0  0  0  0  0  0  0  0  0  0  0  0
   -0.7585   15.4056  -33.0849 H   0  0  0  0  0  0  0  0  0  0  0  0
   -1.6896   15.8718  -31.6152 H   0  0  0  0  0  0  0  0  0  0  0  0
   -1.5286   15.2476  -34.9814 H   0  0  0  0  0  0  0  0  0  0  0  0
   -3.0445   14.2721  -34.9817 H   0  0  0  0  0  0  0  0  0  0  0  0
   -3.7724   17.0552  -35.0999 H   0  0  0  0  0  0  0  0  0  0  0  0
   -2.5084   16.7566  -36.3408 H   0  0  0  0  0  0  0  0  0  0  0  0
   -4.0156   15.7794  -36.3408 H   0  0  0  0  0  0  0  0  0  0  0  0
   -3.4607   13.5957  -33.2346 H   0  0  0  0  0  0  0  0  0  0  0  0
   -3.0100   14.3611  -31.6713 H   0  0  0  0  0  0  0  0  0  0  0  0
   -5.4510   14.6940  -33.2840 H   0  0  0  0  0  0  0  0  0  0  0  0
   -5.1981   16.3948  -30.9819 H   0  0  0  0  0  0  0  0  0  0  0  0
   -4.1353   16.8075  -32.3845 H   0  0  0  0  0  0  0  0  0  0  0  0
   -7.1487   16.3310  -32.5639 H   0  0  0  0  0  0  0  0  0  0  0  0
   -6.3362   17.9573  -32.4550 H   0  0  0  0  0  0  0  0  0  0  0  0
   -5.0967   16.4881  -34.5798 H   0  0  0  0  0  0  0  0  0  0  0  0
   -6.8793   16.3812  -34.7953 H   0  0  0  0  0  0  0  0  0  0  0  0
   -6.6490   18.5330  -35.6570 H   0  0  0  0  0  0  0  0  0  0  0  0
   -2.8040   20.9461  -32.8910 H   0  0  0  0  0  0  0  0  0  0  0  0
   -7.4450   24.0405  -30.9271 H   0  0  0  0  0  0  0  0  0  0  0  0
   -8.7831   22.4210  -32.9088 H   0  0  0  0  0  0  0  0  0  0  0  0
   -9.7911   20.0204  -31.6780 H   0  0  0  0  0  0  0  0  0  0  0  0
   -8.4170   19.6857  -31.0268 H   0  0  0  0  0  0  0  0  0  0  0  0
  -10.2565   22.2749  -30.4452 H   0  0  0  0  0  0  0  0  0  0  0  0
   -8.9641   22.3318  -29.5802 H   0  0  0  0  0  0  0  0  0  0  0  0
  1  2  1  0
  2  3  1  0
  3  4  1  0
  4  5  1  0
  3  6  1  0
  6  7  1  0
  7  8  1  0
  8  9  1  0
  9 10  1  0
 10 11  1  0
 11 12  1  0
 12 13  2  0
 13 14  1  0
 13 15  1  0
 15 16  2  0
 16 17  1  0
 17 18  2  0
 17 19  1  0
 19 20  1  0
 20 21  2  0
 20 22  1  0
 19 23  2  0
 23 24  1  0
 24 25  1  0
 25 26  1  0
 26 27  1  0
 24 28  1  0
 28 29  2  0
 29 30  1  0
 29 12  1  0
 28 16  1  0
 27 25  1  0
  1 31  1  0
  1 32  1  0
  1 33  1  0
  2 34  1  0
  2 35  1  0
  4 36  1  0
  4 37  1  0
  5 38  1  0
  5 39  1  0
  5 40  1  0
  6 41  1  0
  6 42  1  0
  7 43  1  0
  8 44  1  0
  8 45  1  0
  9 46  1  0
  9 47  1  0
 10 48  1  0
 10 49  1  0
 11 50  1  0
 15 51  1  0
 23 52  1  0
 25 53  1  0
 26 54  1  0
 26 55  1  0
 27 56  1  0
 27 57  1  0
M  CHG  1  22  -1
M  END
>  <UniqueID>  (11) 
11

>  <SMILES>  (11) 
CCN(CC)CNCCCNc1c(F)cc2c(=O)c(C(=O)[O-])cn(C3CC3)c2c1F

>  <Energy>  (11) 
336.71107421759626

>  <Genealogy>  (11) 
CCN(CC)CNCCCNc1c(F)cc2c(=O)c(C(=O)[O-])cn(C3CC3)c2c1F (protonated)
CCN(CC)CNCCCNc1c(F)cc2c(=O)c(C(=O)[O-])cn(C3CC3)c2c1F (3D coordinates assigned)
CCN(CC)CNCCCNc1c(F)cc2c(=O)c(C(=O)[O-])cn(C3CC3)c2c1F (nonaromatic ring conformer: 336.71107421759626 kcal/mol)

>  <smiles>  (11) 
CCN(CC)CNCCCNc1c(F)cc2c(=O)c(C(=O)O)cn(C3CC3)c2c1F

>  <score_type>  (11) 
oracle

>  <origin>  (11) 
adg

>  <m_score__min__energy>  (11) 
-9.2200000000000006

>  <m_primary>  (11) 
energy

$$$$
11:0
     RDKit          3D

 61 64  0  0  0  0  0  0  0  0999 V2000
   -6.4730   25.2680  -29.7110 C   0  0  0  0  0  0  0  0  0  0  0  0
   -5.3060   25.6560  -30.6180 C   0  0  0  0  0  0  0  0  0  0  0  0
   -4.3920   24.5110  -30.8300 N   0  0  0  0  0  0  0  0  0  0  0  0
   -3.4160   24.4150  -29.7280 C   0  0  0  0  0  0  0  0  0  0  0  0
   -5.1450   23.2400  -30.9390 C   0  0  0  0  0  0  0  0  0  0  0  0
   -4.2090   22.0230  -31.0220 C   0  0  0  0  0  0  0  0  0  0  0  0
   -3.4460   21.9450  -32.3550 C   0  0  0  0  0  0  0  0  0  0  0  0
   -4.2800   21.3860  -33.4190 N   0  0  0  0  0  0  0  0  0  0  0  0
   -4.8930   20.1020  -33.2550 C   0  0  0  0  0  0  0  0  0  0  0  0
   -6.2420   20.0100  -32.8780 C   0  0  0  0  0  0  0  0  0  0  0  0
   -6.8860   18.7500  -32.9590 C   0  0  0  0  0  0  0  0  0  0  0  0
   -6.1460   17.6260  -33.2680 N   0  0  0  0  0  0  0  0  0  0  0  0
   -6.8490   16.4470  -33.8070 C   0  0  0  0  0  0  0  0  0  0  0  0
   -4.7660   17.6810  -33.2590 C   0  0  0  0  0  0  0  0  0  0  0  0
   -4.1400   18.9300  -33.4270 C   0  0  0  0  0  0  0  0  0  0  0  0
   -2.7430   18.9800  -34.0030 C   0  0  0  0  0  0  0  0  0  0  0  0
   -1.8270   17.9250  -33.3940 C   0  0  0  0  0  0  0  0  0  0  0  0
   -2.4870   16.5780  -33.2630 C   0  0  0  0  0  0  0  0  0  0  0  0
   -1.6650   15.4510  -33.1070 C   0  0  0  0  0  0  0  0  0  0  0  0
   -2.2020   14.2330  -32.6940 C   0  0  0  0  0  0  0  0  0  0  0  0
   -3.5520   14.1500  -32.3670 C   0  0  0  0  0  0  0  0  0  0  0  0
   -4.3800   15.2650  -32.5120 C   0  0  0  0  0  0  0  0  0  0  0  0
   -3.8870   16.4720  -33.0580 C   0  0  0  0  0  0  0  0  0  0  0  0
   -8.3610   18.6200  -32.5820 C   0  0  0  0  0  0  0  0  0  0  0  0
   -9.1120   19.9530  -32.5470 C   0  0  0  0  0  0  0  0  0  0  0  0
   -8.3040   20.9970  -31.7890 C   0  0  0  0  0  0  0  0  0  0  0  0
   -7.0010   21.2740  -32.5290 C   0  0  0  0  0  0  0  0  0  0  0  0
   -6.1689   25.3691  -28.6587 H   0  0  0  0  0  0  0  0  0  0  0  0
   -7.3284   25.9301  -29.9107 H   0  0  0  0  0  0  0  0  0  0  0  0
   -6.7617   24.2255  -29.9107 H   0  0  0  0  0  0  0  0  0  0  0  0
   -5.7009   25.9853  -31.5904 H   0  0  0  0  0  0  0  0  0  0  0  0
   -4.7427   26.4677  -30.1345 H   0  0  0  0  0  0  0  0  0  0  0  0
   -3.9444   24.4670  -28.7646 H   0  0  0  0  0  0  0  0  0  0  0  0
   -2.8758   23.4594  -29.7988 H   0  0  0  0  0  0  0  0  0  0  0  0
   -2.7000   25.2471  -29.7988 H   0  0  0  0  0  0  0  0  0  0  0  0
   -5.7904   23.1323  -30.0548 H   0  0  0  0  0  0  0  0  0  0  0  0
   -5.7403   23.2752  -31.8633 H   0  0  0  0  0  0  0  0  0  0  0  0
   -3.4781   22.0857  -30.2023 H   0  0  0  0  0  0  0  0  0  0  0  0
   -4.8332   21.1205  -30.9455 H   0  0  0  0  0  0  0  0  0  0  0  0
   -3.1284   22.9575  -32.6447 H   0  0  0  0  0  0  0  0  0  0  0  0
   -2.5762   21.2860  -32.2164 H   0  0  0  0  0  0  0  0  0  0  0  0
   -4.6250   21.9980  -34.1920 H   0  0  0  0  0  0  0  0  0  0  0  0
   -7.2179   15.8283  -32.9757 H   0  0  0  0  0  0  0  0  0  0  0  0
   -7.6981   16.7766  -34.4237 H   0  0  0  0  0  0  0  0  0  0  0  0
   -6.1553   15.8567  -34.4237 H   0  0  0  0  0  0  0  0  0  0  0  0
   -2.8020   18.8128  -35.0886 H   0  0  0  0  0  0  0  0  0  0  0  0
   -2.3188   19.9680  -33.7706 H   0  0  0  0  0  0  0  0  0  0  0  0
   -0.9391   17.8195  -34.0348 H   0  0  0  0  0  0  0  0  0  0  0  0
   -1.5641   18.2627  -32.3807 H   0  0  0  0  0  0  0  0  0  0  0  0
   -0.5873   15.5298  -33.3126 H   0  0  0  0  0  0  0  0  0  0  0  0
   -1.5615   13.3412  -32.6268 H   0  0  0  0  0  0  0  0  0  0  0  0
   -3.9683   13.2030  -31.9931 H   0  0  0  0  0  0  0  0  0  0  0  0
   -5.4320   15.2031  -32.1965 H   0  0  0  0  0  0  0  0  0  0  0  0
   -8.8504   17.9660  -33.3187 H   0  0  0  0  0  0  0  0  0  0  0  0
   -8.3949   18.2076  -31.5628 H   0  0  0  0  0  0  0  0  0  0  0  0
   -9.2797   20.3018  -33.5767 H   0  0  0  0  0  0  0  0  0  0  0  0
  -10.0751   19.8069  -32.0361 H   0  0  0  0  0  0  0  0  0  0  0  0
   -8.8868   21.9269  -31.7140 H   0  0  0  0  0  0  0  0  0  0  0  0
   -8.0775   20.6209  -30.7804 H   0  0  0  0  0  0  0  0  0  0  0  0
   -7.2333   21.8124  -33.4597 H   0  0  0  0  0  0  0  0  0  0  0  0
   -6.3616   21.8696  -31.8608 H   0  0  0  0  0  0  0  0  0  0  0  0
  1  2  1  0
  2  3  1  0
  3  4  1  0
  3  5  1  0
  5  6  1  0
  6  7  1  0
  7  8  1  0
  8  9  1  0
  9 10  2  0
 10 11  1  0
 11 12  2  0
 12 13  1  0
 12 14  1  0
 14 15  2  0
 15 16  1  0
 16 17  1  0
 17 18  1  0
 18 19  2  0
 19 20  1  0
 20 21  2  0
 21 22  1  0
 22 23  2  0
 11 24  1  0
 24 25  1  0
 25 26  1  0
 26 27  1  0
 15  9  1  0
 23 18  1  0
 27 10  1  0
 23 14  1  0
  1 28  1  0
  1 29  1  0
  1 30  1  0
  2 31  1  0
  2 32  1  0
  4 33  1  0
  4 34  1  0
  4 35  1  0
  5 36  1  0
  5 37  1  0
  6 38  1  0
  6 39  1  0
  7 40  1  0
  7 41  1  0
  8 42  1  0
 13 43  1  0
 13 44  1  0
 13 45  1  0
 16 46  1  0
 16 47  1  0
 17 48  1  0
 17 49  1  0
 19 50  1  0
 20 51  1  0
 21 52  1  0
 22 53  1  0
 24 54  1  0
 24 55  1  0
 25 56  1  0
 25 57  1  0
 26 58  1  0
 26 59  1  0
 27 60  1  0
 27 61  1  0
M  CHG  1  12   1
M  END
>  <UniqueID>  (12) 
12

>  <SMILES>  (12) 
CCN(C)CCCNc1c2c([n+](C)c3c1CCc1ccccc1-3)CCCC2

>  <Energy>  (12) 
92.93388346453462

>  <Genealogy>  (12) 
CCN(C)CCCNc1c2c([n+](C)c3c1CCc1ccccc1-3)CCCC2 (3D coordinates assigned)
CCN(C)CCCNc1c2c([n+](C)c3c1CCc1ccccc1-3)CCCC2 (nonaromatic ring conformer: 92.93388346453462 kcal/mol)

>  <smiles>  (12) 
CCN(C)CCCNc1c2c([n+](C)c3c1CCc1ccccc1-3)CCCC2

>  <score_type>  (12) 
oracle

>  <origin>  (12) 
adg

>  <m_score__min__energy>  (12) 
-9.0899999999999999

>  <m_primary>  (12) 
energy

$$$$
12:0
     RDKit          3D

 42 44  0  0  0  0  0  0  0  0999 V2000
   -6.8510   24.8590  -30.1020 C   0  0  0  0  0  0  0  0  0  0  0  0
   -5.4420   25.2850  -29.7250 C   0  0  0  0  0  0  0  0  0  0  0  0
   -4.5530   24.9890  -30.8000 O   0  0  0  0  0  0  0  0  0  0  0  0
   -4.1920   23.7030  -31.1830 N   0  0  0  0  0  0  0  0  0  0  0  0
   -4.9440   22.9720  -32.0640 C   0  0  0  0  0  0  0  0  0  0  0  0
   -4.5610   21.6750  -32.4440 C   0  0  0  0  0  0  0  0  0  0  0  0
   -5.3670   20.9310  -33.3910 N   0  0  0  0  0  0  0  0  0  0  0  0
   -6.6210   20.5010  -32.7990 C   0  0  0  0  0  0  0  0  0  0  0  0
   -7.4810   21.4560  -32.2150 C   0  0  0  0  0  0  0  0  0  0  0  0
   -8.7090   21.0780  -31.6710 C   0  0  0  0  0  0  0  0  0  0  0  0
   -9.0940   19.7400  -31.6770 C   0  0  0  0  0  0  0  0  0  0  0  0
   -8.2400   18.7700  -32.2020 C   0  0  0  0  0  0  0  0  0  0  0  0
   -6.9920   19.1270  -32.7420 C   0  0  0  0  0  0  0  0  0  0  0  0
   -6.0960   18.0400  -33.1950 C   0  0  0  0  0  0  0  0  0  0  0  0
   -5.6110   18.0240  -34.5130 C   0  0  0  0  0  0  0  0  0  0  0  0
   -4.7810   16.9860  -34.9460 C   0  0  0  0  0  0  0  0  0  0  0  0
   -4.4400   15.9500  -34.0730 C   0  0  0  0  0  0  0  0  0  0  0  0
   -4.9330   15.9490  -32.7640 C   0  0  0  0  0  0  0  0  0  0  0  0
   -5.7630   16.9850  -32.3270 C   0  0  0  0  0  0  0  0  0  0  0  0
   -3.3820   21.1310  -31.8950 C   0  0  0  0  0  0  0  0  0  0  0  0
   -2.8530   19.5030  -32.3260 Cl  0  0  0  0  0  0  0  0  0  0  0  0
   -2.6230   21.8910  -30.9930 C   0  0  0  0  0  0  0  0  0  0  0  0
   -1.1420   21.2430  -30.2880 Cl  0  0  0  0  0  0  0  0  0  0  0  0
   -3.0490   23.1810  -30.6500 C   0  0  0  0  0  0  0  0  0  0  0  0
   -2.3680   23.8670  -29.8400 O   0  0  0  0  0  0  0  0  0  0  0  0
   -7.4373   24.6817  -29.1883 H   0  0  0  0  0  0  0  0  0  0  0  0
   -7.3278   25.6531  -30.6953 H   0  0  0  0  0  0  0  0  0  0  0  0
   -6.8079   23.9337  -30.6953 H   0  0  0  0  0  0  0  0  0  0  0  0
   -5.4272   26.3664  -29.5239 H   0  0  0  0  0  0  0  0  0  0  0  0
   -5.1226   24.7405  -28.8242 H   0  0  0  0  0  0  0  0  0  0  0  0
   -5.8637   23.4081  -32.4812 H   0  0  0  0  0  0  0  0  0  0  0  0
   -4.8560   20.0810  -33.7240 H   0  0  0  0  0  0  0  0  0  0  0  0
   -5.5070   21.5400  -34.2260 H   0  0  0  0  0  0  0  0  0  0  0  0
   -7.1787   22.5133  -32.1884 H   0  0  0  0  0  0  0  0  0  0  0  0
   -9.3743   21.8386  -31.2365 H   0  0  0  0  0  0  0  0  0  0  0  0
  -10.0722   19.4476  -31.2675 H   0  0  0  0  0  0  0  0  0  0  0  0
   -8.5465   17.7136  -32.1934 H   0  0  0  0  0  0  0  0  0  0  0  0
   -5.8855   18.8317  -35.2074 H   0  0  0  0  0  0  0  0  0  0  0  0
   -4.3955   16.9849  -35.9762 H   0  0  0  0  0  0  0  0  0  0  0  0
   -3.7843   15.1356  -34.4148 H   0  0  0  0  0  0  0  0  0  0  0  0
   -4.6670   15.1316  -32.0776 H   0  0  0  0  0  0  0  0  0  0  0  0
   -6.1573   16.9751  -31.3001 H   0  0  0  0  0  0  0  0  0  0  0  0
  1  2  1  0
  2  3  1  0
  3  4  1  0
  4  5  1  0
  5  6  2  0
  6  7  1  0
  7  8  1  0
  8  9  2  0
  9 10  1  0
 10 11  2  0
 11 12  1  0
 12 13  2  0
 13 14  1  0
 14 15  2  0
 15 16  1  0
 16 17  2  0
 17 18  1  0
 18 19  2  0
  6 20  1  0
 20 21  1  0
 20 22  2  0
 22 23  1  0
 22 24  1  0
 24 25  2  0
 24  4  1  0
 13  8  1  0
 19 14  1  0
  1 26  1  0
  1 27  1  0
  1 28  1  0
  2 29  1  0
  2 30  1  0
  5 31  1  0
  7 32  1  0
  7 33  1  0
  9 34  1  0
 10 35  1  0
 11 36  1  0
 12 37  1  0
 15 38  1  0
 16 39  1  0
 17 40  1  0
 18 41  1  0
 19 42  1  0
M  CHG  1   7   1
M  END
>  <UniqueID>  (13) 
13

>  <SMILES>  (13) 
CCOn1cc([NH2+]c2ccccc2-c2ccccc2)c(Cl)c(Cl)c1=O

>  <Energy>  (13) 
57.45446097799512

>  <Genealogy>  (13) 
CCOn1cc([NH2+]c2ccccc2-c2ccccc2)c(Cl)c(Cl)c1=O (protonated)
CCOn1cc([NH2+]c2ccccc2-c2ccccc2)c(Cl)c(Cl)c1=O (3D coordinates assigned)
CCOn1cc([NH2+]c2ccccc2-c2ccccc2)c(Cl)c(Cl)c1=O (optimized conformer: 57.45446097799512 kcal/mol)

>  <smiles>  (13) 
CCOn1cc(Nc2ccccc2-c2ccccc2)c(Cl)c(Cl)c1=O

>  <score_type>  (13) 
oracle

>  <origin>  (13) 
adg

>  <m_score__min__energy>  (13) 
-9.0999999999999996

>  <m_primary>  (13) 
energy

$$$$
13:0
     RDKit          3D

 43 45  0  0  0  0  0  0  0  0999 V2000
   -0.3610   25.8040  -27.3600 C   0  0  0  0  0  0  0  0  0  0  0  0
   -1.7450   25.3420  -27.8310 C   0  0  0  0  0  0  0  0  0  0  0  0
   -2.6300   24.9700  -26.6350 C   0  0  0  0  0  0  0  0  0  0  0  0
   -4.0340   24.5640  -27.1130 C   0  0  0  0  0  0  0  0  0  0  0  0
   -4.0350   23.6550  -28.2880 N   0  0  0  0  0  0  0  0  0  0  0  0
   -4.8250   24.3720  -29.6750 S   0  0  0  0  0  0  0  0  0  0  0  0
   -3.8490   25.2080  -30.4550 O   0  0  0  0  0  0  0  0  0  0  0  0
   -5.9660   25.2470  -29.2360 O   0  0  0  0  0  0  0  0  0  0  0  0
   -5.4250   23.0890  -30.7220 C   0  0  0  0  0  0  0  0  0  0  0  0
   -4.5310   22.4390  -31.6070 C   0  0  0  0  0  0  0  0  0  0  0  0
   -4.9790   21.4040  -32.4480 C   0  0  0  0  0  0  0  0  0  0  0  0
   -6.3230   21.0360  -32.3650 C   0  0  0  0  0  0  0  0  0  0  0  0
   -7.1900   21.6600  -31.5060 C   0  0  0  0  0  0  0  0  0  0  0  0
   -6.7790   22.6970  -30.6680 C   0  0  0  0  0  0  0  0  0  0  0  0
   -8.4220   21.1310  -31.6560 N   0  0  0  0  0  0  0  0  0  0  0  0
   -9.6620   21.5580  -31.0140 C   0  0  0  0  0  0  0  0  0  0  0  0
   -8.2690   20.2060  -32.6350 C   0  0  0  0  0  0  0  0  0  0  0  0
   -9.2200   19.5220  -33.1020 O   0  0  0  0  0  0  0  0  0  0  0  0
   -6.9890   20.1040  -33.0750 N   0  0  0  0  0  0  0  0  0  0  0  0
   -6.4800   19.2760  -34.1660 C   0  0  0  0  0  0  0  0  0  0  0  0
   -2.7170   23.0910  -28.6340 C   0  0  0  0  0  0  0  0  0  0  0  0
   -1.6350   24.1690  -28.8360 C   0  0  0  0  0  0  0  0  0  0  0  0
   -0.3322   25.8136  -26.2604 H   0  0  0  0  0  0  0  0  0  0  0  0
    0.4055   25.1130  -27.7408 H   0  0  0  0  0  0  0  0  0  0  0  0
   -0.1633   26.8169  -27.7408 H   0  0  0  0  0  0  0  0  0  0  0  0
   -2.2218   26.1819  -28.3576 H   0  0  0  0  0  0  0  0  0  0  0  0
   -2.1735   24.1278  -26.0944 H   0  0  0  0  0  0  0  0  0  0  0  0
   -2.7176   25.8425  -25.9708 H   0  0  0  0  0  0  0  0  0  0  0  0
   -4.5482   24.0568  -26.2833 H   0  0  0  0  0  0  0  0  0  0  0  0
   -4.5422   25.4880  -27.4261 H   0  0  0  0  0  0  0  0  0  0  0  0
   -3.4753   22.7465  -31.6373 H   0  0  0  0  0  0  0  0  0  0  0  0
   -4.2938   20.9020  -33.1469 H   0  0  0  0  0  0  0  0  0  0  0  0
   -7.4873   23.1925  -29.9877 H   0  0  0  0  0  0  0  0  0  0  0  0
   -9.5422   21.5168  -29.9213 H   0  0  0  0  0  0  0  0  0  0  0  0
   -9.8965   22.5887  -31.3185 H   0  0  0  0  0  0  0  0  0  0  0  0
  -10.4814   20.8903  -31.3185 H   0  0  0  0  0  0  0  0  0  0  0  0
   -5.9467   18.4085  -33.7499 H   0  0  0  0  0  0  0  0  0  0  0  0
   -7.3202   18.9277  -34.7847 H   0  0  0  0  0  0  0  0  0  0  0  0
   -5.7899   19.8684  -34.7847 H   0  0  0  0  0  0  0  0  0  0  0  0
   -2.3978   22.4219  -27.8213 H   0  0  0  0  0  0  0  0  0  0  0  0
   -2.8289   22.5544  -29.5877 H   0  0  0  0  0  0  0  0  0  0  0  0
   -0.6475   23.6991  -28.7177 H   0  0  0  0  0  0  0  0  0  0  0  0
   -1.7762   24.5881  -29.8432 H   0  0  0  0  0  0  0  0  0  0  0  0
  1  2  1  0
  2  3  1  0
  3  4  1  0
  4  5  1  0
  5  6  1  0
  6  7  2  0
  6  8  2  0
  6  9  1  0
  9 10  2  0
 10 11  1  0
 11 12  2  0
 12 13  1  0
 13 14  2  0
 13 15  1  0
 15 16  1  0
 15 17  1  0
 17 18  2  0
 17 19  1  0
 19 20  1  0
  5 21  1  0
 21 22  1  0
 22  2  1  0
 14  9  1  0
 19 12  1  0
  1 23  1  0
  1 24  1  0
  1 25  1  0
  2 26  1  0
  3 27  1  0
  3 28  1  0
  4 29  1  0
  4 30  1  0
 10 31  1  0
 11 32  1  0
 14 33  1  0
 16 34  1  0
 16 35  1  0
 16 36  1  0
 20 37  1  0
 20 38  1  0
 20 39  1  0
 21 40  1  0
 21 41  1  0
 22 42  1  0
 22 43  1  0
M  END
>  <UniqueID>  (14) 
14

>  <SMILES>  (14) 
CC1CCN(S(=O)(=O)c2ccc3c(c2)n(C)c(=O)n3C)CC1

>  <Energy>  (14) 
89.91918389418579

>  <Genealogy>  (14) 
CC1CCN(S(=O)(=O)c2ccc3c(c2)n(C)c(=O)n3C)CC1 (3D coordinates assigned)
CC1CCN(S(=O)(=O)c2ccc3c(c2)n(C)c(=O)n3C)CC1 (nonaromatic ring conformer: 89.91918389418579 kcal/mol)

>  <smiles>  (14) 
CC1CCN(S(=O)(=O)c2ccc3c(c2)n(C)c(=O)n3C)CC1

>  <score_type>  (14) 
oracle

>  <origin>  (14) 
adg

>  <m_score__min__energy>  (14) 
-8.9800000000000004

>  <m_primary>  (14) 
energy

$$$$
14:0
     RDKit          3D

 49 51  0  0  0  0  0  0  0  0999 V2000
   -2.6980   24.9090  -27.0040 C   0  0  0  0  0  0  0  0  0  0  0  0
   -1.9710   24.7540  -28.3300 C   0  0  0  0  0  0  0  0  0  0  0  0
   -2.7820   25.2710  -29.3810 O   0  0  0  0  0  0  0  0  0  0  0  0
   -3.9600   24.6690  -29.8430 C   0  0  0  0  0  0  0  0  0  0  0  0
   -4.9200   25.4750  -30.4650 C   0  0  0  0  0  0  0  0  0  0  0  0
   -6.1120   24.9220  -30.9400 C   0  0  0  0  0  0  0  0  0  0  0  0
   -6.3640   23.5500  -30.7950 C   0  0  0  0  0  0  0  0  0  0  0  0
   -7.6240   22.9470  -31.3630 C   0  0  0  0  0  0  0  0  0  0  0  0
   -7.9400   21.6870  -30.6720 N   0  0  0  0  0  0  0  0  0  0  0  0
   -9.0750   20.9690  -31.2810 C   0  0  0  0  0  0  0  0  0  0  0  0
   -8.7320   19.5390  -31.7360 C   0  0  0  0  0  0  0  0  0  0  0  0
   -8.0760   19.5410  -33.0460 N   0  0  0  0  0  0  0  0  0  0  0  0
   -6.8360   18.8520  -33.2960 C   0  0  0  0  0  0  0  0  0  0  0  0
   -6.8520   17.4670  -33.5330 C   0  0  0  0  0  0  0  0  0  0  0  0
   -5.6700   16.7680  -33.7760 C   0  0  0  0  0  0  0  0  0  0  0  0
   -4.4470   17.4360  -33.7800 C   0  0  0  0  0  0  0  0  0  0  0  0
   -4.3950   18.8140  -33.5350 C   0  0  0  0  0  0  0  0  0  0  0  0
   -3.1600   19.4820  -33.5540 C   0  0  0  0  0  0  0  0  0  0  0  0
   -3.1000   20.8570  -33.3310 C   0  0  0  0  0  0  0  0  0  0  0  0
   -4.2690   21.5780  -33.0880 C   0  0  0  0  0  0  0  0  0  0  0  0
   -5.5070   20.9300  -33.0660 C   0  0  0  0  0  0  0  0  0  0  0  0
   -5.5920   19.5380  -33.2840 C   0  0  0  0  0  0  0  0  0  0  0  0
   -5.4000   22.7350  -30.1840 C   0  0  0  0  0  0  0  0  0  0  0  0
   -4.2080   23.2890  -29.7050 C   0  0  0  0  0  0  0  0  0  0  0  0
   -1.9886   24.7578  -26.1770 H   0  0  0  0  0  0  0  0  0  0  0  0
   -3.1285   25.9191  -26.9377 H   0  0  0  0  0  0  0  0  0  0  0  0
   -3.5030   24.1623  -26.9377 H   0  0  0  0  0  0  0  0  0  0  0  0
   -1.0211   25.3076  -28.2940 H   0  0  0  0  0  0  0  0  0  0  0  0
   -1.7685   23.6886  -28.5141 H   0  0  0  0  0  0  0  0  0  0  0  0
   -4.7347   26.5531  -30.5810 H   0  0  0  0  0  0  0  0  0  0  0  0
   -6.8567   25.5662  -31.4303 H   0  0  0  0  0  0  0  0  0  0  0  0
   -8.4568   23.6532  -31.2301 H   0  0  0  0  0  0  0  0  0  0  0  0
   -7.4732   22.7417  -32.4331 H   0  0  0  0  0  0  0  0  0  0  0  0
   -7.0980   21.0720  -30.6410 H   0  0  0  0  0  0  0  0  0  0  0  0
   -8.2010   21.9110  -29.6820 H   0  0  0  0  0  0  0  0  0  0  0  0
   -9.8870   20.9124  -30.5411 H   0  0  0  0  0  0  0  0  0  0  0  0
   -9.3647   21.5313  -32.1810 H   0  0  0  0  0  0  0  0  0  0  0  0
   -8.0576   19.0801  -30.9981 H   0  0  0  0  0  0  0  0  0  0  0  0
   -9.6676   18.9661  -31.8167 H   0  0  0  0  0  0  0  0  0  0  0  0
   -8.6020   19.9610  -33.8440 H   0  0  0  0  0  0  0  0  0  0  0  0
   -7.8101   16.9267  -33.5268 H   0  0  0  0  0  0  0  0  0  0  0  0
   -5.7032   15.6849  -33.9653 H   0  0  0  0  0  0  0  0  0  0  0  0
   -3.5190   16.8790  -33.9763 H   0  0  0  0  0  0  0  0  0  0  0  0
   -2.2354   18.9177  -33.7457 H   0  0  0  0  0  0  0  0  0  0  0  0
   -2.1292   21.3740  -33.3467 H   0  0  0  0  0  0  0  0  0  0  0  0
   -4.2162   22.6627  -32.9127 H   0  0  0  0  0  0  0  0  0  0  0  0
   -6.4227   21.5095  -32.8772 H   0  0  0  0  0  0  0  0  0  0  0  0
   -5.5820   21.6551  -30.0809 H   0  0  0  0  0  0  0  0  0  0  0  0
   -3.4612   22.6444  -29.2185 H   0  0  0  0  0  0  0  0  0  0  0  0
  1  2  1  0
  2  3  1  0
  3  4  1  0
  4  5  2  0
  5  6  1  0
  6  7  2  0
  7  8  1  0
  8  9  1  0
  9 10  1  0
 10 11  1  0
 11 12  1  0
 12 13  1  0
 13 14  2  0
 14 15  1  0
 15 16  2  0
 16 17  1  0
 17 18  2  0
 18 19  1  0
 19 20  2  0
 20 21  1  0
 21 22  2  0
  7 23  1  0
 23 24  2  0
 24  4  1  0
 22 13  1  0
 22 17  1  0
  1 25  1  0
  1 26  1  0
  1 27  1  0
  2 28  1  0
  2 29  1  0
  5 30  1  0
  6 31  1  0
  8 32  1  0
  8 33  1  0
  9 34  1  0
  9 35  1  0
 10 36  1  0
 10 37  1  0
 11 38  1  0
 11 39  1  0
 12 40  1  0
 14 41  1  0
 15 42  1  0
 16 43  1  0
 18 44  1  0
 19 45  1  0
 20 46  1  0
 21 47  1  0
 23 48  1  0
 24 49  1  0
M  CHG  1   9   1
M  END
>  <UniqueID>  (15) 
15

>  <SMILES>  (15) 
CCOc1ccc(C[NH2+]CCNc2cccc3ccccc23)cc1

>  <Energy>  (15) 
50.56791856839675

>  <Genealogy>  (15) 
CCOc1ccc(C[NH2+]CCNc2cccc3ccccc23)cc1 (protonated)
CCOc1ccc(C[NH2+]CCNc2cccc3ccccc23)cc1 (3D coordinates assigned)
CCOc1ccc(C[NH2+]CCNc2cccc3ccccc23)cc1 (optimized conformer: 50.56791856839675 kcal/mol)

>  <smiles>  (15) 
CCOc1ccc(CNCCNc2cccc3ccccc23)cc1

>  <score_type>  (15) 
oracle

>  <origin>  (15) 
adg

>  <m_score__min__energy>  (15) 
-8.2200000000000006

>  <m_primary>  (15) 
energy

$$$$
15:0
     RDKit          3D

 80 84  0  0  0  0  0  0  0  0999 V2000
    0.5900   20.2740  -31.9850 C   0  0  0  0  0  0  0  0  0  0  0  0
   -0.7440   20.8570  -31.7750 N   0  0  0  0  0  0  0  0  0  0  0  0
   -0.6670   21.8860  -30.7220 C   0  0  0  0  0  0  0  0  0  0  0  0
   -1.2510   21.4250  -33.0430 C   0  0  0  0  0  0  0  0  0  0  0  0
   -2.7320   21.0660  -33.2600 C   0  0  0  0  0  0  0  0  0  0  0  0
   -3.2560   20.1860  -32.1960 N   0  0  0  0  0  0  0  0  0  0  0  0
   -4.7070   20.1430  -32.1980 C   0  0  0  0  0  0  0  0  0  0  0  0
   -5.4420   19.0390  -32.7380 C   0  0  0  0  0  0  0  0  0  0  0  0
   -4.7980   17.9330  -33.3450 C   0  0  0  0  0  0  0  0  0  0  0  0
   -5.5240   16.8420  -33.8150 C   0  0  0  0  0  0  0  0  0  0  0  0
   -6.9040   16.8120  -33.6880 C   0  0  0  0  0  0  0  0  0  0  0  0
   -7.5760   17.8870  -33.1190 C   0  0  0  0  0  0  0  0  0  0  0  0
   -6.8790   19.0350  -32.6640 C   0  0  0  0  0  0  0  0  0  0  0  0
   -7.5630   20.1220  -32.1450 N   0  0  0  0  0  0  0  0  0  0  0  0
   -9.0360   20.1920  -32.1920 C   0  0  0  0  0  0  0  0  0  0  0  0
   -6.8430   21.1420  -31.5880 C   0  0  0  0  0  0  0  0  0  0  0  0
   -7.3600   22.2130  -30.9370 N   0  0  0  0  0  0  0  0  0  0  0  0
   -6.3020   22.9580  -30.5790 C   0  0  0  0  0  0  0  0  0  0  0  0
   -6.3480   24.1670  -29.8900 C   0  0  0  0  0  0  0  0  0  0  0  0
   -5.1380   24.8180  -29.6100 C   0  0  0  0  0  0  0  0  0  0  0  0
   -3.9090   24.2630  -30.0190 C   0  0  0  0  0  0  0  0  0  0  0  0
   -2.7350   24.9680  -29.7170 O   0  0  0  0  0  0  0  0  0  0  0  0
   -1.7600   24.5490  -28.7630 C   0  0  0  0  0  0  0  0  0  0  0  0
   -1.2900   25.7580  -27.9210 C   0  0  0  0  0  0  0  0  0  0  0  0
   -0.6260   25.4340  -26.6130 N   0  0  0  0  0  0  0  0  0  0  0  0
   -0.3070   23.9820  -26.5460 C   0  0  0  0  0  0  0  0  0  0  0  0
   -1.5220   25.7930  -25.4610 C   0  0  0  0  0  0  0  0  0  0  0  0
   -1.2890   27.2310  -24.9540 C   0  0  0  0  0  0  0  0  0  0  0  0
    0.0970   27.4250  -24.4220 N   0  0  0  0  0  0  0  0  0  0  0  0
    0.4860   28.8460  -24.6070 C   0  0  0  0  0  0  0  0  0  0  0  0
    0.1180   27.1340  -22.9660 C   0  0  0  0  0  0  0  0  0  0  0  0
    1.0890   26.5390  -25.1110 C   0  0  0  0  0  0  0  0  0  0  0  0
    0.6640   26.2020  -26.5530 C   0  0  0  0  0  0  0  0  0  0  0  0
   -3.8920   23.0300  -30.7150 C   0  0  0  0  0  0  0  0  0  0  0  0
   -5.1120   22.3850  -30.9770 C   0  0  0  0  0  0  0  0  0  0  0  0
   -5.4590   21.1880  -31.6200 C   0  0  0  0  0  0  0  0  0  0  0  0
    1.0582   20.0694  -31.0109 H   0  0  0  0  0  0  0  0  0  0  0  0
    0.4950   19.3353  -32.5506 H   0  0  0  0  0  0  0  0  0  0  0  0
    1.2144   20.9813  -32.5506 H   0  0  0  0  0  0  0  0  0  0  0  0
   -0.7031   21.4033  -29.7342 H   0  0  0  0  0  0  0  0  0  0  0  0
    0.2754   22.4442  -30.8230 H   0  0  0  0  0  0  0  0  0  0  0  0
   -1.5159   22.5783  -30.8230 H   0  0  0  0  0  0  0  0  0  0  0  0
   -1.1478   22.5197  -33.0126 H   0  0  0  0  0  0  0  0  0  0  0  0
   -0.6648   21.0034  -33.8729 H   0  0  0  0  0  0  0  0  0  0  0  0
   -3.3226   21.9939  -33.2747 H   0  0  0  0  0  0  0  0  0  0  0  0
   -2.8112   20.5248  -34.2144 H   0  0  0  0  0  0  0  0  0  0  0  0
   -2.9360   20.5220  -31.2620 H   0  0  0  0  0  0  0  0  0  0  0  0
   -2.8170   19.2450  -32.2480 H   0  0  0  0  0  0  0  0  0  0  0  0
   -3.7027   17.9362  -33.4470 H   0  0  0  0  0  0  0  0  0  0  0  0
   -4.9998   15.9994  -34.2896 H   0  0  0  0  0  0  0  0  0  0  0  0
   -7.4684   15.9353  -34.0384 H   0  0  0  0  0  0  0  0  0  0  0  0
   -8.6707   17.8466  -33.0195 H   0  0  0  0  0  0  0  0  0  0  0  0
   -9.4351   20.2110  -31.1671 H   0  0  0  0  0  0  0  0  0  0  0  0
   -9.3429   21.1057  -32.7220 H   0  0  0  0  0  0  0  0  0  0  0  0
   -9.4282   19.3115  -32.7220 H   0  0  0  0  0  0  0  0  0  0  0  0
   -8.3550   22.4290  -30.7100 H   0  0  0  0  0  0  0  0  0  0  0  0
   -7.3084   24.6001  -29.5736 H   0  0  0  0  0  0  0  0  0  0  0  0
   -5.1483   25.7732  -29.0646 H   0  0  0  0  0  0  0  0  0  0  0  0
   -2.2023   23.7922  -28.0985 H   0  0  0  0  0  0  0  0  0  0  0  0
   -0.8966   24.1209  -29.2934 H   0  0  0  0  0  0  0  0  0  0  0  0
   -0.5747   26.3325  -28.5279 H   0  0  0  0  0  0  0  0  0  0  0  0
   -2.2051   26.3095  -27.6593 H   0  0  0  0  0  0  0  0  0  0  0  0
   -0.2384   23.6698  -25.4935 H   0  0  0  0  0  0  0  0  0  0  0  0
   -1.1006   23.4087  -27.0475 H   0  0  0  0  0  0  0  0  0  0  0  0
    0.6538   23.7942  -27.0475 H   0  0  0  0  0  0  0  0  0  0  0  0
   -2.5686   25.6994  -25.7863 H   0  0  0  0  0  0  0  0  0  0  0  0
   -1.2915   25.1064  -24.6331 H   0  0  0  0  0  0  0  0  0  0  0  0
   -1.4499   27.9309  -25.7872 H   0  0  0  0  0  0  0  0  0  0  0  0
   -1.9957   27.4182  -24.1321 H   0  0  0  0  0  0  0  0  0  0  0  0
    0.6162   29.3215  -23.6237 H   0  0  0  0  0  0  0  0  0  0  0  0
    1.4313   28.8974  -25.1672 H   0  0  0  0  0  0  0  0  0  0  0  0
   -0.3013   29.3717  -25.1672 H   0  0  0  0  0  0  0  0  0  0  0  0
    0.0500   28.0764  -22.4027 H   0  0  0  0  0  0  0  0  0  0  0  0
   -0.7360   26.4904  -22.7084 H   0  0  0  0  0  0  0  0  0  0  0  0
    1.0556   26.6197  -22.7084 H   0  0  0  0  0  0  0  0  0  0  0  0
    2.0621   27.0511  -25.1389 H   0  0  0  0  0  0  0  0  0  0  0  0
    1.1491   25.5964  -24.5472 H   0  0  0  0  0  0  0  0  0  0  0  0
    0.5407   27.1413  -27.1121 H   0  0  0  0  0  0  0  0  0  0  0  0
    1.4488   25.5678  -26.9910 H   0  0  0  0  0  0  0  0  0  0  0  0
   -2.9412   22.5856  -31.0443 H   0  0  0  0  0  0  0  0  0  0  0  0
  1  2  1  0
  2  3  1  0
  2  4  1  0
  4  5  1  0
  5  6  1  0
  6  7  1  0
  7  8  2  0
  8  9  1  0
  9 10  2  0
 10 11  1  0
 11 12  2  0
 12 13  1  0
 13 14  2  0
 14 15  1  0
 14 16  1  0
 16 17  1  0
 17 18  1  0
 18 19  2  0
 19 20  1  0
 20 21  2  0
 21 22  1  0
 22 23  1  0
 23 24  1  0
 24 25  1  0
 25 26  1  0
 25 27  1  0
 27 28  1  0
 28 29  1  0
 29 30  1  0
 29 31  1  0
 29 32  1  0
 32 33  1  0
 21 34  1  0
 34 35  2  0
 35 36  1  0
 36  7  1  0
 13  8  1  0
 36 16  2  0
 35 18  1  0
 33 25  1  0
  1 37  1  0
  1 38  1  0
  1 39  1  0
  3 40  1  0
  3 41  1  0
  3 42  1  0
  4 43  1  0
  4 44  1  0
  5 45  1  0
  5 46  1  0
  6 47  1  0
  6 48  1  0
  9 49  1  0
 10 50  1  0
 11 51  1  0
 12 52  1  0
 15 53  1  0
 15 54  1  0
 15 55  1  0
 17 56  1  0
 19 57  1  0
 20 58  1  0
 23 59  1  0
 23 60  1  0
 24 61  1  0
 24 62  1  0
 26 63  1  0
 26 64  1  0
 26 65  1  0
 27 66  1  0
 27 67  1  0
 28 68  1  0
 28 69  1  0
 30 70  1  0
 30 71  1  0
 30 72  1  0
 31 73  1  0
 31 74  1  0
 31 75  1  0
 32 76  1  0
 32 77  1  0
 33 78  1  0
 33 79  1  0
 34 80  1  0
M  CHG  4   6   1  14   1  25   1  29   1
M  END
>  <UniqueID>  (16) 
16

>  <SMILES>  (16) 
CN(C)CC[NH2+]c1c2ccccc2[n+](C)c2[nH]c3ccc(OCC[N+]4(C)CC[N+](C)(C)CC4)cc3c12

>  <Energy>  (16) 
169.06964836602404

>  <Genealogy>  (16) 
CN(C)CC[NH2+]c1c2ccccc2[n+](C)c2[nH]c3ccc(OCC[N+]4(C)CC[N+](C)(C)CC4)cc3c12 (protonated)
CN(C)CC[NH2+]c1c2ccccc2[n+](C)c2[nH]c3ccc(OCC[N+]4(C)CC[N+](C)(C)CC4)cc3c12 (3D coordinates assigned)
CN(C)CC[NH2+]c1c2ccccc2[n+](C)c2[nH]c3ccc(OCC[N+]4(C)CC[N+](C)(C)CC4)cc3c12 (nonaromatic ring conformer: 169.06964836602404 kcal/mol)

>  <smiles>  (16) 
CN(C)CCNc1c2ccccc2[n+](C)c2[nH]c3ccc(OCC[N+]4(C)CC[N+](C)(C)CC4)cc3c12

>  <score_type>  (16) 
oracle

>  <origin>  (16) 
adg

>  <m_score__min__energy>  (16) 
-8.1999999999999993

>  <m_primary>  (16) 
energy

$$$$
16:0
     RDKit          3D

 64 67  0  0  0  0  0  0  0  0999 V2000
   -0.9180   20.0760  -29.5760 C   0  0  0  0  0  0  0  0  0  0  0  0
   -0.6460   21.5710  -29.7240 C   0  0  0  0  0  0  0  0  0  0  0  0
   -1.8920   22.3380  -29.4850 N   0  0  0  0  0  0  0  0  0  0  0  0
   -2.5840   21.8830  -28.2580 C   0  0  0  0  0  0  0  0  0  0  0  0
   -1.7030   22.1260  -27.0350 C   0  0  0  0  0  0  0  0  0  0  0  0
   -1.6420   23.7970  -29.4640 C   0  0  0  0  0  0  0  0  0  0  0  0
   -2.9520   24.5690  -29.2420 C   0  0  0  0  0  0  0  0  0  0  0  0
   -3.5830   24.8910  -30.4730 O   0  0  0  0  0  0  0  0  0  0  0  0
   -4.9890   24.9960  -30.3330 C   0  0  0  0  0  0  0  0  0  0  0  0
   -5.5550   23.8500  -29.4830 C   0  0  0  0  0  0  0  0  0  0  0  0
   -5.1390   22.4800  -30.0520 C   0  0  0  0  0  0  0  0  0  0  0  0
   -4.3410   22.5810  -31.2910 N   0  0  0  0  0  0  0  0  0  0  0  0
   -4.4720   21.4030  -32.1310 C   0  0  0  0  0  0  0  0  0  0  0  0
   -3.3280   20.7990  -32.7420 C   0  0  0  0  0  0  0  0  0  0  0  0
   -2.0210   21.3090  -32.5410 C   0  0  0  0  0  0  0  0  0  0  0  0
   -0.9250   20.7650  -33.2030 C   0  0  0  0  0  0  0  0  0  0  0  0
   -1.0920   19.7040  -34.0800 C   0  0  0  0  0  0  0  0  0  0  0  0
   -2.3540   19.1540  -34.2790 C   0  0  0  0  0  0  0  0  0  0  0  0
   -3.4900   19.6550  -33.5950 C   0  0  0  0  0  0  0  0  0  0  0  0
   -4.7330   19.0690  -33.7540 N   0  0  0  0  0  0  0  0  0  0  0  0
   -4.8960   17.8000  -34.4900 C   0  0  0  0  0  0  0  0  0  0  0  0
   -5.8260   19.6950  -33.2190 C   0  0  0  0  0  0  0  0  0  0  0  0
   -7.1130   19.3250  -33.4150 N   0  0  0  0  0  0  0  0  0  0  0  0
   -7.8500   20.2150  -32.7360 C   0  0  0  0  0  0  0  0  0  0  0  0
   -9.2430   20.2400  -32.6740 C   0  0  0  0  0  0  0  0  0  0  0  0
   -9.8570   21.2670  -31.9450 C   0  0  0  0  0  0  0  0  0  0  0  0
   -9.0750   22.2460  -31.3070 C   0  0  0  0  0  0  0  0  0  0  0  0
   -7.6730   22.2080  -31.3880 C   0  0  0  0  0  0  0  0  0  0  0  0
   -7.0630   21.1630  -32.1070 C   0  0  0  0  0  0  0  0  0  0  0  0
   -5.7330   20.8280  -32.4230 C   0  0  0  0  0  0  0  0  0  0  0  0
   -0.9653   19.8159  -28.5082 H   0  0  0  0  0  0  0  0  0  0  0  0
   -1.8760   19.8283  -30.0566 H   0  0  0  0  0  0  0  0  0  0  0  0
   -0.1087   19.5067  -30.0566 H   0  0  0  0  0  0  0  0  0  0  0  0
    0.1163   21.8769  -28.9924 H   0  0  0  0  0  0  0  0  0  0  0  0
   -0.2865   21.7739  -30.7436 H   0  0  0  0  0  0  0  0  0  0  0  0
   -3.5256   22.4402  -28.1440 H   0  0  0  0  0  0  0  0  0  0  0  0
   -2.7926   20.8062  -28.3419 H   0  0  0  0  0  0  0  0  0  0  0  0
   -2.2923   21.9635  -26.1205 H   0  0  0  0  0  0  0  0  0  0  0  0
   -0.8522   21.4290  -27.0517 H   0  0  0  0  0  0  0  0  0  0  0  0
   -1.3298   23.1606  -27.0517 H   0  0  0  0  0  0  0  0  0  0  0  0
   -0.9418   24.0318  -28.6487 H   0  0  0  0  0  0  0  0  0  0  0  0
   -1.2144   24.0967  -30.4322 H   0  0  0  0  0  0  0  0  0  0  0  0
   -3.6346   23.9491  -28.6422 H   0  0  0  0  0  0  0  0  0  0  0  0
   -2.7144   25.5080  -28.7207 H   0  0  0  0  0  0  0  0  0  0  0  0
   -5.2297   25.9536  -29.8483 H   0  0  0  0  0  0  0  0  0  0  0  0
   -5.4414   24.9402  -31.3341 H   0  0  0  0  0  0  0  0  0  0  0  0
   -5.1741   23.9429  -28.4552 H   0  0  0  0  0  0  0  0  0  0  0  0
   -6.6530   23.9149  -29.4955 H   0  0  0  0  0  0  0  0  0  0  0  0
   -4.5412   21.9536  -29.2934 H   0  0  0  0  0  0  0  0  0  0  0  0
   -6.0621   21.9365  -30.3019 H   0  0  0  0  0  0  0  0  0  0  0  0
   -3.3510   22.8010  -31.0820 H   0  0  0  0  0  0  0  0  0  0  0  0
   -4.6520   23.4220  -31.8270 H   0  0  0  0  0  0  0  0  0  0  0  0
   -1.8704   22.1505  -31.8488 H   0  0  0  0  0  0  0  0  0  0  0  0
    0.0794   21.1787  -33.0298 H   0  0  0  0  0  0  0  0  0  0  0  0
   -0.2244   19.2963  -34.6196 H   0  0  0  0  0  0  0  0  0  0  0  0
   -2.4727   18.3147  -34.9801 H   0  0  0  0  0  0  0  0  0  0  0  0
   -5.0024   16.9718  -33.7739 H   0  0  0  0  0  0  0  0  0  0  0  0
   -5.7944   17.8556  -35.1223 H   0  0  0  0  0  0  0  0  0  0  0  0
   -4.0127   17.6268  -35.1223 H   0  0  0  0  0  0  0  0  0  0  0  0
   -7.4930   18.5530  -34.0070 H   0  0  0  0  0  0  0  0  0  0  0  0
   -9.8443   19.4731  -33.1843 H   0  0  0  0  0  0  0  0  0  0  0  0
  -10.9538   21.3075  -31.8716 H   0  0  0  0  0  0  0  0  0  0  0  0
   -9.5659   23.0498  -30.7387 H   0  0  0  0  0  0  0  0  0  0  0  0
   -7.0628   22.9812  -30.8982 H   0  0  0  0  0  0  0  0  0  0  0  0
  1  2  1  0
  2  3  1  0
  3  4  1  0
  4  5  1  0
  3  6  1  0
  6  7  1  0
  7  8  1  0
  8  9  1  0
  9 10  1  0
 10 11  1  0
 11 12  1  0
 12 13  1  0
 13 14  2  0
 14 15  1  0
 15 16  2  0
 16 17  1  0
 17 18  2  0
 18 19  1  0
 19 20  2  0
 20 21  1  0
 20 22  1  0
 22 23  1  0
 23 24  1  0
 24 25  2  0
 25 26  1  0
 26 27  2  0
 27 28  1  0
 28 29  2  0
 29 30  1  0
 30 13  1  0
 19 14  1  0
 30 22  2  0
 29 24  1  0
  1 31  1  0
  1 32  1  0
  1 33  1  0
  2 34  1  0
  2 35  1  0
  4 36  1  0
  4 37  1  0
  5 38  1  0
  5 39  1  0
  5 40  1  0
  6 41  1  0
  6 42  1  0
  7 43  1  0
  7 44  1  0
  9 45  1  0
  9 46  1  0
 10 47  1  0
 10 48  1  0
 11 49  1  0
 11 50  1  0
 12 51  1  0
 12 52  1  0
 15 53  1  0
 16 54  1  0
 17 55  1  0
 18 56  1  0
 21 57  1  0
 21 58  1  0
 21 59  1  0
 23 60  1  0
 25 61  1  0
 26 62  1  0
 27 63  1  0
 28 64  1  0
M  CHG  2  12   1  20   1
M  END
>  <UniqueID>  (17) 
17

>  <SMILES>  (17) 
CCN(CC)CCOCCC[NH2+]c1c2ccccc2[n+](C)c2[nH]c3ccccc3c12

>  <Energy>  (17) 
124.53133049639293

>  <Genealogy>  (17) 
CCN(CC)CCOCCC[NH2+]c1c2ccccc2[n+](C)c2[nH]c3ccccc3c12 (protonated)
CCN(CC)CCOCCC[NH2+]c1c2ccccc2[n+](C)c2[nH]c3ccccc3c12 (3D coordinates assigned)
CCN(CC)CCOCCC[NH2+]c1c2ccccc2[n+](C)c2[nH]c3ccccc3c12 (optimized conformer: 124.53133049639293 kcal/mol)

>  <smiles>  (17) 
CCN(CC)CCOCCCNc1c2ccccc2[n+](C)c2[nH]c3ccccc3c12

>  <score_type>  (17) 
oracle

>  <origin>  (17) 
adg

>  <m_score__min__energy>  (17) 
-8.5

>  <m_primary>  (17) 
energy

$$$$
17:0
     RDKit          3D

 31 33  0  0  0  0  0  0  0  0999 V2000
   -9.1610   19.6490  -32.7130 C   0  0  0  0  0  0  0  0  0  0  0  0
   -8.0180   20.5460  -32.5230 N   0  0  0  0  0  0  0  0  0  0  0  0
   -6.7810   20.1970  -33.0160 C   0  0  0  0  0  0  0  0  0  0  0  0
   -5.6740   21.0460  -32.8580 C   0  0  0  0  0  0  0  0  0  0  0  0
   -5.8940   22.2420  -32.1900 C   0  0  0  0  0  0  0  0  0  0  0  0
   -4.9880   23.2030  -31.9340 N   0  0  0  0  0  0  0  0  0  0  0  0
   -5.7530   24.1120  -31.2730 C   0  0  0  0  0  0  0  0  0  0  0  0
   -5.2330   25.4300  -30.8040 C   0  0  0  0  0  0  0  0  0  0  0  0
   -3.8690   25.2840  -30.4200 O   0  0  0  0  0  0  0  0  0  0  0  0
   -3.4210   24.4490  -29.3870 C   0  0  0  0  0  0  0  0  0  0  0  0
   -4.2090   23.4000  -28.8690 C   0  0  0  0  0  0  0  0  0  0  0  0
   -3.7170   22.5940  -27.8380 C   0  0  0  0  0  0  0  0  0  0  0  0
   -2.4430   22.8230  -27.3150 C   0  0  0  0  0  0  0  0  0  0  0  0
   -1.6560   23.8610  -27.8230 C   0  0  0  0  0  0  0  0  0  0  0  0
   -2.1430   24.6700  -28.8540 C   0  0  0  0  0  0  0  0  0  0  0  0
   -1.3710   25.6740  -29.3390 F   0  0  0  0  0  0  0  0  0  0  0  0
   -7.0490   23.7400  -31.1490 N   0  0  0  0  0  0  0  0  0  0  0  0
   -7.1030   22.5570  -31.7280 N   0  0  0  0  0  0  0  0  0  0  0  0
   -8.1810   21.7480  -31.8760 C   0  0  0  0  0  0  0  0  0  0  0  0
   -9.3060   22.1000  -31.4260 O   0  0  0  0  0  0  0  0  0  0  0  0
   -9.5528   19.3415  -31.7322 H   0  0  0  0  0  0  0  0  0  0  0  0
   -9.9486   20.1726  -33.2747 H   0  0  0  0  0  0  0  0  0  0  0  0
   -8.8396   18.7595  -33.2747 H   0  0  0  0  0  0  0  0  0  0  0  0
   -6.6580   19.2386  -33.5416 H   0  0  0  0  0  0  0  0  0  0  0  0
   -4.6804   20.7760  -33.2451 H   0  0  0  0  0  0  0  0  0  0  0  0
   -5.3097   26.1666  -31.6173 H   0  0  0  0  0  0  0  0  0  0  0  0
   -5.8247   25.7766  -29.9439 H   0  0  0  0  0  0  0  0  0  0  0  0
   -5.2136   23.2156  -29.2774 H   0  0  0  0  0  0  0  0  0  0  0  0
   -4.3355   21.7771  -27.4378 H   0  0  0  0  0  0  0  0  0  0  0  0
   -2.0586   22.1872  -26.5038 H   0  0  0  0  0  0  0  0  0  0  0  0
   -0.6522   24.0414  -27.4109 H   0  0  0  0  0  0  0  0  0  0  0  0
  1  2  1  0
  2  3  1  0
  3  4  2  0
  4  5  1  0
  5  6  2  0
  6  7  1  0
  7  8  1  0
  8  9  1  0
  9 10  1  0
 10 11  2  0
 11 12  1  0
 12 13  2  0
 13 14  1  0
 14 15  2  0
 15 16  1  0
  7 17  2  0
 17 18  1  0
 18 19  1  0
 19 20  2  0
 19  2  1  0
 18  5  1  0
 15 10  1  0
  1 21  1  0
  1 22  1  0
  1 23  1  0
  3 24  1  0
  4 25  1  0
  8 26  1  0
  8 27  1  0
 11 28  1  0
 12 29  1  0
 13 30  1  0
 14 31  1  0
M  END
>  <UniqueID>  (18) 
18

>  <SMILES>  (18) 
Cn1ccc2nc(COc3ccccc3F)nn2c1=O

>  <Energy>  (18) 
72.58385491432244

>  <Genealogy>  (18) 
Cn1ccc2nc(COc3ccccc3F)nn2c1=O (3D coordinates assigned)
Cn1ccc2nc(COc3ccccc3F)nn2c1=O (optimized conformer: 72.58385491432244 kcal/mol)

>  <smiles>  (18) 
Cn1ccc2nc(COc3ccccc3F)nn2c1=O

>  <score_type>  (18) 
oracle

>  <origin>  (18) 
adg

>  <m_score__min__energy>  (18) 
-7.8399999999999999

>  <m_primary>  (18) 
energy

$$$$
18:0
     RDKit          3D

 41 43  0  0  0  0  0  0  0  0999 V2000
   -5.9570   25.1640  -30.2180 C   0  0  0  0  0  0  0  0  0  0  0  0
   -6.4090   24.1190  -30.9190 C   0  0  0  0  0  0  0  0  0  0  0  0
   -5.5110   22.9680  -31.2870 C   0  0  0  0  0  0  0  0  0  0  0  0
   -5.6120   22.6090  -32.7180 N   0  0  0  0  0  0  0  0  0  0  0  0
   -5.5860   21.1620  -32.9140 C   0  0  0  0  0  0  0  0  0  0  0  0
   -6.7630   20.3940  -32.6830 C   0  0  0  0  0  0  0  0  0  0  0  0
   -6.6940   18.9760  -32.7310 C   0  0  0  0  0  0  0  0  0  0  0  0
   -5.5450   18.3490  -33.1650 N   0  0  0  0  0  0  0  0  0  0  0  0
   -5.5620   16.8960  -33.4580 C   0  0  0  0  0  0  0  0  0  0  0  0
   -4.3720   19.0610  -33.3160 C   0  0  0  0  0  0  0  0  0  0  0  0
   -3.1360   18.3980  -33.5400 C   0  0  0  0  0  0  0  0  0  0  0  0
   -1.9570   19.1100  -33.7330 C   0  0  0  0  0  0  0  0  0  0  0  0
   -1.9720   20.4940  -33.7030 C   0  0  0  0  0  0  0  0  0  0  0  0
   -3.1580   21.1760  -33.4500 C   0  0  0  0  0  0  0  0  0  0  0  0
   -4.3740   20.4820  -33.2240 C   0  0  0  0  0  0  0  0  0  0  0  0
   -7.9070   18.1450  -32.3230 C   0  0  0  0  0  0  0  0  0  0  0  0
   -8.9040   18.9130  -31.4670 C   0  0  0  0  0  0  0  0  0  0  0  0
   -9.2910   20.1870  -32.1910 C   0  0  0  0  0  0  0  0  0  0  0  0
   -8.0760   21.1020  -32.3410 C   0  0  0  0  0  0  0  0  0  0  0  0
   -6.6364   25.9909  -29.9635 H   0  0  0  0  0  0  0  0  0  0  0  0
   -4.9058   25.1968  -29.8957 H   0  0  0  0  0  0  0  0  0  0  0  0
   -7.4626   24.0998  -31.2345 H   0  0  0  0  0  0  0  0  0  0  0  0
   -4.4703   23.2471  -31.0655 H   0  0  0  0  0  0  0  0  0  0  0  0
   -5.8280   22.0941  -30.6989 H   0  0  0  0  0  0  0  0  0  0  0  0
   -4.8940   23.1040  -33.2890 H   0  0  0  0  0  0  0  0  0  0  0  0
   -6.4960   23.0130  -33.0910 H   0  0  0  0  0  0  0  0  0  0  0  0
   -5.5686   16.3316  -32.5138 H   0  0  0  0  0  0  0  0  0  0  0  0
   -6.4631   16.6496  -34.0388 H   0  0  0  0  0  0  0  0  0  0  0  0
   -4.6669   16.6286  -34.0388 H   0  0  0  0  0  0  0  0  0  0  0  0
   -3.1108   17.2985  -33.5613 H   0  0  0  0  0  0  0  0  0  0  0  0
   -1.0129   18.5737  -33.9094 H   0  0  0  0  0  0  0  0  0  0  0  0
   -1.0432   21.0563  -33.8798 H   0  0  0  0  0  0  0  0  0  0  0  0
   -3.1524   22.2757  -33.4248 H   0  0  0  0  0  0  0  0  0  0  0  0
   -8.4195   17.8046  -33.2349 H   0  0  0  0  0  0  0  0  0  0  0  0
   -7.5369   17.3051  -31.7167 H   0  0  0  0  0  0  0  0  0  0  0  0
   -9.7995   18.2964  -31.2997 H   0  0  0  0  0  0  0  0  0  0  0  0
   -8.4506   19.1587  -30.4954 H   0  0  0  0  0  0  0  0  0  0  0  0
   -9.6799   19.9338  -33.1883 H   0  0  0  0  0  0  0  0  0  0  0  0
  -10.0628   20.7100  -31.6072 H   0  0  0  0  0  0  0  0  0  0  0  0
   -8.2913   21.8244  -33.1421 H   0  0  0  0  0  0  0  0  0  0  0  0
   -7.9229   21.5685  -31.3567 H   0  0  0  0  0  0  0  0  0  0  0  0
  1  2  2  0
  2  3  1  0
  3  4  1  0
  4  5  1  0
  5  6  2  0
  6  7  1  0
  7  8  2  0
  8  9  1  0
  8 10  1  0
 10 11  2  0
 11 12  1  0
 12 13  2  0
 13 14  1  0
 14 15  2  0
  7 16  1  0
 16 17  1  0
 17 18  1  0
 18 19  1  0
 15  5  1  0
 19  6  1  0
 15 10  1  0
  1 20  1  0
  1 21  1  0
  2 22  1  0
  3 23  1  0
  3 24  1  0
  4 25  1  0
  4 26  1  0
  9 27  1  0
  9 28  1  0
  9 29  1  0
 11 30  1  0
 12 31  1  0
 13 32  1  0
 14 33  1  0
 16 34  1  0
 16 35  1  0
 17 36  1  0
 17 37  1  0
 18 38  1  0
 18 39  1  0
 19 40  1  0
 19 41  1  0
M  CHG  2   4   1   8   1
M  END
>  <UniqueID>  (19) 
19

>  <SMILES>  (19) 
C=CC[NH2+]c1c2c([n+](C)c3ccccc13)CCCC2

>  <Energy>  (19) 
64.2583736172193

>  <Genealogy>  (19) 
C=CC[NH2+]c1c2c([n+](C)c3ccccc13)CCCC2 (protonated)
C=CC[NH2+]c1c2c([n+](C)c3ccccc13)CCCC2 (3D coordinates assigned)
C=CC[NH2+]c1c2c([n+](C)c3ccccc13)CCCC2 (nonaromatic ring conformer: 64.2583736172193 kcal/mol)

>  <smiles>  (19) 
C=CCNc1c2c([n+](C)c3ccccc13)CCCC2

>  <score_type>  (19) 
oracle

>  <origin>  (19) 
adg

>  <m_score__min__energy>  (19) 
-6.9500000000000002

>  <m_primary>  (19) 
energy

$$$$
19:0
     RDKit          3D

 69 71  0  0  0  0  0  0  0  0999 V2000
   -0.8400   25.2960  -26.6530 C   0  0  0  0  0  0  0  0  0  0  0  0
   -1.1490   26.0000  -27.9770 C   0  0  0  0  0  0  0  0  0  0  0  0
   -1.5160   25.0540  -29.0430 N   0  0  0  0  0  0  0  0  0  0  0  0
   -0.5240   23.9770  -29.2450 C   0  0  0  0  0  0  0  0  0  0  0  0
   -1.1470   22.7080  -29.8400 C   0  0  0  0  0  0  0  0  0  0  0  0
   -2.5560   22.8090  -29.7950 O   0  0  0  0  0  0  0  0  0  0  0  0
   -3.1020   21.6320  -29.2370 C   0  0  0  0  0  0  0  0  0  0  0  0
   -3.6100   21.9320  -27.8270 C   0  0  0  0  0  0  0  0  0  0  0  0
   -3.1250   23.2480  -27.3810 N   0  0  0  0  0  0  0  0  0  0  0  0
   -4.1640   24.2900  -27.4500 C   0  0  0  0  0  0  0  0  0  0  0  0
   -4.9810   24.2070  -28.7550 C   0  0  0  0  0  0  0  0  0  0  0  0
   -4.3900   24.9100  -29.8380 O   0  0  0  0  0  0  0  0  0  0  0  0
   -5.3220   25.3020  -30.8320 C   0  0  0  0  0  0  0  0  0  0  0  0
   -5.8490   24.1540  -31.7110 C   0  0  0  0  0  0  0  0  0  0  0  0
   -5.1740   22.8770  -31.4370 N   0  0  0  0  0  0  0  0  0  0  0  0
   -5.4420   21.6610  -32.1730 C   0  0  0  0  0  0  0  0  0  0  0  0
   -4.3740   20.9550  -32.7650 C   0  0  0  0  0  0  0  0  0  0  0  0
   -4.6060   19.6560  -33.2960 C   0  0  0  0  0  0  0  0  0  0  0  0
   -5.8930   19.1470  -33.3560 N   0  0  0  0  0  0  0  0  0  0  0  0
   -6.1590   17.8650  -34.0480 C   0  0  0  0  0  0  0  0  0  0  0  0
   -6.9480   19.8380  -32.7830 C   0  0  0  0  0  0  0  0  0  0  0  0
   -8.2520   19.2810  -32.7030 C   0  0  0  0  0  0  0  0  0  0  0  0
   -9.3270   20.0310  -32.2250 C   0  0  0  0  0  0  0  0  0  0  0  0
   -9.1400   21.3510  -31.8400 C   0  0  0  0  0  0  0  0  0  0  0  0
   -7.8660   21.9080  -31.8670 C   0  0  0  0  0  0  0  0  0  0  0  0
   -6.7460   21.1410  -32.2570 C   0  0  0  0  0  0  0  0  0  0  0  0
   -3.4290   18.8460  -33.8420 C   0  0  0  0  0  0  0  0  0  0  0  0
   -2.0630   19.3480  -33.3830 C   0  0  0  0  0  0  0  0  0  0  0  0
   -1.9630   20.8440  -33.6230 C   0  0  0  0  0  0  0  0  0  0  0  0
   -2.9810   21.5770  -32.7540 C   0  0  0  0  0  0  0  0  0  0  0  0
   -1.1265   25.9486  -25.8151 H   0  0  0  0  0  0  0  0  0  0  0  0
   -1.4082   24.3558  -26.5963 H   0  0  0  0  0  0  0  0  0  0  0  0
    0.2366   25.0778  -26.5963 H   0  0  0  0  0  0  0  0  0  0  0  0
   -1.9854   26.6969  -27.8198 H   0  0  0  0  0  0  0  0  0  0  0  0
   -0.2387   26.5285  -28.2963 H   0  0  0  0  0  0  0  0  0  0  0  0
   -2.4790   24.6790  -28.8670 H   0  0  0  0  0  0  0  0  0  0  0  0
    0.2569   24.3406  -29.9290 H   0  0  0  0  0  0  0  0  0  0  0  0
   -0.1096   23.7155  -28.2602 H   0  0  0  0  0  0  0  0  0  0  0  0
   -0.8207   22.5944  -30.8843 H   0  0  0  0  0  0  0  0  0  0  0  0
   -0.8234   21.8329  -29.2574 H   0  0  0  0  0  0  0  0  0  0  0  0
   -3.9368   21.2817  -29.8619 H   0  0  0  0  0  0  0  0  0  0  0  0
   -2.3284   20.8513  -29.1924 H   0  0  0  0  0  0  0  0  0  0  0  0
   -4.7100   21.9319  -27.8295 H   0  0  0  0  0  0  0  0  0  0  0  0
   -3.2358   21.1596  -27.1389 H   0  0  0  0  0  0  0  0  0  0  0  0
   -2.2990   23.5270  -27.9620 H   0  0  0  0  0  0  0  0  0  0  0  0
   -4.8462   24.1681  -26.5958 H   0  0  0  0  0  0  0  0  0  0  0  0
   -3.6643   25.2696  -27.4242 H   0  0  0  0  0  0  0  0  0  0  0  0
   -5.0782   23.1486  -29.0384 H   0  0  0  0  0  0  0  0  0  0  0  0
   -5.9558   24.6767  -28.5573 H   0  0  0  0  0  0  0  0  0  0  0  0
   -6.1812   25.7706  -30.3298 H   0  0  0  0  0  0  0  0  0  0  0  0
   -4.7865   25.9871  -31.5057 H   0  0  0  0  0  0  0  0  0  0  0  0
   -6.9257   24.0311  -31.5220 H   0  0  0  0  0  0  0  0  0  0  0  0
   -5.6490   24.4184  -32.7599 H   0  0  0  0  0  0  0  0  0  0  0  0
   -4.5770   22.8320  -30.5810 H   0  0  0  0  0  0  0  0  0  0  0  0
   -6.3233   17.0731  -33.3024 H   0  0  0  0  0  0  0  0  0  0  0  0
   -7.0550   17.9673  -34.6778 H   0  0  0  0  0  0  0  0  0  0  0  0
   -5.2962   17.6024  -34.6778 H   0  0  0  0  0  0  0  0  0  0  0  0
   -8.4171   18.2416  -33.0230 H   0  0  0  0  0  0  0  0  0  0  0  0
  -10.3253   19.5748  -32.1531 H   0  0  0  0  0  0  0  0  0  0  0  0
   -9.9986   21.9562  -31.5138 H   0  0  0  0  0  0  0  0  0  0  0  0
   -7.7286   22.9611  -31.5805 H   0  0  0  0  0  0  0  0  0  0  0  0
   -3.5435   17.8034  -33.5106 H   0  0  0  0  0  0  0  0  0  0  0  0
   -3.4537   18.9480  -34.9370 H   0  0  0  0  0  0  0  0  0  0  0  0
   -1.9382   19.1402  -32.3100 H   0  0  0  0  0  0  0  0  0  0  0  0
   -1.2747   18.8333  -33.9519 H   0  0  0  0  0  0  0  0  0  0  0  0
   -0.9499   21.1878  -33.3672 H   0  0  0  0  0  0  0  0  0  0  0  0
   -2.1705   21.0562  -34.6822 H   0  0  0  0  0  0  0  0  0  0  0  0
   -2.6122   21.5793  -31.7177 H   0  0  0  0  0  0  0  0  0  0  0  0
   -3.0831   22.5895  -33.1716 H   0  0  0  0  0  0  0  0  0  0  0  0
  1  2  1  0
  2  3  1  0
  3  4  1  0
  4  5  1  0
  5  6  1  0
  6  7  1  0
  7  8  1  0
  8  9  1  0
  9 10  1  0
 10 11  1  0
 11 12  1  0
 12 13  1  0
 13 14  1  0
 14 15  1  0
 15 16  1  0
 16 17  2  0
 17 18  1  0
 18 19  2  0
 19 20  1  0
 19 21  1  0
 21 22  2  0
 22 23  1  0
 23 24  2  0
 24 25  1  0
 25 26  2  0
 18 27  1  0
 27 28  1  0
 28 29  1  0
 29 30  1  0
 26 16  1  0
 30 17  1  0
 26 21  1  0
  1 31  1  0
  1 32  1  0
  1 33  1  0
  2 34  1  0
  2 35  1  0
  3 36  1  0
  4 37  1  0
  4 38  1  0
  5 39  1  0
  5 40  1  0
  7 41  1  0
  7 42  1  0
  8 43  1  0
  8 44  1  0
  9 45  1  0
 10 46  1  0
 10 47  1  0
 11 48  1  0
 11 49  1  0
 13 50  1  0
 13 51  1  0
 14 52  1  0
 14 53  1  0
 15 54  1  0
 20 55  1  0
 20 56  1  0
 20 57  1  0
 22 58  1  0
 23 59  1  0
 24 60  1  0
 25 61  1  0
 27 62  1  0
 27 63  1  0
 28 64  1  0
 28 65  1  0
 29 66  1  0
 29 67  1  0
 30 68  1  0
 30 69  1  0
M  CHG  1  19   1
M  END
>  <UniqueID>  (20) 
20

>  <SMILES>  (20) 
CCNCCOCCNCCOCCNc1c2c([n+](C)c3ccccc13)CCCC2

>  <Energy>  (20) 
94.3363006001378

>  <Genealogy>  (20) 
CCNCCOCCNCCOCCNc1c2c([n+](C)c3ccccc13)CCCC2 (3D coordinates assigned)
CCNCCOCCNCCOCCNc1c2c([n+](C)c3ccccc13)CCCC2 (nonaromatic ring conformer: 94.3363006001378 kcal/mol)

>  <smiles>  (20) 
CCNCCOCCNCCOCCNc1c2c([n+](C)c3ccccc13)CCCC2

>  <score_type>  (20) 
oracle

>  <origin>  (20) 
adg

>  <m_score__min__energy>  (20) 
-8.4499999999999993

>  <m_primary>  (20) 
energy

$$$$
20:0
     RDKit          3D

 55 57  0  0  0  0  0  0  0  0999 V2000
   -2.3240   25.6790  -25.9360 C   0  0  0  0  0  0  0  0  0  0  0  0
   -3.8060   25.3030  -25.9830 C   0  0  0  0  0  0  0  0  0  0  0  0
   -4.1460   24.6800  -27.2720 N   0  0  0  0  0  0  0  0  0  0  0  0
   -3.0740   23.7990  -27.7750 C   0  0  0  0  0  0  0  0  0  0  0  0
   -2.5210   24.2310  -29.1470 C   0  0  0  0  0  0  0  0  0  0  0  0
   -3.5140   24.8840  -29.9150 O   0  0  0  0  0  0  0  0  0  0  0  0
   -4.6520   24.0600  -30.0710 C   0  0  0  0  0  0  0  0  0  0  0  0
   -5.7280   24.8280  -30.8390 C   0  0  0  0  0  0  0  0  0  0  0  0
   -6.8020   23.8830  -31.3970 C   0  0  0  0  0  0  0  0  0  0  0  0
   -6.3000   23.1360  -32.5500 N   0  0  0  0  0  0  0  0  0  0  0  0
   -6.0630   21.7160  -32.5330 C   0  0  0  0  0  0  0  0  0  0  0  0
   -4.7740   21.1980  -32.7040 C   0  0  0  0  0  0  0  0  0  0  0  0
   -4.5610   19.8430  -32.7670 C   0  0  0  0  0  0  0  0  0  0  0  0
   -5.5810   18.9350  -32.6270 N   0  0  0  0  0  0  0  0  0  0  0  0
   -5.2930   17.4880  -32.6610 C   0  0  0  0  0  0  0  0  0  0  0  0
   -6.8760   19.3990  -32.4700 C   0  0  0  0  0  0  0  0  0  0  0  0
   -7.9760   18.5100  -32.3690 C   0  0  0  0  0  0  0  0  0  0  0  0
   -9.2730   18.9900  -32.1910 C   0  0  0  0  0  0  0  0  0  0  0  0
   -9.5110   20.3580  -32.1090 C   0  0  0  0  0  0  0  0  0  0  0  0
   -8.4550   21.2610  -32.2190 C   0  0  0  0  0  0  0  0  0  0  0  0
   -7.1350   20.8040  -32.4150 C   0  0  0  0  0  0  0  0  0  0  0  0
   -3.1240   19.5330  -33.0250 C   0  0  0  0  0  0  0  0  0  0  0  0
   -2.4840   20.9010  -33.2970 C   0  0  0  0  0  0  0  0  0  0  0  0
   -3.5090   21.9620  -32.8790 C   0  0  0  0  0  0  0  0  0  0  0  0
   -1.9997   25.7613  -24.8881 H   0  0  0  0  0  0  0  0  0  0  0  0
   -1.7324   24.9025  -26.4430 H   0  0  0  0  0  0  0  0  0  0  0  0
   -2.1742   26.6436  -26.4430 H   0  0  0  0  0  0  0  0  0  0  0  0
   -4.0241   24.5938  -25.1709 H   0  0  0  0  0  0  0  0  0  0  0  0
   -4.4059   26.2173  -25.8640 H   0  0  0  0  0  0  0  0  0  0  0  0
   -4.3720   25.4190  -27.9790 H   0  0  0  0  0  0  0  0  0  0  0  0
   -5.0020   24.0900  -27.1410 H   0  0  0  0  0  0  0  0  0  0  0  0
   -2.2481   23.8048  -27.0485 H   0  0  0  0  0  0  0  0  0  0  0  0
   -3.5094   22.7967  -27.9010 H   0  0  0  0  0  0  0  0  0  0  0  0
   -1.6762   24.9185  -28.9933 H   0  0  0  0  0  0  0  0  0  0  0  0
   -2.1947   23.3320  -29.6904 H   0  0  0  0  0  0  0  0  0  0  0  0
   -4.3763   23.1542  -30.6309 H   0  0  0  0  0  0  0  0  0  0  0  0
   -5.0383   23.7726  -29.0820 H   0  0  0  0  0  0  0  0  0  0  0  0
   -6.2049   25.5505  -30.1604 H   0  0  0  0  0  0  0  0  0  0  0  0
   -5.2482   25.3433  -31.6841 H   0  0  0  0  0  0  0  0  0  0  0  0
   -7.0992   23.1732  -30.6110 H   0  0  0  0  0  0  0  0  0  0  0  0
   -7.6635   24.4859  -31.7200 H   0  0  0  0  0  0  0  0  0  0  0  0
   -6.2340   23.6390  -33.4640 H   0  0  0  0  0  0  0  0  0  0  0  0
   -5.2168   17.1051  -31.6326 H   0  0  0  0  0  0  0  0  0  0  0  0
   -6.1046   16.9649  -33.1879 H   0  0  0  0  0  0  0  0  0  0  0  0
   -4.3429   17.3155  -33.1879 H   0  0  0  0  0  0  0  0  0  0  0  0
   -7.8036   17.4254  -32.4320 H   0  0  0  0  0  0  0  0  0  0  0  0
  -10.1124   18.2831  -32.1150 H   0  0  0  0  0  0  0  0  0  0  0  0
  -10.5356   20.7282  -31.9569 H   0  0  0  0  0  0  0  0  0  0  0  0
   -8.6530   22.3410  -32.1523 H   0  0  0  0  0  0  0  0  0  0  0  0
   -2.6646   19.0555  -32.1469 H   0  0  0  0  0  0  0  0  0  0  0  0
   -2.9889   18.8319  -33.8618 H   0  0  0  0  0  0  0  0  0  0  0  0
   -1.5624   21.0118  -32.7067 H   0  0  0  0  0  0  0  0  0  0  0  0
   -2.2173   21.0073  -34.3589 H   0  0  0  0  0  0  0  0  0  0  0  0
   -3.2101   22.4431  -31.9360 H   0  0  0  0  0  0  0  0  0  0  0  0
   -3.6039   22.7708  -33.6185 H   0  0  0  0  0  0  0  0  0  0  0  0
  1  2  1  0
  2  3  1  0
  3  4  1  0
  4  5  1  0
  5  6  1  0
  6  7  1  0
  7  8  1  0
  8  9  1  0
  9 10  1  0
 10 11  1  0
 11 12  2  0
 12 13  1  0
 13 14  2  0
 14 15  1  0
 14 16  1  0
 16 17  2  0
 17 18  1  0
 18 19  2  0
 19 20  1  0
 20 21  2  0
 13 22  1  0
 22 23  1  0
 23 24  1  0
 21 11  1  0
 24 12  1  0
 21 16  1  0
  1 25  1  0
  1 26  1  0
  1 27  1  0
  2 28  1  0
  2 29  1  0
  3 30  1  0
  3 31  1  0
  4 32  1  0
  4 33  1  0
  5 34  1  0
  5 35  1  0
  7 36  1  0
  7 37  1  0
  8 38  1  0
  8 39  1  0
  9 40  1  0
  9 41  1  0
 10 42  1  0
 15 43  1  0
 15 44  1  0
 15 45  1  0
 17 46  1  0
 18 47  1  0
 19 48  1  0
 20 49  1  0
 22 50  1  0
 22 51  1  0
 23 52  1  0
 23 53  1  0
 24 54  1  0
 24 55  1  0
M  CHG  2   3   1  14   1
M  END
>  <UniqueID>  (21) 
21

>  <SMILES>  (21) 
CC[NH2+]CCOCCCNc1c2c([n+](C)c3ccccc13)CCC2

>  <Energy>  (21) 
70.38475215980213

>  <Genealogy>  (21) 
CC[NH2+]CCOCCCNc1c2c([n+](C)c3ccccc13)CCC2 (protonated)
CC[NH2+]CCOCCCNc1c2c([n+](C)c3ccccc13)CCC2 (3D coordinates assigned)
CC[NH2+]CCOCCCNc1c2c([n+](C)c3ccccc13)CCC2 (nonaromatic ring conformer: 70.38475215980213 kcal/mol)

>  <smiles>  (21) 
CCNCCOCCCNc1c2c([n+](C)c3ccccc13)CCC2

>  <score_type>  (21) 
oracle

>  <origin>  (21) 
adg

>  <m_score__min__energy>  (21) 
-8.5899999999999999

>  <m_primary>  (21) 
energy

$$$$
21:0
     RDKit          3D

 50 52  0  0  0  0  0  0  0  0999 V2000
   -2.3740   19.6490  -26.6970 C   0  0  0  0  0  0  0  0  0  0  0  0
   -2.5940   20.2440  -28.0930 C   0  0  0  0  0  0  0  0  0  0  0  0
   -2.5290   21.7290  -28.1170 N   0  0  0  0  0  0  0  0  0  0  0  0
   -3.8610   22.3510  -27.8710 C   0  0  0  0  0  0  0  0  0  0  0  0
   -3.7850   23.8250  -27.4540 C   0  0  0  0  0  0  0  0  0  0  0  0
   -1.8510   22.1920  -29.3620 C   0  0  0  0  0  0  0  0  0  0  0  0
   -2.2820   21.4490  -30.6570 C   0  0  0  0  0  0  0  0  0  0  0  0
   -3.0390   22.3170  -31.5670 N   0  0  0  0  0  0  0  0  0  0  0  0
   -4.4710   22.2630  -31.6810 C   0  0  0  0  0  0  0  0  0  0  0  0
   -5.2510   23.2900  -31.1530 C   0  0  0  0  0  0  0  0  0  0  0  0
   -6.6200   23.2130  -31.1230 C   0  0  0  0  0  0  0  0  0  0  0  0
   -7.2940   22.1370  -31.6420 N   0  0  0  0  0  0  0  0  0  0  0  0
   -8.7660   22.0780  -31.5690 C   0  0  0  0  0  0  0  0  0  0  0  0
   -6.5720   21.1310  -32.2670 C   0  0  0  0  0  0  0  0  0  0  0  0
   -7.2170   20.0390  -32.8990 C   0  0  0  0  0  0  0  0  0  0  0  0
   -6.4820   19.0580  -33.5650 C   0  0  0  0  0  0  0  0  0  0  0  0
   -5.0960   19.1480  -33.6390 C   0  0  0  0  0  0  0  0  0  0  0  0
   -4.4290   20.2090  -33.0300 C   0  0  0  0  0  0  0  0  0  0  0  0
   -5.1410   21.1880  -32.3100 C   0  0  0  0  0  0  0  0  0  0  0  0
   -7.2240   24.4240  -30.4610 C   0  0  0  0  0  0  0  0  0  0  0  0
   -6.0210   25.3110  -30.0760 C   0  0  0  0  0  0  0  0  0  0  0  0
   -4.8400   24.5440  -30.5550 C   0  0  0  0  0  0  0  0  0  0  0  0
   -3.6550   24.9630  -30.4920 O   0  0  0  0  0  0  0  0  0  0  0  0
   -2.6488   20.3923  -25.9341 H   0  0  0  0  0  0  0  0  0  0  0  0
   -3.0001   18.7525  -26.5777 H   0  0  0  0  0  0  0  0  0  0  0  0
   -1.3153   19.3754  -26.5777 H   0  0  0  0  0  0  0  0  0  0  0  0
   -1.8188   19.8498  -28.7665 H   0  0  0  0  0  0  0  0  0  0  0  0
   -3.6066   19.9573  -28.4131 H   0  0  0  0  0  0  0  0  0  0  0  0
   -1.9050   22.0190  -27.3260 H   0  0  0  0  0  0  0  0  0  0  0  0
   -4.4529   22.2816  -28.7956 H   0  0  0  0  0  0  0  0  0  0  0  0
   -4.3223   21.8037  -27.0357 H   0  0  0  0  0  0  0  0  0  0  0  0
   -3.7814   23.8958  -26.3563 H   0  0  0  0  0  0  0  0  0  0  0  0
   -2.8626   24.2719  -27.8533 H   0  0  0  0  0  0  0  0  0  0  0  0
   -4.6565   24.3644  -27.8533 H   0  0  0  0  0  0  0  0  0  0  0  0
   -2.0704   23.2619  -29.4929 H   0  0  0  0  0  0  0  0  0  0  0  0
   -0.7800   21.9804  -29.2269 H   0  0  0  0  0  0  0  0  0  0  0  0
   -1.3811   21.0906  -31.1765 H   0  0  0  0  0  0  0  0  0  0  0  0
   -2.9348   20.6129  -30.3659 H   0  0  0  0  0  0  0  0  0  0  0  0
   -2.5290   23.0920  -32.0460 H   0  0  0  0  0  0  0  0  0  0  0  0
   -9.0806   22.0654  -30.5150 H   0  0  0  0  0  0  0  0  0  0  0  0
   -9.1935   22.9597  -32.0688 H   0  0  0  0  0  0  0  0  0  0  0  0
   -9.1216   21.1649  -32.0688 H   0  0  0  0  0  0  0  0  0  0  0  0
   -8.3139   19.9637  -32.8639 H   0  0  0  0  0  0  0  0  0  0  0  0
   -7.0011   18.2091  -34.0339 H   0  0  0  0  0  0  0  0  0  0  0  0
   -4.5247   18.3792  -34.1799 H   0  0  0  0  0  0  0  0  0  0  0  0
   -3.3346   20.2828  -33.1124 H   0  0  0  0  0  0  0  0  0  0  0  0
   -7.8882   24.9550  -31.1588 H   0  0  0  0  0  0  0  0  0  0  0  0
   -7.8353   24.1551  -29.5870 H   0  0  0  0  0  0  0  0  0  0  0  0
   -6.0808   26.2892  -30.5756 H   0  0  0  0  0  0  0  0  0  0  0  0
   -5.9792   25.5225  -28.9973 H   0  0  0  0  0  0  0  0  0  0  0  0
  1  2  1  0
  2  3  1  0
  3  4  1  0
  4  5  1  0
  3  6  1  0
  6  7  1  0
  7  8  1  0
  8  9  1  0
  9 10  2  0
 10 11  1  0
 11 12  2  0
 12 13  1  0
 12 14  1  0
 14 15  2  0
 15 16  1  0
 16 17  2  0
 17 18  1  0
 18 19  2  0
 11 20  1  0
 20 21  1  0
 21 22  1  0
 22 23  2  0
 19  9  1  0
 22 10  1  0
 19 14  1  0
  1 24  1  0
  1 25  1  0
  1 26  1  0
  2 27  1  0
  2 28  1  0
  3 29  1  0
  4 30  1  0
  4 31  1  0
  5 32  1  0
  5 33  1  0
  5 34  1  0
  6 35  1  0
  6 36  1  0
  7 37  1  0
  7 38  1  0
  8 39  1  0
 13 40  1  0
 13 41  1  0
 13 42  1  0
 15 43  1  0
 16 44  1  0
 17 45  1  0
 18 46  1  0
 20 47  1  0
 20 48  1  0
 21 49  1  0
 21 50  1  0
M  CHG  2   3   1  12   1
M  END
>  <UniqueID>  (22) 
22

>  <SMILES>  (22) 
CC[NH+](CC)CCNc1c2c([n+](C)c3ccccc13)CCC2=O

>  <Energy>  (22) 
85.6762459807411

>  <Genealogy>  (22) 
CC[NH+](CC)CCNc1c2c([n+](C)c3ccccc13)CCC2=O (protonated)
CC[NH+](CC)CCNc1c2c([n+](C)c3ccccc13)CCC2=O (3D coordinates assigned)
CC[NH+](CC)CCNc1c2c([n+](C)c3ccccc13)CCC2=O (nonaromatic ring conformer: 85.6762459807411 kcal/mol)

>  <smiles>  (22) 
CCN(CC)CCNc1c2c([n+](C)c3ccccc13)CCC2=O

>  <score_type>  (22) 
oracle

>  <origin>  (22) 
adg

>  <m_score__min__energy>  (22) 
-7.0899999999999999

>  <m_primary>  (22) 
energy

$$$$
