0:0
     RDKit          3D

 55 59  0  0  0  0  0  0  0  0999 V2000
   -4.3580   22.1970  -32.5630 C   0  0  0  0  0  0  0  0  0  0  0  0
   -5.7510   21.8160  -32.3210 N   0  0  0  0  0  0  0  0  0  0  0  0
   -6.7790   22.6250  -31.9450 C   0  0  0  0  0  0  0  0  0  0  0  0
   -6.6530   24.0980  -31.6710 C   0  0  0  0  0  0  0  0  0  0  0  0
   -6.0760   24.3210  -30.3330 N   0  0  0  0  0  0  0  0  0  0  0  0
   -5.7060   23.0480  -29.6860 C   0  0  0  0  0  0  0  0  0  0  0  0
   -4.3810   23.2910  -28.9860 C   0  0  1  0  0  0  0  0  0  0  0  0
   -3.5460   22.0250  -28.7400 C   0  0  0  0  0  0  0  0  0  0  0  0
   -2.2430   22.0330  -29.4500 N   0  0  0  0  0  0  0  0  0  0  0  0
   -1.6770   20.7070  -29.7780 C   0  0  0  0  0  0  0  0  0  0  0  0
   -1.5340   20.5410  -31.2670 C   0  0  0  0  0  0  0  0  0  0  0  0
   -0.4470   21.1070  -31.9490 C   0  0  0  0  0  0  0  0  0  0  0  0
   -0.3250   20.9160  -33.3280 C   0  0  0  0  0  0  0  0  0  0  0  0
   -1.2520   20.1830  -34.0000 N   0  0  0  0  0  0  0  0  0  0  0  0
   -2.3130   19.6190  -33.3630 C   0  0  0  0  0  0  0  0  0  0  0  0
   -2.4720   19.7850  -31.9840 C   0  0  0  0  0  0  0  0  0  0  0  0
   -1.2580   22.9810  -28.8840 C   0  0  0  0  0  0  0  0  0  0  0  0
   -1.4390   24.4680  -29.3110 C   0  0  0  0  0  0  0  0  0  0  0  0
   -2.7430   25.0090  -29.1760 O   0  0  0  0  0  0  0  0  0  0  0  0
   -3.6960   24.2700  -29.9070 C   0  0  2  0  0  0  0  0  0  0  0  0
   -4.8470   25.1440  -30.3780 C   0  0  0  0  0  0  0  0  0  0  0  0
   -7.9660   21.9720  -31.8400 N   0  0  0  0  0  0  0  0  0  0  0  0
   -7.6530   20.7110  -32.1840 C   0  0  0  0  0  0  0  0  0  0  0  0
   -8.5120   19.6170  -32.2620 C   0  0  0  0  0  0  0  0  0  0  0  0
   -7.9690   18.3840  -32.6640 C   0  0  0  0  0  0  0  0  0  0  0  0
   -6.5960   18.2760  -32.9770 C   0  0  0  0  0  0  0  0  0  0  0  0
   -5.7530   19.4000  -32.8890 C   0  0  0  0  0  0  0  0  0  0  0  0
   -6.3240   20.6090  -32.4820 C   0  0  0  0  0  0  0  0  0  0  0  0
   -3.8439   22.3376  -31.6008 H   0  0  0  0  0  0  0  0  0  0  0  0
   -3.8549   21.4035  -33.1350 H   0  0  0  0  0  0  0  0  0  0  0  0
   -4.3288   23.1361  -33.1350 H   0  0  0  0  0  0  0  0  0  0  0  0
   -5.9989   24.5536  -32.4290 H   0  0  0  0  0  0  0  0  0  0  0  0
   -7.6520   24.5566  -31.7113 H   0  0  0  0  0  0  0  0  0  0  0  0
   -6.4742   22.7556  -28.9550 H   0  0  0  0  0  0  0  0  0  0  0  0
   -5.6240   22.2356  -30.4231 H   0  0  0  0  0  0  0  0  0  0  0  0
   -4.5212   23.6675  -27.9620 H   0  0  0  0  0  0  0  0  0  0  0  0
   -3.3546   21.9376  -27.6603 H   0  0  0  0  0  0  0  0  0  0  0  0
   -4.1235   21.1736  -29.1294 H   0  0  0  0  0  0  0  0  0  0  0  0
   -0.6873   20.6109  -29.3076 H   0  0  0  0  0  0  0  0  0  0  0  0
   -2.3574   19.9297  -29.4001 H   0  0  0  0  0  0  0  0  0  0  0  0
    0.3038   21.6968  -31.4026 H   0  0  0  0  0  0  0  0  0  0  0  0
    0.5227   21.3596  -33.8707 H   0  0  0  0  0  0  0  0  0  0  0  0
   -3.0472   19.0313  -33.9337 H   0  0  0  0  0  0  0  0  0  0  0  0
   -3.3266   19.3259  -31.4655 H   0  0  0  0  0  0  0  0  0  0  0  0
   -1.3310   22.9316  -27.7875 H   0  0  0  0  0  0  0  0  0  0  0  0
   -0.2786   22.6703  -29.2767 H   0  0  0  0  0  0  0  0  0  0  0  0
   -0.7588   25.0774  -28.6978 H   0  0  0  0  0  0  0  0  0  0  0  0
   -1.2238   24.4904  -30.3895 H   0  0  0  0  0  0  0  0  0  0  0  0
   -3.1491   23.8103  -30.7434 H   0  0  0  0  0  0  0  0  0  0  0  0
   -4.9534   26.0149  -29.7146 H   0  0  0  0  0  0  0  0  0  0  0  0
   -4.6630   25.5111  -31.3985 H   0  0  0  0  0  0  0  0  0  0  0  0
   -9.5799   19.7146  -32.0171 H   0  0  0  0  0  0  0  0  0  0  0  0
   -8.6173   17.4982  -32.7352 H   0  0  0  0  0  0  0  0  0  0  0  0
   -6.1824   17.3066  -33.2918 H   0  0  0  0  0  0  0  0  0  0  0  0
   -4.6825   19.3292  -33.1320 H   0  0  0  0  0  0  0  0  0  0  0  0
  1  2  1  0
  2  3  1  0
  3  4  1  0
  4  5  1  0
  5  6  1  0
  6  7  1  0
  7  8  1  0
  8  9  1  0
  9 10  1  0
 10 11  1  0
 11 12  2  0
 12 13  1  0
 13 14  2  0
 14 15  1  0
 15 16  2  0
  9 17  1  0
 17 18  1  0
 18 19  1  0
 19 20  1  0
 20 21  1  0
  3 22  2  0
 22 23  1  0
 23 24  2  0
 24 25  1  0
 25 26  2  0
 26 27  1  0
 27 28  2  0
 28  2  1  0
 21  5  1  0
 28 23  1  0
 20  7  1  0
 16 11  1  0
  1 29  1  0
  1 30  1  0
  1 31  1  0
  4 32  1  0
  4 33  1  0
  6 34  1  0
  6 35  1  0
  7 36  1  1
  8 37  1  0
  8 38  1  0
 10 39  1  0
 10 40  1  0
 12 41  1  0
 13 42  1  0
 15 43  1  0
 16 44  1  0
 17 45  1  0
 17 46  1  0
 18 47  1  0
 18 48  1  0
 20 49  1  6
 21 50  1  0
 21 51  1  0
 24 52  1  0
 25 53  1  0
 26 54  1  0
 27 55  1  0
M  END
>  <UniqueID>  (1) 
1

>  <SMILES>  (1) 
Cn1c(CN2C[C@H]3CN(Cc4ccncc4)CCO[C@@H]3C2)nc2ccccc21

>  <Energy>  (1) 
117.25031100902935

>  <Genealogy>  (1) 
Cn1c(CN2C[C@H]3CN(Cc4ccncc4)CCO[C@@H]3C2)nc2ccccc21 (chirality)
Cn1c(CN2C[C@H]3CN(Cc4ccncc4)CCO[C@@H]3C2)nc2ccccc21 (3D coordinates assigned)
Cn1c(CN2C[C@H]3CN(Cc4ccncc4)CCO[C@@H]3C2)nc2ccccc21 (nonaromatic ring conformer: 117.25031100902935 kcal/mol)

>  <smiles>  (1) 
Cn1c(CN2CC3CN(Cc4ccncc4)CCOC3C2)nc2ccccc21

>  <score_type>  (1) 
oracle

>  <origin>  (1) 
adg

>  <m_score__min__energy>  (1) 
-7.4199999999999999

>  <m_primary>  (1) 
energy

$$$$
1:0
     RDKit          3D

 38 40  0  0  0  0  0  0  0  0999 V2000
   -9.7810   21.9220  -31.2610 C   0  0  0  0  0  0  0  0  0  0  0  0
   -8.4160   21.5620  -30.6850 C   0  0  0  0  0  0  0  0  0  0  0  0
   -7.6020   20.8490  -31.6920 N   0  0  0  0  0  0  0  0  0  0  0  0
   -6.5740   21.4850  -32.3530 C   0  0  0  0  0  0  0  0  0  0  0  0
   -6.2330   23.2460  -32.1280 S   0  0  0  0  0  0  0  0  0  0  0  0
   -4.4220   23.0410  -31.9730 C   0  0  0  0  0  0  0  0  0  0  0  0
   -3.9930   23.0430  -30.5290 C   0  0  0  0  0  0  0  0  0  0  0  0
   -3.7890   24.2560  -29.8400 C   0  0  0  0  0  0  0  0  0  0  0  0
   -3.9340   25.4480  -30.4730 F   0  0  0  0  0  0  0  0  0  0  0  0
   -3.4450   24.2450  -28.4850 C   0  0  0  0  0  0  0  0  0  0  0  0
   -3.2970   23.0340  -27.8070 C   0  0  0  0  0  0  0  0  0  0  0  0
   -3.4940   21.8270  -28.4810 C   0  0  0  0  0  0  0  0  0  0  0  0
   -3.8420   21.8270  -29.8360 C   0  0  0  0  0  0  0  0  0  0  0  0
   -4.0470   20.6430  -30.4670 F   0  0  0  0  0  0  0  0  0  0  0  0
   -5.7770   20.7930  -33.2140 N   0  0  0  0  0  0  0  0  0  0  0  0
   -5.9820   19.4750  -33.4670 C   0  0  0  0  0  0  0  0  0  0  0  0
   -5.1590   18.7880  -34.3740 C   0  0  0  0  0  0  0  0  0  0  0  0
   -5.3750   17.4320  -34.6320 C   0  0  0  0  0  0  0  0  0  0  0  0
   -6.4110   16.7520  -33.9870 C   0  0  0  0  0  0  0  0  0  0  0  0
   -7.2360   17.4270  -33.0820 C   0  0  0  0  0  0  0  0  0  0  0  0
   -7.0270   18.7940  -32.8160 C   0  0  0  0  0  0  0  0  0  0  0  0
   -7.8260   19.5100  -31.9110 C   0  0  0  0  0  0  0  0  0  0  0  0
   -8.7530   18.9110  -31.2930 O   0  0  0  0  0  0  0  0  0  0  0  0
  -10.4881   22.1085  -30.4393 H   0  0  0  0  0  0  0  0  0  0  0  0
   -9.6908   22.8271  -31.8796 H   0  0  0  0  0  0  0  0  0  0  0  0
  -10.1489   21.0902  -31.8796 H   0  0  0  0  0  0  0  0  0  0  0  0
   -7.8952   22.4832  -30.3846 H   0  0  0  0  0  0  0  0  0  0  0  0
   -8.5589   20.9064  -29.8134 H   0  0  0  0  0  0  0  0  0  0  0  0
   -4.1288   22.0856  -32.4327 H   0  0  0  0  0  0  0  0  0  0  0  0
   -3.9321   23.8841  -32.4821 H   0  0  0  0  0  0  0  0  0  0  0  0
   -3.2904   25.1943  -27.9512 H   0  0  0  0  0  0  0  0  0  0  0  0
   -3.0250   23.0304  -26.7412 H   0  0  0  0  0  0  0  0  0  0  0  0
   -3.3752   20.8737  -27.9451 H   0  0  0  0  0  0  0  0  0  0  0  0
   -5.0010   21.2980  -33.6970 H   0  0  0  0  0  0  0  0  0  0  0  0
   -4.3414   19.3193  -34.8831 H   0  0  0  0  0  0  0  0  0  0  0  0
   -4.7282   16.8988  -35.3443 H   0  0  0  0  0  0  0  0  0  0  0  0
   -6.5780   15.6841  -34.1913 H   0  0  0  0  0  0  0  0  0  0  0  0
   -8.0509   16.8884  -32.5762 H   0  0  0  0  0  0  0  0  0  0  0  0
  1  2  1  0
  2  3  1  0
  3  4  1  0
  4  5  1  0
  5  6  1  0
  6  7  1  0
  7  8  2  0
  8  9  1  0
  8 10  1  0
 10 11  2  0
 11 12  1  0
 12 13  2  0
 13 14  1  0
  4 15  2  0
 15 16  1  0
 16 17  2  0
 17 18  1  0
 18 19  2  0
 19 20  1  0
 20 21  2  0
 21 22  1  0
 22 23  2  0
 22  3  1  0
 13  7  1  0
 21 16  1  0
  1 24  1  0
  1 25  1  0
  1 26  1  0
  2 27  1  0
  2 28  1  0
  6 29  1  0
  6 30  1  0
 10 31  1  0
 11 32  1  0
 12 33  1  0
 15 34  1  0
 17 35  1  0
 18 36  1  0
 19 37  1  0
 20 38  1  0
M  CHG  1  15   1
M  END
>  <UniqueID>  (2) 
2

>  <SMILES>  (2) 
CCn1c(SCc2c(F)cccc2F)[nH+]c2ccccc2c1=O

>  <Energy>  (2) 
41.568174203114204

>  <Genealogy>  (2) 
CCn1c(SCc2c(F)cccc2F)[nH+]c2ccccc2c1=O (protonated)
CCn1c(SCc2c(F)cccc2F)[nH+]c2ccccc2c1=O (3D coordinates assigned)
CCn1c(SCc2c(F)cccc2F)[nH+]c2ccccc2c1=O (optimized conformer: 41.568174203114204 kcal/mol)

>  <smiles>  (2) 
CCn1c(SCc2c(F)cccc2F)nc2ccccc2c1=O

>  <score_type>  (2) 
oracle

>  <origin>  (2) 
adg

>  <m_score__min__energy>  (2) 
-7.29

>  <m_primary>  (2) 
energy

$$$$
2:0
     RDKit          3D

 33 34  0  0  0  0  0  0  0  0999 V2000
   -3.1150   24.1900  -31.6080 H   0  0  0  0  0  0  0  0  0  0  0  0
   -3.5270   24.6090  -30.7460 N   0  0  0  0  0  0  0  0  0  0  0  0
   -4.7860   24.5240  -30.4500 C   0  0  0  0  0  0  0  0  0  0  0  0
   -5.7570   25.8580  -30.1510 S   0  0  0  0  0  0  0  0  0  0  0  0
   -7.1380   24.9270  -29.8970 C   0  0  0  0  0  0  0  0  0  0  0  0
   -8.1379   25.3121  -29.6481 H   0  0  0  0  0  0  0  0  0  0  0  0
   -6.7970   23.5880  -30.0560 C   0  0  0  0  0  0  0  0  0  0  0  0
   -7.5290   22.7740  -29.9480 H   0  0  0  0  0  0  0  0  0  0  0  0
   -5.4860   23.3610  -30.3560 N   0  0  0  0  0  0  0  0  0  0  0  0
   -4.9440   22.0160  -30.5860 C   0  0  0  0  0  0  0  0  0  0  0  0
   -3.9890   21.9163  -30.0494 H   0  0  0  0  0  0  0  0  0  0  0  0
   -5.6712   21.2771  -30.2182 H   0  0  0  0  0  0  0  0  0  0  0  0
   -4.7120   21.7720  -32.0550 C   0  0  0  0  0  0  0  0  0  0  0  0
   -4.1660   22.6730  -32.7500 O   0  0  0  0  0  0  0  0  0  0  0  0
   -5.1370   20.5460  -32.6890 N   0  0  0  0  0  0  0  0  0  0  0  0
   -6.4830   20.0650  -32.4670 C   0  0  0  0  0  0  0  0  0  0  0  0
   -6.7400   18.6960  -32.2600 C   0  0  0  0  0  0  0  0  0  0  0  0
   -5.9072   17.9774  -32.2628 H   0  0  0  0  0  0  0  0  0  0  0  0
   -8.0460   18.2440  -32.0510 C   0  0  0  0  0  0  0  0  0  0  0  0
   -8.2365   17.1725  -31.8908 H   0  0  0  0  0  0  0  0  0  0  0  0
   -9.1100   19.1490  -32.0450 C   0  0  0  0  0  0  0  0  0  0  0  0
  -10.1365   18.7909  -31.8774 H   0  0  0  0  0  0  0  0  0  0  0  0
   -8.8690   20.5090  -32.2520 C   0  0  0  0  0  0  0  0  0  0  0  0
   -9.7068   21.2218  -32.2499 H   0  0  0  0  0  0  0  0  0  0  0  0
   -7.5640   20.9660  -32.4620 C   0  0  0  0  0  0  0  0  0  0  0  0
   -7.3811   22.0384  -32.6246 H   0  0  0  0  0  0  0  0  0  0  0  0
   -4.1920   19.7610  -33.5010 C   0  0  0  0  0  0  0  0  0  0  0  0
   -4.4064   18.6903  -33.3684 H   0  0  0  0  0  0  0  0  0  0  0  0
   -4.3115   20.0493  -34.5558 H   0  0  0  0  0  0  0  0  0  0  0  0
   -2.7500   20.0380  -33.0800 C   0  0  0  0  0  0  0  0  0  0  0  0
   -2.6846   20.0506  -31.9820 H   0  0  0  0  0  0  0  0  0  0  0  0
   -2.0941   19.2494  -33.4774 H   0  0  0  0  0  0  0  0  0  0  0  0
   -2.4329   21.0135  -33.4774 H   0  0  0  0  0  0  0  0  0  0  0  0
  1  2  1  0
  2  3  2  0
  3  4  1  0
  4  5  1  0
  5  6  1  0
  5  7  2  0
  7  8  1  0
  7  9  1  0
  9 10  1  0
 10 11  1  0
 10 12  1  0
 10 13  1  0
 13 14  2  0
 13 15  1  0
 15 16  1  0
 16 17  2  0
 17 18  1  0
 17 19  1  0
 19 20  1  0
 19 21  2  0
 21 22  1  0
 21 23  1  0
 23 24  1  0
 23 25  2  0
 25 26  1  0
 15 27  1  0
 27 28  1  0
 27 29  1  0
 27 30  1  0
 30 31  1  0
 30 32  1  0
 30 33  1  0
  9  3  1  0
 25 16  1  0
M  END
>  <UniqueID>  (3) 
3

>  <SMILES>  (3) 
[H]/N=c1/sccn1CC(=O)N(CC)c1ccccc1

>  <Energy>  (3) 
67.70328773565755

>  <Genealogy>  (3) 
[H]/N=c1/sccn1CC(=O)N(CC)c1ccccc1 (cis-trans isomerization)
[H]/N=c1/sccn1CC(=O)N(CC)c1ccccc1 (3D coordinates assigned)
[H]/N=c1/sccn1CC(=O)N(CC)c1ccccc1 (optimized conformer: 67.70328773565755 kcal/mol)

>  <smiles>  (3) 
CCN(C(=O)Cn1ccsc1=N)c1ccccc1

>  <score_type>  (3) 
oracle

>  <origin>  (3) 
adg

>  <m_score__min__energy>  (3) 
-6.7699999999999996

>  <m_primary>  (3) 
energy

$$$$
3:0
     RDKit          3D

 57 60  0  0  0  0  0  0  0  0999 V2000
   -3.9610   24.5520  -26.9320 C   0  0  0  0  0  0  0  0  0  0  0  0
   -2.9510   24.5270  -28.0890 C   0  0  0  0  0  0  0  0  0  0  0  0
   -3.5670   24.5360  -29.4400 N   0  0  0  0  0  0  0  0  0  0  0  0
   -3.0890   23.4210  -30.2880 C   0  0  0  0  0  0  0  0  0  0  0  0
   -3.4310   22.0920  -29.6260 C   0  0  0  0  0  0  0  0  0  0  0  0
   -5.0440   24.6650  -29.4550 C   0  0  0  0  0  0  0  0  0  0  0  0
   -5.6070   24.8500  -30.8730 C   0  0  0  0  0  0  0  0  0  0  0  0
   -6.6090   23.7490  -31.2420 C   0  0  0  0  0  0  0  0  0  0  0  0
   -6.2280   23.0980  -32.4930 N   0  0  0  0  0  0  0  0  0  0  0  0
   -6.0330   21.6800  -32.5470 C   0  0  0  0  0  0  0  0  0  0  0  0
   -4.7710   21.1560  -32.8070 C   0  0  0  0  0  0  0  0  0  0  0  0
   -4.5810   19.7910  -32.9170 C   0  0  0  0  0  0  0  0  0  0  0  0
   -5.5870   18.8940  -32.6550 N   0  0  0  0  0  0  0  0  0  0  0  0
   -5.2730   17.4680  -32.4660 C   0  0  0  0  0  0  0  0  0  0  0  0
   -6.8780   19.3750  -32.5060 C   0  0  0  0  0  0  0  0  0  0  0  0
   -7.9950   18.5050  -32.4480 C   0  0  0  0  0  0  0  0  0  0  0  0
   -9.2840   19.0050  -32.2640 C   0  0  0  0  0  0  0  0  0  0  0  0
   -9.4980   20.3750  -32.1450 C   0  0  0  0  0  0  0  0  0  0  0  0
   -8.4270   21.2610  -32.2320 C   0  0  0  0  0  0  0  0  0  0  0  0
   -7.1170   20.7840  -32.4310 C   0  0  0  0  0  0  0  0  0  0  0  0
   -3.1930   19.5660  -33.3420 C   0  0  0  0  0  0  0  0  0  0  0  0
   -2.5340   18.4150  -33.8000 C   0  0  0  0  0  0  0  0  0  0  0  0
   -1.2020   18.5260  -34.2290 C   0  0  0  0  0  0  0  0  0  0  0  0
   -0.5590   19.7770  -34.2430 C   0  0  0  0  0  0  0  0  0  0  0  0
   -1.2510   20.9300  -33.8480 C   0  0  0  0  0  0  0  0  0  0  0  0
   -2.5710   20.8040  -33.4120 C   0  0  0  0  0  0  0  0  0  0  0  0
   -3.5040   21.9190  -33.0650 C   0  0  0  0  0  0  0  0  0  0  0  0
   -3.4212   24.5386  -25.9737 H   0  0  0  0  0  0  0  0  0  0  0  0
   -4.5703   25.4655  -26.9969 H   0  0  0  0  0  0  0  0  0  0  0  0
   -4.6148   23.6698  -26.9969 H   0  0  0  0  0  0  0  0  0  0  0  0
   -2.3036   25.4119  -28.0000 H   0  0  0  0  0  0  0  0  0  0  0  0
   -2.3971   23.5806  -28.0024 H   0  0  0  0  0  0  0  0  0  0  0  0
   -3.5759   23.4754  -31.2728 H   0  0  0  0  0  0  0  0  0  0  0  0
   -1.9986   23.4976  -30.4114 H   0  0  0  0  0  0  0  0  0  0  0  0
   -3.4010   22.2086  -28.5326 H   0  0  0  0  0  0  0  0  0  0  0  0
   -4.4393   21.7778  -29.9337 H   0  0  0  0  0  0  0  0  0  0  0  0
   -2.6996   21.3301  -29.9337 H   0  0  0  0  0  0  0  0  0  0  0  0
   -5.4815   23.7552  -29.0182 H   0  0  0  0  0  0  0  0  0  0  0  0
   -5.3060   25.5610  -28.8731 H   0  0  0  0  0  0  0  0  0  0  0  0
   -6.1137   25.8247  -30.9295 H   0  0  0  0  0  0  0  0  0  0  0  0
   -4.7672   24.7962  -31.5815 H   0  0  0  0  0  0  0  0  0  0  0  0
   -6.6327   22.9988  -30.4378 H   0  0  0  0  0  0  0  0  0  0  0  0
   -7.6019   24.2048  -31.3702 H   0  0  0  0  0  0  0  0  0  0  0  0
   -6.2640   23.6260  -33.3950 H   0  0  0  0  0  0  0  0  0  0  0  0
   -5.2234   17.2429  -31.3904 H   0  0  0  0  0  0  0  0  0  0  0  0
   -6.0576   16.8547  -32.9332 H   0  0  0  0  0  0  0  0  0  0  0  0
   -4.3034   17.2410  -32.9332 H   0  0  0  0  0  0  0  0  0  0  0  0
   -7.8434   17.4202  -32.5495 H   0  0  0  0  0  0  0  0  0  0  0  0
  -10.1368   18.3121  -32.2126 H   0  0  0  0  0  0  0  0  0  0  0  0
  -10.5158   20.7591  -31.9818 H   0  0  0  0  0  0  0  0  0  0  0  0
   -8.6059   22.3428  -32.1445 H   0  0  0  0  0  0  0  0  0  0  0  0
   -3.0512   17.4444  -33.8224 H   0  0  0  0  0  0  0  0  0  0  0  0
   -0.6572   17.6283  -34.5566 H   0  0  0  0  0  0  0  0  0  0  0  0
    0.4902   19.8506  -34.5650 H   0  0  0  0  0  0  0  0  0  0  0  0
   -0.7632   21.9154  -33.8809 H   0  0  0  0  0  0  0  0  0  0  0  0
   -3.1694   22.4628  -32.1693 H   0  0  0  0  0  0  0  0  0  0  0  0
   -3.5905   22.6974  -33.8374 H   0  0  0  0  0  0  0  0  0  0  0  0
  1  2  1  0
  2  3  1  0
  3  4  1  0
  4  5  1  0
  3  6  1  0
  6  7  1  0
  7  8  1  0
  8  9  1  0
  9 10  1  0
 10 11  2  0
 11 12  1  0
 12 13  2  0
 13 14  1  0
 13 15  1  0
 15 16  2  0
 16 17  1  0
 17 18  2  0
 18 19  1  0
 19 20  2  0
 12 21  1  0
 21 22  2  0
 22 23  1  0
 23 24  2  0
 24 25  1  0
 25 26  2  0
 26 27  1  0
 20 10  1  0
 26 21  1  0
 27 11  1  0
 20 15  1  0
  1 28  1  0
  1 29  1  0
  1 30  1  0
  2 31  1  0
  2 32  1  0
  4 33  1  0
  4 34  1  0
  5 35  1  0
  5 36  1  0
  5 37  1  0
  6 38  1  0
  6 39  1  0
  7 40  1  0
  7 41  1  0
  8 42  1  0
  8 43  1  0
  9 44  1  0
 14 45  1  0
 14 46  1  0
 14 47  1  0
 16 48  1  0
 17 49  1  0
 18 50  1  0
 19 51  1  0
 22 52  1  0
 23 53  1  0
 24 54  1  0
 25 55  1  0
 27 56  1  0
 27 57  1  0
M  CHG  1  13   1
M  END
>  <UniqueID>  (4) 
4

>  <SMILES>  (4) 
CCN(CC)CCCNc1c2c([n+](C)c3ccccc13)-c1ccccc1C2

>  <Energy>  (4) 
101.93232729059339

>  <Genealogy>  (4) 
CCN(CC)CCCNc1c2c([n+](C)c3ccccc13)-c1ccccc1C2 (3D coordinates assigned)
CCN(CC)CCCNc1c2c([n+](C)c3ccccc13)-c1ccccc1C2 (nonaromatic ring conformer: 101.93232729059339 kcal/mol)

>  <smiles>  (4) 
CCN(CC)CCCNc1c2c([n+](C)c3ccccc13)-c1ccccc1C2

>  <score_type>  (4) 
oracle

>  <origin>  (4) 
adg

>  <m_score__min__energy>  (4) 
-9.6400000000000006

>  <m_primary>  (4) 
energy

$$$$
4:0
     RDKit          3D

 48 50  0  0  0  0  0  0  0  0999 V2000
   -6.1220   25.2980  -29.9900 C   0  0  0  0  0  0  0  0  0  0  0  0
   -5.5540   24.4540  -31.1280 C   0  0  0  0  0  0  0  0  0  0  0  0
   -4.1990   23.9700  -30.7860 N   0  0  0  0  0  0  0  0  0  0  0  0
   -3.7870   24.5080  -29.4780 C   0  0  0  0  0  0  0  0  0  0  0  0
   -4.1380   22.4890  -30.7810 C   0  0  0  0  0  0  0  0  0  0  0  0
   -3.7970   21.9660  -32.1870 C   0  0  0  0  0  0  0  0  0  0  0  0
   -4.9500   22.0300  -33.1040 N   0  0  0  0  0  0  0  0  0  0  0  0
   -5.9630   21.0510  -32.7650 C   0  0  0  0  0  0  0  0  0  0  0  0
   -5.7640   19.6450  -32.8850 C   0  0  0  0  0  0  0  0  0  0  0  0
   -4.5520   19.1140  -33.3710 C   0  0  0  0  0  0  0  0  0  0  0  0
   -4.3660   17.7390  -33.4830 C   0  0  0  0  0  0  0  0  0  0  0  0
   -5.3720   16.8500  -33.1170 C   0  0  0  0  0  0  0  0  0  0  0  0
   -5.1190   15.4760  -33.2520 O   0  0  0  0  0  0  0  0  0  0  0  0
   -4.6240   14.6370  -32.2130 C   0  0  0  0  0  0  0  0  0  0  0  0
   -6.5910   17.3490  -32.6290 C   0  0  0  0  0  0  0  0  0  0  0  0
   -6.8180   18.7420  -32.5030 C   0  0  0  0  0  0  0  0  0  0  0  0
   -8.0260   19.2320  -32.0200 N   0  0  0  0  0  0  0  0  0  0  0  0
   -9.1190   18.3250  -31.6260 C   0  0  0  0  0  0  0  0  0  0  0  0
   -8.1730   20.5900  -31.9160 C   0  0  0  0  0  0  0  0  0  0  0  0
   -9.2420   21.3460  -31.4650 C   0  0  0  0  0  0  0  0  0  0  0  0
   -8.8170   22.6620  -31.5840 C   0  0  0  0  0  0  0  0  0  0  0  0
   -7.5920   22.7040  -32.0680 O   0  0  0  0  0  0  0  0  0  0  0  0
   -7.1950   21.4710  -32.2700 C   0  0  0  0  0  0  0  0  0  0  0  0
   -5.8268   24.8593  -29.0254 H   0  0  0  0  0  0  0  0  0  0  0  0
   -5.7292   26.3229  -30.0622 H   0  0  0  0  0  0  0  0  0  0  0  0
   -7.2194   25.3200  -30.0622 H   0  0  0  0  0  0  0  0  0  0  0  0
   -6.2134   23.5911  -31.3030 H   0  0  0  0  0  0  0  0  0  0  0  0
   -5.4926   25.0737  -32.0348 H   0  0  0  0  0  0  0  0  0  0  0  0
   -4.2443   23.9108  -28.6754 H   0  0  0  0  0  0  0  0  0  0  0  0
   -2.6914   24.4614  -29.3910 H   0  0  0  0  0  0  0  0  0  0  0  0
   -4.1176   25.5535  -29.3910 H   0  0  0  0  0  0  0  0  0  0  0  0
   -3.3631   22.1598  -30.0731 H   0  0  0  0  0  0  0  0  0  0  0  0
   -5.1175   22.0907  -30.4779 H   0  0  0  0  0  0  0  0  0  0  0  0
   -2.9807   22.5751  -32.6024 H   0  0  0  0  0  0  0  0  0  0  0  0
   -3.5025   20.9105  -32.0906 H   0  0  0  0  0  0  0  0  0  0  0  0
   -5.3530   22.9960  -33.0880 H   0  0  0  0  0  0  0  0  0  0  0  0
   -4.6280   21.8840  -34.0870 H   0  0  0  0  0  0  0  0  0  0  0  0
   -3.7412   19.7963  -33.6661 H   0  0  0  0  0  0  0  0  0  0  0  0
   -3.4110   17.3500  -33.8660 H   0  0  0  0  0  0  0  0  0  0  0  0
   -4.8810   15.0726  -31.2362 H   0  0  0  0  0  0  0  0  0  0  0  0
   -5.0779   13.6388  -32.3002 H   0  0  0  0  0  0  0  0  0  0  0  0
   -3.5308   14.5516  -32.3002 H   0  0  0  0  0  0  0  0  0  0  0  0
   -7.3847   16.6448  -32.3391 H   0  0  0  0  0  0  0  0  0  0  0  0
   -9.1776   18.2764  -30.5286 H   0  0  0  0  0  0  0  0  0  0  0  0
  -10.0711   18.7020  -32.0277 H   0  0  0  0  0  0  0  0  0  0  0  0
   -8.9240   17.3197  -32.0277 H   0  0  0  0  0  0  0  0  0  0  0  0
  -10.2125   20.9840  -31.0947 H   0  0  0  0  0  0  0  0  0  0  0  0
   -9.4167   23.5435  -31.3131 H   0  0  0  0  0  0  0  0  0  0  0  0
  1  2  1  0
  2  3  1  0
  3  4  1  0
  3  5  1  0
  5  6  1  0
  6  7  1  0
  7  8  1  0
  8  9  2  0
  9 10  1  0
 10 11  2  0
 11 12  1  0
 12 13  1  0
 13 14  1  0
 12 15  2  0
 15 16  1  0
 16 17  2  0
 17 18  1  0
 17 19  1  0
 19 20  1  0
 20 21  2  0
 21 22  1  0
 22 23  1  0
 23  8  1  0
 16  9  1  0
 23 19  2  0
  1 24  1  0
  1 25  1  0
  1 26  1  0
  2 27  1  0
  2 28  1  0
  4 29  1  0
  4 30  1  0
  4 31  1  0
  5 32  1  0
  5 33  1  0
  6 34  1  0
  6 35  1  0
  7 36  1  0
  7 37  1  0
 10 38  1  0
 11 39  1  0
 14 40  1  0
 14 41  1  0
 14 42  1  0
 15 43  1  0
 18 44  1  0
 18 45  1  0
 18 46  1  0
 20 47  1  0
 21 48  1  0
M  CHG  2   7   1  17   1
M  END
>  <UniqueID>  (5) 
5

>  <SMILES>  (5) 
CCN(C)CC[NH2+]c1c2ccc(OC)cc2[n+](C)c2ccoc12

>  <Energy>  (5) 
94.15632191582712

>  <Genealogy>  (5) 
CCN(C)CC[NH2+]c1c2ccc(OC)cc2[n+](C)c2ccoc12 (protonated)
CCN(C)CC[NH2+]c1c2ccc(OC)cc2[n+](C)c2ccoc12 (3D coordinates assigned)
CCN(C)CC[NH2+]c1c2ccc(OC)cc2[n+](C)c2ccoc12 (optimized conformer: 94.15632191582712 kcal/mol)

>  <smiles>  (5) 
CCN(C)CCNc1c2ccc(OC)cc2[n+](C)c2ccoc12

>  <score_type>  (5) 
oracle

>  <origin>  (5) 
adg

>  <m_score__min__energy>  (5) 
-6.7699999999999996

>  <m_primary>  (5) 
energy

$$$$
5:0
     RDKit          3D

 54 56  0  0  0  0  0  0  0  0999 V2000
   -1.1840   24.2290  -28.9610 C   0  0  0  0  0  0  0  0  0  0  0  0
   -2.5660   24.8940  -28.9440 C   0  0  0  0  0  0  0  0  0  0  0  0
   -3.6410   24.0710  -29.5490 N   0  0  0  0  0  0  0  0  0  0  0  0
   -3.4960   22.6140  -29.3150 C   0  0  0  0  0  0  0  0  0  0  0  0
   -3.8580   22.2250  -27.8810 C   0  0  0  0  0  0  0  0  0  0  0  0
   -4.9920   24.5500  -29.1780 C   0  0  0  0  0  0  0  0  0  0  0  0
   -5.7480   25.0610  -30.4090 C   0  0  0  0  0  0  0  0  0  0  0  0
   -5.2740   24.4260  -31.5970 O   0  0  0  0  0  0  0  0  0  0  0  0
   -5.4600   23.0780  -31.9450 C   0  0  0  0  0  0  0  0  0  0  0  0
   -6.7180   22.4470  -31.9160 C   0  0  0  0  0  0  0  0  0  0  0  0
   -6.8420   21.1000  -32.2630 C   0  0  0  0  0  0  0  0  0  0  0  0
   -5.7170   20.3570  -32.6590 C   0  0  0  0  0  0  0  0  0  0  0  0
   -5.8480   18.9270  -33.0330 C   0  0  0  0  0  0  0  0  0  0  0  0
   -5.3650   17.9170  -32.1880 C   0  0  0  0  0  0  0  0  0  0  0  0
   -5.5010   16.5840  -32.5610 C   0  0  0  0  0  0  0  0  0  0  0  0
   -6.1230   16.2700  -33.7760 C   0  0  0  0  0  0  0  0  0  0  0  0
   -6.2990   14.9050  -34.2040 N   0  0  0  0  0  0  0  0  0  0  0  0
   -5.2120   13.9420  -34.2220 C   0  0  0  0  0  0  0  0  0  0  0  0
   -5.8450   12.6080  -34.5980 C   0  0  0  0  0  0  0  0  0  0  0  0
   -7.2290   12.9380  -35.1520 C   0  0  0  0  0  0  0  0  0  0  0  0
   -7.5600   14.3390  -34.6550 C   0  0  0  0  0  0  0  0  0  0  0  0
   -6.5730   17.2870  -34.5610 N   0  0  0  0  0  0  0  0  0  0  0  0
   -6.4400   18.5680  -34.2100 N   0  0  0  0  0  0  0  0  0  0  0  0
   -4.4660   20.9930  -32.7030 C   0  0  0  0  0  0  0  0  0  0  0  0
   -4.3430   22.3390  -32.3510 C   0  0  0  0  0  0  0  0  0  0  0  0
   -0.8433   24.0650  -27.9280 H   0  0  0  0  0  0  0  0  0  0  0  0
   -1.2482   23.2632  -29.4836 H   0  0  0  0  0  0  0  0  0  0  0  0
   -0.4694   24.8818  -29.4836 H   0  0  0  0  0  0  0  0  0  0  0  0
   -2.8368   25.1015  -27.8982 H   0  0  0  0  0  0  0  0  0  0  0  0
   -2.4860   25.8077  -29.5512 H   0  0  0  0  0  0  0  0  0  0  0  0
   -4.1597   22.0754  -30.0073 H   0  0  0  0  0  0  0  0  0  0  0  0
   -2.4426   22.3460  -29.4840 H   0  0  0  0  0  0  0  0  0  0  0  0
   -3.2823   22.8436  -27.1768 H   0  0  0  0  0  0  0  0  0  0  0  0
   -4.9335   22.3876  -27.7174 H   0  0  0  0  0  0  0  0  0  0  0  0
   -3.6185   21.1639  -27.7174 H   0  0  0  0  0  0  0  0  0  0  0  0
   -5.5569   23.7208  -28.7270 H   0  0  0  0  0  0  0  0  0  0  0  0
   -4.8869   25.3779  -28.4613 H   0  0  0  0  0  0  0  0  0  0  0  0
   -6.8200   24.8457  -30.2885 H   0  0  0  0  0  0  0  0  0  0  0  0
   -5.5819   26.1447  -30.4991 H   0  0  0  0  0  0  0  0  0  0  0  0
   -7.6093   23.0187  -31.6180 H   0  0  0  0  0  0  0  0  0  0  0  0
   -7.8292   20.6163  -32.2260 H   0  0  0  0  0  0  0  0  0  0  0  0
   -4.8811   18.1778  -31.2352 H   0  0  0  0  0  0  0  0  0  0  0  0
   -5.1235   15.7836  -31.9077 H   0  0  0  0  0  0  0  0  0  0  0  0
   -4.4565   14.2311  -34.9674 H   0  0  0  0  0  0  0  0  0  0  0  0
   -4.7027   13.8882  -33.2485 H   0  0  0  0  0  0  0  0  0  0  0  0
   -5.2389   12.0997  -35.3624 H   0  0  0  0  0  0  0  0  0  0  0  0
   -5.9091   11.9346  -33.7306 H   0  0  0  0  0  0  0  0  0  0  0  0
   -7.2151   12.9164  -36.2517 H   0  0  0  0  0  0  0  0  0  0  0  0
   -7.9798   12.2060  -34.8197 H   0  0  0  0  0  0  0  0  0  0  0  0
   -7.9827   14.9450  -35.4699 H   0  0  0  0  0  0  0  0  0  0  0  0
   -8.3069   14.3173  -33.8478 H   0  0  0  0  0  0  0  0  0  0  0  0
   -6.8260   19.2980  -34.8510 H   0  0  0  0  0  0  0  0  0  0  0  0
   -3.5765   20.4272  -33.0169 H   0  0  0  0  0  0  0  0  0  0  0  0
   -3.3566   22.8239  -32.3934 H   0  0  0  0  0  0  0  0  0  0  0  0
  1  2  1  0
  2  3  1  0
  3  4  1  0
  4  5  1  0
  3  6  1  0
  6  7  1  0
  7  8  1  0
  8  9  1  0
  9 10  2  0
 10 11  1  0
 11 12  2  0
 12 13  1  0
 13 14  2  0
 14 15  1  0
 15 16  2  0
 16 17  1  0
 17 18  1  0
 18 19  1  0
 19 20  1  0
 20 21  1  0
 16 22  1  0
 22 23  2  0
 12 24  1  0
 24 25  2  0
 25  9  1  0
 23 13  1  0
 21 17  1  0
  1 26  1  0
  1 27  1  0
  1 28  1  0
  2 29  1  0
  2 30  1  0
  4 31  1  0
  4 32  1  0
  5 33  1  0
  5 34  1  0
  5 35  1  0
  6 36  1  0
  6 37  1  0
  7 38  1  0
  7 39  1  0
 10 40  1  0
 11 41  1  0
 14 42  1  0
 15 43  1  0
 18 44  1  0
 18 45  1  0
 19 46  1  0
 19 47  1  0
 20 48  1  0
 20 49  1  0
 21 50  1  0
 21 51  1  0
 23 52  1  0
 24 53  1  0
 25 54  1  0
M  CHG  1  23   1
M  END
>  <UniqueID>  (6) 
6

>  <SMILES>  (6) 
CCN(CC)CCOc1ccc(-c2ccc(N3CCCC3)n[nH+]2)cc1

>  <Energy>  (6) 
59.88548708739311

>  <Genealogy>  (6) 
CCN(CC)CCOc1ccc(-c2ccc(N3CCCC3)n[nH+]2)cc1 (protonated)
CCN(CC)CCOc1ccc(-c2ccc(N3CCCC3)n[nH+]2)cc1 (3D coordinates assigned)
CCN(CC)CCOc1ccc(-c2ccc(N3CCCC3)n[nH+]2)cc1 (nonaromatic ring conformer: 59.88548708739311 kcal/mol)

>  <smiles>  (6) 
CCN(CC)CCOc1ccc(-c2ccc(N3CCCC3)nn2)cc1

>  <score_type>  (6) 
oracle

>  <origin>  (6) 
adg

>  <m_score__min__energy>  (6) 
-7.2599999999999998

>  <m_primary>  (6) 
energy

$$$$
6:0
     RDKit          3D

 45 46  0  0  0  0  0  0  0  0999 V2000
   -6.3960   16.6590  -34.2140 C   0  0  0  0  0  0  0  0  0  0  0  0
   -5.6670   15.9430  -33.0870 C   0  0  0  0  0  0  0  0  0  0  0  0
   -4.4030   16.5440  -32.8970 O   0  0  0  0  0  0  0  0  0  0  0  0
   -4.0280   17.2850  -34.0440 C   0  0  0  0  0  0  0  0  0  0  0  0
   -3.1410   18.3900  -33.6590 N   0  0  0  0  0  0  0  0  0  0  0  0
   -3.9190   19.5520  -33.3070 C   0  0  0  0  0  0  0  0  0  0  0  0
   -3.2860   20.8080  -33.1330 C   0  0  0  0  0  0  0  0  0  0  0  0
   -4.0250   21.9390  -32.7510 C   0  0  0  0  0  0  0  0  0  0  0  0
   -5.4030   21.7950  -32.5480 C   0  0  0  0  0  0  0  0  0  0  0  0
   -6.0200   20.5780  -32.7070 C   0  0  0  0  0  0  0  0  0  0  0  0
   -5.3070   19.4340  -33.0730 C   0  0  0  0  0  0  0  0  0  0  0  0
   -7.3530   20.7420  -32.3760 C   0  0  0  0  0  0  0  0  0  0  0  0
   -8.3850   19.6800  -32.3650 C   0  0  0  0  0  0  0  0  0  0  0  0
   -8.2050   18.4100  -31.5960 C   0  0  0  0  0  0  0  0  0  0  0  0
   -9.4490   19.8460  -33.0190 O   0  0  0  0  0  0  0  0  0  0  0  0
   -7.4910   22.0960  -32.0450 C   0  0  0  0  0  0  0  0  0  0  0  0
   -8.7720   22.7540  -31.6070 C   0  0  0  0  0  0  0  0  0  0  0  0
   -6.2910   22.7340  -32.1500 N   0  0  0  0  0  0  0  0  0  0  0  0
   -5.9990   24.1370  -31.8210 C   0  0  0  0  0  0  0  0  0  0  0  0
   -5.1770   24.2430  -30.5340 C   0  0  0  0  0  0  0  0  0  0  0  0
   -4.1400   25.2620  -30.6660 N   0  0  0  0  0  0  0  0  0  0  0  0
   -7.1199   17.3699  -33.7890 H   0  0  0  0  0  0  0  0  0  0  0  0
   -5.6683   17.2032  -34.8339 H   0  0  0  0  0  0  0  0  0  0  0  0
   -6.9270   15.9216  -34.8339 H   0  0  0  0  0  0  0  0  0  0  0  0
   -6.2547   16.0211  -32.1604 H   0  0  0  0  0  0  0  0  0  0  0  0
   -5.5369   14.8819  -33.3460 H   0  0  0  0  0  0  0  0  0  0  0  0
   -3.5022   16.6242  -34.7489 H   0  0  0  0  0  0  0  0  0  0  0  0
   -4.9306   17.6952  -34.5204 H   0  0  0  0  0  0  0  0  0  0  0  0
   -2.5480   18.1040  -32.8450 H   0  0  0  0  0  0  0  0  0  0  0  0
   -2.5030   18.6170  -34.4570 H   0  0  0  0  0  0  0  0  0  0  0  0
   -2.2024   20.8979  -33.2993 H   0  0  0  0  0  0  0  0  0  0  0  0
   -3.5338   22.9138  -32.6146 H   0  0  0  0  0  0  0  0  0  0  0  0
   -5.8147   18.4637  -33.1766 H   0  0  0  0  0  0  0  0  0  0  0  0
   -8.2357   18.6266  -30.5180 H   0  0  0  0  0  0  0  0  0  0  0  0
   -9.0127   17.7086  -31.8522 H   0  0  0  0  0  0  0  0  0  0  0  0
   -7.2342   17.9607  -31.8522 H   0  0  0  0  0  0  0  0  0  0  0  0
   -8.8156   22.7764  -30.5081 H   0  0  0  0  0  0  0  0  0  0  0  0
   -8.8079   23.7821  -31.9964 H   0  0  0  0  0  0  0  0  0  0  0  0
   -9.6286   22.1843  -31.9964 H   0  0  0  0  0  0  0  0  0  0  0  0
   -5.4314   24.5890  -32.6478 H   0  0  0  0  0  0  0  0  0  0  0  0
   -6.9519   24.6657  -31.6709 H   0  0  0  0  0  0  0  0  0  0  0  0
   -5.8434   24.5119  -29.7011 H   0  0  0  0  0  0  0  0  0  0  0  0
   -4.6964   23.2726  -30.3406 H   0  0  0  0  0  0  0  0  0  0  0  0
   -4.3490   26.0330  -29.9900 H   0  0  0  0  0  0  0  0  0  0  0  0
   -4.2240   25.6810  -31.6200 H   0  0  0  0  0  0  0  0  0  0  0  0
  1  2  1  0
  2  3  1  0
  3  4  1  0
  4  5  1  0
  5  6  1  0
  6  7  2  0
  7  8  1  0
  8  9  2  0
  9 10  1  0
 10 11  2  0
 10 12  1  0
 12 13  1  0
 13 14  1  0
 13 15  2  0
 12 16  2  0
 16 17  1  0
 16 18  1  0
 18 19  1  0
 19 20  1  0
 20 21  1  0
 11  6  1  0
 18  9  1  0
  1 22  1  0
  1 23  1  0
  1 24  1  0
  2 25  1  0
  2 26  1  0
  4 27  1  0
  4 28  1  0
  5 29  1  0
  5 30  1  0
  7 31  1  0
  8 32  1  0
 11 33  1  0
 14 34  1  0
 14 35  1  0
 14 36  1  0
 17 37  1  0
 17 38  1  0
 17 39  1  0
 19 40  1  0
 19 41  1  0
 20 42  1  0
 20 43  1  0
 21 44  1  0
 21 45  1  0
M  CHG  1   5   1
M  END
>  <UniqueID>  (7) 
7

>  <SMILES>  (7) 
CCOC[NH2+]c1ccc2c(c1)c(C(C)=O)c(C)n2CCN

>  <Energy>  (7) 
76.66597765281749

>  <Genealogy>  (7) 
CCOC[NH2+]c1ccc2c(c1)c(C(C)=O)c(C)n2CCN (protonated)
CCOC[NH2+]c1ccc2c(c1)c(C(C)=O)c(C)n2CCN (3D coordinates assigned)
CCOC[NH2+]c1ccc2c(c1)c(C(C)=O)c(C)n2CCN (optimized conformer: 76.66597765281749 kcal/mol)

>  <smiles>  (7) 
CCOCNc1ccc2c(c1)c(C(C)=O)c(C)n2CCN

>  <score_type>  (7) 
oracle

>  <origin>  (7) 
adg

>  <m_score__min__energy>  (7) 
-7.1600000000000001

>  <m_primary>  (7) 
energy

$$$$
7:0
     RDKit          3D

 34 36  0  0  0  0  0  0  0  0999 V2000
   -0.4630   24.1350  -28.9910 C   0  0  0  0  0  0  0  0  0  0  0  0
   -1.3510   25.2800  -28.7320 N   0  0  0  0  0  0  0  0  0  0  0  0
   -0.6980   26.2620  -27.8510 C   0  0  0  0  0  0  0  0  0  0  0  0
   -2.6750   24.8610  -28.2220 C   0  0  0  0  0  0  0  0  0  0  0  0
   -3.6650   24.5450  -29.3100 C   0  0  0  0  0  0  0  0  0  0  0  0
   -4.6350   23.5660  -29.2760 C   0  0  0  0  0  0  0  0  0  0  0  0
   -5.2490   23.6800  -30.5070 C   0  0  0  0  0  0  0  0  0  0  0  0
   -6.3660   22.8520  -30.9960 C   0  0  0  0  0  0  0  0  0  0  0  0
   -7.6270   23.4180  -31.2460 C   0  0  0  0  0  0  0  0  0  0  0  0
   -8.6680   22.6100  -31.7100 C   0  0  0  0  0  0  0  0  0  0  0  0
   -8.4480   21.2430  -31.9230 C   0  0  0  0  0  0  0  0  0  0  0  0
   -9.4700   20.4040  -32.3890 C   0  0  0  0  0  0  0  0  0  0  0  0
   -9.2180   19.0430  -32.5920 C   0  0  0  0  0  0  0  0  0  0  0  0
   -7.9480   18.5160  -32.3320 C   0  0  0  0  0  0  0  0  0  0  0  0
   -6.9230   19.3480  -31.8680 C   0  0  0  0  0  0  0  0  0  0  0  0
   -7.1670   20.7090  -31.6610 C   0  0  0  0  0  0  0  0  0  0  0  0
   -6.1730   21.5210  -31.2110 N   0  0  0  0  0  0  0  0  0  0  0  0
   -4.6670   24.6710  -31.2130 N   0  0  0  0  0  0  0  0  0  0  0  0
   -3.7240   25.1650  -30.4650 O   0  0  0  0  0  0  0  0  0  0  0  0
   -0.1300   23.7056  -28.0346 H   0  0  0  0  0  0  0  0  0  0  0  0
   -1.0074   23.3715  -29.5660 H   0  0  0  0  0  0  0  0  0  0  0  0
    0.4120   24.4723  -29.5660 H   0  0  0  0  0  0  0  0  0  0  0  0
   -0.8790   25.9898  -26.8007 H   0  0  0  0  0  0  0  0  0  0  0  0
    0.3844   26.2677  -28.0470 H   0  0  0  0  0  0  0  0  0  0  0  0
   -1.1114   27.2624  -28.0470 H   0  0  0  0  0  0  0  0  0  0  0  0
   -2.5407   23.9625  -27.6018 H   0  0  0  0  0  0  0  0  0  0  0  0
   -3.0832   25.7065  -27.6489 H   0  0  0  0  0  0  0  0  0  0  0  0
   -4.8648   22.8622  -28.4624 H   0  0  0  0  0  0  0  0  0  0  0  0
   -7.7941   24.4921  -31.0773 H   0  0  0  0  0  0  0  0  0  0  0  0
   -9.6583   23.0463  -31.9077 H   0  0  0  0  0  0  0  0  0  0  0  0
  -10.4691   20.8155  -32.5948 H   0  0  0  0  0  0  0  0  0  0  0  0
  -10.0205   18.3852  -32.9571 H   0  0  0  0  0  0  0  0  0  0  0  0
   -7.7550   17.4451  -32.4928 H   0  0  0  0  0  0  0  0  0  0  0  0
   -5.9252   18.9312  -31.6661 H   0  0  0  0  0  0  0  0  0  0  0  0
  1  2  1  0
  2  3  1  0
  2  4  1  0
  4  5  1  0
  5  6  2  0
  6  7  1  0
  7  8  1  0
  8  9  2  0
  9 10  1  0
 10 11  2  0
 11 12  1  0
 12 13  2  0
 13 14  1  0
 14 15  2  0
 15 16  1  0
 16 17  2  0
  7 18  2  0
 18 19  1  0
 19  5  1  0
 17  8  1  0
 16 11  1  0
  1 20  1  0
  1 21  1  0
  1 22  1  0
  3 23  1  0
  3 24  1  0
  3 25  1  0
  4 26  1  0
  4 27  1  0
  6 28  1  0
  9 29  1  0
 10 30  1  0
 12 31  1  0
 13 32  1  0
 14 33  1  0
 15 34  1  0
M  END
>  <UniqueID>  (8) 
8

>  <SMILES>  (8) 
CN(C)Cc1cc(-c2ccc3ccccc3n2)no1

>  <Energy>  (8) 
70.54269172161362

>  <Genealogy>  (8) 
CN(C)Cc1cc(-c2ccc3ccccc3n2)no1 (3D coordinates assigned)
CN(C)Cc1cc(-c2ccc3ccccc3n2)no1 (optimized conformer: 70.54269172161362 kcal/mol)

>  <smiles>  (8) 
CN(C)Cc1cc(-c2ccc3ccccc3n2)no1

>  <score_type>  (8) 
oracle

>  <origin>  (8) 
adg

>  <m_score__min__energy>  (8) 
-9.0399999999999991

>  <m_primary>  (8) 
energy

$$$$
8:0
     RDKit          3D

 66 69  0  0  0  0  0  0  0  0999 V2000
   -2.7690   24.3210  -27.2980 C   0  0  0  0  0  0  0  0  0  0  0  0
   -2.1160   24.2700  -28.6450 C   0  0  0  0  0  0  0  0  0  0  0  0
   -2.0540   25.2850  -29.3220 O   0  0  0  0  0  0  0  0  0  0  0  0
   -1.5390   22.9880  -29.1680 C   0  0  0  0  0  0  0  0  0  0  0  0
   -1.5090   23.0350  -30.5910 O   0  0  0  0  0  0  0  0  0  0  0  0
   -2.0180   22.0400  -31.4400 C   0  0  0  0  0  0  0  0  0  0  0  0
   -1.2050   21.3910  -32.3900 C   0  0  0  0  0  0  0  0  0  0  0  0
   -1.7380   20.4010  -33.2190 C   0  0  0  0  0  0  0  0  0  0  0  0
   -3.0820   20.0430  -33.1070 C   0  0  0  0  0  0  0  0  0  0  0  0
   -3.8990   20.6770  -32.1710 C   0  0  0  0  0  0  0  0  0  0  0  0
   -3.3820   21.6830  -31.3390 C   0  0  0  0  0  0  0  0  0  0  0  0
   -4.3000   22.3580  -30.3490 C   0  0  0  0  0  0  0  0  0  0  0  0
   -4.9240   23.5550  -30.9570 N   0  0  0  0  0  0  0  0  0  0  0  0
   -5.4160   23.3220  -32.3410 C   0  0  0  0  0  0  0  0  0  0  0  0
   -6.9550   23.2630  -32.4480 C   0  0  0  0  0  0  0  0  0  0  0  0
   -7.5340   22.5780  -31.2750 N   0  0  0  0  0  0  0  0  0  0  0  0
   -8.9860   22.3070  -31.4230 C   0  0  0  0  0  0  0  0  0  0  0  0
   -9.3230   20.9270  -32.0300 C   0  0  0  0  0  0  0  0  0  0  0  0
   -8.3140   20.5270  -32.9580 O   0  0  0  0  0  0  0  0  0  0  0  0
   -7.4520   19.4270  -32.8100 C   0  0  0  0  0  0  0  0  0  0  0  0
   -7.5000   18.5640  -31.6990 C   0  0  0  0  0  0  0  0  0  0  0  0
   -6.6250   17.4750  -31.6150 C   0  0  0  0  0  0  0  0  0  0  0  0
   -5.6840   17.2330  -32.6350 C   0  0  0  0  0  0  0  0  0  0  0  0
   -4.7360   16.0480  -32.5870 C   0  0  0  0  0  0  0  0  0  0  0  0
   -5.0140   14.9630  -33.6280 C   0  0  0  0  0  0  0  0  0  0  0  0
   -3.6500   15.2240  -34.2580 C   0  0  0  0  0  0  0  0  0  0  0  0
   -3.3710   16.3070  -33.2230 C   0  0  0  0  0  0  0  0  0  0  0  0
   -5.6350   18.1060  -33.7330 C   0  0  0  0  0  0  0  0  0  0  0  0
   -6.5090   19.1930  -33.8150 C   0  0  0  0  0  0  0  0  0  0  0  0
   -7.2230   23.2760  -29.9990 C   0  0  0  0  0  0  0  0  0  0  0  0
   -5.9520   24.1510  -30.0830 C   0  0  0  0  0  0  0  0  0  0  0  0
   -1.9990   24.2609  -26.5147 H   0  0  0  0  0  0  0  0  0  0  0  0
   -3.3238   25.2652  -27.1950 H   0  0  0  0  0  0  0  0  0  0  0  0
   -3.4637   23.4744  -27.1950 H   0  0  0  0  0  0  0  0  0  0  0  0
   -0.5168   22.8601  -28.7823 H   0  0  0  0  0  0  0  0  0  0  0  0
   -2.1597   22.1416  -28.8389 H   0  0  0  0  0  0  0  0  0  0  0  0
   -0.1436   21.6656  -32.4796 H   0  0  0  0  0  0  0  0  0  0  0  0
   -1.0971   19.9028  -33.9613 H   0  0  0  0  0  0  0  0  0  0  0  0
   -3.4978   19.2597  -33.7578 H   0  0  0  0  0  0  0  0  0  0  0  0
   -4.9564   20.3867  -32.0840 H   0  0  0  0  0  0  0  0  0  0  0  0
   -5.0880   21.6527  -30.0462 H   0  0  0  0  0  0  0  0  0  0  0  0
   -3.7129   22.6681  -29.4720 H   0  0  0  0  0  0  0  0  0  0  0  0
   -5.0540   24.1400  -32.9811 H   0  0  0  0  0  0  0  0  0  0  0  0
   -5.0327   22.3412  -32.6588 H   0  0  0  0  0  0  0  0  0  0  0  0
   -7.3528   24.2872  -32.5008 H   0  0  0  0  0  0  0  0  0  0  0  0
   -7.2252   22.7014  -33.3544 H   0  0  0  0  0  0  0  0  0  0  0  0
   -7.0830   21.6330  -31.2290 H   0  0  0  0  0  0  0  0  0  0  0  0
   -9.4496   22.3665  -30.4272 H   0  0  0  0  0  0  0  0  0  0  0  0
   -9.3742   23.0599  -32.1247 H   0  0  0  0  0  0  0  0  0  0  0  0
   -9.3873   20.1827  -31.2226 H   0  0  0  0  0  0  0  0  0  0  0  0
  -10.2846   20.9974  -32.5596 H   0  0  0  0  0  0  0  0  0  0  0  0
   -8.2275   18.7461  -30.8943 H   0  0  0  0  0  0  0  0  0  0  0  0
   -6.6724   16.8027  -30.7456 H   0  0  0  0  0  0  0  0  0  0  0  0
   -4.8188   15.8195  -31.5142 H   0  0  0  0  0  0  0  0  0  0  0  0
   -5.1287   13.9537  -33.2060 H   0  0  0  0  0  0  0  0  0  0  0  0
   -5.9273   14.9976  -34.2400 H   0  0  0  0  0  0  0  0  0  0  0  0
   -2.9617   14.3675  -34.2069 H   0  0  0  0  0  0  0  0  0  0  0  0
   -3.5693   15.4494  -35.3316 H   0  0  0  0  0  0  0  0  0  0  0  0
   -2.5188   16.0886  -32.5626 H   0  0  0  0  0  0  0  0  0  0  0  0
   -3.0873   17.3213  -33.5402 H   0  0  0  0  0  0  0  0  0  0  0  0
   -4.9027   17.9330  -34.5353 H   0  0  0  0  0  0  0  0  0  0  0  0
   -6.4545   19.8715  -34.6791 H   0  0  0  0  0  0  0  0  0  0  0  0
   -8.0749   23.9199  -29.7351 H   0  0  0  0  0  0  0  0  0  0  0  0
   -7.0406   22.5034  -29.2376 H   0  0  0  0  0  0  0  0  0  0  0  0
   -6.2271   25.1386  -30.4817 H   0  0  0  0  0  0  0  0  0  0  0  0
   -5.5297   24.2324  -29.0706 H   0  0  0  0  0  0  0  0  0  0  0  0
  1  2  1  0
  2  3  2  0
  2  4  1  0
  4  5  1  0
  5  6  1  0
  6  7  2  0
  7  8  1  0
  8  9  2  0
  9 10  1  0
 10 11  2  0
 11 12  1  0
 12 13  1  0
 13 14  1  0
 14 15  1  0
 15 16  1  0
 16 17  1  0
 17 18  1  0
 18 19  1  0
 19 20  1  0
 20 21  2  0
 21 22  1  0
 22 23  2  0
 23 24  1  0
 24 25  1  0
 25 26  1  0
 26 27  1  0
 23 28  1  0
 28 29  2  0
 16 30  1  0
 30 31  1  0
 11  6  1  0
 31 13  1  0
 29 20  1  0
 27 24  1  0
  1 32  1  0
  1 33  1  0
  1 34  1  0
  4 35  1  0
  4 36  1  0
  7 37  1  0
  8 38  1  0
  9 39  1  0
 10 40  1  0
 12 41  1  0
 12 42  1  0
 14 43  1  0
 14 44  1  0
 15 45  1  0
 15 46  1  0
 16 47  1  0
 17 48  1  0
 17 49  1  0
 18 50  1  0
 18 51  1  0
 21 52  1  0
 22 53  1  0
 24 54  1  0
 25 55  1  0
 25 56  1  0
 26 57  1  0
 26 58  1  0
 27 59  1  0
 27 60  1  0
 28 61  1  0
 29 62  1  0
 30 63  1  0
 30 64  1  0
 31 65  1  0
 31 66  1  0
M  CHG  1  16   1
M  END
>  <UniqueID>  (9) 
9

>  <SMILES>  (9) 
CC(=O)COc1ccccc1CN1CC[NH+](CCOc2ccc(C3CCC3)cc2)CC1

>  <Energy>  (9) 
140.69443509558525

>  <Genealogy>  (9) 
CC(=O)COc1ccccc1CN1CC[NH+](CCOc2ccc(C3CCC3)cc2)CC1 (protonated)
CC(=O)COc1ccccc1CN1CC[NH+](CCOc2ccc(C3CCC3)cc2)CC1 (3D coordinates assigned)
CC(=O)COc1ccccc1CN1CC[NH+](CCOc2ccc(C3CCC3)cc2)CC1 (nonaromatic ring conformer: 140.69443509558525 kcal/mol)

>  <smiles>  (9) 
CC(=O)COc1ccccc1CN1CCN(CCOc2ccc(C3CCC3)cc2)CC1

>  <score_type>  (9) 
oracle

>  <origin>  (9) 
adg

>  <m_score__min__energy>  (9) 
-10.300000000000001

>  <m_primary>  (9) 
energy

$$$$
9:0
     RDKit          3D

 52 55  0  0  0  0  0  0  0  0999 V2000
   -5.6310   18.2970  -31.6010 C   0  0  0  0  0  0  0  0  0  0  0  0
   -6.1470   18.8010  -32.8860 N   0  0  0  0  0  0  0  0  0  0  0  0
   -7.6090   18.5810  -33.0270 C   0  0  0  0  0  0  0  0  0  0  0  0
   -8.4490   19.4070  -32.0260 C   0  0  0  0  0  0  0  0  0  0  0  0
   -7.9150   20.8030  -31.9340 C   0  0  0  0  0  0  0  0  0  0  0  0
   -6.6670   21.1570  -32.3760 C   0  0  0  0  0  0  0  0  0  0  0  0
   -6.5280   22.5130  -32.1390 C   0  0  0  0  0  0  0  0  0  0  0  0
   -5.3870   23.4020  -32.5380 C   0  0  0  0  0  0  0  0  0  0  0  0
   -4.5890   23.7770  -31.3550 N   0  0  0  0  0  0  0  0  0  0  0  0
   -5.4250   24.5140  -30.3800 C   0  0  0  0  0  0  0  0  0  0  0  0
   -4.8290   24.5470  -28.9540 C   0  0  0  0  0  0  0  0  0  0  0  0
   -3.3990   24.2030  -28.9370 N   0  0  0  0  0  0  0  0  0  0  0  0
   -2.5350   24.7770  -27.9350 C   0  0  0  0  0  0  0  0  0  0  0  0
   -1.2240   25.1680  -28.2640 C   0  0  0  0  0  0  0  0  0  0  0  0
   -0.3860   25.7220  -27.2910 C   0  0  0  0  0  0  0  0  0  0  0  0
   -0.8460   25.8900  -25.9820 C   0  0  0  0  0  0  0  0  0  0  0  0
   -2.1450   25.5060  -25.6450 C   0  0  0  0  0  0  0  0  0  0  0  0
   -2.9880   24.9520  -26.6140 C   0  0  0  0  0  0  0  0  0  0  0  0
   -2.9050   23.0780  -29.7450 C   0  0  0  0  0  0  0  0  0  0  0  0
   -3.9700   22.5970  -30.7270 C   0  0  0  0  0  0  0  0  0  0  0  0
   -7.7020   22.9210  -31.5230 C   0  0  0  0  0  0  0  0  0  0  0  0
   -8.5340   21.8680  -31.3820 N   0  0  0  0  0  0  0  0  0  0  0  0
   -9.8910   21.9100  -30.8450 C   0  0  0  0  0  0  0  0  0  0  0  0
   -5.7620   20.2150  -33.1160 C   0  0  0  0  0  0  0  0  0  0  0  0
   -6.1496   18.8035  -30.7736 H   0  0  0  0  0  0  0  0  0  0  0  0
   -5.8067   17.2131  -31.5351 H   0  0  0  0  0  0  0  0  0  0  0  0
   -4.5516   18.4981  -31.5351 H   0  0  0  0  0  0  0  0  0  0  0  0
   -7.9076   18.8606  -34.0481 H   0  0  0  0  0  0  0  0  0  0  0  0
   -7.8013   17.5186  -32.8162 H   0  0  0  0  0  0  0  0  0  0  0  0
   -9.4940   19.4392  -32.3678 H   0  0  0  0  0  0  0  0  0  0  0  0
   -8.3936   18.9346  -31.0342 H   0  0  0  0  0  0  0  0  0  0  0  0
   -4.7448   22.8682  -33.2540 H   0  0  0  0  0  0  0  0  0  0  0  0
   -5.7907   24.3150  -33.0000 H   0  0  0  0  0  0  0  0  0  0  0  0
   -5.5398   25.5495  -30.7330 H   0  0  0  0  0  0  0  0  0  0  0  0
   -6.3873   23.9850  -30.3153 H   0  0  0  0  0  0  0  0  0  0  0  0
   -4.9540   25.5593  -28.5420 H   0  0  0  0  0  0  0  0  0  0  0  0
   -5.3618   23.7979  -28.3499 H   0  0  0  0  0  0  0  0  0  0  0  0
   -0.8561   25.0372  -29.2924 H   0  0  0  0  0  0  0  0  0  0  0  0
    0.6372   26.0261  -27.5565 H   0  0  0  0  0  0  0  0  0  0  0  0
   -0.1848   26.3246  -25.2178 H   0  0  0  0  0  0  0  0  0  0  0  0
   -2.5067   25.6394  -24.6148 H   0  0  0  0  0  0  0  0  0  0  0  0
   -4.0106   24.6514  -26.3421 H   0  0  0  0  0  0  0  0  0  0  0  0
   -2.0175   23.4026  -30.3081 H   0  0  0  0  0  0  0  0  0  0  0  0
   -2.6521   22.2474  -29.0696 H   0  0  0  0  0  0  0  0  0  0  0  0
   -3.5058   21.9657  -31.4990 H   0  0  0  0  0  0  0  0  0  0  0  0
   -4.7325   22.0059  -30.1986 H   0  0  0  0  0  0  0  0  0  0  0  0
   -7.9218   23.9487  -31.1982 H   0  0  0  0  0  0  0  0  0  0  0  0
   -9.8505   21.9087  -29.7457 H   0  0  0  0  0  0  0  0  0  0  0  0
  -10.3947   22.8242  -31.1923 H   0  0  0  0  0  0  0  0  0  0  0  0
  -10.4502   21.0287  -31.1923 H   0  0  0  0  0  0  0  0  0  0  0  0
   -5.8231   20.4319  -34.1927 H   0  0  0  0  0  0  0  0  0  0  0  0
   -4.7360   20.3588  -32.7462 H   0  0  0  0  0  0  0  0  0  0  0  0
  1  2  1  0
  2  3  1  0
  3  4  1  0
  4  5  1  0
  5  6  2  0
  6  7  1  0
  7  8  1  0
  8  9  1  0
  9 10  1  0
 10 11  1  0
 11 12  1  0
 12 13  1  0
 13 14  2  0
 14 15  1  0
 15 16  2  0
 16 17  1  0
 17 18  2  0
 12 19  1  0
 19 20  1  0
  7 21  2  0
 21 22  1  0
 22 23  1  0
  6 24  1  0
 24  2  1  0
 22  5  1  0
 20  9  1  0
 18 13  1  0
  1 25  1  0
  1 26  1  0
  1 27  1  0
  3 28  1  0
  3 29  1  0
  4 30  1  0
  4 31  1  0
  8 32  1  0
  8 33  1  0
 10 34  1  0
 10 35  1  0
 11 36  1  0
 11 37  1  0
 14 38  1  0
 15 39  1  0
 16 40  1  0
 17 41  1  0
 18 42  1  0
 19 43  1  0
 19 44  1  0
 20 45  1  0
 20 46  1  0
 21 47  1  0
 23 48  1  0
 23 49  1  0
 23 50  1  0
 24 51  1  0
 24 52  1  0
M  END
>  <UniqueID>  (10) 
10

>  <SMILES>  (10) 
CN1CCc2c(c(CN3CCN(c4ccccc4)CC3)cn2C)C1

>  <Energy>  (10) 
94.17562812058594

>  <Genealogy>  (10) 
CN1CCc2c(c(CN3CCN(c4ccccc4)CC3)cn2C)C1 (3D coordinates assigned)
CN1CCc2c(c(CN3CCN(c4ccccc4)CC3)cn2C)C1 (nonaromatic ring conformer: 94.17562812058594 kcal/mol)

>  <smiles>  (10) 
CN1CCc2c(c(CN3CCN(c4ccccc4)CC3)cn2C)C1

>  <score_type>  (10) 
oracle

>  <origin>  (10) 
adg

>  <m_score__min__energy>  (10) 
-8.4800000000000004

>  <m_primary>  (10) 
energy

$$$$
10:0
     RDKit          3D

 41 42  0  0  0  0  0  0  0  0999 V2000
   -6.2000   17.4390  -31.2090 C   0  0  0  0  0  0  0  0  0  0  0  0
   -7.3200   18.0780  -32.0440 C   0  0  0  0  0  0  0  0  0  0  0  0
   -7.0120   19.4330  -32.5720 N   0  0  0  0  0  0  0  0  0  0  0  0
   -6.0120   19.4490  -33.6660 C   0  0  0  0  0  0  0  0  0  0  0  0
   -6.0880   18.1850  -34.5230 C   0  0  0  0  0  0  0  0  0  0  0  0
   -8.2250   20.2050  -32.9320 C   0  0  0  0  0  0  0  0  0  0  0  0
   -8.4030   21.4520  -32.0390 C   0  0  0  0  0  0  0  0  0  0  0  0
   -7.5740   21.4220  -30.8190 N   0  0  0  0  0  0  0  0  0  0  0  0
   -6.5770   22.4740  -30.8090 C   0  0  0  0  0  0  0  0  0  0  0  0
   -6.9970   23.8030  -30.6530 C   0  0  0  0  0  0  0  0  0  0  0  0
   -6.0670   24.8360  -30.6070 C   0  0  0  0  0  0  0  0  0  0  0  0
   -4.7380   24.5780  -30.7170 N   0  0  0  0  0  0  0  0  0  0  0  0
   -3.8630   25.6410  -30.6620 O   0  0  0  0  0  0  0  0  0  0  0  0
   -4.2730   23.3010  -30.8840 C   0  0  0  0  0  0  0  0  0  0  0  0
   -2.8910   23.0550  -31.0060 C   0  0  0  0  0  0  0  0  0  0  0  0
   -2.4150   21.7580  -31.1820 C   0  0  0  0  0  0  0  0  0  0  0  0
   -3.3040   20.6880  -31.2420 C   0  0  0  0  0  0  0  0  0  0  0  0
   -4.6770   20.9050  -31.1230 C   0  0  0  0  0  0  0  0  0  0  0  0
   -5.1860   22.2100  -30.9380 C   0  0  0  0  0  0  0  0  0  0  0  0
   -6.4223   17.5658  -30.1392 H   0  0  0  0  0  0  0  0  0  0  0  0
   -6.1329   16.3667  -31.4450 H   0  0  0  0  0  0  0  0  0  0  0  0
   -5.2428   17.9269  -31.4450 H   0  0  0  0  0  0  0  0  0  0  0  0
   -7.5283   17.4175  -32.8986 H   0  0  0  0  0  0  0  0  0  0  0  0
   -8.1788   18.1986  -31.3673 H   0  0  0  0  0  0  0  0  0  0  0  0
   -6.1978   20.3245  -34.3055 H   0  0  0  0  0  0  0  0  0  0  0  0
   -5.0106   19.4956  -33.2133 H   0  0  0  0  0  0  0  0  0  0  0  0
   -6.1411   17.3017  -33.8696 H   0  0  0  0  0  0  0  0  0  0  0  0
   -6.9853   18.2259  -35.1580 H   0  0  0  0  0  0  0  0  0  0  0  0
   -5.1923   18.1181  -35.1580 H   0  0  0  0  0  0  0  0  0  0  0  0
   -8.1424   20.5277  -33.9803 H   0  0  0  0  0  0  0  0  0  0  0  0
   -9.0988   19.5535  -32.7840 H   0  0  0  0  0  0  0  0  0  0  0  0
   -8.1296   22.3421  -32.6246 H   0  0  0  0  0  0  0  0  0  0  0  0
   -9.4545   21.4733  -31.7167 H   0  0  0  0  0  0  0  0  0  0  0  0
   -7.1200   20.4830  -30.7300 H   0  0  0  0  0  0  0  0  0  0  0  0
   -8.1880   21.5080  -29.9770 H   0  0  0  0  0  0  0  0  0  0  0  0
   -8.0698   24.0300  -30.5664 H   0  0  0  0  0  0  0  0  0  0  0  0
   -6.4114   25.8730  -30.4802 H   0  0  0  0  0  0  0  0  0  0  0  0
   -2.1818   23.8947  -30.9619 H   0  0  0  0  0  0  0  0  0  0  0  0
   -1.3337   21.5784  -31.2739 H   0  0  0  0  0  0  0  0  0  0  0  0
   -2.9218   19.6664  -31.3840 H   0  0  0  0  0  0  0  0  0  0  0  0
   -5.3698   20.0521  -31.1737 H   0  0  0  0  0  0  0  0  0  0  0  0
  1  2  1  0
  2  3  1  0
  3  4  1  0
  4  5  1  0
  3  6  1  0
  6  7  1  0
  7  8  1  0
  8  9  1  0
  9 10  2  0
 10 11  1  0
 11 12  2  0
 12 13  1  0
 12 14  1  0
 14 15  2  0
 15 16  1  0
 16 17  2  0
 17 18  1  0
 18 19  2  0
 19  9  1  0
 19 14  1  0
  1 20  1  0
  1 21  1  0
  1 22  1  0
  2 23  1  0
  2 24  1  0
  4 25  1  0
  4 26  1  0
  5 27  1  0
  5 28  1  0
  5 29  1  0
  6 30  1  0
  6 31  1  0
  7 32  1  0
  7 33  1  0
  8 34  1  0
  8 35  1  0
 10 36  1  0
 11 37  1  0
 15 38  1  0
 16 39  1  0
 17 40  1  0
 18 41  1  0
M  CHG  3   8   1  12   1  13  -1
M  END
>  <UniqueID>  (11) 
11

>  <SMILES>  (11) 
CCN(CC)CC[NH2+]c1cc[n+]([O-])c2ccccc12

>  <Energy>  (11) 
50.710811327076506

>  <Genealogy>  (11) 
CCN(CC)CC[NH2+]c1cc[n+]([O-])c2ccccc12 (protonated)
CCN(CC)CC[NH2+]c1cc[n+]([O-])c2ccccc12 (3D coordinates assigned)
CCN(CC)CC[NH2+]c1cc[n+]([O-])c2ccccc12 (optimized conformer: 50.710811327076506 kcal/mol)

>  <smiles>  (11) 
CCN(CC)CCNc1cc[n+]([O-])c2ccccc12

>  <score_type>  (11) 
oracle

>  <origin>  (11) 
adg

>  <m_score__min__energy>  (11) 
-7.04

>  <m_primary>  (11) 
energy

$$$$
11:0
     RDKit          3D

 52 53  0  0  0  0  0  0  0  0999 V2000
   -1.6260   21.4400  -32.4650 C   0  0  0  0  0  0  0  0  0  0  0  0
   -1.3350   21.9080  -31.0440 C   0  0  0  0  0  0  0  0  0  0  0  0
   -2.5660   22.4650  -30.4370 N   0  0  0  0  0  0  0  0  0  0  0  0
   -3.4130   21.4160  -29.8140 C   0  0  0  0  0  0  0  0  0  0  0  0
   -3.0590   21.1040  -28.3510 C   0  0  0  0  0  0  0  0  0  0  0  0
   -2.2870   23.6350  -29.5720 C   0  0  0  0  0  0  0  0  0  0  0  0
   -3.5270   24.5190  -29.3570 C   0  0  0  0  0  0  0  0  0  0  0  0
   -3.8630   25.2310  -30.5330 O   0  0  0  0  0  0  0  0  0  0  0  0
   -5.2650   25.3380  -30.7090 C   0  0  0  0  0  0  0  0  0  0  0  0
   -5.9660   24.5500  -29.6040 C   0  0  0  0  0  0  0  0  0  0  0  0
   -6.5320   23.3560  -30.1110 O   0  0  0  0  0  0  0  0  0  0  0  0
   -6.7090   23.4200  -31.5140 C   0  0  0  0  0  0  0  0  0  0  0  0
   -7.3020   22.1290  -32.0510 C   0  0  0  0  0  0  0  0  0  0  0  0
   -8.6840   21.9550  -31.8960 C   0  0  0  0  0  0  0  0  0  0  0  0
   -9.3000   20.7860  -32.3290 C   0  0  0  0  0  0  0  0  0  0  0  0
   -8.5690   19.7970  -32.9010 N   0  0  0  0  0  0  0  0  0  0  0  0
   -7.2210   19.9110  -33.0730 C   0  0  0  0  0  0  0  0  0  0  0  0
   -6.5040   18.8560  -33.6610 C   0  0  0  0  0  0  0  0  0  0  0  0
   -5.1200   18.9460  -33.8380 C   0  0  0  0  0  0  0  0  0  0  0  0
   -4.3660   17.8240  -34.4890 C   0  0  0  0  0  0  0  0  0  0  0  0
   -4.4520   20.1130  -33.4560 C   0  0  0  0  0  0  0  0  0  0  0  0
   -5.1460   21.1670  -32.8570 C   0  0  0  0  0  0  0  0  0  0  0  0
   -6.5430   21.0880  -32.6540 C   0  0  0  0  0  0  0  0  0  0  0  0
   -2.2066   20.5063  -32.4319 H   0  0  0  0  0  0  0  0  0  0  0  0
   -2.2034   22.2122  -32.9944 H   0  0  0  0  0  0  0  0  0  0  0  0
   -0.6780   21.2637  -32.9944 H   0  0  0  0  0  0  0  0  0  0  0  0
   -0.9851   21.0555  -30.4433 H   0  0  0  0  0  0  0  0  0  0  0  0
   -0.5585   22.6867  -31.0700 H   0  0  0  0  0  0  0  0  0  0  0  0
   -4.4600   21.7514  -29.8512 H   0  0  0  0  0  0  0  0  0  0  0  0
   -3.2400   20.4914  -30.3842 H   0  0  0  0  0  0  0  0  0  0  0  0
   -3.7150   21.6822  -27.6837 H   0  0  0  0  0  0  0  0  0  0  0  0
   -3.1982   20.0295  -28.1612 H   0  0  0  0  0  0  0  0  0  0  0  0
   -2.0105   21.3771  -28.1612 H   0  0  0  0  0  0  0  0  0  0  0  0
   -1.9371   23.2745  -28.5934 H   0  0  0  0  0  0  0  0  0  0  0  0
   -1.5238   24.2472  -30.0747 H   0  0  0  0  0  0  0  0  0  0  0  0
   -4.3759   23.8812  -29.0698 H   0  0  0  0  0  0  0  0  0  0  0  0
   -3.3003   25.2469  -28.5641 H   0  0  0  0  0  0  0  0  0  0  0  0
   -5.5640   26.3952  -30.6547 H   0  0  0  0  0  0  0  0  0  0  0  0
   -5.5484   24.9330  -31.6917 H   0  0  0  0  0  0  0  0  0  0  0  0
   -5.2338   24.2972  -28.8230 H   0  0  0  0  0  0  0  0  0  0  0  0
   -6.7736   25.1714  -29.1898 H   0  0  0  0  0  0  0  0  0  0  0  0
   -7.3866   24.2529  -31.7528 H   0  0  0  0  0  0  0  0  0  0  0  0
   -5.7260   23.5739  -31.9830 H   0  0  0  0  0  0  0  0  0  0  0  0
   -9.2855   22.7486  -31.4286 H   0  0  0  0  0  0  0  0  0  0  0  0
  -10.3862   20.6626  -32.2070 H   0  0  0  0  0  0  0  0  0  0  0  0
   -9.0670   18.9300  -33.2100 H   0  0  0  0  0  0  0  0  0  0  0  0
   -7.0367   17.9499  -33.9855 H   0  0  0  0  0  0  0  0  0  0  0  0
   -3.9308   17.1763  -33.7137 H   0  0  0  0  0  0  0  0  0  0  0  0
   -5.0527   17.2356  -35.1153 H   0  0  0  0  0  0  0  0  0  0  0  0
   -3.5618   18.2375  -35.1153 H   0  0  0  0  0  0  0  0  0  0  0  0
   -3.3693   20.2022  -33.6288 H   0  0  0  0  0  0  0  0  0  0  0  0
   -4.6000   22.0678  -32.5400 H   0  0  0  0  0  0  0  0  0  0  0  0
  1  2  1  0
  2  3  1  0
  3  4  1  0
  4  5  1  0
  3  6  1  0
  6  7  1  0
  7  8  1  0
  8  9  1  0
  9 10  1  0
 10 11  1  0
 11 12  1  0
 12 13  1  0
 13 14  2  0
 14 15  1  0
 15 16  2  0
 16 17  1  0
 17 18  2  0
 18 19  1  0
 19 20  1  0
 19 21  2  0
 21 22  1  0
 22 23  2  0
 23 13  1  0
 23 17  1  0
  1 24  1  0
  1 25  1  0
  1 26  1  0
  2 27  1  0
  2 28  1  0
  4 29  1  0
  4 30  1  0
  5 31  1  0
  5 32  1  0
  5 33  1  0
  6 34  1  0
  6 35  1  0
  7 36  1  0
  7 37  1  0
  9 38  1  0
  9 39  1  0
 10 40  1  0
 10 41  1  0
 12 42  1  0
 12 43  1  0
 14 44  1  0
 15 45  1  0
 16 46  1  0
 18 47  1  0
 20 48  1  0
 20 49  1  0
 20 50  1  0
 21 51  1  0
 22 52  1  0
M  CHG  1  16   1
M  END
>  <UniqueID>  (12) 
12

>  <SMILES>  (12) 
CCN(CC)CCOCCOCc1cc[nH+]c2cc(C)ccc12

>  <Energy>  (12) 
59.447793281241154

>  <Genealogy>  (12) 
CCN(CC)CCOCCOCc1cc[nH+]c2cc(C)ccc12 (protonated)
CCN(CC)CCOCCOCc1cc[nH+]c2cc(C)ccc12 (3D coordinates assigned)
CCN(CC)CCOCCOCc1cc[nH+]c2cc(C)ccc12 (optimized conformer: 59.447793281241154 kcal/mol)

>  <smiles>  (12) 
CCN(CC)CCOCCOCc1ccnc2cc(C)ccc12

>  <score_type>  (12) 
oracle

>  <origin>  (12) 
adg

>  <m_score__min__energy>  (12) 
-7.4500000000000002

>  <m_primary>  (12) 
energy

$$$$
12:0
     RDKit          3D

 35 37  0  0  0  0  0  0  0  0999 V2000
   -8.1400   23.0000  -31.9760 C   0  0  0  0  0  0  0  0  0  0  0  0
   -8.0970   21.5110  -32.1520 C   0  0  0  0  0  0  0  0  0  0  0  0
   -9.1950   20.7230  -31.7800 C   0  0  0  0  0  0  0  0  0  0  0  0
   -9.1660   19.3400  -31.9710 C   0  0  0  0  0  0  0  0  0  0  0  0
   -8.0490   18.7350  -32.5520 C   0  0  0  0  0  0  0  0  0  0  0  0
   -6.9560   19.5140  -32.9630 C   0  0  0  0  0  0  0  0  0  0  0  0
   -5.7660   18.8800  -33.5660 C   0  0  0  0  0  0  0  0  0  0  0  0
   -5.8790   17.8020  -34.4410 C   0  0  0  0  0  0  0  0  0  0  0  0
   -4.3420   17.3670  -34.9530 S   0  0  0  0  0  0  0  0  0  0  0  0
   -3.5030   18.5300  -34.0770 C   0  0  0  0  0  0  0  0  0  0  0  0
   -4.4260   19.2810  -33.3420 C   0  0  0  0  0  0  0  0  0  0  0  0
   -3.9970   20.3300  -32.3520 C   0  0  0  0  0  0  0  0  0  0  0  0
   -3.3030   21.5280  -33.0280 C   0  0  0  0  0  0  0  0  0  0  0  0
   -2.3150   21.1580  -34.0640 N   0  0  0  0  0  0  0  0  0  0  0  0
   -1.4440   20.0350  -33.6660 C   0  0  0  0  0  0  0  0  0  0  0  0
   -2.0010   18.6570  -34.0940 C   0  0  0  0  0  0  0  0  0  0  0  0
   -6.9820   20.9030  -32.7530 C   0  0  0  0  0  0  0  0  0  0  0  0
   -8.1470   23.2423  -30.9030 H   0  0  0  0  0  0  0  0  0  0  0  0
   -7.2545   23.4507  -32.4479 H   0  0  0  0  0  0  0  0  0  0  0  0
   -9.0500   23.3989  -32.4479 H   0  0  0  0  0  0  0  0  0  0  0  0
  -10.0832   21.1960  -31.3358 H   0  0  0  0  0  0  0  0  0  0  0  0
  -10.0249   18.7255  -31.6632 H   0  0  0  0  0  0  0  0  0  0  0  0
   -8.0258   17.6437  -32.6880 H   0  0  0  0  0  0  0  0  0  0  0  0
   -6.8185   17.3174  -34.7452 H   0  0  0  0  0  0  0  0  0  0  0  0
   -4.8857   20.6935  -31.8154 H   0  0  0  0  0  0  0  0  0  0  0  0
   -3.2727   19.8668  -31.6658 H   0  0  0  0  0  0  0  0  0  0  0  0
   -4.0765   22.1530  -33.4982 H   0  0  0  0  0  0  0  0  0  0  0  0
   -2.7469   22.0545  -32.2384 H   0  0  0  0  0  0  0  0  0  0  0  0
   -1.7110   21.9970  -34.2340 H   0  0  0  0  0  0  0  0  0  0  0  0
   -2.8000   20.9550  -34.9680 H   0  0  0  0  0  0  0  0  0  0  0  0
   -0.4574   20.1744  -34.1320 H   0  0  0  0  0  0  0  0  0  0  0  0
   -1.3836   20.0387  -32.5677 H   0  0  0  0  0  0  0  0  0  0  0  0
   -1.6555   18.4553  -35.1187 H   0  0  0  0  0  0  0  0  0  0  0  0
   -1.6288   17.9368  -33.3505 H   0  0  0  0  0  0  0  0  0  0  0  0
   -6.1239   21.5184  -33.0611 H   0  0  0  0  0  0  0  0  0  0  0  0
  1  2  1  0
  2  3  2  0
  3  4  1  0
  4  5  2  0
  5  6  1  0
  6  7  1  0
  7  8  2  0
  8  9  1  0
  9 10  1  0
 10 11  2  0
 11 12  1  0
 12 13  1  0
 13 14  1  0
 14 15  1  0
 15 16  1  0
  6 17  2  0
 17  2  1  0
 11  7  1  0
 16 10  1  0
  1 18  1  0
  1 19  1  0
  1 20  1  0
  3 21  1  0
  4 22  1  0
  5 23  1  0
  8 24  1  0
 12 25  1  0
 12 26  1  0
 13 27  1  0
 13 28  1  0
 14 29  1  0
 14 30  1  0
 15 31  1  0
 15 32  1  0
 16 33  1  0
 16 34  1  0
 17 35  1  0
M  CHG  1  14   1
M  END
>  <UniqueID>  (13) 
13

>  <SMILES>  (13) 
Cc1cccc(-c2csc3c2CC[NH2+]CC3)c1

>  <Energy>  (13) 
75.1132503396707

>  <Genealogy>  (13) 
Cc1cccc(-c2csc3c2CC[NH2+]CC3)c1 (protonated)
Cc1cccc(-c2csc3c2CC[NH2+]CC3)c1 (3D coordinates assigned)
Cc1cccc(-c2csc3c2CC[NH2+]CC3)c1 (nonaromatic ring conformer: 75.1132503396707 kcal/mol)

>  <smiles>  (13) 
Cc1cccc(-c2csc3c2CCNCC3)c1

>  <score_type>  (13) 
oracle

>  <origin>  (13) 
adg

>  <m_score__min__energy>  (13) 
-5.5899999999999999

>  <m_primary>  (13) 
energy

$$$$
13:0
     RDKit          3D

 54 56  0  0  0  0  0  0  0  0999 V2000
   -5.8920   16.1000  -33.3670 C   0  0  0  0  0  0  0  0  0  0  0  0
   -6.4580   17.2300  -34.2270 C   0  0  0  0  0  0  0  0  0  0  0  0
   -6.6440   18.5110  -33.4350 C   0  0  0  0  0  0  0  0  0  0  0  0
   -7.9320   18.8190  -32.9690 C   0  0  0  0  0  0  0  0  0  0  0  0
   -8.1740   19.9880  -32.2550 C   0  0  0  0  0  0  0  0  0  0  0  0
   -7.1220   20.8490  -31.9320 C   0  0  0  0  0  0  0  0  0  0  0  0
   -7.3680   22.0120  -31.2000 C   0  0  0  0  0  0  0  0  0  0  0  0
   -6.3040   22.8500  -30.8440 C   0  0  0  0  0  0  0  0  0  0  0  0
   -6.5690   24.0240  -30.1290 C   0  0  0  0  0  0  0  0  0  0  0  0
   -5.5210   24.8480  -29.7460 C   0  0  0  0  0  0  0  0  0  0  0  0
   -4.2010   24.5090  -30.0750 C   0  0  0  0  0  0  0  0  0  0  0  0
   -3.1130   25.2870  -29.6500 O   0  0  0  0  0  0  0  0  0  0  0  0
   -2.2140   24.9250  -28.6060 C   0  0  0  0  0  0  0  0  0  0  0  0
   -3.9640   23.3400  -30.8260 C   0  0  0  0  0  0  0  0  0  0  0  0
   -2.6540   23.0020  -31.2040 O   0  0  0  0  0  0  0  0  0  0  0  0
   -1.8070   22.1710  -30.4140 C   0  0  0  0  0  0  0  0  0  0  0  0
   -5.0100   22.5170  -31.1810 N   0  0  0  0  0  0  0  0  0  0  0  0
   -4.7620   21.3700  -31.8890 C   0  0  0  0  0  0  0  0  0  0  0  0
   -5.8060   20.5370  -32.3320 C   0  0  0  0  0  0  0  0  0  0  0  0
   -5.5690   19.3920  -33.1410 C   0  0  0  0  0  0  0  0  0  0  0  0
   -4.2590   19.1330  -33.6850 N   0  0  0  0  0  0  0  0  0  0  0  0
   -3.2820   18.2170  -33.0760 C   0  0  0  0  0  0  0  0  0  0  0  0
   -1.8280   18.6710  -33.2870 C   0  0  0  0  0  0  0  0  0  0  0  0
   -1.7520   19.8190  -34.2180 N   0  0  0  0  0  0  0  0  0  0  0  0
   -1.8730   21.1010  -33.5000 C   0  0  0  0  0  0  0  0  0  0  0  0
   -0.4870   19.7940  -34.9700 C   0  0  0  0  0  0  0  0  0  0  0  0
   -6.0175   16.3506  -32.3033 H   0  0  0  0  0  0  0  0  0  0  0  0
   -6.4286   15.1659  -33.5894 H   0  0  0  0  0  0  0  0  0  0  0  0
   -4.8226   15.9704  -33.5894 H   0  0  0  0  0  0  0  0  0  0  0  0
   -5.7646   17.4245  -35.0585 H   0  0  0  0  0  0  0  0  0  0  0  0
   -7.4446   16.9134  -34.5962 H   0  0  0  0  0  0  0  0  0  0  0  0
   -8.7618   18.1259  -33.1714 H   0  0  0  0  0  0  0  0  0  0  0  0
   -9.1992   20.2360  -31.9429 H   0  0  0  0  0  0  0  0  0  0  0  0
   -8.3955   22.2696  -30.9035 H   0  0  0  0  0  0  0  0  0  0  0  0
   -7.6044   24.2920  -29.8719 H   0  0  0  0  0  0  0  0  0  0  0  0
   -5.7262   25.7701  -29.1825 H   0  0  0  0  0  0  0  0  0  0  0  0
   -2.6877   25.1157  -27.6317 H   0  0  0  0  0  0  0  0  0  0  0  0
   -1.9655   23.8567  -28.6901 H   0  0  0  0  0  0  0  0  0  0  0  0
   -1.2946   25.5230  -28.6901 H   0  0  0  0  0  0  0  0  0  0  0  0
   -1.9994   22.3598  -29.3475 H   0  0  0  0  0  0  0  0  0  0  0  0
   -2.0130   21.1149  -30.6424 H   0  0  0  0  0  0  0  0  0  0  0  0
   -0.7550   22.3971  -30.6424 H   0  0  0  0  0  0  0  0  0  0  0  0
   -3.7218   21.0939  -32.1164 H   0  0  0  0  0  0  0  0  0  0  0  0
   -3.9370   19.7150  -34.4900 H   0  0  0  0  0  0  0  0  0  0  0  0
   -3.4793   18.1605  -31.9953 H   0  0  0  0  0  0  0  0  0  0  0  0
   -3.3974   17.2377  -33.5635 H   0  0  0  0  0  0  0  0  0  0  0  0
   -1.4010   18.9672  -32.3175 H   0  0  0  0  0  0  0  0  0  0  0  0
   -1.2628   17.8336  -33.7221 H   0  0  0  0  0  0  0  0  0  0  0  0
   -1.8556   20.9170  -32.4156 H   0  0  0  0  0  0  0  0  0  0  0  0
   -1.0327   21.7556  -33.7743 H   0  0  0  0  0  0  0  0  0  0  0  0
   -2.8210   21.5868  -33.7743 H   0  0  0  0  0  0  0  0  0  0  0  0
    0.3579   19.7773  -34.2658 H   0  0  0  0  0  0  0  0  0  0  0  0
   -0.4545   18.8950  -35.6031 H   0  0  0  0  0  0  0  0  0  0  0  0
   -0.4190   20.6910  -35.6031 H   0  0  0  0  0  0  0  0  0  0  0  0
  1  2  1  0
  2  3  1  0
  3  4  2  0
  4  5  1  0
  5  6  2  0
  6  7  1  0
  7  8  2  0
  8  9  1  0
  9 10  2  0
 10 11  1  0
 11 12  1  0
 12 13  1  0
 11 14  2  0
 14 15  1  0
 15 16  1  0
 14 17  1  0
 17 18  2  0
 18 19  1  0
 19 20  2  0
 20 21  1  0
 21 22  1  0
 22 23  1  0
 23 24  1  0
 24 25  1  0
 24 26  1  0
 20  3  1  0
 19  6  1  0
 17  8  1  0
  1 27  1  0
  1 28  1  0
  1 29  1  0
  2 30  1  0
  2 31  1  0
  4 32  1  0
  5 33  1  0
  7 34  1  0
  9 35  1  0
 10 36  1  0
 13 37  1  0
 13 38  1  0
 13 39  1  0
 16 40  1  0
 16 41  1  0
 16 42  1  0
 18 43  1  0
 21 44  1  0
 22 45  1  0
 22 46  1  0
 23 47  1  0
 23 48  1  0
 25 49  1  0
 25 50  1  0
 25 51  1  0
 26 52  1  0
 26 53  1  0
 26 54  1  0
M  CHG  1  17   1
M  END
>  <UniqueID>  (14) 
14

>  <SMILES>  (14) 
CCc1ccc2cc3ccc(OC)c(OC)[n+]3cc2c1NCCN(C)C

>  <Energy>  (14) 
71.75475137871854

>  <Genealogy>  (14) 
CCc1ccc2cc3ccc(OC)c(OC)[n+]3cc2c1NCCN(C)C (3D coordinates assigned)
CCc1ccc2cc3ccc(OC)c(OC)[n+]3cc2c1NCCN(C)C (optimized conformer: 71.75475137871854 kcal/mol)

>  <smiles>  (14) 
CCc1ccc2cc3ccc(OC)c(OC)[n+]3cc2c1NCCN(C)C

>  <score_type>  (14) 
oracle

>  <origin>  (14) 
adg

>  <m_score__min__energy>  (14) 
-7.75

>  <m_primary>  (14) 
energy

$$$$
14:0
     RDKit          3D

 61 64  0  0  0  0  0  0  0  0999 V2000
    0.7450   28.4460  -26.3360 C   0  0  0  0  0  0  0  0  0  0  0  0
    0.6700   27.0280  -26.4110 O   0  0  0  0  0  0  0  0  0  0  0  0
   -0.5120   26.3040  -26.6360 C   0  0  0  0  0  0  0  0  0  0  0  0
   -0.7240   25.5720  -27.8180 C   0  0  0  0  0  0  0  0  0  0  0  0
   -1.9270   24.8850  -28.0310 C   0  0  0  0  0  0  0  0  0  0  0  0
   -2.9330   24.9270  -27.0480 C   0  0  0  0  0  0  0  0  0  0  0  0
   -2.7090   25.6290  -25.8560 C   0  0  0  0  0  0  0  0  0  0  0  0
   -1.5050   26.3250  -25.6470 C   0  0  0  0  0  0  0  0  0  0  0  0
   -1.2580   27.0550  -24.4740 O   0  0  0  0  0  0  0  0  0  0  0  0
   -0.4670   26.5870  -23.3860 C   0  0  0  0  0  0  0  0  0  0  0  0
   -4.2190   24.1640  -27.2270 C   0  0  0  0  0  0  0  0  0  0  0  0
   -4.5350   23.9450  -28.6470 N   0  0  0  0  0  0  0  0  0  0  0  0
   -5.4040   24.9430  -29.3160 C   0  0  0  0  0  0  0  0  0  0  0  0
   -5.8040   24.6160  -30.7740 C   0  0  0  0  0  0  0  0  0  0  0  0
   -6.2560   23.2180  -30.9460 N   0  0  0  0  0  0  0  0  0  0  0  0
   -5.3840   22.5170  -31.9100 C   0  0  0  0  0  0  0  0  0  0  0  0
   -5.6630   21.0080  -31.8820 C   0  0  0  0  0  0  0  0  0  0  0  0
   -7.1690   20.6970  -31.7590 C   0  0  0  0  0  0  0  0  0  0  0  0
   -7.5410   19.4980  -32.4530 O   0  0  0  0  0  0  0  0  0  0  0  0
   -6.7040   18.4950  -32.9780 C   0  0  0  0  0  0  0  0  0  0  0  0
   -6.1020   18.7440  -34.2210 C   0  0  0  0  0  0  0  0  0  0  0  0
   -5.2610   17.7960  -34.8110 C   0  0  0  0  0  0  0  0  0  0  0  0
   -5.0140   16.5810  -34.1640 C   0  0  0  0  0  0  0  0  0  0  0  0
   -3.8680   15.2840  -34.9710 Br  0  0  0  0  0  0  0  0  0  0  0  0
   -5.6090   16.3170  -32.9280 C   0  0  0  0  0  0  0  0  0  0  0  0
   -6.4490   17.2640  -32.3350 C   0  0  0  0  0  0  0  0  0  0  0  0
   -8.0680   21.8860  -32.1360 C   0  0  0  0  0  0  0  0  0  0  0  0
   -7.6900   23.1560  -31.3420 C   0  0  0  0  0  0  0  0  0  0  0  0
   -3.4310   23.3670  -29.4310 C   0  0  0  0  0  0  0  0  0  0  0  0
   -2.1360   24.1890  -29.3530 C   0  0  0  0  0  0  0  0  0  0  0  0
    0.7615   28.7570  -25.2810 H   0  0  0  0  0  0  0  0  0  0  0  0
    1.6627   28.7915  -26.8345 H   0  0  0  0  0  0  0  0  0  0  0  0
   -0.1311   28.8864  -26.8345 H   0  0  0  0  0  0  0  0  0  0  0  0
    0.0640   25.5382  -28.5848 H   0  0  0  0  0  0  0  0  0  0  0  0
   -3.4836   25.6357  -25.0750 H   0  0  0  0  0  0  0  0  0  0  0  0
   -0.9452   26.8699  -22.4367 H   0  0  0  0  0  0  0  0  0  0  0  0
   -0.3798   25.4918  -23.4405 H   0  0  0  0  0  0  0  0  0  0  0  0
    0.5349   27.0378  -23.4405 H   0  0  0  0  0  0  0  0  0  0  0  0
   -4.1253   23.1876  -26.7291 H   0  0  0  0  0  0  0  0  0  0  0  0
   -5.0320   24.7587  -26.7851 H   0  0  0  0  0  0  0  0  0  0  0  0
   -6.3273   25.0367  -28.7254 H   0  0  0  0  0  0  0  0  0  0  0  0
   -4.8114   25.8683  -29.3686 H   0  0  0  0  0  0  0  0  0  0  0  0
   -6.6213   25.2887  -31.0732 H   0  0  0  0  0  0  0  0  0  0  0  0
   -4.9107   24.7541  -31.4008 H   0  0  0  0  0  0  0  0  0  0  0  0
   -5.5777   22.9030  -32.9217 H   0  0  0  0  0  0  0  0  0  0  0  0
   -4.3335   22.6916  -31.6345 H   0  0  0  0  0  0  0  0  0  0  0  0
   -5.2834   20.5601  -32.8122 H   0  0  0  0  0  0  0  0  0  0  0  0
   -5.1577   20.5870  -31.0003 H   0  0  0  0  0  0  0  0  0  0  0  0
   -7.3439   20.5130  -30.6887 H   0  0  0  0  0  0  0  0  0  0  0  0
   -6.2942   19.6962  -34.7370 H   0  0  0  0  0  0  0  0  0  0  0  0
   -4.7934   18.0057  -35.7843 H   0  0  0  0  0  0  0  0  0  0  0  0
   -5.4159   15.3608  -32.4197 H   0  0  0  0  0  0  0  0  0  0  0  0
   -6.9141   17.0489  -31.3616 H   0  0  0  0  0  0  0  0  0  0  0  0
   -7.9577   22.0907  -33.2112 H   0  0  0  0  0  0  0  0  0  0  0  0
   -9.1079   21.6233  -31.8919 H   0  0  0  0  0  0  0  0  0  0  0  0
   -7.9149   24.0337  -31.9658 H   0  0  0  0  0  0  0  0  0  0  0  0
   -8.2766   23.1362  -30.4117 H   0  0  0  0  0  0  0  0  0  0  0  0
   -3.2257   22.3550  -29.0518 H   0  0  0  0  0  0  0  0  0  0  0  0
   -3.7487   23.3581  -30.4841 H   0  0  0  0  0  0  0  0  0  0  0  0
   -1.2862   23.5120  -29.5251 H   0  0  0  0  0  0  0  0  0  0  0  0
   -2.2135   24.9763  -30.1173 H   0  0  0  0  0  0  0  0  0  0  0  0
  1  2  1  0
  2  3  1  0
  3  4  2  0
  4  5  1  0
  5  6  2  0
  6  7  1  0
  7  8  2  0
  8  9  1  0
  9 10  1  0
  6 11  1  0
 11 12  1  0
 12 13  1  0
 13 14  1  0
 14 15  1  0
 15 16  1  0
 16 17  1  0
 17 18  1  0
 18 19  1  0
 19 20  1  0
 20 21  2  0
 21 22  1  0
 22 23  2  0
 23 24  1  0
 23 25  1  0
 25 26  2  0
 18 27  1  0
 27 28  1  0
 12 29  1  0
 29 30  1  0
  8  3  1  0
 28 15  1  0
 30  5  1  0
 26 20  1  0
  1 31  1  0
  1 32  1  0
  1 33  1  0
  4 34  1  0
  7 35  1  0
 10 36  1  0
 10 37  1  0
 10 38  1  0
 11 39  1  0
 11 40  1  0
 13 41  1  0
 13 42  1  0
 14 43  1  0
 14 44  1  0
 16 45  1  0
 16 46  1  0
 17 47  1  0
 17 48  1  0
 18 49  1  0
 21 50  1  0
 22 51  1  0
 25 52  1  0
 26 53  1  0
 27 54  1  0
 27 55  1  0
 28 56  1  0
 28 57  1  0
 29 58  1  0
 29 59  1  0
 30 60  1  0
 30 61  1  0
M  END
>  <UniqueID>  (15) 
15

>  <SMILES>  (15) 
COc1cc2c(cc1OC)CN(CCN1CCC(Oc3ccc(Br)cc3)CC1)CC2

>  <Energy>  (15) 
82.80141123974387

>  <Genealogy>  (15) 
COc1cc2c(cc1OC)CN(CCN1CCC(Oc3ccc(Br)cc3)CC1)CC2 (3D coordinates assigned)
COc1cc2c(cc1OC)CN(CCN1CCC(Oc3ccc(Br)cc3)CC1)CC2 (nonaromatic ring conformer: 82.80141123974387 kcal/mol)

>  <smiles>  (15) 
COc1cc2c(cc1OC)CN(CCN1CCC(Oc3ccc(Br)cc3)CC1)CC2

>  <score_type>  (15) 
oracle

>  <origin>  (15) 
adg

>  <m_score__min__energy>  (15) 
-9.2100000000000009

>  <m_primary>  (15) 
energy

$$$$
15:0
     RDKit          3D

 54 57  0  0  0  0  0  0  0  0999 V2000
   -6.5300   24.1510  -30.1210 C   0  0  0  0  0  0  0  0  0  0  0  0
   -5.7130   25.2950  -30.7290 C   0  0  0  0  0  0  0  0  0  0  0  0
   -4.3260   24.9040  -31.0260 N   0  0  0  0  0  0  0  0  0  0  0  0
   -3.5510   24.6310  -29.8080 C   0  0  0  0  0  0  0  0  0  0  0  0
   -2.7310   23.3470  -29.9740 C   0  0  0  0  0  0  0  0  0  0  0  0
   -3.3300   22.4210  -31.0440 C   0  0  0  0  0  0  0  0  0  0  0  0
   -2.2490   21.8210  -31.9490 C   0  0  0  0  0  0  0  0  0  0  0  0
   -2.7860   21.5070  -33.2710 N   0  0  0  0  0  0  0  0  0  0  0  0
   -3.6630   20.3870  -33.4490 C   0  0  0  0  0  0  0  0  0  0  0  0
   -5.0220   20.5190  -33.1820 C   0  0  0  0  0  0  0  0  0  0  0  0
   -5.8760   19.4380  -33.3010 C   0  0  0  0  0  0  0  0  0  0  0  0
   -5.4550   18.2300  -33.7990 N   0  0  0  0  0  0  0  0  0  0  0  0
   -6.4410   17.2190  -34.2120 C   0  0  0  0  0  0  0  0  0  0  0  0
   -4.0940   18.0240  -33.9660 C   0  0  0  0  0  0  0  0  0  0  0  0
   -3.5680   16.7430  -34.2680 C   0  0  0  0  0  0  0  0  0  0  0  0
   -2.2010   16.5600  -34.4760 C   0  0  0  0  0  0  0  0  0  0  0  0
   -1.3250   17.6360  -34.3810 C   0  0  0  0  0  0  0  0  0  0  0  0
   -1.8030   18.9030  -34.0510 C   0  0  0  0  0  0  0  0  0  0  0  0
   -3.1760   19.1120  -33.8160 C   0  0  0  0  0  0  0  0  0  0  0  0
   -7.2000   19.8610  -32.8240 C   0  0  0  0  0  0  0  0  0  0  0  0
   -8.3620   19.1310  -32.5340 C   0  0  0  0  0  0  0  0  0  0  0  0
   -9.4690   19.8090  -31.9980 C   0  0  0  0  0  0  0  0  0  0  0  0
   -9.3930   21.1840  -31.7170 C   0  0  0  0  0  0  0  0  0  0  0  0
   -8.2030   21.8880  -31.9480 C   0  0  0  0  0  0  0  0  0  0  0  0
   -7.1150   21.2040  -32.4910 C   0  0  0  0  0  0  0  0  0  0  0  0
   -5.7370   21.7440  -32.6950 C   0  0  0  0  0  0  0  0  0  0  0  0
   -6.4863   24.2122  -29.0236 H   0  0  0  0  0  0  0  0  0  0  0  0
   -7.5761   24.2316  -30.4514 H   0  0  0  0  0  0  0  0  0  0  0  0
   -6.1143   23.1876  -30.4514 H   0  0  0  0  0  0  0  0  0  0  0  0
   -6.1966   25.6153  -31.6636 H   0  0  0  0  0  0  0  0  0  0  0  0
   -5.6787   26.1093  -29.9902 H   0  0  0  0  0  0  0  0  0  0  0  0
   -3.8580   25.6700  -31.5660 H   0  0  0  0  0  0  0  0  0  0  0  0
   -2.8705   25.4734  -29.6148 H   0  0  0  0  0  0  0  0  0  0  0  0
   -4.2450   24.5049  -28.9639 H   0  0  0  0  0  0  0  0  0  0  0  0
   -1.7057   23.6151  -30.2688 H   0  0  0  0  0  0  0  0  0  0  0  0
   -2.7391   22.8099  -29.0140 H   0  0  0  0  0  0  0  0  0  0  0  0
   -3.8703   21.6032  -30.5447 H   0  0  0  0  0  0  0  0  0  0  0  0
   -4.0077   23.0183  -31.6717 H   0  0  0  0  0  0  0  0  0  0  0  0
   -1.4281   22.5452  -32.0572 H   0  0  0  0  0  0  0  0  0  0  0  0
   -1.8848   20.8904  -31.4893 H   0  0  0  0  0  0  0  0  0  0  0  0
   -2.8290   22.2770  -33.9770 H   0  0  0  0  0  0  0  0  0  0  0  0
   -6.8900   16.7587  -33.3195 H   0  0  0  0  0  0  0  0  0  0  0  0
   -7.2281   17.6983  -34.8126 H   0  0  0  0  0  0  0  0  0  0  0  0
   -5.9421   16.4442  -34.8126 H   0  0  0  0  0  0  0  0  0  0  0  0
   -4.2475   15.8809  -34.3394 H   0  0  0  0  0  0  0  0  0  0  0  0
   -1.8136   15.5590  -34.7165 H   0  0  0  0  0  0  0  0  0  0  0  0
   -0.2512   17.4866  -34.5669 H   0  0  0  0  0  0  0  0  0  0  0  0
   -1.1019   19.7471  -33.9734 H   0  0  0  0  0  0  0  0  0  0  0  0
   -8.4054   18.0482  -32.7228 H   0  0  0  0  0  0  0  0  0  0  0  0
  -10.4011   19.2606  -31.7969 H   0  0  0  0  0  0  0  0  0  0  0  0
  -10.2711   21.7100  -31.3141 H   0  0  0  0  0  0  0  0  0  0  0  0
   -8.1285   22.9585  -31.7060 H   0  0  0  0  0  0  0  0  0  0  0  0
   -5.7242   22.5459  -33.4478 H   0  0  0  0  0  0  0  0  0  0  0  0
   -5.2922   22.2045  -31.8005 H   0  0  0  0  0  0  0  0  0  0  0  0
  1  2  1  0
  2  3  1  0
  3  4  1  0
  4  5  1  0
  5  6  1  0
  6  7  1  0
  7  8  1  0
  8  9  1  0
  9 10  2  0
 10 11  1  0
 11 12  2  0
 12 13  1  0
 12 14  1  0
 14 15  2  0
 15 16  1  0
 16 17  2  0
 17 18  1  0
 18 19  2  0
 11 20  1  0
 20 21  2  0
 21 22  1  0
 22 23  2  0
 23 24  1  0
 24 25  2  0
 25 26  1  0
 19  9  1  0
 25 20  1  0
 26 10  1  0
 19 14  1  0
  1 27  1  0
  1 28  1  0
  1 29  1  0
  2 30  1  0
  2 31  1  0
  3 32  1  0
  4 33  1  0
  4 34  1  0
  5 35  1  0
  5 36  1  0
  6 37  1  0
  6 38  1  0
  7 39  1  0
  7 40  1  0
  8 41  1  0
 13 42  1  0
 13 43  1  0
 13 44  1  0
 15 45  1  0
 16 46  1  0
 17 47  1  0
 18 48  1  0
 21 49  1  0
 22 50  1  0
 23 51  1  0
 24 52  1  0
 26 53  1  0
 26 54  1  0
M  CHG  1  12   1
M  END
>  <UniqueID>  (16) 
16

>  <SMILES>  (16) 
CCNCCCCNc1c2c([n+](C)c3ccccc13)-c1ccccc1C2

>  <Energy>  (16) 
91.19508197176468

>  <Genealogy>  (16) 
CCNCCCCNc1c2c([n+](C)c3ccccc13)-c1ccccc1C2 (3D coordinates assigned)
CCNCCCCNc1c2c([n+](C)c3ccccc13)-c1ccccc1C2 (nonaromatic ring conformer: 91.19508197176468 kcal/mol)

>  <smiles>  (16) 
CCNCCCCNc1c2c([n+](C)c3ccccc13)-c1ccccc1C2

>  <score_type>  (16) 
oracle

>  <origin>  (16) 
adg

>  <m_score__min__energy>  (16) 
-10.029999999999999

>  <m_primary>  (16) 
energy

$$$$
16:0
     RDKit          3D

 76 79  0  0  0  0  0  0  0  0999 V2000
   -6.4510   25.3190  -29.7570 C   0  0  0  0  0  0  0  0  0  0  0  0
   -5.3890   25.2970  -30.8530 C   0  0  0  0  0  0  0  0  0  0  0  0
   -4.2200   24.5040  -30.4000 N   0  0  0  0  0  0  0  0  0  0  0  0
   -4.1170   23.2520  -31.1700 C   0  0  0  0  0  0  0  0  0  0  0  0
   -4.2730   24.2070  -28.9520 C   0  0  0  0  0  0  0  0  0  0  0  0
   -2.9340   24.5290  -28.2670 C   0  0  0  0  0  0  0  0  0  0  0  0
   -1.8150   23.5330  -28.6610 C   0  0  0  0  0  0  0  0  0  0  0  0
   -1.6010   22.4560  -27.6700 N   0  0  0  0  0  0  0  0  0  0  0  0
   -2.2580   21.1840  -28.0450 C   0  0  0  0  0  0  0  0  0  0  0  0
   -1.6530   19.9990  -27.2870 C   0  0  0  0  0  0  0  0  0  0  0  0
   -0.2060   19.8310  -27.5750 N   0  0  0  0  0  0  0  0  0  0  0  0
    0.0290   18.9010  -28.7020 C   0  0  0  0  0  0  0  0  0  0  0  0
   -0.4550   19.5060  -30.0280 C   0  0  0  0  0  0  0  0  0  0  0  0
    0.1400   18.7440  -31.2170 C   0  0  0  0  0  0  0  0  0  0  0  0
    0.3290   19.6520  -32.3690 N   0  0  0  0  0  0  0  0  0  0  0  0
   -0.3960   20.9260  -32.2400 C   0  0  0  0  0  0  0  0  0  0  0  0
   -1.9270   20.7780  -32.3320 C   0  0  0  0  0  0  0  0  0  0  0  0
   -2.3890   19.6770  -33.2020 N   0  0  0  0  0  0  0  0  0  0  0  0
   -3.8140   19.5160  -33.3930 C   0  0  0  0  0  0  0  0  0  0  0  0
   -4.7530   20.2860  -32.7930 N   0  0  0  0  0  0  0  0  0  0  0  0
   -6.0260   19.9420  -33.1470 C   0  0  0  0  0  0  0  0  0  0  0  0
   -7.2170   20.6590  -32.6240 C   0  0  0  0  0  0  0  0  0  0  0  0
   -7.1110   21.9840  -32.1570 C   0  0  0  0  0  0  0  0  0  0  0  0
   -8.2290   22.6490  -31.6430 C   0  0  0  0  0  0  0  0  0  0  0  0
   -9.4670   22.0030  -31.5970 C   0  0  0  0  0  0  0  0  0  0  0  0
   -9.5870   20.6920  -32.0650 C   0  0  0  0  0  0  0  0  0  0  0  0
   -8.4700   20.0200  -32.5750 C   0  0  0  0  0  0  0  0  0  0  0  0
   -6.1040   18.8720  -34.0420 C   0  0  0  0  0  0  0  0  0  0  0  0
   -4.5350   18.3600  -34.3820 S   0  0  0  0  0  0  0  0  0  0  0  0
   -1.4900   18.6420  -33.7340 C   0  0  0  0  0  0  0  0  0  0  0  0
   -0.0100   19.0250  -33.6550 C   0  0  0  0  0  0  0  0  0  0  0  0
    0.5110   21.1130  -27.7950 C   0  0  0  0  0  0  0  0  0  0  0  0
   -0.2110   22.3240  -27.1790 C   0  0  0  0  0  0  0  0  0  0  0  0
   -5.9616   25.3089  -28.7719 H   0  0  0  0  0  0  0  0  0  0  0  0
   -7.0598   26.2299  -29.8546 H   0  0  0  0  0  0  0  0  0  0  0  0
   -7.0970   24.4340  -29.8546 H   0  0  0  0  0  0  0  0  0  0  0  0
   -5.8102   24.8414  -31.7613 H   0  0  0  0  0  0  0  0  0  0  0  0
   -5.0687   26.3265  -31.0709 H   0  0  0  0  0  0  0  0  0  0  0  0
   -4.0469   22.4003  -30.4774 H   0  0  0  0  0  0  0  0  0  0  0  0
   -5.0087   23.1369  -31.8037 H   0  0  0  0  0  0  0  0  0  0  0  0
   -3.2185   23.2842  -31.8037 H   0  0  0  0  0  0  0  0  0  0  0  0
   -5.0666   24.8130  -28.4906 H   0  0  0  0  0  0  0  0  0  0  0  0
   -4.4794   23.1341  -28.8246 H   0  0  0  0  0  0  0  0  0  0  0  0
   -2.6230   25.5431  -28.5583 H   0  0  0  0  0  0  0  0  0  0  0  0
   -3.0856   24.4506  -27.1803 H   0  0  0  0  0  0  0  0  0  0  0  0
   -2.0837   23.0715  -29.6227 H   0  0  0  0  0  0  0  0  0  0  0  0
   -0.8788   24.1077  -28.7180 H   0  0  0  0  0  0  0  0  0  0  0  0
   -3.3300   21.2512  -27.8077 H   0  0  0  0  0  0  0  0  0  0  0  0
   -2.1066   21.0201  -29.1221 H   0  0  0  0  0  0  0  0  0  0  0  0
   -1.7827   20.1652  -26.2074 H   0  0  0  0  0  0  0  0  0  0  0  0
   -2.1717   19.0864  -27.6158 H   0  0  0  0  0  0  0  0  0  0  0  0
    1.1061   18.6902  -28.7752 H   0  0  0  0  0  0  0  0  0  0  0  0
   -0.5342   17.9750  -28.5142 H   0  0  0  0  0  0  0  0  0  0  0  0
   -1.5525   19.4468  -30.0732 H   0  0  0  0  0  0  0  0  0  0  0  0
   -0.1283   20.5551  -30.0795 H   0  0  0  0  0  0  0  0  0  0  0  0
    1.1126   18.3205  -30.9260 H   0  0  0  0  0  0  0  0  0  0  0  0
   -0.5514   17.9390  -31.5069 H   0  0  0  0  0  0  0  0  0  0  0  0
   -0.1478   21.3699  -31.2646 H   0  0  0  0  0  0  0  0  0  0  0  0
   -0.0827   21.5614  -33.0815 H   0  0  0  0  0  0  0  0  0  0  0  0
   -2.3157   20.6001  -31.3184 H   0  0  0  0  0  0  0  0  0  0  0  0
   -2.3029   21.7086  -32.7821 H   0  0  0  0  0  0  0  0  0  0  0  0
   -4.5320   21.0760  -32.1450 H   0  0  0  0  0  0  0  0  0  0  0  0
   -6.1404   22.5001  -32.1970 H   0  0  0  0  0  0  0  0  0  0  0  0
   -8.1335   23.6811  -31.2748 H   0  0  0  0  0  0  0  0  0  0  0  0
  -10.3463   22.5260  -31.1928 H   0  0  0  0  0  0  0  0  0  0  0  0
  -10.5631   20.1859  -32.0325 H   0  0  0  0  0  0  0  0  0  0  0  0
   -8.5721   18.9871  -32.9394 H   0  0  0  0  0  0  0  0  0  0  0  0
   -7.0281   18.4394  -34.4529 H   0  0  0  0  0  0  0  0  0  0  0  0
   -1.6424   17.7176  -33.1576 H   0  0  0  0  0  0  0  0  0  0  0  0
   -1.7363   18.5130  -34.7983 H   0  0  0  0  0  0  0  0  0  0  0  0
    0.5988   18.1173  -33.7789 H   0  0  0  0  0  0  0  0  0  0  0  0
    0.1953   19.7539  -34.4529 H   0  0  0  0  0  0  0  0  0  0  0  0
    1.5115   21.0359  -27.3444 H   0  0  0  0  0  0  0  0  0  0  0  0
    0.5591   21.2787  -28.8814 H   0  0  0  0  0  0  0  0  0  0  0  0
   -0.2314   22.2056  -26.0856 H   0  0  0  0  0  0  0  0  0  0  0  0
    0.3385   23.2302  -27.4737 H   0  0  0  0  0  0  0  0  0  0  0  0
  1  2  1  0
  2  3  1  0
  3  4  1  0
  3  5  1  0
  5  6  1  0
  6  7  1  0
  7  8  1  0
  8  9  1  0
  9 10  1  0
 10 11  1  0
 11 12  1  0
 12 13  1  0
 13 14  1  0
 14 15  1  0
 15 16  1  0
 16 17  1  0
 17 18  1  0
 18 19  1  0
 19 20  2  0
 20 21  1  0
 21 22  1  0
 22 23  2  0
 23 24  1  0
 24 25  2  0
 25 26  1  0
 26 27  2  0
 21 28  2  0
 28 29  1  0
 18 30  1  0
 30 31  1  0
 11 32  1  0
 32 33  1  0
 33  8  1  0
 31 15  1  0
 29 19  1  0
 27 22  1  0
  1 34  1  0
  1 35  1  0
  1 36  1  0
  2 37  1  0
  2 38  1  0
  4 39  1  0
  4 40  1  0
  4 41  1  0
  5 42  1  0
  5 43  1  0
  6 44  1  0
  6 45  1  0
  7 46  1  0
  7 47  1  0
  9 48  1  0
  9 49  1  0
 10 50  1  0
 10 51  1  0
 12 52  1  0
 12 53  1  0
 13 54  1  0
 13 55  1  0
 14 56  1  0
 14 57  1  0
 16 58  1  0
 16 59  1  0
 17 60  1  0
 17 61  1  0
 20 62  1  0
 23 63  1  0
 24 64  1  0
 25 65  1  0
 26 66  1  0
 27 67  1  0
 28 68  1  0
 30 69  1  0
 30 70  1  0
 31 71  1  0
 31 72  1  0
 32 73  1  0
 32 74  1  0
 33 75  1  0
 33 76  1  0
M  CHG  1  20   1
M  END
>  <UniqueID>  (17) 
17

>  <SMILES>  (17) 
CCN(C)CCCN1CCN(CCCN2CCN(c3[nH+]c(-c4ccccc4)cs3)CC2)CC1

>  <Energy>  (17) 
127.81100954842178

>  <Genealogy>  (17) 
CCN(C)CCCN1CCN(CCCN2CCN(c3[nH+]c(-c4ccccc4)cs3)CC2)CC1 (protonated)
CCN(C)CCCN1CCN(CCCN2CCN(c3[nH+]c(-c4ccccc4)cs3)CC2)CC1 (3D coordinates assigned)
CCN(C)CCCN1CCN(CCCN2CCN(c3[nH+]c(-c4ccccc4)cs3)CC2)CC1 (nonaromatic ring conformer: 127.81100954842178 kcal/mol)

>  <smiles>  (17) 
CCN(C)CCCN1CCN(CCCN2CCN(c3nc(-c4ccccc4)cs3)CC2)CC1

>  <score_type>  (17) 
oracle

>  <origin>  (17) 
adg

>  <m_score__min__energy>  (17) 
-8.9199999999999999

>  <m_primary>  (17) 
energy

$$$$
17:0
     RDKit          3D

 65 67  0  0  0  0  0  0  0  0999 V2000
   -9.3510   21.1910  -31.9150 C   0  0  0  0  0  0  0  0  0  0  0  0
   -9.0530   19.6960  -31.7210 C   0  0  0  0  0  0  0  0  0  0  0  0
   -7.7290   19.2510  -32.2280 N   0  0  0  0  0  0  0  0  0  0  0  0
   -7.4460   17.7990  -32.1950 C   0  0  0  0  0  0  0  0  0  0  0  0
   -6.3190   17.4860  -31.2130 C   0  0  0  0  0  0  0  0  0  0  0  0
   -7.2720   19.9330  -33.4580 C   0  0  0  0  0  0  0  0  0  0  0  0
   -6.0010   19.3230  -34.0710 C   0  0  0  0  0  0  0  0  0  0  0  0
   -4.9080   19.4890  -33.1860 O   0  0  0  0  0  0  0  0  0  0  0  0
   -3.9370   18.4730  -33.3660 C   0  0  0  0  0  0  0  0  0  0  0  0
   -2.7760   19.0040  -34.2060 C   0  0  0  0  0  0  0  0  0  0  0  0
   -1.9070   19.8670  -33.3770 N   0  0  0  0  0  0  0  0  0  0  0  0
   -0.5360   19.9990  -33.9280 C   0  0  0  0  0  0  0  0  0  0  0  0
   -0.2900   21.3020  -34.7000 C   0  0  0  0  0  0  0  0  0  0  0  0
   -2.5500   21.1650  -33.0680 C   0  0  0  0  0  0  0  0  0  0  0  0
   -1.9990   21.7450  -31.7930 C   0  0  0  0  0  0  0  0  0  0  0  0
   -0.7480   21.7800  -31.6360 O   0  0  0  0  0  0  0  0  0  0  0  0
   -2.8730   22.1890  -30.7350 N   0  0  0  0  0  0  0  0  0  0  0  0
   -2.4570   22.1590  -29.3650 C   0  0  0  0  0  0  0  0  0  0  0  0
   -2.2420   20.9220  -28.7370 C   0  0  0  0  0  0  0  0  0  0  0  0
   -1.7850   20.8690  -27.4200 C   0  0  0  0  0  0  0  0  0  0  0  0
   -1.5360   22.0500  -26.7210 C   0  0  0  0  0  0  0  0  0  0  0  0
   -1.7530   23.2850  -27.3360 C   0  0  0  0  0  0  0  0  0  0  0  0
   -2.2300   23.3540  -28.6580 C   0  0  0  0  0  0  0  0  0  0  0  0
   -2.4120   24.6780  -29.2960 C   0  0  0  0  0  0  0  0  0  0  0  0
   -1.6270   25.6160  -28.9910 O   0  0  0  0  0  0  0  0  0  0  0  0
   -3.5000   24.9720  -30.1860 N   0  0  0  0  0  0  0  0  0  0  0  0
   -4.4570   24.0740  -30.7610 C   0  0  0  0  0  0  0  0  0  0  0  0
   -5.6960   24.5870  -31.1540 C   0  0  0  0  0  0  0  0  0  0  0  0
   -6.6340   23.7610  -31.7710 C   0  0  0  0  0  0  0  0  0  0  0  0
   -6.3160   22.4230  -32.0050 C   0  0  0  0  0  0  0  0  0  0  0  0
   -5.0980   21.9380  -31.6440 N   0  0  0  0  0  0  0  0  0  0  0  0
   -4.1630   22.7260  -31.0390 C   0  0  0  0  0  0  0  0  0  0  0  0
   -9.4477   21.6761  -30.9325 H   0  0  0  0  0  0  0  0  0  0  0  0
   -8.5285   21.6591  -32.4757 H   0  0  0  0  0  0  0  0  0  0  0  0
  -10.2901   21.3079  -32.4757 H   0  0  0  0  0  0  0  0  0  0  0  0
   -9.0983   19.4755  -30.6443 H   0  0  0  0  0  0  0  0  0  0  0  0
   -9.8071   19.1523  -32.3090 H   0  0  0  0  0  0  0  0  0  0  0  0
   -8.3542   17.2620  -31.8840 H   0  0  0  0  0  0  0  0  0  0  0  0
   -7.1355   17.4783  -33.2004 H   0  0  0  0  0  0  0  0  0  0  0  0
   -6.6910   17.5893  -30.1830 H   0  0  0  0  0  0  0  0  0  0  0  0
   -5.9675   16.4562  -31.3744 H   0  0  0  0  0  0  0  0  0  0  0  0
   -5.4868   18.1870  -31.3744 H   0  0  0  0  0  0  0  0  0  0  0  0
   -8.0778   19.8779  -34.2047 H   0  0  0  0  0  0  0  0  0  0  0  0
   -7.0271   20.9681  -33.1778 H   0  0  0  0  0  0  0  0  0  0  0  0
   -6.1629   18.2502  -34.2525 H   0  0  0  0  0  0  0  0  0  0  0  0
   -5.7776   19.8327  -35.0199 H   0  0  0  0  0  0  0  0  0  0  0  0
   -3.5594   18.1517  -32.3841 H   0  0  0  0  0  0  0  0  0  0  0  0
   -4.3983   17.6199  -33.8851 H   0  0  0  0  0  0  0  0  0  0  0  0
   -2.1883   18.1580  -34.5917 H   0  0  0  0  0  0  0  0  0  0  0  0
   -3.1760   19.5926  -35.0448 H   0  0  0  0  0  0  0  0  0  0  0  0
    0.1774   19.9537  -33.0919 H   0  0  0  0  0  0  0  0  0  0  0  0
   -0.4041   19.1767  -34.6466 H   0  0  0  0  0  0  0  0  0  0  0  0
   -0.1344   22.1261  -33.9882 H   0  0  0  0  0  0  0  0  0  0  0  0
    0.6029   21.1904  -35.3326 H   0  0  0  0  0  0  0  0  0  0  0  0
   -1.1622   21.5236  -35.3326 H   0  0  0  0  0  0  0  0  0  0  0  0
   -2.3615   21.8664  -33.8941 H   0  0  0  0  0  0  0  0  0  0  0  0
   -3.6306   21.0019  -32.9428 H   0  0  0  0  0  0  0  0  0  0  0  0
   -2.4350   19.9889  -29.2867 H   0  0  0  0  0  0  0  0  0  0  0  0
   -1.6211   19.8963  -26.9331 H   0  0  0  0  0  0  0  0  0  0  0  0
   -1.1686   22.0087  -25.6850 H   0  0  0  0  0  0  0  0  0  0  0  0
   -1.5490   24.2129  -26.7815 H   0  0  0  0  0  0  0  0  0  0  0  0
   -5.9319   25.6465  -30.9758 H   0  0  0  0  0  0  0  0  0  0  0  0
   -7.6145   24.1599  -32.0702 H   0  0  0  0  0  0  0  0  0  0  0  0
   -7.0518   21.7592  -32.4824 H   0  0  0  0  0  0  0  0  0  0  0  0
   -4.8820   20.9340  -31.8380 H   0  0  0  0  0  0  0  0  0  0  0  0
  1  2  1  0
  2  3  1  0
  3  4  1  0
  4  5  1  0
  3  6  1  0
  6  7  1  0
  7  8  1  0
  8  9  1  0
  9 10  1  0
 10 11  1  0
 11 12  1  0
 12 13  1  0
 11 14  1  0
 14 15  1  0
 15 16  2  0
 15 17  1  0
 17 18  1  0
 18 19  2  0
 19 20  1  0
 20 21  2  0
 21 22  1  0
 22 23  2  0
 23 24  1  0
 24 25  2  0
 24 26  1  0
 26 27  1  0
 27 28  2  0
 28 29  1  0
 29 30  2  0
 30 31  1  0
 31 32  2  0
 32 17  1  0
 23 18  1  0
 32 27  1  0
  1 33  1  0
  1 34  1  0
  1 35  1  0
  2 36  1  0
  2 37  1  0
  4 38  1  0
  4 39  1  0
  5 40  1  0
  5 41  1  0
  5 42  1  0
  6 43  1  0
  6 44  1  0
  7 45  1  0
  7 46  1  0
  9 47  1  0
  9 48  1  0
 10 49  1  0
 10 50  1  0
 12 51  1  0
 12 52  1  0
 13 53  1  0
 13 54  1  0
 13 55  1  0
 14 56  1  0
 14 57  1  0
 19 58  1  0
 20 59  1  0
 21 60  1  0
 22 61  1  0
 28 62  1  0
 29 63  1  0
 30 64  1  0
 31 65  1  0
M  CHG  2  26  -1  31   1
M  END
>  <UniqueID>  (18) 
18

>  <SMILES>  (18) 
CCN(CC)CCOCCN(CC)CC(=O)N1c2ccccc2C(=O)[N-]c2ccc[nH+]c21

>  <Energy>  (18) 
93.24857601207377

>  <Genealogy>  (18) 
CCN(CC)CCOCCN(CC)CC(=O)N1c2ccccc2C(=O)[N-]c2ccc[nH+]c21 (protonated)
CCN(CC)CCOCCN(CC)CC(=O)N1c2ccccc2C(=O)[N-]c2ccc[nH+]c21 (3D coordinates assigned)
CCN(CC)CCOCCN(CC)CC(=O)N1c2ccccc2C(=O)[N-]c2ccc[nH+]c21 (nonaromatic ring conformer: 93.24857601207377 kcal/mol)

>  <smiles>  (18) 
CCN(CC)CCOCCN(CC)CC(=O)N1c2ccccc2C(=O)Nc2cccnc21

>  <score_type>  (18) 
oracle

>  <origin>  (18) 
adg

>  <m_score__min__energy>  (18) 
-9.4499999999999993

>  <m_primary>  (18) 
energy

$$$$
18:0
     RDKit          3D

 47 50  0  0  1  0  0  0  0  0999 V2000
   -0.0410   19.5270  -29.7990 C   0  0  0  0  0  0  0  0  0  0  0  0
    0.2770   19.4900  -31.2600 C   0  0  0  0  0  0  0  0  0  0  0  0
   -0.8600   19.2900  -32.1190 N   0  0  0  0  0  0  0  0  0  0  0  0
   -0.9460   18.3370  -33.0900 C   0  0  0  0  0  0  0  0  0  0  0  0
   -2.1460   18.4690  -33.6670 N   0  0  0  0  0  0  0  0  0  0  0  0
   -2.7930   19.4680  -33.0800 C   0  0  0  0  0  0  0  0  0  0  0  0
   -4.0370   20.0150  -33.2800 C   0  0  0  0  0  0  0  0  0  0  0  0
   -4.7800   19.5340  -34.1800 N   0  0  0  0  0  0  0  0  0  0  0  0
   -5.7370   18.4920  -34.0930 C   0  0  0  0  0  0  0  0  0  0  0  0
   -6.8940   18.8530  -33.1970 C   0  0  0  0  0  0  0  0  0  0  0  0
   -7.5420   17.9120  -32.4260 C   0  0  0  0  0  0  0  0  0  0  0  0
   -8.6110   18.2630  -31.5960 C   0  0  0  0  0  0  0  0  0  0  0  0
   -9.0480   19.5650  -31.5280 C   0  0  0  0  0  0  0  0  0  0  0  0
   -8.4130   20.5220  -32.2920 C   0  0  0  0  0  0  0  0  0  0  0  0
   -8.8070   21.8220  -32.2580 F   0  0  0  0  0  0  0  0  0  0  0  0
   -7.3600   20.1520  -33.1020 C   0  0  0  0  0  0  0  0  0  0  0  0
   -4.4400   21.0540  -32.5140 N   0  0  0  0  0  0  0  0  0  0  0  0
   -3.6820   21.5940  -31.5480 C   0  0  0  0  0  0  0  0  0  0  0  0
   -4.0860   22.6830  -30.7350 N   0  0  0  0  0  0  0  0  0  0  0  0
   -5.3360   23.3840  -30.8510 C   0  0  0  0  0  0  0  0  0  0  0  0
   -5.1580   24.8900  -30.8330 C   0  0  0  0  0  0  0  0  0  0  0  0
   -3.8570   25.2410  -30.4680 O   0  0  0  0  0  0  0  0  0  0  0  0
   -3.4980   24.5490  -29.3310 C   0  0  0  0  0  0  0  0  0  0  0  0
   -3.1700   23.1380  -29.6900 C   0  0  0  0  0  0  0  0  0  0  0  0
   -2.4620   21.0410  -31.3670 N   0  0  0  0  0  0  0  0  0  0  0  0
   -2.0060   20.0110  -32.0940 C   0  0  0  0  0  0  0  0  0  0  0  0
    0.8873   19.4190  -29.2188 H   0  0  0  0  0  0  0  0  0  0  0  0
   -0.5183   20.4867  -29.5518 H   0  0  0  0  0  0  0  0  0  0  0  0
   -0.7259   18.7025  -29.5518 H   0  0  0  0  0  0  0  0  0  0  0  0
    0.7479   20.4461  -31.5323 H   0  0  0  0  0  0  0  0  0  0  0  0
    0.9369   18.6231  -31.4120 H   0  0  0  0  0  0  0  0  0  0  0  0
   -0.1738   17.5981  -33.3503 H   0  0  0  0  0  0  0  0  0  0  0  0
   -6.1227   18.2805  -35.1012 H   0  0  0  0  0  0  0  0  0  0  0  0
   -5.2384   17.6116  -33.6614 H   0  0  0  0  0  0  0  0  0  0  0  0
   -7.2114   16.8636  -32.4645 H   0  0  0  0  0  0  0  0  0  0  0  0
   -9.1075   17.4898  -30.9913 H   0  0  0  0  0  0  0  0  0  0  0  0
   -9.8900   19.8388  -30.8752 H   0  0  0  0  0  0  0  0  0  0  0  0
   -6.8655   20.9293  -33.7031 H   0  0  0  0  0  0  0  0  0  0  0  0
   -5.3930   21.4210  -32.7150 H   0  0  0  0  0  0  0  0  0  0  0  0
   -5.8158   23.0963  -31.7981 H   0  0  0  0  0  0  0  0  0  0  0  0
   -5.9563   23.1092  -29.9852 H   0  0  0  0  0  0  0  0  0  0  0  0
   -5.3687   25.2881  -31.8366 H   0  0  0  0  0  0  0  0  0  0  0  0
   -5.8532   25.3138  -30.0934 H   0  0  0  0  0  0  0  0  0  0  0  0
   -2.6178   25.0253  -28.8745 H   0  0  0  0  0  0  0  0  0  0  0  0
   -4.3335   24.5605  -28.6156 H   0  0  0  0  0  0  0  0  0  0  0  0
   -2.1350   23.0831  -30.0584 H   0  0  0  0  0  0  0  0  0  0  0  0
   -3.2739   22.4968  -28.8023 H   0  0  0  0  0  0  0  0  0  0  0  0
  1  2  1  0
  2  3  1  0
  3  4  1  0
  4  5  2  0
  5  6  1  0
  6  7  1  0
  7  8  2  0
  8  9  1  0
  9 10  1  0
 10 11  2  0
 11 12  1  0
 12 13  2  0
 13 14  1  0
 14 15  1  0
 14 16  2  0
  7 17  1  0
 17 18  1  0
 18 19  1  0
 19 20  1  0
 20 21  1  0
 21 22  1  0
 22 23  1  0
 23 24  1  0
 18 25  2  0
 25 26  1  0
 26  3  1  0
 26  6  2  0
 16 10  1  0
 24 19  1  0
  1 27  1  0
  1 28  1  0
  1 29  1  0
  2 30  1  0
  2 31  1  0
  4 32  1  0
  9 33  1  0
  9 34  1  0
 11 35  1  0
 12 36  1  0
 13 37  1  0
 16 38  1  0
 17 39  1  0
 20 40  1  0
 20 41  1  0
 21 42  1  0
 21 43  1  0
 23 44  1  0
 23 45  1  0
 24 46  1  0
 24 47  1  0
M  END
>  <smiles>  (19) 
CCn1cnc2c(=NCc3cccc(F)c3)[nH]c(N3CCOCC3)nc21

>  <score_type>  (19) 
oracle

>  <origin>  (19) 
adg

>  <m_score__min__energy>  (19) 
-7.9900000000000002

>  <m_primary>  (19) 
energy

$$$$
19:0
     RDKit          3D

 47 49  0  0  0  0  0  0  0  0999 V2000
   -5.4080   25.8910  -30.4800 C   0  0  0  0  0  0  0  0  0  0  0  0
   -4.0610   25.4310  -30.4420 O   0  0  0  0  0  0  0  0  0  0  0  0
   -3.6280   24.2910  -29.7430 C   0  0  0  0  0  0  0  0  0  0  0  0
   -3.2930   24.3360  -28.3760 C   0  0  0  0  0  0  0  0  0  0  0  0
   -2.8680   23.1810  -27.7160 C   0  0  0  0  0  0  0  0  0  0  0  0
   -2.7620   21.9660  -28.4060 C   0  0  0  0  0  0  0  0  0  0  0  0
   -2.3140   20.7850  -27.7200 N   0  0  0  0  0  0  0  0  0  0  0  0
   -3.0990   19.8640  -27.1230 C   0  0  0  0  0  0  0  0  0  0  0  0
   -2.2870   18.9320  -26.5110 C   0  0  0  0  0  0  0  0  0  0  0  0
   -1.0030   19.2750  -26.7190 N   0  0  0  0  0  0  0  0  0  0  0  0
   -1.0450   20.4060  -27.4490 C   0  0  0  0  0  0  0  0  0  0  0  0
    0.4310   21.3220  -27.9150 S   0  0  0  0  0  0  0  0  0  0  0  0
    0.3240   22.5250  -26.5440 C   0  0  0  0  0  0  0  0  0  0  0  0
    0.2040   23.9310  -27.0730 C   0  0  0  0  0  0  0  0  0  0  0  0
    0.6230   24.1480  -28.2430 O   0  0  0  0  0  0  0  0  0  0  0  0
   -0.3620   25.0210  -26.3010 N   0  0  0  0  0  0  0  0  0  0  0  0
   -0.8090   26.2250  -27.0170 C   0  0  0  0  0  0  0  0  0  0  0  0
   -0.8420   27.4360  -26.0800 C   0  0  0  0  0  0  0  0  0  0  0  0
   -1.5710   27.1410  -24.9060 O   0  0  0  0  0  0  0  0  0  0  0  0
   -0.8860   26.1500  -24.1670 C   0  0  0  0  0  0  0  0  0  0  0  0
   -0.8550   24.8220  -24.9300 C   0  0  0  0  0  0  0  0  0  0  0  0
   -3.1120   21.9150  -29.7640 C   0  0  0  0  0  0  0  0  0  0  0  0
   -3.5370   23.0760  -30.4400 C   0  0  0  0  0  0  0  0  0  0  0  0
   -3.8790   23.0630  -31.8020 O   0  0  0  0  0  0  0  0  0  0  0  0
   -4.9750   22.3400  -32.3530 C   0  0  0  0  0  0  0  0  0  0  0  0
   -5.7811   26.0184  -29.4531 H   0  0  0  0  0  0  0  0  0  0  0  0
   -5.4515   26.8549  -31.0081 H   0  0  0  0  0  0  0  0  0  0  0  0
   -6.0320   25.1550  -31.0081 H   0  0  0  0  0  0  0  0  0  0  0  0
   -3.3664   25.2854  -27.8254 H   0  0  0  0  0  0  0  0  0  0  0  0
   -2.6146   23.2253  -26.6465 H   0  0  0  0  0  0  0  0  0  0  0  0
   -4.1990   19.8576  -27.1242 H   0  0  0  0  0  0  0  0  0  0  0  0
   -2.6323   18.0535  -25.9462 H   0  0  0  0  0  0  0  0  0  0  0  0
   -0.1540   18.7810  -26.3640 H   0  0  0  0  0  0  0  0  0  0  0  0
   -0.5590   22.2942  -25.9300 H   0  0  0  0  0  0  0  0  0  0  0  0
    1.2404   22.4529  -25.9398 H   0  0  0  0  0  0  0  0  0  0  0  0
   -0.1155   26.4296  -27.8460 H   0  0  0  0  0  0  0  0  0  0  0  0
   -1.8247   26.0494  -27.4010 H   0  0  0  0  0  0  0  0  0  0  0  0
    0.1879   27.7086  -25.8063 H   0  0  0  0  0  0  0  0  0  0  0  0
   -1.3333   28.2716  -26.6001 H   0  0  0  0  0  0  0  0  0  0  0  0
    0.1459   26.4851  -23.9855 H   0  0  0  0  0  0  0  0  0  0  0  0
   -1.4133   25.9953  -23.2141 H   0  0  0  0  0  0  0  0  0  0  0  0
   -0.1901   24.1199  -24.4057 H   0  0  0  0  0  0  0  0  0  0  0  0
   -1.8769   24.4176  -24.9771 H   0  0  0  0  0  0  0  0  0  0  0  0
   -3.0540   20.9595  -30.3060 H   0  0  0  0  0  0  0  0  0  0  0  0
   -5.5922   21.9328  -31.5386 H   0  0  0  0  0  0  0  0  0  0  0  0
   -5.5843   23.0140  -32.9730 H   0  0  0  0  0  0  0  0  0  0  0  0
   -4.5952   21.5146  -32.9730 H   0  0  0  0  0  0  0  0  0  0  0  0
  1  2  1  0
  2  3  1  0
  3  4  2  0
  4  5  1  0
  5  6  2  0
  6  7  1  0
  7  8  1  0
  8  9  2  0
  9 10  1  0
 10 11  2  0
 11 12  1  0
 12 13  1  0
 13 14  1  0
 14 15  2  0
 14 16  1  0
 16 17  1  0
 17 18  1  0
 18 19  1  0
 19 20  1  0
 20 21  1  0
  6 22  1  0
 22 23  2  0
 23 24  1  0
 24 25  1  0
 23  3  1  0
 11  7  1  0
 21 16  1  0
  1 26  1  0
  1 27  1  0
  1 28  1  0
  4 29  1  0
  5 30  1  0
  8 31  1  0
  9 32  1  0
 10 33  1  0
 13 34  1  0
 13 35  1  0
 17 36  1  0
 17 37  1  0
 18 38  1  0
 18 39  1  0
 20 40  1  0
 20 41  1  0
 21 42  1  0
 21 43  1  0
 22 44  1  0
 25 45  1  0
 25 46  1  0
 25 47  1  0
M  CHG  1  10   1
M  END
>  <UniqueID>  (20) 
19

>  <SMILES>  (20) 
COc1ccc(-n2cc[nH+]c2SCC(=O)N2CCOCC2)cc1OC

>  <Energy>  (20) 
78.74355111461402

>  <Genealogy>  (20) 
COc1ccc(-n2cc[nH+]c2SCC(=O)N2CCOCC2)cc1OC (protonated)
COc1ccc(-n2cc[nH+]c2SCC(=O)N2CCOCC2)cc1OC (3D coordinates assigned)
COc1ccc(-n2cc[nH+]c2SCC(=O)N2CCOCC2)cc1OC (nonaromatic ring conformer: 78.74355111461402 kcal/mol)

>  <smiles>  (20) 
COc1ccc(-n2ccnc2SCC(=O)N2CCOCC2)cc1OC

>  <score_type>  (20) 
oracle

>  <origin>  (20) 
adg

>  <m_score__min__energy>  (20) 
-7.4500000000000002

>  <m_primary>  (20) 
energy

$$$$
20:0
     RDKit          3D

 42 44  0  0  0  0  0  0  0  0999 V2000
   -2.4460   16.2870  -34.4550 C   0  0  0  0  0  0  0  0  0  0  0  0
   -3.0280   16.7660  -33.2470 O   0  0  0  0  0  0  0  0  0  0  0  0
   -4.0720   17.7040  -33.1820 C   0  0  0  0  0  0  0  0  0  0  0  0
   -5.3750   17.3440  -32.7950 C   0  0  0  0  0  0  0  0  0  0  0  0
   -6.3950   18.3040  -32.7300 C   0  0  0  0  0  0  0  0  0  0  0  0
   -6.1190   19.6390  -33.0870 C   0  0  0  0  0  0  0  0  0  0  0  0
   -4.8170   19.9960  -33.4700 C   0  0  0  0  0  0  0  0  0  0  0  0
   -3.7910   19.0350  -33.5190 C   0  0  0  0  0  0  0  0  0  0  0  0
   -2.4790   19.3640  -33.8960 O   0  0  0  0  0  0  0  0  0  0  0  0
   -1.7840   20.5290  -33.4640 C   0  0  0  0  0  0  0  0  0  0  0  0
   -7.1880   20.7150  -32.9870 C   0  0  2  0  0  0  0  0  0  0  0  0
   -6.9440   21.6660  -31.8200 C   0  0  0  0  0  0  0  0  0  0  0  0
   -7.8490   21.7760  -30.7470 C   0  0  0  0  0  0  0  0  0  0  0  0
   -7.6090   22.6770  -29.7090 C   0  0  0  0  0  0  0  0  0  0  0  0
   -6.4730   23.4870  -29.7300 C   0  0  0  0  0  0  0  0  0  0  0  0
   -5.5620   23.4090  -30.7960 C   0  0  0  0  0  0  0  0  0  0  0  0
   -4.3960   24.2530  -30.8190 N   0  0  0  0  0  0  0  0  0  0  0  0
   -3.2500   23.7560  -30.8390 O   0  0  0  0  0  0  0  0  0  0  0  0
   -4.5240   25.6230  -30.8180 O   0  0  0  0  0  0  0  0  0  0  0  0
   -5.8100   22.4980  -31.8400 C   0  0  0  0  0  0  0  0  0  0  0  0
   -8.5540   20.1470  -32.9420 N   0  0  0  0  0  0  0  0  0  0  0  0
   -8.6780   19.0510  -31.9710 C   0  0  0  0  0  0  0  0  0  0  0  0
   -7.7910   17.8680  -32.3690 C   0  0  0  0  0  0  0  0  0  0  0  0
   -1.6168   15.6045  -34.2171 H   0  0  0  0  0  0  0  0  0  0  0  0
   -3.2066   15.7497  -35.0406 H   0  0  0  0  0  0  0  0  0  0  0  0
   -2.0651   17.1367  -35.0406 H   0  0  0  0  0  0  0  0  0  0  0  0
   -5.5967   16.2971  -32.5403 H   0  0  0  0  0  0  0  0  0  0  0  0
   -4.5960   21.0404  -33.7352 H   0  0  0  0  0  0  0  0  0  0  0  0
   -1.7662   20.5588  -32.3645 H   0  0  0  0  0  0  0  0  0  0  0  0
   -0.7531   20.5040  -33.8468 H   0  0  0  0  0  0  0  0  0  0  0  0
   -2.2957   21.4243  -33.8468 H   0  0  0  0  0  0  0  0  0  0  0  0
   -7.1125   21.3074  -33.9108 H   0  0  0  0  0  0  0  0  0  0  0  0
   -8.7514   21.1473  -30.7269 H   0  0  0  0  0  0  0  0  0  0  0  0
   -8.3180   22.7490  -28.8710 H   0  0  0  0  0  0  0  0  0  0  0  0
   -6.2897   24.1918  -28.9056 H   0  0  0  0  0  0  0  0  0  0  0  0
   -5.1069   22.4358  -32.6836 H   0  0  0  0  0  0  0  0  0  0  0  0
   -8.8080   19.7890  -33.8940 H   0  0  0  0  0  0  0  0  0  0  0  0
   -9.2430   20.8960  -32.6990 H   0  0  0  0  0  0  0  0  0  0  0  0
   -8.3724   19.4127  -30.9781 H   0  0  0  0  0  0  0  0  0  0  0  0
   -9.7252   18.7150  -31.9509 H   0  0  0  0  0  0  0  0  0  0  0  0
   -7.7361   17.1656  -31.5242 H   0  0  0  0  0  0  0  0  0  0  0  0
   -8.2374   17.3922  -33.2546 H   0  0  0  0  0  0  0  0  0  0  0  0
  1  2  1  0
  2  3  1  0
  3  4  2  0
  4  5  1  0
  5  6  2  0
  6  7  1  0
  7  8  2  0
  8  9  1  0
  9 10  1  0
  6 11  1  0
 11 12  1  0
 12 13  2  0
 13 14  1  0
 14 15  2  0
 15 16  1  0
 16 17  1  0
 17 18  2  0
 17 19  1  0
 16 20  2  0
 11 21  1  0
 21 22  1  0
 22 23  1  0
  8  3  1  0
 20 12  1  0
 23  5  1  0
  1 24  1  0
  1 25  1  0
  1 26  1  0
  4 27  1  0
  7 28  1  0
 10 29  1  0
 10 30  1  0
 10 31  1  0
 11 32  1  6
 13 33  1  0
 14 34  1  0
 15 35  1  0
 20 36  1  0
 21 37  1  0
 21 38  1  0
 22 39  1  0
 22 40  1  0
 23 41  1  0
 23 42  1  0
M  CHG  3  17   1  19  -1  21   1
M  END
>  <UniqueID>  (21) 
20

>  <SMILES>  (21) 
COc1cc2c(cc1OC)[C@H](c1cccc([N+](=O)[O-])c1)[NH2+]CC2

>  <Energy>  (21) 
48.32220848102995

>  <Genealogy>  (21) 
COc1cc2c(cc1OC)C(c1cccc([N+](=O)[O-])c1)[NH2+]CC2 (protonated)
COc1cc2c(cc1OC)[C@H](c1cccc([N+](=O)[O-])c1)[NH2+]CC2 (chirality)
COc1cc2c(cc1OC)[C@H](c1cccc([N+](=O)[O-])c1)[NH2+]CC2 (3D coordinates assigned)
COc1cc2c(cc1OC)[C@H](c1cccc([N+](=O)[O-])c1)[NH2+]CC2 (nonaromatic ring conformer: 48.32220848102995 kcal/mol)

>  <smiles>  (21) 
COc1cc2c(cc1OC)C(c1cccc([N+](=O)[O-])c1)NCC2

>  <score_type>  (21) 
oracle

>  <origin>  (21) 
adg

>  <m_score__min__energy>  (21) 
-8.1799999999999997

>  <m_primary>  (21) 
energy

$$$$
21:0
     RDKit          3D

 44 46  0  0  0  0  0  0  0  0999 V2000
   -8.2560   23.0210  -31.9540 C   0  0  0  0  0  0  0  0  0  0  0  0
   -7.5400   22.8190  -30.6190 C   0  0  0  0  0  0  0  0  0  0  0  0
   -6.0760   22.9990  -30.7630 N   0  0  0  0  0  0  0  0  0  0  0  0
   -5.4350   21.7750  -31.2990 C   0  0  0  0  0  0  0  0  0  0  0  0
   -4.7450   22.0780  -32.6260 C   0  0  0  0  0  0  0  0  0  0  0  0
   -5.7760   24.1700  -31.6230 C   0  0  0  0  0  0  0  0  0  0  0  0
   -5.2380   25.3410  -30.7910 C   0  0  0  0  0  0  0  0  0  0  0  0
   -3.8630   25.1380  -30.4620 O   0  0  0  0  0  0  0  0  0  0  0  0
   -3.3500   24.0510  -29.7400 C   0  0  0  0  0  0  0  0  0  0  0  0
   -3.6730   23.8210  -28.3880 C   0  0  0  0  0  0  0  0  0  0  0  0
   -3.1620   22.7060  -27.7190 C   0  0  0  0  0  0  0  0  0  0  0  0
   -2.3140   21.8170  -28.3830 C   0  0  0  0  0  0  0  0  0  0  0  0
   -1.8190   20.7290  -27.7400 N   0  0  0  0  0  0  0  0  0  0  0  0
   -0.9900   19.8570  -28.3710 C   0  0  0  0  0  0  0  0  0  0  0  0
   -0.4890   18.7410  -27.6930 C   0  0  0  0  0  0  0  0  0  0  0  0
    0.3630   17.8460  -28.3510 C   0  0  0  0  0  0  0  0  0  0  0  0
    1.0470   16.3230  -27.4240 Br  0  0  0  0  0  0  0  0  0  0  0  0
    0.7140   18.0670  -29.6880 C   0  0  0  0  0  0  0  0  0  0  0  0
    0.2180   19.1820  -30.3730 C   0  0  0  0  0  0  0  0  0  0  0  0
   -0.6370   20.0830  -29.7210 C   0  0  0  0  0  0  0  0  0  0  0  0
   -1.1320   21.1760  -30.3690 N   0  0  0  0  0  0  0  0  0  0  0  0
   -1.9630   22.0500  -29.7310 C   0  0  0  0  0  0  0  0  0  0  0  0
   -2.4790   23.1720  -30.3960 C   0  0  0  0  0  0  0  0  0  0  0  0
   -9.2997   23.3154  -31.7695 H   0  0  0  0  0  0  0  0  0  0  0  0
   -7.7480   23.8109  -32.5267 H   0  0  0  0  0  0  0  0  0  0  0  0
   -8.2357   22.0821  -32.5267 H   0  0  0  0  0  0  0  0  0  0  0  0
   -7.9218   23.5516  -29.8927 H   0  0  0  0  0  0  0  0  0  0  0  0
   -7.7322   21.7928  -30.2726 H   0  0  0  0  0  0  0  0  0  0  0  0
   -4.6896   21.4096  -30.5773 H   0  0  0  0  0  0  0  0  0  0  0  0
   -6.2069   21.0086  -31.4631 H   0  0  0  0  0  0  0  0  0  0  0  0
   -3.7535   22.5134  -32.4327 H   0  0  0  0  0  0  0  0  0  0  0  0
   -4.6309   21.1472  -33.2009 H   0  0  0  0  0  0  0  0  0  0  0  0
   -5.3532   22.7919  -33.2009 H   0  0  0  0  0  0  0  0  0  0  0  0
   -5.0214   23.8833  -32.3703 H   0  0  0  0  0  0  0  0  0  0  0  0
   -6.7059   24.4893  -32.1164 H   0  0  0  0  0  0  0  0  0  0  0  0
   -5.3370   26.2709  -31.3703 H   0  0  0  0  0  0  0  0  0  0  0  0
   -5.8181   25.4079  -29.8588 H   0  0  0  0  0  0  0  0  0  0  0  0
   -4.3314   24.5235  -27.8560 H   0  0  0  0  0  0  0  0  0  0  0  0
   -3.4283   22.5279  -26.6667 H   0  0  0  0  0  0  0  0  0  0  0  0
   -0.7645   18.5665  -26.6425 H   0  0  0  0  0  0  0  0  0  0  0  0
    1.3826   17.3611  -30.2025 H   0  0  0  0  0  0  0  0  0  0  0  0
    0.4986   19.3520  -31.4229 H   0  0  0  0  0  0  0  0  0  0  0  0
   -0.8720   21.3460  -31.3680 H   0  0  0  0  0  0  0  0  0  0  0  0
   -2.1971   23.3632  -31.4419 H   0  0  0  0  0  0  0  0  0  0  0  0
  1  2  1  0
  2  3  1  0
  3  4  1  0
  4  5  1  0
  3  6  1  0
  6  7  1  0
  7  8  1  0
  8  9  1  0
  9 10  2  0
 10 11  1  0
 11 12  2  0
 12 13  1  0
 13 14  2  0
 14 15  1  0
 15 16  2  0
 16 17  1  0
 16 18  1  0
 18 19  2  0
 19 20  1  0
 20 21  2  0
 21 22  1  0
 22 23  2  0
 23  9  1  0
 22 12  1  0
 20 14  1  0
  1 24  1  0
  1 25  1  0
  1 26  1  0
  2 27  1  0
  2 28  1  0
  4 29  1  0
  4 30  1  0
  5 31  1  0
  5 32  1  0
  5 33  1  0
  6 34  1  0
  6 35  1  0
  7 36  1  0
  7 37  1  0
 10 38  1  0
 11 39  1  0
 15 40  1  0
 18 41  1  0
 19 42  1  0
 21 43  1  0
 23 44  1  0
M  CHG  1  21   1
M  END
>  <UniqueID>  (22) 
21

>  <SMILES>  (22) 
CCN(CC)CCOc1ccc2nc3cc(Br)ccc3[nH+]c2c1

>  <Energy>  (22) 
48.91377768634132

>  <Genealogy>  (22) 
CCN(CC)CCOc1ccc2nc3cc(Br)ccc3[nH+]c2c1 (protonated)
CCN(CC)CCOc1ccc2nc3cc(Br)ccc3[nH+]c2c1 (3D coordinates assigned)
CCN(CC)CCOc1ccc2nc3cc(Br)ccc3[nH+]c2c1 (optimized conformer: 48.91377768634132 kcal/mol)

>  <smiles>  (22) 
CCN(CC)CCOc1ccc2nc3cc(Br)ccc3nc2c1

>  <score_type>  (22) 
oracle

>  <origin>  (22) 
adg

>  <m_score__min__energy>  (22) 
-7.04

>  <m_primary>  (22) 
energy

$$$$
22:0
     RDKit          3D

 41 43  0  0  0  0  0  0  0  0999 V2000
   -2.3460   20.2810  -33.6000 C   0  0  0  0  0  0  0  0  0  0  0  0
   -2.6370   21.4520  -32.6490 C   0  0  0  0  0  0  0  0  0  0  0  0
   -2.6710   20.9930  -31.1850 C   0  0  0  0  0  0  0  0  0  0  0  0
   -3.8940   22.2690  -33.0460 C   0  0  0  0  0  0  0  0  0  0  0  0
   -5.2370   21.6950  -32.6220 C   0  0  0  0  0  0  0  0  0  0  0  0
   -5.4650   20.3620  -32.7810 N   0  0  0  0  0  0  0  0  0  0  0  0
   -6.6460   19.7720  -32.4710 C   0  0  0  0  0  0  0  0  0  0  0  0
   -6.8070   18.3920  -32.6400 C   0  0  0  0  0  0  0  0  0  0  0  0
   -8.0300   17.7890  -32.3270 C   0  0  0  0  0  0  0  0  0  0  0  0
   -9.0930   18.5610  -31.8490 C   0  0  0  0  0  0  0  0  0  0  0  0
   -8.9390   19.9410  -31.6810 C   0  0  0  0  0  0  0  0  0  0  0  0
   -7.7140   20.5530  -31.9900 C   0  0  0  0  0  0  0  0  0  0  0  0
   -7.5300   21.9290  -31.8440 C   0  0  0  0  0  0  0  0  0  0  0  0
   -6.2930   22.5250  -32.1480 C   0  0  0  0  0  0  0  0  0  0  0  0
   -6.1500   24.0370  -32.0100 C   0  0  0  0  0  0  0  0  0  0  0  0
   -5.0440   24.5310  -31.1420 N   0  0  0  0  0  0  0  0  0  0  0  0
   -5.4980   25.4420  -30.0830 C   0  0  0  0  0  0  0  0  0  0  0  0
   -5.0100   24.5290  -28.9750 C   0  0  0  0  0  0  0  0  0  0  0  0
   -4.5390   23.6250  -30.0980 C   0  0  0  0  0  0  0  0  0  0  0  0
   -2.1217   19.3785  -33.0124 H   0  0  0  0  0  0  0  0  0  0  0  0
   -3.2256   20.0964  -34.2342 H   0  0  0  0  0  0  0  0  0  0  0  0
   -1.4823   20.5296  -34.2342 H   0  0  0  0  0  0  0  0  0  0  0  0
   -1.7947   22.1519  -32.7524 H   0  0  0  0  0  0  0  0  0  0  0  0
   -2.6060   21.8700  -30.5242 H   0  0  0  0  0  0  0  0  0  0  0  0
   -3.6114   20.4564  -30.9907 H   0  0  0  0  0  0  0  0  0  0  0  0
   -1.8200   20.3237  -30.9907 H   0  0  0  0  0  0  0  0  0  0  0  0
   -3.7998   23.2678  -32.5949 H   0  0  0  0  0  0  0  0  0  0  0  0
   -3.9092   22.2646  -34.1459 H   0  0  0  0  0  0  0  0  0  0  0  0
   -5.9732   17.7824  -33.0184 H   0  0  0  0  0  0  0  0  0  0  0  0
   -8.1556   16.7040  -32.4574 H   0  0  0  0  0  0  0  0  0  0  0  0
  -10.0526   18.0821  -31.6045 H   0  0  0  0  0  0  0  0  0  0  0  0
   -9.7776   20.5466  -31.3068 H   0  0  0  0  0  0  0  0  0  0  0  0
   -8.3618   22.5541  -31.4872 H   0  0  0  0  0  0  0  0  0  0  0  0
   -5.9920   24.4496  -33.0174 H   0  0  0  0  0  0  0  0  0  0  0  0
   -7.0745   24.3695  -31.5153 H   0  0  0  0  0  0  0  0  0  0  0  0
   -4.9912   26.4182  -30.0996 H   0  0  0  0  0  0  0  0  0  0  0  0
   -6.5496   25.7646  -30.0778 H   0  0  0  0  0  0  0  0  0  0  0  0
   -4.2109   24.9456  -28.3443 H   0  0  0  0  0  0  0  0  0  0  0  0
   -5.6599   24.1794  -28.1593 H   0  0  0  0  0  0  0  0  0  0  0  0
   -3.4473   23.4929  -30.1243 H   0  0  0  0  0  0  0  0  0  0  0  0
   -4.8650   22.5745  -30.1049 H   0  0  0  0  0  0  0  0  0  0  0  0
  1  2  1  0
  2  3  1  0
  2  4  1  0
  4  5  1  0
  5  6  2  0
  6  7  1  0
  7  8  2  0
  8  9  1  0
  9 10  2  0
 10 11  1  0
 11 12  2  0
 12 13  1  0
 13 14  2  0
 14 15  1  0
 15 16  1  0
 16 17  1  0
 17 18  1  0
 18 19  1  0
 14  5  1  0
 19 16  1  0
 12  7  1  0
  1 20  1  0
  1 21  1  0
  1 22  1  0
  2 23  1  0
  3 24  1  0
  3 25  1  0
  3 26  1  0
  4 27  1  0
  4 28  1  0
  8 29  1  0
  9 30  1  0
 10 31  1  0
 11 32  1  0
 13 33  1  0
 15 34  1  0
 15 35  1  0
 17 36  1  0
 17 37  1  0
 18 38  1  0
 18 39  1  0
 19 40  1  0
 19 41  1  0
M  END
>  <UniqueID>  (23) 
22

>  <SMILES>  (23) 
CC(C)Cc1nc2ccccc2cc1CN1CCC1

>  <Energy>  (23) 
120.99345436558968

>  <Genealogy>  (23) 
CC(C)Cc1nc2ccccc2cc1CN1CCC1 (3D coordinates assigned)
CC(C)Cc1nc2ccccc2cc1CN1CCC1 (nonaromatic ring conformer: 120.99345436558968 kcal/mol)

>  <smiles>  (23) 
CC(C)Cc1nc2ccccc2cc1CN1CCC1

>  <score_type>  (23) 
oracle

>  <origin>  (23) 
adg

>  <m_score__min__energy>  (23) 
-7.7999999999999998

>  <m_primary>  (23) 
energy

$$$$
23:0
     RDKit          3D

 57 61  0  0  0  0  0  0  0  0999 V2000
   -8.7620   21.6710  -31.5890 C   0  0  0  0  0  0  0  0  0  0  0  0
   -7.6920   20.5790  -31.5060 C   0  0  0  0  0  0  0  0  0  0  0  0
   -7.6940   19.6340  -32.6480 N   0  0  0  0  0  0  0  0  0  0  0  0
   -7.6740   18.1970  -32.2950 C   0  0  0  0  0  0  0  0  0  0  0  0
   -6.5650   17.8830  -31.2930 C   0  0  0  0  0  0  0  0  0  0  0  0
   -6.8110   20.0210  -33.7750 C   0  0  0  0  0  0  0  0  0  0  0  0
   -5.3020   20.0420  -33.4270 C   0  0  0  0  0  0  0  0  0  0  0  0
   -4.8490   21.3980  -33.0950 N   0  0  0  0  0  0  0  0  0  0  0  0
   -4.3240   21.7410  -31.8010 C   0  0  0  0  0  0  0  0  0  0  0  0
   -3.2830   20.9770  -31.2850 C   0  0  0  0  0  0  0  0  0  0  0  0
   -2.8270   21.1830  -29.9770 C   0  0  0  0  0  0  0  0  0  0  0  0
   -3.4730   22.0860  -29.1570 N   0  0  0  0  0  0  0  0  0  0  0  0
   -4.3760   22.9820  -29.6990 C   0  0  0  0  0  0  0  0  0  0  0  0
   -4.8520   24.1010  -28.9700 C   0  0  0  0  0  0  0  0  0  0  0  0
   -5.7520   25.0020  -29.5420 C   0  0  0  0  0  0  0  0  0  0  0  0
   -6.1760   24.8320  -30.8530 C   0  0  0  0  0  0  0  0  0  0  0  0
   -5.7030   23.7620  -31.6090 C   0  0  0  0  0  0  0  0  0  0  0  0
   -4.8220   22.8190  -31.0450 C   0  0  0  0  0  0  0  0  0  0  0  0
   -3.1160   22.1400  -27.7160 C   0  0  0  0  0  0  0  0  0  0  0  0
   -2.6610   20.7800  -27.1710 C   0  0  0  0  0  0  0  0  0  0  0  0
   -1.5960   20.1970  -28.0460 C   0  0  0  0  0  0  0  0  0  0  0  0
   -0.5550   19.4210  -27.4920 C   0  0  0  0  0  0  0  0  0  0  0  0
    0.3930   18.8940  -28.3610 C   0  0  0  0  0  0  0  0  0  0  0  0
    0.3340   19.0980  -29.6970 C   0  0  0  0  0  0  0  0  0  0  0  0
   -0.6890   19.8330  -30.2870 C   0  0  0  0  0  0  0  0  0  0  0  0
   -1.6950   20.3730  -29.4450 C   0  0  0  0  0  0  0  0  0  0  0  0
    1.4060   18.4740  -30.3070 O   0  0  0  0  0  0  0  0  0  0  0  0
    2.1850   17.8360  -29.2880 C   0  0  0  0  0  0  0  0  0  0  0  0
    1.5000   18.1250  -28.0630 O   0  0  0  0  0  0  0  0  0  0  0  0
   -9.0576   21.9727  -30.5733 H   0  0  0  0  0  0  0  0  0  0  0  0
   -8.3571   22.5410  -32.1267 H   0  0  0  0  0  0  0  0  0  0  0  0
   -9.6401   21.2838  -32.1267 H   0  0  0  0  0  0  0  0  0  0  0  0
   -6.7063   21.0653  -31.4632 H   0  0  0  0  0  0  0  0  0  0  0  0
   -7.9162   19.9864  -30.6068 H   0  0  0  0  0  0  0  0  0  0  0  0
   -8.6434   17.9239  -31.8527 H   0  0  0  0  0  0  0  0  0  0  0  0
   -7.4854   17.6187  -33.2115 H   0  0  0  0  0  0  0  0  0  0  0  0
   -6.9534   17.9930  -30.2698 H   0  0  0  0  0  0  0  0  0  0  0  0
   -6.2161   16.8508  -31.4438 H   0  0  0  0  0  0  0  0  0  0  0  0
   -5.7267   18.5791  -31.4438 H   0  0  0  0  0  0  0  0  0  0  0  0
   -6.9651   19.3039  -34.5948 H   0  0  0  0  0  0  0  0  0  0  0  0
   -7.0845   21.0506  -34.0490 H   0  0  0  0  0  0  0  0  0  0  0  0
   -5.1244   19.3837  -32.5638 H   0  0  0  0  0  0  0  0  0  0  0  0
   -4.7388   19.6936  -34.3053 H   0  0  0  0  0  0  0  0  0  0  0  0
   -4.6310   22.0370  -33.8930 H   0  0  0  0  0  0  0  0  0  0  0  0
   -2.8132   20.2034  -31.9102 H   0  0  0  0  0  0  0  0  0  0  0  0
   -4.5069   24.2617  -27.9380 H   0  0  0  0  0  0  0  0  0  0  0  0
   -6.1270   25.8507  -28.9511 H   0  0  0  0  0  0  0  0  0  0  0  0
   -6.8875   25.5444  -31.2960 H   0  0  0  0  0  0  0  0  0  0  0  0
   -6.0206   23.6525  -32.6565 H   0  0  0  0  0  0  0  0  0  0  0  0
   -2.2993   22.8646  -27.5820 H   0  0  0  0  0  0  0  0  0  0  0  0
   -4.0171   22.4379  -27.1598 H   0  0  0  0  0  0  0  0  0  0  0  0
   -2.2627   20.9119  -26.1542 H   0  0  0  0  0  0  0  0  0  0  0  0
   -3.5225   20.0962  -27.1538 H   0  0  0  0  0  0  0  0  0  0  0  0
   -0.4961   19.2395  -26.4087 H   0  0  0  0  0  0  0  0  0  0  0  0
   -0.7172   19.9910  -31.3752 H   0  0  0  0  0  0  0  0  0  0  0  0
    2.2305   16.7503  -29.4588 H   0  0  0  0  0  0  0  0  0  0  0  0
    3.2242   18.1963  -29.2756 H   0  0  0  0  0  0  0  0  0  0  0  0
  1  2  1  0
  2  3  1  0
  3  4  1  0
  4  5  1  0
  3  6  1  0
  6  7  1  0
  7  8  1  0
  8  9  1  0
  9 10  2  0
 10 11  1  0
 11 12  2  0
 12 13  1  0
 13 14  2  0
 14 15  1  0
 15 16  2  0
 16 17  1  0
 17 18  2  0
 12 19  1  0
 19 20  1  0
 20 21  1  0
 21 22  2  0
 22 23  1  0
 23 24  2  0
 24 25  1  0
 25 26  2  0
 24 27  1  0
 27 28  1  0
 28 29  1  0
 18  9  1  0
 26 21  1  0
 26 11  1  0
 18 13  1  0
 29 23  1  0
  1 30  1  0
  1 31  1  0
  1 32  1  0
  2 33  1  0
  2 34  1  0
  4 35  1  0
  4 36  1  0
  5 37  1  0
  5 38  1  0
  5 39  1  0
  6 40  1  0
  6 41  1  0
  7 42  1  0
  7 43  1  0
  8 44  1  0
 10 45  1  0
 14 46  1  0
 15 47  1  0
 16 48  1  0
 17 49  1  0
 19 50  1  0
 19 51  1  0
 20 52  1  0
 20 53  1  0
 22 54  1  0
 25 55  1  0
 28 56  1  0
 28 57  1  0
M  CHG  1  12   1
M  END
>  <UniqueID>  (24) 
23

>  <SMILES>  (24) 
CCN(CC)CCNc1cc2[n+](c3ccccc13)CCc1cc3c(cc1-2)OCO3

>  <Energy>  (24) 
117.1452027625716

>  <Genealogy>  (24) 
CCN(CC)CCNc1cc2[n+](c3ccccc13)CCc1cc3c(cc1-2)OCO3 (3D coordinates assigned)
CCN(CC)CCNc1cc2[n+](c3ccccc13)CCc1cc3c(cc1-2)OCO3 (nonaromatic ring conformer: 117.1452027625716 kcal/mol)

>  <smiles>  (24) 
CCN(CC)CCNc1cc2[n+](c3ccccc13)CCc1cc3c(cc1-2)OCO3

>  <score_type>  (24) 
oracle

>  <origin>  (24) 
adg

>  <m_score__min__energy>  (24) 
-8.6199999999999992

>  <m_primary>  (24) 
energy

$$$$
24:0
     RDKit          3D

 45 47  0  0  0  0  0  0  0  0999 V2000
   -4.7260   17.2450  -34.7150 C   0  0  0  0  0  0  0  0  0  0  0  0
   -4.2660   18.1820  -33.6920 N   0  0  0  0  0  0  0  0  0  0  0  0
   -3.2400   19.0390  -33.8230 C   0  0  0  0  0  0  0  0  0  0  0  0
   -3.2340   19.8710  -32.7290 C   0  0  0  0  0  0  0  0  0  0  0  0
   -4.2620   19.5560  -31.9140 N   0  0  0  0  0  0  0  0  0  0  0  0
   -4.8680   18.5160  -32.5260 C   0  0  0  0  0  0  0  0  0  0  0  0
   -6.1280   17.8800  -31.9910 C   0  0  0  0  0  0  0  0  0  0  0  0
   -7.3710   18.4780  -32.5290 N   0  0  0  0  0  0  0  0  0  0  0  0
   -8.4820   18.6350  -31.5640 C   0  0  0  0  0  0  0  0  0  0  0  0
   -8.8920   20.0980  -31.3560 C   0  0  0  0  0  0  0  0  0  0  0  0
   -7.7030   20.9620  -31.4190 N   0  0  0  0  0  0  0  0  0  0  0  0
   -8.0440   22.3240  -30.9450 C   0  0  0  0  0  0  0  0  0  0  0  0
   -7.1300   23.4030  -31.5530 C   0  0  0  0  0  0  0  0  0  0  0  0
   -5.8560   23.5140  -30.8350 N   0  0  0  0  0  0  0  0  0  0  0  0
   -4.6360   22.8040  -31.2240 C   0  0  0  0  0  0  0  0  0  0  0  0
   -3.4740   23.5060  -30.4860 C   0  0  0  0  0  0  0  0  0  0  0  0
   -4.0750   24.6270  -29.7830 N   0  0  0  0  0  0  0  0  0  0  0  0
   -5.4630   24.6090  -30.0220 C   0  0  0  0  0  0  0  0  0  0  0  0
   -6.4940   25.6810  -29.3380 S   0  0  0  0  0  0  0  0  0  0  0  0
   -7.1680   20.9820  -32.7990 C   0  0  0  0  0  0  0  0  0  0  0  0
   -7.1910   19.5940  -33.4780 C   0  0  0  0  0  0  0  0  0  0  0  0
   -5.1613   16.3583  -34.2310 H   0  0  0  0  0  0  0  0  0  0  0  0
   -5.4877   17.7315  -35.3420 H   0  0  0  0  0  0  0  0  0  0  0  0
   -3.8752   16.9399  -35.3420 H   0  0  0  0  0  0  0  0  0  0  0  0
   -2.5279   19.0696  -34.6608 H   0  0  0  0  0  0  0  0  0  0  0  0
   -2.5024   20.6718  -32.5458 H   0  0  0  0  0  0  0  0  0  0  0  0
   -6.1155   16.8115  -32.2519 H   0  0  0  0  0  0  0  0  0  0  0  0
   -6.1355   18.0464  -30.9037 H   0  0  0  0  0  0  0  0  0  0  0  0
   -9.3528   18.0766  -31.9380 H   0  0  0  0  0  0  0  0  0  0  0  0
   -8.1330   18.2498  -30.5945 H   0  0  0  0  0  0  0  0  0  0  0  0
   -9.6009   20.3942  -32.1433 H   0  0  0  0  0  0  0  0  0  0  0  0
   -9.3675   20.2055  -30.3699 H   0  0  0  0  0  0  0  0  0  0  0  0
   -9.0849   22.5447  -31.2238 H   0  0  0  0  0  0  0  0  0  0  0  0
   -7.9061   22.3436  -29.8539 H   0  0  0  0  0  0  0  0  0  0  0  0
   -6.9247   23.1441  -32.6022 H   0  0  0  0  0  0  0  0  0  0  0  0
   -7.6486   24.3700  -31.4752 H   0  0  0  0  0  0  0  0  0  0  0  0
   -4.6968   21.7480  -30.9220 H   0  0  0  0  0  0  0  0  0  0  0  0
   -4.4898   22.8263  -32.3140 H   0  0  0  0  0  0  0  0  0  0  0  0
   -2.9999   22.8157  -29.7728 H   0  0  0  0  0  0  0  0  0  0  0  0
   -2.6908   23.8371  -31.1839 H   0  0  0  0  0  0  0  0  0  0  0  0
   -3.5650   25.3120  -29.1810 H   0  0  0  0  0  0  0  0  0  0  0  0
   -7.7746   21.6757  -33.3997 H   0  0  0  0  0  0  0  0  0  0  0  0
   -6.1168   21.3004  -32.7388 H   0  0  0  0  0  0  0  0  0  0  0  0
   -8.0198   19.5736  -34.2009 H   0  0  0  0  0  0  0  0  0  0  0  0
   -6.2129   19.4536  -33.9612 H   0  0  0  0  0  0  0  0  0  0  0  0
  1  2  1  0
  2  3  1  0
  3  4  2  0
  4  5  1  0
  5  6  2  0
  6  7  1  0
  7  8  1  0
  8  9  1  0
  9 10  1  0
 10 11  1  0
 11 12  1  0
 12 13  1  0
 13 14  1  0
 14 15  1  0
 15 16  1  0
 16 17  1  0
 17 18  1  0
 18 19  2  0
 11 20  1  0
 20 21  1  0
  6  2  1  0
 21  8  1  0
 18 14  1  0
  1 22  1  0
  1 23  1  0
  1 24  1  0
  3 25  1  0
  4 26  1  0
  7 27  1  0
  7 28  1  0
  9 29  1  0
  9 30  1  0
 10 31  1  0
 10 32  1  0
 12 33  1  0
 12 34  1  0
 13 35  1  0
 13 36  1  0
 15 37  1  0
 15 38  1  0
 16 39  1  0
 16 40  1  0
 17 41  1  0
 20 42  1  0
 20 43  1  0
 21 44  1  0
 21 45  1  0
M  END
>  <UniqueID>  (25) 
24

>  <SMILES>  (25) 
Cn1ccnc1CN1CCN(CCN2CCNC2=S)CC1

>  <Energy>  (25) 
99.39304339094907

>  <Genealogy>  (25) 
Cn1ccnc1CN1CCN(CCN2CCNC2=S)CC1 (3D coordinates assigned)
Cn1ccnc1CN1CCN(CCN2CCNC2=S)CC1 (nonaromatic ring conformer: 99.39304339094907 kcal/mol)

>  <smiles>  (25) 
Cn1ccnc1CN1CCN(CCN2CCNC2=S)CC1

>  <score_type>  (25) 
oracle

>  <origin>  (25) 
adg

>  <m_score__min__energy>  (25) 
-7.0199999999999996

>  <m_primary>  (25) 
energy

$$$$
25:0
     RDKit          3D

 48 50  0  0  0  0  0  0  0  0999 V2000
   -2.2410   20.2150  -27.1240 C   0  0  0  0  0  0  0  0  0  0  0  0
   -2.6920   21.0570  -28.3140 C   0  0  0  0  0  0  0  0  0  0  0  0
   -2.1390   22.4270  -28.2110 N   0  0  0  0  0  0  0  0  0  0  0  0
   -1.1300   22.6760  -29.2680 C   0  0  0  0  0  0  0  0  0  0  0  0
   -1.4680   21.8720  -30.5210 C   0  0  0  0  0  0  0  0  0  0  0  0
   -3.2180   23.4410  -28.2540 C   0  0  0  0  0  0  0  0  0  0  0  0
   -2.7210   24.7120  -28.9530 C   0  0  0  0  0  0  0  0  0  0  0  0
   -3.4210   24.9160  -30.1800 O   0  0  0  0  0  0  0  0  0  0  0  0
   -4.6200   24.2850  -30.5510 C   0  0  0  0  0  0  0  0  0  0  0  0
   -5.8830   24.8730  -30.3510 C   0  0  0  0  0  0  0  0  0  0  0  0
   -7.0470   24.2020  -30.7390 C   0  0  0  0  0  0  0  0  0  0  0  0
   -6.9640   22.9320  -31.3350 C   0  0  0  0  0  0  0  0  0  0  0  0
   -8.1020   22.2210  -31.7470 C   0  0  0  0  0  0  0  0  0  0  0  0
   -9.2580   22.7010  -31.5990 O   0  0  0  0  0  0  0  0  0  0  0  0
   -7.9480   20.9620  -32.3320 C   0  0  0  0  0  0  0  0  0  0  0  0
   -6.6570   20.4320  -32.4970 C   0  0  0  0  0  0  0  0  0  0  0  0
   -6.4300   19.1000  -33.1130 C   0  0  0  0  0  0  0  0  0  0  0  0
   -7.0550   17.9660  -32.5630 C   0  0  0  0  0  0  0  0  0  0  0  0
   -6.8630   16.7020  -33.1300 C   0  0  0  0  0  0  0  0  0  0  0  0
   -6.0540   16.5570  -34.2570 C   0  0  0  0  0  0  0  0  0  0  0  0
   -5.4380   17.6750  -34.8230 C   0  0  0  0  0  0  0  0  0  0  0  0
   -5.6250   18.9410  -34.2600 C   0  0  0  0  0  0  0  0  0  0  0  0
   -5.6000   21.1420  -32.1020 O   0  0  0  0  0  0  0  0  0  0  0  0
   -5.6990   22.3430  -31.5400 C   0  0  0  0  0  0  0  0  0  0  0  0
   -4.5410   23.0210  -31.1490 C   0  0  0  0  0  0  0  0  0  0  0  0
   -2.5145   20.7256  -26.1889 H   0  0  0  0  0  0  0  0  0  0  0  0
   -2.7334   19.2321  -27.1626 H   0  0  0  0  0  0  0  0  0  0  0  0
   -1.1500   20.0803  -27.1626 H   0  0  0  0  0  0  0  0  0  0  0  0
   -2.3362   20.5907  -29.2446 H   0  0  0  0  0  0  0  0  0  0  0  0
   -3.7906   21.1131  -28.3178 H   0  0  0  0  0  0  0  0  0  0  0  0
   -1.1205   23.7477  -29.5158 H   0  0  0  0  0  0  0  0  0  0  0  0
   -0.1409   22.3664  -28.8994 H   0  0  0  0  0  0  0  0  0  0  0  0
   -1.8791   20.8942  -30.2295 H   0  0  0  0  0  0  0  0  0  0  0  0
   -2.2122   22.4193  -31.1182 H   0  0  0  0  0  0  0  0  0  0  0  0
   -0.5563   21.7232  -31.1182 H   0  0  0  0  0  0  0  0  0  0  0  0
   -4.0774   23.0342  -28.8072 H   0  0  0  0  0  0  0  0  0  0  0  0
   -3.5181   23.6904  -27.2255 H   0  0  0  0  0  0  0  0  0  0  0  0
   -2.8879   25.5763  -28.2934 H   0  0  0  0  0  0  0  0  0  0  0  0
   -1.6484   24.6013  -29.1704 H   0  0  0  0  0  0  0  0  0  0  0  0
   -5.9550   25.8674  -29.8862 H   0  0  0  0  0  0  0  0  0  0  0  0
   -8.0296   24.6693  -30.5774 H   0  0  0  0  0  0  0  0  0  0  0  0
   -8.8289   20.3908  -32.6604 H   0  0  0  0  0  0  0  0  0  0  0  0
   -7.7006   18.0744  -31.6790 H   0  0  0  0  0  0  0  0  0  0  0  0
   -7.3505   15.8212  -32.6867 H   0  0  0  0  0  0  0  0  0  0  0  0
   -5.9013   15.5618  -34.6999 H   0  0  0  0  0  0  0  0  0  0  0  0
   -4.8038   17.5594  -35.7143 H   0  0  0  0  0  0  0  0  0  0  0  0
   -5.1414   19.8183  -34.7144 H   0  0  0  0  0  0  0  0  0  0  0  0
   -3.5572   22.5569  -31.3127 H   0  0  0  0  0  0  0  0  0  0  0  0
  1  2  1  0
  2  3  1  0
  3  4  1  0
  4  5  1  0
  3  6  1  0
  6  7  1  0
  7  8  1  0
  8  9  1  0
  9 10  2  0
 10 11  1  0
 11 12  2  0
 12 13  1  0
 13 14  2  0
 13 15  1  0
 15 16  2  0
 16 17  1  0
 17 18  2  0
 18 19  1  0
 19 20  2  0
 20 21  1  0
 21 22  2  0
 16 23  1  0
 23 24  1  0
 24 25  2  0
 25  9  1  0
 24 12  1  0
 22 17  1  0
  1 26  1  0
  1 27  1  0
  1 28  1  0
  2 29  1  0
  2 30  1  0
  4 31  1  0
  4 32  1  0
  5 33  1  0
  5 34  1  0
  5 35  1  0
  6 36  1  0
  6 37  1  0
  7 38  1  0
  7 39  1  0
 10 40  1  0
 11 41  1  0
 15 42  1  0
 18 43  1  0
 19 44  1  0
 20 45  1  0
 21 46  1  0
 22 47  1  0
 25 48  1  0
M  END
>  <UniqueID>  (26) 
25

>  <SMILES>  (26) 
CCN(CC)CCOc1ccc2c(=O)cc(-c3ccccc3)oc2c1

>  <Energy>  (26) 
56.2174658025531

>  <Genealogy>  (26) 
CCN(CC)CCOc1ccc2c(=O)cc(-c3ccccc3)oc2c1 (3D coordinates assigned)
CCN(CC)CCOc1ccc2c(=O)cc(-c3ccccc3)oc2c1 (optimized conformer: 56.2174658025531 kcal/mol)

>  <smiles>  (26) 
CCN(CC)CCOc1ccc2c(=O)cc(-c3ccccc3)oc2c1

>  <score_type>  (26) 
oracle

>  <origin>  (26) 
adg

>  <m_score__min__energy>  (26) 
-8.7799999999999994

>  <m_primary>  (26) 
energy

$$$$
26:0
     RDKit          3D

 44 46  0  0  0  0  0  0  0  0999 V2000
   -7.7950   20.4950  -32.0750 C   0  0  0  0  0  0  0  0  0  0  0  0
   -6.5950   21.3310  -32.0370 N   0  0  0  0  0  0  0  0  0  0  0  0
   -5.3970   21.0910  -32.6310 C   0  0  0  0  0  0  0  0  0  0  0  0
   -5.0750   19.8930  -33.4360 C   0  0  0  0  0  0  0  0  0  0  0  0
   -6.1130   19.3000  -34.1750 C   0  0  0  0  0  0  0  0  0  0  0  0
   -5.8860   18.1370  -34.9110 C   0  0  0  0  0  0  0  0  0  0  0  0
   -4.6270   17.5440  -34.9110 C   0  0  0  0  0  0  0  0  0  0  0  0
   -3.5830   18.1180  -34.1820 C   0  0  0  0  0  0  0  0  0  0  0  0
   -3.7800   19.3040  -33.4500 C   0  0  0  0  0  0  0  0  0  0  0  0
   -2.5880   19.9030  -32.7090 C   0  0  0  0  0  0  0  0  0  0  0  0
   -1.6550   20.6730  -33.5680 N   0  0  0  0  0  0  0  0  0  0  0  0
   -0.8980   19.8120  -34.4920 C   0  0  0  0  0  0  0  0  0  0  0  0
   -0.7410   21.5290  -32.7910 C   0  0  0  0  0  0  0  0  0  0  0  0
   -4.4730   22.0630  -32.2690 C   0  0  0  0  0  0  0  0  0  0  0  0
   -5.1550   22.9220  -31.4330 C   0  0  0  0  0  0  0  0  0  0  0  0
   -6.4410   22.4630  -31.3190 C   0  0  0  0  0  0  0  0  0  0  0  0
   -7.4430   23.0850  -30.3850 C   0  0  0  0  0  0  0  0  0  0  0  0
   -7.0830   24.5640  -30.1220 C   0  0  0  0  0  0  0  0  0  0  0  0
   -5.6030   24.7560  -29.7180 C   0  0  0  0  0  0  0  0  0  0  0  0
   -4.6710   24.0930  -30.7000 C   0  0  0  0  0  0  0  0  0  0  0  0
   -3.4860   24.4990  -30.8380 O   0  0  0  0  0  0  0  0  0  0  0  0
   -8.1179   20.2701  -31.0478 H   0  0  0  0  0  0  0  0  0  0  0  0
   -8.5981   21.0301  -32.6029 H   0  0  0  0  0  0  0  0  0  0  0  0
   -7.5713   19.5562  -32.6029 H   0  0  0  0  0  0  0  0  0  0  0  0
   -7.1135   19.7571  -34.1730 H   0  0  0  0  0  0  0  0  0  0  0  0
   -6.7042   17.6875  -35.4928 H   0  0  0  0  0  0  0  0  0  0  0  0
   -4.4539   16.6222  -35.4858 H   0  0  0  0  0  0  0  0  0  0  0  0
   -2.5938   17.6369  -34.1799 H   0  0  0  0  0  0  0  0  0  0  0  0
   -2.9715   20.5762  -31.9282 H   0  0  0  0  0  0  0  0  0  0  0  0
   -2.0142   19.0570  -32.3027 H   0  0  0  0  0  0  0  0  0  0  0  0
   -2.2420   21.3110  -34.1580 H   0  0  0  0  0  0  0  0  0  0  0  0
   -0.2798   19.1088  -33.9146 H   0  0  0  0  0  0  0  0  0  0  0  0
   -1.5989   19.2489  -35.1258 H   0  0  0  0  0  0  0  0  0  0  0  0
   -0.2498   20.4350  -35.1258 H   0  0  0  0  0  0  0  0  0  0  0  0
   -0.9127   21.3682  -31.7164 H   0  0  0  0  0  0  0  0  0  0  0  0
    0.2999   21.2733  -33.0383 H   0  0  0  0  0  0  0  0  0  0  0  0
   -0.9280   22.5844  -33.0383 H   0  0  0  0  0  0  0  0  0  0  0  0
   -3.4209   22.1327  -32.5825 H   0  0  0  0  0  0  0  0  0  0  0  0
   -8.4441   23.0299  -30.8375 H   0  0  0  0  0  0  0  0  0  0  0  0
   -7.4308   22.5381  -29.4307 H   0  0  0  0  0  0  0  0  0  0  0  0
   -7.2752   25.1411  -31.0385 H   0  0  0  0  0  0  0  0  0  0  0  0
   -7.7038   24.9126  -29.2835 H   0  0  0  0  0  0  0  0  0  0  0  0
   -5.3788   25.8324  -29.6834 H   0  0  0  0  0  0  0  0  0  0  0  0
   -5.4518   24.2923  -28.7321 H   0  0  0  0  0  0  0  0  0  0  0  0
  1  2  1  0
  2  3  1  0
  3  4  1  0
  4  5  2  0
  5  6  1  0
  6  7  2  0
  7  8  1  0
  8  9  2  0
  9 10  1  0
 10 11  1  0
 11 12  1  0
 11 13  1  0
  3 14  2  0
 14 15  1  0
 15 16  2  0
 16 17  1  0
 17 18  1  0
 18 19  1  0
 19 20  1  0
 20 21  2  0
 16  2  1  0
  9  4  1  0
 20 15  1  0
  1 22  1  0
  1 23  1  0
  1 24  1  0
  5 25  1  0
  6 26  1  0
  7 27  1  0
  8 28  1  0
 10 29  1  0
 10 30  1  0
 11 31  1  0
 12 32  1  0
 12 33  1  0
 12 34  1  0
 13 35  1  0
 13 36  1  0
 13 37  1  0
 14 38  1  0
 17 39  1  0
 17 40  1  0
 18 41  1  0
 18 42  1  0
 19 43  1  0
 19 44  1  0
M  CHG  1  11   1
M  END
>  <UniqueID>  (27) 
26

>  <SMILES>  (27) 
Cn1c(-c2ccccc2C[NH+](C)C)cc2c1CCCC2=O

>  <Energy>  (27) 
81.61457228587217

>  <Genealogy>  (27) 
Cn1c(-c2ccccc2C[NH+](C)C)cc2c1CCCC2=O (protonated)
Cn1c(-c2ccccc2C[NH+](C)C)cc2c1CCCC2=O (3D coordinates assigned)
Cn1c(-c2ccccc2C[NH+](C)C)cc2c1CCCC2=O (nonaromatic ring conformer: 81.61457228587217 kcal/mol)

>  <smiles>  (27) 
CN(C)Cc1ccccc1-c1cc2c(n1C)CCCC2=O

>  <score_type>  (27) 
oracle

>  <origin>  (27) 
adg

>  <m_score__min__energy>  (27) 
-7.6299999999999999

>  <m_primary>  (27) 
energy

$$$$
27:0
     RDKit          3D

 70 74  0  0  0  0  0  0  0  0999 V2000
   -3.9060   18.5890  -26.3280 C   0  0  0  0  0  0  0  0  0  0  0  0
   -2.3710   18.6220  -26.3480 C   0  0  0  0  0  0  0  0  0  0  0  0
   -1.7940   19.8340  -26.9820 N   0  0  0  0  0  0  0  0  0  0  0  0
   -0.4090   19.6520  -27.4770 C   0  0  0  0  0  0  0  0  0  0  0  0
   -0.1280   18.1930  -27.8320 C   0  0  0  0  0  0  0  0  0  0  0  0
   -2.6840   20.4020  -28.0200 C   0  0  0  0  0  0  0  0  0  0  0  0
   -1.9740   20.4910  -29.3830 C   0  0  0  0  0  0  0  0  0  0  0  0
   -1.7920   21.9220  -29.9120 C   0  0  0  0  0  0  0  0  0  0  0  0
   -2.8600   22.3460  -30.8290 N   0  0  0  0  0  0  0  0  0  0  0  0
   -3.2550   21.4730  -31.9030 C   0  0  0  0  0  0  0  0  0  0  0  0
   -2.2720   20.9280  -32.7490 C   0  0  0  0  0  0  0  0  0  0  0  0
   -1.0120   21.5440  -32.8890 C   0  0  0  0  0  0  0  0  0  0  0  0
   -0.0450   21.0000  -33.7320 C   0  0  0  0  0  0  0  0  0  0  0  0
   -0.3250   19.8510  -34.4620 C   0  0  0  0  0  0  0  0  0  0  0  0
   -1.5730   19.2360  -34.3510 C   0  0  0  0  0  0  0  0  0  0  0  0
   -2.5660   19.7560  -33.4840 C   0  0  0  0  0  0  0  0  0  0  0  0
   -3.7980   19.1540  -33.3440 N   0  0  0  0  0  0  0  0  0  0  0  0
   -3.9950   17.7600  -33.7930 C   0  0  0  0  0  0  0  0  0  0  0  0
   -4.8500   19.8610  -32.7910 C   0  0  0  0  0  0  0  0  0  0  0  0
   -6.1410   19.4330  -32.9570 N   0  0  0  0  0  0  0  0  0  0  0  0
   -7.2100   20.1150  -32.4670 C   0  0  0  0  0  0  0  0  0  0  0  0
   -8.5110   19.6300  -32.6870 C   0  0  0  0  0  0  0  0  0  0  0  0
   -9.6210   20.3550  -32.2520 C   0  0  0  0  0  0  0  0  0  0  0  0
   -9.4440   21.5790  -31.6130 C   0  0  0  0  0  0  0  0  0  0  0  0
   -8.1580   22.0740  -31.3870 C   0  0  0  0  0  0  0  0  0  0  0  0
   -7.0200   21.3350  -31.7830 C   0  0  0  0  0  0  0  0  0  0  0  0
   -5.7050   21.8020  -31.5600 C   0  0  0  0  0  0  0  0  0  0  0  0
   -5.5120   23.1040  -30.9810 N   0  0  0  0  0  0  0  0  0  0  0  0
   -5.3670   23.3280  -29.5530 C   0  0  0  0  0  0  0  0  0  0  0  0
   -5.6600   24.8080  -29.3380 C   0  0  0  0  0  0  0  0  0  0  0  0
   -5.5940   25.4540  -30.7210 C   0  0  0  0  0  0  0  0  0  0  0  0
   -5.7930   24.3230  -31.7180 C   0  0  0  0  0  0  0  0  0  0  0  0
   -4.6010   21.0580  -32.0620 C   0  0  0  0  0  0  0  0  0  0  0  0
   -4.2590   18.5814  -25.2862 H   0  0  0  0  0  0  0  0  0  0  0  0
   -4.2986   19.4789  -26.8417 H   0  0  0  0  0  0  0  0  0  0  0  0
   -4.2600   17.6830  -26.8417 H   0  0  0  0  0  0  0  0  0  0  0  0
   -2.0118   18.5724  -25.3095 H   0  0  0  0  0  0  0  0  0  0  0  0
   -2.0455   17.7640  -26.9545 H   0  0  0  0  0  0  0  0  0  0  0  0
   -0.2658   20.2720  -28.3742 H   0  0  0  0  0  0  0  0  0  0  0  0
    0.2850   19.9525  -26.6782 H   0  0  0  0  0  0  0  0  0  0  0  0
   -0.0150   17.6062  -26.9085 H   0  0  0  0  0  0  0  0  0  0  0  0
   -0.9653   17.7913  -28.4216 H   0  0  0  0  0  0  0  0  0  0  0  0
    0.7986   18.1310  -28.4216 H   0  0  0  0  0  0  0  0  0  0  0  0
   -3.5716   19.7601  -28.1203 H   0  0  0  0  0  0  0  0  0  0  0  0
   -2.9695   21.4187  -27.7119 H   0  0  0  0  0  0  0  0  0  0  0  0
   -0.9793   20.0320  -29.2833 H   0  0  0  0  0  0  0  0  0  0  0  0
   -2.6170   19.9684  -30.1065 H   0  0  0  0  0  0  0  0  0  0  0  0
   -1.7746   22.6110  -29.0547 H   0  0  0  0  0  0  0  0  0  0  0  0
   -0.8501   21.9408  -30.4799 H   0  0  0  0  0  0  0  0  0  0  0  0
   -2.9940   23.3660  -30.9930 H   0  0  0  0  0  0  0  0  0  0  0  0
   -0.7898   22.4633  -32.3272 H   0  0  0  0  0  0  0  0  0  0  0  0
    0.9407   21.4803  -33.8197 H   0  0  0  0  0  0  0  0  0  0  0  0
    0.4390   19.4251  -35.1291 H   0  0  0  0  0  0  0  0  0  0  0  0
   -1.7887   18.3354  -34.9446 H   0  0  0  0  0  0  0  0  0  0  0  0
   -4.0880   17.1021  -32.9163 H   0  0  0  0  0  0  0  0  0  0  0  0
   -4.9111   17.6958  -34.3984 H   0  0  0  0  0  0  0  0  0  0  0  0
   -3.1325   17.4444  -34.3984 H   0  0  0  0  0  0  0  0  0  0  0  0
   -6.3470   18.5910  -33.5370 H   0  0  0  0  0  0  0  0  0  0  0  0
   -8.6551   18.6711  -33.2063 H   0  0  0  0  0  0  0  0  0  0  0  0
  -10.6347   19.9598  -32.4138 H   0  0  0  0  0  0  0  0  0  0  0  0
  -10.3199   22.1581  -31.2851 H   0  0  0  0  0  0  0  0  0  0  0  0
   -8.0292   23.0496  -30.8955 H   0  0  0  0  0  0  0  0  0  0  0  0
   -6.0835   22.7094  -28.9927 H   0  0  0  0  0  0  0  0  0  0  0  0
   -4.3616   23.0567  -29.1987 H   0  0  0  0  0  0  0  0  0  0  0  0
   -6.6610   24.9403  -28.9015 H   0  0  0  0  0  0  0  0  0  0  0  0
   -4.9393   25.2654  -28.6442 H   0  0  0  0  0  0  0  0  0  0  0  0
   -6.3897   26.2056  -30.8308 H   0  0  0  0  0  0  0  0  0  0  0  0
   -4.6358   25.9700  -30.8809 H   0  0  0  0  0  0  0  0  0  0  0  0
   -6.8277   24.3169  -32.0913 H   0  0  0  0  0  0  0  0  0  0  0  0
   -5.1373   24.4309  -32.5946 H   0  0  0  0  0  0  0  0  0  0  0  0
  1  2  1  0
  2  3  1  0
  3  4  1  0
  4  5  1  0
  3  6  1  0
  6  7  1  0
  7  8  1  0
  8  9  1  0
  9 10  1  0
 10 11  2  0
 11 12  1  0
 12 13  2  0
 13 14  1  0
 14 15  2  0
 15 16  1  0
 16 17  2  0
 17 18  1  0
 17 19  1  0
 19 20  2  0
 20 21  1  0
 21 22  2  0
 22 23  1  0
 23 24  2  0
 24 25  1  0
 25 26  2  0
 26 27  1  0
 27 28  1  0
 28 29  1  0
 29 30  1  0
 30 31  1  0
 31 32  1  0
 27 33  2  0
 33 10  1  0
 16 11  1  0
 33 19  1  0
 26 21  1  0
 32 28  1  0
  1 34  1  0
  1 35  1  0
  1 36  1  0
  2 37  1  0
  2 38  1  0
  4 39  1  0
  4 40  1  0
  5 41  1  0
  5 42  1  0
  5 43  1  0
  6 44  1  0
  6 45  1  0
  7 46  1  0
  7 47  1  0
  8 48  1  0
  8 49  1  0
  9 50  1  0
 12 51  1  0
 13 52  1  0
 14 53  1  0
 15 54  1  0
 18 55  1  0
 18 56  1  0
 18 57  1  0
 20 58  1  0
 22 59  1  0
 23 60  1  0
 24 61  1  0
 25 62  1  0
 29 63  1  0
 29 64  1  0
 30 65  1  0
 30 66  1  0
 31 67  1  0
 31 68  1  0
 32 69  1  0
 32 70  1  0
M  CHG  2  17   1  20   1
M  END
>  <UniqueID>  (28) 
27

>  <SMILES>  (28) 
CCN(CC)CCCNc1c2ccccc2[n+](C)c2[nH+]c3ccccc3c(N3CCCC3)c12

>  <Energy>  (28) 
116.5985808305547

>  <Genealogy>  (28) 
CCN(CC)CCCNc1c2ccccc2[n+](C)c2[nH+]c3ccccc3c(N3CCCC3)c12 (protonated)
CCN(CC)CCCNc1c2ccccc2[n+](C)c2[nH+]c3ccccc3c(N3CCCC3)c12 (3D coordinates assigned)
CCN(CC)CCCNc1c2ccccc2[n+](C)c2[nH+]c3ccccc3c(N3CCCC3)c12 (nonaromatic ring conformer: 116.5985808305547 kcal/mol)

>  <smiles>  (28) 
CCN(CC)CCCNc1c2ccccc2[n+](C)c2nc3ccccc3c(N3CCCC3)c12

>  <score_type>  (28) 
oracle

>  <origin>  (28) 
adg

>  <m_score__min__energy>  (28) 
-8.5399999999999991

>  <m_primary>  (28) 
energy

$$$$
28:0
     RDKit          3D

 46 48  0  0  0  0  0  0  0  0999 V2000
    0.7260   22.6290  -35.8330 C   0  0  0  0  0  0  0  0  0  0  0  0
    0.4060   21.2810  -35.2000 C   0  0  0  0  0  0  0  0  0  0  0  0
   -0.8080   21.3900  -34.3810 N   0  0  0  0  0  0  0  0  0  0  0  0
   -0.8720   20.3680  -33.3210 C   0  0  0  0  0  0  0  0  0  0  0  0
   -2.2130   20.3520  -32.5560 C   0  0  0  0  0  0  0  0  0  0  0  0
   -3.1780   21.3190  -33.1100 N   0  0  0  0  0  0  0  0  0  0  0  0
   -4.5440   20.9070  -32.8240 C   0  0  0  0  0  0  0  0  0  0  0  0
   -5.0630   19.6930  -33.3440 C   0  0  0  0  0  0  0  0  0  0  0  0
   -4.3530   18.9250  -34.3020 C   0  0  0  0  0  0  0  0  0  0  0  0
   -4.8890   17.7520  -34.8230 C   0  0  0  0  0  0  0  0  0  0  0  0
   -6.1450   17.3220  -34.4230 C   0  0  0  0  0  0  0  0  0  0  0  0
   -6.8690   18.0540  -33.4870 C   0  0  0  0  0  0  0  0  0  0  0  0
   -6.3380   19.2360  -32.9090 C   0  0  0  0  0  0  0  0  0  0  0  0
   -7.0410   19.9450  -31.9560 N   0  0  0  0  0  0  0  0  0  0  0  0
   -8.1900   19.3180  -31.2640 C   0  0  0  0  0  0  0  0  0  0  0  0
   -6.6680   21.2360  -31.6430 C   0  0  0  0  0  0  0  0  0  0  0  0
   -7.5360   22.0990  -30.9310 C   0  0  0  0  0  0  0  0  0  0  0  0
   -7.1500   23.3910  -30.5850 C   0  0  0  0  0  0  0  0  0  0  0  0
   -5.8950   23.8790  -30.9500 C   0  0  0  0  0  0  0  0  0  0  0  0
   -5.5060   25.2210  -30.5960 N   0  0  0  0  0  0  0  0  0  0  0  0
   -6.3200   26.0030  -30.0630 O   0  0  0  0  0  0  0  0  0  0  0  0
   -4.2260   25.6660  -30.8420 O   0  0  0  0  0  0  0  0  0  0  0  0
   -5.0330   23.0530  -31.6850 C   0  0  0  0  0  0  0  0  0  0  0  0
   -5.4020   21.7340  -32.0500 C   0  0  0  0  0  0  0  0  0  0  0  0
    0.9026   23.3728  -35.0421 H   0  0  0  0  0  0  0  0  0  0  0  0
    1.6271   22.5364  -36.4570 H   0  0  0  0  0  0  0  0  0  0  0  0
   -0.1206   22.9513  -36.4570 H   0  0  0  0  0  0  0  0  0  0  0  0
    0.2460   20.5347  -35.9921 H   0  0  0  0  0  0  0  0  0  0  0  0
    1.2470   20.9712  -34.5622 H   0  0  0  0  0  0  0  0  0  0  0  0
   -1.6480   21.3290  -35.0000 H   0  0  0  0  0  0  0  0  0  0  0  0
   -0.7227   19.3801  -33.7813 H   0  0  0  0  0  0  0  0  0  0  0  0
   -0.0873   20.6127  -32.5900 H   0  0  0  0  0  0  0  0  0  0  0  0
   -2.6458   19.3427  -32.6195 H   0  0  0  0  0  0  0  0  0  0  0  0
   -2.0113   20.6343  -31.5121 H   0  0  0  0  0  0  0  0  0  0  0  0
   -2.9890   22.2740  -32.7310 H   0  0  0  0  0  0  0  0  0  0  0  0
   -3.0530   21.4440  -34.1370 H   0  0  0  0  0  0  0  0  0  0  0  0
   -3.3617   19.2627  -34.6386 H   0  0  0  0  0  0  0  0  0  0  0  0
   -4.3150   17.1640  -35.5542 H   0  0  0  0  0  0  0  0  0  0  0  0
   -6.5701   16.4001  -34.8466 H   0  0  0  0  0  0  0  0  0  0  0  0
   -7.8708   17.7102  -33.1899 H   0  0  0  0  0  0  0  0  0  0  0  0
   -8.0491   19.3949  -30.1758 H   0  0  0  0  0  0  0  0  0  0  0  0
   -9.1175   19.8350  -31.5511 H   0  0  0  0  0  0  0  0  0  0  0  0
   -8.2571   18.2582  -31.5511 H   0  0  0  0  0  0  0  0  0  0  0  0
   -8.5361   21.7410  -30.6453 H   0  0  0  0  0  0  0  0  0  0  0  0
   -7.8408   24.0330  -30.0187 H   0  0  0  0  0  0  0  0  0  0  0  0
   -4.0472   23.4375  -31.9855 H   0  0  0  0  0  0  0  0  0  0  0  0
  1  2  1  0
  2  3  1  0
  3  4  1  0
  4  5  1  0
  5  6  1  0
  6  7  1  0
  7  8  2  0
  8  9  1  0
  9 10  2  0
 10 11  1  0
 11 12  2  0
 12 13  1  0
 13 14  2  0
 14 15  1  0
 14 16  1  0
 16 17  2  0
 17 18  1  0
 18 19  2  0
 19 20  1  0
 20 21  2  0
 20 22  1  0
 19 23  1  0
 23 24  2  0
 24  7  1  0
 13  8  1  0
 24 16  1  0
  1 25  1  0
  1 26  1  0
  1 27  1  0
  2 28  1  0
  2 29  1  0
  3 30  1  0
  4 31  1  0
  4 32  1  0
  5 33  1  0
  5 34  1  0
  6 35  1  0
  6 36  1  0
  9 37  1  0
 10 38  1  0
 11 39  1  0
 12 40  1  0
 15 41  1  0
 15 42  1  0
 15 43  1  0
 17 44  1  0
 18 45  1  0
 23 46  1  0
M  CHG  4   6   1  14   1  20   1  22  -1
M  END
>  <UniqueID>  (29) 
28

>  <SMILES>  (29) 
CCNCC[NH2+]c1c2ccccc2[n+](C)c2ccc([N+](=O)[O-])cc12

>  <Energy>  (29) 
73.08603355125688

>  <Genealogy>  (29) 
CCNCC[NH2+]c1c2ccccc2[n+](C)c2ccc([N+](=O)[O-])cc12 (protonated)
CCNCC[NH2+]c1c2ccccc2[n+](C)c2ccc([N+](=O)[O-])cc12 (3D coordinates assigned)
CCNCC[NH2+]c1c2ccccc2[n+](C)c2ccc([N+](=O)[O-])cc12 (optimized conformer: 73.08603355125688 kcal/mol)

>  <smiles>  (29) 
CCNCCNc1c2ccccc2[n+](C)c2ccc([N+](=O)[O-])cc12

>  <score_type>  (29) 
oracle

>  <origin>  (29) 
adg

>  <m_score__min__energy>  (29) 
-8.8800000000000008

>  <m_primary>  (29) 
energy

$$$$
29:0
     RDKit          3D

 52 54  0  0  0  0  0  0  0  0999 V2000
   -9.4720   21.1710  -31.9590 C   0  0  0  0  0  0  0  0  0  0  0  0
   -7.9830   20.9280  -32.2470 C   0  0  0  0  0  0  0  0  0  0  0  0
   -7.7620   19.7450  -33.1190 N   0  0  2  0  0  0  0  0  0  0  0  0
   -7.8590   18.5100  -32.3090 C   0  0  0  0  0  0  0  0  0  0  0  0
   -6.4350   19.8130  -33.7870 C   0  0  0  0  0  0  0  0  0  0  0  0
   -5.3010   20.1260  -32.7900 C   0  0  0  0  0  0  0  0  0  0  0  0
   -4.7690   21.4710  -33.0140 N   0  0  0  0  0  0  0  0  0  0  0  0
   -4.1240   22.1990  -31.9520 C   0  0  0  0  0  0  0  0  0  0  0  0
   -4.8740   23.1160  -31.1950 C   0  0  0  0  0  0  0  0  0  0  0  0
   -6.1350   23.5720  -31.6390 C   0  0  0  0  0  0  0  0  0  0  0  0
   -6.8530   24.5110  -30.9010 C   0  0  0  0  0  0  0  0  0  0  0  0
   -6.3300   25.0080  -29.7130 C   0  0  0  0  0  0  0  0  0  0  0  0
   -5.1000   24.5480  -29.2390 C   0  0  0  0  0  0  0  0  0  0  0  0
   -4.3680   23.5610  -29.9470 C   0  0  0  0  0  0  0  0  0  0  0  0
   -3.2110   23.0080  -29.4380 N   0  0  0  0  0  0  0  0  0  0  0  0
   -2.8950   23.1550  -27.9990 C   0  0  0  0  0  0  0  0  0  0  0  0
   -2.3680   22.2880  -30.2650 C   0  0  0  0  0  0  0  0  0  0  0  0
   -1.0680   21.9210  -29.8460 C   0  0  0  0  0  0  0  0  0  0  0  0
   -0.2310   21.1710  -30.6620 C   0  0  0  0  0  0  0  0  0  0  0  0
   -0.6200   20.8220  -31.9550 C   0  0  0  0  0  0  0  0  0  0  0  0
    0.3550   20.0800  -32.8350 C   0  0  0  0  0  0  0  0  0  0  0  0
   -1.8820   21.2350  -32.4410 C   0  0  0  0  0  0  0  0  0  0  0  0
   -2.1710   21.0890  -33.8420 N   0  0  0  0  0  0  0  0  0  0  0  0
   -2.7930   21.9060  -31.5690 C   0  0  0  0  0  0  0  0  0  0  0  0
   -9.6355   21.1977  -30.8716 H   0  0  0  0  0  0  0  0  0  0  0  0
   -9.7788   22.1311  -32.3996 H   0  0  0  0  0  0  0  0  0  0  0  0
  -10.0681   20.3583  -32.3996 H   0  0  0  0  0  0  0  0  0  0  0  0
   -7.5697   21.8170  -32.7458 H   0  0  0  0  0  0  0  0  0  0  0  0
   -7.4819   20.7361  -31.2868 H   0  0  0  0  0  0  0  0  0  0  0  0
   -8.5260   19.7090  -33.8390 H   0  0  0  0  0  0  0  0  0  0  0  0
   -7.8386   18.7699  -31.2403 H   0  0  0  0  0  0  0  0  0  0  0  0
   -8.8006   17.9915  -32.5423 H   0  0  0  0  0  0  0  0  0  0  0  0
   -7.0099   17.8508  -32.5423 H   0  0  0  0  0  0  0  0  0  0  0  0
   -6.2289   18.8447  -34.2665 H   0  0  0  0  0  0  0  0  0  0  0  0
   -6.4692   20.6251  -34.5281 H   0  0  0  0  0  0  0  0  0  0  0  0
   -5.6937   20.0596  -31.7646 H   0  0  0  0  0  0  0  0  0  0  0  0
   -4.4905   19.3970  -32.9374 H   0  0  0  0  0  0  0  0  0  0  0  0
   -4.9250   21.9330  -33.9380 H   0  0  0  0  0  0  0  0  0  0  0  0
   -6.5549   23.1816  -32.5777 H   0  0  0  0  0  0  0  0  0  0  0  0
   -7.8334   24.8588  -31.2585 H   0  0  0  0  0  0  0  0  0  0  0  0
   -6.8874   25.7667  -29.1441 H   0  0  0  0  0  0  0  0  0  0  0  0
   -4.6927   24.9571  -28.3027 H   0  0  0  0  0  0  0  0  0  0  0  0
   -3.7306   22.7663  -27.3985 H   0  0  0  0  0  0  0  0  0  0  0  0
   -1.9810   22.5896  -27.7647 H   0  0  0  0  0  0  0  0  0  0  0  0
   -2.7386   24.2183  -27.7647 H   0  0  0  0  0  0  0  0  0  0  0  0
   -0.7126   22.2359  -28.8538 H   0  0  0  0  0  0  0  0  0  0  0  0
    0.7504   20.8484  -30.2840 H   0  0  0  0  0  0  0  0  0  0  0  0
    1.0734   19.5333  -32.2066 H   0  0  0  0  0  0  0  0  0  0  0  0
   -0.1926   19.3681  -33.4701 H   0  0  0  0  0  0  0  0  0  0  0  0
    0.8952   20.7976  -33.4701 H   0  0  0  0  0  0  0  0  0  0  0  0
   -2.1990   21.9230  -34.4700 H   0  0  0  0  0  0  0  0  0  0  0  0
   -2.2070   20.1540  -34.3030 H   0  0  0  0  0  0  0  0  0  0  0  0
  1  2  1  0
  2  3  1  0
  3  4  1  0
  3  5  1  0
  5  6  1  0
  6  7  1  0
  7  8  1  0
  8  9  2  0
  9 10  1  0
 10 11  2  0
 11 12  1  0
 12 13  2  0
 13 14  1  0
 14 15  2  0
 15 16  1  0
 15 17  1  0
 17 18  2  0
 18 19  1  0
 19 20  2  0
 20 21  1  0
 20 22  1  0
 22 23  1  0
 22 24  2  0
 24  8  1  0
 14  9  1  0
 24 17  1  0
  1 25  1  0
  1 26  1  0
  1 27  1  0
  2 28  1  0
  2 29  1  0
  3 30  1  6
  4 31  1  0
  4 32  1  0
  4 33  1  0
  5 34  1  0
  5 35  1  0
  6 36  1  0
  6 37  1  0
  7 38  1  0
 10 39  1  0
 11 40  1  0
 12 41  1  0
 13 42  1  0
 16 43  1  0
 16 44  1  0
 16 45  1  0
 18 46  1  0
 19 47  1  0
 21 48  1  0
 21 49  1  0
 21 50  1  0
 23 51  1  0
 23 52  1  0
M  CHG  2   3   1  15   1
M  END
>  <UniqueID>  (30) 
29

>  <SMILES>  (30) 
CC[N@H+](C)CCNc1c2ccccc2[n+](C)c2ccc(C)c(N)c12

>  <Energy>  (30) 
89.75355441493984

>  <Genealogy>  (30) 
CC[NH+](C)CCNc1c2ccccc2[n+](C)c2ccc(C)c(N)c12 (protonated)
CC[N@H+](C)CCNc1c2ccccc2[n+](C)c2ccc(C)c(N)c12 (chirality)
CC[N@H+](C)CCNc1c2ccccc2[n+](C)c2ccc(C)c(N)c12 (3D coordinates assigned)
CC[N@H+](C)CCNc1c2ccccc2[n+](C)c2ccc(C)c(N)c12 (optimized conformer: 89.75355441493984 kcal/mol)

>  <smiles>  (30) 
CCN(C)CCNc1c2ccccc2[n+](C)c2ccc(C)c(N)c12

>  <score_type>  (30) 
oracle

>  <origin>  (30) 
adg

>  <m_score__min__energy>  (30) 
-6.9900000000000002

>  <m_primary>  (30) 
energy

$$$$
