0:0
     RDKit          3D

 56 58  0  0  0  0  0  0  0  0999 V2000
   -4.9000   13.5730  -33.1180 C   0  0  0  0  0  0  0  0  0  0  0  0
   -4.5550   14.5490  -31.9870 C   0  0  0  0  0  0  0  0  0  0  0  0
   -4.6490   15.9580  -32.4080 N   0  0  0  0  0  0  0  0  0  0  0  0
   -5.7320   16.6790  -31.7150 C   0  0  0  0  0  0  0  0  0  0  0  0
   -6.7310   17.2860  -32.7120 C   0  0  0  0  0  0  0  0  0  0  0  0
   -6.4350   16.9040  -34.0450 O   0  0  0  0  0  0  0  0  0  0  0  0
   -5.8280   17.9650  -34.7590 C   0  0  0  0  0  0  0  0  0  0  0  0
   -4.3750   17.6190  -35.1140 C   0  0  0  0  0  0  0  0  0  0  0  0
   -3.5220   17.7360  -33.9220 N   0  0  0  0  0  0  0  0  0  0  0  0
   -2.4850   18.7640  -34.0970 C   0  0  0  0  0  0  0  0  0  0  0  0
   -2.6100   19.8110  -32.9870 C   0  0  0  0  0  0  0  0  0  0  0  0
   -3.4570   20.9250  -33.4200 N   0  0  0  0  0  0  0  0  0  0  0  0
   -4.6820   21.2740  -32.7470 C   0  0  0  0  0  0  0  0  0  0  0  0
   -5.8520   20.5910  -33.0600 C   0  0  0  0  0  0  0  0  0  0  0  0
   -7.0610   20.9250  -32.4460 C   0  0  0  0  0  0  0  0  0  0  0  0
   -8.2130   20.2120  -32.8210 C   0  0  0  0  0  0  0  0  0  0  0  0
   -9.4370   20.5220  -32.2480 C   0  0  0  0  0  0  0  0  0  0  0  0
   -9.5090   21.5330  -31.3050 C   0  0  0  0  0  0  0  0  0  0  0  0
   -8.3520   22.2270  -30.9390 C   0  0  0  0  0  0  0  0  0  0  0  0
   -7.1230   21.9360  -31.5000 N   0  0  0  0  0  0  0  0  0  0  0  0
   -5.9650   22.6240  -31.1510 C   0  0  0  0  0  0  0  0  0  0  0  0
   -5.9490   23.6630  -30.1750 C   0  0  0  0  0  0  0  0  0  0  0  0
   -4.7680   24.3190  -29.8330 C   0  0  0  0  0  0  0  0  0  0  0  0
   -3.5690   23.9640  -30.4300 C   0  0  0  0  0  0  0  0  0  0  0  0
   -3.5390   22.9560  -31.3870 C   0  0  0  0  0  0  0  0  0  0  0  0
   -4.7230   22.2910  -31.7750 C   0  0  0  0  0  0  0  0  0  0  0  0
   -5.2375   12.6183  -32.6883 H   0  0  0  0  0  0  0  0  0  0  0  0
   -5.7018   13.9996  -33.7386 H   0  0  0  0  0  0  0  0  0  0  0  0
   -4.0082   13.4009  -33.7386 H   0  0  0  0  0  0  0  0  0  0  0  0
   -5.2527   14.3829  -31.1529 H   0  0  0  0  0  0  0  0  0  0  0  0
   -3.5137   14.3587  -31.6879 H   0  0  0  0  0  0  0  0  0  0  0  0
   -3.7350   16.4190  -32.1790 H   0  0  0  0  0  0  0  0  0  0  0  0
   -4.7910   16.0070  -33.4440 H   0  0  0  0  0  0  0  0  0  0  0  0
   -6.2652   15.9769  -31.0571 H   0  0  0  0  0  0  0  0  0  0  0  0
   -5.2845   17.4978  -31.1325 H   0  0  0  0  0  0  0  0  0  0  0  0
   -7.7438   16.9400  -32.4580 H   0  0  0  0  0  0  0  0  0  0  0  0
   -6.6619   18.3818  -32.6445 H   0  0  0  0  0  0  0  0  0  0  0  0
   -6.3927   18.1464  -35.6854 H   0  0  0  0  0  0  0  0  0  0  0  0
   -5.8328   18.8651  -34.1267 H   0  0  0  0  0  0  0  0  0  0  0  0
   -4.3291   16.5879  -35.4945 H   0  0  0  0  0  0  0  0  0  0  0  0
   -4.0161   18.3183  -35.8836 H   0  0  0  0  0  0  0  0  0  0  0  0
   -4.1260   18.0210  -33.1140 H   0  0  0  0  0  0  0  0  0  0  0  0
   -1.4915   18.2944  -34.0476 H   0  0  0  0  0  0  0  0  0  0  0  0
   -2.6131   19.2505  -35.0752 H   0  0  0  0  0  0  0  0  0  0  0  0
   -3.0561   19.3427  -32.0972 H   0  0  0  0  0  0  0  0  0  0  0  0
   -1.6079   20.1989  -32.7518 H   0  0  0  0  0  0  0  0  0  0  0  0
   -3.1090   21.5270  -34.1980 H   0  0  0  0  0  0  0  0  0  0  0  0
   -5.8250   19.7778  -33.8002 H   0  0  0  0  0  0  0  0  0  0  0  0
   -8.1434   19.4083  -33.5688 H   0  0  0  0  0  0  0  0  0  0  0  0
  -10.3424   19.9697  -32.5400 H   0  0  0  0  0  0  0  0  0  0  0  0
  -10.4745   21.7897  -30.8447 H   0  0  0  0  0  0  0  0  0  0  0  0
   -8.4216   23.0251  -30.1852 H   0  0  0  0  0  0  0  0  0  0  0  0
   -6.8884   23.9529  -29.6816 H   0  0  0  0  0  0  0  0  0  0  0  0
   -4.7878   25.1243  -29.0839 H   0  0  0  0  0  0  0  0  0  0  0  0
   -2.6400   24.4803  -30.1464 H   0  0  0  0  0  0  0  0  0  0  0  0
   -2.5811   22.6729  -31.8478 H   0  0  0  0  0  0  0  0  0  0  0  0
  1  2  1  0
  2  3  1  0
  3  4  1  0
  4  5  1  0
  5  6  1  0
  6  7  1  0
  7  8  1  0
  8  9  1  0
  9 10  1  0
 10 11  1  0
 11 12  1  0
 12 13  1  0
 13 14  2  0
 14 15  1  0
 15 16  2  0
 16 17  1  0
 17 18  2  0
 18 19  1  0
 19 20  2  0
 20 21  1  0
 21 22  2  0
 22 23  1  0
 23 24  2  0
 24 25  1  0
 25 26  2  0
 26 13  1  0
 20 15  1  0
 26 21  1  0
  1 27  1  0
  1 28  1  0
  1 29  1  0
  2 30  1  0
  2 31  1  0
  3 32  1  0
  3 33  1  0
  4 34  1  0
  4 35  1  0
  5 36  1  0
  5 37  1  0
  7 38  1  0
  7 39  1  0
  8 40  1  0
  8 41  1  0
  9 42  1  0
 10 43  1  0
 10 44  1  0
 11 45  1  0
 11 46  1  0
 12 47  1  0
 14 48  1  0
 16 49  1  0
 17 50  1  0
 18 51  1  0
 19 52  1  0
 22 53  1  0
 23 54  1  0
 24 55  1  0
 25 56  1  0
M  CHG  2   3   1  20   1
M  END
>  <UniqueID>  (1) 
1

>  <SMILES>  (1) 
CC[NH2+]CCOCCNCCNc1cc2cccc[n+]2c2ccccc12

>  <Energy>  (1) 
70.43750833985585

>  <Genealogy>  (1) 
CC[NH2+]CCOCCNCCNc1cc2cccc[n+]2c2ccccc12 (protonated)
CC[NH2+]CCOCCNCCNc1cc2cccc[n+]2c2ccccc12 (3D coordinates assigned)
CC[NH2+]CCOCCNCCNc1cc2cccc[n+]2c2ccccc12 (optimized conformer: 70.43750833985585 kcal/mol)

>  <smiles>  (1) 
CCNCCOCCNCCNc1cc2cccc[n+]2c2ccccc12

>  <score_type>  (1) 
oracle

>  <origin>  (1) 
adg

>  <m_score__min__energy>  (1) 
-7.3399999999999999

>  <m_primary>  (1) 
energy

$$$$
1:0
     RDKit          3D

 68 71  0  0  0  0  0  0  0  0999 V2000
   -6.2280   17.6840  -30.8490 C   0  0  0  0  0  0  0  0  0  0  0  0
   -6.9220   17.3000  -32.1560 C   0  0  0  0  0  0  0  0  0  0  0  0
   -6.0180   16.5270  -33.0370 N   0  0  0  0  0  0  0  0  0  0  0  0
   -6.7310   15.9840  -34.2220 C   0  0  0  0  0  0  0  0  0  0  0  0
   -6.6640   14.4620  -34.2070 C   0  0  0  0  0  0  0  0  0  0  0  0
   -4.8490   17.3480  -33.4290 C   0  0  0  0  0  0  0  0  0  0  0  0
   -5.1480   18.1540  -34.7020 C   0  0  0  0  0  0  0  0  0  0  0  0
   -6.0680   19.2560  -34.4140 N   0  0  0  0  0  0  0  0  0  0  0  0
   -5.9460   20.1110  -33.2590 C   0  0  0  0  0  0  0  0  0  0  0  0
   -4.6850   20.5120  -32.8350 C   0  0  0  0  0  0  0  0  0  0  0  0
   -4.5440   21.3700  -31.7450 C   0  0  0  0  0  0  0  0  0  0  0  0
   -3.2620   21.7430  -31.3330 C   0  0  0  0  0  0  0  0  0  0  0  0
   -2.1050   21.3660  -31.8300 O   0  0  0  0  0  0  0  0  0  0  0  0
   -1.1520   21.9310  -31.1100 C   0  0  0  0  0  0  0  0  0  0  0  0
   -1.7160   22.7180  -30.1140 C   0  0  0  0  0  0  0  0  0  0  0  0
   -0.9850   23.4270  -29.0120 C   0  0  0  0  0  0  0  0  0  0  0  0
   -0.6970   22.4880  -27.8380 C   0  0  0  0  0  0  0  0  0  0  0  0
   -1.4920   21.2540  -27.9650 N   0  0  0  0  0  0  0  0  0  0  0  0
   -0.7160   20.0350  -27.6850 C   0  0  0  0  0  0  0  0  0  0  0  0
   -1.6000   18.9090  -27.1080 C   0  0  0  0  0  0  0  0  0  0  0  0
   -3.0180   19.2940  -27.0230 N   0  0  0  0  0  0  0  0  0  0  0  0
   -3.7260   18.5660  -25.9670 C   0  0  0  0  0  0  0  0  0  0  0  0
   -3.0780   22.5750  -30.2750 C   0  0  0  0  0  0  0  0  0  0  0  0
   -4.1480   23.0740  -29.5590 C   0  0  0  0  0  0  0  0  0  0  0  0
   -5.4370   22.6980  -29.9700 C   0  0  0  0  0  0  0  0  0  0  0  0
   -5.6490   21.8560  -31.0580 N   0  0  0  0  0  0  0  0  0  0  0  0
   -6.9240   21.4750  -31.4660 C   0  0  0  0  0  0  0  0  0  0  0  0
   -8.1090   21.9400  -30.8250 C   0  0  0  0  0  0  0  0  0  0  0  0
   -9.3700   21.5080  -31.2300 C   0  0  0  0  0  0  0  0  0  0  0  0
   -9.5020   20.6060  -32.2760 C   0  0  0  0  0  0  0  0  0  0  0  0
   -8.3730   20.1410  -32.9400 C   0  0  0  0  0  0  0  0  0  0  0  0
   -7.0820   20.5770  -32.5690 C   0  0  0  0  0  0  0  0  0  0  0  0
   -6.8373   17.3468  -29.9975 H   0  0  0  0  0  0  0  0  0  0  0  0
   -5.2388   17.2049  -30.8046 H   0  0  0  0  0  0  0  0  0  0  0  0
   -6.1085   18.7766  -30.8046 H   0  0  0  0  0  0  0  0  0  0  0  0
   -7.8072   16.6889  -31.9258 H   0  0  0  0  0  0  0  0  0  0  0  0
   -7.2122   18.2228  -32.6796 H   0  0  0  0  0  0  0  0  0  0  0  0
   -7.7830   16.3042  -34.1945 H   0  0  0  0  0  0  0  0  0  0  0  0
   -6.2546   16.3612  -35.1389 H   0  0  0  0  0  0  0  0  0  0  0  0
   -6.6483   14.1059  -33.1663 H   0  0  0  0  0  0  0  0  0  0  0  0
   -7.5449   14.0511  -34.7219 H   0  0  0  0  0  0  0  0  0  0  0  0
   -5.7504   14.1301  -34.7219 H   0  0  0  0  0  0  0  0  0  0  0  0
   -4.6063   18.0428  -32.6114 H   0  0  0  0  0  0  0  0  0  0  0  0
   -3.9997   16.6780  -33.6284 H   0  0  0  0  0  0  0  0  0  0  0  0
   -4.2075   18.5635  -35.0991 H   0  0  0  0  0  0  0  0  0  0  0  0
   -5.6164   17.4868  -35.4406 H   0  0  0  0  0  0  0  0  0  0  0  0
   -6.8560   19.4120  -35.0810 H   0  0  0  0  0  0  0  0  0  0  0  0
   -3.7909   20.1497  -33.3634 H   0  0  0  0  0  0  0  0  0  0  0  0
   -0.0726   21.7979  -31.2748 H   0  0  0  0  0  0  0  0  0  0  0  0
   -0.0322   23.8119  -29.4044 H   0  0  0  0  0  0  0  0  0  0  0  0
   -1.6189   24.2497  -28.6496 H   0  0  0  0  0  0  0  0  0  0  0  0
    0.3727   22.2318  -27.8319 H   0  0  0  0  0  0  0  0  0  0  0  0
   -0.9680   22.9939  -26.8996 H   0  0  0  0  0  0  0  0  0  0  0  0
   -2.3200   21.2980  -27.3250 H   0  0  0  0  0  0  0  0  0  0  0  0
   -0.2574   19.6828  -28.6207 H   0  0  0  0  0  0  0  0  0  0  0  0
    0.0506   20.2837  -26.9363 H   0  0  0  0  0  0  0  0  0  0  0  0
   -1.5127   18.0246  -27.7562 H   0  0  0  0  0  0  0  0  0  0  0  0
   -1.2489   18.6980  -26.0871 H   0  0  0  0  0  0  0  0  0  0  0  0
   -3.0940   20.3220  -26.8340 H   0  0  0  0  0  0  0  0  0  0  0  0
   -3.3820   18.9197  -24.9839 H   0  0  0  0  0  0  0  0  0  0  0  0
   -4.8076   18.7420  -26.0621 H   0  0  0  0  0  0  0  0  0  0  0  0
   -3.5199   17.4897  -26.0621 H   0  0  0  0  0  0  0  0  0  0  0  0
   -3.9962   23.7417  -28.6981 H   0  0  0  0  0  0  0  0  0  0  0  0
   -6.3062   23.0807  -29.4150 H   0  0  0  0  0  0  0  0  0  0  0  0
   -8.0262   22.6549  -29.9931 H   0  0  0  0  0  0  0  0  0  0  0  0
  -10.2672   21.8846  -30.7170 H   0  0  0  0  0  0  0  0  0  0  0  0
  -10.5006   20.2588  -32.5799 H   0  0  0  0  0  0  0  0  0  0  0  0
   -8.4866   19.4234  -33.7659 H   0  0  0  0  0  0  0  0  0  0  0  0
  1  2  1  0
  2  3  1  0
  3  4  1  0
  4  5  1  0
  3  6  1  0
  6  7  1  0
  7  8  1  0
  8  9  1  0
  9 10  2  0
 10 11  1  0
 11 12  2  0
 12 13  1  0
 13 14  1  0
 14 15  2  0
 15 16  1  0
 16 17  1  0
 17 18  1  0
 18 19  1  0
 19 20  1  0
 20 21  1  0
 21 22  1  0
 15 23  1  0
 23 24  2  0
 24 25  1  0
 25 26  2  0
 26 27  1  0
 27 28  2  0
 28 29  1  0
 29 30  2  0
 30 31  1  0
 31 32  2  0
 32  9  1  0
 26 11  1  0
 32 27  1  0
 23 12  1  0
  1 33  1  0
  1 34  1  0
  1 35  1  0
  2 36  1  0
  2 37  1  0
  4 38  1  0
  4 39  1  0
  5 40  1  0
  5 41  1  0
  5 42  1  0
  6 43  1  0
  6 44  1  0
  7 45  1  0
  7 46  1  0
  8 47  1  0
 10 48  1  0
 14 49  1  0
 16 50  1  0
 16 51  1  0
 17 52  1  0
 17 53  1  0
 18 54  1  0
 19 55  1  0
 19 56  1  0
 20 57  1  0
 20 58  1  0
 21 59  1  0
 22 60  1  0
 22 61  1  0
 22 62  1  0
 24 63  1  0
 25 64  1  0
 28 65  1  0
 29 66  1  0
 30 67  1  0
 31 68  1  0
M  CHG  1  26   1
M  END
>  <UniqueID>  (2) 
2

>  <SMILES>  (2) 
CCN(CC)CCNc1cc2c3occ(CCNCCNC)c3cc[n+]2c2ccccc12

>  <Energy>  (2) 
118.8060938959302

>  <Genealogy>  (2) 
CCN(CC)CCNc1cc2c3occ(CCNCCNC)c3cc[n+]2c2ccccc12 (3D coordinates assigned)
CCN(CC)CCNc1cc2c3occ(CCNCCNC)c3cc[n+]2c2ccccc12 (optimized conformer: 118.8060938959302 kcal/mol)

>  <smiles>  (2) 
CCN(CC)CCNc1cc2c3occ(CCNCCNC)c3cc[n+]2c2ccccc12

>  <score_type>  (2) 
oracle

>  <origin>  (2) 
adg

>  <m_score__min__energy>  (2) 
-8.6999999999999993

>  <m_primary>  (2) 
energy

$$$$
2:0
     RDKit          3D

 68 70  0  0  0  0  0  0  0  0999 V2000
    2.2110   18.7740  -31.5850 C   0  0  0  0  0  0  0  0  0  0  0  0
    0.9900   18.4010  -30.7530 C   0  0  0  0  0  0  0  0  0  0  0  0
   -0.1380   18.2680  -31.5940 O   0  0  0  0  0  0  0  0  0  0  0  0
   -0.4020   16.9080  -31.8680 C   0  0  0  0  0  0  0  0  0  0  0  0
   -1.4430   16.8130  -32.9750 C   0  0  0  0  0  0  0  0  0  0  0  0
   -1.4370   18.0130  -33.7170 O   0  0  0  0  0  0  0  0  0  0  0  0
   -0.8830   17.7810  -34.9940 C   0  0  0  0  0  0  0  0  0  0  0  0
    0.4550   18.5080  -35.1070 C   0  0  0  0  0  0  0  0  0  0  0  0
    0.5110   19.5530  -34.1550 O   0  0  0  0  0  0  0  0  0  0  0  0
    0.0240   20.7800  -34.6720 C   0  0  0  0  0  0  0  0  0  0  0  0
   -1.1600   21.2700  -33.8240 C   0  0  0  0  0  0  0  0  0  0  0  0
   -1.2200   20.6290  -32.4820 N   0  0  1  0  0  0  0  0  0  0  0  0
   -0.3840   21.3760  -31.5210 C   0  0  0  0  0  0  0  0  0  0  0  0
   -2.6200   20.5690  -31.9820 C   0  0  0  0  0  0  0  0  0  0  0  0
   -3.4260   21.8450  -32.2940 C   0  0  0  0  0  0  0  0  0  0  0  0
   -4.4520   21.5960  -33.3090 N   0  0  0  0  0  0  0  0  0  0  0  0
   -5.6230   20.8080  -33.0260 C   0  0  0  0  0  0  0  0  0  0  0  0
   -5.6400   19.4320  -33.3180 C   0  0  0  0  0  0  0  0  0  0  0  0
   -4.4970   18.7870  -33.8410 C   0  0  0  0  0  0  0  0  0  0  0  0
   -4.5390   17.4410  -34.1950 C   0  0  0  0  0  0  0  0  0  0  0  0
   -5.7140   16.7170  -34.0400 C   0  0  0  0  0  0  0  0  0  0  0  0
   -6.8420   17.3200  -33.4850 C   0  0  0  0  0  0  0  0  0  0  0  0
   -6.8160   18.6760  -33.0660 C   0  0  0  0  0  0  0  0  0  0  0  0
   -7.8970   19.2630  -32.4340 N   0  0  0  0  0  0  0  0  0  0  0  0
   -8.9960   18.4190  -31.9160 C   0  0  0  0  0  0  0  0  0  0  0  0
   -7.9320   20.6330  -32.2490 C   0  0  0  0  0  0  0  0  0  0  0  0
   -9.1120   21.3010  -31.8300 C   0  0  0  0  0  0  0  0  0  0  0  0
   -9.1200   22.6750  -31.5960 C   0  0  0  0  0  0  0  0  0  0  0  0
   -7.9650   23.4220  -31.7840 C   0  0  0  0  0  0  0  0  0  0  0  0
   -6.8020   22.8040  -32.2340 C   0  0  0  0  0  0  0  0  0  0  0  0
   -6.7750   21.4180  -32.4980 C   0  0  0  0  0  0  0  0  0  0  0  0
    3.0463   19.0292  -30.9163 H   0  0  0  0  0  0  0  0  0  0  0  0
    2.4964   17.9221  -32.2196 H   0  0  0  0  0  0  0  0  0  0  0  0
    1.9716   19.6400  -32.2196 H   0  0  0  0  0  0  0  0  0  0  0  0
    1.1763   17.4471  -30.2378 H   0  0  0  0  0  0  0  0  0  0  0  0
    0.7999   19.1909  -30.0114 H   0  0  0  0  0  0  0  0  0  0  0  0
    0.5248   16.4112  -32.1909 H   0  0  0  0  0  0  0  0  0  0  0  0
   -0.7815   16.4152  -30.9607 H   0  0  0  0  0  0  0  0  0  0  0  0
   -1.2007   15.9689  -33.6374 H   0  0  0  0  0  0  0  0  0  0  0  0
   -2.4387   16.6535  -32.5354 H   0  0  0  0  0  0  0  0  0  0  0  0
   -0.7270   16.7014  -35.1356 H   0  0  0  0  0  0  0  0  0  0  0  0
   -1.5709   18.1560  -35.7662 H   0  0  0  0  0  0  0  0  0  0  0  0
    1.2740   17.7980  -34.9194 H   0  0  0  0  0  0  0  0  0  0  0  0
    0.5565   18.9298  -36.1178 H   0  0  0  0  0  0  0  0  0  0  0  0
    0.8270   21.5313  -34.6463 H   0  0  0  0  0  0  0  0  0  0  0  0
   -0.3103   20.6295  -35.7091 H   0  0  0  0  0  0  0  0  0  0  0  0
   -1.0678   22.3578  -33.6889 H   0  0  0  0  0  0  0  0  0  0  0  0
   -2.0820   20.9989  -34.3592 H   0  0  0  0  0  0  0  0  0  0  0  0
   -0.8360   19.6570  -32.5250 H   0  0  0  0  0  0  0  0  0  0  0  0
   -0.6797   21.1118  -30.4950 H   0  0  0  0  0  0  0  0  0  0  0  0
    0.6737   21.1166  -31.6761 H   0  0  0  0  0  0  0  0  0  0  0  0
   -0.5232   22.4561  -31.6761 H   0  0  0  0  0  0  0  0  0  0  0  0
   -3.1240   19.7121  -32.4529 H   0  0  0  0  0  0  0  0  0  0  0  0
   -2.5745   20.4679  -30.8876 H   0  0  0  0  0  0  0  0  0  0  0  0
   -3.9128   22.1949  -31.3717 H   0  0  0  0  0  0  0  0  0  0  0  0
   -2.7326   22.6052  -32.6829 H   0  0  0  0  0  0  0  0  0  0  0  0
   -4.2480   21.8450  -34.3040 H   0  0  0  0  0  0  0  0  0  0  0  0
   -3.5635   19.3544  -33.9700 H   0  0  0  0  0  0  0  0  0  0  0  0
   -3.6406   16.9506  -34.5979 H   0  0  0  0  0  0  0  0  0  0  0  0
   -5.7549   15.6642  -34.3562 H   0  0  0  0  0  0  0  0  0  0  0  0
   -7.7668   16.7356  -33.3700 H   0  0  0  0  0  0  0  0  0  0  0  0
   -8.9804   18.4310  -30.8162 H   0  0  0  0  0  0  0  0  0  0  0  0
   -9.9594   18.8115  -32.2733 H   0  0  0  0  0  0  0  0  0  0  0  0
   -8.8654   17.3869  -32.2733 H   0  0  0  0  0  0  0  0  0  0  0  0
  -10.0374   20.7237  -31.6873 H   0  0  0  0  0  0  0  0  0  0  0  0
  -10.0442   23.1689  -31.2614 H   0  0  0  0  0  0  0  0  0  0  0  0
   -7.9690   24.5024  -31.5773 H   0  0  0  0  0  0  0  0  0  0  0  0
   -5.8923   23.4035  -32.3858 H   0  0  0  0  0  0  0  0  0  0  0  0
  1  2  1  0
  2  3  1  0
  3  4  1  0
  4  5  1  0
  5  6  1  0
  6  7  1  0
  7  8  1  0
  8  9  1  0
  9 10  1  0
 10 11  1  0
 11 12  1  0
 12 13  1  0
 12 14  1  0
 14 15  1  0
 15 16  1  0
 16 17  1  0
 17 18  2  0
 18 19  1  0
 19 20  2  0
 20 21  1  0
 21 22  2  0
 22 23  1  0
 23 24  2  0
 24 25  1  0
 24 26  1  0
 26 27  2  0
 27 28  1  0
 28 29  2  0
 29 30  1  0
 30 31  2  0
 31 17  1  0
 23 18  1  0
 31 26  1  0
  1 32  1  0
  1 33  1  0
  1 34  1  0
  2 35  1  0
  2 36  1  0
  4 37  1  0
  4 38  1  0
  5 39  1  0
  5 40  1  0
  7 41  1  0
  7 42  1  0
  8 43  1  0
  8 44  1  0
 10 45  1  0
 10 46  1  0
 11 47  1  0
 11 48  1  0
 12 49  1  6
 13 50  1  0
 13 51  1  0
 13 52  1  0
 14 53  1  0
 14 54  1  0
 15 55  1  0
 15 56  1  0
 16 57  1  0
 19 58  1  0
 20 59  1  0
 21 60  1  0
 22 61  1  0
 25 62  1  0
 25 63  1  0
 25 64  1  0
 27 65  1  0
 28 66  1  0
 29 67  1  0
 30 68  1  0
M  CHG  2  12   1  24   1
M  END
>  <UniqueID>  (3) 
3

>  <SMILES>  (3) 
CCOCCOCCOCC[N@@H+](C)CCNc1c2ccccc2[n+](C)c2ccccc12

>  <Energy>  (3) 
93.8066326931214

>  <Genealogy>  (3) 
CCOCCOCCOCC[NH+](C)CCNc1c2ccccc2[n+](C)c2ccccc12 (protonated)
CCOCCOCCOCC[N@@H+](C)CCNc1c2ccccc2[n+](C)c2ccccc12 (chirality)
CCOCCOCCOCC[N@@H+](C)CCNc1c2ccccc2[n+](C)c2ccccc12 (3D coordinates assigned)
CCOCCOCCOCC[N@@H+](C)CCNc1c2ccccc2[n+](C)c2ccccc12 (optimized conformer: 93.8066326931214 kcal/mol)

>  <smiles>  (3) 
CCOCCOCCOCCN(C)CCNc1c2ccccc2[n+](C)c2ccccc12

>  <score_type>  (3) 
oracle

>  <origin>  (3) 
adg

>  <m_score__min__energy>  (3) 
-8.7699999999999996

>  <m_primary>  (3) 
energy

$$$$
3:0
     RDKit          3D

 40 41  0  0  0  0  0  0  0  0999 V2000
   -6.1090   17.0920  -31.2090 C   0  0  0  0  0  0  0  0  0  0  0  0
   -7.0580   17.3270  -32.3930 C   0  0  0  0  0  0  0  0  0  0  0  0
   -6.3990   17.2510  -33.7180 N   0  0  0  0  0  0  0  0  0  0  0  0
   -6.3150   15.8670  -34.2190 C   0  0  0  0  0  0  0  0  0  0  0  0
   -5.0870   17.9360  -33.7390 C   0  0  0  0  0  0  0  0  0  0  0  0
   -5.2460   19.4370  -33.4710 C   0  0  0  0  0  0  0  0  0  0  0  0
   -6.6440   19.8540  -33.5920 N   0  0  0  0  0  0  0  0  0  0  0  0
   -7.2520   20.6920  -32.5990 C   0  0  0  0  0  0  0  0  0  0  0  0
   -8.5780   20.4530  -32.1630 C   0  0  0  0  0  0  0  0  0  0  0  0
   -9.3730   19.3050  -32.7230 C   0  0  0  0  0  0  0  0  0  0  0  0
   -9.1650   21.3090  -31.2050 C   0  0  0  0  0  0  0  0  0  0  0  0
   -8.4510   22.3920  -30.6720 C   0  0  0  0  0  0  0  0  0  0  0  0
   -7.1440   22.6290  -31.1110 C   0  0  0  0  0  0  0  0  0  0  0  0
   -6.5670   21.7870  -32.0580 C   0  0  0  0  0  0  0  0  0  0  0  0
   -5.0280   22.3610  -32.4360 S   0  0  0  0  0  0  0  0  0  0  0  0
   -5.1550   23.6460  -31.3540 C   0  0  0  0  0  0  0  0  0  0  0  0
   -4.2450   24.5000  -31.1720 O   0  0  0  0  0  0  0  0  0  0  0  0
   -6.3490   23.6650  -30.7060 N   0  0  0  0  0  0  0  0  0  0  0  0
   -6.7440   24.6820  -29.7270 C   0  0  0  0  0  0  0  0  0  0  0  0
   -6.6586   17.2281  -30.2659 H   0  0  0  0  0  0  0  0  0  0  0  0
   -5.7101   16.0680  -31.2564 H   0  0  0  0  0  0  0  0  0  0  0  0
   -5.2784   17.8116  -31.2564 H   0  0  0  0  0  0  0  0  0  0  0  0
   -7.8511   16.5656  -32.3570 H   0  0  0  0  0  0  0  0  0  0  0  0
   -7.4481   18.3503  -32.2899 H   0  0  0  0  0  0  0  0  0  0  0  0
   -6.2728   15.1710  -33.3682 H   0  0  0  0  0  0  0  0  0  0  0  0
   -7.2013   15.6443  -34.8313 H   0  0  0  0  0  0  0  0  0  0  0  0
   -5.4083   15.7531  -34.8313 H   0  0  0  0  0  0  0  0  0  0  0  0
   -4.4406   17.4988  -32.9638 H   0  0  0  0  0  0  0  0  0  0  0  0
   -4.6387   17.8036  -34.7347 H   0  0  0  0  0  0  0  0  0  0  0  0
   -4.8929   19.6586  -32.4531 H   0  0  0  0  0  0  0  0  0  0  0  0
   -4.6538   19.9874  -34.2169 H   0  0  0  0  0  0  0  0  0  0  0  0
   -7.2730   19.3540  -34.2600 H   0  0  0  0  0  0  0  0  0  0  0  0
   -9.7865   18.7079  -31.8969 H   0  0  0  0  0  0  0  0  0  0  0  0
  -10.1952   19.6952  -33.3408 H   0  0  0  0  0  0  0  0  0  0  0  0
   -8.7185   18.6726  -33.3408 H   0  0  0  0  0  0  0  0  0  0  0  0
  -10.1969   21.1235  -30.8722 H   0  0  0  0  0  0  0  0  0  0  0  0
   -8.9128   23.0468  -29.9183 H   0  0  0  0  0  0  0  0  0  0  0  0
   -6.5920   24.2907  -28.7102 H   0  0  0  0  0  0  0  0  0  0  0  0
   -6.1310   25.5844  -29.8681 H   0  0  0  0  0  0  0  0  0  0  0  0
   -7.8054   24.9340  -29.8681 H   0  0  0  0  0  0  0  0  0  0  0  0
  1  2  1  0
  2  3  1  0
  3  4  1  0
  3  5  1  0
  5  6  1  0
  6  7  1  0
  7  8  1  0
  8  9  2  0
  9 10  1  0
  9 11  1  0
 11 12  2  0
 12 13  1  0
 13 14  2  0
 14 15  1  0
 15 16  1  0
 16 17  2  0
 16 18  1  0
 18 19  1  0
 14  8  1  0
 18 13  1  0
  1 20  1  0
  1 21  1  0
  1 22  1  0
  2 23  1  0
  2 24  1  0
  4 25  1  0
  4 26  1  0
  4 27  1  0
  5 28  1  0
  5 29  1  0
  6 30  1  0
  6 31  1  0
  7 32  1  0
 10 33  1  0
 10 34  1  0
 10 35  1  0
 11 36  1  0
 12 37  1  0
 19 38  1  0
 19 39  1  0
 19 40  1  0
M  END
>  <UniqueID>  (4) 
4

>  <SMILES>  (4) 
CCN(C)CCNc1c(C)ccc2c1sc(=O)n2C

>  <Energy>  (4) 
79.76340354503299

>  <Genealogy>  (4) 
CCN(C)CCNc1c(C)ccc2c1sc(=O)n2C (3D coordinates assigned)
CCN(C)CCNc1c(C)ccc2c1sc(=O)n2C (optimized conformer: 79.76340354503299 kcal/mol)

>  <smiles>  (4) 
CCN(C)CCNc1c(C)ccc2c1sc(=O)n2C

>  <score_type>  (4) 
oracle

>  <origin>  (4) 
adg

>  <m_score__min__energy>  (4) 
-7.7699999999999996

>  <m_primary>  (4) 
energy

$$$$
4:0
     RDKit          3D

 38 39  0  0  0  0  0  0  0  0999 V2000
   -5.9400   26.1480  -30.1360 O   0  0  0  0  0  0  0  0  0  0  0  0
   -5.2920   25.2240  -30.6990 C   0  0  0  0  0  0  0  0  0  0  0  0
   -3.8620   25.2620  -30.7300 N   0  0  0  0  0  0  0  0  0  0  0  0
   -3.0160   24.2700  -30.0760 C   0  0  0  0  0  0  0  0  0  0  0  0
   -2.6900   24.7130  -28.6760 C   0  0  0  0  0  0  0  0  0  0  0  0
   -3.6270   24.5280  -27.6440 C   0  0  0  0  0  0  0  0  0  0  0  0
   -3.3230   24.9240  -26.3380 C   0  0  0  0  0  0  0  0  0  0  0  0
   -2.0810   25.4960  -26.0500 C   0  0  0  0  0  0  0  0  0  0  0  0
   -1.1390   25.6710  -27.0680 C   0  0  0  0  0  0  0  0  0  0  0  0
   -1.4400   25.2780  -28.3760 C   0  0  0  0  0  0  0  0  0  0  0  0
   -6.0030   24.1160  -31.3490 C   0  0  0  0  0  0  0  0  0  0  0  0
   -5.3860   23.3900  -32.1760 O   0  0  0  0  0  0  0  0  0  0  0  0
   -7.3940   23.8780  -31.0810 N   0  0  0  0  0  0  0  0  0  0  0  0
   -8.2620   23.1970  -32.0410 C   0  0  0  0  0  0  0  0  0  0  0  0
   -8.8660   21.9300  -31.4220 C   0  0  0  0  0  0  0  0  0  0  0  0
   -8.1990   20.6830  -31.9450 C   0  0  0  0  0  0  0  0  0  0  0  0
   -7.0600   20.7770  -32.7630 C   0  0  0  0  0  0  0  0  0  0  0  0
   -6.4840   19.6230  -33.3030 C   0  0  0  0  0  0  0  0  0  0  0  0
   -7.0400   18.3690  -33.0340 C   0  0  0  0  0  0  0  0  0  0  0  0
   -8.1740   18.2670  -32.2220 C   0  0  0  0  0  0  0  0  0  0  0  0
   -8.7540   19.4180  -31.6830 C   0  0  0  0  0  0  0  0  0  0  0  0
   -3.5462   23.3069  -30.0390 H   0  0  0  0  0  0  0  0  0  0  0  0
   -2.0818   24.1605  -30.6463 H   0  0  0  0  0  0  0  0  0  0  0  0
   -4.6025   24.0702  -27.8649 H   0  0  0  0  0  0  0  0  0  0  0  0
   -4.0628   24.7850  -25.5359 H   0  0  0  0  0  0  0  0  0  0  0  0
   -1.8445   25.8086  -25.0222 H   0  0  0  0  0  0  0  0  0  0  0  0
   -0.1602   26.1182  -26.8400 H   0  0  0  0  0  0  0  0  0  0  0  0
   -0.6942   25.4121  -29.1734 H   0  0  0  0  0  0  0  0  0  0  0  0
   -7.8530   24.3860  -30.2920 H   0  0  0  0  0  0  0  0  0  0  0  0
   -9.0745   23.8763  -32.3383 H   0  0  0  0  0  0  0  0  0  0  0  0
   -7.6633   22.9112  -32.9184 H   0  0  0  0  0  0  0  0  0  0  0  0
   -8.7393   21.9711  -30.3301 H   0  0  0  0  0  0  0  0  0  0  0  0
   -9.9312   21.8894  -31.6933 H   0  0  0  0  0  0  0  0  0  0  0  0
   -6.6202   21.7618  -32.9791 H   0  0  0  0  0  0  0  0  0  0  0  0
   -5.5914   19.7021  -33.9409 H   0  0  0  0  0  0  0  0  0  0  0  0
   -6.5857   17.4627  -33.4609 H   0  0  0  0  0  0  0  0  0  0  0  0
   -8.6096   17.2799  -32.0076 H   0  0  0  0  0  0  0  0  0  0  0  0
   -9.6498   19.3341  -31.0502 H   0  0  0  0  0  0  0  0  0  0  0  0
  1  2  2  0
  2  3  1  0
  3  4  1  0
  4  5  1  0
  5  6  2  0
  6  7  1  0
  7  8  2  0
  8  9  1  0
  9 10  2  0
  2 11  1  0
 11 12  2  0
 11 13  1  0
 13 14  1  0
 14 15  1  0
 15 16  1  0
 16 17  2  0
 17 18  1  0
 18 19  2  0
 19 20  1  0
 20 21  2  0
 10  5  1  0
 21 16  1  0
  4 22  1  0
  4 23  1  0
  6 24  1  0
  7 25  1  0
  8 26  1  0
  9 27  1  0
 10 28  1  0
 13 29  1  0
 14 30  1  0
 14 31  1  0
 15 32  1  0
 15 33  1  0
 17 34  1  0
 18 35  1  0
 19 36  1  0
 20 37  1  0
 21 38  1  0
M  CHG  1   3  -1
M  END
>  <UniqueID>  (5) 
5

>  <SMILES>  (5) 
O=C([N-]Cc1ccccc1)C(=O)NCCc1ccccc1

>  <Energy>  (5) 
27.875120370639877

>  <Genealogy>  (5) 
O=C([N-]Cc1ccccc1)C(=O)NCCc1ccccc1 (protonated)
O=C([N-]Cc1ccccc1)C(=O)NCCc1ccccc1 (3D coordinates assigned)
O=C([N-]Cc1ccccc1)C(=O)NCCc1ccccc1 (optimized conformer: 27.875120370639877 kcal/mol)

>  <smiles>  (5) 
O=C(NCCc1ccccc1)C(=O)NCc1ccccc1

>  <score_type>  (5) 
oracle

>  <origin>  (5) 
adg

>  <m_score__min__energy>  (5) 
-9.7200000000000006

>  <m_primary>  (5) 
energy

$$$$
5:0
     RDKit          3D

 50 52  0  0  0  0  0  0  0  0999 V2000
   -5.7650   25.6680  -30.1350 C   0  0  0  0  0  0  0  0  0  0  0  0
   -6.8040   24.6100  -29.7740 C   0  0  0  0  0  0  0  0  0  0  0  0
   -6.4750   23.2860  -30.3830 N   0  0  0  0  0  0  0  0  0  0  0  0
   -7.7290   22.5140  -30.5950 C   0  0  0  0  0  0  0  0  0  0  0  0
   -8.3880   22.8060  -31.9480 C   0  0  0  0  0  0  0  0  0  0  0  0
   -5.7370   23.4610  -31.6640 C   0  0  0  0  0  0  0  0  0  0  0  0
   -4.4990   22.5440  -31.7790 C   0  0  0  0  0  0  0  0  0  0  0  0
   -4.3970   21.9380  -33.1070 N   0  0  0  0  0  0  0  0  0  0  0  0
   -4.0240   20.5580  -33.2900 C   0  0  0  0  0  0  0  0  0  0  0  0
   -4.9960   19.5490  -33.1790 C   0  0  0  0  0  0  0  0  0  0  0  0
   -6.3300   19.8670  -32.8350 C   0  0  0  0  0  0  0  0  0  0  0  0
   -7.3100   18.8790  -32.7890 C   0  0  0  0  0  0  0  0  0  0  0  0
   -9.1050   19.3210  -32.3260 Br  0  0  0  0  0  0  0  0  0  0  0  0
   -6.9850   17.5650  -33.1130 C   0  0  0  0  0  0  0  0  0  0  0  0
   -5.6720   17.2250  -33.4350 C   0  0  0  0  0  0  0  0  0  0  0  0
   -4.6370   18.1970  -33.4230 C   0  0  0  0  0  0  0  0  0  0  0  0
   -3.3150   17.8550  -33.6480 N   0  0  0  0  0  0  0  0  0  0  0  0
   -2.9120   16.4300  -33.6370 C   0  0  0  0  0  0  0  0  0  0  0  0
   -2.3630   18.8460  -33.8310 C   0  0  0  0  0  0  0  0  0  0  0  0
   -1.0390   18.5460  -34.2430 C   0  0  0  0  0  0  0  0  0  0  0  0
   -0.0600   19.5360  -34.3070 C   0  0  0  0  0  0  0  0  0  0  0  0
    1.7270   19.0900  -34.8010 Br  0  0  0  0  0  0  0  0  0  0  0  0
   -0.3770   20.8510  -33.9980 C   0  0  0  0  0  0  0  0  0  0  0  0
   -1.6830   21.1910  -33.6620 C   0  0  0  0  0  0  0  0  0  0  0  0
   -2.6960   20.2090  -33.6040 C   0  0  0  0  0  0  0  0  0  0  0  0
   -5.3435   26.0972  -29.2141 H   0  0  0  0  0  0  0  0  0  0  0  0
   -4.9605   25.2054  -30.7256 H   0  0  0  0  0  0  0  0  0  0  0  0
   -6.2421   26.4640  -30.7256 H   0  0  0  0  0  0  0  0  0  0  0  0
   -6.8375   24.5013  -28.6799 H   0  0  0  0  0  0  0  0  0  0  0  0
   -7.7784   24.9366  -30.1663 H   0  0  0  0  0  0  0  0  0  0  0  0
   -5.8660   22.7430  -29.7280 H   0  0  0  0  0  0  0  0  0  0  0  0
   -7.4933   21.4408  -30.5438 H   0  0  0  0  0  0  0  0  0  0  0  0
   -8.4387   22.8153  -29.8104 H   0  0  0  0  0  0  0  0  0  0  0  0
   -9.3825   23.2466  -31.7840 H   0  0  0  0  0  0  0  0  0  0  0  0
   -7.7634   23.5116  -32.5154 H   0  0  0  0  0  0  0  0  0  0  0  0
   -8.4910   21.8693  -32.5154 H   0  0  0  0  0  0  0  0  0  0  0  0
   -6.4200   23.2334  -32.4957 H   0  0  0  0  0  0  0  0  0  0  0  0
   -5.3799   24.5009  -31.6979 H   0  0  0  0  0  0  0  0  0  0  0  0
   -3.5945   23.1404  -31.5887 H   0  0  0  0  0  0  0  0  0  0  0  0
   -4.6005   21.7358  -31.0397 H   0  0  0  0  0  0  0  0  0  0  0  0
   -4.4890   22.5460  -33.9500 H   0  0  0  0  0  0  0  0  0  0  0  0
   -6.5970   20.9081  -32.6007 H   0  0  0  0  0  0  0  0  0  0  0  0
   -7.7673   16.7917  -33.1150 H   0  0  0  0  0  0  0  0  0  0  0  0
   -5.4335   16.1852  -33.7032 H   0  0  0  0  0  0  0  0  0  0  0  0
   -2.8143   16.0846  -32.5972 H   0  0  0  0  0  0  0  0  0  0  0  0
   -3.6754   15.8291  -34.1528 H   0  0  0  0  0  0  0  0  0  0  0  0
   -1.9469   16.3179  -34.1528 H   0  0  0  0  0  0  0  0  0  0  0  0
   -0.7802   17.5126  -34.5171 H   0  0  0  0  0  0  0  0  0  0  0  0
    0.4047   21.6246  -34.0188 H   0  0  0  0  0  0  0  0  0  0  0  0
   -1.9302   22.2393  -33.4384 H   0  0  0  0  0  0  0  0  0  0  0  0
  1  2  1  0
  2  3  1  0
  3  4  1  0
  4  5  1  0
  3  6  1  0
  6  7  1  0
  7  8  1  0
  8  9  1  0
  9 10  2  0
 10 11  1  0
 11 12  2  0
 12 13  1  0
 12 14  1  0
 14 15  2  0
 15 16  1  0
 16 17  2  0
 17 18  1  0
 17 19  1  0
 19 20  2  0
 20 21  1  0
 21 22  1  0
 21 23  2  0
 23 24  1  0
 24 25  2  0
 25  9  1  0
 16 10  1  0
 25 19  1  0
  1 26  1  0
  1 27  1  0
  1 28  1  0
  2 29  1  0
  2 30  1  0
  3 31  1  0
  4 32  1  0
  4 33  1  0
  5 34  1  0
  5 35  1  0
  5 36  1  0
  6 37  1  0
  6 38  1  0
  7 39  1  0
  7 40  1  0
  8 41  1  0
 11 42  1  0
 14 43  1  0
 15 44  1  0
 18 45  1  0
 18 46  1  0
 18 47  1  0
 20 48  1  0
 23 49  1  0
 24 50  1  0
M  CHG  2   3   1  17   1
M  END
>  <UniqueID>  (6) 
6

>  <SMILES>  (6) 
CC[NH+](CC)CCNc1c2cc(Br)ccc2[n+](C)c2cc(Br)ccc12

>  <Energy>  (6) 
79.1346475574529

>  <Genealogy>  (6) 
CC[NH+](CC)CCNc1c2cc(Br)ccc2[n+](C)c2cc(Br)ccc12 (protonated)
CC[NH+](CC)CCNc1c2cc(Br)ccc2[n+](C)c2cc(Br)ccc12 (3D coordinates assigned)
CC[NH+](CC)CCNc1c2cc(Br)ccc2[n+](C)c2cc(Br)ccc12 (optimized conformer: 79.1346475574529 kcal/mol)

>  <smiles>  (6) 
CCN(CC)CCNc1c2cc(Br)ccc2[n+](C)c2cc(Br)ccc12

>  <score_type>  (6) 
oracle

>  <origin>  (6) 
adg

>  <m_score__min__energy>  (6) 
-7.7400000000000002

>  <m_primary>  (6) 
energy

$$$$
6:0
     RDKit          3D

 44 47  0  0  0  0  0  0  0  0999 V2000
    0.5750   20.7600  -33.5510 C   0  0  0  0  0  0  0  0  0  0  0  0
   -0.2490   20.7860  -32.3460 N   0  0  0  0  0  0  0  0  0  0  0  0
   -1.6290   21.1980  -32.3350 C   0  0  0  0  0  0  0  0  0  0  0  0
   -2.4270   21.1390  -33.4910 C   0  0  0  0  0  0  0  0  0  0  0  0
   -3.7620   21.5440  -33.4480 C   0  0  0  0  0  0  0  0  0  0  0  0
   -4.3310   22.0020  -32.2490 C   0  0  0  0  0  0  0  0  0  0  0  0
   -3.5350   22.0800  -31.0900 C   0  0  0  0  0  0  0  0  0  0  0  0
   -2.1900   21.6830  -31.1440 C   0  0  0  0  0  0  0  0  0  0  0  0
   -4.0620   22.7080  -29.8250 C   0  0  0  0  0  0  0  0  0  0  0  0
   -5.5870   22.8330  -29.8190 C   0  0  0  0  0  0  0  0  0  0  0  0
   -6.0680   23.3460  -31.1200 N   0  0  0  0  0  0  0  0  0  0  0  0
   -7.4900   23.8000  -31.0430 C   0  0  0  0  0  0  0  0  0  0  0  0
   -8.4670   23.0400  -31.9670 C   0  0  0  0  0  0  0  0  0  0  0  0
   -8.1350   21.5740  -31.9950 C   0  0  0  0  0  0  0  0  0  0  0  0
   -9.1450   20.6080  -31.9330 C   0  0  0  0  0  0  0  0  0  0  0  0
   -8.8150   19.2560  -31.9380 C   0  0  0  0  0  0  0  0  0  0  0  0
   -7.4800   18.8590  -31.9930 C   0  0  0  0  0  0  0  0  0  0  0  0
   -6.4460   19.8150  -32.0620 C   0  0  0  0  0  0  0  0  0  0  0  0
   -5.1000   19.4160  -32.0750 O   0  0  0  0  0  0  0  0  0  0  0  0
   -4.5820   18.3030  -32.7970 C   0  0  0  0  0  0  0  0  0  0  0  0
   -6.7840   21.1970  -32.1020 C   0  0  0  0  0  0  0  0  0  0  0  0
   -5.8010   22.3670  -32.2030 C   0  0  2  0  0  0  0  0  0  0  0  0
    1.6374   20.7265  -33.2680 H   0  0  0  0  0  0  0  0  0  0  0  0
    0.3259   19.8693  -34.1464 H   0  0  0  0  0  0  0  0  0  0  0  0
    0.3825   21.6647  -34.1464 H   0  0  0  0  0  0  0  0  0  0  0  0
    0.1940   20.4800  -31.4500 H   0  0  0  0  0  0  0  0  0  0  0  0
   -1.9969   20.7717  -34.4344 H   0  0  0  0  0  0  0  0  0  0  0  0
   -4.3736   21.5040  -34.3614 H   0  0  0  0  0  0  0  0  0  0  0  0
   -1.5670   21.7530  -30.2401 H   0  0  0  0  0  0  0  0  0  0  0  0
   -3.7564   22.0870  -28.9700 H   0  0  0  0  0  0  0  0  0  0  0  0
   -3.6450   23.7238  -29.7595 H   0  0  0  0  0  0  0  0  0  0  0  0
   -6.0309   21.8439  -29.6331 H   0  0  0  0  0  0  0  0  0  0  0  0
   -5.8840   23.5359  -29.0267 H   0  0  0  0  0  0  0  0  0  0  0  0
   -7.8331   23.6739  -30.0055 H   0  0  0  0  0  0  0  0  0  0  0  0
   -7.4980   24.8469  -31.3805 H   0  0  0  0  0  0  0  0  0  0  0  0
   -9.4936   23.1713  -31.5942 H   0  0  0  0  0  0  0  0  0  0  0  0
   -8.3783   23.4437  -32.9864 H   0  0  0  0  0  0  0  0  0  0  0  0
  -10.1994   20.9169  -31.8803 H   0  0  0  0  0  0  0  0  0  0  0  0
   -9.6109   18.4977  -31.8984 H   0  0  0  0  0  0  0  0  0  0  0  0
   -7.2304   17.7878  -31.9825 H   0  0  0  0  0  0  0  0  0  0  0  0
   -4.2268   17.5398  -32.0889 H   0  0  0  0  0  0  0  0  0  0  0  0
   -5.3738   17.8758  -33.4299 H   0  0  0  0  0  0  0  0  0  0  0  0
   -3.7453   18.6338  -33.4299 H   0  0  0  0  0  0  0  0  0  0  0  0
   -5.9924   22.8124  -33.1904 H   0  0  0  0  0  0  0  0  0  0  0  0
  1  2  1  0
  2  3  1  0
  3  4  2  0
  4  5  1  0
  5  6  2  0
  6  7  1  0
  7  8  2  0
  7  9  1  0
  9 10  1  0
 10 11  1  0
 11 12  1  0
 12 13  1  0
 13 14  1  0
 14 15  2  0
 15 16  1  0
 16 17  2  0
 17 18  1  0
 18 19  1  0
 19 20  1  0
 18 21  2  0
 21 22  1  0
  8  3  1  0
 22 11  1  0
 22  6  1  0
 21 14  1  0
  1 23  1  0
  1 24  1  0
  1 25  1  0
  2 26  1  0
  4 27  1  0
  5 28  1  0
  8 29  1  0
  9 30  1  0
  9 31  1  0
 10 32  1  0
 10 33  1  0
 12 34  1  0
 12 35  1  0
 13 36  1  0
 13 37  1  0
 15 38  1  0
 16 39  1  0
 17 40  1  0
 20 41  1  0
 20 42  1  0
 20 43  1  0
 22 44  1  6
M  END
>  <UniqueID>  (7) 
7

>  <SMILES>  (7) 
CNc1ccc2c(c1)CCN1CCc3cccc(OC)c3[C@H]21

>  <Energy>  (7) 
65.19770582251915

>  <Genealogy>  (7) 
CNc1ccc2c(c1)CCN1CCc3cccc(OC)c3[C@H]21 (chirality)
CNc1ccc2c(c1)CCN1CCc3cccc(OC)c3[C@H]21 (3D coordinates assigned)
CNc1ccc2c(c1)CCN1CCc3cccc(OC)c3[C@H]21 (nonaromatic ring conformer: 65.19770582251915 kcal/mol)

>  <smiles>  (7) 
CNc1ccc2c(c1)CCN1CCc3cccc(OC)c3C21

>  <score_type>  (7) 
oracle

>  <origin>  (7) 
adg

>  <m_score__min__energy>  (7) 
-7.4699999999999998

>  <m_primary>  (7) 
energy

$$$$
7:0
     RDKit          3D

 50 53  0  0  0  0  0  0  0  0999 V2000
   -5.7630   17.9170  -33.0280 C   0  0  0  0  0  0  0  0  0  0  0  0
   -5.9030   18.9100  -34.1810 C   0  0  0  0  0  0  0  0  0  0  0  0
   -6.6770   20.0910  -33.7650 N   0  0  0  0  0  0  0  0  0  0  0  0
   -6.8390   20.1610  -32.3000 C   0  0  0  0  0  0  0  0  0  0  0  0
   -6.5170   21.5500  -31.7230 C   0  0  0  0  0  0  0  0  0  0  0  0
   -5.3160   22.1200  -32.3370 N   0  0  0  0  0  0  0  0  0  0  0  0
   -4.0290   22.0180  -31.7010 C   0  0  0  0  0  0  0  0  0  0  0  0
   -2.9730   21.3440  -32.3410 C   0  0  0  0  0  0  0  0  0  0  0  0
   -3.1570   20.7260  -33.5970 C   0  0  0  0  0  0  0  0  0  0  0  0
   -2.1090   20.0500  -34.2180 C   0  0  0  0  0  0  0  0  0  0  0  0
   -0.8670   19.9670  -33.5970 C   0  0  0  0  0  0  0  0  0  0  0  0
    0.5700   19.0520  -34.4630 Br  0  0  0  0  0  0  0  0  0  0  0  0
   -0.6730   20.5430  -32.3420 C   0  0  0  0  0  0  0  0  0  0  0  0
   -1.7240   21.2280  -31.6820 C   0  0  0  0  0  0  0  0  0  0  0  0
   -1.5550   21.7520  -30.4170 N   0  0  0  0  0  0  0  0  0  0  0  0
   -0.5090   21.1670  -29.5490 C   0  0  0  0  0  0  0  0  0  0  0  0
   -2.4960   22.6240  -29.8970 C   0  0  0  0  0  0  0  0  0  0  0  0
   -3.8020   22.6360  -30.4570 C   0  0  0  0  0  0  0  0  0  0  0  0
   -4.8510   23.2700  -29.7650 C   0  0  0  0  0  0  0  0  0  0  0  0
   -4.6150   23.9490  -28.5780 C   0  0  0  0  0  0  0  0  0  0  0  0
   -3.3110   24.1150  -28.1110 C   0  0  0  0  0  0  0  0  0  0  0  0
   -3.0750   24.9290  -26.9920 C   0  0  0  0  0  0  0  0  0  0  0  0
   -1.7690   25.2200  -26.5970 C   0  0  0  0  0  0  0  0  0  0  0  0
   -1.4540   26.3500  -25.0890 Br  0  0  0  0  0  0  0  0  0  0  0  0
   -0.6950   24.7320  -27.3380 C   0  0  0  0  0  0  0  0  0  0  0  0
   -0.9180   23.9050  -28.4410 C   0  0  0  0  0  0  0  0  0  0  0  0
   -2.2270   23.5080  -28.8010 C   0  0  0  0  0  0  0  0  0  0  0  0
   -5.8387   18.4536  -32.0707 H   0  0  0  0  0  0  0  0  0  0  0  0
   -6.5641   17.1659  -33.0916 H   0  0  0  0  0  0  0  0  0  0  0  0
   -4.7854   17.4167  -33.0916 H   0  0  0  0  0  0  0  0  0  0  0  0
   -4.9016   19.2309  -34.5037 H   0  0  0  0  0  0  0  0  0  0  0  0
   -6.4329   18.4157  -35.0086 H   0  0  0  0  0  0  0  0  0  0  0  0
   -6.1620   20.9500  -34.0730 H   0  0  0  0  0  0  0  0  0  0  0  0
   -7.6090   20.0880  -34.2400 H   0  0  0  0  0  0  0  0  0  0  0  0
   -7.8809   19.9113  -32.0507 H   0  0  0  0  0  0  0  0  0  0  0  0
   -6.1274   19.4488  -31.8569 H   0  0  0  0  0  0  0  0  0  0  0  0
   -7.3678   22.2214  -31.9111 H   0  0  0  0  0  0  0  0  0  0  0  0
   -6.3351   21.4420  -30.6435 H   0  0  0  0  0  0  0  0  0  0  0  0
   -5.3590   22.4330  -33.3320 H   0  0  0  0  0  0  0  0  0  0  0  0
   -4.1386   20.7788  -34.0907 H   0  0  0  0  0  0  0  0  0  0  0  0
   -2.2639   19.5811  -35.2009 H   0  0  0  0  0  0  0  0  0  0  0  0
    0.3110   20.4646  -31.8566 H   0  0  0  0  0  0  0  0  0  0  0  0
   -0.7808   21.3190  -28.4940 H   0  0  0  0  0  0  0  0  0  0  0  0
   -0.4228   20.0897  -29.7539 H   0  0  0  0  0  0  0  0  0  0  0  0
    0.4541   21.6575  -29.7539 H   0  0  0  0  0  0  0  0  0  0  0  0
   -5.8724   23.2266  -30.1709 H   0  0  0  0  0  0  0  0  0  0  0  0
   -5.4592   24.3578  -28.0033 H   0  0  0  0  0  0  0  0  0  0  0  0
   -3.9232   25.3391  -26.4243 H   0  0  0  0  0  0  0  0  0  0  0  0
    0.3333   24.9993  -27.0530 H   0  0  0  0  0  0  0  0  0  0  0  0
   -0.0627   23.5571  -29.0389 H   0  0  0  0  0  0  0  0  0  0  0  0
  1  2  1  0
  2  3  1  0
  3  4  1  0
  4  5  1  0
  5  6  1  0
  6  7  1  0
  7  8  2  0
  8  9  1  0
  9 10  2  0
 10 11  1  0
 11 12  1  0
 11 13  2  0
 13 14  1  0
 14 15  2  0
 15 16  1  0
 15 17  1  0
 17 18  2  0
 18 19  1  0
 19 20  2  0
 20 21  1  0
 21 22  2  0
 22 23  1  0
 23 24  1  0
 23 25  2  0
 25 26  1  0
 26 27  2  0
 18  7  1  0
 27 21  1  0
 14  8  1  0
 27 17  1  0
  1 28  1  0
  1 29  1  0
  1 30  1  0
  2 31  1  0
  2 32  1  0
  3 33  1  0
  3 34  1  0
  4 35  1  0
  4 36  1  0
  5 37  1  0
  5 38  1  0
  6 39  1  0
  9 40  1  0
 10 41  1  0
 13 42  1  0
 16 43  1  0
 16 44  1  0
 16 45  1  0
 19 46  1  0
 20 47  1  0
 22 48  1  0
 25 49  1  0
 26 50  1  0
M  CHG  2   3   1  15   1
M  END
>  <UniqueID>  (8) 
8

>  <SMILES>  (8) 
CC[NH2+]CCNc1c2ccc(Br)cc2[n+](C)c2c1ccc1cc(Br)ccc12

>  <Energy>  (8) 
91.7479233268022

>  <Genealogy>  (8) 
CC[NH2+]CCNc1c2ccc(Br)cc2[n+](C)c2c1ccc1cc(Br)ccc12 (protonated)
CC[NH2+]CCNc1c2ccc(Br)cc2[n+](C)c2c1ccc1cc(Br)ccc12 (3D coordinates assigned)
CC[NH2+]CCNc1c2ccc(Br)cc2[n+](C)c2c1ccc1cc(Br)ccc12 (optimized conformer: 91.7479233268022 kcal/mol)

>  <smiles>  (8) 
CCNCCNc1c2ccc(Br)cc2[n+](C)c2c1ccc1cc(Br)ccc12

>  <score_type>  (8) 
oracle

>  <origin>  (8) 
adg

>  <m_score__min__energy>  (8) 
-7.7999999999999998

>  <m_primary>  (8) 
energy

$$$$
8:0
     RDKit          3D

 62 64  0  0  0  0  0  0  0  0999 V2000
   -5.4770   24.7390  -29.4720 C   0  0  0  0  0  0  0  0  0  0  0  0
   -4.9710   24.4600  -30.8820 C   0  0  0  0  0  0  0  0  0  0  0  0
   -3.5900   23.9620  -30.8290 N   0  0  0  0  0  0  0  0  0  0  0  0
   -2.9770   24.1960  -29.5120 C   0  0  0  0  0  0  0  0  0  0  0  0
   -2.8660   22.8820  -28.7380 C   0  0  0  0  0  0  0  0  0  0  0  0
   -2.8810   21.7700  -29.6160 O   0  0  0  0  0  0  0  0  0  0  0  0
   -1.9400   20.7730  -29.2480 C   0  0  0  0  0  0  0  0  0  0  0  0
   -0.5550   21.1230  -29.8040 C   0  0  0  0  0  0  0  0  0  0  0  0
   -0.5710   21.3670  -31.3170 C   0  0  0  0  0  0  0  0  0  0  0  0
   -1.9080   21.8200  -31.7440 N   0  0  0  0  0  0  0  0  0  0  0  0
   -2.1960   21.5470  -33.1600 C   0  0  0  0  0  0  0  0  0  0  0  0
   -3.6910   21.2760  -33.4170 C   0  0  0  0  0  0  0  0  0  0  0  0
   -4.4560   21.3270  -32.1580 N   0  0  0  0  0  0  0  0  0  0  0  0
   -5.6890   20.5620  -32.2670 C   0  0  0  0  0  0  0  0  0  0  0  0
   -5.6490   19.1730  -32.5630 C   0  0  0  0  0  0  0  0  0  0  0  0
   -4.4430   18.5270  -32.9310 C   0  0  0  0  0  0  0  0  0  0  0  0
   -4.4210   17.1710  -33.2450 C   0  0  0  0  0  0  0  0  0  0  0  0
   -5.5940   16.4310  -33.2210 C   0  0  0  0  0  0  0  0  0  0  0  0
   -6.7970   17.0410  -32.8690 C   0  0  0  0  0  0  0  0  0  0  0  0
   -6.8490   18.4130  -32.5090 C   0  0  0  0  0  0  0  0  0  0  0  0
   -8.0340   19.0110  -32.1310 N   0  0  0  0  0  0  0  0  0  0  0  0
   -9.2000   18.1780  -31.7650 C   0  0  0  0  0  0  0  0  0  0  0  0
   -8.1290   20.3870  -32.0930 C   0  0  0  0  0  0  0  0  0  0  0  0
   -9.3900   21.0370  -32.0280 C   0  0  0  0  0  0  0  0  0  0  0  0
   -9.4850   22.4240  -31.9560 C   0  0  0  0  0  0  0  0  0  0  0  0
   -8.3360   23.2010  -31.9700 C   0  0  0  0  0  0  0  0  0  0  0  0
   -7.0850   22.5990  -32.0690 C   0  0  0  0  0  0  0  0  0  0  0  0
   -6.9540   21.1900  -32.1380 C   0  0  0  0  0  0  0  0  0  0  0  0
   -4.7584   24.3428  -28.7395 H   0  0  0  0  0  0  0  0  0  0  0  0
   -5.5853   25.8243  -29.3293 H   0  0  0  0  0  0  0  0  0  0  0  0
   -6.4526   24.2513  -29.3293 H   0  0  0  0  0  0  0  0  0  0  0  0
   -5.6133   23.7037  -31.3569 H   0  0  0  0  0  0  0  0  0  0  0  0
   -4.9976   25.3913  -31.4669 H   0  0  0  0  0  0  0  0  0  0  0  0
   -3.6170   22.9300  -31.0060 H   0  0  0  0  0  0  0  0  0  0  0  0
   -1.9723   24.6221  -29.6498 H   0  0  0  0  0  0  0  0  0  0  0  0
   -3.6075   24.8948  -28.9426 H   0  0  0  0  0  0  0  0  0  0  0  0
   -1.9242   22.8783  -28.1696 H   0  0  0  0  0  0  0  0  0  0  0  0
   -3.7277   22.8026  -28.0589 H   0  0  0  0  0  0  0  0  0  0  0  0
   -1.8863   20.7109  -28.1511 H   0  0  0  0  0  0  0  0  0  0  0  0
   -2.2601   19.8059  -29.6631 H   0  0  0  0  0  0  0  0  0  0  0  0
   -0.1948   22.0342  -29.3041 H   0  0  0  0  0  0  0  0  0  0  0  0
    0.1071   20.2658  -29.6120 H   0  0  0  0  0  0  0  0  0  0  0  0
    0.1719   22.1382  -31.5689 H   0  0  0  0  0  0  0  0  0  0  0  0
   -0.3268   20.4280  -31.8354 H   0  0  0  0  0  0  0  0  0  0  0  0
   -2.0090   22.8450  -31.5650 H   0  0  0  0  0  0  0  0  0  0  0  0
   -1.8878   22.4180  -33.7569 H   0  0  0  0  0  0  0  0  0  0  0  0
   -1.6386   20.6428  -33.4459 H   0  0  0  0  0  0  0  0  0  0  0  0
   -4.0821   22.0375  -34.1077 H   0  0  0  0  0  0  0  0  0  0  0  0
   -3.7974   20.2721  -33.8539 H   0  0  0  0  0  0  0  0  0  0  0  0
   -4.6460   22.3190  -31.8920 H   0  0  0  0  0  0  0  0  0  0  0  0
   -3.8910   20.9690  -31.3540 H   0  0  0  0  0  0  0  0  0  0  0  0
   -3.5087   19.1064  -32.9692 H   0  0  0  0  0  0  0  0  0  0  0  0
   -3.4711   16.6852  -33.5128 H   0  0  0  0  0  0  0  0  0  0  0  0
   -5.5749   15.3621  -33.4799 H   0  0  0  0  0  0  0  0  0  0  0  0
   -7.7234   16.4479  -32.8703 H   0  0  0  0  0  0  0  0  0  0  0  0
   -9.2802   18.1207  -30.6694 H   0  0  0  0  0  0  0  0  0  0  0  0
  -10.1156   18.6277  -32.1767 H   0  0  0  0  0  0  0  0  0  0  0  0
   -9.0714   17.1661  -32.1767 H   0  0  0  0  0  0  0  0  0  0  0  0
  -10.3093   20.4329  -32.0347 H   0  0  0  0  0  0  0  0  0  0  0  0
  -10.4723   22.9043  -31.8879 H   0  0  0  0  0  0  0  0  0  0  0  0
   -8.4138   24.2962  -31.9027 H   0  0  0  0  0  0  0  0  0  0  0  0
   -6.1828   23.2278  -32.0941 H   0  0  0  0  0  0  0  0  0  0  0  0
  1  2  1  0
  2  3  1  0
  3  4  1  0
  4  5  1  0
  5  6  1  0
  6  7  1  0
  7  8  1  0
  8  9  1  0
  9 10  1  0
 10 11  1  0
 11 12  1  0
 12 13  1  0
 13 14  1  0
 14 15  2  0
 15 16  1  0
 16 17  2  0
 17 18  1  0
 18 19  2  0
 19 20  1  0
 20 21  2  0
 21 22  1  0
 21 23  1  0
 23 24  2  0
 24 25  1  0
 25 26  2  0
 26 27  1  0
 27 28  2  0
 28 14  1  0
 20 15  1  0
 28 23  1  0
  1 29  1  0
  1 30  1  0
  1 31  1  0
  2 32  1  0
  2 33  1  0
  3 34  1  0
  4 35  1  0
  4 36  1  0
  5 37  1  0
  5 38  1  0
  7 39  1  0
  7 40  1  0
  8 41  1  0
  8 42  1  0
  9 43  1  0
  9 44  1  0
 10 45  1  0
 11 46  1  0
 11 47  1  0
 12 48  1  0
 12 49  1  0
 13 50  1  0
 13 51  1  0
 16 52  1  0
 17 53  1  0
 18 54  1  0
 19 55  1  0
 22 56  1  0
 22 57  1  0
 22 58  1  0
 24 59  1  0
 25 60  1  0
 26 61  1  0
 27 62  1  0
M  CHG  2  13   1  21   1
M  END
>  <UniqueID>  (9) 
9

>  <SMILES>  (9) 
CCNCCOCCCNCC[NH2+]c1c2ccccc2[n+](C)c2ccccc12

>  <Energy>  (9) 
86.95100006655368

>  <Genealogy>  (9) 
CCNCCOCCCNCC[NH2+]c1c2ccccc2[n+](C)c2ccccc12 (protonated)
CCNCCOCCCNCC[NH2+]c1c2ccccc2[n+](C)c2ccccc12 (3D coordinates assigned)
CCNCCOCCCNCC[NH2+]c1c2ccccc2[n+](C)c2ccccc12 (optimized conformer: 86.95100006655368 kcal/mol)

>  <smiles>  (9) 
CCNCCOCCCNCCNc1c2ccccc2[n+](C)c2ccccc12

>  <score_type>  (9) 
oracle

>  <origin>  (9) 
adg

>  <m_score__min__energy>  (9) 
-8.3599999999999994

>  <m_primary>  (9) 
energy

$$$$
9:0
     RDKit          3D

 55 57  0  0  0  0  0  0  0  0999 V2000
    0.0270   21.3230  -35.0110 C   0  0  0  0  0  0  0  0  0  0  0  0
    0.4460   20.0860  -34.2310 C   0  0  0  0  0  0  0  0  0  0  0  0
   -0.3100   19.9780  -32.9570 N   0  0  0  0  0  0  0  0  0  0  0  0
    0.2220   20.9290  -31.9460 C   0  0  0  0  0  0  0  0  0  0  0  0
   -0.7250   21.1890  -30.7670 C   0  0  0  0  0  0  0  0  0  0  0  0
   -0.3790   18.5650  -32.4970 C   0  0  0  0  0  0  0  0  0  0  0  0
   -1.6990   17.8380  -32.8540 C   0  0  0  0  0  0  0  0  0  0  0  0
   -2.4830   18.4670  -33.9410 N   0  0  0  0  0  0  0  0  0  0  0  0
   -3.8650   18.7640  -33.5800 C   0  0  0  0  0  0  0  0  0  0  0  0
   -4.8700   17.7690  -33.7270 C   0  0  0  0  0  0  0  0  0  0  0  0
   -4.5730   16.4850  -34.2590 C   0  0  0  0  0  0  0  0  0  0  0  0
   -5.5360   15.4840  -34.3130 C   0  0  0  0  0  0  0  0  0  0  0  0
   -6.8140   15.7270  -33.8430 C   0  0  0  0  0  0  0  0  0  0  0  0
   -7.1520   16.9860  -33.3580 C   0  0  0  0  0  0  0  0  0  0  0  0
   -6.2090   18.0500  -33.3300 C   0  0  0  0  0  0  0  0  0  0  0  0
   -6.5700   19.3250  -32.9300 N   0  0  0  0  0  0  0  0  0  0  0  0
   -8.0090   19.6680  -32.7760 C   0  0  0  0  0  0  0  0  0  0  0  0
   -8.5540   19.1860  -31.4290 C   0  0  0  0  0  0  0  0  0  0  0  0
   -5.6010   20.2930  -32.7210 C   0  0  0  0  0  0  0  0  0  0  0  0
   -5.9300   21.5600  -32.1570 C   0  0  0  0  0  0  0  0  0  0  0  0
   -4.9760   22.5660  -31.9770 C   0  0  0  0  0  0  0  0  0  0  0  0
   -5.3480   23.8420  -31.4170 N   0  0  0  0  0  0  0  0  0  0  0  0
   -4.4880   24.5840  -30.8960 O   0  0  0  0  0  0  0  0  0  0  0  0
   -6.6500   24.2780  -31.4690 O   0  0  0  0  0  0  0  0  0  0  0  0
   -3.6570   22.3110  -32.3380 C   0  0  0  0  0  0  0  0  0  0  0  0
   -3.2880   21.0720  -32.8500 C   0  0  0  0  0  0  0  0  0  0  0  0
   -4.2360   20.0360  -33.0550 C   0  0  0  0  0  0  0  0  0  0  0  0
   -0.2446   22.1248  -34.3086 H   0  0  0  0  0  0  0  0  0  0  0  0
    0.8620   21.6575  -35.6442 H   0  0  0  0  0  0  0  0  0  0  0  0
   -0.8394   21.0812  -35.6442 H   0  0  0  0  0  0  0  0  0  0  0  0
    0.2507   19.1924  -34.8419 H   0  0  0  0  0  0  0  0  0  0  0  0
    1.5177   20.1662  -33.9965 H   0  0  0  0  0  0  0  0  0  0  0  0
    1.1627   20.5198  -31.5490 H   0  0  0  0  0  0  0  0  0  0  0  0
    0.3590   21.8921  -32.4595 H   0  0  0  0  0  0  0  0  0  0  0  0
   -0.1829   21.0402  -29.8215 H   0  0  0  0  0  0  0  0  0  0  0  0
   -1.0977   22.2227  -30.8171 H   0  0  0  0  0  0  0  0  0  0  0  0
   -1.5733   20.4905  -30.8171 H   0  0  0  0  0  0  0  0  0  0  0  0
    0.4532   18.0125  -32.9577 H   0  0  0  0  0  0  0  0  0  0  0  0
   -0.3223   18.5900  -31.3987 H   0  0  0  0  0  0  0  0  0  0  0  0
   -1.4512   16.8113  -33.1615 H   0  0  0  0  0  0  0  0  0  0  0  0
   -2.3291   17.8829  -31.9535 H   0  0  0  0  0  0  0  0  0  0  0  0
   -1.9610   19.2870  -34.3090 H   0  0  0  0  0  0  0  0  0  0  0  0
   -2.4720   17.8350  -34.7750 H   0  0  0  0  0  0  0  0  0  0  0  0
   -3.5603   16.2791  -34.6358 H   0  0  0  0  0  0  0  0  0  0  0  0
   -5.2816   14.4983  -34.7297 H   0  0  0  0  0  0  0  0  0  0  0  0
   -7.5646   14.9229  -33.8528 H   0  0  0  0  0  0  0  0  0  0  0  0
   -8.1725   17.1628  -32.9875 H   0  0  0  0  0  0  0  0  0  0  0  0
   -8.1261   20.7599  -32.8400 H   0  0  0  0  0  0  0  0  0  0  0  0
   -8.5729   19.1688  -33.5777 H   0  0  0  0  0  0  0  0  0  0  0  0
   -8.0010   19.6751  -30.6135 H   0  0  0  0  0  0  0  0  0  0  0  0
   -9.6213   19.4411  -31.3528 H   0  0  0  0  0  0  0  0  0  0  0  0
   -8.4313   18.0955  -31.3528 H   0  0  0  0  0  0  0  0  0  0  0  0
   -6.9695   21.7527  -31.8531 H   0  0  0  0  0  0  0  0  0  0  0  0
   -2.8979   23.0979  -32.2171 H   0  0  0  0  0  0  0  0  0  0  0  0
   -2.2331   20.8900  -33.1029 H   0  0  0  0  0  0  0  0  0  0  0  0
  1  2  1  0
  2  3  1  0
  3  4  1  0
  4  5  1  0
  3  6  1  0
  6  7  1  0
  7  8  1  0
  8  9  1  0
  9 10  2  0
 10 11  1  0
 11 12  2  0
 12 13  1  0
 13 14  2  0
 14 15  1  0
 15 16  2  0
 16 17  1  0
 17 18  1  0
 16 19  1  0
 19 20  2  0
 20 21  1  0
 21 22  1  0
 22 23  2  0
 22 24  1  0
 21 25  2  0
 25 26  1  0
 26 27  2  0
 27  9  1  0
 15 10  1  0
 27 19  1  0
  1 28  1  0
  1 29  1  0
  1 30  1  0
  2 31  1  0
  2 32  1  0
  4 33  1  0
  4 34  1  0
  5 35  1  0
  5 36  1  0
  5 37  1  0
  6 38  1  0
  6 39  1  0
  7 40  1  0
  7 41  1  0
  8 42  1  0
  8 43  1  0
 11 44  1  0
 12 45  1  0
 13 46  1  0
 14 47  1  0
 17 48  1  0
 17 49  1  0
 18 50  1  0
 18 51  1  0
 18 52  1  0
 20 53  1  0
 25 54  1  0
 26 55  1  0
M  CHG  4   8   1  16   1  22   1  24  -1
M  END
>  <UniqueID>  (10) 
10

>  <SMILES>  (10) 
CCN(CC)CC[NH2+]c1c2ccccc2[n+](CC)c2cc([N+](=O)[O-])ccc12

>  <Energy>  (10) 
87.47164475494397

>  <Genealogy>  (10) 
CCN(CC)CC[NH2+]c1c2ccccc2[n+](CC)c2cc([N+](=O)[O-])ccc12 (protonated)
CCN(CC)CC[NH2+]c1c2ccccc2[n+](CC)c2cc([N+](=O)[O-])ccc12 (3D coordinates assigned)
CCN(CC)CC[NH2+]c1c2ccccc2[n+](CC)c2cc([N+](=O)[O-])ccc12 (optimized conformer: 87.47164475494397 kcal/mol)

>  <smiles>  (10) 
CCN(CC)CCNc1c2ccccc2[n+](CC)c2cc([N+](=O)[O-])ccc12

>  <score_type>  (10) 
oracle

>  <origin>  (10) 
adg

>  <m_score__min__energy>  (10) 
-7.2400000000000002

>  <m_primary>  (10) 
energy

$$$$
10:0
     RDKit          3D

 54 56  0  0  0  0  0  0  0  0999 V2000
   -4.1200   24.1290  -28.3640 C   0  0  0  0  0  0  0  0  0  0  0  0
   -3.2350   24.1620  -29.6110 C   0  0  0  0  0  0  0  0  0  0  0  0
   -4.0510   24.3290  -30.8360 N   0  0  0  0  0  0  0  0  0  0  0  0
   -5.3710   24.9250  -30.5190 C   0  0  0  0  0  0  0  0  0  0  0  0
   -6.5040   24.1320  -31.1680 C   0  0  0  0  0  0  0  0  0  0  0  0
   -4.1870   23.0500  -31.5840 C   0  0  0  0  0  0  0  0  0  0  0  0
   -3.0860   22.0600  -31.1780 C   0  0  0  0  0  0  0  0  0  0  0  0
   -2.1830   21.6340  -32.3470 C   0  0  0  0  0  0  0  0  0  0  0  0
   -2.9620   21.1630  -33.4930 N   0  0  0  0  0  0  0  0  0  0  0  0
   -3.5270   19.8420  -33.4880 C   0  0  0  0  0  0  0  0  0  0  0  0
   -2.7580   18.7370  -33.8920 C   0  0  0  0  0  0  0  0  0  0  0  0
   -1.4400   18.9060  -34.3620 C   0  0  0  0  0  0  0  0  0  0  0  0
   -0.6980   17.8190  -34.8130 C   0  0  0  0  0  0  0  0  0  0  0  0
   -1.2610   16.5460  -34.8210 C   0  0  0  0  0  0  0  0  0  0  0  0
   -0.3360   15.1870  -35.4330 Cl  0  0  0  0  0  0  0  0  0  0  0  0
   -2.5630   16.3540  -34.3540 C   0  0  0  0  0  0  0  0  0  0  0  0
   -3.3290   17.4370  -33.8520 C   0  0  0  0  0  0  0  0  0  0  0  0
   -4.6060   17.2550  -33.3530 N   0  0  0  0  0  0  0  0  0  0  0  0
   -5.0870   15.8920  -33.0330 C   0  0  0  0  0  0  0  0  0  0  0  0
   -5.4230   18.3480  -33.1270 C   0  0  0  0  0  0  0  0  0  0  0  0
   -6.8120   18.2030  -32.8790 C   0  0  0  0  0  0  0  0  0  0  0  0
   -7.6250   19.3110  -32.5830 C   0  0  0  0  0  0  0  0  0  0  0  0
   -9.0330   19.1440  -32.3240 N   0  0  0  0  0  0  0  0  0  0  0  0
   -9.8580   19.9980  -32.7080 O   0  0  0  0  0  0  0  0  0  0  0  0
   -9.4920   18.0360  -31.6510 O   0  0  0  0  0  0  0  0  0  0  0  0
   -7.0490   20.5850  -32.5450 C   0  0  0  0  0  0  0  0  0  0  0  0
   -5.6980   20.7590  -32.8300 C   0  0  0  0  0  0  0  0  0  0  0  0
   -4.8780   19.6580  -33.1500 C   0  0  0  0  0  0  0  0  0  0  0  0
   -3.4872   24.1526  -27.4646 H   0  0  0  0  0  0  0  0  0  0  0  0
   -4.7881   25.0029  -28.3653 H   0  0  0  0  0  0  0  0  0  0  0  0
   -4.7212   23.2078  -28.3653 H   0  0  0  0  0  0  0  0  0  0  0  0
   -2.5308   25.0031  -29.5303 H   0  0  0  0  0  0  0  0  0  0  0  0
   -2.6901   23.2089  -29.6797 H   0  0  0  0  0  0  0  0  0  0  0  0
   -5.5121   24.9254  -29.4281 H   0  0  0  0  0  0  0  0  0  0  0  0
   -5.3938   25.9518  -30.9128 H   0  0  0  0  0  0  0  0  0  0  0  0
   -7.1369   23.6890  -30.3849 H   0  0  0  0  0  0  0  0  0  0  0  0
   -7.1105   24.8038  -31.7932 H   0  0  0  0  0  0  0  0  0  0  0  0
   -6.0805   23.3322  -31.7932 H   0  0  0  0  0  0  0  0  0  0  0  0
   -5.1694   22.6066  -31.3642 H   0  0  0  0  0  0  0  0  0  0  0  0
   -4.0930   23.2595  -32.6598 H   0  0  0  0  0  0  0  0  0  0  0  0
   -2.4589   22.5332  -30.4081 H   0  0  0  0  0  0  0  0  0  0  0  0
   -3.5867   21.1529  -30.8086 H   0  0  0  0  0  0  0  0  0  0  0  0
   -1.5754   22.4960  -32.6598 H   0  0  0  0  0  0  0  0  0  0  0  0
   -1.5468   20.8053  -32.0027 H   0  0  0  0  0  0  0  0  0  0  0  0
   -3.3420   21.8470  -34.1860 H   0  0  0  0  0  0  0  0  0  0  0  0
   -0.9921   19.9106  -34.3724 H   0  0  0  0  0  0  0  0  0  0  0  0
    0.3343   17.9656  -35.1635 H   0  0  0  0  0  0  0  0  0  0  0  0
   -3.0020   15.3456  -34.3759 H   0  0  0  0  0  0  0  0  0  0  0  0
   -5.1315   15.7658  -31.9412 H   0  0  0  0  0  0  0  0  0  0  0  0
   -6.0904   15.7476  -33.4600 H   0  0  0  0  0  0  0  0  0  0  0  0
   -4.3965   15.1498  -33.4600 H   0  0  0  0  0  0  0  0  0  0  0  0
   -7.2634   17.2007  -32.9192 H   0  0  0  0  0  0  0  0  0  0  0  0
   -7.6689   21.4565  -32.2877 H   0  0  0  0  0  0  0  0  0  0  0  0
   -5.2641   21.7695  -32.8052 H   0  0  0  0  0  0  0  0  0  0  0  0
  1  2  1  0
  2  3  1  0
  3  4  1  0
  4  5  1  0
  3  6  1  0
  6  7  1  0
  7  8  1  0
  8  9  1  0
  9 10  1  0
 10 11  2  0
 11 12  1  0
 12 13  2  0
 13 14  1  0
 14 15  1  0
 14 16  2  0
 16 17  1  0
 17 18  2  0
 18 19  1  0
 18 20  1  0
 20 21  2  0
 21 22  1  0
 22 23  1  0
 23 24  2  0
 23 25  1  0
 22 26  2  0
 26 27  1  0
 27 28  2  0
 28 10  1  0
 17 11  1  0
 28 20  1  0
  1 29  1  0
  1 30  1  0
  1 31  1  0
  2 32  1  0
  2 33  1  0
  4 34  1  0
  4 35  1  0
  5 36  1  0
  5 37  1  0
  5 38  1  0
  6 39  1  0
  6 40  1  0
  7 41  1  0
  7 42  1  0
  8 43  1  0
  8 44  1  0
  9 45  1  0
 12 46  1  0
 13 47  1  0
 16 48  1  0
 19 49  1  0
 19 50  1  0
 19 51  1  0
 21 52  1  0
 26 53  1  0
 27 54  1  0
M  CHG  3  18   1  23   1  25  -1
M  END
>  <UniqueID>  (11) 
11

>  <SMILES>  (11) 
CCN(CC)CCCNc1c2ccc(Cl)cc2[n+](C)c2cc([N+](=O)[O-])ccc12

>  <Energy>  (11) 
79.46388481265464

>  <Genealogy>  (11) 
CCN(CC)CCCNc1c2ccc(Cl)cc2[n+](C)c2cc([N+](=O)[O-])ccc12 (3D coordinates assigned)
CCN(CC)CCCNc1c2ccc(Cl)cc2[n+](C)c2cc([N+](=O)[O-])ccc12 (optimized conformer: 79.46388481265464 kcal/mol)

>  <smiles>  (11) 
CCN(CC)CCCNc1c2ccc(Cl)cc2[n+](C)c2cc([N+](=O)[O-])ccc12

>  <score_type>  (11) 
oracle

>  <origin>  (11) 
adg

>  <m_score__min__energy>  (11) 
-7.9400000000000004

>  <m_primary>  (11) 
energy

$$$$
11:0
     RDKit          3D

 70 71  0  0  0  0  0  0  0  0999 V2000
   -2.7330   20.7420  -29.2610 C   0  0  0  0  0  0  0  0  0  0  0  0
   -3.3870   20.8120  -30.6390 C   0  0  0  0  0  0  0  0  0  0  0  0
   -2.4260   20.4260  -31.6980 N   0  0  0  0  0  0  0  0  0  0  0  0
   -1.2260   21.2990  -31.7050 C   0  0  0  0  0  0  0  0  0  0  0  0
   -0.3530   21.1510  -32.9570 C   0  0  0  0  0  0  0  0  0  0  0  0
   -3.0910   20.2910  -33.0160 C   0  0  0  0  0  0  0  0  0  0  0  0
   -2.9440   18.8880  -33.6210 C   0  0  0  0  0  0  0  0  0  0  0  0
   -3.9510   18.6630  -34.5850 O   0  0  0  0  0  0  0  0  0  0  0  0
   -4.7100   17.5260  -34.2220 C   0  0  0  0  0  0  0  0  0  0  0  0
   -5.9690   17.9510  -33.4610 C   0  0  0  0  0  0  0  0  0  0  0  0
   -6.4420   19.3740  -33.8140 C   0  0  0  0  0  0  0  0  0  0  0  0
   -7.5770   19.7580  -33.0560 O   0  0  0  0  0  0  0  0  0  0  0  0
   -7.2170   20.5670  -31.9430 C   0  0  2  0  0  0  0  0  0  0  0  0
   -8.4500   21.3200  -31.4310 C   0  0  0  0  0  0  0  0  0  0  0  0
   -8.0120   22.3610  -30.3980 C   0  0  0  0  0  0  0  0  0  0  0  0
   -7.1180   23.4010  -30.9780 N   0  0  1  0  0  0  0  0  0  0  0  0
   -6.1820   23.9620  -29.9680 C   0  0  0  0  0  0  0  0  0  0  0  0
   -5.7330   25.4110  -30.2460 C   0  0  0  0  0  0  0  0  0  0  0  0
   -4.3010   25.4390  -30.5720 N   0  0  0  0  0  0  0  0  0  0  0  0
   -3.7020   24.1170  -30.3550 C   0  0  0  0  0  0  0  0  0  0  0  0
   -2.8400   24.1480  -29.1230 C   0  0  0  0  0  0  0  0  0  0  0  0
   -3.4100   24.3630  -27.8540 C   0  0  0  0  0  0  0  0  0  0  0  0
   -2.6010   24.3790  -26.7120 C   0  0  0  0  0  0  0  0  0  0  0  0
   -1.2230   24.1710  -26.8270 C   0  0  0  0  0  0  0  0  0  0  0  0
   -0.6520   23.9350  -28.0840 C   0  0  0  0  0  0  0  0  0  0  0  0
   -1.4580   23.9210  -29.2280 C   0  0  0  0  0  0  0  0  0  0  0  0
   -6.4580   23.0270  -32.2600 C   0  0  0  0  0  0  0  0  0  0  0  0
   -6.0870   21.5330  -32.3650 C   0  0  0  0  0  0  0  0  0  0  0  0
   -3.5066   20.8248  -28.4834 H   0  0  0  0  0  0  0  0  0  0  0  0
   -2.2062   19.7823  -29.1535 H   0  0  0  0  0  0  0  0  0  0  0  0
   -2.0151   21.5684  -29.1535 H   0  0  0  0  0  0  0  0  0  0  0  0
   -4.2469   20.1266  -30.6652 H   0  0  0  0  0  0  0  0  0  0  0  0
   -3.7155   21.8459  -30.8211 H   0  0  0  0  0  0  0  0  0  0  0  0
   -1.5592   22.3452  -31.6376 H   0  0  0  0  0  0  0  0  0  0  0  0
   -0.6069   20.9950  -30.8481 H   0  0  0  0  0  0  0  0  0  0  0  0
    0.6906   20.9741  -32.6575 H   0  0  0  0  0  0  0  0  0  0  0  0
   -0.7118   20.3009  -33.5558 H   0  0  0  0  0  0  0  0  0  0  0  0
   -0.4115   22.0719  -33.5558 H   0  0  0  0  0  0  0  0  0  0  0  0
   -4.1621   20.5089  -32.8922 H   0  0  0  0  0  0  0  0  0  0  0  0
   -2.6049   20.9985  -33.7038 H   0  0  0  0  0  0  0  0  0  0  0  0
   -1.9574   18.8005  -34.0994 H   0  0  0  0  0  0  0  0  0  0  0  0
   -3.0415   18.1405  -32.8200 H   0  0  0  0  0  0  0  0  0  0  0  0
   -5.0020   16.9790  -35.1306 H   0  0  0  0  0  0  0  0  0  0  0  0
   -4.1001   16.8795  -33.5738 H   0  0  0  0  0  0  0  0  0  0  0  0
   -6.7774   17.2446  -33.7009 H   0  0  0  0  0  0  0  0  0  0  0  0
   -5.7197   17.9465  -32.3896 H   0  0  0  0  0  0  0  0  0  0  0  0
   -5.6238   20.0809  -33.6119 H   0  0  0  0  0  0  0  0  0  0  0  0
   -6.7230   19.3855  -34.8775 H   0  0  0  0  0  0  0  0  0  0  0  0
   -6.8442   19.9414  -31.1186 H   0  0  0  0  0  0  0  0  0  0  0  0
   -8.9488   21.8238  -32.2721 H   0  0  0  0  0  0  0  0  0  0  0  0
   -9.1495   20.6099  -30.9658 H   0  0  0  0  0  0  0  0  0  0  0  0
   -8.9080   22.8531  -29.9918 H   0  0  0  0  0  0  0  0  0  0  0  0
   -7.4475   21.8356  -29.6136 H   0  0  0  0  0  0  0  0  0  0  0  0
   -7.7470   24.2030  -31.2240 H   0  0  0  0  0  0  0  0  0  0  0  0
   -6.6805   23.9391  -28.9877 H   0  0  0  0  0  0  0  0  0  0  0  0
   -5.2746   23.3413  -30.0043 H   0  0  0  0  0  0  0  0  0  0  0  0
   -6.3074   25.8143  -31.0930 H   0  0  0  0  0  0  0  0  0  0  0  0
   -5.9114   26.0228  -29.3494 H   0  0  0  0  0  0  0  0  0  0  0  0
   -4.2020   25.6690  -31.5890 H   0  0  0  0  0  0  0  0  0  0  0  0
   -4.4997   23.3709  -30.2246 H   0  0  0  0  0  0  0  0  0  0  0  0
   -3.0848   23.8491  -31.2252 H   0  0  0  0  0  0  0  0  0  0  0  0
   -4.4948   24.5189  -27.7596 H   0  0  0  0  0  0  0  0  0  0  0  0
   -3.0495   24.5553  -25.7232 H   0  0  0  0  0  0  0  0  0  0  0  0
   -0.5871   24.1927  -25.9297 H   0  0  0  0  0  0  0  0  0  0  0  0
    0.4305   23.7606  -28.1721 H   0  0  0  0  0  0  0  0  0  0  0  0
   -1.0073   23.7314  -30.2134 H   0  0  0  0  0  0  0  0  0  0  0  0
   -7.1428   23.2717  -33.0853 H   0  0  0  0  0  0  0  0  0  0  0  0
   -5.5155   23.5921  -32.3083 H   0  0  0  0  0  0  0  0  0  0  0  0
   -5.8209   21.3166  -33.4102 H   0  0  0  0  0  0  0  0  0  0  0  0
   -5.2523   21.3655  -31.6684 H   0  0  0  0  0  0  0  0  0  0  0  0
  1  2  1  0
  2  3  1  0
  3  4  1  0
  4  5  1  0
  3  6  1  0
  6  7  1  0
  7  8  1  0
  8  9  1  0
  9 10  1  0
 10 11  1  0
 11 12  1  0
 12 13  1  0
 13 14  1  0
 14 15  1  0
 15 16  1  0
 16 17  1  0
 17 18  1  0
 18 19  1  0
 19 20  1  0
 20 21  1  0
 21 22  2  0
 22 23  1  0
 23 24  2  0
 24 25  1  0
 25 26  2  0
 16 27  1  0
 27 28  1  0
 28 13  1  0
 26 21  1  0
  1 29  1  0
  1 30  1  0
  1 31  1  0
  2 32  1  0
  2 33  1  0
  4 34  1  0
  4 35  1  0
  5 36  1  0
  5 37  1  0
  5 38  1  0
  6 39  1  0
  6 40  1  0
  7 41  1  0
  7 42  1  0
  9 43  1  0
  9 44  1  0
 10 45  1  0
 10 46  1  0
 11 47  1  0
 11 48  1  0
 13 49  1  1
 14 50  1  0
 14 51  1  0
 15 52  1  0
 15 53  1  0
 16 54  1  6
 17 55  1  0
 17 56  1  0
 18 57  1  0
 18 58  1  0
 19 59  1  0
 20 60  1  0
 20 61  1  0
 22 62  1  0
 23 63  1  0
 24 64  1  0
 25 65  1  0
 26 66  1  0
 27 67  1  0
 27 68  1  0
 28 69  1  0
 28 70  1  0
M  CHG  1  16   1
M  END
>  <UniqueID>  (12) 
12

>  <SMILES>  (12) 
CCN(CC)CCOCCCOC1CC[NH+](CCNCc2ccccc2)CC1

>  <Energy>  (12) 
76.43041920677004

>  <Genealogy>  (12) 
CCN(CC)CCOCCCOC1CC[NH+](CCNCc2ccccc2)CC1 (protonated)
CCN(CC)CCOCCCOC1CC[NH+](CCNCc2ccccc2)CC1 (3D coordinates assigned)
CCN(CC)CCOCCCOC1CC[NH+](CCNCc2ccccc2)CC1 (nonaromatic ring conformer: 76.43041920677004 kcal/mol)

>  <smiles>  (12) 
CCN(CC)CCOCCCOC1CCN(CCNCc2ccccc2)CC1

>  <score_type>  (12) 
oracle

>  <origin>  (12) 
adg

>  <m_score__min__energy>  (12) 
-7.5899999999999999

>  <m_primary>  (12) 
energy

$$$$
12:0
     RDKit          3D

 41 40  0  0  0  0  0  0  0  0999 V2000
   -8.9980   20.3700  -32.3070 C   0  0  0  0  0  0  0  0  0  0  0  0
   -7.4760   20.2210  -32.2720 C   0  0  0  0  0  0  0  0  0  0  0  0
   -6.7710   21.4050  -31.5860 C   0  0  0  0  0  0  0  0  0  0  0  0
   -5.5700   21.9750  -32.3630 C   0  0  0  0  0  0  0  0  0  0  0  0
   -5.5890   23.4500  -32.4120 N   0  0  0  0  0  0  0  0  0  0  0  0
   -6.2270   24.0430  -31.2210 C   0  0  0  0  0  0  0  0  0  0  0  0
   -5.2420   24.8740  -30.3580 C   0  0  2  0  0  0  0  0  0  0  0  0
   -4.2940   25.5140  -31.1760 O   0  0  0  0  0  0  0  0  0  0  0  0
   -4.5180   23.9940  -29.2910 C   0  0  0  0  0  0  0  0  0  0  0  0
   -3.0520   24.2020  -29.2310 N   0  0  0  0  0  0  0  0  0  0  0  0
   -2.2970   23.1210  -29.9000 C   0  0  0  0  0  0  0  0  0  0  0  0
   -3.0210   21.7820  -29.7710 C   0  0  0  0  0  0  0  0  0  0  0  0
   -2.5710   24.5060  -27.8600 C   0  0  0  0  0  0  0  0  0  0  0  0
   -3.7550   24.5520  -26.9020 C   0  0  0  0  0  0  0  0  0  0  0  0
   -9.3864   20.4080  -31.2786 H   0  0  0  0  0  0  0  0  0  0  0  0
   -9.2635   21.2984  -32.8338 H   0  0  0  0  0  0  0  0  0  0  0  0
   -9.4385   19.5107  -32.8338 H   0  0  0  0  0  0  0  0  0  0  0  0
   -7.2265   19.2999  -31.7249 H   0  0  0  0  0  0  0  0  0  0  0  0
   -7.1247   20.1880  -33.3139 H   0  0  0  0  0  0  0  0  0  0  0  0
   -7.5069   22.2116  -31.4524 H   0  0  0  0  0  0  0  0  0  0  0  0
   -6.3728   21.0215  -30.6350 H   0  0  0  0  0  0  0  0  0  0  0  0
   -4.6420   21.6485  -31.8708 H   0  0  0  0  0  0  0  0  0  0  0  0
   -5.6271   21.6013  -33.3960 H   0  0  0  0  0  0  0  0  0  0  0  0
   -6.0830   23.7740  -33.2750 H   0  0  0  0  0  0  0  0  0  0  0  0
   -4.6030   23.8000  -32.4510 H   0  0  0  0  0  0  0  0  0  0  0  0
   -7.0444   24.7006  -31.5517 H   0  0  0  0  0  0  0  0  0  0  0  0
   -6.5941   23.2149  -30.5970 H   0  0  0  0  0  0  0  0  0  0  0  0
   -5.8334   25.6318  -29.8233 H   0  0  0  0  0  0  0  0  0  0  0  0
   -3.4920   24.9280  -31.2190 H   0  0  0  0  0  0  0  0  0  0  0  0
   -4.9413   24.2298  -28.3035 H   0  0  0  0  0  0  0  0  0  0  0  0
   -4.6786   22.9454  -29.5819 H   0  0  0  0  0  0  0  0  0  0  0  0
   -2.1854   23.3676  -30.9662 H   0  0  0  0  0  0  0  0  0  0  0  0
   -1.3122   23.0331  -29.4179 H   0  0  0  0  0  0  0  0  0  0  0  0
   -3.1531   21.5377  -28.7067 H   0  0  0  0  0  0  0  0  0  0  0  0
   -4.0057   21.8493  -30.2567 H   0  0  0  0  0  0  0  0  0  0  0  0
   -2.4256   20.9949  -30.2567 H   0  0  0  0  0  0  0  0  0  0  0  0
   -1.8684   23.7238  -27.5366 H   0  0  0  0  0  0  0  0  0  0  0  0
   -2.0619   25.4811  -27.8590 H   0  0  0  0  0  0  0  0  0  0  0  0
   -3.3884   24.5378  -25.8650 H   0  0  0  0  0  0  0  0  0  0  0  0
   -4.3308   25.4732  -27.0747 H   0  0  0  0  0  0  0  0  0  0  0  0
   -4.4006   23.6783  -27.0747 H   0  0  0  0  0  0  0  0  0  0  0  0
  1  2  1  0
  2  3  1  0
  3  4  1  0
  4  5  1  0
  5  6  1  0
  6  7  1  0
  7  8  1  0
  7  9  1  0
  9 10  1  0
 10 11  1  0
 11 12  1  0
 10 13  1  0
 13 14  1  0
  1 15  1  0
  1 16  1  0
  1 17  1  0
  2 18  1  0
  2 19  1  0
  3 20  1  0
  3 21  1  0
  4 22  1  0
  4 23  1  0
  5 24  1  0
  5 25  1  0
  6 26  1  0
  6 27  1  0
  7 28  1  1
  8 29  1  0
  9 30  1  0
  9 31  1  0
 11 32  1  0
 11 33  1  0
 12 34  1  0
 12 35  1  0
 12 36  1  0
 13 37  1  0
 13 38  1  0
 14 39  1  0
 14 40  1  0
 14 41  1  0
M  CHG  1   5   1
M  END
>  <UniqueID>  (13) 
13

>  <SMILES>  (13) 
CCCC[NH2+]C[C@H](O)CN(CC)CC

>  <Energy>  (13) 
33.4727184948045

>  <Genealogy>  (13) 
CCCC[NH2+]CC(O)CN(CC)CC (protonated)
CCCC[NH2+]C[C@H](O)CN(CC)CC (chirality)
CCCC[NH2+]C[C@H](O)CN(CC)CC (3D coordinates assigned)
CCCC[NH2+]C[C@H](O)CN(CC)CC (optimized conformer: 33.4727184948045 kcal/mol)

>  <smiles>  (13) 
CCCCNCC(O)CN(CC)CC

>  <score_type>  (13) 
oracle

>  <origin>  (13) 
adg

>  <m_score__min__energy>  (13) 
-4.8899999999999997

>  <m_primary>  (13) 
energy

$$$$
13:0
     RDKit          3D

 44 45  0  0  0  0  0  0  0  0999 V2000
   -6.8220   25.2890  -29.7730 C   0  0  0  0  0  0  0  0  0  0  0  0
   -5.3730   24.9080  -29.4610 C   0  0  0  0  0  0  0  0  0  0  0  0
   -5.2290   23.4940  -29.0640 N   0  0  0  0  0  0  0  0  0  0  0  0
   -3.8740   23.1610  -28.5670 C   0  0  0  0  0  0  0  0  0  0  0  0
   -2.9500   22.6750  -29.6940 C   0  0  0  0  0  0  0  0  0  0  0  0
   -3.7080   21.8180  -30.6150 N   0  0  0  0  0  0  0  0  0  0  0  0
   -3.8030   22.4030  -31.9610 C   0  0  0  0  0  0  0  0  0  0  0  0
   -5.2070   22.9520  -32.2450 C   0  0  0  0  0  0  0  0  0  0  0  0
   -6.1380   22.4190  -31.3050 O   0  0  0  0  0  0  0  0  0  0  0  0
   -7.2490   21.6290  -31.6400 C   0  0  0  0  0  0  0  0  0  0  0  0
   -8.5650   22.1200  -31.5340 C   0  0  0  0  0  0  0  0  0  0  0  0
   -9.6530   21.3140  -31.8800 C   0  0  0  0  0  0  0  0  0  0  0  0
   -9.4470   20.0130  -32.3400 C   0  0  0  0  0  0  0  0  0  0  0  0
   -8.1500   19.5090  -32.4560 C   0  0  0  0  0  0  0  0  0  0  0  0
   -7.9530   18.2440  -32.9190 N   0  0  0  0  0  0  0  0  0  0  0  0
   -6.7070   17.7150  -33.0610 C   0  0  0  0  0  0  0  0  0  0  0  0
   -6.5470   16.3180  -33.5700 C   0  0  0  0  0  0  0  0  0  0  0  0
   -5.5840   18.4770  -32.7220 C   0  0  0  0  0  0  0  0  0  0  0  0
   -5.7520   19.7770  -32.2430 C   0  0  0  0  0  0  0  0  0  0  0  0
   -7.0410   20.3140  -32.1010 C   0  0  0  0  0  0  0  0  0  0  0  0
   -7.3736   25.4340  -28.8324 H   0  0  0  0  0  0  0  0  0  0  0  0
   -6.8385   26.2220  -30.3554 H   0  0  0  0  0  0  0  0  0  0  0  0
   -7.2953   24.4848  -30.3554 H   0  0  0  0  0  0  0  0  0  0  0  0
   -4.7614   25.0858  -30.3579 H   0  0  0  0  0  0  0  0  0  0  0  0
   -5.0418   25.5265  -28.6138 H   0  0  0  0  0  0  0  0  0  0  0  0
   -5.5130   22.8730  -29.8580 H   0  0  0  0  0  0  0  0  0  0  0  0
   -5.9120   23.3210  -28.2880 H   0  0  0  0  0  0  0  0  0  0  0  0
   -3.4333   24.0588  -28.1090 H   0  0  0  0  0  0  0  0  0  0  0  0
   -3.9720   22.3470  -27.8337 H   0  0  0  0  0  0  0  0  0  0  0  0
   -2.5538   23.5422  -30.2426 H   0  0  0  0  0  0  0  0  0  0  0  0
   -2.1165   22.1014  -29.2624 H   0  0  0  0  0  0  0  0  0  0  0  0
   -4.6820   21.7270  -30.2380 H   0  0  0  0  0  0  0  0  0  0  0  0
   -3.0758   23.2241  -32.0446 H   0  0  0  0  0  0  0  0  0  0  0  0
   -3.5905   21.6110  -32.6942 H   0  0  0  0  0  0  0  0  0  0  0  0
   -5.1930   24.0488  -32.1621 H   0  0  0  0  0  0  0  0  0  0  0  0
   -5.5110   22.6587  -33.2607 H   0  0  0  0  0  0  0  0  0  0  0  0
   -8.7376   23.1457  -31.1761 H   0  0  0  0  0  0  0  0  0  0  0  0
  -10.6764   21.7071  -31.7893 H   0  0  0  0  0  0  0  0  0  0  0  0
  -10.3073   19.3836  -32.6116 H   0  0  0  0  0  0  0  0  0  0  0  0
   -6.4676   15.6248  -32.7196 H   0  0  0  0  0  0  0  0  0  0  0  0
   -7.4202   16.0486  -34.1824 H   0  0  0  0  0  0  0  0  0  0  0  0
   -5.6355   16.2530  -34.1824 H   0  0  0  0  0  0  0  0  0  0  0  0
   -4.5745   18.0541  -32.8323 H   0  0  0  0  0  0  0  0  0  0  0  0
   -4.8728   20.3818  -31.9763 H   0  0  0  0  0  0  0  0  0  0  0  0
  1  2  1  0
  2  3  1  0
  3  4  1  0
  4  5  1  0
  5  6  1  0
  6  7  1  0
  7  8  1  0
  8  9  1  0
  9 10  1  0
 10 11  2  0
 11 12  1  0
 12 13  2  0
 13 14  1  0
 14 15  2  0
 15 16  1  0
 16 17  1  0
 16 18  2  0
 18 19  1  0
 19 20  2  0
 20 10  1  0
 20 14  1  0
  1 21  1  0
  1 22  1  0
  1 23  1  0
  2 24  1  0
  2 25  1  0
  3 26  1  0
  3 27  1  0
  4 28  1  0
  4 29  1  0
  5 30  1  0
  5 31  1  0
  6 32  1  0
  7 33  1  0
  7 34  1  0
  8 35  1  0
  8 36  1  0
 11 37  1  0
 12 38  1  0
 13 39  1  0
 17 40  1  0
 17 41  1  0
 17 42  1  0
 18 43  1  0
 19 44  1  0
M  CHG  1   3   1
M  END
>  <UniqueID>  (14) 
14

>  <SMILES>  (14) 
CC[NH2+]CCNCCOc1cccc2nc(C)ccc12

>  <Energy>  (14) 
40.97203381122669

>  <Genealogy>  (14) 
CC[NH2+]CCNCCOc1cccc2nc(C)ccc12 (protonated)
CC[NH2+]CCNCCOc1cccc2nc(C)ccc12 (3D coordinates assigned)
CC[NH2+]CCNCCOc1cccc2nc(C)ccc12 (optimized conformer: 40.97203381122669 kcal/mol)

>  <smiles>  (14) 
CCNCCNCCOc1cccc2nc(C)ccc12

>  <score_type>  (14) 
oracle

>  <origin>  (14) 
adg

>  <m_score__min__energy>  (14) 
-7.3899999999999997

>  <m_primary>  (14) 
energy

$$$$
14:0
     RDKit          3D

 75 77  0  0  0  0  0  0  0  0999 V2000
   -0.4680   19.0520  -31.4120 C   0  0  0  0  0  0  0  0  0  0  0  0
    0.0270   19.3760  -32.8310 C   0  0  0  0  0  0  0  0  0  0  0  0
   -0.9090   20.2150  -33.6270 N   0  0  0  0  0  0  0  0  0  0  0  0
   -0.3960   20.4190  -35.0070 C   0  0  0  0  0  0  0  0  0  0  0  0
    0.2710   21.7840  -35.1960 C   0  0  0  0  0  0  0  0  0  0  0  0
   -1.2200   21.5000  -32.9320 C   0  0  0  0  0  0  0  0  0  0  0  0
   -2.6710   21.5480  -32.4200 C   0  0  0  0  0  0  0  0  0  0  0  0
   -3.5840   20.9970  -33.4210 N   0  0  0  0  0  0  0  0  0  0  0  0
   -4.9010   20.5670  -33.0470 C   0  0  0  0  0  0  0  0  0  0  0  0
   -5.8030   21.5130  -32.5240 C   0  0  0  0  0  0  0  0  0  0  0  0
   -5.4030   22.8500  -32.3020 C   0  0  0  0  0  0  0  0  0  0  0  0
   -6.3150   23.8040  -31.8580 C   0  0  0  0  0  0  0  0  0  0  0  0
   -7.6370   23.4470  -31.6270 C   0  0  0  0  0  0  0  0  0  0  0  0
   -8.0440   22.1250  -31.7990 C   0  0  0  0  0  0  0  0  0  0  0  0
   -7.1270   21.1220  -32.2060 C   0  0  0  0  0  0  0  0  0  0  0  0
   -7.4970   19.7970  -32.3030 N   0  0  0  0  0  0  0  0  0  0  0  0
   -8.7590   19.3410  -31.6740 C   0  0  0  0  0  0  0  0  0  0  0  0
   -6.6720   18.8870  -32.9380 C   0  0  0  0  0  0  0  0  0  0  0  0
   -7.1470   17.6000  -33.2870 C   0  0  0  0  0  0  0  0  0  0  0  0
   -6.3040   16.6360  -33.8340 C   0  0  0  0  0  0  0  0  0  0  0  0
   -6.8460   15.2880  -34.2160 C   0  0  0  0  0  0  0  0  0  0  0  0
   -4.9750   16.9520  -34.0920 C   0  0  0  0  0  0  0  0  0  0  0  0
   -4.4660   18.2340  -33.8250 C   0  0  0  0  0  0  0  0  0  0  0  0
   -3.1160   18.5160  -34.1050 O   0  0  0  0  0  0  0  0  0  0  0  0
   -2.1820   17.5600  -34.6180 C   0  0  0  0  0  0  0  0  0  0  0  0
   -1.8620   16.4830  -33.5780 C   0  0  0  0  0  0  0  0  0  0  0  0
   -1.7430   15.0270  -34.1050 C   0  0  0  0  0  0  0  0  0  0  0  0
   -2.7230   14.0060  -33.6000 N   0  0  0  0  0  0  0  0  0  0  0  0
   -3.6810   13.6080  -34.6610 C   0  0  0  0  0  0  0  0  0  0  0  0
   -1.9620   12.7890  -33.2180 C   0  0  0  0  0  0  0  0  0  0  0  0
   -3.4630   14.4740  -32.4030 C   0  0  0  0  0  0  0  0  0  0  0  0
   -5.3280   19.2340  -33.2750 C   0  0  0  0  0  0  0  0  0  0  0  0
    0.2149   19.4990  -30.6745 H   0  0  0  0  0  0  0  0  0  0  0  0
   -1.4784   19.4641  -31.2731 H   0  0  0  0  0  0  0  0  0  0  0  0
   -0.4946   17.9611  -31.2731 H   0  0  0  0  0  0  0  0  0  0  0  0
    0.9846   19.9110  -32.7485 H   0  0  0  0  0  0  0  0  0  0  0  0
    0.1191   18.4162  -33.3604 H   0  0  0  0  0  0  0  0  0  0  0  0
   -1.7820   19.6410  -33.7020 H   0  0  0  0  0  0  0  0  0  0  0  0
    0.3420   19.6336  -35.2273 H   0  0  0  0  0  0  0  0  0  0  0  0
   -1.2567   20.3734  -35.6905 H   0  0  0  0  0  0  0  0  0  0  0  0
    0.4870   22.2259  -34.2121 H   0  0  0  0  0  0  0  0  0  0  0  0
    1.2096   21.6591  -35.7558 H   0  0  0  0  0  0  0  0  0  0  0  0
   -0.4043   22.4477  -35.7558 H   0  0  0  0  0  0  0  0  0  0  0  0
   -0.5384   21.6138  -32.0761 H   0  0  0  0  0  0  0  0  0  0  0  0
   -1.0909   22.3163  -33.6579 H   0  0  0  0  0  0  0  0  0  0  0  0
   -2.7485   20.9578  -31.4950 H   0  0  0  0  0  0  0  0  0  0  0  0
   -2.9458   22.5951  -32.2248 H   0  0  0  0  0  0  0  0  0  0  0  0
   -3.3510   21.0740  -34.4360 H   0  0  0  0  0  0  0  0  0  0  0  0
   -4.3576   23.1409  -32.4823 H   0  0  0  0  0  0  0  0  0  0  0  0
   -5.9881   24.8408  -31.6902 H   0  0  0  0  0  0  0  0  0  0  0  0
   -8.3639   24.2084  -31.3079 H   0  0  0  0  0  0  0  0  0  0  0  0
   -9.0945   21.8548  -31.6160 H   0  0  0  0  0  0  0  0  0  0  0  0
   -8.6573   19.3778  -30.5793 H   0  0  0  0  0  0  0  0  0  0  0  0
   -9.5835   19.9981  -31.9879 H   0  0  0  0  0  0  0  0  0  0  0  0
   -8.9730   18.3087  -31.9879 H   0  0  0  0  0  0  0  0  0  0  0  0
   -8.2068   17.3557  -33.1223 H   0  0  0  0  0  0  0  0  0  0  0  0
   -7.0767   14.7143  -33.3062 H   0  0  0  0  0  0  0  0  0  0  0  0
   -7.7624   15.4164  -34.8107 H   0  0  0  0  0  0  0  0  0  0  0  0
   -6.0958   14.7463  -34.8107 H   0  0  0  0  0  0  0  0  0  0  0  0
   -4.3095   16.1840  -34.5130 H   0  0  0  0  0  0  0  0  0  0  0  0
   -2.6127   17.0808  -35.5095 H   0  0  0  0  0  0  0  0  0  0  0  0
   -1.2499   18.0862  -34.8716 H   0  0  0  0  0  0  0  0  0  0  0  0
   -0.9040   16.7474  -33.1064 H   0  0  0  0  0  0  0  0  0  0  0  0
   -2.7214   16.4756  -32.8915 H   0  0  0  0  0  0  0  0  0  0  0  0
   -1.8484   15.0667  -35.1992 H   0  0  0  0  0  0  0  0  0  0  0  0
   -0.7697   14.6798  -33.7281 H   0  0  0  0  0  0  0  0  0  0  0  0
   -4.6025   13.2252  -34.1981 H   0  0  0  0  0  0  0  0  0  0  0  0
   -3.9199   14.4813  -35.2857 H   0  0  0  0  0  0  0  0  0  0  0  0
   -3.2307   12.8225  -35.2857 H   0  0  0  0  0  0  0  0  0  0  0  0
   -1.9156   12.7147  -32.1215 H   0  0  0  0  0  0  0  0  0  0  0  0
   -2.4649   11.8993  -33.6248 H   0  0  0  0  0  0  0  0  0  0  0  0
   -0.9419   12.8517  -33.6248 H   0  0  0  0  0  0  0  0  0  0  0  0
   -2.9385   14.1423  -31.4948 H   0  0  0  0  0  0  0  0  0  0  0  0
   -3.5196   15.5725  -32.4132 H   0  0  0  0  0  0  0  0  0  0  0  0
   -4.4797   14.0543  -32.4132 H   0  0  0  0  0  0  0  0  0  0  0  0
  1  2  1  0
  2  3  1  0
  3  4  1  0
  4  5  1  0
  3  6  1  0
  6  7  1  0
  7  8  1  0
  8  9  1  0
  9 10  2  0
 10 11  1  0
 11 12  2  0
 12 13  1  0
 13 14  2  0
 14 15  1  0
 15 16  2  0
 16 17  1  0
 16 18  1  0
 18 19  2  0
 19 20  1  0
 20 21  1  0
 20 22  2  0
 22 23  1  0
 23 24  1  0
 24 25  1  0
 25 26  1  0
 26 27  1  0
 27 28  1  0
 28 29  1  0
 28 30  1  0
 28 31  1  0
 23 32  2  0
 32  9  1  0
 15 10  1  0
 32 18  1  0
  1 33  1  0
  1 34  1  0
  1 35  1  0
  2 36  1  0
  2 37  1  0
  3 38  1  0
  4 39  1  0
  4 40  1  0
  5 41  1  0
  5 42  1  0
  5 43  1  0
  6 44  1  0
  6 45  1  0
  7 46  1  0
  7 47  1  0
  8 48  1  0
 11 49  1  0
 12 50  1  0
 13 51  1  0
 14 52  1  0
 17 53  1  0
 17 54  1  0
 17 55  1  0
 19 56  1  0
 21 57  1  0
 21 58  1  0
 21 59  1  0
 22 60  1  0
 25 61  1  0
 25 62  1  0
 26 63  1  0
 26 64  1  0
 27 65  1  0
 27 66  1  0
 29 67  1  0
 29 68  1  0
 29 69  1  0
 30 70  1  0
 30 71  1  0
 30 72  1  0
 31 73  1  0
 31 74  1  0
 31 75  1  0
M  CHG  3   3   1  16   1  28   1
M  END
>  <UniqueID>  (15) 
15

>  <SMILES>  (15) 
CC[NH+](CC)CCNc1c2ccccc2[n+](C)c2cc(C)cc(OCCC[N+](C)(C)C)c12

>  <Energy>  (15) 
114.2808460029561

>  <Genealogy>  (15) 
CC[NH+](CC)CCNc1c2ccccc2[n+](C)c2cc(C)cc(OCCC[N+](C)(C)C)c12 (protonated)
CC[NH+](CC)CCNc1c2ccccc2[n+](C)c2cc(C)cc(OCCC[N+](C)(C)C)c12 (3D coordinates assigned)
CC[NH+](CC)CCNc1c2ccccc2[n+](C)c2cc(C)cc(OCCC[N+](C)(C)C)c12 (optimized conformer: 114.2808460029561 kcal/mol)

>  <smiles>  (15) 
CCN(CC)CCNc1c2ccccc2[n+](C)c2cc(C)cc(OCCC[N+](C)(C)C)c12

>  <score_type>  (15) 
oracle

>  <origin>  (15) 
adg

>  <m_score__min__energy>  (15) 
-6.75

>  <m_primary>  (15) 
energy

$$$$
15:0
     RDKit          3D

 43 45  0  0  0  0  0  0  0  0999 V2000
   -6.0990   17.0490  -31.5880 C   0  0  0  0  0  0  0  0  0  0  0  0
   -7.2230   18.0450  -31.3290 C   0  0  0  0  0  0  0  0  0  0  0  0
   -8.3100   17.8710  -32.3050 N   0  0  0  0  0  0  0  0  0  0  0  0
   -9.3610   18.8830  -32.1190 C   0  0  0  0  0  0  0  0  0  0  0  0
   -8.7960   20.2940  -32.3080 C   0  0  0  0  0  0  0  0  0  0  0  0
   -7.8870   20.3530  -33.4540 N   0  0  0  0  0  0  0  0  0  0  0  0
   -6.4640   20.4930  -33.2910 C   0  0  0  0  0  0  0  0  0  0  0  0
   -5.9310   21.5780  -32.5690 C   0  0  0  0  0  0  0  0  0  0  0  0
   -6.7690   22.5930  -32.0600 C   0  0  0  0  0  0  0  0  0  0  0  0
   -6.2500   23.6210  -31.2770 C   0  0  0  0  0  0  0  0  0  0  0  0
   -4.8910   23.6570  -30.9860 C   0  0  0  0  0  0  0  0  0  0  0  0
   -4.2510   24.9240  -29.9550 Cl  0  0  0  0  0  0  0  0  0  0  0  0
   -4.0360   22.6920  -31.5220 C   0  0  0  0  0  0  0  0  0  0  0  0
   -4.5270   21.6660  -32.3690 C   0  0  0  0  0  0  0  0  0  0  0  0
   -3.6790   20.7660  -32.9890 N   0  0  0  0  0  0  0  0  0  0  0  0
   -2.2210   21.0300  -33.0260 C   0  0  0  0  0  0  0  0  0  0  0  0
   -4.1930   19.6470  -33.6160 C   0  0  0  0  0  0  0  0  0  0  0  0
   -3.3550   18.5890  -34.0590 C   0  0  0  0  0  0  0  0  0  0  0  0
   -3.8770   17.4950  -34.7490 C   0  0  0  0  0  0  0  0  0  0  0  0
   -2.8130   16.2110  -35.2940 Cl  0  0  0  0  0  0  0  0  0  0  0  0
   -5.2420   17.4150  -34.9980 C   0  0  0  0  0  0  0  0  0  0  0  0
   -6.0970   18.4060  -34.5250 C   0  0  0  0  0  0  0  0  0  0  0  0
   -5.5940   19.5190  -33.8180 C   0  0  0  0  0  0  0  0  0  0  0  0
   -5.6967   16.6925  -30.6283 H   0  0  0  0  0  0  0  0  0  0  0  0
   -6.4902   16.1956  -32.1613 H   0  0  0  0  0  0  0  0  0  0  0  0
   -5.2989   17.5400  -32.1613 H   0  0  0  0  0  0  0  0  0  0  0  0
   -7.6195   17.8859  -30.3154 H   0  0  0  0  0  0  0  0  0  0  0  0
   -6.8208   19.0641  -31.4270 H   0  0  0  0  0  0  0  0  0  0  0  0
   -7.8990   18.0110  -33.2580 H   0  0  0  0  0  0  0  0  0  0  0  0
  -10.1601   18.7127  -32.8555 H   0  0  0  0  0  0  0  0  0  0  0  0
   -9.7579   18.7958  -31.0968 H   0  0  0  0  0  0  0  0  0  0  0  0
   -9.6281   20.9941  -32.4740 H   0  0  0  0  0  0  0  0  0  0  0  0
   -8.2329   20.5670  -31.4033 H   0  0  0  0  0  0  0  0  0  0  0  0
   -8.2600   20.0640  -34.3870 H   0  0  0  0  0  0  0  0  0  0  0  0
   -7.8456   22.5719  -32.2846 H   0  0  0  0  0  0  0  0  0  0  0  0
   -6.9160   24.4054  -30.8883 H   0  0  0  0  0  0  0  0  0  0  0  0
   -2.9629   22.7282  -31.2831 H   0  0  0  0  0  0  0  0  0  0  0  0
   -1.8348   21.0999  -31.9984 H   0  0  0  0  0  0  0  0  0  0  0  0
   -1.7130   20.2092  -33.5535 H   0  0  0  0  0  0  0  0  0  0  0  0
   -2.0331   21.9768  -33.5535 H   0  0  0  0  0  0  0  0  0  0  0  0
   -2.2751   18.6333  -33.8542 H   0  0  0  0  0  0  0  0  0  0  0  0
   -5.6472   16.5671  -35.5698 H   0  0  0  0  0  0  0  0  0  0  0  0
   -7.1789   18.3207  -34.7045 H   0  0  0  0  0  0  0  0  0  0  0  0
  1  2  1  0
  2  3  1  0
  3  4  1  0
  4  5  1  0
  5  6  1  0
  6  7  1  0
  7  8  2  0
  8  9  1  0
  9 10  2  0
 10 11  1  0
 11 12  1  0
 11 13  2  0
 13 14  1  0
 14 15  2  0
 15 16  1  0
 15 17  1  0
 17 18  2  0
 18 19  1  0
 19 20  1  0
 19 21  2  0
 21 22  1  0
 22 23  2  0
 23  7  1  0
 14  8  1  0
 23 17  1  0
  1 24  1  0
  1 25  1  0
  1 26  1  0
  2 27  1  0
  2 28  1  0
  3 29  1  0
  4 30  1  0
  4 31  1  0
  5 32  1  0
  5 33  1  0
  6 34  1  0
  9 35  1  0
 10 36  1  0
 13 37  1  0
 16 38  1  0
 16 39  1  0
 16 40  1  0
 18 41  1  0
 21 42  1  0
 22 43  1  0
M  CHG  1  15   1
M  END
>  <UniqueID>  (16) 
16

>  <SMILES>  (16) 
CCNCCNc1c2ccc(Cl)cc2[n+](C)c2cc(Cl)ccc12

>  <Energy>  (16) 
64.73359733088478

>  <Genealogy>  (16) 
CCNCCNc1c2ccc(Cl)cc2[n+](C)c2cc(Cl)ccc12 (3D coordinates assigned)
CCNCCNc1c2ccc(Cl)cc2[n+](C)c2cc(Cl)ccc12 (optimized conformer: 64.73359733088478 kcal/mol)

>  <smiles>  (16) 
CCNCCNc1c2ccc(Cl)cc2[n+](C)c2cc(Cl)ccc12

>  <score_type>  (16) 
oracle

>  <origin>  (16) 
adg

>  <m_score__min__energy>  (16) 
-8.1300000000000008

>  <m_primary>  (16) 
energy

$$$$
16:0
     RDKit          3D

 54 57  0  0  0  0  0  0  0  0999 V2000
   -3.3510   24.1600  -28.2370 C   0  0  0  0  0  0  0  0  0  0  0  0
   -3.0150   24.1900  -29.7260 C   0  0  0  0  0  0  0  0  0  0  0  0
   -4.1710   23.7600  -30.5450 N   0  0  0  0  0  0  0  0  0  0  0  0
   -5.4570   24.2440  -29.9960 C   0  0  0  0  0  0  0  0  0  0  0  0
   -5.7280   25.6700  -30.4700 C   0  0  0  0  0  0  0  0  0  0  0  0
   -4.1900   22.3100  -30.8540 C   0  0  0  0  0  0  0  0  0  0  0  0
   -3.5240   21.9170  -32.1960 C   0  0  0  0  0  0  0  0  0  0  0  0
   -4.5110   21.6810  -33.2540 N   0  0  0  0  0  0  0  0  0  0  0  0
   -5.6400   20.8320  -33.0010 C   0  0  0  0  0  0  0  0  0  0  0  0
   -6.8400   21.4090  -32.5440 C   0  0  0  0  0  0  0  0  0  0  0  0
   -6.9610   22.8120  -32.4120 C   0  0  0  0  0  0  0  0  0  0  0  0
   -8.1480   23.3870  -31.9660 C   0  0  0  0  0  0  0  0  0  0  0  0
   -9.2320   22.5810  -31.6420 C   0  0  0  0  0  0  0  0  0  0  0  0
   -9.1360   21.1940  -31.7570 C   0  0  0  0  0  0  0  0  0  0  0  0
   -7.9380   20.5770  -32.2010 C   0  0  0  0  0  0  0  0  0  0  0  0
   -7.8220   19.2040  -32.2980 N   0  0  0  0  0  0  0  0  0  0  0  0
   -8.9540   18.3390  -31.8950 C   0  0  0  0  0  0  0  0  0  0  0  0
   -6.6650   18.6340  -32.7800 C   0  0  0  0  0  0  0  0  0  0  0  0
   -6.5700   17.2830  -32.9000 N   0  0  0  0  0  0  0  0  0  0  0  0
   -5.4640   16.6710  -33.3800 C   0  0  0  0  0  0  0  0  0  0  0  0
   -5.4220   15.2750  -33.4780 C   0  0  0  0  0  0  0  0  0  0  0  0
   -4.2830   14.6450  -33.9840 C   0  0  0  0  0  0  0  0  0  0  0  0
   -3.1870   15.4070  -34.3960 C   0  0  0  0  0  0  0  0  0  0  0  0
   -3.2250   16.8020  -34.3020 C   0  0  0  0  0  0  0  0  0  0  0  0
   -4.3680   17.4490  -33.7890 C   0  0  0  0  0  0  0  0  0  0  0  0
   -4.4360   18.8120  -33.6870 N   0  0  0  0  0  0  0  0  0  0  0  0
   -3.3800   19.5550  -34.1680 O   0  0  0  0  0  0  0  0  0  0  0  0
   -5.5530   19.4300  -33.1630 C   0  0  0  0  0  0  0  0  0  0  0  0
   -2.4242   24.2427  -27.6503 H   0  0  0  0  0  0  0  0  0  0  0  0
   -4.0153   25.0024  -27.9940 H   0  0  0  0  0  0  0  0  0  0  0  0
   -3.8555   23.2132  -27.9940 H   0  0  0  0  0  0  0  0  0  0  0  0
   -2.7357   25.2153  -30.0101 H   0  0  0  0  0  0  0  0  0  0  0  0
   -2.1815   23.4959  -29.9088 H   0  0  0  0  0  0  0  0  0  0  0  0
   -6.2693   23.5863  -30.3390 H   0  0  0  0  0  0  0  0  0  0  0  0
   -5.4052   24.2342  -28.8973 H   0  0  0  0  0  0  0  0  0  0  0  0
   -5.8532   26.3287  -29.5980 H   0  0  0  0  0  0  0  0  0  0  0  0
   -4.8807   26.0220  -31.0768 H   0  0  0  0  0  0  0  0  0  0  0  0
   -6.6454   25.6866  -31.0768 H   0  0  0  0  0  0  0  0  0  0  0  0
   -3.6643   21.7819  -30.0448 H   0  0  0  0  0  0  0  0  0  0  0  0
   -5.2497   22.0290  -30.9433 H   0  0  0  0  0  0  0  0  0  0  0  0
   -2.8542   22.7307  -32.5111 H   0  0  0  0  0  0  0  0  0  0  0  0
   -2.9683   20.9811  -32.0367 H   0  0  0  0  0  0  0  0  0  0  0  0
   -4.5650   22.3210  -34.0780 H   0  0  0  0  0  0  0  0  0  0  0  0
   -6.1066   23.4570  -32.6649 H   0  0  0  0  0  0  0  0  0  0  0  0
   -8.2274   24.4799  -31.8702 H   0  0  0  0  0  0  0  0  0  0  0  0
  -10.1698   23.0382  -31.2934 H   0  0  0  0  0  0  0  0  0  0  0  0
  -10.0033   20.5685  -31.4992 H   0  0  0  0  0  0  0  0  0  0  0  0
   -9.0100   18.2962  -30.7973 H   0  0  0  0  0  0  0  0  0  0  0  0
   -9.8918   18.7527  -32.2942 H   0  0  0  0  0  0  0  0  0  0  0  0
   -8.8012   17.3254  -32.2942 H   0  0  0  0  0  0  0  0  0  0  0  0
   -6.2859   14.6746  -33.1565 H   0  0  0  0  0  0  0  0  0  0  0  0
   -4.2488   13.5480  -34.0582 H   0  0  0  0  0  0  0  0  0  0  0  0
   -2.2915   14.9085  -34.7955 H   0  0  0  0  0  0  0  0  0  0  0  0
   -2.3596   17.3968  -34.6296 H   0  0  0  0  0  0  0  0  0  0  0  0
  1  2  1  0
  2  3  1  0
  3  4  1  0
  4  5  1  0
  3  6  1  0
  6  7  1  0
  7  8  1  0
  8  9  1  0
  9 10  2  0
 10 11  1  0
 11 12  2  0
 12 13  1  0
 13 14  2  0
 14 15  1  0
 15 16  2  0
 16 17  1  0
 16 18  1  0
 18 19  2  0
 19 20  1  0
 20 21  2  0
 21 22  1  0
 22 23  2  0
 23 24  1  0
 24 25  2  0
 25 26  1  0
 26 27  1  0
 26 28  2  0
 28  9  1  0
 15 10  1  0
 28 18  1  0
 25 20  1  0
  1 29  1  0
  1 30  1  0
  1 31  1  0
  2 32  1  0
  2 33  1  0
  4 34  1  0
  4 35  1  0
  5 36  1  0
  5 37  1  0
  5 38  1  0
  6 39  1  0
  6 40  1  0
  7 41  1  0
  7 42  1  0
  8 43  1  0
 11 44  1  0
 12 45  1  0
 13 46  1  0
 14 47  1  0
 17 48  1  0
 17 49  1  0
 17 50  1  0
 21 51  1  0
 22 52  1  0
 23 53  1  0
 24 54  1  0
M  CHG  3  16   1  26   1  27  -1
M  END
>  <UniqueID>  (17) 
17

>  <SMILES>  (17) 
CCN(CC)CCNc1c2ccccc2[n+](C)c2nc3ccccc3[n+]([O-])c12

>  <Energy>  (17) 
88.98380519037677

>  <Genealogy>  (17) 
CCN(CC)CCNc1c2ccccc2[n+](C)c2nc3ccccc3[n+]([O-])c12 (3D coordinates assigned)
CCN(CC)CCNc1c2ccccc2[n+](C)c2nc3ccccc3[n+]([O-])c12 (optimized conformer: 88.98380519037677 kcal/mol)

>  <smiles>  (17) 
CCN(CC)CCNc1c2ccccc2[n+](C)c2nc3ccccc3[n+]([O-])c12

>  <score_type>  (17) 
oracle

>  <origin>  (17) 
adg

>  <m_score__min__energy>  (17) 
-9.1999999999999993

>  <m_primary>  (17) 
energy

$$$$
17:0
     RDKit          3D

 52 54  0  0  0  0  0  0  0  0999 V2000
    0.8876   26.0380  -24.2665 H   0  0  0  0  0  0  0  0  0  0  0  0
    0.3090   25.9080  -25.1930 C   0  0  0  0  0  0  0  0  0  0  0  0
   -0.8810   26.6180  -25.3800 C   0  0  0  0  0  0  0  0  0  0  0  0
   -1.2454   27.2962  -24.5943 H   0  0  0  0  0  0  0  0  0  0  0  0
   -1.6080   26.4670  -26.5640 C   0  0  0  0  0  0  0  0  0  0  0  0
   -2.5509   27.0168  -26.7002 H   0  0  0  0  0  0  0  0  0  0  0  0
   -1.1420   25.6170  -27.5820 C   0  0  0  0  0  0  0  0  0  0  0  0
   -2.4560   22.8070  -27.3900 N   0  0  0  0  0  0  0  0  0  0  0  0
   -2.8970   23.2090  -28.5540 C   0  0  0  0  0  0  0  0  0  0  0  0
   -3.7780   24.9430  -29.9670 N   0  0  0  0  0  0  0  0  0  0  0  0
   -4.6360   24.0630  -30.5390 C   0  0  0  0  0  0  0  0  0  0  0  0
   -5.5860   24.4930  -31.4750 C   0  0  0  0  0  0  0  0  0  0  0  0
   -5.6491   25.5568  -31.7478 H   0  0  0  0  0  0  0  0  0  0  0  0
   -6.4530   23.5670  -32.0610 C   0  0  0  0  0  0  0  0  0  0  0  0
   -7.2243   23.9141  -32.7642 H   0  0  0  0  0  0  0  0  0  0  0  0
   -6.3510   22.1950  -31.7620 C   0  0  0  0  0  0  0  0  0  0  0  0
   -7.2770   21.2510  -32.3440 N   0  0  0  0  0  0  0  0  0  0  0  0
   -6.7730   20.1830  -33.2250 C   0  0  0  0  0  0  0  0  0  0  0  0
   -5.6732   20.2014  -33.2165 H   0  0  0  0  0  0  0  0  0  0  0  0
   -7.1588   20.3607  -34.2397 H   0  0  0  0  0  0  0  0  0  0  0  0
   -7.2510   18.8060  -32.7630 C   0  0  0  0  0  0  0  0  0  0  0  0
   -7.2629   18.7718  -31.6636 H   0  0  0  0  0  0  0  0  0  0  0  0
   -8.2655   18.6223  -33.1465 H   0  0  0  0  0  0  0  0  0  0  0  0
   -6.5685   18.0333  -33.1465 H   0  0  0  0  0  0  0  0  0  0  0  0
   -8.7310   21.4260  -32.1730 C   0  0  0  0  0  0  0  0  0  0  0  0
   -9.0432   22.3403  -32.6989 H   0  0  0  0  0  0  0  0  0  0  0  0
   -9.2318   20.5388  -32.5877 H   0  0  0  0  0  0  0  0  0  0  0  0
   -9.1220   21.5450  -30.7020 C   0  0  0  0  0  0  0  0  0  0  0  0
   -8.2600   21.2826  -30.0711 H   0  0  0  0  0  0  0  0  0  0  0  0
   -9.4324   22.5783  -30.4875 H   0  0  0  0  0  0  0  0  0  0  0  0
   -9.9554   20.8598  -30.4875 H   0  0  0  0  0  0  0  0  0  0  0  0
   -5.3770   21.7700  -30.8320 C   0  0  0  0  0  0  0  0  0  0  0  0
   -5.2774   20.7012  -30.5919 H   0  0  0  0  0  0  0  0  0  0  0  0
   -4.5380   22.7050  -30.2150 C   0  0  0  0  0  0  0  0  0  0  0  0
   -3.6880   22.3230  -29.2290 N   0  0  0  0  0  0  0  0  0  0  0  0
   -2.8450   24.5630  -29.0430 C   0  0  0  0  0  0  0  0  0  0  0  0
   -1.9000   25.4230  -28.7840 N   0  0  0  0  0  0  0  0  0  0  0  0
   -1.6180   21.6660  -27.0200 C   0  0  0  0  0  0  0  0  0  0  0  0
   -2.2444   20.8748  -26.5823 H   0  0  0  0  0  0  0  0  0  0  0  0
   -1.1109   21.2720  -27.9131 H   0  0  0  0  0  0  0  0  0  0  0  0
   -0.5800   22.1230  -25.9960 C   0  0  0  0  0  0  0  0  0  0  0  0
    0.4168   21.7729  -26.3024 H   0  0  0  0  0  0  0  0  0  0  0  0
   -0.5797   23.2215  -25.9379 H   0  0  0  0  0  0  0  0  0  0  0  0
   -0.9010   21.5830  -24.7300 O   0  0  0  0  0  0  0  0  0  0  0  0
   -0.3250   22.3750  -23.7140 C   0  0  0  0  0  0  0  0  0  0  0  0
   -0.6145   21.9769  -22.7303 H   0  0  0  0  0  0  0  0  0  0  0  0
    0.7706   22.3545  -23.8099 H   0  0  0  0  0  0  0  0  0  0  0  0
   -0.6821   23.4110  -23.8099 H   0  0  0  0  0  0  0  0  0  0  0  0
    0.0360   24.8710  -27.3680 C   0  0  0  0  0  0  0  0  0  0  0  0
    0.6280   23.7590  -28.5940 Cl  0  0  0  0  0  0  0  0  0  0  0  0
    0.7630   25.0330  -26.1840 C   0  0  0  0  0  0  0  0  0  0  0  0
    1.6955   24.4697  -26.0322 H   0  0  0  0  0  0  0  0  0  0  0  0
  1  2  1  0
  2  3  2  0
  3  4  1  0
  3  5  1  0
  5  6  1  0
  5  7  2  0
  7  8  1  0
  8  9  2  0
  9 10  1  0
 10 11  1  0
 11 12  2  0
 12 13  1  0
 12 14  1  0
 14 15  1  0
 14 16  2  0
 16 17  1  0
 17 18  1  0
 18 19  1  0
 18 20  1  0
 18 21  1  0
 21 22  1  0
 21 23  1  0
 21 24  1  0
 17 25  1  0
 25 26  1  0
 25 27  1  0
 25 28  1  0
 28 29  1  0
 28 30  1  0
 28 31  1  0
 16 32  1  0
 32 33  1  0
 32 34  2  0
 34 35  1  0
 35 36  1  0
 36 37  2  0
 37 38  1  0
 38 39  1  0
 38 40  1  0
 38 41  1  0
 41 42  1  0
 41 43  1  0
 41 44  1  0
 44 45  1  0
 45 46  1  0
 45 47  1  0
 45 48  1  0
  7 49  1  0
 49 50  1  0
 49 51  2  0
 51 52  1  0
 51  2  1  0
 36  9  1  0
 34 11  1  0
M  CHG  2  10  -1  35  -1
M  END
>  <UniqueID>  (18) 
18

>  <SMILES>  (18) 
CCN(CC)c1ccc2[n-]c(=N/c3ccccc3Cl)/c(=N\CCOC)[n-]c2c1

>  <Energy>  (18) 
90.56272497119478

>  <Genealogy>  (18) 
CCN(CC)c1ccc2[n-]c(=Nc3ccccc3Cl)c(=NCCOC)[n-]c2c1 (protonated)
CCN(CC)c1ccc2[n-]c(=N/c3ccccc3Cl)/c(=N\CCOC)[n-]c2c1 (cis-trans isomerization)
CCN(CC)c1ccc2[n-]c(=N/c3ccccc3Cl)/c(=N\CCOC)[n-]c2c1 (3D coordinates assigned)
CCN(CC)c1ccc2[n-]c(=N/c3ccccc3Cl)/c(=N\CCOC)[n-]c2c1 (optimized conformer: 90.56272497119478 kcal/mol)

>  <smiles>  (18) 
CCN(CC)c1ccc2[nH]c(=Nc3ccccc3Cl)c(=NCCOC)[nH]c2c1

>  <score_type>  (18) 
oracle

>  <origin>  (18) 
adg

>  <m_score__min__energy>  (18) 
-9.9299999999999997

>  <m_primary>  (18) 
energy

$$$$
18:0
     RDKit          3D

 65 67  0  0  0  0  0  0  0  0999 V2000
   -1.5230   27.3700  -38.3460 C   0  0  0  0  0  0  0  0  0  0  0  0
   -0.5180   26.4310  -37.6780 C   0  0  0  0  0  0  0  0  0  0  0  0
   -0.4890   26.4900  -36.1900 N   0  0  0  0  0  0  0  0  0  0  0  0
   -1.2430   27.6500  -35.6280 C   0  0  0  0  0  0  0  0  0  0  0  0
   -0.7920   28.1320  -34.2410 C   0  0  0  0  0  0  0  0  0  0  0  0
    0.8770   26.2770  -35.6380 C   0  0  0  0  0  0  0  0  0  0  0  0
    1.3590   24.8120  -35.7510 C   0  0  0  0  0  0  0  0  0  0  0  0
    0.2710   23.9050  -35.7470 O   0  0  0  0  0  0  0  0  0  0  0  0
    0.6850   22.6200  -36.1710 C   0  0  0  0  0  0  0  0  0  0  0  0
    0.6590   21.6610  -34.9770 C   0  0  0  0  0  0  0  0  0  0  0  0
   -0.6720   21.6450  -34.3490 N   0  0  0  0  0  0  0  0  0  0  0  0
   -0.6150   21.4870  -32.8840 C   0  0  0  0  0  0  0  0  0  0  0  0
   -2.0100   21.3430  -32.2550 C   0  0  0  0  0  0  0  0  0  0  0  0
   -3.0400   21.2590  -33.2930 N   0  0  0  0  0  0  0  0  0  0  0  0
   -4.3580   20.7530  -33.0110 C   0  0  0  0  0  0  0  0  0  0  0  0
   -4.7330   19.4810  -33.4770 C   0  0  0  0  0  0  0  0  0  0  0  0
   -3.7910   18.6350  -34.0960 C   0  0  0  0  0  0  0  0  0  0  0  0
   -4.1770   17.4070  -34.6300 C   0  0  0  0  0  0  0  0  0  0  0  0
   -5.5080   17.0170  -34.5810 C   0  0  0  0  0  0  0  0  0  0  0  0
   -6.4510   17.8330  -33.9580 C   0  0  0  0  0  0  0  0  0  0  0  0
   -6.0790   19.0570  -33.3470 C   0  0  0  0  0  0  0  0  0  0  0  0
   -6.9930   19.8420  -32.6670 N   0  0  0  0  0  0  0  0  0  0  0  0
   -8.3200   19.2910  -32.3160 C   0  0  0  0  0  0  0  0  0  0  0  0
   -6.6570   21.1280  -32.2820 C   0  0  0  0  0  0  0  0  0  0  0  0
   -7.6220   22.0370  -31.7780 C   0  0  0  0  0  0  0  0  0  0  0  0
   -7.2500   23.2940  -31.3010 C   0  0  0  0  0  0  0  0  0  0  0  0
   -5.9150   23.6890  -31.3310 C   0  0  0  0  0  0  0  0  0  0  0  0
   -5.4480   25.2570  -30.6970 Cl  0  0  0  0  0  0  0  0  0  0  0  0
   -4.9550   22.8440  -31.8830 C   0  0  0  0  0  0  0  0  0  0  0  0
   -5.3150   21.5770  -32.3960 C   0  0  0  0  0  0  0  0  0  0  0  0
   -2.0951   27.9045  -37.5733 H   0  0  0  0  0  0  0  0  0  0  0  0
   -0.9853   28.0968  -38.9726 H   0  0  0  0  0  0  0  0  0  0  0  0
   -2.2116   26.7842  -38.9726 H   0  0  0  0  0  0  0  0  0  0  0  0
   -0.7662   25.4008  -37.9732 H   0  0  0  0  0  0  0  0  0  0  0  0
    0.4766   26.7568  -38.0164 H   0  0  0  0  0  0  0  0  0  0  0  0
   -1.0450   25.6480  -35.9170 H   0  0  0  0  0  0  0  0  0  0  0  0
   -1.1383   28.4918  -36.3283 H   0  0  0  0  0  0  0  0  0  0  0  0
   -2.2780   27.3000  -35.5006 H   0  0  0  0  0  0  0  0  0  0  0  0
   -1.3242   27.5633  -33.4642 H   0  0  0  0  0  0  0  0  0  0  0  0
    0.2914   27.9753  -34.1328 H   0  0  0  0  0  0  0  0  0  0  0  0
   -1.0203   29.2026  -34.1328 H   0  0  0  0  0  0  0  0  0  0  0  0
    1.5803   26.9197  -36.1879 H   0  0  0  0  0  0  0  0  0  0  0  0
    0.8391   26.5266  -34.5674 H   0  0  0  0  0  0  0  0  0  0  0  0
    1.9207   24.6920  -36.6891 H   0  0  0  0  0  0  0  0  0  0  0  0
    1.9957   24.5905  -34.8818 H   0  0  0  0  0  0  0  0  0  0  0  0
    0.0028   22.2531  -36.9520 H   0  0  0  0  0  0  0  0  0  0  0  0
    1.7060   22.6766  -36.5764 H   0  0  0  0  0  0  0  0  0  0  0  0
    0.9066   20.6468  -35.3235 H   0  0  0  0  0  0  0  0  0  0  0  0
    1.3954   22.0021  -34.2344 H   0  0  0  0  0  0  0  0  0  0  0  0
   -1.1680   22.5350  -34.5930 H   0  0  0  0  0  0  0  0  0  0  0  0
   -0.0268   20.5878  -32.6484 H   0  0  0  0  0  0  0  0  0  0  0  0
   -0.1512   22.3931  -32.4670 H   0  0  0  0  0  0  0  0  0  0  0  0
   -2.0379   20.4288  -31.6439 H   0  0  0  0  0  0  0  0  0  0  0  0
   -2.2090   22.2261  -31.6301 H   0  0  0  0  0  0  0  0  0  0  0  0
   -2.8270   21.6060  -34.2550 H   0  0  0  0  0  0  0  0  0  0  0  0
   -2.7383   18.9478  -34.1584 H   0  0  0  0  0  0  0  0  0  0  0  0
   -3.4269   16.7470  -35.0902 H   0  0  0  0  0  0  0  0  0  0  0  0
   -5.8189   16.0639  -35.0338 H   0  0  0  0  0  0  0  0  0  0  0  0
   -7.5056   17.5207  -33.9401 H   0  0  0  0  0  0  0  0  0  0  0  0
   -8.4217   19.2488  -31.2215 H   0  0  0  0  0  0  0  0  0  0  0  0
   -9.1070   19.9367  -32.7327 H   0  0  0  0  0  0  0  0  0  0  0  0
   -8.4182   18.2777  -32.7327 H   0  0  0  0  0  0  0  0  0  0  0  0
   -8.6826   21.7456  -31.7630 H   0  0  0  0  0  0  0  0  0  0  0  0
   -8.0142   23.9758  -30.8996 H   0  0  0  0  0  0  0  0  0  0  0  0
   -3.9040   23.1666  -31.9201 H   0  0  0  0  0  0  0  0  0  0  0  0
  1  2  1  0
  2  3  1  0
  3  4  1  0
  4  5  1  0
  3  6  1  0
  6  7  1  0
  7  8  1  0
  8  9  1  0
  9 10  1  0
 10 11  1  0
 11 12  1  0
 12 13  1  0
 13 14  1  0
 14 15  1  0
 15 16  2  0
 16 17  1  0
 17 18  2  0
 18 19  1  0
 19 20  2  0
 20 21  1  0
 21 22  2  0
 22 23  1  0
 22 24  1  0
 24 25  2  0
 25 26  1  0
 26 27  2  0
 27 28  1  0
 27 29  1  0
 29 30  2  0
 30 15  1  0
 21 16  1  0
 30 24  1  0
  1 31  1  0
  1 32  1  0
  1 33  1  0
  2 34  1  0
  2 35  1  0
  3 36  1  0
  4 37  1  0
  4 38  1  0
  5 39  1  0
  5 40  1  0
  5 41  1  0
  6 42  1  0
  6 43  1  0
  7 44  1  0
  7 45  1  0
  9 46  1  0
  9 47  1  0
 10 48  1  0
 10 49  1  0
 11 50  1  0
 12 51  1  0
 12 52  1  0
 13 53  1  0
 13 54  1  0
 14 55  1  0
 17 56  1  0
 18 57  1  0
 19 58  1  0
 20 59  1  0
 23 60  1  0
 23 61  1  0
 23 62  1  0
 25 63  1  0
 26 64  1  0
 29 65  1  0
M  CHG  2   3   1  22   1
M  END
>  <UniqueID>  (19) 
19

>  <SMILES>  (19) 
CC[NH+](CC)CCOCCNCCNc1c2ccccc2[n+](C)c2ccc(Cl)cc12

>  <Energy>  (19) 
95.79008166425824

>  <Genealogy>  (19) 
CC[NH+](CC)CCOCCNCCNc1c2ccccc2[n+](C)c2ccc(Cl)cc12 (protonated)
CC[NH+](CC)CCOCCNCCNc1c2ccccc2[n+](C)c2ccc(Cl)cc12 (3D coordinates assigned)
CC[NH+](CC)CCOCCNCCNc1c2ccccc2[n+](C)c2ccc(Cl)cc12 (optimized conformer: 95.79008166425824 kcal/mol)

>  <smiles>  (19) 
CCN(CC)CCOCCNCCNc1c2ccccc2[n+](C)c2ccc(Cl)cc12

>  <score_type>  (19) 
oracle

>  <origin>  (19) 
adg

>  <m_score__min__energy>  (19) 
-9.3300000000000001

>  <m_primary>  (19) 
energy

$$$$
19:0
     RDKit          3D

 47 49  0  0  0  0  0  0  0  0999 V2000
   -3.9960   22.4450  -29.8230 C   0  0  0  0  0  0  0  0  0  0  0  0
   -3.6640   23.7900  -30.4650 C   0  0  0  0  0  0  0  0  0  0  0  0
   -4.8400   24.3220  -31.1940 N   0  0  0  0  0  0  0  0  0  0  0  0
   -5.3600   25.5490  -30.5460 C   0  0  0  0  0  0  0  0  0  0  0  0
   -6.6160   25.2480  -29.7280 C   0  0  0  0  0  0  0  0  0  0  0  0
   -5.9060   23.2920  -31.3340 C   0  0  0  0  0  0  0  0  0  0  0  0
   -5.9740   22.7910  -32.7180 N   0  0  0  0  0  0  0  0  0  0  0  0
   -5.8190   21.3440  -32.7880 C   0  0  0  0  0  0  0  0  0  0  0  0
   -4.5490   20.7530  -33.0430 C   0  0  0  0  0  0  0  0  0  0  0  0
   -3.3850   21.5320  -33.2740 C   0  0  0  0  0  0  0  0  0  0  0  0
   -2.1380   20.9350  -33.4440 C   0  0  0  0  0  0  0  0  0  0  0  0
   -2.0120   19.5570  -33.3830 C   0  0  0  0  0  0  0  0  0  0  0  0
   -3.1380   18.7620  -33.2020 C   0  0  0  0  0  0  0  0  0  0  0  0
   -4.4320   19.3330  -33.0820 C   0  0  0  0  0  0  0  0  0  0  0  0
   -5.5560   18.5370  -33.0010 N   0  0  0  0  0  0  0  0  0  0  0  0
   -5.4730   17.1050  -33.3710 C   0  0  0  0  0  0  0  0  0  0  0  0
   -6.7650   19.0790  -32.6210 C   0  0  0  0  0  0  0  0  0  0  0  0
   -7.8620   18.2500  -32.2660 C   0  0  0  0  0  0  0  0  0  0  0  0
   -9.1080   18.7900  -31.9630 C   0  0  0  0  0  0  0  0  0  0  0  0
   -9.2950   20.1630  -31.9950 C   0  0  0  0  0  0  0  0  0  0  0  0
   -8.2280   21.0070  -32.2860 C   0  0  0  0  0  0  0  0  0  0  0  0
   -6.9360   20.4900  -32.5650 C   0  0  0  0  0  0  0  0  0  0  0  0
   -3.9712   22.5454  -28.7279 H   0  0  0  0  0  0  0  0  0  0  0  0
   -4.9999   22.1256  -30.1393 H   0  0  0  0  0  0  0  0  0  0  0  0
   -3.2560   21.6951  -30.1393 H   0  0  0  0  0  0  0  0  0  0  0  0
   -3.3715   24.5032  -29.6803 H   0  0  0  0  0  0  0  0  0  0  0  0
   -2.8376   23.6497  -31.1773 H   0  0  0  0  0  0  0  0  0  0  0  0
   -4.5867   25.9589  -29.8797 H   0  0  0  0  0  0  0  0  0  0  0  0
   -5.6189   26.2759  -31.3300 H   0  0  0  0  0  0  0  0  0  0  0  0
   -6.3776   25.3051  -28.6557 H   0  0  0  0  0  0  0  0  0  0  0  0
   -7.3964   25.9846  -29.9699 H   0  0  0  0  0  0  0  0  0  0  0  0
   -6.9777   24.2377  -29.9699 H   0  0  0  0  0  0  0  0  0  0  0  0
   -5.6871   22.4527  -30.6574 H   0  0  0  0  0  0  0  0  0  0  0  0
   -6.8729   23.7496  -31.0778 H   0  0  0  0  0  0  0  0  0  0  0  0
   -6.8480   23.1290  -33.1700 H   0  0  0  0  0  0  0  0  0  0  0  0
   -5.2440   23.2640  -33.2960 H   0  0  0  0  0  0  0  0  0  0  0  0
   -3.4694   22.6278  -33.3196 H   0  0  0  0  0  0  0  0  0  0  0  0
   -1.2511   21.5595  -33.6271 H   0  0  0  0  0  0  0  0  0  0  0  0
   -1.0200   19.0912  -33.4779 H   0  0  0  0  0  0  0  0  0  0  0  0
   -3.0240   17.6691  -33.1508 H   0  0  0  0  0  0  0  0  0  0  0  0
   -5.4375   16.4920  -32.4584 H   0  0  0  0  0  0  0  0  0  0  0  0
   -6.3566   16.8279  -33.9647 H   0  0  0  0  0  0  0  0  0  0  0  0
   -4.5633   16.9318  -33.9647 H   0  0  0  0  0  0  0  0  0  0  0  0
   -7.7239   17.1593  -32.2298 H   0  0  0  0  0  0  0  0  0  0  0  0
   -9.9449   18.1271  -31.6980 H   0  0  0  0  0  0  0  0  0  0  0  0
  -10.2893   20.5863  -31.7898 H   0  0  0  0  0  0  0  0  0  0  0  0
   -8.3887   22.0951  -32.3001 H   0  0  0  0  0  0  0  0  0  0  0  0
  1  2  1  0
  2  3  1  0
  3  4  1  0
  4  5  1  0
  3  6  1  0
  6  7  1  0
  7  8  1  0
  8  9  2  0
  9 10  1  0
 10 11  2  0
 11 12  1  0
 12 13  2  0
 13 14  1  0
 14 15  2  0
 15 16  1  0
 15 17  1  0
 17 18  2  0
 18 19  1  0
 19 20  2  0
 20 21  1  0
 21 22  2  0
 22  8  1  0
 14  9  1  0
 22 17  1  0
  1 23  1  0
  1 24  1  0
  1 25  1  0
  2 26  1  0
  2 27  1  0
  4 28  1  0
  4 29  1  0
  5 30  1  0
  5 31  1  0
  5 32  1  0
  6 33  1  0
  6 34  1  0
  7 35  1  0
  7 36  1  0
 10 37  1  0
 11 38  1  0
 12 39  1  0
 13 40  1  0
 16 41  1  0
 16 42  1  0
 16 43  1  0
 18 44  1  0
 19 45  1  0
 20 46  1  0
 21 47  1  0
M  CHG  2   7   1  15   1
M  END
>  <UniqueID>  (20) 
20

>  <SMILES>  (20) 
CCN(CC)C[NH2+]c1c2ccccc2[n+](C)c2ccccc12

>  <Energy>  (20) 
76.71012510093335

>  <Genealogy>  (20) 
CCN(CC)C[NH2+]c1c2ccccc2[n+](C)c2ccccc12 (protonated)
CCN(CC)C[NH2+]c1c2ccccc2[n+](C)c2ccccc12 (3D coordinates assigned)
CCN(CC)C[NH2+]c1c2ccccc2[n+](C)c2ccccc12 (optimized conformer: 76.71012510093335 kcal/mol)

>  <smiles>  (20) 
CCN(CC)CNc1c2ccccc2[n+](C)c2ccccc12

>  <score_type>  (20) 
oracle

>  <origin>  (20) 
adg

>  <m_score__min__energy>  (20) 
-7.71

>  <m_primary>  (20) 
energy

$$$$
20:0
     RDKit          3D

 52 54  0  0  0  0  0  0  0  0999 V2000
   -6.0990   25.3320  -29.5520 C   0  0  0  0  0  0  0  0  0  0  0  0
   -5.3810   25.2100  -30.8890 C   0  0  0  0  0  0  0  0  0  0  0  0
   -3.9280   25.2100  -30.6760 N   0  0  0  0  0  0  0  0  0  0  0  0
   -3.4470   23.9420  -30.1040 C   0  0  0  0  0  0  0  0  0  0  0  0
   -4.1590   22.7170  -30.7050 C   0  0  0  0  0  0  0  0  0  0  0  0
   -3.5230   22.3090  -32.0350 C   0  0  0  0  0  0  0  0  0  0  0  0
   -4.5570   22.1170  -33.0510 N   0  0  0  0  0  0  0  0  0  0  0  0
   -5.5980   21.1420  -32.8700 C   0  0  0  0  0  0  0  0  0  0  0  0
   -6.8810   21.5480  -32.4630 C   0  0  0  0  0  0  0  0  0  0  0  0
   -7.1960   22.9170  -32.3270 C   0  0  0  0  0  0  0  0  0  0  0  0
   -8.4790   23.3200  -31.9670 C   0  0  0  0  0  0  0  0  0  0  0  0
   -9.4730   22.3720  -31.7580 C   0  0  0  0  0  0  0  0  0  0  0  0
   -9.1860   21.0130  -31.8910 C   0  0  0  0  0  0  0  0  0  0  0  0
   -7.8800   20.5690  -32.2210 C   0  0  0  0  0  0  0  0  0  0  0  0
   -7.5740   19.2260  -32.3310 N   0  0  0  0  0  0  0  0  0  0  0  0
   -8.5110   18.2100  -31.8000 C   0  0  0  0  0  0  0  0  0  0  0  0
   -6.3830   18.8320  -32.9140 C   0  0  0  0  0  0  0  0  0  0  0  0
   -6.1540   17.4900  -33.3030 C   0  0  0  0  0  0  0  0  0  0  0  0
   -4.9220   17.0760  -33.8310 C   0  0  0  0  0  0  0  0  0  0  0  0
   -4.7320   15.6320  -34.2190 C   0  0  0  0  0  0  0  0  0  0  0  0
   -3.8800   18.0130  -33.9770 C   0  0  0  0  0  0  0  0  0  0  0  0
   -2.5350   17.6090  -34.5230 C   0  0  0  0  0  0  0  0  0  0  0  0
   -4.1150   19.3560  -33.6570 C   0  0  0  0  0  0  0  0  0  0  0  0
   -5.3600   19.7830  -33.1510 C   0  0  0  0  0  0  0  0  0  0  0  0
   -5.3740   25.2088  -28.7339 H   0  0  0  0  0  0  0  0  0  0  0  0
   -6.5704   26.3231  -29.4781 H   0  0  0  0  0  0  0  0  0  0  0  0
   -6.8713   24.5522  -29.4781 H   0  0  0  0  0  0  0  0  0  0  0  0
   -5.6782   24.2708  -31.3786 H   0  0  0  0  0  0  0  0  0  0  0  0
   -5.6542   26.0635  -31.5268 H   0  0  0  0  0  0  0  0  0  0  0  0
   -3.4470   25.3810  -31.5910 H   0  0  0  0  0  0  0  0  0  0  0  0
   -2.3680   23.8538  -30.2990 H   0  0  0  0  0  0  0  0  0  0  0  0
   -3.6629   23.9585  -29.0255 H   0  0  0  0  0  0  0  0  0  0  0  0
   -4.0860   21.8766  -29.9990 H   0  0  0  0  0  0  0  0  0  0  0  0
   -5.2119   22.9786  -30.8865 H   0  0  0  0  0  0  0  0  0  0  0  0
   -2.8318   23.0986  -32.3647 H   0  0  0  0  0  0  0  0  0  0  0  0
   -2.9758   21.3648  -31.8967 H   0  0  0  0  0  0  0  0  0  0  0  0
   -4.3860   22.5000  -34.0080 H   0  0  0  0  0  0  0  0  0  0  0  0
   -6.4188   23.6743  -32.5075 H   0  0  0  0  0  0  0  0  0  0  0  0
   -8.7060   24.3897  -31.8479 H   0  0  0  0  0  0  0  0  0  0  0  0
  -10.4893   22.6938  -31.4869 H   0  0  0  0  0  0  0  0  0  0  0  0
   -9.9859   20.2737  -31.7374 H   0  0  0  0  0  0  0  0  0  0  0  0
   -8.4909   18.2318  -30.7004 H   0  0  0  0  0  0  0  0  0  0  0  0
   -9.5294   18.4306  -32.1525 H   0  0  0  0  0  0  0  0  0  0  0  0
   -8.2089   17.2128  -32.1525 H   0  0  0  0  0  0  0  0  0  0  0  0
   -6.9627   16.7533  -33.1883 H   0  0  0  0  0  0  0  0  0  0  0  0
   -4.6510   15.0160  -33.3112 H   0  0  0  0  0  0  0  0  0  0  0  0
   -5.5937   15.2959  -34.8145 H   0  0  0  0  0  0  0  0  0  0  0  0
   -3.8127   15.5302  -34.8145 H   0  0  0  0  0  0  0  0  0  0  0  0
   -1.8478   17.4026  -33.6893 H   0  0  0  0  0  0  0  0  0  0  0  0
   -2.6460   16.7046  -35.1392 H   0  0  0  0  0  0  0  0  0  0  0  0
   -2.1293   18.4249  -35.1392 H   0  0  0  0  0  0  0  0  0  0  0  0
   -3.3117   20.0931  -33.8034 H   0  0  0  0  0  0  0  0  0  0  0  0
  1  2  1  0
  2  3  1  0
  3  4  1  0
  4  5  1  0
  5  6  1  0
  6  7  1  0
  7  8  1  0
  8  9  2  0
  9 10  1  0
 10 11  2  0
 11 12  1  0
 12 13  2  0
 13 14  1  0
 14 15  2  0
 15 16  1  0
 15 17  1  0
 17 18  2  0
 18 19  1  0
 19 20  1  0
 19 21  2  0
 21 22  1  0
 21 23  1  0
 23 24  2  0
 24  8  1  0
 14  9  1  0
 24 17  1  0
  1 25  1  0
  1 26  1  0
  1 27  1  0
  2 28  1  0
  2 29  1  0
  3 30  1  0
  4 31  1  0
  4 32  1  0
  5 33  1  0
  5 34  1  0
  6 35  1  0
  6 36  1  0
  7 37  1  0
 10 38  1  0
 11 39  1  0
 12 40  1  0
 13 41  1  0
 16 42  1  0
 16 43  1  0
 16 44  1  0
 18 45  1  0
 20 46  1  0
 20 47  1  0
 20 48  1  0
 22 49  1  0
 22 50  1  0
 22 51  1  0
 23 52  1  0
M  CHG  1  15   1
M  END
>  <UniqueID>  (21) 
21

>  <SMILES>  (21) 
CCNCCCNc1c2ccccc2[n+](C)c2cc(C)c(C)cc12

>  <Energy>  (21) 
72.6637847335236

>  <Genealogy>  (21) 
CCNCCCNc1c2ccccc2[n+](C)c2cc(C)c(C)cc12 (3D coordinates assigned)
CCNCCCNc1c2ccccc2[n+](C)c2cc(C)c(C)cc12 (optimized conformer: 72.6637847335236 kcal/mol)

>  <smiles>  (21) 
CCNCCCNc1c2ccccc2[n+](C)c2cc(C)c(C)cc12

>  <score_type>  (21) 
oracle

>  <origin>  (21) 
adg

>  <m_score__min__energy>  (21) 
-9.7599999999999998

>  <m_primary>  (21) 
energy

$$$$
21:0
     RDKit          3D

 61 64  0  0  0  0  0  0  0  0999 V2000
   -1.7340   22.7910  -27.8370 C   0  0  0  0  0  0  0  0  0  0  0  0
   -3.1300   23.3660  -27.5730 C   0  0  0  0  0  0  0  0  0  0  0  0
   -3.5190   24.3750  -28.5750 N   0  0  0  0  0  0  0  0  0  0  0  0
   -4.9780   24.4800  -28.7430 C   0  0  0  0  0  0  0  0  0  0  0  0
   -5.3440   24.8110  -30.1970 C   0  0  0  0  0  0  0  0  0  0  0  0
   -5.4990   23.5440  -31.0560 C   0  0  0  0  0  0  0  0  0  0  0  0
   -4.8190   22.3700  -30.4720 N   0  0  0  0  0  0  0  0  0  0  0  0
   -4.2140   21.4950  -31.4640 C   0  0  0  0  0  0  0  0  0  0  0  0
   -4.9710   20.5710  -32.2430 C   0  0  0  0  0  0  0  0  0  0  0  0
   -4.2930   19.6120  -33.0710 C   0  0  0  0  0  0  0  0  0  0  0  0
   -2.9150   19.6540  -33.2090 N   0  0  0  0  0  0  0  0  0  0  0  0
   -2.2270   18.8520  -34.2340 C   0  0  0  0  0  0  0  0  0  0  0  0
   -2.2100   20.4710  -32.3650 C   0  0  0  0  0  0  0  0  0  0  0  0
   -0.8460   20.5510  -32.0790 C   0  0  0  0  0  0  0  0  0  0  0  0
    0.3020   19.7300  -32.5810 C   0  0  0  0  0  0  0  0  0  0  0  0
   -0.7430   21.5120  -31.0840 C   0  0  0  0  0  0  0  0  0  0  0  0
   -1.9380   21.9660  -30.7680 O   0  0  0  0  0  0  0  0  0  0  0  0
   -2.8250   21.3520  -31.5160 C   0  0  0  0  0  0  0  0  0  0  0  0
   -5.1190   18.4670  -33.6550 C   0  0  0  0  0  0  0  0  0  0  0  0
   -5.5910   17.4800  -32.5630 C   0  0  0  0  0  0  0  0  0  0  0  0
   -6.1590   18.1450  -31.2900 C   0  0  0  0  0  0  0  0  0  0  0  0
   -7.0260   19.3370  -31.6270 C   0  0  0  0  0  0  0  0  0  0  0  0
   -6.4550   20.4760  -32.0930 C   0  0  0  0  0  0  0  0  0  0  0  0
   -7.3150   21.5450  -32.7230 C   0  0  0  0  0  0  0  0  0  0  0  0
   -8.6510   21.6800  -31.9890 C   0  0  0  0  0  0  0  0  0  0  0  0
   -9.3960   20.3430  -32.0040 C   0  0  0  0  0  0  0  0  0  0  0  0
   -8.5080   19.2220  -31.5460 C   0  0  0  0  0  0  0  0  0  0  0  0
   -9.0400   18.1530  -31.1390 O   0  0  0  0  0  0  0  0  0  0  0  0
   -1.2349   22.5854  -26.8786 H   0  0  0  0  0  0  0  0  0  0  0  0
   -1.8247   21.8570  -28.4110 H   0  0  0  0  0  0  0  0  0  0  0  0
   -1.1406   23.5179  -28.4110 H   0  0  0  0  0  0  0  0  0  0  0  0
   -3.8610   22.5444  -27.5963 H   0  0  0  0  0  0  0  0  0  0  0  0
   -3.1102   23.8589  -26.5898 H   0  0  0  0  0  0  0  0  0  0  0  0
   -3.1360   25.3100  -28.2990 H   0  0  0  0  0  0  0  0  0  0  0  0
   -5.4416   23.5220  -28.4649 H   0  0  0  0  0  0  0  0  0  0  0  0
   -5.3470   25.2899  -28.0965 H   0  0  0  0  0  0  0  0  0  0  0  0
   -6.2944   25.3648  -30.2066 H   0  0  0  0  0  0  0  0  0  0  0  0
   -4.5280   25.4127  -30.6238 H   0  0  0  0  0  0  0  0  0  0  0  0
   -6.5705   23.3159  -31.1558 H   0  0  0  0  0  0  0  0  0  0  0  0
   -5.0322   23.7459  -32.0314 H   0  0  0  0  0  0  0  0  0  0  0  0
   -5.4970   21.8650  -29.8590 H   0  0  0  0  0  0  0  0  0  0  0  0
   -4.0550   22.7130  -29.8450 H   0  0  0  0  0  0  0  0  0  0  0  0
   -1.5855   18.1042  -33.7449 H   0  0  0  0  0  0  0  0  0  0  0  0
   -2.9724   18.3415  -34.8615 H   0  0  0  0  0  0  0  0  0  0  0  0
   -1.6090   19.5111  -34.8615 H   0  0  0  0  0  0  0  0  0  0  0  0
    0.8657   19.3269  -31.7268 H   0  0  0  0  0  0  0  0  0  0  0  0
   -0.0808   18.8996  -33.1924 H   0  0  0  0  0  0  0  0  0  0  0  0
    0.9641   20.3607  -33.1924 H   0  0  0  0  0  0  0  0  0  0  0  0
    0.1995   21.8461  -30.6257 H   0  0  0  0  0  0  0  0  0  0  0  0
   -6.0014   18.8869  -34.1600 H   0  0  0  0  0  0  0  0  0  0  0  0
   -4.4827   17.9141  -34.3616 H   0  0  0  0  0  0  0  0  0  0  0  0
   -6.3759   16.8418  -32.9949 H   0  0  0  0  0  0  0  0  0  0  0  0
   -4.6995   16.9183  -32.2472 H   0  0  0  0  0  0  0  0  0  0  0  0
   -6.7629   17.4077  -30.7407 H   0  0  0  0  0  0  0  0  0  0  0  0
   -5.3149   18.4945  -30.6773 H   0  0  0  0  0  0  0  0  0  0  0  0
   -6.7824   22.5065  -32.6797 H   0  0  0  0  0  0  0  0  0  0  0  0
   -7.5165   21.2616  -33.7666 H   0  0  0  0  0  0  0  0  0  0  0  0
   -8.4653   21.9815  -30.9476 H   0  0  0  0  0  0  0  0  0  0  0  0
   -9.2647   22.4401  -32.4945 H   0  0  0  0  0  0  0  0  0  0  0  0
  -10.2654   20.4091  -31.3334 H   0  0  0  0  0  0  0  0  0  0  0  0
   -9.7169   20.1344  -33.0353 H   0  0  0  0  0  0  0  0  0  0  0  0
  1  2  1  0
  2  3  1  0
  3  4  1  0
  4  5  1  0
  5  6  1  0
  6  7  1  0
  7  8  1  0
  8  9  2  0
  9 10  1  0
 10 11  2  0
 11 12  1  0
 11 13  1  0
 13 14  1  0
 14 15  1  0
 14 16  2  0
 16 17  1  0
 17 18  1  0
 10 19  1  0
 19 20  1  0
 20 21  1  0
 21 22  1  0
 22 23  2  0
 23 24  1  0
 24 25  1  0
 25 26  1  0
 26 27  1  0
 27 28  2  0
 18  8  1  0
 27 22  1  0
 23  9  1  0
 18 13  2  0
  1 29  1  0
  1 30  1  0
  1 31  1  0
  2 32  1  0
  2 33  1  0
  3 34  1  0
  4 35  1  0
  4 36  1  0
  5 37  1  0
  5 38  1  0
  6 39  1  0
  6 40  1  0
  7 41  1  0
  7 42  1  0
 12 43  1  0
 12 44  1  0
 12 45  1  0
 15 46  1  0
 15 47  1  0
 15 48  1  0
 16 49  1  0
 19 50  1  0
 19 51  1  0
 20 52  1  0
 20 53  1  0
 21 54  1  0
 21 55  1  0
 24 56  1  0
 24 57  1  0
 25 58  1  0
 25 59  1  0
 26 60  1  0
 26 61  1  0
M  CHG  2   7   1  11   1
M  END
>  <UniqueID>  (22) 
22

>  <SMILES>  (22) 
CCNCCC[NH2+]c1c2c([n+](C)c3c(C)coc13)CCCC1=C2CCCC1=O

>  <Energy>  (22) 
120.93514539057009

>  <Genealogy>  (22) 
CCNCCC[NH2+]c1c2c([n+](C)c3c(C)coc13)CCCC1=C2CCCC1=O (protonated)
CCNCCC[NH2+]c1c2c([n+](C)c3c(C)coc13)CCCC1=C2CCCC1=O (3D coordinates assigned)
CCNCCC[NH2+]c1c2c([n+](C)c3c(C)coc13)CCCC1=C2CCCC1=O (nonaromatic ring conformer: 120.93514539057009 kcal/mol)

>  <smiles>  (22) 
CCNCCCNc1c2c([n+](C)c3c(C)coc13)CCCC1=C2CCCC1=O

>  <score_type>  (22) 
oracle

>  <origin>  (22) 
adg

>  <m_score__min__energy>  (22) 
-7.2999999999999998

>  <m_primary>  (22) 
energy

$$$$
22:0
     RDKit          3D

 48 49  0  0  0  0  0  0  0  0999 V2000
   -2.9365   23.6695  -29.0604 H   0  0  0  0  0  0  0  0  0  0  0  0
   -3.3720   23.3760  -30.0270 C   0  0  0  0  0  0  0  0  0  0  0  0
   -3.8070   24.2850  -30.8470 N   0  0  0  0  0  0  0  0  0  0  0  0
   -4.4980   25.4250  -30.4670 O   0  0  0  0  0  0  0  0  0  0  0  0
   -5.7130   25.4010  -29.7190 C   0  0  0  0  0  0  0  0  0  0  0  0
   -6.0997   26.4255  -29.6148 H   0  0  0  0  0  0  0  0  0  0  0  0
   -5.5213   24.9782  -28.7217 H   0  0  0  0  0  0  0  0  0  0  0  0
   -6.7460   24.5370  -30.4500 C   0  0  0  0  0  0  0  0  0  0  0  0
   -7.5819   25.1767  -30.7695 H   0  0  0  0  0  0  0  0  0  0  0  0
   -7.0867   23.7545  -29.7561 H   0  0  0  0  0  0  0  0  0  0  0  0
   -6.1700   23.8730  -31.6410 N   0  0  0  0  0  0  0  0  0  0  0  0
   -5.5590   24.5640  -32.1370 H   0  0  0  0  0  0  0  0  0  0  0  0
   -5.5560   23.0660  -31.3780 H   0  0  0  0  0  0  0  0  0  0  0  0
   -7.1890   23.4250  -32.6090 C   0  0  0  0  0  0  0  0  0  0  0  0
   -6.8843   22.4499  -33.0167 H   0  0  0  0  0  0  0  0  0  0  0  0
   -7.2598   24.1878  -33.3984 H   0  0  0  0  0  0  0  0  0  0  0  0
   -8.5740   23.2810  -31.9740 C   0  0  0  0  0  0  0  0  0  0  0  0
   -8.4778   23.2910  -30.8783 H   0  0  0  0  0  0  0  0  0  0  0  0
   -9.2127   24.1176  -32.2937 H   0  0  0  0  0  0  0  0  0  0  0  0
   -9.0269   22.3309  -32.2937 H   0  0  0  0  0  0  0  0  0  0  0  0
   -3.4640   21.9280  -30.3990 C   0  0  0  0  0  0  0  0  0  0  0  0
   -2.8960   21.3338  -29.6680 H   0  0  0  0  0  0  0  0  0  0  0  0
   -4.5248   21.6370  -30.3985 H   0  0  0  0  0  0  0  0  0  0  0  0
   -2.9140   21.6820  -31.7510 N   0  0  0  0  0  0  0  0  0  0  0  0
   -3.8160   22.1910  -32.8190 C   0  0  0  0  0  0  0  0  0  0  0  0
   -4.4980   22.9296  -32.3726 H   0  0  0  0  0  0  0  0  0  0  0  0
   -3.1725   22.6249  -33.5985 H   0  0  0  0  0  0  0  0  0  0  0  0
   -4.6640   21.0970  -33.4990 C   0  0  0  0  0  0  0  0  0  0  0  0
   -5.6319   21.5242  -33.8001 H   0  0  0  0  0  0  0  0  0  0  0  0
   -4.1229   20.7245  -34.3813 H   0  0  0  0  0  0  0  0  0  0  0  0
   -4.8950   19.9810  -32.5790 N   0  0  0  0  0  0  0  0  0  0  0  0
   -6.2270   19.5190  -32.2800 C   0  0  0  0  0  0  0  0  0  0  0  0
   -6.6210   18.2120  -32.6160 C   0  0  0  0  0  0  0  0  0  0  0  0
   -5.9119   17.5402  -33.1218 H   0  0  0  0  0  0  0  0  0  0  0  0
   -7.9090   17.7610  -32.3110 C   0  0  0  0  0  0  0  0  0  0  0  0
   -8.2113   16.7387  -32.5821 H   0  0  0  0  0  0  0  0  0  0  0  0
   -8.8120   18.6060  -31.6630 C   0  0  0  0  0  0  0  0  0  0  0  0
   -9.8260   18.2507  -31.4271 H   0  0  0  0  0  0  0  0  0  0  0  0
   -8.4270   19.9040  -31.3140 C   0  0  0  0  0  0  0  0  0  0  0  0
   -9.1372   20.5680  -30.7995 H   0  0  0  0  0  0  0  0  0  0  0  0
   -7.1410   20.3590  -31.6180 C   0  0  0  0  0  0  0  0  0  0  0  0
   -6.8417   21.3798  -31.3380 H   0  0  0  0  0  0  0  0  0  0  0  0
   -3.7320   19.3270  -31.9710 C   0  0  0  0  0  0  0  0  0  0  0  0
   -3.9733   19.0515  -30.9338 H   0  0  0  0  0  0  0  0  0  0  0  0
   -3.4844   18.4285  -32.5553 H   0  0  0  0  0  0  0  0  0  0  0  0
   -2.5180   20.2710  -31.9740 C   0  0  0  0  0  0  0  0  0  0  0  0
   -1.8275   19.9648  -31.1743 H   0  0  0  0  0  0  0  0  0  0  0  0
   -2.0367   20.2040  -32.9609 H   0  0  0  0  0  0  0  0  0  0  0  0
  1  2  1  0
  2  3  2  0
  3  4  1  0
  4  5  1  0
  5  6  1  0
  5  7  1  0
  5  8  1  0
  8  9  1  0
  8 10  1  0
  8 11  1  0
 11 12  1  0
 11 13  1  0
 11 14  1  0
 14 15  1  0
 14 16  1  0
 14 17  1  0
 17 18  1  0
 17 19  1  0
 17 20  1  0
  2 21  1  0
 21 22  1  0
 21 23  1  0
 21 24  1  0
 24 25  1  0
 25 26  1  0
 25 27  1  0
 25 28  1  0
 28 29  1  0
 28 30  1  0
 28 31  1  0
 31 32  1  0
 32 33  2  0
 33 34  1  0
 33 35  1  0
 35 36  1  0
 35 37  2  0
 37 38  1  0
 37 39  1  0
 39 40  1  0
 39 41  2  0
 41 42  1  0
 31 43  1  0
 43 44  1  0
 43 45  1  0
 43 46  1  0
 46 47  1  0
 46 48  1  0
 46 24  1  0
 41 32  1  0
M  CHG  1  11   1
M  END
>  <UniqueID>  (23) 
23

>  <SMILES>  (23) 
CC[NH2+]CCO/N=C/CN1CCN(c2ccccc2)CC1

>  <Energy>  (23) 
56.34267031280032

>  <Genealogy>  (23) 
CC[NH2+]CCON=CCN1CCN(c2ccccc2)CC1 (protonated)
CC[NH2+]CCO/N=C/CN1CCN(c2ccccc2)CC1 (cis-trans isomerization)
CC[NH2+]CCO/N=C/CN1CCN(c2ccccc2)CC1 (3D coordinates assigned)
CC[NH2+]CCO/N=C/CN1CCN(c2ccccc2)CC1 (nonaromatic ring conformer: 56.34267031280032 kcal/mol)

>  <smiles>  (23) 
CCNCCON=CCN1CCN(c2ccccc2)CC1

>  <score_type>  (23) 
oracle

>  <origin>  (23) 
adg

>  <m_score__min__energy>  (23) 
-6.5499999999999998

>  <m_primary>  (23) 
energy

$$$$
23:0
     RDKit          3D

 46 49  0  0  0  0  0  0  0  0999 V2000
   -1.6330   19.8240  -30.8550 C   0  0  0  0  0  0  0  0  0  0  0  0
   -2.4290   21.0520  -30.8700 N   0  0  0  0  0  0  0  0  0  0  0  0
   -3.1170   21.5650  -31.9170 C   0  0  0  0  0  0  0  0  0  0  0  0
   -3.1420   20.9740  -33.2990 C   0  0  0  0  0  0  0  0  0  0  0  0
   -4.4700   20.9690  -33.8210 O   0  0  0  0  0  0  0  0  0  0  0  0
   -5.4870   20.0690  -33.4510 C   0  0  0  0  0  0  0  0  0  0  0  0
   -5.4260   18.7020  -33.7870 C   0  0  0  0  0  0  0  0  0  0  0  0
   -6.4460   17.8290  -33.4040 C   0  0  0  0  0  0  0  0  0  0  0  0
   -7.5430   18.3000  -32.6830 C   0  0  0  0  0  0  0  0  0  0  0  0
   -7.6290   19.6540  -32.3380 C   0  0  0  0  0  0  0  0  0  0  0  0
   -8.7340   20.1310  -31.6120 C   0  0  0  0  0  0  0  0  0  0  0  0
   -8.8180   21.4810  -31.2670 C   0  0  0  0  0  0  0  0  0  0  0  0
   -7.8040   22.3660  -31.6410 C   0  0  0  0  0  0  0  0  0  0  0  0
   -6.7000   21.9060  -32.3640 C   0  0  0  0  0  0  0  0  0  0  0  0
   -6.5970   20.5490  -32.7220 C   0  0  0  0  0  0  0  0  0  0  0  0
   -3.7240   22.7360  -31.6210 N   0  0  0  0  0  0  0  0  0  0  0  0
   -3.4220   22.9530  -30.3260 C   0  0  0  0  0  0  0  0  0  0  0  0
   -3.8210   24.1910  -29.5860 C   0  0  0  0  0  0  0  0  0  0  0  0
   -3.8310   25.2790  -30.4670 O   0  0  0  0  0  0  0  0  0  0  0  0
   -2.6150   21.9290  -29.8610 C   0  0  0  0  0  0  0  0  0  0  0  0
   -1.9890   21.8470  -28.5270 C   0  0  0  0  0  0  0  0  0  0  0  0
   -2.2180   20.7340  -27.7030 C   0  0  0  0  0  0  0  0  0  0  0  0
   -1.6320   20.6660  -26.4350 C   0  0  0  0  0  0  0  0  0  0  0  0
   -0.8150   21.7060  -25.9820 C   0  0  0  0  0  0  0  0  0  0  0  0
   -0.5850   22.8170  -26.7970 C   0  0  0  0  0  0  0  0  0  0  0  0
   -1.1690   22.8890  -28.0660 C   0  0  0  0  0  0  0  0  0  0  0  0
   -1.4394   19.5253  -29.8142 H   0  0  0  0  0  0  0  0  0  0  0  0
   -2.1843   19.0233  -31.3698 H   0  0  0  0  0  0  0  0  0  0  0  0
   -0.6770   20.0004  -31.3698 H   0  0  0  0  0  0  0  0  0  0  0  0
   -2.4966   21.5720  -33.9593 H   0  0  0  0  0  0  0  0  0  0  0  0
   -2.7783   19.9372  -33.2471 H   0  0  0  0  0  0  0  0  0  0  0  0
   -4.5664   18.3189  -34.3566 H   0  0  0  0  0  0  0  0  0  0  0  0
   -6.3841   16.7640  -33.6723 H   0  0  0  0  0  0  0  0  0  0  0  0
   -8.3425   17.6059  -32.3847 H   0  0  0  0  0  0  0  0  0  0  0  0
   -9.5351   19.4383  -31.3148 H   0  0  0  0  0  0  0  0  0  0  0  0
   -9.6852   21.8490  -30.6990 H   0  0  0  0  0  0  0  0  0  0  0  0
   -7.8747   23.4286  -31.3655 H   0  0  0  0  0  0  0  0  0  0  0  0
   -5.9061   22.6095  -32.6552 H   0  0  0  0  0  0  0  0  0  0  0  0
   -4.8259   24.0554  -29.1596 H   0  0  0  0  0  0  0  0  0  0  0  0
   -3.1015   24.3818  -28.7762 H   0  0  0  0  0  0  0  0  0  0  0  0
   -3.4990   24.9320  -31.3360 H   0  0  0  0  0  0  0  0  0  0  0  0
   -2.8600   19.9132  -28.0555 H   0  0  0  0  0  0  0  0  0  0  0  0
   -1.8144   19.7920  -25.7925 H   0  0  0  0  0  0  0  0  0  0  0  0
   -0.3538   21.6496  -24.9850 H   0  0  0  0  0  0  0  0  0  0  0  0
    0.0563   23.6364  -26.4403 H   0  0  0  0  0  0  0  0  0  0  0  0
   -0.9851   23.7653  -28.7050 H   0  0  0  0  0  0  0  0  0  0  0  0
  1  2  1  0
  2  3  1  0
  3  4  1  0
  4  5  1  0
  5  6  1  0
  6  7  2  0
  7  8  1  0
  8  9  2  0
  9 10  1  0
 10 11  2  0
 11 12  1  0
 12 13  2  0
 13 14  1  0
 14 15  2  0
  3 16  2  0
 16 17  1  0
 17 18  1  0
 18 19  1  0
 17 20  2  0
 20 21  1  0
 21 22  2  0
 22 23  1  0
 23 24  2  0
 24 25  1  0
 25 26  2  0
 20  2  1  0
 26 21  1  0
 15  6  1  0
 15 10  1  0
  1 27  1  0
  1 28  1  0
  1 29  1  0
  4 30  1  0
  4 31  1  0
  7 32  1  0
  8 33  1  0
  9 34  1  0
 11 35  1  0
 12 36  1  0
 13 37  1  0
 14 38  1  0
 18 39  1  0
 18 40  1  0
 19 41  1  0
 22 42  1  0
 23 43  1  0
 24 44  1  0
 25 45  1  0
 26 46  1  0
M  END
>  <UniqueID>  (24) 
24

>  <SMILES>  (24) 
Cn1c(COc2cccc3ccccc23)nc(CO)c1-c1ccccc1

>  <Energy>  (24) 
87.97474167204757

>  <Genealogy>  (24) 
Cn1c(COc2cccc3ccccc23)nc(CO)c1-c1ccccc1 (3D coordinates assigned)
Cn1c(COc2cccc3ccccc23)nc(CO)c1-c1ccccc1 (optimized conformer: 87.97474167204757 kcal/mol)

>  <smiles>  (24) 
Cn1c(COc2cccc3ccccc23)nc(CO)c1-c1ccccc1

>  <score_type>  (24) 
oracle

>  <origin>  (24) 
adg

>  <m_score__min__energy>  (24) 
-9.5800000000000001

>  <m_primary>  (24) 
energy

$$$$
24:0
     RDKit          3D

 77 81  0  0  0  0  0  0  0  0999 V2000
   -0.4720   19.4810  -34.9620 C   0  0  0  0  0  0  0  0  0  0  0  0
   -0.1140   20.7070  -34.2300 N   0  0  0  0  0  0  0  0  0  0  0  0
    0.3090   21.7910  -35.1330 C   0  0  0  0  0  0  0  0  0  0  0  0
    0.7690   20.4910  -33.0600 C   0  0  0  0  0  0  0  0  0  0  0  0
    0.1890   19.6250  -31.9160 C   0  0  0  0  0  0  0  0  0  0  0  0
   -1.2480   20.0020  -31.5130 C   0  0  0  0  0  0  0  0  0  0  0  0
   -1.7900   21.1100  -32.3280 N   0  0  0  0  0  0  0  0  0  0  0  0
   -2.9410   21.7560  -31.7060 C   0  0  0  0  0  0  0  0  0  0  0  0
   -2.7780   22.7230  -30.6700 C   0  0  0  0  0  0  0  0  0  0  0  0
   -1.5150   23.0290  -30.1000 C   0  0  0  0  0  0  0  0  0  0  0  0
   -1.3850   23.9550  -29.0650 C   0  0  0  0  0  0  0  0  0  0  0  0
   -0.1160   24.1720  -28.5170 O   0  0  0  0  0  0  0  0  0  0  0  0
    0.2870   23.7260  -27.2230 C   0  0  0  0  0  0  0  0  0  0  0  0
    0.8280   24.9100  -26.3840 C   0  0  0  0  0  0  0  0  0  0  0  0
    0.2390   25.0570  -25.0110 N   0  0  0  0  0  0  0  0  0  0  0  0
   -0.1190   23.7160  -24.4670 C   0  0  0  0  0  0  0  0  0  0  0  0
   -0.9790   25.9270  -25.0510 C   0  0  0  0  0  0  0  0  0  0  0  0
   -1.1970   26.6710  -23.7190 C   0  0  0  0  0  0  0  0  0  0  0  0
   -0.1240   27.5370  -23.3610 O   0  0  0  0  0  0  0  0  0  0  0  0
    1.1170   27.1770  -23.9500 C   0  0  0  0  0  0  0  0  0  0  0  0
    1.2850   25.6530  -24.1090 C   0  0  0  0  0  0  0  0  0  0  0  0
   -2.5110   24.6480  -28.6170 C   0  0  0  0  0  0  0  0  0  0  0  0
   -3.7550   24.3970  -29.1810 C   0  0  0  0  0  0  0  0  0  0  0  0
   -3.9170   23.4330  -30.2050 C   0  0  0  0  0  0  0  0  0  0  0  0
   -5.1560   23.1950  -30.7520 N   0  0  0  0  0  0  0  0  0  0  0  0
   -6.1530   24.2890  -30.7400 C   0  0  0  0  0  0  0  0  0  0  0  0
   -5.3750   22.0540  -31.4930 C   0  0  0  0  0  0  0  0  0  0  0  0
   -4.2650   21.4090  -32.1040 C   0  0  0  0  0  0  0  0  0  0  0  0
   -4.5100   20.4390  -33.1040 C   0  0  0  0  0  0  0  0  0  0  0  0
   -5.8040   20.0640  -33.4450 C   0  0  0  0  0  0  0  0  0  0  0  0
   -6.8910   20.5530  -32.7250 C   0  0  0  0  0  0  0  0  0  0  0  0
   -8.1770   20.0480  -32.9810 C   0  0  0  0  0  0  0  0  0  0  0  0
   -9.2510   20.4190  -32.1740 C   0  0  0  0  0  0  0  0  0  0  0  0
   -9.0410   21.2650  -31.0870 C   0  0  0  0  0  0  0  0  0  0  0  0
   -7.7710   21.7870  -30.8350 C   0  0  0  0  0  0  0  0  0  0  0  0
   -6.6840   21.5060  -31.6960 C   0  0  0  0  0  0  0  0  0  0  0  0
   -0.7057   18.6806  -34.2445 H   0  0  0  0  0  0  0  0  0  0  0  0
   -1.3510   19.6749  -35.5942 H   0  0  0  0  0  0  0  0  0  0  0  0
    0.3732   19.1714  -35.5942 H   0  0  0  0  0  0  0  0  0  0  0  0
    0.6454   22.6532  -34.5385 H   0  0  0  0  0  0  0  0  0  0  0  0
    1.1354   21.4382  -35.7675 H   0  0  0  0  0  0  0  0  0  0  0  0
   -0.5380   22.0912  -35.7675 H   0  0  0  0  0  0  0  0  0  0  0  0
    1.6871   20.0024  -33.4183 H   0  0  0  0  0  0  0  0  0  0  0  0
    0.9272   21.4880  -32.6229 H   0  0  0  0  0  0  0  0  0  0  0  0
    0.1927   18.5743  -32.2414 H   0  0  0  0  0  0  0  0  0  0  0  0
    0.8228   19.7970  -31.0336 H   0  0  0  0  0  0  0  0  0  0  0  0
   -1.8935   19.1206  -31.6413 H   0  0  0  0  0  0  0  0  0  0  0  0
   -1.2255   20.3364  -30.4653 H   0  0  0  0  0  0  0  0  0  0  0  0
   -2.0680   20.7410  -33.2640 H   0  0  0  0  0  0  0  0  0  0  0  0
   -1.0360   21.7820  -32.5810 H   0  0  0  0  0  0  0  0  0  0  0  0
   -0.6165   22.5236  -30.4838 H   0  0  0  0  0  0  0  0  0  0  0  0
   -0.5778   23.2827  -26.7076 H   0  0  0  0  0  0  0  0  0  0  0  0
    1.0852   22.9779  -27.3377 H   0  0  0  0  0  0  0  0  0  0  0  0
    1.9144   24.7774  -26.2734 H   0  0  0  0  0  0  0  0  0  0  0  0
    0.5435   25.8206  -26.9316 H   0  0  0  0  0  0  0  0  0  0  0  0
   -0.1094   23.7518  -23.3676 H   0  0  0  0  0  0  0  0  0  0  0  0
   -1.1236   23.4350  -24.8160 H   0  0  0  0  0  0  0  0  0  0  0  0
    0.6119   22.9717  -24.8160 H   0  0  0  0  0  0  0  0  0  0  0  0
   -0.8615   26.6668  -25.8566 H   0  0  0  0  0  0  0  0  0  0  0  0
   -1.8527   25.2828  -25.2290 H   0  0  0  0  0  0  0  0  0  0  0  0
   -2.1142   27.2723  -23.8039 H   0  0  0  0  0  0  0  0  0  0  0  0
   -1.2663   25.9053  -22.9323 H   0  0  0  0  0  0  0  0  0  0  0  0
    1.1821   27.6430  -24.9443 H   0  0  0  0  0  0  0  0  0  0  0  0
    1.9152   27.5293  -23.2801 H   0  0  0  0  0  0  0  0  0  0  0  0
    2.2783   25.4487  -24.5351 H   0  0  0  0  0  0  0  0  0  0  0  0
    1.1740   25.1955  -23.1148 H   0  0  0  0  0  0  0  0  0  0  0  0
   -2.4127   25.3947  -27.8153 H   0  0  0  0  0  0  0  0  0  0  0  0
   -4.6316   24.9582  -28.8251 H   0  0  0  0  0  0  0  0  0  0  0  0
   -6.3943   24.5538  -29.7000 H   0  0  0  0  0  0  0  0  0  0  0  0
   -5.7390   25.1681  -31.2556 H   0  0  0  0  0  0  0  0  0  0  0  0
   -7.0666   23.9581  -31.2556 H   0  0  0  0  0  0  0  0  0  0  0  0
   -3.6593   19.9722  -33.6221 H   0  0  0  0  0  0  0  0  0  0  0  0
   -5.9704   19.3773  -34.2881 H   0  0  0  0  0  0  0  0  0  0  0  0
   -8.3367   19.3570  -33.8218 H   0  0  0  0  0  0  0  0  0  0  0  0
  -10.2617   20.0450  -32.3946 H   0  0  0  0  0  0  0  0  0  0  0  0
   -9.8801   21.5229  -30.4241 H   0  0  0  0  0  0  0  0  0  0  0  0
   -7.6130   22.4263  -29.9539 H   0  0  0  0  0  0  0  0  0  0  0  0
  1  2  1  0
  2  3  1  0
  2  4  1  0
  4  5  1  0
  5  6  1  0
  6  7  1  0
  7  8  1  0
  8  9  2  0
  9 10  1  0
 10 11  2  0
 11 12  1  0
 12 13  1  0
 13 14  1  0
 14 15  1  0
 15 16  1  0
 15 17  1  0
 17 18  1  0
 18 19  1  0
 19 20  1  0
 20 21  1  0
 11 22  1  0
 22 23  2  0
 23 24  1  0
 24 25  2  0
 25 26  1  0
 25 27  1  0
 27 28  2  0
 28 29  1  0
 29 30  2  0
 30 31  1  0
 31 32  2  0
 32 33  1  0
 33 34  2  0
 34 35  1  0
 35 36  2  0
 28  8  1  0
 36 31  1  0
 24  9  1  0
 36 27  1  0
 21 15  1  0
  1 37  1  0
  1 38  1  0
  1 39  1  0
  3 40  1  0
  3 41  1  0
  3 42  1  0
  4 43  1  0
  4 44  1  0
  5 45  1  0
  5 46  1  0
  6 47  1  0
  6 48  1  0
  7 49  1  0
  7 50  1  0
 10 51  1  0
 13 52  1  0
 13 53  1  0
 14 54  1  0
 14 55  1  0
 16 56  1  0
 16 57  1  0
 16 58  1  0
 17 59  1  0
 17 60  1  0
 18 61  1  0
 18 62  1  0
 20 63  1  0
 20 64  1  0
 21 65  1  0
 21 66  1  0
 22 67  1  0
 23 68  1  0
 26 69  1  0
 26 70  1  0
 26 71  1  0
 29 72  1  0
 30 73  1  0
 32 74  1  0
 33 75  1  0
 34 76  1  0
 35 77  1  0
M  CHG  3   7   1  15   1  25   1
M  END
>  <UniqueID>  (25) 
25

>  <SMILES>  (25) 
CN(C)CCC[NH2+]c1c2cc(OCC[N+]3(C)CCOCC3)ccc2[n+](C)c2c1ccc1ccccc12

>  <Energy>  (25) 
157.5758728417469

>  <Genealogy>  (25) 
CN(C)CCC[NH2+]c1c2cc(OCC[N+]3(C)CCOCC3)ccc2[n+](C)c2c1ccc1ccccc12 (protonated)
CN(C)CCC[NH2+]c1c2cc(OCC[N+]3(C)CCOCC3)ccc2[n+](C)c2c1ccc1ccccc12 (3D coordinates assigned)
CN(C)CCC[NH2+]c1c2cc(OCC[N+]3(C)CCOCC3)ccc2[n+](C)c2c1ccc1ccccc12 (nonaromatic ring conformer: 157.5758728417469 kcal/mol)

>  <smiles>  (25) 
CN(C)CCCNc1c2cc(OCC[N+]3(C)CCOCC3)ccc2[n+](C)c2c1ccc1ccccc12

>  <score_type>  (25) 
oracle

>  <origin>  (25) 
adg

>  <m_score__min__energy>  (25) 
-7.5700000000000003

>  <m_primary>  (25) 
energy

$$$$
25:0
     RDKit          3D

 55 57  0  0  0  0  0  0  0  0999 V2000
   -4.4910   13.7920  -31.7540 C   0  0  0  0  0  0  0  0  0  0  0  0
   -4.9750   15.2180  -31.9790 C   0  0  0  0  0  0  0  0  0  0  0  0
   -4.0120   15.9570  -32.8100 N   0  0  0  0  0  0  0  0  0  0  0  0
   -4.3950   16.0050  -34.2320 C   0  0  0  0  0  0  0  0  0  0  0  0
   -5.4720   17.0660  -34.5090 C   0  0  0  0  0  0  0  0  0  0  0  0
   -4.8630   18.4780  -34.5880 C   0  0  0  0  0  0  0  0  0  0  0  0
   -3.8740   18.7300  -33.5260 N   0  0  0  0  0  0  0  0  0  0  0  0
   -3.0810   19.9570  -33.7430 C   0  0  0  0  0  0  0  0  0  0  0  0
   -3.2970   20.9880  -32.6120 C   0  0  0  0  0  0  0  0  0  0  0  0
   -4.1370   20.4660  -31.5180 N   0  0  0  0  0  0  0  0  0  0  0  0
   -5.4390   21.1280  -31.4710 C   0  0  0  0  0  0  0  0  0  0  0  0
   -5.5270   22.5010  -31.1000 C   0  0  0  0  0  0  0  0  0  0  0  0
   -4.3870   23.2390  -30.6850 C   0  0  0  0  0  0  0  0  0  0  0  0
   -4.4910   24.5710  -30.2930 C   0  0  0  0  0  0  0  0  0  0  0  0
   -5.7260   25.1980  -30.2800 C   0  0  0  0  0  0  0  0  0  0  0  0
   -6.8620   24.5090  -30.6930 C   0  0  0  0  0  0  0  0  0  0  0  0
   -6.7840   23.1680  -31.1510 C   0  0  0  0  0  0  0  0  0  0  0  0
   -7.8970   22.5150  -31.6330 N   0  0  0  0  0  0  0  0  0  0  0  0
   -9.1060   23.2890  -31.9990 C   0  0  0  0  0  0  0  0  0  0  0  0
   -7.8780   21.1470  -31.8100 C   0  0  0  0  0  0  0  0  0  0  0  0
   -9.0810   20.4240  -32.0110 C   0  0  0  0  0  0  0  0  0  0  0  0
   -9.0700   19.0590  -32.2740 C   0  0  0  0  0  0  0  0  0  0  0  0
   -7.8670   18.3760  -32.3360 C   0  0  0  0  0  0  0  0  0  0  0  0
   -7.8590   17.0490  -32.6160 F   0  0  0  0  0  0  0  0  0  0  0  0
   -6.6690   19.0440  -32.0950 C   0  0  0  0  0  0  0  0  0  0  0  0
   -6.6450   20.4330  -31.7890 C   0  0  0  0  0  0  0  0  0  0  0  0
   -4.4237   13.5937  -30.6741 H   0  0  0  0  0  0  0  0  0  0  0  0
   -5.2003   13.0874  -32.2127 H   0  0  0  0  0  0  0  0  0  0  0  0
   -3.4993   13.6647  -32.2127 H   0  0  0  0  0  0  0  0  0  0  0  0
   -5.9503   15.1946  -32.4871 H   0  0  0  0  0  0  0  0  0  0  0  0
   -5.0700   15.7222  -31.0060 H   0  0  0  0  0  0  0  0  0  0  0  0
   -3.9150   16.9310  -32.4410 H   0  0  0  0  0  0  0  0  0  0  0  0
   -3.5032   16.2411  -34.8311 H   0  0  0  0  0  0  0  0  0  0  0  0
   -4.8113   15.0234  -34.5023 H   0  0  0  0  0  0  0  0  0  0  0  0
   -5.9646   16.8348  -35.4650 H   0  0  0  0  0  0  0  0  0  0  0  0
   -6.1968   17.0475  -33.6817 H   0  0  0  0  0  0  0  0  0  0  0  0
   -4.3689   18.5942  -35.5639 H   0  0  0  0  0  0  0  0  0  0  0  0
   -5.6818   19.2010  -34.4583 H   0  0  0  0  0  0  0  0  0  0  0  0
   -3.2610   17.8890  -33.4040 H   0  0  0  0  0  0  0  0  0  0  0  0
   -2.0147   19.6895  -33.7820 H   0  0  0  0  0  0  0  0  0  0  0  0
   -3.4092   20.4132  -34.6886 H   0  0  0  0  0  0  0  0  0  0  0  0
   -2.3165   21.2684  -32.1996 H   0  0  0  0  0  0  0  0  0  0  0  0
   -3.8184   21.8535  -33.0469 H   0  0  0  0  0  0  0  0  0  0  0  0
   -4.1850   19.4310  -31.5810 H   0  0  0  0  0  0  0  0  0  0  0  0
   -3.6440   20.6000  -30.6070 H   0  0  0  0  0  0  0  0  0  0  0  0
   -3.4024   22.7487  -30.6730 H   0  0  0  0  0  0  0  0  0  0  0  0
   -3.5903   25.1266  -29.9929 H   0  0  0  0  0  0  0  0  0  0  0  0
   -5.8087   26.2418  -29.9428 H   0  0  0  0  0  0  0  0  0  0  0  0
   -7.8392   25.0133  -30.6640 H   0  0  0  0  0  0  0  0  0  0  0  0
   -9.6210   23.6187  -31.0846 H   0  0  0  0  0  0  0  0  0  0  0  0
   -8.8131   24.1679  -32.5921 H   0  0  0  0  0  0  0  0  0  0  0  0
   -9.7816   22.6551  -32.5921 H   0  0  0  0  0  0  0  0  0  0  0  0
  -10.0432   20.9543  -31.9577 H   0  0  0  0  0  0  0  0  0  0  0  0
  -10.0166   18.5216  -32.4328 H   0  0  0  0  0  0  0  0  0  0  0  0
   -5.7221   18.4862  -32.1422 H   0  0  0  0  0  0  0  0  0  0  0  0
  1  2  1  0
  2  3  1  0
  3  4  1  0
  4  5  1  0
  5  6  1  0
  6  7  1  0
  7  8  1  0
  8  9  1  0
  9 10  1  0
 10 11  1  0
 11 12  2  0
 12 13  1  0
 13 14  2  0
 14 15  1  0
 15 16  2  0
 16 17  1  0
 17 18  2  0
 18 19  1  0
 18 20  1  0
 20 21  2  0
 21 22  1  0
 22 23  2  0
 23 24  1  0
 23 25  1  0
 25 26  2  0
 26 11  1  0
 17 12  1  0
 26 20  1  0
  1 27  1  0
  1 28  1  0
  1 29  1  0
  2 30  1  0
  2 31  1  0
  3 32  1  0
  4 33  1  0
  4 34  1  0
  5 35  1  0
  5 36  1  0
  6 37  1  0
  6 38  1  0
  7 39  1  0
  8 40  1  0
  8 41  1  0
  9 42  1  0
  9 43  1  0
 10 44  1  0
 10 45  1  0
 13 46  1  0
 14 47  1  0
 15 48  1  0
 16 49  1  0
 19 50  1  0
 19 51  1  0
 19 52  1  0
 21 53  1  0
 22 54  1  0
 25 55  1  0
M  CHG  2  10   1  18   1
M  END
>  <UniqueID>  (26) 
26

>  <SMILES>  (26) 
CCNCCCNCC[NH2+]c1c2ccccc2[n+](C)c2ccc(F)cc12

>  <Energy>  (26) 
80.9095766635603

>  <Genealogy>  (26) 
CCNCCCNCC[NH2+]c1c2ccccc2[n+](C)c2ccc(F)cc12 (protonated)
CCNCCCNCC[NH2+]c1c2ccccc2[n+](C)c2ccc(F)cc12 (3D coordinates assigned)
CCNCCCNCC[NH2+]c1c2ccccc2[n+](C)c2ccc(F)cc12 (optimized conformer: 80.9095766635603 kcal/mol)

>  <smiles>  (26) 
CCNCCCNCCNc1c2ccccc2[n+](C)c2ccc(F)cc12

>  <score_type>  (26) 
oracle

>  <origin>  (26) 
adg

>  <m_score__min__energy>  (26) 
-8.7899999999999991

>  <m_primary>  (26) 
energy

$$$$
26:0
     RDKit          3D

 42 45  0  0  0  0  0  0  0  0999 V2000
   -5.1730   25.6610  -30.6730 C   0  0  0  0  0  0  0  0  0  0  0  0
   -3.8170   25.2980  -30.4560 O   0  0  0  0  0  0  0  0  0  0  0  0
   -3.3540   24.1920  -29.7210 C   0  0  0  0  0  0  0  0  0  0  0  0
   -3.8210   22.8590  -29.7310 C   0  0  0  0  0  0  0  0  0  0  0  0
   -5.0150   22.2370  -30.4150 C   0  0  0  0  0  0  0  0  0  0  0  0
   -4.5800   21.3770  -31.5920 C   0  0  0  0  0  0  0  0  0  0  0  0
   -3.3070   21.6280  -32.1320 C   0  0  0  0  0  0  0  0  0  0  0  0
   -2.8430   20.9030  -33.2230 C   0  0  0  0  0  0  0  0  0  0  0  0
   -3.6120   19.9340  -33.7790 N   0  0  0  0  0  0  0  0  0  0  0  0
   -4.8460   19.6300  -33.2880 C   0  0  0  0  0  0  0  0  0  0  0  0
   -5.5990   18.6110  -33.8940 C   0  0  0  0  0  0  0  0  0  0  0  0
   -6.8580   18.2750  -33.4020 C   0  0  0  0  0  0  0  0  0  0  0  0
   -7.3760   18.9470  -32.2980 C   0  0  0  0  0  0  0  0  0  0  0  0
   -6.6460   19.9640  -31.6810 C   0  0  0  0  0  0  0  0  0  0  0  0
   -5.3690   20.3360  -32.1670 C   0  0  0  0  0  0  0  0  0  0  0  0
   -3.0280   22.2010  -28.8020 C   0  0  0  0  0  0  0  0  0  0  0  0
   -3.0590   20.8770  -28.3580 C   0  0  0  0  0  0  0  0  0  0  0  0
   -2.1450   20.4900  -27.3610 C   0  0  0  0  0  0  0  0  0  0  0  0
   -2.1480   18.6920  -26.7180 Br  0  0  0  0  0  0  0  0  0  0  0  0
   -1.2330   21.4270  -26.8300 C   0  0  0  0  0  0  0  0  0  0  0  0
   -1.2270   22.7550  -27.2900 C   0  0  0  0  0  0  0  0  0  0  0  0
   -2.1430   23.1090  -28.2850 C   0  0  0  0  0  0  0  0  0  0  0  0
   -2.3260   24.3200  -28.8440 N   0  0  0  0  0  0  0  0  0  0  0  0
   -1.6150   25.5530  -28.5070 C   0  0  0  0  0  0  0  0  0  0  0  0
   -5.6761   25.7957  -29.7041 H   0  0  0  0  0  0  0  0  0  0  0  0
   -5.2143   26.6018  -31.2415 H   0  0  0  0  0  0  0  0  0  0  0  0
   -5.6788   24.8666  -31.2415 H   0  0  0  0  0  0  0  0  0  0  0  0
   -5.5578   21.6101  -29.6922 H   0  0  0  0  0  0  0  0  0  0  0  0
   -5.6642   23.0422  -30.7894 H   0  0  0  0  0  0  0  0  0  0  0  0
   -2.6709   22.4069  -31.6862 H   0  0  0  0  0  0  0  0  0  0  0  0
   -1.8468   21.1162  -33.6378 H   0  0  0  0  0  0  0  0  0  0  0  0
   -3.2290   19.4140  -34.6020 H   0  0  0  0  0  0  0  0  0  0  0  0
   -5.1915   18.0744  -34.7635 H   0  0  0  0  0  0  0  0  0  0  0  0
   -7.4430   17.4788  -33.8856 H   0  0  0  0  0  0  0  0  0  0  0  0
   -8.3682   18.6743  -31.9091 H   0  0  0  0  0  0  0  0  0  0  0  0
   -7.0674   20.4825  -30.8072 H   0  0  0  0  0  0  0  0  0  0  0  0
   -3.7779   20.1571  -28.7762 H   0  0  0  0  0  0  0  0  0  0  0  0
   -0.5219   21.1158  -26.0506 H   0  0  0  0  0  0  0  0  0  0  0  0
   -0.5228   23.4936  -26.8795 H   0  0  0  0  0  0  0  0  0  0  0  0
   -1.5561   25.6551  -27.4133 H   0  0  0  0  0  0  0  0  0  0  0  0
   -0.5990   25.5169  -28.9271 H   0  0  0  0  0  0  0  0  0  0  0  0
   -2.1551   26.4143  -28.9271 H   0  0  0  0  0  0  0  0  0  0  0  0
  1  2  1  0
  2  3  1  0
  3  4  2  0
  4  5  1  0
  5  6  1  0
  6  7  2  0
  7  8  1  0
  8  9  2  0
  9 10  1  0
 10 11  2  0
 11 12  1  0
 12 13  2  0
 13 14  1  0
 14 15  2  0
  4 16  1  0
 16 17  2  0
 17 18  1  0
 18 19  1  0
 18 20  2  0
 20 21  1  0
 21 22  2  0
 22 23  1  0
 23 24  1  0
 23  3  1  0
 15  6  1  0
 22 16  1  0
 15 10  1  0
  1 25  1  0
  1 26  1  0
  1 27  1  0
  5 28  1  0
  5 29  1  0
  7 30  1  0
  8 31  1  0
  9 32  1  0
 11 33  1  0
 12 34  1  0
 13 35  1  0
 14 36  1  0
 17 37  1  0
 20 38  1  0
 21 39  1  0
 24 40  1  0
 24 41  1  0
 24 42  1  0
M  CHG  1   9   1
M  END
>  <UniqueID>  (27) 
27

>  <SMILES>  (27) 
COc1c(Cc2cc[nH+]c3ccccc23)c2cc(Br)ccc2n1C

>  <Energy>  (27) 
90.56442530237356

>  <Genealogy>  (27) 
COc1c(Cc2cc[nH+]c3ccccc23)c2cc(Br)ccc2n1C (protonated)
COc1c(Cc2cc[nH+]c3ccccc23)c2cc(Br)ccc2n1C (3D coordinates assigned)
COc1c(Cc2cc[nH+]c3ccccc23)c2cc(Br)ccc2n1C (optimized conformer: 90.56442530237356 kcal/mol)

>  <smiles>  (27) 
COc1c(Cc2ccnc3ccccc23)c2cc(Br)ccc2n1C

>  <score_type>  (27) 
oracle

>  <origin>  (27) 
adg

>  <m_score__min__energy>  (27) 
-8.3100000000000005

>  <m_primary>  (27) 
energy

$$$$
28:0
     RDKit          3D

 60 62  0  0  0  0  0  0  0  0999 V2000
   -0.8310   21.2500  -33.0640 C   0  0  0  0  0  0  0  0  0  0  0  0
   -1.0510   20.0790  -32.1070 C   0  0  0  0  0  0  0  0  0  0  0  0
   -1.9720   19.0090  -32.7010 C   0  0  0  0  0  0  0  0  0  0  0  0
   -2.8240   19.6050  -34.2100 S   0  0  0  0  0  0  0  0  0  0  0  0
   -4.4190   18.8550  -33.8220 C   0  0  0  0  0  0  0  0  0  0  0  0
   -4.4720   17.5080  -34.1960 C   0  0  0  0  0  0  0  0  0  0  0  0
   -5.6000   16.7460  -33.9800 C   0  0  0  0  0  0  0  0  0  0  0  0
   -6.7000   17.3060  -33.3610 C   0  0  0  0  0  0  0  0  0  0  0  0
   -6.7080   18.6570  -32.9410 C   0  0  0  0  0  0  0  0  0  0  0  0
   -5.5770   19.4950  -33.2300 C   0  0  0  0  0  0  0  0  0  0  0  0
   -5.7000   20.8990  -32.9200 C   0  0  0  0  0  0  0  0  0  0  0  0
   -4.5830   21.8250  -32.9950 N   0  0  0  0  0  0  0  0  0  0  0  0
   -3.9220   21.9810  -31.6820 C   0  0  0  0  0  0  0  0  0  0  0  0
   -4.7360   22.8880  -30.7470 C   0  0  0  0  0  0  0  0  0  0  0  0
   -4.2280   24.2800  -30.7830 N   0  0  0  0  0  0  0  0  0  0  0  0
   -3.2470   24.5430  -29.7030 C   0  0  0  0  0  0  0  0  0  0  0  0
   -3.5510   23.8090  -28.3890 C   0  0  0  0  0  0  0  0  0  0  0  0
   -5.3410   25.2580  -30.8390 C   0  0  0  0  0  0  0  0  0  0  0  0
   -6.4150   24.9750  -29.7880 C   0  0  0  0  0  0  0  0  0  0  0  0
   -6.9790   21.4080  -32.5390 C   0  0  0  0  0  0  0  0  0  0  0  0
   -7.2390   22.8020  -32.4470 C   0  0  0  0  0  0  0  0  0  0  0  0
   -8.4890   23.2820  -32.0720 C   0  0  0  0  0  0  0  0  0  0  0  0
   -9.5190   22.3990  -31.7930 C   0  0  0  0  0  0  0  0  0  0  0  0
   -9.3000   21.0280  -31.8750 C   0  0  0  0  0  0  0  0  0  0  0  0
   -8.0280   20.5070  -32.2260 C   0  0  0  0  0  0  0  0  0  0  0  0
   -7.8070   19.1530  -32.2760 N   0  0  0  0  0  0  0  0  0  0  0  0
   -8.7510   18.2290  -31.6060 C   0  0  0  0  0  0  0  0  0  0  0  0
   -0.6583   22.1692  -32.4850 H   0  0  0  0  0  0  0  0  0  0  0  0
    0.0445   21.0460  -33.6979 H   0  0  0  0  0  0  0  0  0  0  0  0
   -1.7209   21.3777  -33.6979 H   0  0  0  0  0  0  0  0  0  0  0  0
   -0.0774   19.6208  -31.8787 H   0  0  0  0  0  0  0  0  0  0  0  0
   -1.5325   20.4717  -31.1993 H   0  0  0  0  0  0  0  0  0  0  0  0
   -1.3707   18.1244  -32.9576 H   0  0  0  0  0  0  0  0  0  0  0  0
   -2.7379   18.7627  -31.9509 H   0  0  0  0  0  0  0  0  0  0  0  0
   -3.5944   17.0470  -34.6728 H   0  0  0  0  0  0  0  0  0  0  0  0
   -5.6239   15.6939  -34.3001 H   0  0  0  0  0  0  0  0  0  0  0  0
   -7.5925   16.6861  -33.1901 H   0  0  0  0  0  0  0  0  0  0  0  0
   -4.8640   22.7300  -33.4140 H   0  0  0  0  0  0  0  0  0  0  0  0
   -3.8910   21.4910  -33.7020 H   0  0  0  0  0  0  0  0  0  0  0  0
   -3.8151   20.9905  -31.2156 H   0  0  0  0  0  0  0  0  0  0  0  0
   -2.9381   22.4456  -31.8436 H   0  0  0  0  0  0  0  0  0  0  0  0
   -5.7888   22.8809  -31.0656 H   0  0  0  0  0  0  0  0  0  0  0  0
   -4.6419   22.5069  -29.7194 H   0  0  0  0  0  0  0  0  0  0  0  0
   -2.2536   24.2266  -30.0538 H   0  0  0  0  0  0  0  0  0  0  0  0
   -3.2966   25.6199  -29.4841 H   0  0  0  0  0  0  0  0  0  0  0  0
   -3.2840   24.4537  -27.5386 H   0  0  0  0  0  0  0  0  0  0  0  0
   -4.6232   23.5674  -28.3435 H   0  0  0  0  0  0  0  0  0  0  0  0
   -2.9636   22.8801  -28.3435 H   0  0  0  0  0  0  0  0  0  0  0  0
   -4.9353   26.2660  -30.6677 H   0  0  0  0  0  0  0  0  0  0  0  0
   -5.8106   25.1773  -31.8305 H   0  0  0  0  0  0  0  0  0  0  0  0
   -5.9832   25.0888  -28.7827 H   0  0  0  0  0  0  0  0  0  0  0  0
   -7.2460   25.6848  -29.9126 H   0  0  0  0  0  0  0  0  0  0  0  0
   -6.7883   23.9478  -29.9126 H   0  0  0  0  0  0  0  0  0  0  0  0
   -6.4347   23.5162  -32.6772 H   0  0  0  0  0  0  0  0  0  0  0  0
   -8.6603   24.3660  -31.9967 H   0  0  0  0  0  0  0  0  0  0  0  0
  -10.5097   22.7819  -31.5067 H   0  0  0  0  0  0  0  0  0  0  0  0
  -10.1279   20.3352  -31.6639 H   0  0  0  0  0  0  0  0  0  0  0  0
   -8.6494   18.3284  -30.5152 H   0  0  0  0  0  0  0  0  0  0  0  0
   -9.7806   18.4780  -31.9026 H   0  0  0  0  0  0  0  0  0  0  0  0
   -8.5241   17.1943  -31.9026 H   0  0  0  0  0  0  0  0  0  0  0  0
  1  2  1  0
  2  3  1  0
  3  4  1  0
  4  5  1  0
  5  6  2  0
  6  7  1  0
  7  8  2  0
  8  9  1  0
  9 10  2  0
 10 11  1  0
 11 12  1  0
 12 13  1  0
 13 14  1  0
 14 15  1  0
 15 16  1  0
 16 17  1  0
 15 18  1  0
 18 19  1  0
 11 20  2  0
 20 21  1  0
 21 22  2  0
 22 23  1  0
 23 24  2  0
 24 25  1  0
 25 26  2  0
 26 27  1  0
 10  5  1  0
 25 20  1  0
 26  9  1  0
  1 28  1  0
  1 29  1  0
  1 30  1  0
  2 31  1  0
  2 32  1  0
  3 33  1  0
  3 34  1  0
  6 35  1  0
  7 36  1  0
  8 37  1  0
 12 38  1  0
 12 39  1  0
 13 40  1  0
 13 41  1  0
 14 42  1  0
 14 43  1  0
 16 44  1  0
 16 45  1  0
 17 46  1  0
 17 47  1  0
 17 48  1  0
 18 49  1  0
 18 50  1  0
 19 51  1  0
 19 52  1  0
 19 53  1  0
 21 54  1  0
 22 55  1  0
 23 56  1  0
 24 57  1  0
 27 58  1  0
 27 59  1  0
 27 60  1  0
M  CHG  2  12   1  26   1
M  END
>  <UniqueID>  (28) 
28

>  <SMILES>  (28) 
CCCSc1cccc2c1c([NH2+]CCN(CC)CC)c1ccccc1[n+]2C

>  <Energy>  (28) 
94.38283324868834

>  <Genealogy>  (28) 
CCCSc1cccc2c1c([NH2+]CCN(CC)CC)c1ccccc1[n+]2C (protonated)
CCCSc1cccc2c1c([NH2+]CCN(CC)CC)c1ccccc1[n+]2C (3D coordinates assigned)
CCCSc1cccc2c1c([NH2+]CCN(CC)CC)c1ccccc1[n+]2C (optimized conformer: 94.38283324868834 kcal/mol)

>  <smiles>  (28) 
CCCSc1cccc2c1c(NCCN(CC)CC)c1ccccc1[n+]2C

>  <score_type>  (28) 
oracle

>  <origin>  (28) 
adg

>  <m_score__min__energy>  (28) 
-8.3300000000000001

>  <m_primary>  (28) 
energy

$$$$
29:0
     RDKit          3D

 80 81  0  0  0  0  0  0  0  0999 V2000
   -0.2230   22.3520  -27.9540 C   0  0  0  0  0  0  0  0  0  0  0  0
    1.0260   23.1070  -27.5070 C   0  0  0  0  0  0  0  0  0  0  0  0
    0.8890   24.5470  -27.8160 N   0  0  0  0  0  0  0  0  0  0  0  0
    2.1300   25.2640  -27.4740 C   0  0  0  0  0  0  0  0  0  0  0  0
   -0.2720   25.1490  -27.1170 C   0  0  0  0  0  0  0  0  0  0  0  0
   -0.9100   26.2330  -27.9920 C   0  0  0  0  0  0  0  0  0  0  0  0
   -1.7740   25.6490  -28.9510 O   0  0  0  0  0  0  0  0  0  0  0  0
   -2.6010   24.6600  -28.3650 C   0  0  0  0  0  0  0  0  0  0  0  0
   -3.8540   24.4300  -29.2080 C   0  0  0  0  0  0  0  0  0  0  0  0
   -3.8320   25.2960  -30.3270 O   0  0  0  0  0  0  0  0  0  0  0  0
   -5.1400   25.7130  -30.6770 C   0  0  0  0  0  0  0  0  0  0  0  0
   -5.8870   24.6530  -31.4930 C   0  0  0  0  0  0  0  0  0  0  0  0
   -7.1600   24.4180  -30.9200 O   0  0  0  0  0  0  0  0  0  0  0  0
   -7.6440   23.1600  -31.3430 C   0  0  0  0  0  0  0  0  0  0  0  0
   -7.1190   22.0740  -30.3930 C   0  0  0  0  0  0  0  0  0  0  0  0
   -7.4120   20.7120  -30.8700 N   0  0  0  0  0  0  0  0  0  0  0  0
   -8.8180   20.5490  -31.2720 C   0  0  0  0  0  0  0  0  0  0  0  0
   -8.9330   19.7110  -32.5600 C   0  0  1  0  0  0  0  0  0  0  0  0
   -8.0970   20.2520  -33.5510 O   0  0  0  0  0  0  0  0  0  0  0  0
   -8.6140   18.2150  -32.3260 C   0  0  0  0  0  0  0  0  0  0  0  0
   -7.4560   18.0590  -31.5280 O   0  0  0  0  0  0  0  0  0  0  0  0
   -6.5050   17.2040  -32.1410 C   0  0  0  0  0  0  0  0  0  0  0  0
   -6.0050   17.8010  -33.4660 C   0  0  1  0  0  0  0  0  0  0  0  0
   -5.7120   19.1710  -33.2700 O   0  0  0  0  0  0  0  0  0  0  0  0
   -4.4130   19.4080  -33.7690 C   0  0  1  0  0  0  0  0  0  0  0  0
   -3.6940   20.4230  -32.9690 N   0  0  0  0  0  0  0  0  0  0  0  0
   -2.4050   20.1530  -32.5940 C   0  0  0  0  0  0  0  0  0  0  0  0
   -1.6820   21.0470  -31.7920 C   0  0  0  0  0  0  0  0  0  0  0  0
   -0.2730   20.7350  -31.3660 C   0  0  0  0  0  0  0  0  0  0  0  0
   -2.3290   22.2090  -31.3620 C   0  0  0  0  0  0  0  0  0  0  0  0
   -1.7330   23.0430  -30.6300 O   0  0  0  0  0  0  0  0  0  0  0  0
   -3.6150   22.4390  -31.7290 N   0  0  0  0  0  0  0  0  0  0  0  0
   -4.3010   21.5670  -32.5110 C   0  0  0  0  0  0  0  0  0  0  0  0
   -5.5020   21.8240  -32.7930 O   0  0  0  0  0  0  0  0  0  0  0  0
   -3.6510   18.0950  -33.7890 C   0  0  0  0  0  0  0  0  0  0  0  0
   -4.7450   17.0830  -33.9900 C   0  0  2  0  0  0  0  0  0  0  0  0
   -4.8810   16.7350  -35.3510 O   0  0  0  0  0  0  0  0  0  0  0  0
   -0.7829   22.0135  -27.0698 H   0  0  0  0  0  0  0  0  0  0  0  0
   -0.8577   23.0178  -28.5572 H   0  0  0  0  0  0  0  0  0  0  0  0
    0.0715   21.4806  -28.5572 H   0  0  0  0  0  0  0  0  0  0  0  0
    1.1596   22.9789  -26.4227 H   0  0  0  0  0  0  0  0  0  0  0  0
    1.8992   22.7060  -28.0424 H   0  0  0  0  0  0  0  0  0  0  0  0
    2.2304   25.3220  -26.3801 H   0  0  0  0  0  0  0  0  0  0  0  0
    2.9923   24.7250  -27.8933 H   0  0  0  0  0  0  0  0  0  0  0  0
    2.0937   26.2803  -27.8933 H   0  0  0  0  0  0  0  0  0  0  0  0
   -1.0160   24.3664  -26.9071 H   0  0  0  0  0  0  0  0  0  0  0  0
    0.0706   25.6024  -26.1751 H   0  0  0  0  0  0  0  0  0  0  0  0
   -1.4869   26.9198  -27.3551 H   0  0  0  0  0  0  0  0  0  0  0  0
   -0.1142   26.7821  -28.5165 H   0  0  0  0  0  0  0  0  0  0  0  0
   -2.0386   23.7176  -28.2907 H   0  0  0  0  0  0  0  0  0  0  0  0
   -2.9070   25.0037  -27.3659 H   0  0  0  0  0  0  0  0  0  0  0  0
   -3.8782   23.3856  -29.5524 H   0  0  0  0  0  0  0  0  0  0  0  0
   -4.7483   24.6355  -28.6014 H   0  0  0  0  0  0  0  0  0  0  0  0
   -5.7060   25.9144  -29.7555 H   0  0  0  0  0  0  0  0  0  0  0  0
   -5.0513   26.6165  -31.2982 H   0  0  0  0  0  0  0  0  0  0  0  0
   -6.0114   25.0081  -32.5266 H   0  0  0  0  0  0  0  0  0  0  0  0
   -5.3085   23.7174  -31.4904 H   0  0  0  0  0  0  0  0  0  0  0  0
   -8.7439   23.1639  -31.3260 H   0  0  0  0  0  0  0  0  0  0  0  0
   -7.2981   22.9552  -32.3669 H   0  0  0  0  0  0  0  0  0  0  0  0
   -6.0289   22.1867  -30.2977 H   0  0  0  0  0  0  0  0  0  0  0  0
   -7.6273   22.2041  -29.4262 H   0  0  0  0  0  0  0  0  0  0  0  0
   -6.7970   20.5080  -31.6910 H   0  0  0  0  0  0  0  0  0  0  0  0
   -9.3664   20.0428  -30.4639 H   0  0  0  0  0  0  0  0  0  0  0  0
   -9.2443   21.5447  -31.4637 H   0  0  0  0  0  0  0  0  0  0  0  0
   -9.9793   19.7562  -32.8965 H   0  0  0  0  0  0  0  0  0  0  0  0
   -7.2830   20.6010  -33.1000 H   0  0  0  0  0  0  0  0  0  0  0  0
   -9.4668   17.7412  -31.8178 H   0  0  0  0  0  0  0  0  0  0  0  0
   -8.4322   17.7402  -33.3015 H   0  0  0  0  0  0  0  0  0  0  0  0
   -5.6506   17.0696  -31.4613 H   0  0  0  0  0  0  0  0  0  0  0  0
   -6.9852   16.2367  -32.3502 H   0  0  0  0  0  0  0  0  0  0  0  0
   -6.7987   17.6711  -34.2165 H   0  0  0  0  0  0  0  0  0  0  0  0
   -4.4916   19.8094  -34.7901 H   0  0  0  0  0  0  0  0  0  0  0  0
   -1.9290   19.2191  -32.9276 H   0  0  0  0  0  0  0  0  0  0  0  0
   -0.2163   20.7225  -30.2675 H   0  0  0  0  0  0  0  0  0  0  0  0
    0.0195   19.7503  -31.7595 H   0  0  0  0  0  0  0  0  0  0  0  0
    0.4079   21.5041  -31.7595 H   0  0  0  0  0  0  0  0  0  0  0  0
   -2.9282   18.0681  -34.6178 H   0  0  0  0  0  0  0  0  0  0  0  0
   -3.0560   17.9209  -32.8804 H   0  0  0  0  0  0  0  0  0  0  0  0
   -4.5473   16.1350  -33.4683 H   0  0  0  0  0  0  0  0  0  0  0  0
   -4.1950   17.2330  -35.8700 H   0  0  0  0  0  0  0  0  0  0  0  0
  1  2  1  0
  2  3  1  0
  3  4  1  0
  3  5  1  0
  5  6  1  0
  6  7  1  0
  7  8  1  0
  8  9  1  0
  9 10  1  0
 10 11  1  0
 11 12  1  0
 12 13  1  0
 13 14  1  0
 14 15  1  0
 15 16  1  0
 16 17  1  0
 17 18  1  0
 18 19  1  0
 18 20  1  0
 20 21  1  0
 21 22  1  0
 22 23  1  0
 23 24  1  0
 24 25  1  0
 25 26  1  0
 26 27  1  0
 27 28  2  0
 28 29  1  0
 28 30  1  0
 30 31  2  0
 30 32  1  0
 32 33  1  0
 33 34  2  0
 25 35  1  0
 35 36  1  0
 36 37  1  0
 36 23  1  0
 33 26  1  0
  1 38  1  0
  1 39  1  0
  1 40  1  0
  2 41  1  0
  2 42  1  0
  4 43  1  0
  4 44  1  0
  4 45  1  0
  5 46  1  0
  5 47  1  0
  6 48  1  0
  6 49  1  0
  8 50  1  0
  8 51  1  0
  9 52  1  0
  9 53  1  0
 11 54  1  0
 11 55  1  0
 12 56  1  0
 12 57  1  0
 14 58  1  0
 14 59  1  0
 15 60  1  0
 15 61  1  0
 16 62  1  0
 17 63  1  0
 17 64  1  0
 18 65  1  6
 19 66  1  0
 20 67  1  0
 20 68  1  0
 22 69  1  0
 22 70  1  0
 23 71  1  6
 25 72  1  6
 27 73  1  0
 29 74  1  0
 29 75  1  0
 29 76  1  0
 35 77  1  0
 35 78  1  0
 36 79  1  1
 37 80  1  0
M  CHG  1  32  -1
M  END
>  <UniqueID>  (29) 
29

>  <SMILES>  (29) 
CCN(C)CCOCCOCCOCCNC[C@@H](O)COC[C@H]1OC(n2cc(C)c(=O)[n-]c2=O)CC1O

>  <Energy>  (29) 
86.34212371496547

>  <Genealogy>  (29) 
CCN(C)CCOCCOCCOCCNCC(O)COCC1OC(n2cc(C)c(=O)[n-]c2=O)CC1O (protonated)
CCN(C)CCOCCOCCOCCNC[C@@H](O)COC[C@H]1OC(n2cc(C)c(=O)[n-]c2=O)CC1O (chirality)
CCN(C)CCOCCOCCOCCNC[C@@H](O)COC[C@H]1OC(n2cc(C)c(=O)[n-]c2=O)CC1O (3D coordinates assigned)
CCN(C)CCOCCOCCOCCNC[C@@H](O)COC[C@H]1OC(n2cc(C)c(=O)[n-]c2=O)CC1O (nonaromatic ring conformer: 86.34212371496547 kcal/mol)

>  <smiles>  (29) 
CCN(C)CCOCCOCCOCCNCC(O)COCC1OC(n2cc(C)c(=O)[nH]c2=O)CC1O

>  <score_type>  (29) 
oracle

>  <origin>  (29) 
adg

>  <m_score__min__energy>  (29) 
-7.7599999999999998

>  <m_primary>  (29) 
energy

$$$$
30:0
     RDKit          3D

 66 68  0  0  0  0  0  0  0  0999 V2000
   -3.4690   18.9600  -26.4260 C   0  0  0  0  0  0  0  0  0  0  0  0
   -2.0480   19.5540  -26.4820 C   0  0  0  0  0  0  0  0  0  0  0  0
   -1.8860   20.8300  -27.2580 N   0  0  0  0  0  0  0  0  0  0  0  0
   -1.1300   21.8150  -26.4430 C   0  0  0  0  0  0  0  0  0  0  0  0
   -1.1490   20.5530  -28.5180 C   0  0  0  0  0  0  0  0  0  0  0  0
   -3.2760   21.3240  -27.5720 C   0  0  0  0  0  0  0  0  0  0  0  0
   -3.5390   22.8600  -27.5720 C   0  0  0  0  0  0  0  0  0  0  0  0
   -4.7200   23.2600  -28.3590 N   0  0  0  0  0  0  0  0  0  0  0  0
   -4.3450   23.9770  -29.5940 C   0  0  0  0  0  0  0  0  0  0  0  0
   -3.8300   23.0300  -30.6890 C   0  0  0  0  0  0  0  0  0  0  0  0
   -4.2910   21.7160  -30.4380 O   0  0  0  0  0  0  0  0  0  0  0  0
   -3.5750   20.7770  -31.2140 C   0  0  0  0  0  0  0  0  0  0  0  0
   -3.2870   21.3710  -32.5900 C   0  0  0  0  0  0  0  0  0  0  0  0
   -4.5080   21.4660  -33.3900 N   0  0  0  0  0  0  0  0  0  0  0  0
   -5.6700   20.7040  -33.0330 C   0  0  0  0  0  0  0  0  0  0  0  0
   -6.8060   21.3510  -32.5190 C   0  0  0  0  0  0  0  0  0  0  0  0
   -6.8210   22.7520  -32.3470 C   0  0  0  0  0  0  0  0  0  0  0  0
   -7.9680   23.4000  -31.8980 C   0  0  0  0  0  0  0  0  0  0  0  0
   -9.1190   22.6690  -31.6270 C   0  0  0  0  0  0  0  0  0  0  0  0
   -9.1220   21.2820  -31.7720 C   0  0  0  0  0  0  0  0  0  0  0  0
   -7.9550   20.5860  -32.1820 C   0  0  0  0  0  0  0  0  0  0  0  0
   -7.9230   19.2070  -32.2760 N   0  0  0  0  0  0  0  0  0  0  0  0
   -9.0050   18.4000  -31.6680 C   0  0  0  0  0  0  0  0  0  0  0  0
   -6.8630   18.5800  -32.9080 C   0  0  0  0  0  0  0  0  0  0  0  0
   -6.9020   17.2010  -33.2430 C   0  0  0  0  0  0  0  0  0  0  0  0
   -5.8000   16.5680  -33.8230 C   0  0  0  0  0  0  0  0  0  0  0  0
   -5.8740   14.8600  -34.2160 Cl  0  0  0  0  0  0  0  0  0  0  0  0
   -4.6420   17.2920  -34.0950 C   0  0  0  0  0  0  0  0  0  0  0  0
   -4.5920   18.6560  -33.8210 C   0  0  0  0  0  0  0  0  0  0  0  0
   -5.7000   19.3180  -33.2540 C   0  0  0  0  0  0  0  0  0  0  0  0
   -3.7723   18.8332  -25.3763 H   0  0  0  0  0  0  0  0  0  0  0  0
   -4.1709   19.6401  -26.9309 H   0  0  0  0  0  0  0  0  0  0  0  0
   -3.4781   17.9828  -26.9309 H   0  0  0  0  0  0  0  0  0  0  0  0
   -1.7257   19.7481  -25.4483 H   0  0  0  0  0  0  0  0  0  0  0  0
   -1.4413   18.8085  -27.0169 H   0  0  0  0  0  0  0  0  0  0  0  0
   -1.2899   21.6067  -25.3748 H   0  0  0  0  0  0  0  0  0  0  0  0
   -0.0576   21.7371  -26.6753 H   0  0  0  0  0  0  0  0  0  0  0  0
   -1.4826   22.8307  -26.6753 H   0  0  0  0  0  0  0  0  0  0  0  0
   -0.1438   20.1752  -28.2794 H   0  0  0  0  0  0  0  0  0  0  0  0
   -1.6947   19.7986  -29.1037 H   0  0  0  0  0  0  0  0  0  0  0  0
   -1.0628   21.4801  -29.1037 H   0  0  0  0  0  0  0  0  0  0  0  0
   -3.5342   20.9507  -28.5740 H   0  0  0  0  0  0  0  0  0  0  0  0
   -3.8892   20.9467  -26.7403 H   0  0  0  0  0  0  0  0  0  0  0  0
   -3.6879   23.1867  -26.5322 H   0  0  0  0  0  0  0  0  0  0  0  0
   -2.6648   23.3354  -28.0407 H   0  0  0  0  0  0  0  0  0  0  0  0
   -5.2250   22.3950  -28.6570 H   0  0  0  0  0  0  0  0  0  0  0  0
   -5.3660   23.8510  -27.7860 H   0  0  0  0  0  0  0  0  0  0  0  0
   -5.2287   24.5099  -29.9750 H   0  0  0  0  0  0  0  0  0  0  0  0
   -3.5310   24.6730  -29.3431 H   0  0  0  0  0  0  0  0  0  0  0  0
   -4.2011   23.3670  -31.6682 H   0  0  0  0  0  0  0  0  0  0  0  0
   -2.7300   23.0366  -30.6888 H   0  0  0  0  0  0  0  0  0  0  0  0
   -2.6262   20.5343  -30.7131 H   0  0  0  0  0  0  0  0  0  0  0  0
   -4.1736   19.8611  -31.3271 H   0  0  0  0  0  0  0  0  0  0  0  0
   -2.8607   22.3773  -32.4646 H   0  0  0  0  0  0  0  0  0  0  0  0
   -2.5778   20.7124  -33.1128 H   0  0  0  0  0  0  0  0  0  0  0  0
   -4.5260   22.0100  -34.2820 H   0  0  0  0  0  0  0  0  0  0  0  0
   -5.9169   23.3376  -32.5701 H   0  0  0  0  0  0  0  0  0  0  0  0
   -7.9638   24.4910  -31.7575 H   0  0  0  0  0  0  0  0  0  0  0  0
  -10.0315   23.1870  -31.2967 H   0  0  0  0  0  0  0  0  0  0  0  0
  -10.0437   20.7183  -31.5653 H   0  0  0  0  0  0  0  0  0  0  0  0
   -8.9316   18.4548  -30.5718 H   0  0  0  0  0  0  0  0  0  0  0  0
   -9.9807   18.7927  -31.9902 H   0  0  0  0  0  0  0  0  0  0  0  0
   -8.9067   17.3528  -31.9902 H   0  0  0  0  0  0  0  0  0  0  0  0
   -7.8151   16.6213  -33.0425 H   0  0  0  0  0  0  0  0  0  0  0  0
   -3.7660   16.7857  -34.5267 H   0  0  0  0  0  0  0  0  0  0  0  0
   -3.6778   19.2235  -34.0494 H   0  0  0  0  0  0  0  0  0  0  0  0
  1  2  1  0
  2  3  1  0
  3  4  1  0
  3  5  1  0
  3  6  1  0
  6  7  1  0
  7  8  1  0
  8  9  1  0
  9 10  1  0
 10 11  1  0
 11 12  1  0
 12 13  1  0
 13 14  1  0
 14 15  1  0
 15 16  2  0
 16 17  1  0
 17 18  2  0
 18 19  1  0
 19 20  2  0
 20 21  1  0
 21 22  2  0
 22 23  1  0
 22 24  1  0
 24 25  2  0
 25 26  1  0
 26 27  1  0
 26 28  2  0
 28 29  1  0
 29 30  2  0
 30 15  1  0
 21 16  1  0
 30 24  1  0
  1 31  1  0
  1 32  1  0
  1 33  1  0
  2 34  1  0
  2 35  1  0
  4 36  1  0
  4 37  1  0
  4 38  1  0
  5 39  1  0
  5 40  1  0
  5 41  1  0
  6 42  1  0
  6 43  1  0
  7 44  1  0
  7 45  1  0
  8 46  1  0
  8 47  1  0
  9 48  1  0
  9 49  1  0
 10 50  1  0
 10 51  1  0
 12 52  1  0
 12 53  1  0
 13 54  1  0
 13 55  1  0
 14 56  1  0
 17 57  1  0
 18 58  1  0
 19 59  1  0
 20 60  1  0
 23 61  1  0
 23 62  1  0
 23 63  1  0
 25 64  1  0
 28 65  1  0
 29 66  1  0
M  CHG  3   3   1   8   1  22   1
M  END
>  <UniqueID>  (30) 
30

>  <SMILES>  (30) 
CC[N+](C)(C)CC[NH2+]CCOCCNc1c2ccccc2[n+](C)c2cc(Cl)ccc12

>  <Energy>  (30) 
108.49634320320195

>  <Genealogy>  (30) 
CC[N+](C)(C)CC[NH2+]CCOCCNc1c2ccccc2[n+](C)c2cc(Cl)ccc12 (protonated)
CC[N+](C)(C)CC[NH2+]CCOCCNc1c2ccccc2[n+](C)c2cc(Cl)ccc12 (3D coordinates assigned)
CC[N+](C)(C)CC[NH2+]CCOCCNc1c2ccccc2[n+](C)c2cc(Cl)ccc12 (optimized conformer: 108.49634320320195 kcal/mol)

>  <smiles>  (30) 
CC[N+](C)(C)CCNCCOCCNc1c2ccccc2[n+](C)c2cc(Cl)ccc12

>  <score_type>  (30) 
oracle

>  <origin>  (30) 
adg

>  <m_score__min__energy>  (30) 
-8.3399999999999999

>  <m_primary>  (30) 
energy

$$$$
31:0
     RDKit          3D

 31 32  0  0  0  0  0  0  0  0999 V2000
   -2.5020   22.5080  -30.8180 C   0  0  0  0  0  0  0  0  0  0  0  0
   -3.6710   22.9420  -31.5040 O   0  0  0  0  0  0  0  0  0  0  0  0
   -4.6330   22.0800  -32.0500 C   0  0  0  0  0  0  0  0  0  0  0  0
   -4.3010   21.0410  -32.9530 C   0  0  0  0  0  0  0  0  0  0  0  0
   -5.3020   20.1930  -33.4730 C   0  0  0  0  0  0  0  0  0  0  0  0
   -6.6460   20.3650  -33.1040 C   0  0  0  0  0  0  0  0  0  0  0  0
   -6.9550   21.3970  -32.2160 C   0  0  0  0  0  0  0  0  0  0  0  0
   -5.9830   22.2260  -31.7060 C   0  0  0  0  0  0  0  0  0  0  0  0
   -6.6280   23.1140  -30.8540 C   0  0  0  0  0  0  0  0  0  0  0  0
   -6.0210   24.1810  -29.9870 C   0  0  0  0  0  0  0  0  0  0  0  0
   -5.3650   25.2810  -30.8290 C   0  0  0  0  0  0  0  0  0  0  0  0
   -3.9200   25.2990  -30.6210 N   0  0  0  0  0  0  0  0  0  0  0  0
   -7.9730   22.7620  -30.8810 C   0  0  0  0  0  0  0  0  0  0  0  0
   -8.1670   21.7220  -31.7240 N   0  0  0  0  0  0  0  0  0  0  0  0
   -9.4360   21.0510  -31.9890 C   0  0  0  0  0  0  0  0  0  0  0  0
   -2.6695   22.5702  -29.7326 H   0  0  0  0  0  0  0  0  0  0  0  0
   -2.2791   21.4672  -31.0956 H   0  0  0  0  0  0  0  0  0  0  0  0
   -1.6539   23.1512  -31.0956 H   0  0  0  0  0  0  0  0  0  0  0  0
   -3.2528   20.8935  -33.2520 H   0  0  0  0  0  0  0  0  0  0  0  0
   -5.0272   19.3905  -34.1733 H   0  0  0  0  0  0  0  0  0  0  0  0
   -7.4317   19.7064  -33.5027 H   0  0  0  0  0  0  0  0  0  0  0  0
   -6.8104   24.6290  -29.3656 H   0  0  0  0  0  0  0  0  0  0  0  0
   -5.2457   23.7171  -29.3595 H   0  0  0  0  0  0  0  0  0  0  0  0
   -5.5742   25.0944  -31.8927 H   0  0  0  0  0  0  0  0  0  0  0  0
   -5.7780   26.2536  -30.5231 H   0  0  0  0  0  0  0  0  0  0  0  0
   -3.6780   24.4930  -30.0010 H   0  0  0  0  0  0  0  0  0  0  0  0
   -3.4540   25.1190  -31.5390 H   0  0  0  0  0  0  0  0  0  0  0  0
   -8.7650   23.2578  -30.3005 H   0  0  0  0  0  0  0  0  0  0  0  0
   -9.9212   20.7944  -31.0357 H   0  0  0  0  0  0  0  0  0  0  0  0
  -10.0914   21.7204  -32.5655 H   0  0  0  0  0  0  0  0  0  0  0  0
   -9.2517   20.1325  -32.5655 H   0  0  0  0  0  0  0  0  0  0  0  0
  1  2  1  0
  2  3  1  0
  3  4  2  0
  4  5  1  0
  5  6  2  0
  6  7  1  0
  7  8  2  0
  8  9  1  0
  9 10  1  0
 10 11  1  0
 11 12  1  0
  9 13  2  0
 13 14  1  0
 14 15  1  0
  8  3  1  0
 14  7  1  0
  1 16  1  0
  1 17  1  0
  1 18  1  0
  4 19  1  0
  5 20  1  0
  6 21  1  0
 10 22  1  0
 10 23  1  0
 11 24  1  0
 11 25  1  0
 12 26  1  0
 12 27  1  0
 13 28  1  0
 15 29  1  0
 15 30  1  0
 15 31  1  0
M  END
>  <UniqueID>  (31) 
31

>  <SMILES>  (31) 
COc1cccc2c1c(CCN)cn2C

>  <Energy>  (31) 
58.8744088467514

>  <Genealogy>  (31) 
COc1cccc2c1c(CCN)cn2C (3D coordinates assigned)
COc1cccc2c1c(CCN)cn2C (optimized conformer: 58.8744088467514 kcal/mol)

>  <smiles>  (31) 
COc1cccc2c1c(CCN)cn2C

>  <score_type>  (31) 
oracle

>  <origin>  (31) 
adg

>  <m_score__min__energy>  (31) 
-6.7699999999999996

>  <m_primary>  (31) 
energy

$$$$
32:0
     RDKit          3D

 37 38  0  0  0  0  0  0  0  0999 V2000
   -7.5946   19.8672  -32.6268 H   0  0  0  0  0  0  0  0  0  0  0  0
   -7.3550   20.8740  -32.2540 C   0  0  0  0  0  0  0  0  0  0  0  0
   -8.3920   21.8020  -32.0320 C   0  0  0  0  0  0  0  0  0  0  0  0
   -9.4342   21.5145  -32.2348 H   0  0  0  0  0  0  0  0  0  0  0  0
   -8.1060   23.0880  -31.5550 C   0  0  0  0  0  0  0  0  0  0  0  0
   -8.9098   23.8182  -31.3800 H   0  0  0  0  0  0  0  0  0  0  0  0
   -6.7760   23.4150  -31.3090 C   0  0  0  0  0  0  0  0  0  0  0  0
   -6.1470   24.8630  -30.7380 S   0  0  0  0  0  0  0  0  0  0  0  0
   -4.5580   24.2630  -30.7940 C   0  0  0  0  0  0  0  0  0  0  0  0
   -3.4890   24.9200  -30.4520 N   0  0  0  0  0  0  0  0  0  0  0  0
   -2.6060   24.5740  -29.3390 C   0  0  0  0  0  0  0  0  0  0  0  0
   -2.0692   25.4761  -29.0101 H   0  0  0  0  0  0  0  0  0  0  0  0
   -1.8933   23.8079  -29.6783 H   0  0  0  0  0  0  0  0  0  0  0  0
   -3.4070   24.0140  -28.1690 C   0  0  0  0  0  0  0  0  0  0  0  0
   -2.9473   24.3354  -27.2227 H   0  0  0  0  0  0  0  0  0  0  0  0
   -4.4404   24.3874  -28.2200 H   0  0  0  0  0  0  0  0  0  0  0  0
   -3.4112   22.9152  -28.2200 H   0  0  0  0  0  0  0  0  0  0  0  0
   -4.5010   22.9850  -31.2350 N   0  0  0  0  0  0  0  0  0  0  0  0
   -5.7440   22.5140  -31.5220 C   0  0  0  0  0  0  0  0  0  0  0  0
   -6.0060   21.2270  -32.0010 C   0  0  0  0  0  0  0  0  0  0  0  0
   -4.9320   20.3440  -32.2020 O   0  0  0  0  0  0  0  0  0  0  0  0
   -4.2890   20.0940  -33.4520 C   0  0  0  0  0  0  0  0  0  0  0  0
   -4.1861   19.0081  -33.5945 H   0  0  0  0  0  0  0  0  0  0  0  0
   -4.8998   20.5280  -34.2574 H   0  0  0  0  0  0  0  0  0  0  0  0
   -2.8990   20.7400  -33.4840 C   0  0  0  0  0  0  0  0  0  0  0  0
   -2.1377   19.9530  -33.5886 H   0  0  0  0  0  0  0  0  0  0  0  0
   -2.8516   21.4336  -34.3364 H   0  0  0  0  0  0  0  0  0  0  0  0
   -2.6460   21.4950  -32.2460 N   0  0  0  0  0  0  0  0  0  0  0  0
   -3.3380   21.1930  -31.5200 H   0  0  0  0  0  0  0  0  0  0  0  0
   -2.7800   22.5200  -32.4180 H   0  0  0  0  0  0  0  0  0  0  0  0
   -1.2960   21.2500  -31.7070 C   0  0  0  0  0  0  0  0  0  0  0  0
   -0.9882   20.2292  -31.9775 H   0  0  0  0  0  0  0  0  0  0  0  0
   -0.6220   22.0041  -32.1394 H   0  0  0  0  0  0  0  0  0  0  0  0
   -1.2370   21.3930  -30.1830 C   0  0  0  0  0  0  0  0  0  0  0  0
   -1.6164   20.4734  -29.7135 H   0  0  0  0  0  0  0  0  0  0  0  0
   -0.1959   21.5616  -29.8706 H   0  0  0  0  0  0  0  0  0  0  0  0
   -1.8564   22.2467  -29.8706 H   0  0  0  0  0  0  0  0  0  0  0  0
  1  2  1  0
  2  3  2  0
  3  4  1  0
  3  5  1  0
  5  6  1  0
  5  7  2  0
  7  8  1  0
  8  9  1  0
  9 10  2  0
 10 11  1  0
 11 12  1  0
 11 13  1  0
 11 14  1  0
 14 15  1  0
 14 16  1  0
 14 17  1  0
  9 18  1  0
 18 19  1  0
 19 20  2  0
 20 21  1  0
 21 22  1  0
 22 23  1  0
 22 24  1  0
 22 25  1  0
 25 26  1  0
 25 27  1  0
 25 28  1  0
 28 29  1  0
 28 30  1  0
 28 31  1  0
 31 32  1  0
 31 33  1  0
 31 34  1  0
 34 35  1  0
 34 36  1  0
 34 37  1  0
 20  2  1  0
 19  7  1  0
M  CHG  2  18  -1  28   1
M  END
>  <UniqueID>  (32) 
32

>  <SMILES>  (32) 
CC/N=c1/[n-]c2c(OCC[NH2+]CC)cccc2s1

>  <Energy>  (32) 
65.22234776711034

>  <Genealogy>  (32) 
CCN=c1[n-]c2c(OCC[NH2+]CC)cccc2s1 (protonated)
CC/N=c1/[n-]c2c(OCC[NH2+]CC)cccc2s1 (cis-trans isomerization)
CC/N=c1/[n-]c2c(OCC[NH2+]CC)cccc2s1 (3D coordinates assigned)
CC/N=c1/[n-]c2c(OCC[NH2+]CC)cccc2s1 (optimized conformer: 65.22234776711034 kcal/mol)

>  <smiles>  (32) 
CCN=c1[nH]c2c(OCCNCC)cccc2s1

>  <score_type>  (32) 
oracle

>  <origin>  (32) 
adg

>  <m_score__min__energy>  (32) 
-5.8099999999999996

>  <m_primary>  (32) 
energy

$$$$
