0:0
     RDKit          3D

 49 51  0  0  0  0  0  0  0  0999 V2000
   60.1080   34.1810   49.1890 C   0  0  0  0  0  0  0  0  0  0  0  0
   61.6140   34.1070   48.9420 C   0  0  0  0  0  0  0  0  0  0  0  0
   61.9520   32.8710   48.1980 N   0  0  0  0  0  0  0  0  0  0  0  0
   63.2940   32.9230   47.5680 C   0  0  0  0  0  0  0  0  0  0  0  0
   64.3710   33.0930   48.6370 C   0  0  0  0  0  0  0  0  0  0  0  0
   61.7090   31.6330   48.9760 C   0  0  0  0  0  0  0  0  0  0  0  0
   60.9600   30.5260   48.1960 C   0  0  0  0  0  0  0  0  0  0  0  0
   61.0920   30.7360   46.7440 N   0  0  0  0  0  0  0  0  0  0  0  0
   59.8130   30.5500   46.0780 C   0  0  0  0  0  0  0  0  0  0  0  0
   59.3720   29.2550   45.6940 C   0  0  0  0  0  0  0  0  0  0  0  0
   60.0780   28.0850   46.0750 C   0  0  0  0  0  0  0  0  0  0  0  0
   59.6450   26.8200   45.6830 C   0  0  0  0  0  0  0  0  0  0  0  0
   58.4980   26.6850   44.9150 C   0  0  0  0  0  0  0  0  0  0  0  0
   57.7690   27.8130   44.5400 C   0  0  0  0  0  0  0  0  0  0  0  0
   58.1810   29.1190   44.9210 C   0  0  0  0  0  0  0  0  0  0  0  0
   57.4450   30.2340   44.5670 N   0  0  0  0  0  0  0  0  0  0  0  0
   56.2470   30.0930   43.7090 C   0  0  0  0  0  0  0  0  0  0  0  0
   57.7880   31.4760   45.0500 C   0  0  0  0  0  0  0  0  0  0  0  0
   56.9830   32.5550   44.8010 N   0  0  0  0  0  0  0  0  0  0  0  0
   57.2550   33.8020   45.2590 C   0  0  0  0  0  0  0  0  0  0  0  0
   58.3930   34.0230   46.0210 C   0  0  0  0  0  0  0  0  0  0  0  0
   59.2470   32.9590   46.3030 C   0  0  0  0  0  0  0  0  0  0  0  0
   58.9680   31.6590   45.8160 C   0  0  0  0  0  0  0  0  0  0  0  0
   59.9140   34.1905   50.2717 H   0  0  0  0  0  0  0  0  0  0  0  0
   59.7069   35.0999   48.7365 H   0  0  0  0  0  0  0  0  0  0  0  0
   59.6188   33.3058   48.7365 H   0  0  0  0  0  0  0  0  0  0  0  0
   61.9290   34.9820   48.3545 H   0  0  0  0  0  0  0  0  0  0  0  0
   62.1357   34.0962   49.9103 H   0  0  0  0  0  0  0  0  0  0  0  0
   63.4733   31.9881   47.0168 H   0  0  0  0  0  0  0  0  0  0  0  0
   63.3342   33.7788   46.8781 H   0  0  0  0  0  0  0  0  0  0  0  0
   63.9124   33.0206   49.6342 H   0  0  0  0  0  0  0  0  0  0  0  0
   65.1282   32.3033   48.5234 H   0  0  0  0  0  0  0  0  0  0  0  0
   64.8482   34.0776   48.5234 H   0  0  0  0  0  0  0  0  0  0  0  0
   62.6816   31.2309   49.2958 H   0  0  0  0  0  0  0  0  0  0  0  0
   61.0633   31.9142   49.8209 H   0  0  0  0  0  0  0  0  0  0  0  0
   61.3855   29.5466   48.4599 H   0  0  0  0  0  0  0  0  0  0  0  0
   59.8939   30.5621   48.4644 H   0  0  0  0  0  0  0  0  0  0  0  0
   61.4720   31.6910   46.5480 H   0  0  0  0  0  0  0  0  0  0  0  0
   61.8200   30.1010   46.3460 H   0  0  0  0  0  0  0  0  0  0  0  0
   60.9843   28.1782   46.6915 H   0  0  0  0  0  0  0  0  0  0  0  0
   60.2135   25.9274   45.9830 H   0  0  0  0  0  0  0  0  0  0  0  0
   58.1625   25.6856   44.6009 H   0  0  0  0  0  0  0  0  0  0  0  0
   56.8570   27.6897   43.9374 H   0  0  0  0  0  0  0  0  0  0  0  0
   55.3533   29.9878   44.3416 H   0  0  0  0  0  0  0  0  0  0  0  0
   56.1438   30.9852   43.0739 H   0  0  0  0  0  0  0  0  0  0  0  0
   56.3537   29.2012   43.0739 H   0  0  0  0  0  0  0  0  0  0  0  0
   56.5756   34.6355   45.0271 H   0  0  0  0  0  0  0  0  0  0  0  0
   58.6193   35.0307   46.3997 H   0  0  0  0  0  0  0  0  0  0  0  0
   60.1478   33.1307   46.9106 H   0  0  0  0  0  0  0  0  0  0  0  0
  1  2  1  0
  2  3  1  0
  3  4  1  0
  4  5  1  0
  3  6  1  0
  6  7  1  0
  7  8  1  0
  8  9  1  0
  9 10  2  0
 10 11  1  0
 11 12  2  0
 12 13  1  0
 13 14  2  0
 14 15  1  0
 15 16  2  0
 16 17  1  0
 16 18  1  0
 18 19  2  0
 19 20  1  0
 20 21  2  0
 21 22  1  0
 22 23  2  0
 23  9  1  0
 15 10  1  0
 23 18  1  0
  1 24  1  0
  1 25  1  0
  1 26  1  0
  2 27  1  0
  2 28  1  0
  4 29  1  0
  4 30  1  0
  5 31  1  0
  5 32  1  0
  5 33  1  0
  6 34  1  0
  6 35  1  0
  7 36  1  0
  7 37  1  0
  8 38  1  0
  8 39  1  0
 11 40  1  0
 12 41  1  0
 13 42  1  0
 14 43  1  0
 17 44  1  0
 17 45  1  0
 17 46  1  0
 20 47  1  0
 21 48  1  0
 22 49  1  0
M  CHG  2   8   1  16   1
M  END
>  <UniqueID>  (1) 
1

>  <SMILES>  (1) 
CCN(CC)CC[NH2+]c1c2ccccc2[n+](C)c2ncccc12

>  <Energy>  (1) 
73.25324577677195

>  <Genealogy>  (1) 
CCN(CC)CC[NH2+]c1c2ccccc2[n+](C)c2ncccc12 (protonated)
CCN(CC)CC[NH2+]c1c2ccccc2[n+](C)c2ncccc12 (3D coordinates assigned)
CCN(CC)CC[NH2+]c1c2ccccc2[n+](C)c2ncccc12 (optimized conformer: 73.25324577677195 kcal/mol)

>  <smiles>  (1) 
CCN(CC)CCNc1c2ccccc2[n+](C)c2ncccc12

>  <score_type>  (1) 
oracle

>  <origin>  (1) 
adg

>  <m_score__min__energy>  (1) 
-3.8900000000000001

>  <m_primary>  (1) 
energy

$$$$
1:0
     RDKit          3D

 44 47  0  0  0  0  0  0  0  0999 V2000
   66.7980   32.9110   51.1210 C   0  0  0  0  0  0  0  0  0  0  0  0
   65.3580   33.0310   50.7170 C   0  0  0  0  0  0  0  0  0  0  0  0
   64.3540   33.1650   51.7040 C   0  0  0  0  0  0  0  0  0  0  0  0
   62.9980   33.3100   51.3410 C   0  0  0  0  0  0  0  0  0  0  0  0
   61.9360   33.4700   52.3900 C   0  0  0  0  0  0  0  0  0  0  0  0
   62.6770   33.3550   49.9770 C   0  0  0  0  0  0  0  0  0  0  0  0
   61.4200   33.5120   49.4850 N   0  0  0  0  0  0  0  0  0  0  0  0
   61.4230   33.5220   48.1280 C   0  0  0  0  0  0  0  0  0  0  0  0
   60.2250   33.6670   47.3410 N   0  0  0  0  0  0  0  0  0  0  0  0
   60.2940   34.2140   45.9800 C   0  0  0  0  0  0  0  0  0  0  0  0
   58.9200   34.7280   45.5240 C   0  0  0  0  0  0  0  0  0  0  0  0
   57.8400   33.7230   45.6880 N   0  0  0  0  0  0  0  0  0  0  0  0
   57.3940   33.1070   44.4200 C   0  0  0  0  0  0  0  0  0  0  0  0
   57.3540   31.6030   44.4750 C   0  0  0  0  0  0  0  0  0  0  0  0
   58.3970   30.7540   44.1590 C   0  0  0  0  0  0  0  0  0  0  0  0
   57.9140   29.4800   44.3690 C   0  0  0  0  0  0  0  0  0  0  0  0
   56.6110   29.6300   44.7980 C   0  0  0  0  0  0  0  0  0  0  0  0
   56.3070   30.9060   44.8500 O   0  0  0  0  0  0  0  0  0  0  0  0
   58.0330   32.7360   46.7740 C   0  0  0  0  0  0  0  0  0  0  0  0
   58.9250   33.2770   47.8950 C   0  0  0  0  0  0  0  0  0  0  0  0
   62.9850   33.3340   47.4910 S   0  0  0  0  0  0  0  0  0  0  0  0
   63.6710   33.2400   49.0190 C   0  0  0  0  0  0  0  0  0  0  0  0
   65.0120   33.0830   49.3540 C   0  0  0  0  0  0  0  0  0  0  0  0
   66.8716   32.9049   52.2185 H   0  0  0  0  0  0  0  0  0  0  0  0
   67.2145   31.9750   50.7203 H   0  0  0  0  0  0  0  0  0  0  0  0
   67.3636   33.7651   50.7203 H   0  0  0  0  0  0  0  0  0  0  0  0
   64.6335   33.1561   52.7679 H   0  0  0  0  0  0  0  0  0  0  0  0
   62.3932   33.4011   53.3881 H   0  0  0  0  0  0  0  0  0  0  0  0
   61.4521   34.4512   52.2752 H   0  0  0  0  0  0  0  0  0  0  0  0
   61.1845   32.6749   52.2752 H   0  0  0  0  0  0  0  0  0  0  0  0
   61.0134   35.0460   45.9625 H   0  0  0  0  0  0  0  0  0  0  0  0
   60.6140   33.4140   45.2961 H   0  0  0  0  0  0  0  0  0  0  0  0
   58.6639   35.6176   46.1182 H   0  0  0  0  0  0  0  0  0  0  0  0
   58.9948   34.9578   44.4509 H   0  0  0  0  0  0  0  0  0  0  0  0
   56.3839   33.4757   44.1882 H   0  0  0  0  0  0  0  0  0  0  0  0
   58.1231   33.3872   43.6454 H   0  0  0  0  0  0  0  0  0  0  0  0
   59.4023   31.0356   43.8124 H   0  0  0  0  0  0  0  0  0  0  0  0
   58.4575   28.5347   44.2239 H   0  0  0  0  0  0  0  0  0  0  0  0
   55.9304   28.8055   45.0571 H   0  0  0  0  0  0  0  0  0  0  0  0
   57.0508   32.4773   47.1964 H   0  0  0  0  0  0  0  0  0  0  0  0
   58.5288   31.8532   46.3440 H   0  0  0  0  0  0  0  0  0  0  0  0
   58.4448   34.1533   48.3549 H   0  0  0  0  0  0  0  0  0  0  0  0
   59.0705   32.4964   48.6563 H   0  0  0  0  0  0  0  0  0  0  0  0
   65.7825   33.0016   48.5731 H   0  0  0  0  0  0  0  0  0  0  0  0
  1  2  1  0
  2  3  2  0
  3  4  1  0
  4  5  1  0
  4  6  2  0
  6  7  1  0
  7  8  2  0
  8  9  1  0
  9 10  1  0
 10 11  1  0
 11 12  1  0
 12 13  1  0
 13 14  1  0
 14 15  2  0
 15 16  1  0
 16 17  2  0
 17 18  1  0
 12 19  1  0
 19 20  1  0
  8 21  1  0
 21 22  1  0
 22 23  2  0
 23  2  1  0
 22  6  1  0
 20  9  1  0
 18 14  1  0
  1 24  1  0
  1 25  1  0
  1 26  1  0
  3 27  1  0
  5 28  1  0
  5 29  1  0
  5 30  1  0
 10 31  1  0
 10 32  1  0
 11 33  1  0
 11 34  1  0
 13 35  1  0
 13 36  1  0
 15 37  1  0
 16 38  1  0
 17 39  1  0
 19 40  1  0
 19 41  1  0
 20 42  1  0
 20 43  1  0
 23 44  1  0
M  END
>  <UniqueID>  (2) 
2

>  <SMILES>  (2) 
Cc1cc(C)c2nc(N3CCN(Cc4ccco4)CC3)sc2c1

>  <Energy>  (2) 
113.62998670674287

>  <Genealogy>  (2) 
Cc1cc(C)c2nc(N3CCN(Cc4ccco4)CC3)sc2c1 (3D coordinates assigned)
Cc1cc(C)c2nc(N3CCN(Cc4ccco4)CC3)sc2c1 (nonaromatic ring conformer: 113.62998670674287 kcal/mol)

>  <smiles>  (2) 
Cc1cc(C)c2nc(N3CCN(Cc4ccco4)CC3)sc2c1

>  <score_type>  (2) 
oracle

>  <origin>  (2) 
adg

>  <m_score__min__energy>  (2) 
-7.5899999999999999

>  <m_primary>  (2) 
energy

$$$$
2:0
     RDKit          3D

 48 50  0  0  0  0  0  0  0  0999 V2000
   58.2240   22.5530   45.5220 C   0  0  0  0  0  0  0  0  0  0  0  0
   58.2590   23.6010   46.4860 O   0  0  0  0  0  0  0  0  0  0  0  0
   58.0810   24.9590   46.1860 C   0  0  0  0  0  0  0  0  0  0  0  0
   58.0150   25.9510   47.1840 C   0  0  0  0  0  0  0  0  0  0  0  0
   57.8380   27.2930   46.8330 C   0  0  0  0  0  0  0  0  0  0  0  0
   57.7300   27.6660   45.4850 C   0  0  0  0  0  0  0  0  0  0  0  0
   57.5410   29.0460   45.1290 N   0  0  0  0  0  0  0  0  0  0  0  0
   56.3620   29.6330   44.8390 C   0  0  0  0  0  0  0  0  0  0  0  0
   55.1390   28.9710   44.8390 O   0  0  0  0  0  0  0  0  0  0  0  0
   56.5310   30.9620   44.5170 C   0  0  0  0  0  0  0  0  0  0  0  0
   57.8900   31.2030   44.6190 C   0  0  0  0  0  0  0  0  0  0  0  0
   58.5680   32.5180   44.3270 C   0  0  0  0  0  0  0  0  0  0  0  0
   57.9070   33.6490   45.0280 N   0  0  0  0  0  0  0  0  0  0  0  0
   57.4050   33.2700   46.3770 C   0  0  0  0  0  0  0  0  0  0  0  0
   58.4060   33.5680   47.5130 C   0  0  0  0  0  0  0  0  0  0  0  0
   59.7830   33.5220   47.0000 N   0  0  0  0  0  0  0  0  0  0  0  0
   60.7500   33.6110   48.1030 C   0  0  0  0  0  0  0  0  0  0  0  0
   60.0150   34.6020   46.0180 C   0  0  0  0  0  0  0  0  0  0  0  0
   58.7940   34.8320   45.0990 C   0  0  0  0  0  0  0  0  0  0  0  0
   58.4870   30.0080   45.0090 C   0  0  0  0  0  0  0  0  0  0  0  0
   59.9560   29.7980   45.2460 C   0  0  0  0  0  0  0  0  0  0  0  0
   57.7880   26.6760   44.4920 C   0  0  0  0  0  0  0  0  0  0  0  0
   57.9650   25.3350   44.8430 C   0  0  0  0  0  0  0  0  0  0  0  0
   58.1916   21.5817   46.0373 H   0  0  0  0  0  0  0  0  0  0  0  0
   57.3291   22.6639   44.8921 H   0  0  0  0  0  0  0  0  0  0  0  0
   59.1243   22.6040   44.8921 H   0  0  0  0  0  0  0  0  0  0  0  0
   58.1030   25.6689   48.2436 H   0  0  0  0  0  0  0  0  0  0  0  0
   57.7831   28.0609   47.6187 H   0  0  0  0  0  0  0  0  0  0  0  0
   55.7481   31.6821   44.2369 H   0  0  0  0  0  0  0  0  0  0  0  0
   59.6158   32.4589   44.6564 H   0  0  0  0  0  0  0  0  0  0  0  0
   58.5028   32.7026   43.2446 H   0  0  0  0  0  0  0  0  0  0  0  0
   57.0800   33.9430   44.4570 H   0  0  0  0  0  0  0  0  0  0  0  0
   56.4787   33.8297   46.5736 H   0  0  0  0  0  0  0  0  0  0  0  0
   57.2414   32.1823   46.3673 H   0  0  0  0  0  0  0  0  0  0  0  0
   58.2038   34.5687   47.9225 H   0  0  0  0  0  0  0  0  0  0  0  0
   58.2908   32.8098   48.3016 H   0  0  0  0  0  0  0  0  0  0  0  0
   60.2161   33.5619   49.0635 H   0  0  0  0  0  0  0  0  0  0  0  0
   61.4612   32.7745   48.0356 H   0  0  0  0  0  0  0  0  0  0  0  0
   61.2965   34.5632   48.0356 H   0  0  0  0  0  0  0  0  0  0  0  0
   60.2292   35.5341   46.5614 H   0  0  0  0  0  0  0  0  0  0  0  0
   60.8621   34.3031   45.3832 H   0  0  0  0  0  0  0  0  0  0  0  0
   58.2159   35.6836   45.4871 H   0  0  0  0  0  0  0  0  0  0  0  0
   59.1715   35.0280   44.0846 H   0  0  0  0  0  0  0  0  0  0  0  0
   60.1525   29.7699   46.3279 H   0  0  0  0  0  0  0  0  0  0  0  0
   60.2683   28.8461   44.7918 H   0  0  0  0  0  0  0  0  0  0  0  0
   60.5225   30.6243   44.7918 H   0  0  0  0  0  0  0  0  0  0  0  0
   57.6937   26.9569   43.4326 H   0  0  0  0  0  0  0  0  0  0  0  0
   58.0136   24.5677   44.0563 H   0  0  0  0  0  0  0  0  0  0  0  0
  1  2  1  0
  2  3  1  0
  3  4  2  0
  4  5  1  0
  5  6  2  0
  6  7  1  0
  7  8  1  0
  8  9  1  0
  8 10  2  0
 10 11  1  0
 11 12  1  0
 12 13  1  0
 13 14  1  0
 14 15  1  0
 15 16  1  0
 16 17  1  0
 16 18  1  0
 18 19  1  0
 11 20  2  0
 20 21  1  0
  6 22  1  0
 22 23  2  0
 23  3  1  0
 20  7  1  0
 19 13  1  0
  1 24  1  0
  1 25  1  0
  1 26  1  0
  4 27  1  0
  5 28  1  0
 10 29  1  0
 12 30  1  0
 12 31  1  0
 13 32  1  0
 14 33  1  0
 14 34  1  0
 15 35  1  0
 15 36  1  0
 17 37  1  0
 17 38  1  0
 17 39  1  0
 18 40  1  0
 18 41  1  0
 19 42  1  0
 19 43  1  0
 21 44  1  0
 21 45  1  0
 21 46  1  0
 22 47  1  0
 23 48  1  0
M  CHG  2   9  -1  13   1
M  END
>  <UniqueID>  (3) 
3

>  <SMILES>  (3) 
COc1ccc(-n2c([O-])cc(C[NH+]3CCN(C)CC3)c2C)cc1

>  <Energy>  (3) 
91.4105282048682

>  <Genealogy>  (3) 
COc1ccc(-n2c([O-])cc(C[NH+]3CCN(C)CC3)c2C)cc1 (protonated)
COc1ccc(-n2c([O-])cc(C[NH+]3CCN(C)CC3)c2C)cc1 (3D coordinates assigned)
COc1ccc(-n2c([O-])cc(C[NH+]3CCN(C)CC3)c2C)cc1 (nonaromatic ring conformer: 91.4105282048682 kcal/mol)

>  <smiles>  (3) 
COc1ccc(-n2c(O)cc(CN3CCN(C)CC3)c2C)cc1

>  <score_type>  (3) 
oracle

>  <origin>  (3) 
adg

>  <m_score__min__energy>  (3) 
-9.25

>  <m_primary>  (3) 
energy

$$$$
3:0
     RDKit          3D

 51 53  0  0  0  0  0  0  0  0999 V2000
   58.4170   33.0800   43.6970 C   0  0  0  0  0  0  0  0  0  0  0  0
   57.3650   33.8130   44.5250 C   0  0  0  0  0  0  0  0  0  0  0  0
   57.9620   34.5700   45.5590 O   0  0  0  0  0  0  0  0  0  0  0  0
   59.2700   34.9710   45.2040 C   0  0  0  0  0  0  0  0  0  0  0  0
   60.2440   34.6200   46.3350 C   0  0  0  0  0  0  0  0  0  0  0  0
   59.5760   34.0900   47.5440 N   0  0  0  0  0  0  0  0  0  0  0  0
   60.0590   32.7670   47.9300 C   0  0  0  0  0  0  0  0  0  0  0  0
   61.2080   32.6430   48.7640 C   0  0  0  0  0  0  0  0  0  0  0  0
   61.9470   33.7770   49.1920 C   0  0  0  0  0  0  0  0  0  0  0  0
   63.0990   33.6410   49.9610 C   0  0  0  0  0  0  0  0  0  0  0  0
   63.5540   32.3810   50.3150 C   0  0  0  0  0  0  0  0  0  0  0  0
   62.8410   31.2490   49.9310 C   0  0  0  0  0  0  0  0  0  0  0  0
   61.6360   31.3550   49.1870 C   0  0  0  0  0  0  0  0  0  0  0  0
   60.8980   30.2380   48.8680 N   0  0  0  0  0  0  0  0  0  0  0  0
   61.1430   28.9640   49.5830 C   0  0  0  0  0  0  0  0  0  0  0  0
   59.9060   30.3120   47.9100 C   0  0  0  0  0  0  0  0  0  0  0  0
   59.3550   29.1350   47.3430 C   0  0  0  0  0  0  0  0  0  0  0  0
   58.2920   29.1850   46.4300 C   0  0  0  0  0  0  0  0  0  0  0  0
   57.7210   28.0250   45.8780 O   0  0  0  0  0  0  0  0  0  0  0  0
   58.2630   27.2950   44.7810 C   0  0  0  0  0  0  0  0  0  0  0  0
   57.7710   30.4180   46.0490 C   0  0  0  0  0  0  0  0  0  0  0  0
   56.6930   30.4310   45.1490 O   0  0  0  0  0  0  0  0  0  0  0  0
   56.7890   30.1480   43.7560 C   0  0  0  0  0  0  0  0  0  0  0  0
   58.3380   31.5990   46.5580 C   0  0  0  0  0  0  0  0  0  0  0  0
   59.4280   31.5740   47.4640 C   0  0  0  0  0  0  0  0  0  0  0  0
   59.1313   32.5823   44.3693 H   0  0  0  0  0  0  0  0  0  0  0  0
   57.9255   32.3278   43.0625 H   0  0  0  0  0  0  0  0  0  0  0  0
   58.9524   33.8016   43.0625 H   0  0  0  0  0  0  0  0  0  0  0  0
   56.7982   34.4886   43.8675 H   0  0  0  0  0  0  0  0  0  0  0  0
   56.6993   33.0656   44.9814 H   0  0  0  0  0  0  0  0  0  0  0  0
   59.5750   34.4503   44.2843 H   0  0  0  0  0  0  0  0  0  0  0  0
   59.2843   36.0580   45.0357 H   0  0  0  0  0  0  0  0  0  0  0  0
   60.9485   33.8606   45.9650 H   0  0  0  0  0  0  0  0  0  0  0  0
   60.7511   35.5515   46.6268 H   0  0  0  0  0  0  0  0  0  0  0  0
   58.5420   34.1400   47.4400 H   0  0  0  0  0  0  0  0  0  0  0  0
   59.7370   34.7530   48.3350 H   0  0  0  0  0  0  0  0  0  0  0  0
   61.6024   34.7829   48.9103 H   0  0  0  0  0  0  0  0  0  0  0  0
   63.6493   34.5354   50.2884 H   0  0  0  0  0  0  0  0  0  0  0  0
   64.4795   32.2753   50.9000 H   0  0  0  0  0  0  0  0  0  0  0  0
   63.2179   30.2537   50.2090 H   0  0  0  0  0  0  0  0  0  0  0  0
   61.1091   29.1402   50.6683 H   0  0  0  0  0  0  0  0  0  0  0  0
   60.3689   28.2333   49.3058 H   0  0  0  0  0  0  0  0  0  0  0  0
   62.1329   28.5725   49.3058 H   0  0  0  0  0  0  0  0  0  0  0  0
   59.7722   28.1575   47.6267 H   0  0  0  0  0  0  0  0  0  0  0  0
   58.8785   26.4660   45.1605 H   0  0  0  0  0  0  0  0  0  0  0  0
   57.4434   26.8923   44.1678 H   0  0  0  0  0  0  0  0  0  0  0  0
   58.8856   27.9631   44.1678 H   0  0  0  0  0  0  0  0  0  0  0  0
   57.1395   29.1149   43.6150 H   0  0  0  0  0  0  0  0  0  0  0  0
   55.8003   30.2668   43.2887 H   0  0  0  0  0  0  0  0  0  0  0  0
   57.5014   30.8438   43.2887 H   0  0  0  0  0  0  0  0  0  0  0  0
   57.9247   32.5691   46.2448 H   0  0  0  0  0  0  0  0  0  0  0  0
  1  2  1  0
  2  3  1  0
  3  4  1  0
  4  5  1  0
  5  6  1  0
  6  7  1  0
  7  8  2  0
  8  9  1  0
  9 10  2  0
 10 11  1  0
 11 12  2  0
 12 13  1  0
 13 14  2  0
 14 15  1  0
 14 16  1  0
 16 17  2  0
 17 18  1  0
 18 19  1  0
 19 20  1  0
 18 21  2  0
 21 22  1  0
 22 23  1  0
 21 24  1  0
 24 25  2  0
 25  7  1  0
 13  8  1  0
 25 16  1  0
  1 26  1  0
  1 27  1  0
  1 28  1  0
  2 29  1  0
  2 30  1  0
  4 31  1  0
  4 32  1  0
  5 33  1  0
  5 34  1  0
  6 35  1  0
  6 36  1  0
  9 37  1  0
 10 38  1  0
 11 39  1  0
 12 40  1  0
 15 41  1  0
 15 42  1  0
 15 43  1  0
 17 44  1  0
 20 45  1  0
 20 46  1  0
 20 47  1  0
 23 48  1  0
 23 49  1  0
 23 50  1  0
 24 51  1  0
M  CHG  2   6   1  14   1
M  END
>  <UniqueID>  (4) 
4

>  <SMILES>  (4) 
CCOCC[NH2+]c1c2ccccc2[n+](C)c2cc(OC)c(OC)cc12

>  <Energy>  (4) 
79.52709479083596

>  <Genealogy>  (4) 
CCOCC[NH2+]c1c2ccccc2[n+](C)c2cc(OC)c(OC)cc12 (protonated)
CCOCC[NH2+]c1c2ccccc2[n+](C)c2cc(OC)c(OC)cc12 (3D coordinates assigned)
CCOCC[NH2+]c1c2ccccc2[n+](C)c2cc(OC)c(OC)cc12 (optimized conformer: 79.52709479083596 kcal/mol)

>  <smiles>  (4) 
CCOCCNc1c2ccccc2[n+](C)c2cc(OC)c(OC)cc12

>  <score_type>  (4) 
oracle

>  <origin>  (4) 
adg

>  <m_score__min__energy>  (4) 
-3.79

>  <m_primary>  (4) 
energy

$$$$
4:0
     RDKit          3D

 50 52  0  0  0  0  0  0  0  0999 V2000
   55.7790   29.8530   43.7240 C   0  0  0  0  0  0  0  0  0  0  0  0
   56.9830   30.7600   43.4890 C   0  0  0  0  0  0  0  0  0  0  0  0
   57.7480   30.9340   44.7260 N   0  0  0  0  0  0  0  0  0  0  0  0
   58.0110   32.0880   45.3970 C   0  0  0  0  0  0  0  0  0  0  0  0
   57.4610   33.7160   44.8770 S   0  0  0  0  0  0  0  0  0  0  0  0
   58.4940   34.5930   46.0970 C   0  0  0  0  0  0  0  0  0  0  0  0
   59.9460   34.7020   45.6310 C   0  0  0  0  0  0  0  0  0  0  0  0
   60.6940   33.5420   46.0030 O   0  0  0  0  0  0  0  0  0  0  0  0
   61.6670   33.4590   47.0130 C   0  0  0  0  0  0  0  0  0  0  0  0
   63.0510   33.5400   46.7510 C   0  0  0  0  0  0  0  0  0  0  0  0
   63.9740   33.4540   47.7940 C   0  0  0  0  0  0  0  0  0  0  0  0
   63.5340   33.2940   49.1070 C   0  0  0  0  0  0  0  0  0  0  0  0
   62.1680   33.2220   49.3830 C   0  0  0  0  0  0  0  0  0  0  0  0
   61.2250   33.3060   48.3390 C   0  0  0  0  0  0  0  0  0  0  0  0
   59.8440   33.2370   48.5770 O   0  0  0  0  0  0  0  0  0  0  0  0
   59.2550   33.0370   49.8580 C   0  0  0  0  0  0  0  0  0  0  0  0
   58.7640   31.8890   46.5040 N   0  0  0  0  0  0  0  0  0  0  0  0
   58.9680   30.5630   46.5310 C   0  0  0  0  0  0  0  0  0  0  0  0
   59.6810   29.8250   47.4690 C   0  0  0  0  0  0  0  0  0  0  0  0
   59.7660   28.4240   47.2910 C   0  0  0  0  0  0  0  0  0  0  0  0
   60.5360   27.6050   48.2920 C   0  0  0  0  0  0  0  0  0  0  0  0
   59.1330   27.8110   46.1630 C   0  0  0  0  0  0  0  0  0  0  0  0
   59.2090   26.3230   45.9460 C   0  0  0  0  0  0  0  0  0  0  0  0
   58.4180   28.6070   45.2380 C   0  0  0  0  0  0  0  0  0  0  0  0
   58.3570   29.9810   45.4610 C   0  0  0  0  0  0  0  0  0  0  0  0
   55.6172   29.7311   44.8052 H   0  0  0  0  0  0  0  0  0  0  0  0
   54.8854   30.3043   43.2681 H   0  0  0  0  0  0  0  0  0  0  0  0
   55.9662   28.8696   43.2681 H   0  0  0  0  0  0  0  0  0  0  0  0
   57.6314   30.3086   42.7236 H   0  0  0  0  0  0  0  0  0  0  0  0
   56.6247   31.7442   43.1528 H   0  0  0  0  0  0  0  0  0  0  0  0
   58.0897   35.6053   46.2450 H   0  0  0  0  0  0  0  0  0  0  0  0
   58.4764   34.0214   47.0367 H   0  0  0  0  0  0  0  0  0  0  0  0
   59.9651   34.8060   44.5361 H   0  0  0  0  0  0  0  0  0  0  0  0
   60.4020   35.5806   46.1107 H   0  0  0  0  0  0  0  0  0  0  0  0
   63.4047   33.6718   45.7178 H   0  0  0  0  0  0  0  0  0  0  0  0
   65.0513   33.5126   47.5796 H   0  0  0  0  0  0  0  0  0  0  0  0
   64.2644   33.2244   49.9265 H   0  0  0  0  0  0  0  0  0  0  0  0
   61.8254   33.0990   50.4210 H   0  0  0  0  0  0  0  0  0  0  0  0
   59.9867   33.2855   50.6408 H   0  0  0  0  0  0  0  0  0  0  0  0
   58.3729   33.6860   49.9613 H   0  0  0  0  0  0  0  0  0  0  0  0
   58.9504   31.9851   49.9613 H   0  0  0  0  0  0  0  0  0  0  0  0
   59.1040   32.6060   47.1830 H   0  0  0  0  0  0  0  0  0  0  0  0
   60.1655   30.3166   48.3255 H   0  0  0  0  0  0  0  0  0  0  0  0
   60.2511   27.9080   49.3104 H   0  0  0  0  0  0  0  0  0  0  0  0
   60.3054   26.5390   48.1486 H   0  0  0  0  0  0  0  0  0  0  0  0
   61.6141   27.7695   48.1486 H   0  0  0  0  0  0  0  0  0  0  0  0
   59.2351   25.8114   46.9194 H   0  0  0  0  0  0  0  0  0  0  0  0
   58.3267   25.9895   45.3800 H   0  0  0  0  0  0  0  0  0  0  0  0
   60.1207   26.0811   45.3800 H   0  0  0  0  0  0  0  0  0  0  0  0
   57.9235   28.1536   44.3662 H   0  0  0  0  0  0  0  0  0  0  0  0
  1  2  1  0
  2  3  1  0
  3  4  1  0
  4  5  1  0
  5  6  1  0
  6  7  1  0
  7  8  1  0
  8  9  1  0
  9 10  2  0
 10 11  1  0
 11 12  2  0
 12 13  1  0
 13 14  2  0
 14 15  1  0
 15 16  1  0
  4 17  2  0
 17 18  1  0
 18 19  2  0
 19 20  1  0
 20 21  1  0
 20 22  2  0
 22 23  1  0
 22 24  1  0
 24 25  2  0
 25  3  1  0
 14  9  1  0
 25 18  1  0
  1 26  1  0
  1 27  1  0
  1 28  1  0
  2 29  1  0
  2 30  1  0
  6 31  1  0
  6 32  1  0
  7 33  1  0
  7 34  1  0
 10 35  1  0
 11 36  1  0
 12 37  1  0
 13 38  1  0
 16 39  1  0
 16 40  1  0
 16 41  1  0
 17 42  1  0
 19 43  1  0
 21 44  1  0
 21 45  1  0
 21 46  1  0
 23 47  1  0
 23 48  1  0
 23 49  1  0
 24 50  1  0
M  CHG  1  17   1
M  END
>  <UniqueID>  (5) 
5

>  <SMILES>  (5) 
CCn1c(SCCOc2ccccc2OC)[nH+]c2cc(C)c(C)cc21

>  <Energy>  (5) 
83.27434541106553

>  <Genealogy>  (5) 
CCn1c(SCCOc2ccccc2OC)[nH+]c2cc(C)c(C)cc21 (protonated)
CCn1c(SCCOc2ccccc2OC)[nH+]c2cc(C)c(C)cc21 (3D coordinates assigned)
CCn1c(SCCOc2ccccc2OC)[nH+]c2cc(C)c(C)cc21 (optimized conformer: 83.27434541106553 kcal/mol)

>  <smiles>  (5) 
CCn1c(SCCOc2ccccc2OC)nc2cc(C)c(C)cc21

>  <score_type>  (5) 
oracle

>  <origin>  (5) 
adg

>  <m_score__min__energy>  (5) 
-5.4100000000000001

>  <m_primary>  (5) 
energy

$$$$
5:0
     RDKit          3D

 56 59  0  0  0  0  0  0  0  0999 V2000
   60.4400   28.9300   45.0440 C   0  0  0  0  0  0  0  0  0  0  0  0
   59.5200   29.4780   46.1320 C   0  0  0  0  0  0  0  0  0  0  0  0
   58.1790   29.7790   45.5770 N   0  0  0  0  0  0  0  0  0  0  0  0
   57.3620   28.5500   45.5160 C   0  0  0  0  0  0  0  0  0  0  0  0
   58.3010   30.3970   44.2350 C   0  0  0  0  0  0  0  0  0  0  0  0
   57.2580   31.4970   44.0110 C   0  0  0  0  0  0  0  0  0  0  0  0
   56.8870   32.0550   45.2560 O   0  0  0  0  0  0  0  0  0  0  0  0
   57.1330   33.4490   45.2870 C   0  0  0  0  0  0  0  0  0  0  0  0
   58.3280   33.8000   46.1840 C   0  0  0  0  0  0  0  0  0  0  0  0
   58.8650   32.6020   46.8310 N   0  0  0  0  0  0  0  0  0  0  0  0
   59.7770   32.6580   47.9420 C   0  0  0  0  0  0  0  0  0  0  0  0
   61.1270   33.0630   47.7860 C   0  0  0  0  0  0  0  0  0  0  0  0
   61.6400   33.4000   46.5160 C   0  0  0  0  0  0  0  0  0  0  0  0
   62.9550   33.8360   46.3720 C   0  0  0  0  0  0  0  0  0  0  0  0
   63.7790   33.9560   47.4860 C   0  0  0  0  0  0  0  0  0  0  0  0
   63.3080   33.6120   48.7520 C   0  0  0  0  0  0  0  0  0  0  0  0
   61.9920   33.1210   48.9330 C   0  0  0  0  0  0  0  0  0  0  0  0
   61.5310   32.7240   50.1810 N   0  0  0  0  0  0  0  0  0  0  0  0
   62.4420   32.5140   51.3190 C   0  0  0  0  0  0  0  0  0  0  0  0
   60.1910   32.4610   50.3150 C   0  0  0  0  0  0  0  0  0  0  0  0
   59.3380   32.3990   49.2360 C   0  0  0  0  0  0  0  0  0  0  0  0
   58.1120   32.1080   49.6150 O   0  0  0  0  0  0  0  0  0  0  0  0
   58.1310   31.9930   50.9240 C   0  0  0  0  0  0  0  0  0  0  0  0
   57.0450   31.7190   51.7520 C   0  0  0  0  0  0  0  0  0  0  0  0
   57.2600   31.7020   53.1400 C   0  0  0  0  0  0  0  0  0  0  0  0
   58.5400   31.9740   53.6680 C   0  0  0  0  0  0  0  0  0  0  0  0
   59.6230   32.2470   52.8140 C   0  0  0  0  0  0  0  0  0  0  0  0
   59.3970   32.2150   51.4320 C   0  0  0  0  0  0  0  0  0  0  0  0
   61.2960   28.4201   45.5102 H   0  0  0  0  0  0  0  0  0  0  0  0
   59.8838   28.2159   44.4189 H   0  0  0  0  0  0  0  0  0  0  0  0
   60.8031   29.7591   44.4189 H   0  0  0  0  0  0  0  0  0  0  0  0
   59.4206   28.7299   46.9323 H   0  0  0  0  0  0  0  0  0  0  0  0
   59.9555   30.4059   46.5311 H   0  0  0  0  0  0  0  0  0  0  0  0
   57.1355   28.2092   46.5371 H   0  0  0  0  0  0  0  0  0  0  0  0
   56.4231   28.7600   44.9828 H   0  0  0  0  0  0  0  0  0  0  0  0
   57.9190   27.7655   44.9828 H   0  0  0  0  0  0  0  0  0  0  0  0
   59.3053   30.8347   44.1359 H   0  0  0  0  0  0  0  0  0  0  0  0
   58.1324   29.6117   43.4834 H   0  0  0  0  0  0  0  0  0  0  0  0
   57.6851   32.2822   43.3699 H   0  0  0  0  0  0  0  0  0  0  0  0
   56.3709   31.0673   43.5227 H   0  0  0  0  0  0  0  0  0  0  0  0
   57.3421   33.7960   44.2643 H   0  0  0  0  0  0  0  0  0  0  0  0
   56.2409   33.9433   45.6991 H   0  0  0  0  0  0  0  0  0  0  0  0
   59.1156   34.2616   45.5704 H   0  0  0  0  0  0  0  0  0  0  0  0
   57.9893   34.4985   46.9634 H   0  0  0  0  0  0  0  0  0  0  0  0
   58.6770   31.6780   46.3820 H   0  0  0  0  0  0  0  0  0  0  0  0
   60.9943   33.3176   45.6293 H   0  0  0  0  0  0  0  0  0  0  0  0
   63.3432   34.0863   45.3737 H   0  0  0  0  0  0  0  0  0  0  0  0
   64.8086   34.3246   47.3673 H   0  0  0  0  0  0  0  0  0  0  0  0
   63.9689   33.7237   49.6242 H   0  0  0  0  0  0  0  0  0  0  0  0
   61.8879   32.6417   52.2606 H   0  0  0  0  0  0  0  0  0  0  0  0
   62.8575   31.4965   51.2732 H   0  0  0  0  0  0  0  0  0  0  0  0
   63.2610   33.2469   51.2732 H   0  0  0  0  0  0  0  0  0  0  0  0
   56.0480   31.5217   51.3312 H   0  0  0  0  0  0  0  0  0  0  0  0
   56.4253   31.4752   53.8196 H   0  0  0  0  0  0  0  0  0  0  0  0
   58.6918   31.9724   54.7575 H   0  0  0  0  0  0  0  0  0  0  0  0
   60.6189   32.4790   53.2194 H   0  0  0  0  0  0  0  0  0  0  0  0
  1  2  1  0
  2  3  1  0
  3  4  1  0
  3  5  1  0
  5  6  1  0
  6  7  1  0
  7  8  1  0
  8  9  1  0
  9 10  1  0
 10 11  1  0
 11 12  2  0
 12 13  1  0
 13 14  2  0
 14 15  1  0
 15 16  2  0
 16 17  1  0
 17 18  2  0
 18 19  1  0
 18 20  1  0
 20 21  2  0
 21 22  1  0
 22 23  1  0
 23 24  2  0
 24 25  1  0
 25 26  2  0
 26 27  1  0
 27 28  2  0
 21 11  1  0
 28 23  1  0
 17 12  1  0
 28 20  1  0
  1 29  1  0
  1 30  1  0
  1 31  1  0
  2 32  1  0
  2 33  1  0
  4 34  1  0
  4 35  1  0
  4 36  1  0
  5 37  1  0
  5 38  1  0
  6 39  1  0
  6 40  1  0
  8 41  1  0
  8 42  1  0
  9 43  1  0
  9 44  1  0
 10 45  1  0
 13 46  1  0
 14 47  1  0
 15 48  1  0
 16 49  1  0
 19 50  1  0
 19 51  1  0
 19 52  1  0
 24 53  1  0
 25 54  1  0
 26 55  1  0
 27 56  1  0
M  CHG  1  18   1
M  END
>  <UniqueID>  (6) 
6

>  <SMILES>  (6) 
CCN(C)CCOCCNc1c2ccccc2[n+](C)c2c1oc1ccccc12

>  <Energy>  (6) 
119.71060073448159

>  <Genealogy>  (6) 
CCN(C)CCOCCNc1c2ccccc2[n+](C)c2c1oc1ccccc12 (3D coordinates assigned)
CCN(C)CCOCCNc1c2ccccc2[n+](C)c2c1oc1ccccc12 (optimized conformer: 119.71060073448159 kcal/mol)

>  <smiles>  (6) 
CCN(C)CCOCCNc1c2ccccc2[n+](C)c2c1oc1ccccc12

>  <score_type>  (6) 
oracle

>  <origin>  (6) 
adg

>  <m_score__min__energy>  (6) 
-5.9299999999999997

>  <m_primary>  (6) 
energy

$$$$
6:0
     RDKit          3D

 66 69  0  0  0  0  0  0  0  0999 V2000
   61.6010   31.5780   49.2430 H   0  0  0  0  0  0  0  0  0  0  0  0
   61.5640   31.4740   48.2040 N   0  0  0  0  0  0  0  0  0  0  0  0
   60.5190   30.6690   47.6450 C   0  0  0  0  0  0  0  0  0  0  0  0
   60.1690   29.0830   48.0860 S   0  0  0  0  0  0  0  0  0  0  0  0
   58.8970   28.9380   46.9840 C   0  0  0  0  0  0  0  0  0  0  0  0
   58.0270   27.8600   46.6970 C   0  0  0  0  0  0  0  0  0  0  0  0
   58.0360   26.7060   47.3080 N   0  0  0  0  0  0  0  0  0  0  0  0
   57.8370   25.3570   46.7770 C   0  0  0  0  0  0  0  0  0  0  0  0
   58.2096   25.3212   45.7427 H   0  0  0  0  0  0  0  0  0  0  0  0
   58.3868   24.6497   47.4153 H   0  0  0  0  0  0  0  0  0  0  0  0
   56.3530   24.9630   46.7870 C   0  0  0  0  0  0  0  0  0  0  0  0
   56.1406   24.3688   47.6880 H   0  0  0  0  0  0  0  0  0  0  0  0
   55.7386   25.8754   46.7864 H   0  0  0  0  0  0  0  0  0  0  0  0
   56.0310   24.1630   45.5870 N   0  0  0  0  0  0  0  0  0  0  0  0
   56.8800   24.5520   44.4480 C   0  0  0  0  0  0  0  0  0  0  0  0
   56.6861   25.6042   44.1925 H   0  0  0  0  0  0  0  0  0  0  0  0
   57.9364   24.4227   44.7259 H   0  0  0  0  0  0  0  0  0  0  0  0
   56.5670   23.6630   43.2240 C   0  0  0  0  0  0  0  0  0  0  0  0
   56.4212   24.3102   42.3465 H   0  0  0  0  0  0  0  0  0  0  0  0
   57.4152   22.9765   43.0851 H   0  0  0  0  0  0  0  0  0  0  0  0
   55.4030   22.8760   43.4060 O   0  0  0  0  0  0  0  0  0  0  0  0
   54.3310   23.6970   43.8240 C   0  0  0  0  0  0  0  0  0  0  0  0
   54.2081   24.5220   43.1069 H   0  0  0  0  0  0  0  0  0  0  0  0
   53.4166   23.0871   43.8674 H   0  0  0  0  0  0  0  0  0  0  0  0
   54.6010   24.2810   45.2240 C   0  0  0  0  0  0  0  0  0  0  0  0
   54.3157   25.3433   45.2307 H   0  0  0  0  0  0  0  0  0  0  0  0
   54.0078   23.7152   45.9575 H   0  0  0  0  0  0  0  0  0  0  0  0
   57.0880   28.0540   45.7300 N   0  0  0  0  0  0  0  0  0  0  0  0
   56.9640   29.2170   45.0280 C   0  0  0  0  0  0  0  0  0  0  0  0
   57.8180   30.3030   45.2890 C   0  0  0  0  0  0  0  0  0  0  0  0
   58.7890   30.1520   46.2970 C   0  0  0  0  0  0  0  0  0  0  0  0
   59.6790   31.1110   46.6830 N   0  0  0  0  0  0  0  0  0  0  0  0
   59.7370   32.0780   46.2960 H   0  0  0  0  0  0  0  0  0  0  0  0
   57.6290   31.5630   44.4800 C   0  0  0  0  0  0  0  0  0  0  0  0
   58.5291   32.1898   44.5626 H   0  0  0  0  0  0  0  0  0  0  0  0
   56.7591   32.1167   44.8630 H   0  0  0  0  0  0  0  0  0  0  0  0
   57.3940   31.1980   43.0090 C   0  0  0  0  0  0  0  0  0  0  0  0
   58.3183   30.7562   42.6085 H   0  0  0  0  0  0  0  0  0  0  0  0
   57.1130   32.1250   42.4878 H   0  0  0  0  0  0  0  0  0  0  0  0
   56.2380   30.1900   42.7970 C   0  0  0  0  0  0  0  0  0  0  0  0
   56.5443   29.4804   42.0143 H   0  0  0  0  0  0  0  0  0  0  0  0
   55.3561   30.7890   42.5258 H   0  0  0  0  0  0  0  0  0  0  0  0
   55.8370   29.3780   44.0480 C   0  0  0  0  0  0  0  0  0  0  0  0
   55.5062   28.3793   43.7267 H   0  0  0  0  0  0  0  0  0  0  0  0
   55.0343   29.9318   44.5570 H   0  0  0  0  0  0  0  0  0  0  0  0
   62.3580   32.4020   47.4000 C   0  0  0  0  0  0  0  0  0  0  0  0
   62.3995   32.0424   46.3613 H   0  0  0  0  0  0  0  0  0  0  0  0
   63.3763   32.4610   47.8118 H   0  0  0  0  0  0  0  0  0  0  0  0
   61.7160   33.7950   47.4320 C   0  0  0  0  0  0  0  0  0  0  0  0
   62.2871   34.4698   46.7774 H   0  0  0  0  0  0  0  0  0  0  0  0
   61.7279   34.1635   48.4684 H   0  0  0  0  0  0  0  0  0  0  0  0
   60.3100   33.7410   46.9650 N   0  0  0  0  0  0  0  0  0  0  0  0
   59.3750   33.7240   48.1160 C   0  0  0  0  0  0  0  0  0  0  0  0
   59.2201   32.6846   48.4409 H   0  0  0  0  0  0  0  0  0  0  0  0
   58.4195   34.1709   47.8041 H   0  0  0  0  0  0  0  0  0  0  0  0
   59.9410   34.5330   49.2770 C   0  0  0  0  0  0  0  0  0  0  0  0
   59.6243   34.0803   50.2282 H   0  0  0  0  0  0  0  0  0  0  0  0
   61.0395   34.5364   49.2204 H   0  0  0  0  0  0  0  0  0  0  0  0
   59.5677   35.5662   49.2204 H   0  0  0  0  0  0  0  0  0  0  0  0
   60.0020   34.8700   46.0560 C   0  0  0  0  0  0  0  0  0  0  0  0
   59.8574   35.7854   46.6486 H   0  0  0  0  0  0  0  0  0  0  0  0
   60.8385   35.0068   45.3549 H   0  0  0  0  0  0  0  0  0  0  0  0
   58.7310   34.5740   45.2660 C   0  0  0  0  0  0  0  0  0  0  0  0
   57.9024   34.3810   45.9633 H   0  0  0  0  0  0  0  0  0  0  0  0
   58.4833   35.4385   44.6325 H   0  0  0  0  0  0  0  0  0  0  0  0
   58.8908   33.6890   44.6325 H   0  0  0  0  0  0  0  0  0  0  0  0
  1  2  1  0
  2  3  1  0
  3  4  1  0
  4  5  1  0
  5  6  1  0
  6  7  2  0
  7  8  1  0
  8  9  1  0
  8 10  1  0
  8 11  1  0
 11 12  1  0
 11 13  1  0
 11 14  1  0
 14 15  1  0
 15 16  1  0
 15 17  1  0
 15 18  1  0
 18 19  1  0
 18 20  1  0
 18 21  1  0
 21 22  1  0
 22 23  1  0
 22 24  1  0
 22 25  1  0
 25 26  1  0
 25 27  1  0
  6 28  1  0
 28 29  1  0
 29 30  2  0
 30 31  1  0
 31 32  1  0
 32 33  1  0
 30 34  1  0
 34 35  1  0
 34 36  1  0
 34 37  1  0
 37 38  1  0
 37 39  1  0
 37 40  1  0
 40 41  1  0
 40 42  1  0
 40 43  1  0
 43 44  1  0
 43 45  1  0
  2 46  1  0
 46 47  1  0
 46 48  1  0
 46 49  1  0
 49 50  1  0
 49 51  1  0
 49 52  1  0
 52 53  1  0
 53 54  1  0
 53 55  1  0
 53 56  1  0
 56 57  1  0
 56 58  1  0
 56 59  1  0
 52 60  1  0
 60 61  1  0
 60 62  1  0
 60 63  1  0
 63 64  1  0
 63 65  1  0
 63 66  1  0
 32  3  2  0
 31  5  2  0
 25 14  1  0
 43 29  1  0
M  CHG  2  28  -1  32   1
M  END
>  <UniqueID>  (7) 
7

>  <SMILES>  (7) 
CCN(CC)CCNc1[nH+]c2c3c([n-]/c(=N/CCN4CCOCC4)c2s1)CCCC3

>  <Energy>  (7) 
117.47027191995414

>  <Genealogy>  (7) 
CCN(CC)CCNc1[nH+]c2c3c([n-]c(=NCCN4CCOCC4)c2s1)CCCC3 (protonated)
CCN(CC)CCNc1[nH+]c2c3c([n-]/c(=N/CCN4CCOCC4)c2s1)CCCC3 (cis-trans isomerization)
CCN(CC)CCNc1[nH+]c2c3c([n-]/c(=N/CCN4CCOCC4)c2s1)CCCC3 (3D coordinates assigned)
CCN(CC)CCNc1[nH+]c2c3c([n-]/c(=N/CCN4CCOCC4)c2s1)CCCC3 (nonaromatic ring conformer: 117.47027191995414 kcal/mol)

>  <smiles>  (7) 
CCN(CC)CCNc1nc2c3c([nH]c(=NCCN4CCOCC4)c2s1)CCCC3

>  <score_type>  (7) 
oracle

>  <origin>  (7) 
adg

>  <m_score__min__energy>  (7) 
-8.7100000000000009

>  <m_primary>  (7) 
energy

$$$$
7:0
     RDKit          3D

 40 42  0  0  0  0  0  0  0  0999 V2000
   59.3910   35.1100   45.2390 C   0  0  0  0  0  0  0  0  0  0  0  0
   59.1290   33.9160   46.0580 N   0  0  0  0  0  0  0  0  0  0  0  0
   57.7220   33.4470   45.9700 C   0  0  0  0  0  0  0  0  0  0  0  0
   57.3480   32.7280   44.6610 C   0  0  0  0  0  0  0  0  0  0  0  0
   56.7980   31.4420   44.9370 O   0  0  0  0  0  0  0  0  0  0  0  0
   57.4520   30.2280   44.6870 C   0  0  0  0  0  0  0  0  0  0  0  0
   57.0870   29.3690   43.6220 C   0  0  0  0  0  0  0  0  0  0  0  0
   57.7750   28.1590   43.4100 C   0  0  0  0  0  0  0  0  0  0  0  0
   58.8330   27.7870   44.2500 C   0  0  0  0  0  0  0  0  0  0  0  0
   59.1770   28.6420   45.2910 C   0  0  0  0  0  0  0  0  0  0  0  0
   60.3900   28.4520   46.4340 S   0  0  0  0  0  0  0  0  0  0  0  0
   60.0780   29.9050   47.2380 C   0  0  0  0  0  0  0  0  0  0  0  0
   59.0140   30.5530   46.6100 C   0  0  0  0  0  0  0  0  0  0  0  0
   58.5120   29.8380   45.5160 C   0  0  0  0  0  0  0  0  0  0  0  0
   59.6400   34.0940   47.4340 C   0  0  0  0  0  0  0  0  0  0  0  0
   61.0360   33.5430   47.5780 C   0  0  0  0  0  0  0  0  0  0  0  0
   61.3740   32.7760   48.7040 C   0  0  0  0  0  0  0  0  0  0  0  0
   62.6730   32.2800   48.8530 C   0  0  0  0  0  0  0  0  0  0  0  0
   63.6410   32.5480   47.8810 C   0  0  0  0  0  0  0  0  0  0  0  0
   63.3120   33.3140   46.7600 C   0  0  0  0  0  0  0  0  0  0  0  0
   62.0150   33.8110   46.6060 C   0  0  0  0  0  0  0  0  0  0  0  0
   59.5800   35.9714   45.8965 H   0  0  0  0  0  0  0  0  0  0  0  0
   60.2717   34.9331   44.6041 H   0  0  0  0  0  0  0  0  0  0  0  0
   58.5172   35.3181   44.6041 H   0  0  0  0  0  0  0  0  0  0  0  0
   57.5432   32.7510   46.8029 H   0  0  0  0  0  0  0  0  0  0  0  0
   57.0972   34.3515   46.0090 H   0  0  0  0  0  0  0  0  0  0  0  0
   56.6055   33.3300   44.1168 H   0  0  0  0  0  0  0  0  0  0  0  0
   58.2554   32.6035   44.0518 H   0  0  0  0  0  0  0  0  0  0  0  0
   56.2588   29.6495   42.9546 H   0  0  0  0  0  0  0  0  0  0  0  0
   57.4799   27.5012   42.5792 H   0  0  0  0  0  0  0  0  0  0  0  0
   59.3766   26.8442   44.0902 H   0  0  0  0  0  0  0  0  0  0  0  0
   60.6256   30.2797   48.1153 H   0  0  0  0  0  0  0  0  0  0  0  0
   58.6122   31.5226   46.9394 H   0  0  0  0  0  0  0  0  0  0  0  0
   59.6522   35.1672   47.6752 H   0  0  0  0  0  0  0  0  0  0  0  0
   58.9791   33.5467   48.1222 H   0  0  0  0  0  0  0  0  0  0  0  0
   60.6148   32.5645   49.4714 H   0  0  0  0  0  0  0  0  0  0  0  0
   62.9333   31.6782   49.7362 H   0  0  0  0  0  0  0  0  0  0  0  0
   64.6619   32.1557   47.9987 H   0  0  0  0  0  0  0  0  0  0  0  0
   64.0754   33.5264   45.9970 H   0  0  0  0  0  0  0  0  0  0  0  0
   61.7597   34.4135   45.7218 H   0  0  0  0  0  0  0  0  0  0  0  0
  1  2  1  0
  2  3  1  0
  3  4  1  0
  4  5  1  0
  5  6  1  0
  6  7  2  0
  7  8  1  0
  8  9  2  0
  9 10  1  0
 10 11  1  0
 11 12  1  0
 12 13  2  0
 13 14  1  0
  2 15  1  0
 15 16  1  0
 16 17  2  0
 17 18  1  0
 18 19  2  0
 19 20  1  0
 20 21  2  0
 14  6  1  0
 21 16  1  0
 14 10  2  0
  1 22  1  0
  1 23  1  0
  1 24  1  0
  3 25  1  0
  3 26  1  0
  4 27  1  0
  4 28  1  0
  7 29  1  0
  8 30  1  0
  9 31  1  0
 12 32  1  0
 13 33  1  0
 15 34  1  0
 15 35  1  0
 17 36  1  0
 18 37  1  0
 19 38  1  0
 20 39  1  0
 21 40  1  0
M  END
>  <UniqueID>  (8) 
8

>  <SMILES>  (8) 
CN(CCOc1cccc2sccc12)Cc1ccccc1

>  <Energy>  (8) 
75.13424129678657

>  <Genealogy>  (8) 
CN(CCOc1cccc2sccc12)Cc1ccccc1 (3D coordinates assigned)
CN(CCOc1cccc2sccc12)Cc1ccccc1 (optimized conformer: 75.13424129678657 kcal/mol)

>  <smiles>  (8) 
CN(CCOc1cccc2sccc12)Cc1ccccc1

>  <score_type>  (8) 
oracle

>  <origin>  (8) 
adg

>  <m_score__min__energy>  (8) 
-7.3300000000000001

>  <m_primary>  (8) 
energy

$$$$
8:0
     RDKit          3D

 25 25  0  0  0  0  0  0  0  0999 V2000
   57.7830   26.3050   42.9360 C   0  0  0  0  0  0  0  0  0  0  0  0
   57.3960   25.2860   44.0010 C   0  0  0  0  0  0  0  0  0  0  0  0
   57.4640   25.8690   45.3010 O   0  0  0  0  0  0  0  0  0  0  0  0
   56.6350   26.9130   45.7240 C   0  0  0  0  0  0  0  0  0  0  0  0
   55.4310   26.6970   46.0290 O   0  0  0  0  0  0  0  0  0  0  0  0
   57.1450   28.2420   45.8040 N   0  0  0  0  0  0  0  0  0  0  0  0
   56.6360   29.4870   44.7160 S   0  0  0  0  0  0  0  0  0  0  0  0
   56.9910   29.0950   43.3100 O   0  0  0  0  0  0  0  0  0  0  0  0
   55.1450   29.6510   44.8080 O   0  0  0  0  0  0  0  0  0  0  0  0
   57.4540   30.9950   45.1160 C   0  0  0  0  0  0  0  0  0  0  0  0
   57.4000   32.0730   44.2220 C   0  0  0  0  0  0  0  0  0  0  0  0
   58.0630   33.2680   44.5200 C   0  0  0  0  0  0  0  0  0  0  0  0
   58.7870   33.3900   45.7110 C   0  0  0  0  0  0  0  0  0  0  0  0
   59.6210   34.8870   46.0830 Cl  0  0  0  0  0  0  0  0  0  0  0  0
   58.8470   32.3140   46.6040 C   0  0  0  0  0  0  0  0  0  0  0  0
   58.1840   31.1190   46.3080 C   0  0  0  0  0  0  0  0  0  0  0  0
   58.1334   27.2277   43.4216 H   0  0  0  0  0  0  0  0  0  0  0  0
   58.5871   25.8925   42.3089 H   0  0  0  0  0  0  0  0  0  0  0  0
   56.9078   26.5303   42.3089 H   0  0  0  0  0  0  0  0  0  0  0  0
   56.3691   24.9392   43.8135 H   0  0  0  0  0  0  0  0  0  0  0  0
   58.0975   24.4400   43.9543 H   0  0  0  0  0  0  0  0  0  0  0  0
   56.8345   31.9790   43.2832 H   0  0  0  0  0  0  0  0  0  0  0  0
   58.0151   34.1128   43.8172 H   0  0  0  0  0  0  0  0  0  0  0  0
   59.4167   32.4085   47.5402 H   0  0  0  0  0  0  0  0  0  0  0  0
   58.2348   30.2744   47.0109 H   0  0  0  0  0  0  0  0  0  0  0  0
  1  2  1  0
  2  3  1  0
  3  4  1  0
  4  5  2  0
  4  6  1  0
  6  7  1  0
  7  8  2  0
  7  9  2  0
  7 10  1  0
 10 11  2  0
 11 12  1  0
 12 13  2  0
 13 14  1  0
 13 15  1  0
 15 16  2  0
 16 10  1  0
  1 17  1  0
  1 18  1  0
  1 19  1  0
  2 20  1  0
  2 21  1  0
 11 22  1  0
 12 23  1  0
 15 24  1  0
 16 25  1  0
M  CHG  1   6  -1
M  END
>  <UniqueID>  (9) 
9

>  <SMILES>  (9) 
CCOC(=O)[N-]S(=O)(=O)c1ccc(Cl)cc1

>  <Energy>  (9) 
20.053200658966883

>  <Genealogy>  (9) 
CCOC(=O)[N-]S(=O)(=O)c1ccc(Cl)cc1 (protonated)
CCOC(=O)[N-]S(=O)(=O)c1ccc(Cl)cc1 (3D coordinates assigned)
CCOC(=O)[N-]S(=O)(=O)c1ccc(Cl)cc1 (optimized conformer: 20.053200658966883 kcal/mol)

>  <smiles>  (9) 
CCOC(=O)NS(=O)(=O)c1ccc(Cl)cc1

>  <score_type>  (9) 
oracle

>  <origin>  (9) 
adg

>  <m_score__min__energy>  (9) 
-7.9100000000000001

>  <m_primary>  (9) 
energy

$$$$
9:0
     RDKit          3D

 57 60  0  0  0  0  0  0  0  0999 V2000
   63.3310   33.8910   46.3740 C   0  0  0  0  0  0  0  0  0  0  0  0
   63.7090   32.6260   47.1370 C   0  0  0  0  0  0  0  0  0  0  0  0
   63.6050   32.8560   48.5860 N   0  0  0  0  0  0  0  0  0  0  0  0
   63.0860   31.6830   49.3130 C   0  0  0  0  0  0  0  0  0  0  0  0
   61.5570   31.7210   49.4820 C   0  0  0  0  0  0  0  0  0  0  0  0
   61.0210   32.9850   49.0830 O   0  0  0  0  0  0  0  0  0  0  0  0
   60.1950   33.2090   47.9680 C   0  0  0  0  0  0  0  0  0  0  0  0
   59.9440   34.4930   47.4520 C   0  0  0  0  0  0  0  0  0  0  0  0
   59.1330   34.6530   46.3290 C   0  0  0  0  0  0  0  0  0  0  0  0
   58.5580   33.5370   45.7060 C   0  0  0  0  0  0  0  0  0  0  0  0
   58.7540   32.2500   46.2410 C   0  0  0  0  0  0  0  0  0  0  0  0
   59.5970   32.0980   47.3610 C   0  0  0  0  0  0  0  0  0  0  0  0
   58.0960   31.0920   45.5610 C   0  0  0  0  0  0  0  0  0  0  0  0
   57.8940   29.8760   46.2340 C   0  0  0  0  0  0  0  0  0  0  0  0
   57.2800   28.8150   45.5610 C   0  0  0  0  0  0  0  0  0  0  0  0
   57.0540   27.5710   46.1710 O   0  0  0  0  0  0  0  0  0  0  0  0
   57.5760   26.3300   45.7030 C   0  0  0  0  0  0  0  0  0  0  0  0
   56.4430   25.3980   45.2550 C   0  0  1  0  0  0  0  0  0  0  0  0
   56.9700   24.0820   44.6330 C   0  0  0  0  0  0  0  0  0  0  0  0
   55.9470   23.1130   44.6700 O   0  0  0  0  0  0  0  0  0  0  0  0
   55.6510   22.7700   46.0130 C   0  0  0  0  0  0  0  0  0  0  0  0
   55.7150   23.9730   46.9830 C   0  0  0  0  0  0  0  0  0  0  0  0
   55.5020   25.1960   46.3040 O   0  0  0  0  0  0  0  0  0  0  0  0
   56.8900   28.9860   44.2730 N   0  0  0  0  0  0  0  0  0  0  0  0
   57.0590   30.1700   43.6280 C   0  0  0  0  0  0  0  0  0  0  0  0
   56.6850   30.2710   42.4270 O   0  0  0  0  0  0  0  0  0  0  0  0
   57.6310   31.2370   44.2750 N   0  0  0  0  0  0  0  0  0  0  0  0
   57.8330   32.5150   43.5590 C   0  0  0  0  0  0  0  0  0  0  0  0
   57.6760   33.7100   44.5030 C   0  0  0  0  0  0  0  0  0  0  0  0
   63.0915   34.6924   47.0885 H   0  0  0  0  0  0  0  0  0  0  0  0
   64.1749   34.2037   45.7416 H   0  0  0  0  0  0  0  0  0  0  0  0
   62.4538   33.6894   45.7416 H   0  0  0  0  0  0  0  0  0  0  0  0
   63.0287   31.8110   46.8488 H   0  0  0  0  0  0  0  0  0  0  0  0
   64.7461   32.3548   46.8904 H   0  0  0  0  0  0  0  0  0  0  0  0
   62.9910   33.6850   48.7600 H   0  0  0  0  0  0  0  0  0  0  0  0
   63.3564   30.7745   48.7548 H   0  0  0  0  0  0  0  0  0  0  0  0
   63.5327   31.6893   50.3182 H   0  0  0  0  0  0  0  0  0  0  0  0
   61.1084   30.9301   48.8629 H   0  0  0  0  0  0  0  0  0  0  0  0
   61.3214   31.5642   50.5450 H   0  0  0  0  0  0  0  0  0  0  0  0
   60.3892   35.3746   47.9362 H   0  0  0  0  0  0  0  0  0  0  0  0
   58.9435   35.6604   45.9300 H   0  0  0  0  0  0  0  0  0  0  0  0
   59.7876   31.0922   47.7636 H   0  0  0  0  0  0  0  0  0  0  0  0
   58.2154   29.7594   47.2795 H   0  0  0  0  0  0  0  0  0  0  0  0
   58.2461   26.5186   44.8513 H   0  0  0  0  0  0  0  0  0  0  0  0
   58.1270   25.8469   46.5234 H   0  0  0  0  0  0  0  0  0  0  0  0
   55.8995   25.8978   44.4397 H   0  0  0  0  0  0  0  0  0  0  0  0
   57.2699   24.2616   43.5900 H   0  0  0  0  0  0  0  0  0  0  0  0
   57.8401   23.7246   45.2033 H   0  0  0  0  0  0  0  0  0  0  0  0
   54.6364   22.3466   46.0492 H   0  0  0  0  0  0  0  0  0  0  0  0
   56.4146   22.0487   46.3396 H   0  0  0  0  0  0  0  0  0  0  0  0
   54.9401   23.8523   47.7544 H   0  0  0  0  0  0  0  0  0  0  0  0
   56.7168   23.9989   47.4365 H   0  0  0  0  0  0  0  0  0  0  0  0
   56.4440   28.1850   43.7710 H   0  0  0  0  0  0  0  0  0  0  0  0
   58.8450   32.5287   43.1282 H   0  0  0  0  0  0  0  0  0  0  0  0
   57.0732   32.5944   42.7676 H   0  0  0  0  0  0  0  0  0  0  0  0
   57.9596   34.6316   43.9735 H   0  0  0  0  0  0  0  0  0  0  0  0
   56.6281   33.7741   44.8312 H   0  0  0  0  0  0  0  0  0  0  0  0
  1  2  1  0
  2  3  1  0
  3  4  1  0
  4  5  1  0
  5  6  1  0
  6  7  1  0
  7  8  2  0
  8  9  1  0
  9 10  2  0
 10 11  1  0
 11 12  2  0
 11 13  1  0
 13 14  2  0
 14 15  1  0
 15 16  1  0
 16 17  1  0
 17 18  1  0
 18 19  1  0
 19 20  1  0
 20 21  1  0
 21 22  1  0
 22 23  1  0
 15 24  2  0
 24 25  1  0
 25 26  2  0
 25 27  1  0
 27 28  1  0
 28 29  1  0
 12  7  1  0
 27 13  1  0
 29 10  1  0
 23 18  1  0
  1 30  1  0
  1 31  1  0
  1 32  1  0
  2 33  1  0
  2 34  1  0
  3 35  1  0
  4 36  1  0
  4 37  1  0
  5 38  1  0
  5 39  1  0
  8 40  1  0
  9 41  1  0
 12 42  1  0
 14 43  1  0
 17 44  1  0
 17 45  1  0
 18 46  1  6
 19 47  1  0
 19 48  1  0
 21 49  1  0
 21 50  1  0
 22 51  1  0
 22 52  1  0
 24 53  1  0
 28 54  1  0
 28 55  1  0
 29 56  1  0
 29 57  1  0
M  CHG  1  24   1
M  END
>  <UniqueID>  (10) 
10

>  <SMILES>  (10) 
CCNCCOc1ccc2c(c1)-c1cc(OC[C@H]3COCCO3)[nH+]c(=O)n1CC2

>  <Energy>  (10) 
75.88111982161833

>  <Genealogy>  (10) 
CCNCCOc1ccc2c(c1)-c1cc(OCC3COCCO3)[nH+]c(=O)n1CC2 (protonated)
CCNCCOc1ccc2c(c1)-c1cc(OC[C@H]3COCCO3)[nH+]c(=O)n1CC2 (chirality)
CCNCCOc1ccc2c(c1)-c1cc(OC[C@H]3COCCO3)[nH+]c(=O)n1CC2 (3D coordinates assigned)
CCNCCOc1ccc2c(c1)-c1cc(OC[C@H]3COCCO3)[nH+]c(=O)n1CC2 (nonaromatic ring conformer: 75.88111982161833 kcal/mol)

>  <smiles>  (10) 
CCNCCOc1ccc2c(c1)-c1cc(OCC3COCCO3)nc(=O)n1CC2

>  <score_type>  (10) 
oracle

>  <origin>  (10) 
adg

>  <m_score__min__energy>  (10) 
-7.1100000000000003

>  <m_primary>  (10) 
energy

$$$$
10:0
     RDKit          3D

 73 76  0  0  0  0  0  0  0  0999 V2000
   59.4520   33.4620   50.5940 C   0  0  0  0  0  0  0  0  0  0  0  0
   60.8160   33.4620   51.2780 C   0  0  0  0  0  0  0  0  0  0  0  0
   61.8320   33.9160   50.3830 O   0  0  0  0  0  0  0  0  0  0  0  0
   63.2190   33.8130   50.5780 C   0  0  0  0  0  0  0  0  0  0  0  0
   63.8500   34.2780   51.7490 C   0  0  0  0  0  0  0  0  0  0  0  0
   65.2290   34.1290   51.9140 C   0  0  0  0  0  0  0  0  0  0  0  0
   65.9950   33.5240   50.9190 C   0  0  0  0  0  0  0  0  0  0  0  0
   65.3850   33.0650   49.7500 C   0  0  0  0  0  0  0  0  0  0  0  0
   64.0020   33.2140   49.5640 C   0  0  0  0  0  0  0  0  0  0  0  0
   63.3890   32.7270   48.3560 N   0  0  0  0  0  0  0  0  0  0  0  0
   63.7760   33.2460   47.0440 C   0  0  0  0  0  0  0  0  0  0  0  0
   62.5440   33.8360   46.3330 C   0  0  0  0  0  0  0  0  0  0  0  0
   61.2640   33.1450   46.6600 N   0  0  0  0  0  0  0  0  0  0  0  0
   60.3970   33.9190   47.5840 C   0  0  0  0  0  0  0  0  0  0  0  0
   59.2370   34.6150   46.8280 C   0  0  1  0  0  0  0  0  0  0  0  0
   59.6560   34.9720   45.5330 O   0  0  0  0  0  0  0  0  0  0  0  0
   57.9680   33.7510   46.7300 C   0  0  0  0  0  0  0  0  0  0  0  0
   57.7630   33.3100   45.3900 O   0  0  0  0  0  0  0  0  0  0  0  0
   57.8780   31.9770   44.9730 C   0  0  0  0  0  0  0  0  0  0  0  0
   58.9010   31.1950   45.5180 C   0  0  0  0  0  0  0  0  0  0  0  0
   59.0720   29.8670   45.1150 C   0  0  0  0  0  0  0  0  0  0  0  0
   58.2050   29.2970   44.1700 C   0  0  0  0  0  0  0  0  0  0  0  0
   58.3680   27.8510   43.7580 C   0  0  0  0  0  0  0  0  0  0  0  0
   57.5090   26.9290   44.5460 N   0  0  0  0  0  0  0  0  0  0  0  0
   57.0220   27.5820   45.8010 C   0  0  0  0  0  0  0  0  0  0  0  0
   57.6990   27.0720   47.0910 C   0  0  0  0  0  0  0  0  0  0  0  0
   59.1760   26.7620   46.8590 C   0  0  0  0  0  0  0  0  0  0  0  0
   59.3690   25.7210   45.7440 C   0  0  0  0  0  0  0  0  0  0  0  0
   58.1500   25.6160   44.8060 C   0  0  0  0  0  0  0  0  0  0  0  0
   57.1740   30.0780   43.6260 C   0  0  0  0  0  0  0  0  0  0  0  0
   57.0110   31.4080   44.0220 C   0  0  0  0  0  0  0  0  0  0  0  0
   61.4760   31.7580   47.1330 C   0  0  0  0  0  0  0  0  0  0  0  0
   62.3170   31.7290   48.4230 C   0  0  0  0  0  0  0  0  0  0  0  0
   59.1242   32.4249   50.4296 H   0  0  0  0  0  0  0  0  0  0  0  0
   58.7216   33.9805   51.2325 H   0  0  0  0  0  0  0  0  0  0  0  0
   59.5268   33.9805   49.6268 H   0  0  0  0  0  0  0  0  0  0  0  0
   60.7811   34.1289   52.1521 H   0  0  0  0  0  0  0  0  0  0  0  0
   61.0542   32.4343   51.5897 H   0  0  0  0  0  0  0  0  0  0  0  0
   63.2536   34.7608   52.5372 H   0  0  0  0  0  0  0  0  0  0  0  0
   65.7127   34.4908   52.8334 H   0  0  0  0  0  0  0  0  0  0  0  0
   67.0804   33.4081   51.0548 H   0  0  0  0  0  0  0  0  0  0  0  0
   65.9925   32.5834   48.9696 H   0  0  0  0  0  0  0  0  0  0  0  0
   64.5353   34.0316   47.1714 H   0  0  0  0  0  0  0  0  0  0  0  0
   64.1887   32.4271   46.4365 H   0  0  0  0  0  0  0  0  0  0  0  0
   62.4503   34.8927   46.6239 H   0  0  0  0  0  0  0  0  0  0  0  0
   62.7081   33.7058   45.2531 H   0  0  0  0  0  0  0  0  0  0  0  0
   59.9744   33.2348   48.3345 H   0  0  0  0  0  0  0  0  0  0  0  0
   61.0111   34.6959   48.0629 H   0  0  0  0  0  0  0  0  0  0  0  0
   58.9757   35.5087   47.4137 H   0  0  0  0  0  0  0  0  0  0  0  0
   59.8000   34.1290   45.0290 H   0  0  0  0  0  0  0  0  0  0  0  0
   58.0757   32.8749   47.3864 H   0  0  0  0  0  0  0  0  0  0  0  0
   57.1029   34.3553   47.0405 H   0  0  0  0  0  0  0  0  0  0  0  0
   59.5769   31.6281   46.2700 H   0  0  0  0  0  0  0  0  0  0  0  0
   59.8895   29.2665   45.5405 H   0  0  0  0  0  0  0  0  0  0  0  0
   58.1029   27.7562   42.6946 H   0  0  0  0  0  0  0  0  0  0  0  0
   59.4150   27.5690   43.9434 H   0  0  0  0  0  0  0  0  0  0  0  0
   56.6590   26.7330   43.9630 H   0  0  0  0  0  0  0  0  0  0  0  0
   57.2071   28.6633   45.7200 H   0  0  0  0  0  0  0  0  0  0  0  0
   55.9538   27.3344   45.8888 H   0  0  0  0  0  0  0  0  0  0  0  0
   57.6133   27.8442   47.8697 H   0  0  0  0  0  0  0  0  0  0  0  0
   57.1954   26.1454   47.4036 H   0  0  0  0  0  0  0  0  0  0  0  0
   59.6948   27.6894   46.5748 H   0  0  0  0  0  0  0  0  0  0  0  0
   59.5906   26.3486   47.7903 H   0  0  0  0  0  0  0  0  0  0  0  0
   60.2483   26.0046   45.1470 H   0  0  0  0  0  0  0  0  0  0  0  0
   59.5012   24.7409   46.2257 H   0  0  0  0  0  0  0  0  0  0  0  0
   58.4802   25.1902   43.8470 H   0  0  0  0  0  0  0  0  0  0  0  0
   57.4050   24.9764   45.3018 H   0  0  0  0  0  0  0  0  0  0  0  0
   56.4902   29.6407   42.8836 H   0  0  0  0  0  0  0  0  0  0  0  0
   56.2012   32.0130   43.5883 H   0  0  0  0  0  0  0  0  0  0  0  0
   60.4987   31.2939   47.3319 H   0  0  0  0  0  0  0  0  0  0  0  0
   62.0183   31.2041   46.3525 H   0  0  0  0  0  0  0  0  0  0  0  0
   61.6687   31.9505   49.2836 H   0  0  0  0  0  0  0  0  0  0  0  0
   62.7650   30.7306   48.5348 H   0  0  0  0  0  0  0  0  0  0  0  0
  1  2  1  0
  2  3  1  0
  3  4  1  0
  4  5  2  0
  5  6  1  0
  6  7  2  0
  7  8  1  0
  8  9  2  0
  9 10  1  0
 10 11  1  0
 11 12  1  0
 12 13  1  0
 13 14  1  0
 14 15  1  0
 15 16  1  0
 15 17  1  0
 17 18  1  0
 18 19  1  0
 19 20  2  0
 20 21  1  0
 21 22  2  0
 22 23  1  0
 23 24  1  0
 24 25  1  0
 25 26  1  0
 26 27  1  0
 27 28  1  0
 28 29  1  0
 22 30  1  0
 30 31  2  0
 13 32  1  0
 32 33  1  0
  9  4  1  0
 33 10  1  0
 31 19  1  0
 29 24  1  0
  1 34  1  0
  1 35  1  0
  1 36  1  0
  2 37  1  0
  2 38  1  0
  5 39  1  0
  6 40  1  0
  7 41  1  0
  8 42  1  0
 11 43  1  0
 11 44  1  0
 12 45  1  0
 12 46  1  0
 14 47  1  0
 14 48  1  0
 15 49  1  1
 16 50  1  0
 17 51  1  0
 17 52  1  0
 20 53  1  0
 21 54  1  0
 23 55  1  0
 23 56  1  0
 24 57  1  0
 25 58  1  0
 25 59  1  0
 26 60  1  0
 26 61  1  0
 27 62  1  0
 27 63  1  0
 28 64  1  0
 28 65  1  0
 29 66  1  0
 29 67  1  0
 30 68  1  0
 31 69  1  0
 32 70  1  0
 32 71  1  0
 33 72  1  0
 33 73  1  0
M  CHG  1  24   1
M  END
>  <UniqueID>  (11) 
11

>  <SMILES>  (11) 
CCOc1ccccc1N1CCN(C[C@@H](O)COc2ccc(C[NH+]3CCCCC3)cc2)CC1

>  <Energy>  (11) 
92.72544882479943

>  <Genealogy>  (11) 
CCOc1ccccc1N1CCN(CC(O)COc2ccc(C[NH+]3CCCCC3)cc2)CC1 (protonated)
CCOc1ccccc1N1CCN(C[C@@H](O)COc2ccc(C[NH+]3CCCCC3)cc2)CC1 (chirality)
CCOc1ccccc1N1CCN(C[C@@H](O)COc2ccc(C[NH+]3CCCCC3)cc2)CC1 (3D coordinates assigned)
CCOc1ccccc1N1CCN(C[C@@H](O)COc2ccc(C[NH+]3CCCCC3)cc2)CC1 (nonaromatic ring conformer: 92.72544882479943 kcal/mol)

>  <smiles>  (11) 
CCOc1ccccc1N1CCN(CC(O)COc2ccc(CN3CCCCC3)cc2)CC1

>  <score_type>  (11) 
oracle

>  <origin>  (11) 
adg

>  <m_score__min__energy>  (11) 
-7.3300000000000001

>  <m_primary>  (11) 
energy

$$$$
11:0
     RDKit          3D

 63 66  0  0  1  0  0  0  0  0999 V2000
   59.1090   27.0260   47.3970 C   0  0  0  0  0  0  0  0  0  0  0  0
   59.9540   26.9820   46.1460 C   0  0  0  0  0  0  0  0  0  0  0  0
   59.3010   27.4900   44.9820 N   0  0  0  0  0  0  0  0  0  0  0  0
   58.6250   28.5840   44.9500 C   0  0  0  0  0  0  0  0  0  0  0  0
   57.3860   28.5630   44.4010 N   0  0  0  0  0  0  0  0  0  0  0  0
   56.6940   29.7380   44.3940 C   0  0  0  0  0  0  0  0  0  0  0  0
   55.3520   29.7400   43.8050 C   0  0  0  0  0  0  0  0  0  0  0  0
   57.2170   30.8620   44.9070 N   0  0  0  0  0  0  0  0  0  0  0  0
   58.4600   30.8880   45.4580 C   0  0  0  0  0  0  0  0  0  0  0  0
   59.1860   29.7230   45.4840 C   0  0  0  0  0  0  0  0  0  0  0  0
   60.3510   30.0270   46.0750 N   0  0  0  0  0  0  0  0  0  0  0  0
   60.3610   31.3340   46.4110 C   0  0  0  0  0  0  0  0  0  0  0  0
   61.4870   31.9710   47.0730 C   0  0  0  0  0  0  0  0  0  0  0  0
   62.0760   31.2510   48.1120 C   0  0  0  0  0  0  0  0  0  0  0  0
   63.1570   31.7450   48.8240 C   0  0  0  0  0  0  0  0  0  0  0  0
   63.6410   33.0020   48.4570 C   0  0  0  0  0  0  0  0  0  0  0  0
   63.0630   33.7150   47.4320 C   0  0  0  0  0  0  0  0  0  0  0  0
   61.9770   33.2110   46.7240 C   0  0  0  0  0  0  0  0  0  0  0  0
   59.1820   31.8700   46.0270 N   0  0  0  0  0  0  0  0  0  0  0  0
   58.8150   33.2630   46.2240 C   0  0  0  0  0  0  0  0  0  0  0  0
   58.2050   33.4610   47.6120 C   0  0  0  0  0  0  0  0  0  0  0  0
   59.2780   34.0780   48.4810 C   0  0  0  0  0  0  0  0  0  0  0  0
   59.6990   33.1360   49.5920 C   0  0  0  0  0  0  0  0  0  0  0  0
   58.7710   32.1290   49.8760 N   0  0  0  0  0  0  0  0  0  0  0  0
   57.7800   32.3400   50.8210 C   0  0  0  0  0  0  0  0  0  0  0  0
   57.1380   31.0710   51.3530 C   0  0  0  0  0  0  0  0  0  0  0  0
   58.0130   29.9490   51.2690 N   0  0  0  0  0  0  0  0  0  0  0  0
   58.9380   29.8060   52.3450 C   0  0  0  0  0  0  0  0  0  0  0  0
   58.5280   29.6950   49.9670 C   0  0  0  0  0  0  0  0  0  0  0  0
   58.9330   30.9310   49.1900 C   0  0  0  0  0  0  0  0  0  0  0  0
   59.7617   26.9920   48.2817 H   0  0  0  0  0  0  0  0  0  0  0  0
   58.5216   27.9559   47.4102 H   0  0  0  0  0  0  0  0  0  0  0  0
   58.4282   26.1621   47.4102 H   0  0  0  0  0  0  0  0  0  0  0  0
   60.8613   27.5788   46.3210 H   0  0  0  0  0  0  0  0  0  0  0  0
   60.1733   25.9222   45.9490 H   0  0  0  0  0  0  0  0  0  0  0  0
   56.9860   27.6980   44.0060 H   0  0  0  0  0  0  0  0  0  0  0  0
   54.5995   29.7411   44.6073 H   0  0  0  0  0  0  0  0  0  0  0  0
   55.2260   30.6383   43.1828 H   0  0  0  0  0  0  0  0  0  0  0  0
   55.2233   28.8420   43.1828 H   0  0  0  0  0  0  0  0  0  0  0  0
   61.6707   30.2625   48.3738 H   0  0  0  0  0  0  0  0  0  0  0  0
   63.6144   31.1713   49.6435 H   0  0  0  0  0  0  0  0  0  0  0  0
   64.4990   33.4296   48.9964 H   0  0  0  0  0  0  0  0  0  0  0  0
   63.4677   34.7030   47.1673 H   0  0  0  0  0  0  0  0  0  0  0  0
   61.5206   33.7877   45.9060 H   0  0  0  0  0  0  0  0  0  0  0  0
   59.7128   33.8915   46.1294 H   0  0  0  0  0  0  0  0  0  0  0  0
   58.0730   33.5480   45.4636 H   0  0  0  0  0  0  0  0  0  0  0  0
   57.3358   34.1324   47.5507 H   0  0  0  0  0  0  0  0  0  0  0  0
   57.8621   32.5035   48.0310 H   0  0  0  0  0  0  0  0  0  0  0  0
   60.1539   34.3103   47.8575 H   0  0  0  0  0  0  0  0  0  0  0  0
   58.8707   34.9921   48.9377 H   0  0  0  0  0  0  0  0  0  0  0  0
   60.6458   32.6590   49.2988 H   0  0  0  0  0  0  0  0  0  0  0  0
   59.7911   33.7453   50.5032 H   0  0  0  0  0  0  0  0  0  0  0  0
   58.2235   32.8824   51.6690 H   0  0  0  0  0  0  0  0  0  0  0  0
   56.9830   32.9071   50.3178 H   0  0  0  0  0  0  0  0  0  0  0  0
   56.8631   31.2278   52.4065 H   0  0  0  0  0  0  0  0  0  0  0  0
   56.2530   30.8560   50.7361 H   0  0  0  0  0  0  0  0  0  0  0  0
   58.4025   29.8888   53.3023 H   0  0  0  0  0  0  0  0  0  0  0  0
   59.4252   28.8219   52.2813 H   0  0  0  0  0  0  0  0  0  0  0  0
   59.6997   30.5971   52.2813 H   0  0  0  0  0  0  0  0  0  0  0  0
   59.4133   29.0501   50.0693 H   0  0  0  0  0  0  0  0  0  0  0  0
   57.7118   29.2260   49.3980 H   0  0  0  0  0  0  0  0  0  0  0  0
   59.9946   30.8325   48.9191 H   0  0  0  0  0  0  0  0  0  0  0  0
   58.2655   30.9809   48.3171 H   0  0  0  0  0  0  0  0  0  0  0  0
  1  2  1  0
  2  3  1  0
  3  4  2  0
  4  5  1  0
  5  6  1  0
  6  7  1  0
  6  8  2  0
  8  9  1  0
  9 10  2  0
 10 11  1  0
 11 12  2  0
 12 13  1  0
 13 14  2  0
 14 15  1  0
 15 16  2  0
 16 17  1  0
 17 18  2  0
 12 19  1  0
 19 20  1  0
 20 21  1  0
 21 22  1  0
 22 23  1  0
 23 24  1  0
 24 25  1  0
 25 26  1  0
 26 27  1  0
 27 28  1  0
 27 29  1  0
 29 30  1  0
 10  4  1  0
 18 13  1  0
 30 24  1  0
 19  9  1  0
  1 31  1  0
  1 32  1  0
  1 33  1  0
  2 34  1  0
  2 35  1  0
  5 36  1  0
  7 37  1  0
  7 38  1  0
  7 39  1  0
 14 40  1  0
 15 41  1  0
 16 42  1  0
 17 43  1  0
 18 44  1  0
 20 45  1  0
 20 46  1  0
 21 47  1  0
 21 48  1  0
 22 49  1  0
 22 50  1  0
 23 51  1  0
 23 52  1  0
 25 53  1  0
 25 54  1  0
 26 55  1  0
 26 56  1  0
 28 57  1  0
 28 58  1  0
 28 59  1  0
 29 60  1  0
 29 61  1  0
 30 62  1  0
 30 63  1  0
M  END
>  <smiles>  (12) 
CCN=c1[nH]c(C)nc2c1nc(-c1ccccc1)n2CCCCN1CCN(C)CC1

>  <score_type>  (12) 
oracle

>  <origin>  (12) 
adg

>  <m_score__min__energy>  (12) 
-8.4700000000000006

>  <m_primary>  (12) 
energy

$$$$
12:0
     RDKit          3D

 47 49  0  0  0  0  0  0  0  0999 V2000
   64.1200   32.6960   48.6430 C   0  0  0  0  0  0  0  0  0  0  0  0
   62.9020   32.8980   47.8390 N   0  0  0  0  0  0  0  0  0  0  0  0
   63.1970   33.8150   46.7250 C   0  0  0  0  0  0  0  0  0  0  0  0
   61.7960   33.4300   48.6670 C   0  0  0  0  0  0  0  0  0  0  0  0
   61.1590   32.3250   49.5260 C   0  0  0  0  0  0  0  0  0  0  0  0
   60.3080   31.3280   48.7140 C   0  0  0  0  0  0  0  0  0  0  0  0
   60.8540   31.0540   47.3680 N   0  0  0  0  0  0  0  0  0  0  0  0
   59.8050   30.9910   46.3530 C   0  0  0  0  0  0  0  0  0  0  0  0
   59.1820   32.1890   45.9000 C   0  0  0  0  0  0  0  0  0  0  0  0
   59.5480   33.4620   46.4110 C   0  0  0  0  0  0  0  0  0  0  0  0
   58.8830   34.6180   46.0140 C   0  0  0  0  0  0  0  0  0  0  0  0
   57.8360   34.5440   45.1100 C   0  0  0  0  0  0  0  0  0  0  0  0
   57.4730   33.3170   44.5640 C   0  0  0  0  0  0  0  0  0  0  0  0
   58.1610   32.1250   44.9090 C   0  0  0  0  0  0  0  0  0  0  0  0
   57.8480   30.9230   44.3120 N   0  0  0  0  0  0  0  0  0  0  0  0
   57.0420   30.9070   43.0680 C   0  0  0  0  0  0  0  0  0  0  0  0
   58.3120   29.7390   44.8460 C   0  0  0  0  0  0  0  0  0  0  0  0
   57.7720   28.4930   44.4340 C   0  0  0  0  0  0  0  0  0  0  0  0
   58.2850   27.2910   44.9050 C   0  0  0  0  0  0  0  0  0  0  0  0
   59.3410   27.2920   45.8030 C   0  0  0  0  0  0  0  0  0  0  0  0
   60.0070   25.7690   46.3700 Cl  0  0  0  0  0  0  0  0  0  0  0  0
   59.8610   28.4980   46.2680 C   0  0  0  0  0  0  0  0  0  0  0  0
   59.3400   29.7450   45.8340 C   0  0  0  0  0  0  0  0  0  0  0  0
   63.8648   32.7383   49.7122 H   0  0  0  0  0  0  0  0  0  0  0  0
   64.5553   31.7134   48.4086 H   0  0  0  0  0  0  0  0  0  0  0  0
   64.8492   33.4855   48.4086 H   0  0  0  0  0  0  0  0  0  0  0  0
   63.5107   34.7901   47.1260 H   0  0  0  0  0  0  0  0  0  0  0  0
   64.0053   33.3949   46.1085 H   0  0  0  0  0  0  0  0  0  0  0  0
   62.2953   33.9450   46.1085 H   0  0  0  0  0  0  0  0  0  0  0  0
   62.1897   34.2158   49.3285 H   0  0  0  0  0  0  0  0  0  0  0  0
   61.0246   33.8360   47.9961 H   0  0  0  0  0  0  0  0  0  0  0  0
   61.9632   31.7676   50.0286 H   0  0  0  0  0  0  0  0  0  0  0  0
   60.4843   32.8193   50.2404 H   0  0  0  0  0  0  0  0  0  0  0  0
   60.2562   30.3799   49.2694 H   0  0  0  0  0  0  0  0  0  0  0  0
   59.3158   31.7827   48.5768 H   0  0  0  0  0  0  0  0  0  0  0  0
   61.6210   31.7140   47.1360 H   0  0  0  0  0  0  0  0  0  0  0  0
   61.3700   30.1460   47.3850 H   0  0  0  0  0  0  0  0  0  0  0  0
   60.3731   33.5359   47.1347 H   0  0  0  0  0  0  0  0  0  0  0  0
   59.1896   35.5936   46.4192 H   0  0  0  0  0  0  0  0  0  0  0  0
   57.2914   35.4558   44.8237 H   0  0  0  0  0  0  0  0  0  0  0  0
   56.6366   33.2700   43.8511 H   0  0  0  0  0  0  0  0  0  0  0  0
   55.9725   30.8858   43.3243 H   0  0  0  0  0  0  0  0  0  0  0  0
   57.2599   31.8096   42.4783 H   0  0  0  0  0  0  0  0  0  0  0  0
   57.2955   30.0137   42.4783 H   0  0  0  0  0  0  0  0  0  0  0  0
   56.9295   28.4787   43.7269 H   0  0  0  0  0  0  0  0  0  0  0  0
   57.8531   26.3381   44.5652 H   0  0  0  0  0  0  0  0  0  0  0  0
   60.6933   28.4835   46.9870 H   0  0  0  0  0  0  0  0  0  0  0  0
  1  2  1  0
  2  3  1  0
  2  4  1  0
  4  5  1  0
  5  6  1  0
  6  7  1  0
  7  8  1  0
  8  9  2  0
  9 10  1  0
 10 11  2  0
 11 12  1  0
 12 13  2  0
 13 14  1  0
 14 15  2  0
 15 16  1  0
 15 17  1  0
 17 18  2  0
 18 19  1  0
 19 20  2  0
 20 21  1  0
 20 22  1  0
 22 23  2  0
 23  8  1  0
 14  9  1  0
 23 17  1  0
  1 24  1  0
  1 25  1  0
  1 26  1  0
  3 27  1  0
  3 28  1  0
  3 29  1  0
  4 30  1  0
  4 31  1  0
  5 32  1  0
  5 33  1  0
  6 34  1  0
  6 35  1  0
  7 36  1  0
  7 37  1  0
 10 38  1  0
 11 39  1  0
 12 40  1  0
 13 41  1  0
 16 42  1  0
 16 43  1  0
 16 44  1  0
 18 45  1  0
 19 46  1  0
 22 47  1  0
M  CHG  2   7   1  15   1
M  END
>  <UniqueID>  (13) 
12

>  <SMILES>  (13) 
CN(C)CCC[NH2+]c1c2ccccc2[n+](C)c2ccc(Cl)cc12

>  <Energy>  (13) 
78.13771356074359

>  <Genealogy>  (13) 
CN(C)CCC[NH2+]c1c2ccccc2[n+](C)c2ccc(Cl)cc12 (protonated)
CN(C)CCC[NH2+]c1c2ccccc2[n+](C)c2ccc(Cl)cc12 (3D coordinates assigned)
CN(C)CCC[NH2+]c1c2ccccc2[n+](C)c2ccc(Cl)cc12 (optimized conformer: 78.13771356074359 kcal/mol)

>  <smiles>  (13) 
CN(C)CCCNc1c2ccccc2[n+](C)c2ccc(Cl)cc12

>  <score_type>  (13) 
oracle

>  <origin>  (13) 
adg

>  <m_score__min__energy>  (13) 
-4.21

>  <m_primary>  (13) 
energy

$$$$
13:0
     RDKit          3D

 73 76  0  0  0  0  0  0  0  0999 V2000
   58.6050   33.9720   46.0670 C   0  0  0  0  0  0  0  0  0  0  0  0
   58.4880   32.5250   46.3630 N   0  0  0  0  0  0  0  0  0  0  0  0
   58.0430   31.6500   45.3890 C   0  0  0  0  0  0  0  0  0  0  0  0
   57.4130   32.1070   44.2030 C   0  0  0  0  0  0  0  0  0  0  0  0
   57.0160   31.2130   43.2100 C   0  0  0  0  0  0  0  0  0  0  0  0
   57.2260   29.8490   43.3680 C   0  0  0  0  0  0  0  0  0  0  0  0
   57.8040   29.3650   44.5380 C   0  0  0  0  0  0  0  0  0  0  0  0
   58.1940   30.2490   45.5680 C   0  0  0  0  0  0  0  0  0  0  0  0
   58.7240   29.7580   46.7740 C   0  0  0  0  0  0  0  0  0  0  0  0
   58.9830   28.3520   46.9270 N   0  0  0  0  0  0  0  0  0  0  0  0
   57.9240   27.3410   46.8320 C   0  0  0  0  0  0  0  0  0  0  0  0
   58.2130   26.3180   45.7130 C   0  0  0  0  0  0  0  0  0  0  0  0
   56.9900   25.9200   44.9690 N   0  0  0  0  0  0  0  0  0  0  0  0
   57.2600   24.7830   44.0680 C   0  0  0  0  0  0  0  0  0  0  0  0
   55.9100   25.5610   45.9050 C   0  0  0  0  0  0  0  0  0  0  0  0
   58.9600   30.6500   47.8350 C   0  0  0  0  0  0  0  0  0  0  0  0
   59.2920   30.1710   49.1200 C   0  0  0  0  0  0  0  0  0  0  0  0
   59.4950   31.0510   50.1800 C   0  0  0  0  0  0  0  0  0  0  0  0
   59.3480   32.4320   49.9890 C   0  0  0  0  0  0  0  0  0  0  0  0
   59.5150   33.3660   51.0260 O   0  0  0  0  0  0  0  0  0  0  0  0
   60.7430   33.6790   51.6860 C   0  0  0  0  0  0  0  0  0  0  0  0
   61.8470   32.6150   51.4260 C   0  0  0  0  0  0  0  0  0  0  0  0
   63.0620   33.0450   50.6410 N   0  0  0  0  0  0  0  0  0  0  0  0
   64.0710   33.4230   51.6740 C   0  0  0  0  0  0  0  0  0  0  0  0
   63.5740   31.8770   49.8530 C   0  0  0  0  0  0  0  0  0  0  0  0
   62.5540   31.1710   48.9300 C   0  0  0  0  0  0  0  0  0  0  0  0
   62.5830   31.7150   47.4970 C   0  0  0  0  0  0  0  0  0  0  0  0
   62.2740   33.2130   47.3960 C   0  0  0  0  0  0  0  0  0  0  0  0
   63.1260   34.1400   48.2860 C   0  0  0  0  0  0  0  0  0  0  0  0
   62.6990   34.2180   49.7740 C   0  0  0  0  0  0  0  0  0  0  0  0
   59.0160   32.9160   48.7200 C   0  0  0  0  0  0  0  0  0  0  0  0
   58.8250   32.0470   47.6170 C   0  0  0  0  0  0  0  0  0  0  0  0
   58.6507   34.5366   47.0099 H   0  0  0  0  0  0  0  0  0  0  0  0
   59.5208   34.1545   45.4857 H   0  0  0  0  0  0  0  0  0  0  0  0
   57.7304   34.2992   45.4857 H   0  0  0  0  0  0  0  0  0  0  0  0
   57.2350   33.1837   44.0648 H   0  0  0  0  0  0  0  0  0  0  0  0
   56.5336   31.5898   42.2960 H   0  0  0  0  0  0  0  0  0  0  0  0
   56.9355   29.1515   42.5686 H   0  0  0  0  0  0  0  0  0  0  0  0
   57.9586   28.2830   44.6617 H   0  0  0  0  0  0  0  0  0  0  0  0
   59.9520   28.0480   47.1700 H   0  0  0  0  0  0  0  0  0  0  0  0
   57.8515   26.8089   47.7920 H   0  0  0  0  0  0  0  0  0  0  0  0
   56.9800   27.8532   46.5941 H   0  0  0  0  0  0  0  0  0  0  0  0
   58.9263   26.7640   45.0043 H   0  0  0  0  0  0  0  0  0  0  0  0
   58.6218   25.4137   46.1875 H   0  0  0  0  0  0  0  0  0  0  0  0
   56.6410   26.7150   44.3860 H   0  0  0  0  0  0  0  0  0  0  0  0
   57.4734   23.8844   44.6654 H   0  0  0  0  0  0  0  0  0  0  0  0
   56.3801   24.6010   43.4335 H   0  0  0  0  0  0  0  0  0  0  0  0
   58.1278   25.0160   43.4335 H   0  0  0  0  0  0  0  0  0  0  0  0
   56.2664   25.6795   46.9389 H   0  0  0  0  0  0  0  0  0  0  0  0
   55.0454   26.2201   45.7374 H   0  0  0  0  0  0  0  0  0  0  0  0
   55.6120   24.5155   45.7374 H   0  0  0  0  0  0  0  0  0  0  0  0
   59.3918   29.0883   49.2866 H   0  0  0  0  0  0  0  0  0  0  0  0
   59.7717   30.6611   51.1707 H   0  0  0  0  0  0  0  0  0  0  0  0
   61.1002   34.6539   51.3228 H   0  0  0  0  0  0  0  0  0  0  0  0
   60.5455   33.6981   52.7680 H   0  0  0  0  0  0  0  0  0  0  0  0
   62.1977   32.2587   52.4058 H   0  0  0  0  0  0  0  0  0  0  0  0
   61.3607   31.8571   50.7943 H   0  0  0  0  0  0  0  0  0  0  0  0
   63.6467   33.2641   52.6764 H   0  0  0  0  0  0  0  0  0  0  0  0
   64.9700   32.8007   51.5534 H   0  0  0  0  0  0  0  0  0  0  0  0
   64.3398   34.4828   51.5534 H   0  0  0  0  0  0  0  0  0  0  0  0
   64.4028   32.2347   49.2244 H   0  0  0  0  0  0  0  0  0  0  0  0
   63.8623   31.1235   50.6008 H   0  0  0  0  0  0  0  0  0  0  0  0
   62.7869   30.0963   48.9039 H   0  0  0  0  0  0  0  0  0  0  0  0
   61.5496   31.3578   49.3378 H   0  0  0  0  0  0  0  0  0  0  0  0
   63.5855   31.5391   47.0798 H   0  0  0  0  0  0  0  0  0  0  0  0
   61.7953   31.1877   46.9388 H   0  0  0  0  0  0  0  0  0  0  0  0
   62.4254   33.5182   46.3501 H   0  0  0  0  0  0  0  0  0  0  0  0
   61.2398   33.3274   47.7529 H   0  0  0  0  0  0  0  0  0  0  0  0
   64.1654   33.7816   48.2505 H   0  0  0  0  0  0  0  0  0  0  0  0
   62.9909   35.1537   47.8807 H   0  0  0  0  0  0  0  0  0  0  0  0
   63.1683   35.1126   50.2093 H   0  0  0  0  0  0  0  0  0  0  0  0
   61.5993   34.2383   49.7593 H   0  0  0  0  0  0  0  0  0  0  0  0
   58.9000   34.0001   48.5739 H   0  0  0  0  0  0  0  0  0  0  0  0
  1  2  1  0
  2  3  2  0
  3  4  1  0
  4  5  2  0
  5  6  1  0
  6  7  2  0
  7  8  1  0
  8  9  2  0
  9 10  1  0
 10 11  1  0
 11 12  1  0
 12 13  1  0
 13 14  1  0
 13 15  1  0
  9 16  1  0
 16 17  2  0
 17 18  1  0
 18 19  2  0
 19 20  1  0
 20 21  1  0
 21 22  1  0
 22 23  1  0
 23 24  1  0
 23 25  1  0
 25 26  1  0
 26 27  1  0
 27 28  1  0
 28 29  1  0
 29 30  1  0
 19 31  1  0
 31 32  2  0
 32  2  1  0
  8  3  1  0
 32 16  1  0
 30 23  1  0
  1 33  1  0
  1 34  1  0
  1 35  1  0
  4 36  1  0
  5 37  1  0
  6 38  1  0
  7 39  1  0
 10 40  1  0
 11 41  1  0
 11 42  1  0
 12 43  1  0
 12 44  1  0
 13 45  1  0
 14 46  1  0
 14 47  1  0
 14 48  1  0
 15 49  1  0
 15 50  1  0
 15 51  1  0
 17 52  1  0
 18 53  1  0
 21 54  1  0
 21 55  1  0
 22 56  1  0
 22 57  1  0
 24 58  1  0
 24 59  1  0
 24 60  1  0
 25 61  1  0
 25 62  1  0
 26 63  1  0
 26 64  1  0
 27 65  1  0
 27 66  1  0
 28 67  1  0
 28 68  1  0
 29 69  1  0
 29 70  1  0
 30 71  1  0
 30 72  1  0
 31 73  1  0
M  CHG  3   2   1  13   1  23   1
M  END
>  <UniqueID>  (14) 
13

>  <SMILES>  (14) 
C[n+]1c2ccccc2c(NCC[NH+](C)C)c2ccc(OCC[N+]3(C)CCCCCC3)cc21

>  <Energy>  (14) 
124.61666601659755

>  <Genealogy>  (14) 
C[n+]1c2ccccc2c(NCC[NH+](C)C)c2ccc(OCC[N+]3(C)CCCCCC3)cc21 (protonated)
C[n+]1c2ccccc2c(NCC[NH+](C)C)c2ccc(OCC[N+]3(C)CCCCCC3)cc21 (3D coordinates assigned)
C[n+]1c2ccccc2c(NCC[NH+](C)C)c2ccc(OCC[N+]3(C)CCCCCC3)cc21 (nonaromatic ring conformer: 124.61666601659755 kcal/mol)

>  <smiles>  (14) 
CN(C)CCNc1c2ccccc2[n+](C)c2cc(OCC[N+]3(C)CCCCCC3)ccc12

>  <score_type>  (14) 
oracle

>  <origin>  (14) 
adg

>  <m_score__min__energy>  (14) 
-2.0499999999999998

>  <m_primary>  (14) 
energy

$$$$
14:0
     RDKit          3D

 47 49  0  0  0  0  0  0  0  0999 V2000
   55.5300   29.7600   43.5720 C   0  0  0  0  0  0  0  0  0  0  0  0
   56.1130   29.6700   44.8680 O   0  0  0  0  0  0  0  0  0  0  0  0
   57.3370   29.0410   45.1480 C   0  0  0  0  0  0  0  0  0  0  0  0
   57.3990   27.7990   45.8120 C   0  0  0  0  0  0  0  0  0  0  0  0
   58.6330   27.1970   46.0690 C   0  0  0  0  0  0  0  0  0  0  0  0
   59.8150   27.8220   45.6690 C   0  0  0  0  0  0  0  0  0  0  0  0
   59.7680   29.0520   45.0100 C   0  0  0  0  0  0  0  0  0  0  0  0
   58.5350   29.6700   44.7450 C   0  0  0  0  0  0  0  0  0  0  0  0
   58.4980   30.9850   44.0010 C   0  0  0  0  0  0  0  0  0  0  0  0
   58.5230   32.1190   44.9450 N   0  0  0  0  0  0  0  0  0  0  0  0
   57.2900   32.9160   44.8490 C   0  0  0  0  0  0  0  0  0  0  0  0
   57.4230   34.2170   45.6740 C   0  0  0  0  0  0  0  0  0  0  0  0
   58.4480   34.1340   46.7480 N   0  0  0  0  0  0  0  0  0  0  0  0
   59.7830   34.5750   46.2570 C   0  0  0  0  0  0  0  0  0  0  0  0
   60.9100   34.1540   47.1720 C   0  0  0  0  0  0  0  0  0  0  0  0
   62.0360   33.4960   46.6510 C   0  0  0  0  0  0  0  0  0  0  0  0
   63.0850   33.1230   47.4960 C   0  0  0  0  0  0  0  0  0  0  0  0
   63.0190   33.4040   48.8640 C   0  0  0  0  0  0  0  0  0  0  0  0
   61.9000   34.0580   49.3890 C   0  0  0  0  0  0  0  0  0  0  0  0
   60.8490   34.4330   48.5480 C   0  0  0  0  0  0  0  0  0  0  0  0
   58.4540   32.7850   47.3610 C   0  0  0  0  0  0  0  0  0  0  0  0
   58.7420   31.6660   46.3350 C   0  0  0  0  0  0  0  0  0  0  0  0
   54.4470   29.9272   43.6679 H   0  0  0  0  0  0  0  0  0  0  0  0
   55.9833   30.5988   43.0235 H   0  0  0  0  0  0  0  0  0  0  0  0
   55.7093   28.8235   43.0235 H   0  0  0  0  0  0  0  0  0  0  0  0
   56.4708   27.3013   46.1294 H   0  0  0  0  0  0  0  0  0  0  0  0
   58.6732   26.2279   46.5879 H   0  0  0  0  0  0  0  0  0  0  0  0
   60.7849   27.3449   45.8732 H   0  0  0  0  0  0  0  0  0  0  0  0
   60.7026   29.5401   44.6964 H   0  0  0  0  0  0  0  0  0  0  0  0
   59.3724   31.0488   43.3367 H   0  0  0  0  0  0  0  0  0  0  0  0
   57.5688   31.0335   43.4143 H   0  0  0  0  0  0  0  0  0  0  0  0
   57.1053   33.1724   43.7953 H   0  0  0  0  0  0  0  0  0  0  0  0
   56.4517   32.3254   45.2471 H   0  0  0  0  0  0  0  0  0  0  0  0
   57.6979   35.0354   44.9923 H   0  0  0  0  0  0  0  0  0  0  0  0
   56.4535   34.3911   46.1637 H   0  0  0  0  0  0  0  0  0  0  0  0
   58.1590   34.8100   47.4960 H   0  0  0  0  0  0  0  0  0  0  0  0
   59.9546   34.1366   45.2628 H   0  0  0  0  0  0  0  0  0  0  0  0
   59.7772   35.6744   46.2217 H   0  0  0  0  0  0  0  0  0  0  0  0
   62.0925   33.2736   45.5752 H   0  0  0  0  0  0  0  0  0  0  0  0
   63.9647   32.6071   47.0837 H   0  0  0  0  0  0  0  0  0  0  0  0
   63.8466   33.1109   49.5267 H   0  0  0  0  0  0  0  0  0  0  0  0
   61.8471   34.2776   50.4656 H   0  0  0  0  0  0  0  0  0  0  0  0
   59.9709   34.9483   48.9644 H   0  0  0  0  0  0  0  0  0  0  0  0
   59.2295   32.7560   48.1406 H   0  0  0  0  0  0  0  0  0  0  0  0
   57.4521   32.6045   47.7776 H   0  0  0  0  0  0  0  0  0  0  0  0
   59.7888   31.3457   46.4433 H   0  0  0  0  0  0  0  0  0  0  0  0
   58.0489   30.8355   46.5347 H   0  0  0  0  0  0  0  0  0  0  0  0
  1  2  1  0
  2  3  1  0
  3  4  2  0
  4  5  1  0
  5  6  2  0
  6  7  1  0
  7  8  2  0
  8  9  1  0
  9 10  1  0
 10 11  1  0
 11 12  1  0
 12 13  1  0
 13 14  1  0
 14 15  1  0
 15 16  2  0
 16 17  1  0
 17 18  2  0
 18 19  1  0
 19 20  2  0
 13 21  1  0
 21 22  1  0
  8  3  1  0
 22 10  1  0
 20 15  1  0
  1 23  1  0
  1 24  1  0
  1 25  1  0
  4 26  1  0
  5 27  1  0
  6 28  1  0
  7 29  1  0
  9 30  1  0
  9 31  1  0
 11 32  1  0
 11 33  1  0
 12 34  1  0
 12 35  1  0
 13 36  1  0
 14 37  1  0
 14 38  1  0
 16 39  1  0
 17 40  1  0
 18 41  1  0
 19 42  1  0
 20 43  1  0
 21 44  1  0
 21 45  1  0
 22 46  1  0
 22 47  1  0
M  CHG  1  13   1
M  END
>  <UniqueID>  (15) 
14

>  <SMILES>  (15) 
COc1ccccc1CN1CC[NH+](Cc2ccccc2)CC1

>  <Energy>  (15) 
58.56906150465687

>  <Genealogy>  (15) 
COc1ccccc1CN1CC[NH+](Cc2ccccc2)CC1 (protonated)
COc1ccccc1CN1CC[NH+](Cc2ccccc2)CC1 (3D coordinates assigned)
COc1ccccc1CN1CC[NH+](Cc2ccccc2)CC1 (nonaromatic ring conformer: 58.56906150465687 kcal/mol)

>  <smiles>  (15) 
COc1ccccc1CN1CCN(Cc2ccccc2)CC1

>  <score_type>  (15) 
oracle

>  <origin>  (15) 
adg

>  <m_score__min__energy>  (15) 
-6.3200000000000003

>  <m_primary>  (15) 
energy

$$$$
15:0
     RDKit          3D

 41 43  0  0  0  0  0  0  0  0999 V2000
   55.4890   29.6490   45.0740 O   0  0  0  0  0  0  0  0  0  0  0  0
   56.2740   28.6850   44.8760 C   0  0  0  0  0  0  0  0  0  0  0  0
   57.3370   28.7930   43.8150 C   0  0  0  0  0  0  0  0  0  0  0  0
   57.4800   30.1400   43.3630 O   0  0  0  0  0  0  0  0  0  0  0  0
   57.8990   31.2280   44.1500 C   0  0  0  0  0  0  0  0  0  0  0  0
   58.1330   31.1230   45.5360 C   0  0  0  0  0  0  0  0  0  0  0  0
   58.5510   32.2410   46.2660 C   0  0  0  0  0  0  0  0  0  0  0  0
   58.7400   33.4680   45.6240 C   0  0  0  0  0  0  0  0  0  0  0  0
   59.3100   34.9920   46.6240 Br  0  0  0  0  0  0  0  0  0  0  0  0
   58.5110   33.5780   44.2500 C   0  0  0  0  0  0  0  0  0  0  0  0
   58.0930   32.4620   43.5180 C   0  0  0  0  0  0  0  0  0  0  0  0
   56.1020   27.4900   45.6500 N   0  0  0  0  0  0  0  0  0  0  0  0
   56.9020   26.3020   45.5660 C   0  0  0  0  0  0  0  0  0  0  0  0
   56.3800   25.1230   45.0070 C   0  0  0  0  0  0  0  0  0  0  0  0
   57.1870   23.9900   44.8660 C   0  0  0  0  0  0  0  0  0  0  0  0
   56.4640   22.3910   44.1110 Br  0  0  0  0  0  0  0  0  0  0  0  0
   58.5250   24.0320   45.2630 C   0  0  0  0  0  0  0  0  0  0  0  0
   59.0600   25.2060   45.7950 C   0  0  0  0  0  0  0  0  0  0  0  0
   58.2580   26.3480   45.9470 C   0  0  0  0  0  0  0  0  0  0  0  0
   58.8190   27.5410   46.5120 N   0  0  0  0  0  0  0  0  0  0  0  0
   58.4760   28.0330   47.8340 C   0  0  0  0  0  0  0  0  0  0  0  0
   59.2790   29.3160   48.0100 C   0  0  0  0  0  0  0  0  0  0  0  0
   60.3780   29.2720   46.9490 C   0  0  0  0  0  0  0  0  0  0  0  0
   59.9050   28.2810   45.8930 C   0  0  0  0  0  0  0  0  0  0  0  0
   58.2958   28.4505   44.2314 H   0  0  0  0  0  0  0  0  0  0  0  0
   57.0405   28.1681   42.9597 H   0  0  0  0  0  0  0  0  0  0  0  0
   57.9865   30.1591   46.0453 H   0  0  0  0  0  0  0  0  0  0  0  0
   58.7313   32.1541   47.3476 H   0  0  0  0  0  0  0  0  0  0  0  0
   58.6596   34.5432   43.7436 H   0  0  0  0  0  0  0  0  0  0  0  0
   57.9151   32.5547   42.4364 H   0  0  0  0  0  0  0  0  0  0  0  0
   55.3307   25.0914   44.6786 H   0  0  0  0  0  0  0  0  0  0  0  0
   59.1580   23.1388   45.1563 H   0  0  0  0  0  0  0  0  0  0  0  0
   60.1172   25.2367   46.0972 H   0  0  0  0  0  0  0  0  0  0  0  0
   57.3980   28.2419   47.8990 H   0  0  0  0  0  0  0  0  0  0  0  0
   58.7066   27.2957   48.6171 H   0  0  0  0  0  0  0  0  0  0  0  0
   58.6348   30.1944   47.8572 H   0  0  0  0  0  0  0  0  0  0  0  0
   59.6994   29.3931   49.0236 H   0  0  0  0  0  0  0  0  0  0  0  0
   60.5182   30.2676   46.5028 H   0  0  0  0  0  0  0  0  0  0  0  0
   61.3429   28.9689   47.3816 H   0  0  0  0  0  0  0  0  0  0  0  0
   59.5468   28.8134   44.9995 H   0  0  0  0  0  0  0  0  0  0  0  0
   60.7173   27.6153   45.5660 H   0  0  0  0  0  0  0  0  0  0  0  0
  1  2  2  0
  2  3  1  0
  3  4  1  0
  4  5  1  0
  5  6  2  0
  6  7  1  0
  7  8  2  0
  8  9  1  0
  8 10  1  0
 10 11  2  0
  2 12  1  0
 12 13  1  0
 13 14  2  0
 14 15  1  0
 15 16  1  0
 15 17  2  0
 17 18  1  0
 18 19  2  0
 19 20  1  0
 20 21  1  0
 21 22  1  0
 22 23  1  0
 23 24  1  0
 11  5  1  0
 19 13  1  0
 24 20  1  0
  3 25  1  0
  3 26  1  0
  6 27  1  0
  7 28  1  0
 10 29  1  0
 11 30  1  0
 14 31  1  0
 17 32  1  0
 18 33  1  0
 21 34  1  0
 21 35  1  0
 22 36  1  0
 22 37  1  0
 23 38  1  0
 23 39  1  0
 24 40  1  0
 24 41  1  0
M  CHG  1  12  -1
M  END
>  <UniqueID>  (16) 
15

>  <SMILES>  (16) 
O=C(COc1ccc(Br)cc1)[N-]c1cc(Br)ccc1N1CCCC1

>  <Energy>  (16) 
52.67510503942633

>  <Genealogy>  (16) 
O=C(COc1ccc(Br)cc1)[N-]c1cc(Br)ccc1N1CCCC1 (protonated)
O=C(COc1ccc(Br)cc1)[N-]c1cc(Br)ccc1N1CCCC1 (3D coordinates assigned)
O=C(COc1ccc(Br)cc1)[N-]c1cc(Br)ccc1N1CCCC1 (nonaromatic ring conformer: 52.67510503942633 kcal/mol)

>  <smiles>  (16) 
O=C(COc1ccc(Br)cc1)Nc1cc(Br)ccc1N1CCCC1

>  <score_type>  (16) 
oracle

>  <origin>  (16) 
adg

>  <m_score__min__energy>  (16) 
-9.75

>  <m_primary>  (16) 
energy

$$$$
16:0
     RDKit          3D

 66 69  0  0  0  0  0  0  0  0999 V2000
   59.9950   28.1660   52.4160 C   0  0  0  0  0  0  0  0  0  0  0  0
   60.7350   28.3310   51.1550 N   0  0  0  0  0  0  0  0  0  0  0  0
   62.0800   28.8570   51.4370 C   0  0  0  0  0  0  0  0  0  0  0  0
   60.7970   27.0500   50.4180 C   0  0  0  0  0  0  0  0  0  0  0  0
   60.6530   27.2630   48.8970 C   0  0  0  0  0  0  0  0  0  0  0  0
   59.6390   28.2660   48.5440 N   0  0  0  0  0  0  0  0  0  0  0  0
   58.8540   28.2020   47.3410 C   0  0  0  0  0  0  0  0  0  0  0  0
   58.3010   26.9700   46.9520 C   0  0  0  0  0  0  0  0  0  0  0  0
   58.2180   25.8860   47.8510 C   0  0  0  0  0  0  0  0  0  0  0  0
   57.7350   24.6490   47.4270 C   0  0  0  0  0  0  0  0  0  0  0  0
   57.3280   24.4740   46.1070 C   0  0  0  0  0  0  0  0  0  0  0  0
   57.3990   25.5360   45.2060 C   0  0  0  0  0  0  0  0  0  0  0  0
   57.8810   26.8020   45.6150 C   0  0  0  0  0  0  0  0  0  0  0  0
   57.9860   27.8500   44.7340 N   0  0  0  0  0  0  0  0  0  0  0  0
   58.1440   27.5500   43.2970 C   0  0  0  0  0  0  0  0  0  0  0  0
   58.1360   29.1400   45.2080 C   0  0  0  0  0  0  0  0  0  0  0  0
   57.7420   30.2700   44.4380 C   0  0  0  0  0  0  0  0  0  0  0  0
   56.4420   30.0770   43.0060 Br  0  0  0  0  0  0  0  0  0  0  0  0
   58.0670   31.5740   44.8650 C   0  0  0  0  0  0  0  0  0  0  0  0
   57.7790   32.6980   44.0570 C   0  0  0  0  0  0  0  0  0  0  0  0
   58.0260   33.9920   44.5150 C   0  0  0  0  0  0  0  0  0  0  0  0
   58.5460   34.1910   45.7890 C   0  0  0  0  0  0  0  0  0  0  0  0
   58.8520   33.0970   46.5960 C   0  0  0  0  0  0  0  0  0  0  0  0
   58.6580   31.7740   46.1350 C   0  0  0  0  0  0  0  0  0  0  0  0
   58.9740   30.6660   46.9540 C   0  0  0  0  0  0  0  0  0  0  0  0
   59.4810   30.9060   48.2770 N   0  0  0  0  0  0  0  0  0  0  0  0
   60.7670   31.5750   48.5040 C   0  0  0  0  0  0  0  0  0  0  0  0
   61.0170   31.7780   49.9990 C   0  0  0  0  0  0  0  0  0  0  0  0
   60.0880   30.9380   50.7740 N   0  0  0  0  0  0  0  0  0  0  0  0
   58.9980   31.7320   51.3530 C   0  0  0  0  0  0  0  0  0  0  0  0
   57.6860   30.9430   51.3250 C   0  0  0  0  0  0  0  0  0  0  0  0
   57.8780   29.6750   50.7540 O   0  0  0  0  0  0  0  0  0  0  0  0
   58.6720   29.3430   46.5140 C   0  0  0  0  0  0  0  0  0  0  0  0
   60.6781   28.3183   53.2646 H   0  0  0  0  0  0  0  0  0  0  0  0
   59.1814   28.9048   52.4630 H   0  0  0  0  0  0  0  0  0  0  0  0
   59.5723   27.1515   52.4630 H   0  0  0  0  0  0  0  0  0  0  0  0
   62.2300   28.9157   52.5251 H   0  0  0  0  0  0  0  0  0  0  0  0
   62.8348   28.1878   50.9983 H   0  0  0  0  0  0  0  0  0  0  0  0
   62.1806   29.8607   50.9983 H   0  0  0  0  0  0  0  0  0  0  0  0
   61.7646   26.5677   50.6210 H   0  0  0  0  0  0  0  0  0  0  0  0
   59.9639   26.4169   50.7574 H   0  0  0  0  0  0  0  0  0  0  0  0
   61.6235   27.5920   48.4971 H   0  0  0  0  0  0  0  0  0  0  0  0
   60.3290   26.3055   48.4632 H   0  0  0  0  0  0  0  0  0  0  0  0
   59.2580   28.8470   49.3240 H   0  0  0  0  0  0  0  0  0  0  0  0
   58.5371   26.0180   48.8954 H   0  0  0  0  0  0  0  0  0  0  0  0
   57.6753   23.8102   48.1361 H   0  0  0  0  0  0  0  0  0  0  0  0
   56.9497   23.4962   45.7742 H   0  0  0  0  0  0  0  0  0  0  0  0
   57.0764   25.3878   44.1649 H   0  0  0  0  0  0  0  0  0  0  0  0
   58.6536   26.5824   43.1783 H   0  0  0  0  0  0  0  0  0  0  0  0
   57.1534   27.5035   42.8210 H   0  0  0  0  0  0  0  0  0  0  0  0
   58.7427   28.3406   42.8210 H   0  0  0  0  0  0  0  0  0  0  0  0
   57.3542   32.5498   43.0532 H   0  0  0  0  0  0  0  0  0  0  0  0
   57.8094   34.8551   43.8683 H   0  0  0  0  0  0  0  0  0  0  0  0
   58.7159   35.2125   46.1601 H   0  0  0  0  0  0  0  0  0  0  0  0
   59.2507   33.2649   47.6074 H   0  0  0  0  0  0  0  0  0  0  0  0
   58.8720   30.6500   49.0850 H   0  0  0  0  0  0  0  0  0  0  0  0
   61.5742   30.9569   48.0840 H   0  0  0  0  0  0  0  0  0  0  0  0
   60.7438   32.5593   48.0135 H   0  0  0  0  0  0  0  0  0  0  0  0
   62.0527   31.4954   50.2386 H   0  0  0  0  0  0  0  0  0  0  0  0
   60.8547   32.8351   50.2562 H   0  0  0  0  0  0  0  0  0  0  0  0
   60.6250   30.4900   51.5570 H   0  0  0  0  0  0  0  0  0  0  0  0
   59.2470   31.9834   52.3945 H   0  0  0  0  0  0  0  0  0  0  0  0
   58.8734   32.6504   50.7605 H   0  0  0  0  0  0  0  0  0  0  0  0
   57.3157   30.8227   52.3538 H   0  0  0  0  0  0  0  0  0  0  0  0
   56.9552   31.4962   50.7168 H   0  0  0  0  0  0  0  0  0  0  0  0
   58.8390   29.4500   50.8740 H   0  0  0  0  0  0  0  0  0  0  0  0
  1  2  1  0
  2  3  1  0
  2  4  1  0
  4  5  1  0
  5  6  1  0
  6  7  1  0
  7  8  2  0
  8  9  1  0
  9 10  2  0
 10 11  1  0
 11 12  2  0
 12 13  1  0
 13 14  2  0
 14 15  1  0
 14 16  1  0
 16 17  2  0
 17 18  1  0
 17 19  1  0
 19 20  2  0
 20 21  1  0
 21 22  2  0
 22 23  1  0
 23 24  2  0
 24 25  1  0
 25 26  1  0
 26 27  1  0
 27 28  1  0
 28 29  1  0
 29 30  1  0
 30 31  1  0
 31 32  1  0
 25 33  2  0
 33  7  1  0
 13  8  1  0
 33 16  1  0
 24 19  1  0
  1 34  1  0
  1 35  1  0
  1 36  1  0
  3 37  1  0
  3 38  1  0
  3 39  1  0
  4 40  1  0
  4 41  1  0
  5 42  1  0
  5 43  1  0
  6 44  1  0
  9 45  1  0
 10 46  1  0
 11 47  1  0
 12 48  1  0
 15 49  1  0
 15 50  1  0
 15 51  1  0
 20 52  1  0
 21 53  1  0
 22 54  1  0
 23 55  1  0
 26 56  1  0
 27 57  1  0
 27 58  1  0
 28 59  1  0
 28 60  1  0
 29 61  1  0
 30 62  1  0
 30 63  1  0
 31 64  1  0
 31 65  1  0
 32 66  1  0
M  CHG  1  14   1
M  END
>  <UniqueID>  (17) 
16

>  <SMILES>  (17) 
CN(C)CCNc1c2ccccc2[n+](C)c2c(Br)c3ccccc3c(NCCNCCO)c12

>  <Energy>  (17) 
118.41191498796043

>  <Genealogy>  (17) 
CN(C)CCNc1c2ccccc2[n+](C)c2c(Br)c3ccccc3c(NCCNCCO)c12 (3D coordinates assigned)
CN(C)CCNc1c2ccccc2[n+](C)c2c(Br)c3ccccc3c(NCCNCCO)c12 (optimized conformer: 118.41191498796043 kcal/mol)

>  <smiles>  (17) 
CN(C)CCNc1c2ccccc2[n+](C)c2c(Br)c3ccccc3c(NCCNCCO)c12

>  <score_type>  (17) 
oracle

>  <origin>  (17) 
adg

>  <m_score__min__energy>  (17) 
-7.7000000000000002

>  <m_primary>  (17) 
energy

$$$$
17:0
     RDKit          3D

 65 67  0  0  0  0  0  0  0  0999 V2000
   68.9230   33.3910   50.9370 C   0  0  0  0  0  0  0  0  0  0  0  0
   67.4760   33.8180   50.6740 C   0  0  0  0  0  0  0  0  0  0  0  0
   66.7270   32.8350   49.8660 N   0  0  0  0  0  0  0  0  0  0  0  0
   66.5760   31.5080   50.4930 C   0  0  0  0  0  0  0  0  0  0  0  0
   65.3980   31.4510   51.4860 C   0  0  0  0  0  0  0  0  0  0  0  0
   64.2960   32.4440   51.1130 C   0  0  0  0  0  0  0  0  0  0  0  0
   64.2650   32.6340   49.7000 O   0  0  0  0  0  0  0  0  0  0  0  0
   63.1750   33.1640   48.9940 C   0  0  0  0  0  0  0  0  0  0  0  0
   63.1640   33.2690   47.5900 C   0  0  0  0  0  0  0  0  0  0  0  0
   62.0470   33.7920   46.9320 C   0  0  0  0  0  0  0  0  0  0  0  0
   60.9290   34.2210   47.6630 C   0  0  0  0  0  0  0  0  0  0  0  0
   59.7030   34.7420   46.9560 C   0  0  0  0  0  0  0  0  0  0  0  0
   58.6400   33.7160   46.9180 N   0  0  0  0  0  0  0  0  0  0  0  0
   57.6540   33.9890   45.8380 C   0  0  0  0  0  0  0  0  0  0  0  0
   57.9260   33.1710   44.5670 C   0  0  0  0  0  0  0  0  0  0  0  0
   57.8840   31.6490   44.8460 C   0  0  0  0  0  0  0  0  0  0  0  0
   56.5630   31.1070   44.5300 N   0  0  0  0  0  0  0  0  0  0  0  0
   56.2430   29.7180   44.3820 C   0  0  0  0  0  0  0  0  0  0  0  0
   55.1660   29.2940   44.8810 O   0  0  0  0  0  0  0  0  0  0  0  0
   57.2020   28.7460   43.7380 C   0  0  0  0  0  0  0  0  0  0  0  0
   58.2380   28.2570   44.7180 C   0  0  0  0  0  0  0  0  0  0  0  0
   59.5910   28.6090   44.5570 C   0  0  0  0  0  0  0  0  0  0  0  0
   60.5440   28.1840   45.4890 C   0  0  0  0  0  0  0  0  0  0  0  0
   60.1540   27.4120   46.5890 C   0  0  0  0  0  0  0  0  0  0  0  0
   58.8090   27.0670   46.7600 C   0  0  0  0  0  0  0  0  0  0  0  0
   57.8520   27.4910   45.8310 C   0  0  0  0  0  0  0  0  0  0  0  0
   58.2190   31.3240   46.3150 C   0  0  0  0  0  0  0  0  0  0  0  0
   59.2110   32.3440   46.8830 C   0  0  0  0  0  0  0  0  0  0  0  0
   60.9420   34.1180   49.0620 C   0  0  0  0  0  0  0  0  0  0  0  0
   62.0590   33.5950   49.7190 C   0  0  0  0  0  0  0  0  0  0  0  0
   69.0986   33.3392   52.0217 H   0  0  0  0  0  0  0  0  0  0  0  0
   69.1007   32.4021   50.4891 H   0  0  0  0  0  0  0  0  0  0  0  0
   69.6091   34.1250   50.4891 H   0  0  0  0  0  0  0  0  0  0  0  0
   66.9648   33.9412   51.6402 H   0  0  0  0  0  0  0  0  0  0  0  0
   67.5067   34.7592   50.1055 H   0  0  0  0  0  0  0  0  0  0  0  0
   67.2110   32.7150   48.9450 H   0  0  0  0  0  0  0  0  0  0  0  0
   65.7770   33.2270   49.6620 H   0  0  0  0  0  0  0  0  0  0  0  0
   66.4065   30.7622   49.7024 H   0  0  0  0  0  0  0  0  0  0  0  0
   67.4971   31.2997   51.0571 H   0  0  0  0  0  0  0  0  0  0  0  0
   64.9779   30.4344   51.4830 H   0  0  0  0  0  0  0  0  0  0  0  0
   65.7769   31.7176   52.4837 H   0  0  0  0  0  0  0  0  0  0  0  0
   63.3245   32.0523   51.4488 H   0  0  0  0  0  0  0  0  0  0  0  0
   64.5000   33.4083   51.6014 H   0  0  0  0  0  0  0  0  0  0  0  0
   64.0374   32.9383   47.0088 H   0  0  0  0  0  0  0  0  0  0  0  0
   62.0446   33.8676   45.8346 H   0  0  0  0  0  0  0  0  0  0  0  0
   59.3291   35.6284   47.4894 H   0  0  0  0  0  0  0  0  0  0  0  0
   59.9771   35.0024   45.9230 H   0  0  0  0  0  0  0  0  0  0  0  0
   56.6485   33.7402   46.2082 H   0  0  0  0  0  0  0  0  0  0  0  0
   57.7378   35.0532   45.5727 H   0  0  0  0  0  0  0  0  0  0  0  0
   57.1621   33.4167   43.8146 H   0  0  0  0  0  0  0  0  0  0  0  0
   58.9328   33.4255   44.2042 H   0  0  0  0  0  0  0  0  0  0  0  0
   58.6456   31.1845   44.2024 H   0  0  0  0  0  0  0  0  0  0  0  0
   56.6347   27.8835   43.3582 H   0  0  0  0  0  0  0  0  0  0  0  0
   57.7211   29.2661   42.9194 H   0  0  0  0  0  0  0  0  0  0  0  0
   59.9001   29.2199   43.6961 H   0  0  0  0  0  0  0  0  0  0  0  0
   61.6013   28.4571   45.3569 H   0  0  0  0  0  0  0  0  0  0  0  0
   60.9050   27.0764   47.3193 H   0  0  0  0  0  0  0  0  0  0  0  0
   58.5032   26.4615   47.6260 H   0  0  0  0  0  0  0  0  0  0  0  0
   56.7944   27.2238   45.9725 H   0  0  0  0  0  0  0  0  0  0  0  0
   57.2944   31.3495   46.9103 H   0  0  0  0  0  0  0  0  0  0  0  0
   58.6751   30.3240   46.3607 H   0  0  0  0  0  0  0  0  0  0  0  0
   59.4805   32.0452   47.9068 H   0  0  0  0  0  0  0  0  0  0  0  0
   60.0944   32.3602   46.2277 H   0  0  0  0  0  0  0  0  0  0  0  0
   60.0697   34.4502   49.6440 H   0  0  0  0  0  0  0  0  0  0  0  0
   62.0607   33.5216   50.8165 H   0  0  0  0  0  0  0  0  0  0  0  0
  1  2  1  0
  2  3  1  0
  3  4  1  0
  4  5  1  0
  5  6  1  0
  6  7  1  0
  7  8  1  0
  8  9  2  0
  9 10  1  0
 10 11  2  0
 11 12  1  0
 12 13  1  0
 13 14  1  0
 14 15  1  0
 15 16  1  0
 16 17  1  0
 17 18  1  0
 18 19  2  0
 18 20  1  0
 20 21  1  0
 21 22  2  0
 22 23  1  0
 23 24  2  0
 24 25  1  0
 25 26  2  0
 16 27  1  0
 27 28  1  0
 11 29  1  0
 29 30  2  0
 30  8  1  0
 28 13  1  0
 26 21  1  0
  1 31  1  0
  1 32  1  0
  1 33  1  0
  2 34  1  0
  2 35  1  0
  3 36  1  0
  3 37  1  0
  4 38  1  0
  4 39  1  0
  5 40  1  0
  5 41  1  0
  6 42  1  0
  6 43  1  0
  9 44  1  0
 10 45  1  0
 12 46  1  0
 12 47  1  0
 14 48  1  0
 14 49  1  0
 15 50  1  0
 15 51  1  0
 16 52  1  0
 20 53  1  0
 20 54  1  0
 22 55  1  0
 23 56  1  0
 24 57  1  0
 25 58  1  0
 26 59  1  0
 27 60  1  0
 27 61  1  0
 28 62  1  0
 28 63  1  0
 29 64  1  0
 30 65  1  0
M  CHG  2   3   1  17  -1
M  END
>  <UniqueID>  (18) 
17

>  <SMILES>  (18) 
CC[NH2+]CCCOc1ccc(CN2CCC([N-]C(=O)Cc3ccccc3)CC2)cc1

>  <Energy>  (18) 
67.83721071133579

>  <Genealogy>  (18) 
CC[NH2+]CCCOc1ccc(CN2CCC([N-]C(=O)Cc3ccccc3)CC2)cc1 (protonated)
CC[NH2+]CCCOc1ccc(CN2CCC([N-]C(=O)Cc3ccccc3)CC2)cc1 (3D coordinates assigned)
CC[NH2+]CCCOc1ccc(CN2CCC([N-]C(=O)Cc3ccccc3)CC2)cc1 (nonaromatic ring conformer: 67.83721071133579 kcal/mol)

>  <smiles>  (18) 
CCNCCCOc1ccc(CN2CCC(NC(=O)Cc3ccccc3)CC2)cc1

>  <score_type>  (18) 
oracle

>  <origin>  (18) 
adg

>  <m_score__min__energy>  (18) 
-9.2599999999999998

>  <m_primary>  (18) 
energy

$$$$
18:0
     RDKit          3D

 69 70  0  0  0  0  0  0  0  0999 V2000
   64.8820   33.0840   49.2640 C   0  0  0  0  0  0  0  0  0  0  0  0
   63.5990   32.2850   49.4820 C   0  0  0  0  0  0  0  0  0  0  0  0
   62.4820   32.8740   48.7070 N   0  0  0  0  0  0  0  0  0  0  0  0
   61.7360   33.8640   49.5190 C   0  0  0  0  0  0  0  0  0  0  0  0
   62.2190   33.8260   50.9670 C   0  0  0  0  0  0  0  0  0  0  0  0
   62.9730   33.4770   47.4460 C   0  0  0  0  0  0  0  0  0  0  0  0
   61.8540   33.5840   46.3980 C   0  0  0  0  0  0  0  0  0  0  0  0
   60.8080   34.4280   46.8580 O   0  0  0  0  0  0  0  0  0  0  0  0
   59.7590   34.5490   45.9170 C   0  0  0  0  0  0  0  0  0  0  0  0
   58.4000   34.4720   46.6140 C   0  0  0  0  0  0  0  0  0  0  0  0
   57.7730   33.1780   46.3510 N   0  0  0  0  0  0  0  0  0  0  0  0
   58.4650   31.9480   46.6110 C   0  0  0  0  0  0  0  0  0  0  0  0
   59.4440   31.9130   47.6100 C   0  0  0  0  0  0  0  0  0  0  0  0
   60.1260   30.7230   47.9090 C   0  0  0  0  0  0  0  0  0  0  0  0
   61.0670   30.6860   49.0010 N   0  0  0  0  0  0  0  0  0  0  0  0
   60.8950   29.4480   49.7950 C   0  0  0  0  0  0  0  0  0  0  0  0
   61.0500   29.7020   51.3050 C   0  0  0  0  0  0  0  0  0  0  0  0
   60.3500   31.0000   51.7420 C   0  0  0  0  0  0  0  0  0  0  0  0
   59.2040   31.2950   50.8540 N   0  0  0  0  0  0  0  0  0  0  0  0
   58.0180   30.5150   51.2490 C   0  0  0  0  0  0  0  0  0  0  0  0
   58.8780   32.7300   50.8990 C   0  0  0  0  0  0  0  0  0  0  0  0
   59.8210   29.5540   47.1920 C   0  0  0  0  0  0  0  0  0  0  0  0
   58.8600   29.5810   46.1720 C   0  0  0  0  0  0  0  0  0  0  0  0
   58.5510   28.4290   45.4380 C   0  0  0  0  0  0  0  0  0  0  0  0
   57.5950   28.4830   44.4230 C   0  0  0  0  0  0  0  0  0  0  0  0
   56.9540   29.6980   44.1440 C   0  0  0  0  0  0  0  0  0  0  0  0
   55.8950   29.7730   43.0890 C   0  0  0  0  0  0  0  0  0  0  0  0
   57.2550   30.8040   44.8760 N   0  0  0  0  0  0  0  0  0  0  0  0
   58.1790   30.7820   45.8760 C   0  0  0  0  0  0  0  0  0  0  0  0
   65.3157   33.3541   50.2381 H   0  0  0  0  0  0  0  0  0  0  0  0
   65.6020   32.4743   48.6984 H   0  0  0  0  0  0  0  0  0  0  0  0
   64.6524   33.9991   48.6984 H   0  0  0  0  0  0  0  0  0  0  0  0
   63.7590   31.2472   49.1544 H   0  0  0  0  0  0  0  0  0  0  0  0
   63.3419   32.3102   50.5512 H   0  0  0  0  0  0  0  0  0  0  0  0
   61.9006   34.8705   49.1069 H   0  0  0  0  0  0  0  0  0  0  0  0
   60.6641   33.6184   49.4905 H   0  0  0  0  0  0  0  0  0  0  0  0
   61.3545   33.8940   51.6438 H   0  0  0  0  0  0  0  0  0  0  0  0
   62.7548   32.8829   51.1502 H   0  0  0  0  0  0  0  0  0  0  0  0
   62.8957   34.6737   51.1502 H   0  0  0  0  0  0  0  0  0  0  0  0
   63.3604   34.4843   47.6589 H   0  0  0  0  0  0  0  0  0  0  0  0
   63.7645   32.8299   47.0400 H   0  0  0  0  0  0  0  0  0  0  0  0
   62.2698   33.9997   45.4683 H   0  0  0  0  0  0  0  0  0  0  0  0
   61.4425   32.5796   46.2193 H   0  0  0  0  0  0  0  0  0  0  0  0
   59.8463   35.5163   45.4006 H   0  0  0  0  0  0  0  0  0  0  0  0
   59.8341   33.7237   45.1937 H   0  0  0  0  0  0  0  0  0  0  0  0
   58.5397   34.5949   47.6981 H   0  0  0  0  0  0  0  0  0  0  0  0
   57.7512   35.2716   46.2271 H   0  0  0  0  0  0  0  0  0  0  0  0
   56.9680   33.1600   45.6870 H   0  0  0  0  0  0  0  0  0  0  0  0
   59.6824   32.8302   48.1685 H   0  0  0  0  0  0  0  0  0  0  0  0
   62.0430   30.7210   48.6220 H   0  0  0  0  0  0  0  0  0  0  0  0
   60.9510   31.5450   49.5850 H   0  0  0  0  0  0  0  0  0  0  0  0
   59.8907   29.0415   49.6050 H   0  0  0  0  0  0  0  0  0  0  0  0
   61.6775   28.7381   49.4890 H   0  0  0  0  0  0  0  0  0  0  0  0
   60.6092   28.8575   51.8550 H   0  0  0  0  0  0  0  0  0  0  0  0
   62.1229   29.8017   51.5260 H   0  0  0  0  0  0  0  0  0  0  0  0
   59.9880   30.8861   52.7745 H   0  0  0  0  0  0  0  0  0  0  0  0
   61.0695   31.8298   51.6818 H   0  0  0  0  0  0  0  0  0  0  0  0
   57.9552   30.4737   52.3464 H   0  0  0  0  0  0  0  0  0  0  0  0
   57.1132   30.9949   50.8477 H   0  0  0  0  0  0  0  0  0  0  0  0
   58.1002   29.4941   50.8477 H   0  0  0  0  0  0  0  0  0  0  0  0
   58.8038   33.0565   51.9468 H   0  0  0  0  0  0  0  0  0  0  0  0
   59.6691   33.3018   50.3919 H   0  0  0  0  0  0  0  0  0  0  0  0
   57.9175   32.9039   50.3919 H   0  0  0  0  0  0  0  0  0  0  0  0
   60.3386   28.6135   47.4321 H   0  0  0  0  0  0  0  0  0  0  0  0
   59.0622   27.4811   45.6618 H   0  0  0  0  0  0  0  0  0  0  0  0
   57.3465   27.5797   43.8466 H   0  0  0  0  0  0  0  0  0  0  0  0
   54.9064   29.8430   43.5662 H   0  0  0  0  0  0  0  0  0  0  0  0
   56.0636   30.6615   42.4627 H   0  0  0  0  0  0  0  0  0  0  0  0
   55.9367   28.8697   42.4627 H   0  0  0  0  0  0  0  0  0  0  0  0
  1  2  1  0
  2  3  1  0
  3  4  1  0
  4  5  1  0
  3  6  1  0
  6  7  1  0
  7  8  1  0
  8  9  1  0
  9 10  1  0
 10 11  1  0
 11 12  1  0
 12 13  2  0
 13 14  1  0
 14 15  1  0
 15 16  1  0
 16 17  1  0
 17 18  1  0
 18 19  1  0
 19 20  1  0
 19 21  1  0
 14 22  2  0
 22 23  1  0
 23 24  2  0
 24 25  1  0
 25 26  2  0
 26 27  1  0
 26 28  1  0
 28 29  2  0
 29 12  1  0
 29 23  1  0
  1 30  1  0
  1 31  1  0
  1 32  1  0
  2 33  1  0
  2 34  1  0
  4 35  1  0
  4 36  1  0
  5 37  1  0
  5 38  1  0
  5 39  1  0
  6 40  1  0
  6 41  1  0
  7 42  1  0
  7 43  1  0
  9 44  1  0
  9 45  1  0
 10 46  1  0
 10 47  1  0
 11 48  1  0
 13 49  1  0
 15 50  1  0
 15 51  1  0
 16 52  1  0
 16 53  1  0
 17 54  1  0
 17 55  1  0
 18 56  1  0
 18 57  1  0
 20 58  1  0
 20 59  1  0
 20 60  1  0
 21 61  1  0
 21 62  1  0
 21 63  1  0
 22 64  1  0
 24 65  1  0
 25 66  1  0
 27 67  1  0
 27 68  1  0
 27 69  1  0
M  CHG  1  15   1
M  END
>  <UniqueID>  (19) 
18

>  <SMILES>  (19) 
CCN(CC)CCOCCNc1cc([NH2+]CCCN(C)C)cc2ccc(C)nc12

>  <Energy>  (19) 
71.90958182037352

>  <Genealogy>  (19) 
CCN(CC)CCOCCNc1cc([NH2+]CCCN(C)C)cc2ccc(C)nc12 (protonated)
CCN(CC)CCOCCNc1cc([NH2+]CCCN(C)C)cc2ccc(C)nc12 (3D coordinates assigned)
CCN(CC)CCOCCNc1cc([NH2+]CCCN(C)C)cc2ccc(C)nc12 (optimized conformer: 71.90958182037352 kcal/mol)

>  <smiles>  (19) 
CCN(CC)CCOCCNc1cc(NCCCN(C)C)cc2ccc(C)nc12

>  <score_type>  (19) 
oracle

>  <origin>  (19) 
adg

>  <m_score__min__energy>  (19) 
-5.0899999999999999

>  <m_primary>  (19) 
energy

$$$$
19:0
     RDKit          3D

 61 64  0  0  0  0  0  0  0  0999 V2000
   63.3750   32.6950   47.6420 C   0  0  0  0  0  0  0  0  0  0  0  0
   63.0720   33.9020   48.1300 C   0  0  0  0  0  0  0  0  0  0  0  0
   62.0700   34.0690   49.2360 C   0  0  0  0  0  0  0  0  0  0  0  0
   60.8840   34.6950   48.7460 O   0  0  0  0  0  0  0  0  0  0  0  0
   60.1710   34.2910   47.6040 C   0  0  0  0  0  0  0  0  0  0  0  0
   59.6550   35.2190   46.6590 C   0  0  0  0  0  0  0  0  0  0  0  0
   58.9560   34.7730   45.5270 C   0  0  0  0  0  0  0  0  0  0  0  0
   58.7670   33.4030   45.3670 C   0  0  0  0  0  0  0  0  0  0  0  0
   58.1570   32.7890   44.3320 N   0  0  0  0  0  0  0  0  0  0  0  0
   58.2430   31.4640   44.6090 C   0  0  0  0  0  0  0  0  0  0  0  0
   58.8990   31.2440   45.8030 C   0  0  0  0  0  0  0  0  0  0  0  0
   59.1160   29.9540   46.2870 C   0  0  0  0  0  0  0  0  0  0  0  0
   59.6780   29.7400   47.5900 N   0  0  0  0  0  0  0  0  0  0  0  0
   61.0950   29.9990   47.8470 C   0  0  0  0  0  0  0  0  0  0  0  0
   61.3130   30.4460   49.3000 C   0  0  0  0  0  0  0  0  0  0  0  0
   60.0500   30.3890   50.0730 N   0  0  0  0  0  0  0  0  0  0  0  0
   60.1380   29.3420   51.1170 C   0  0  0  0  0  0  0  0  0  0  0  0
   60.7570   28.0510   50.5750 C   0  0  0  0  0  0  0  0  0  0  0  0
   59.7040   31.7170   50.6470 C   0  0  0  0  0  0  0  0  0  0  0  0
   58.2270   32.0140   50.4130 C   0  0  0  0  0  0  0  0  0  0  0  0
   58.7380   28.8750   45.4520 C   0  0  0  0  0  0  0  0  0  0  0  0
   58.9960   27.5430   45.8320 C   0  0  0  0  0  0  0  0  0  0  0  0
   58.6440   26.4830   45.0000 C   0  0  0  0  0  0  0  0  0  0  0  0
   58.0410   26.7290   43.7720 C   0  0  0  0  0  0  0  0  0  0  0  0
   57.7650   28.0360   43.3710 C   0  0  0  0  0  0  0  0  0  0  0  0
   58.0810   29.1380   44.2020 C   0  0  0  0  0  0  0  0  0  0  0  0
   57.7750   30.4390   43.8300 N   0  0  0  0  0  0  0  0  0  0  0  0
   56.9810   30.7300   42.6230 C   0  0  0  0  0  0  0  0  0  0  0  0
   59.2430   32.4970   46.2860 C   0  0  0  0  0  0  0  0  0  0  0  0
   59.9720   32.9120   47.4050 C   0  0  0  0  0  0  0  0  0  0  0  0
   64.1125   32.5987   46.8315 H   0  0  0  0  0  0  0  0  0  0  0  0
   62.8869   31.7980   48.0509 H   0  0  0  0  0  0  0  0  0  0  0  0
   63.5669   34.7914   47.7128 H   0  0  0  0  0  0  0  0  0  0  0  0
   61.8148   33.0805   49.6456 H   0  0  0  0  0  0  0  0  0  0  0  0
   62.5086   34.7029   50.0207 H   0  0  0  0  0  0  0  0  0  0  0  0
   59.8051   36.2973   46.8166 H   0  0  0  0  0  0  0  0  0  0  0  0
   58.5677   35.4869   44.7857 H   0  0  0  0  0  0  0  0  0  0  0  0
   57.7540   33.2630   43.4950 H   0  0  0  0  0  0  0  0  0  0  0  0
   59.0360   29.7010   48.4120 H   0  0  0  0  0  0  0  0  0  0  0  0
   61.6690   29.0789   47.6628 H   0  0  0  0  0  0  0  0  0  0  0  0
   61.4338   30.8024   47.1764 H   0  0  0  0  0  0  0  0  0  0  0  0
   62.0530   29.7831   49.7722 H   0  0  0  0  0  0  0  0  0  0  0  0
   61.6717   31.4859   49.2946 H   0  0  0  0  0  0  0  0  0  0  0  0
   60.7595   29.7152   51.9443 H   0  0  0  0  0  0  0  0  0  0  0  0
   59.1181   29.1147   51.4608 H   0  0  0  0  0  0  0  0  0  0  0  0
   61.0640   27.4107   51.4151 H   0  0  0  0  0  0  0  0  0  0  0  0
   60.0160   27.5190   49.9602 H   0  0  0  0  0  0  0  0  0  0  0  0
   61.6358   28.2956   49.9602 H   0  0  0  0  0  0  0  0  0  0  0  0
   59.9083   31.7117   51.7279 H   0  0  0  0  0  0  0  0  0  0  0  0
   60.3115   32.4926   50.1578 H   0  0  0  0  0  0  0  0  0  0  0  0
   57.7157   32.1168   51.3815 H   0  0  0  0  0  0  0  0  0  0  0  0
   58.1269   32.9503   49.8443 H   0  0  0  0  0  0  0  0  0  0  0  0
   57.7728   31.1892   49.8443 H   0  0  0  0  0  0  0  0  0  0  0  0
   59.4814   27.3378   46.7976 H   0  0  0  0  0  0  0  0  0  0  0  0
   58.8437   25.4483   45.3155 H   0  0  0  0  0  0  0  0  0  0  0  0
   57.7800   25.8880   43.1127 H   0  0  0  0  0  0  0  0  0  0  0  0
   57.2940   28.2136   42.3929 H   0  0  0  0  0  0  0  0  0  0  0  0
   55.9860   31.0947   42.9178 H   0  0  0  0  0  0  0  0  0  0  0  0
   57.4913   31.4996   42.0252 H   0  0  0  0  0  0  0  0  0  0  0  0
   56.8731   29.8130   42.0252 H   0  0  0  0  0  0  0  0  0  0  0  0
   60.3808   32.1769   48.1139 H   0  0  0  0  0  0  0  0  0  0  0  0
  1  2  2  0
  2  3  1  0
  3  4  1  0
  4  5  1  0
  5  6  2  0
  6  7  1  0
  7  8  2  0
  8  9  1  0
  9 10  1  0
 10 11  2  0
 11 12  1  0
 12 13  1  0
 13 14  1  0
 14 15  1  0
 15 16  1  0
 16 17  1  0
 17 18  1  0
 16 19  1  0
 19 20  1  0
 12 21  2  0
 21 22  1  0
 22 23  2  0
 23 24  1  0
 24 25  2  0
 25 26  1  0
 26 27  2  0
 27 28  1  0
 11 29  1  0
 29 30  2  0
 30  5  1  0
 29  8  1  0
 27 10  1  0
 26 21  1  0
  1 31  1  0
  1 32  1  0
  2 33  1  0
  3 34  1  0
  3 35  1  0
  6 36  1  0
  7 37  1  0
  9 38  1  0
 13 39  1  0
 14 40  1  0
 14 41  1  0
 15 42  1  0
 15 43  1  0
 17 44  1  0
 17 45  1  0
 18 46  1  0
 18 47  1  0
 18 48  1  0
 19 49  1  0
 19 50  1  0
 20 51  1  0
 20 52  1  0
 20 53  1  0
 22 54  1  0
 23 55  1  0
 24 56  1  0
 25 57  1  0
 28 58  1  0
 28 59  1  0
 28 60  1  0
 30 61  1  0
M  CHG  1  27   1
M  END
>  <UniqueID>  (20) 
19

>  <SMILES>  (20) 
C=CCOc1ccc2[nH]c3c(c(NCCN(CC)CC)c4ccccc4[n+]3C)c2c1

>  <Energy>  (20) 
112.82727466430204

>  <Genealogy>  (20) 
C=CCOc1ccc2[nH]c3c(c(NCCN(CC)CC)c4ccccc4[n+]3C)c2c1 (3D coordinates assigned)
C=CCOc1ccc2[nH]c3c(c(NCCN(CC)CC)c4ccccc4[n+]3C)c2c1 (optimized conformer: 112.82727466430204 kcal/mol)

>  <smiles>  (20) 
C=CCOc1ccc2[nH]c3c(c(NCCN(CC)CC)c4ccccc4[n+]3C)c2c1

>  <score_type>  (20) 
oracle

>  <origin>  (20) 
adg

>  <m_score__min__energy>  (20) 
-5.9100000000000001

>  <m_primary>  (20) 
energy

$$$$
20:0
     RDKit          3D

 60 63  0  0  0  0  0  0  0  0999 V2000
   65.5300   32.8660   49.7720 C   0  0  0  0  0  0  0  0  0  0  0  0
   64.3200   31.9400   49.7460 C   0  0  0  0  0  0  0  0  0  0  0  0
   63.2460   32.5460   48.9230 N   0  0  0  0  0  0  0  0  0  0  0  0
   63.6950   33.7020   48.1180 C   0  0  0  0  0  0  0  0  0  0  0  0
   63.3700   33.5050   46.6390 C   0  0  0  0  0  0  0  0  0  0  0  0
   62.0190   32.8340   49.7000 C   0  0  0  0  0  0  0  0  0  0  0  0
   60.7310   32.2040   49.1140 C   0  0  0  0  0  0  0  0  0  0  0  0
   60.9780   31.5440   47.8300 N   0  0  0  0  0  0  0  0  0  0  0  0
   59.9070   31.3340   46.9040 C   0  0  0  0  0  0  0  0  0  0  0  0
   59.3510   32.4170   46.1810 C   0  0  0  0  0  0  0  0  0  0  0  0
   59.8890   33.7140   46.3020 C   0  0  0  0  0  0  0  0  0  0  0  0
   59.3100   34.7890   45.6320 C   0  0  0  0  0  0  0  0  0  0  0  0
   58.1850   34.5950   44.8390 C   0  0  0  0  0  0  0  0  0  0  0  0
   57.6450   33.3190   44.6810 C   0  0  0  0  0  0  0  0  0  0  0  0
   58.2310   32.1960   45.3140 C   0  0  0  0  0  0  0  0  0  0  0  0
   57.7350   30.9170   45.1260 N   0  0  0  0  0  0  0  0  0  0  0  0
   56.7940   30.6120   44.0360 C   0  0  0  0  0  0  0  0  0  0  0  0
   58.2160   29.9100   45.9250 C   0  0  0  0  0  0  0  0  0  0  0  0
   57.7830   28.5980   46.1040 C   0  0  0  0  0  0  0  0  0  0  0  0
   56.6440   27.9050   45.6680 C   0  0  0  0  0  0  0  0  0  0  0  0
   56.4590   26.5750   46.0830 C   0  0  0  0  0  0  0  0  0  0  0  0
   55.3230   25.8920   45.6230 O   0  0  0  0  0  0  0  0  0  0  0  0
   55.3070   24.5170   45.2520 C   0  0  0  0  0  0  0  0  0  0  0  0
   57.4030   25.9720   46.9500 C   0  0  0  0  0  0  0  0  0  0  0  0
   58.5080   26.6980   47.4200 C   0  0  0  0  0  0  0  0  0  0  0  0
   58.6760   28.0190   46.9860 C   0  0  0  0  0  0  0  0  0  0  0  0
   59.6290   28.9030   47.3750 N   0  0  0  0  0  0  0  0  0  0  0  0
   60.7330   28.6470   48.3060 C   0  0  0  0  0  0  0  0  0  0  0  0
   59.3120   30.0740   46.7540 C   0  0  0  0  0  0  0  0  0  0  0  0
   65.8071   33.0781   50.8152 H   0  0  0  0  0  0  0  0  0  0  0  0
   66.3740   32.3809   49.2598 H   0  0  0  0  0  0  0  0  0  0  0  0
   65.2823   33.8074   49.2598 H   0  0  0  0  0  0  0  0  0  0  0  0
   64.6100   30.9712   49.3133 H   0  0  0  0  0  0  0  0  0  0  0  0
   63.9529   31.7906   50.7721 H   0  0  0  0  0  0  0  0  0  0  0  0
   63.1881   34.6091   48.4790 H   0  0  0  0  0  0  0  0  0  0  0  0
   64.7855   33.7983   48.2250 H   0  0  0  0  0  0  0  0  0  0  0  0
   62.4330   32.9370   46.5420 H   0  0  0  0  0  0  0  0  0  0  0  0
   63.2559   34.4861   46.1548 H   0  0  0  0  0  0  0  0  0  0  0  0
   64.1870   32.9500   46.1548 H   0  0  0  0  0  0  0  0  0  0  0  0
   62.1585   32.4470   50.7202 H   0  0  0  0  0  0  0  0  0  0  0  0
   61.8772   33.9245   49.6722 H   0  0  0  0  0  0  0  0  0  0  0  0
   60.3433   31.4610   49.8264 H   0  0  0  0  0  0  0  0  0  0  0  0
   60.0036   33.0119   48.9463 H   0  0  0  0  0  0  0  0  0  0  0  0
   61.9200   31.1620   47.5870 H   0  0  0  0  0  0  0  0  0  0  0  0
   60.7754   33.8790   46.9321 H   0  0  0  0  0  0  0  0  0  0  0  0
   59.7444   35.7948   45.7307 H   0  0  0  0  0  0  0  0  0  0  0  0
   57.7180   35.4529   44.3332 H   0  0  0  0  0  0  0  0  0  0  0  0
   56.7506   33.1828   44.0554 H   0  0  0  0  0  0  0  0  0  0  0  0
   55.8290   30.2992   44.4614 H   0  0  0  0  0  0  0  0  0  0  0  0
   56.6479   31.5088   43.4160 H   0  0  0  0  0  0  0  0  0  0  0  0
   57.2018   29.8000   43.4160 H   0  0  0  0  0  0  0  0  0  0  0  0
   55.9083   28.3941   45.0126 H   0  0  0  0  0  0  0  0  0  0  0  0
   55.2997   23.8929   46.1578 H   0  0  0  0  0  0  0  0  0  0  0  0
   54.4064   24.3085   44.6558 H   0  0  0  0  0  0  0  0  0  0  0  0
   56.2025   24.2876   44.6558 H   0  0  0  0  0  0  0  0  0  0  0  0
   57.2686   24.9245   47.2578 H   0  0  0  0  0  0  0  0  0  0  0  0
   59.2271   26.2393   48.1146 H   0  0  0  0  0  0  0  0  0  0  0  0
   60.3677   28.7317   49.3401 H   0  0  0  0  0  0  0  0  0  0  0  0
   61.1268   27.6337   48.1381 H   0  0  0  0  0  0  0  0  0  0  0  0
   61.5325   29.3836   48.1381 H   0  0  0  0  0  0  0  0  0  0  0  0
  1  2  1  0
  2  3  1  0
  3  4  1  0
  4  5  1  0
  3  6  1  0
  6  7  1  0
  7  8  1  0
  8  9  1  0
  9 10  2  0
 10 11  1  0
 11 12  2  0
 12 13  1  0
 13 14  2  0
 14 15  1  0
 15 16  2  0
 16 17  1  0
 16 18  1  0
 18 19  1  0
 19 20  2  0
 20 21  1  0
 21 22  1  0
 22 23  1  0
 21 24  2  0
 24 25  1  0
 25 26  2  0
 26 27  1  0
 27 28  1  0
 27 29  1  0
 29  9  1  0
 15 10  1  0
 29 18  2  0
 26 19  1  0
  1 30  1  0
  1 31  1  0
  1 32  1  0
  2 33  1  0
  2 34  1  0
  4 35  1  0
  4 36  1  0
  5 37  1  0
  5 38  1  0
  5 39  1  0
  6 40  1  0
  6 41  1  0
  7 42  1  0
  7 43  1  0
  8 44  1  0
 11 45  1  0
 12 46  1  0
 13 47  1  0
 14 48  1  0
 17 49  1  0
 17 50  1  0
 17 51  1  0
 20 52  1  0
 23 53  1  0
 23 54  1  0
 23 55  1  0
 24 56  1  0
 25 57  1  0
 28 58  1  0
 28 59  1  0
 28 60  1  0
M  CHG  1  16   1
M  END
>  <UniqueID>  (21) 
20

>  <SMILES>  (21) 
CCN(CC)CCNc1c2ccccc2[n+](C)c2c3cc(OC)ccc3n(C)c12

>  <Energy>  (21) 
129.44418420824988

>  <Genealogy>  (21) 
CCN(CC)CCNc1c2ccccc2[n+](C)c2c3cc(OC)ccc3n(C)c12 (3D coordinates assigned)
CCN(CC)CCNc1c2ccccc2[n+](C)c2c3cc(OC)ccc3n(C)c12 (optimized conformer: 129.44418420824988 kcal/mol)

>  <smiles>  (21) 
CCN(CC)CCNc1c2ccccc2[n+](C)c2c3cc(OC)ccc3n(C)c12

>  <score_type>  (21) 
oracle

>  <origin>  (21) 
adg

>  <m_score__min__energy>  (21) 
-6.3600000000000003

>  <m_primary>  (21) 
energy

$$$$
21:0
     RDKit          3D

 56 58  0  0  0  0  0  0  0  0999 V2000
   60.7740   26.7190   47.8890 C   0  0  0  0  0  0  0  0  0  0  0  0
   60.5920   26.6360   46.3770 C   0  0  0  0  0  0  0  0  0  0  0  0
   59.2390   26.0040   46.0130 C   0  0  0  0  0  0  0  0  0  0  0  0
   58.0530   26.8230   46.5410 C   0  0  0  0  0  0  0  0  0  0  0  0
   58.2310   28.2910   46.2890 C   0  0  0  0  0  0  0  0  0  0  0  0
   58.8630   29.1890   47.1480 C   0  0  0  0  0  0  0  0  0  0  0  0
   58.9270   30.4910   46.6210 C   0  0  0  0  0  0  0  0  0  0  0  0
   59.5200   31.6000   47.2280 C   0  0  0  0  0  0  0  0  0  0  0  0
   60.1730   31.4540   48.5000 N   0  0  0  0  0  0  0  0  0  0  0  0
   61.5470   30.9620   48.6290 C   0  0  0  0  0  0  0  0  0  0  0  0
   62.4610   31.5610   47.5300 C   0  0  0  0  0  0  0  0  0  0  0  0
   63.6470   32.2990   48.0380 N   0  0  2  0  0  0  0  0  0  0  0  0
   63.9430   31.9660   49.4490 C   0  0  0  0  0  0  0  0  0  0  0  0
   63.5190   33.7600   47.8270 C   0  0  0  0  0  0  0  0  0  0  0  0
   63.3580   34.1280   46.3500 C   0  0  0  0  0  0  0  0  0  0  0  0
   59.4420   32.8470   46.5610 C   0  0  0  0  0  0  0  0  0  0  0  0
   59.8920   34.0310   47.1820 C   0  0  0  0  0  0  0  0  0  0  0  0
   59.8220   35.2550   46.5200 C   0  0  0  0  0  0  0  0  0  0  0  0
   59.2870   35.3270   45.2380 C   0  0  0  0  0  0  0  0  0  0  0  0
   58.8010   34.1800   44.6120 C   0  0  0  0  0  0  0  0  0  0  0  0
   58.8520   32.9200   45.2570 C   0  0  0  0  0  0  0  0  0  0  0  0
   58.3330   31.7830   44.6620 N   0  0  0  0  0  0  0  0  0  0  0  0
   57.7360   31.8360   43.3140 C   0  0  0  0  0  0  0  0  0  0  0  0
   58.3600   30.6070   45.3620 C   0  0  0  0  0  0  0  0  0  0  0  0
   57.7670   29.0980   44.8830 S   0  0  0  0  0  0  0  0  0  0  0  0
   59.8823   26.3123   48.3885 H   0  0  0  0  0  0  0  0  0  0  0  0
   61.6581   26.1351   48.1845 H   0  0  0  0  0  0  0  0  0  0  0  0
   60.9128   27.7694   48.1845 H   0  0  0  0  0  0  0  0  0  0  0  0
   60.6395   27.6502   45.9538 H   0  0  0  0  0  0  0  0  0  0  0  0
   61.3930   26.0051   45.9642 H   0  0  0  0  0  0  0  0  0  0  0  0
   59.1630   25.9370   44.9177 H   0  0  0  0  0  0  0  0  0  0  0  0
   59.1956   25.0091   46.4801 H   0  0  0  0  0  0  0  0  0  0  0  0
   57.1351   26.4845   46.0382 H   0  0  0  0  0  0  0  0  0  0  0  0
   57.9892   26.6689   47.6283 H   0  0  0  0  0  0  0  0  0  0  0  0
   59.2678   28.9092   48.1318 H   0  0  0  0  0  0  0  0  0  0  0  0
   59.5940   31.5170   49.3670 H   0  0  0  0  0  0  0  0  0  0  0  0
   61.9391   31.2467   49.6165 H   0  0  0  0  0  0  0  0  0  0  0  0
   61.5377   29.8678   48.5168 H   0  0  0  0  0  0  0  0  0  0  0  0
   62.8174   30.7366   46.8949 H   0  0  0  0  0  0  0  0  0  0  0  0
   61.8494   32.2958   46.9859 H   0  0  0  0  0  0  0  0  0  0  0  0
   64.4600   31.9570   47.4690 H   0  0  0  0  0  0  0  0  0  0  0  0
   63.3593   32.6226   50.1109 H   0  0  0  0  0  0  0  0  0  0  0  0
   63.6736   30.9172   49.6425 H   0  0  0  0  0  0  0  0  0  0  0  0
   65.0161   32.1106   49.6425 H   0  0  0  0  0  0  0  0  0  0  0  0
   62.6377   34.1200   48.3781 H   0  0  0  0  0  0  0  0  0  0  0  0
   64.4440   34.2320   48.1897 H   0  0  0  0  0  0  0  0  0  0  0  0
   62.9183   35.1330   46.2683 H   0  0  0  0  0  0  0  0  0  0  0  0
   64.3428   34.1177   45.8601 H   0  0  0  0  0  0  0  0  0  0  0  0
   62.6971   33.3977   45.8601 H   0  0  0  0  0  0  0  0  0  0  0  0
   60.3032   33.9874   48.2013 H   0  0  0  0  0  0  0  0  0  0  0  0
   60.1908   36.1668   47.0125 H   0  0  0  0  0  0  0  0  0  0  0  0
   59.2472   36.2941   44.7153 H   0  0  0  0  0  0  0  0  0  0  0  0
   58.3715   34.2547   43.6021 H   0  0  0  0  0  0  0  0  0  0  0  0
   56.6437   31.9330   43.4003 H   0  0  0  0  0  0  0  0  0  0  0  0
   58.1390   32.7019   42.7683 H   0  0  0  0  0  0  0  0  0  0  0  0
   57.9802   30.9126   42.7683 H   0  0  0  0  0  0  0  0  0  0  0  0
  1  2  1  0
  2  3  1  0
  3  4  1  0
  4  5  1  0
  5  6  2  0
  6  7  1  0
  7  8  2  0
  8  9  1  0
  9 10  1  0
 10 11  1  0
 11 12  1  0
 12 13  1  0
 12 14  1  0
 14 15  1  0
  8 16  1  0
 16 17  2  0
 17 18  1  0
 18 19  2  0
 19 20  1  0
 20 21  2  0
 21 22  1  0
 22 23  1  0
 22 24  2  0
 24 25  1  0
 25  5  1  0
 24  7  1  0
 21 16  1  0
  1 26  1  0
  1 27  1  0
  1 28  1  0
  2 29  1  0
  2 30  1  0
  3 31  1  0
  3 32  1  0
  4 33  1  0
  4 34  1  0
  6 35  1  0
  9 36  1  0
 10 37  1  0
 10 38  1  0
 11 39  1  0
 11 40  1  0
 12 41  1  6
 13 42  1  0
 13 43  1  0
 13 44  1  0
 14 45  1  0
 14 46  1  0
 15 47  1  0
 15 48  1  0
 15 49  1  0
 17 50  1  0
 18 51  1  0
 19 52  1  0
 20 53  1  0
 23 54  1  0
 23 55  1  0
 23 56  1  0
M  CHG  2  12   1  22   1
M  END
>  <UniqueID>  (22) 
21

>  <SMILES>  (22) 
CCCCc1cc2c(NCC[N@H+](C)CC)c3ccccc3[n+](C)c2s1

>  <Energy>  (22) 
95.81946644062175

>  <Genealogy>  (22) 
CCCCc1cc2c(NCC[NH+](C)CC)c3ccccc3[n+](C)c2s1 (protonated)
CCCCc1cc2c(NCC[N@H+](C)CC)c3ccccc3[n+](C)c2s1 (chirality)
CCCCc1cc2c(NCC[N@H+](C)CC)c3ccccc3[n+](C)c2s1 (3D coordinates assigned)
CCCCc1cc2c(NCC[N@H+](C)CC)c3ccccc3[n+](C)c2s1 (optimized conformer: 95.81946644062175 kcal/mol)

>  <smiles>  (22) 
CCCCc1cc2c(NCCN(C)CC)c3ccccc3[n+](C)c2s1

>  <score_type>  (22) 
oracle

>  <origin>  (22) 
adg

>  <m_score__min__energy>  (22) 
-4.6699999999999999

>  <m_primary>  (22) 
energy

$$$$
22:0
     RDKit          3D

 57 59  0  0  0  0  0  0  0  0999 V2000
   63.3160   33.8040   46.6660 C   0  0  0  0  0  0  0  0  0  0  0  0
   63.3290   32.4600   47.4020 C   0  0  0  0  0  0  0  0  0  0  0  0
   62.8730   32.5750   48.8110 N   0  0  0  0  0  0  0  0  0  0  0  0
   63.7750   33.4300   49.6390 C   0  0  0  0  0  0  0  0  0  0  0  0
   63.0020   34.4570   50.4740 C   0  0  0  0  0  0  0  0  0  0  0  0
   62.6140   31.2420   49.4330 C   0  0  0  0  0  0  0  0  0  0  0  0
   61.1360   30.7690   49.4970 C   0  0  0  0  0  0  0  0  0  0  0  0
   60.5350   30.2660   48.1770 C   0  0  0  0  0  0  0  0  0  0  0  0
   59.1660   30.7530   47.9930 N   0  0  0  0  0  0  0  0  0  0  0  0
   58.7160   31.3270   46.7520 C   0  0  0  0  0  0  0  0  0  0  0  0
   59.0370   32.6580   46.4250 C   0  0  0  0  0  0  0  0  0  0  0  0
   59.6250   33.5190   47.3770 C   0  0  0  0  0  0  0  0  0  0  0  0
   59.9240   34.8400   47.0550 C   0  0  0  0  0  0  0  0  0  0  0  0
   59.6230   35.3340   45.7920 C   0  0  0  0  0  0  0  0  0  0  0  0
   59.0250   34.5080   44.8400 C   0  0  0  0  0  0  0  0  0  0  0  0
   58.7360   33.1500   45.1270 C   0  0  0  0  0  0  0  0  0  0  0  0
   58.1610   32.3170   44.1870 N   0  0  0  0  0  0  0  0  0  0  0  0
   58.1230   32.7220   42.7650 C   0  0  0  0  0  0  0  0  0  0  0  0
   57.6390   31.0970   44.5750 C   0  0  0  0  0  0  0  0  0  0  0  0
   56.7920   30.3460   43.7230 C   0  0  0  0  0  0  0  0  0  0  0  0
   56.3320   29.0840   44.0930 C   0  0  0  0  0  0  0  0  0  0  0  0
   56.6830   28.5320   45.3210 C   0  0  0  0  0  0  0  0  0  0  0  0
   56.2140   27.2460   45.6290 O   0  0  0  0  0  0  0  0  0  0  0  0
   57.0480   26.1080   45.8250 C   0  0  0  0  0  0  0  0  0  0  0  0
   57.4800   29.2770   46.2030 C   0  0  0  0  0  0  0  0  0  0  0  0
   57.9430   30.5660   45.8560 C   0  0  0  0  0  0  0  0  0  0  0  0
   63.3081   34.6237   47.3995 H   0  0  0  0  0  0  0  0  0  0  0  0
   64.2134   33.8852   46.0351 H   0  0  0  0  0  0  0  0  0  0  0  0
   62.4172   33.8679   46.0351 H   0  0  0  0  0  0  0  0  0  0  0  0
   62.6638   31.7621   46.8724 H   0  0  0  0  0  0  0  0  0  0  0  0
   64.3679   32.0987   47.4168 H   0  0  0  0  0  0  0  0  0  0  0  0
   61.9270   33.0290   48.7760 H   0  0  0  0  0  0  0  0  0  0  0  0
   64.3497   32.7831   50.3181 H   0  0  0  0  0  0  0  0  0  0  0  0
   64.4350   33.9828   48.9543 H   0  0  0  0  0  0  0  0  0  0  0  0
   63.1568   34.2513   51.5434 H   0  0  0  0  0  0  0  0  0  0  0  0
   63.3648   35.4685   50.2389 H   0  0  0  0  0  0  0  0  0  0  0  0
   61.9296   34.3882   50.2389 H   0  0  0  0  0  0  0  0  0  0  0  0
   63.1777   30.4924   48.8582 H   0  0  0  0  0  0  0  0  0  0  0  0
   62.9247   31.3513   50.4825 H   0  0  0  0  0  0  0  0  0  0  0  0
   61.0758   29.9497   50.2285 H   0  0  0  0  0  0  0  0  0  0  0  0
   60.5503   31.6590   49.7706 H   0  0  0  0  0  0  0  0  0  0  0  0
   61.1566   30.6219   47.3422 H   0  0  0  0  0  0  0  0  0  0  0  0
   60.5105   29.1666   48.2046 H   0  0  0  0  0  0  0  0  0  0  0  0
   58.4740   30.5820   48.7570 H   0  0  0  0  0  0  0  0  0  0  0  0
   59.8496   33.1414   48.3855 H   0  0  0  0  0  0  0  0  0  0  0  0
   60.3992   35.4934   47.8015 H   0  0  0  0  0  0  0  0  0  0  0  0
   59.8568   36.3794   45.5419 H   0  0  0  0  0  0  0  0  0  0  0  0
   58.7736   34.9171   43.8503 H   0  0  0  0  0  0  0  0  0  0  0  0
   58.0204   33.8151   42.6977 H   0  0  0  0  0  0  0  0  0  0  0  0
   59.0544   32.4099   42.2699 H   0  0  0  0  0  0  0  0  0  0  0  0
   57.2659   32.2421   42.2699 H   0  0  0  0  0  0  0  0  0  0  0  0
   56.4922   30.7669   42.7519 H   0  0  0  0  0  0  0  0  0  0  0  0
   55.6845   28.5181   43.4071 H   0  0  0  0  0  0  0  0  0  0  0  0
   57.1783   25.9302   46.9027 H   0  0  0  0  0  0  0  0  0  0  0  0
   56.5804   25.2266   45.3618 H   0  0  0  0  0  0  0  0  0  0  0  0
   58.0293   26.2884   45.3618 H   0  0  0  0  0  0  0  0  0  0  0  0
   57.7489   28.8506   47.1807 H   0  0  0  0  0  0  0  0  0  0  0  0
  1  2  1  0
  2  3  1  0
  3  4  1  0
  4  5  1  0
  3  6  1  0
  6  7  1  0
  7  8  1  0
  8  9  1  0
  9 10  1  0
 10 11  2  0
 11 12  1  0
 12 13  2  0
 13 14  1  0
 14 15  2  0
 15 16  1  0
 16 17  2  0
 17 18  1  0
 17 19  1  0
 19 20  2  0
 20 21  1  0
 21 22  2  0
 22 23  1  0
 23 24  1  0
 22 25  1  0
 25 26  2  0
 26 10  1  0
 16 11  1  0
 26 19  1  0
  1 27  1  0
  1 28  1  0
  1 29  1  0
  2 30  1  0
  2 31  1  0
  3 32  1  0
  4 33  1  0
  4 34  1  0
  5 35  1  0
  5 36  1  0
  5 37  1  0
  6 38  1  0
  6 39  1  0
  7 40  1  0
  7 41  1  0
  8 42  1  0
  8 43  1  0
  9 44  1  0
 12 45  1  0
 13 46  1  0
 14 47  1  0
 15 48  1  0
 18 49  1  0
 18 50  1  0
 18 51  1  0
 20 52  1  0
 21 53  1  0
 24 54  1  0
 24 55  1  0
 24 56  1  0
 25 57  1  0
M  CHG  2   3   1  17   1
M  END
>  <UniqueID>  (23) 
22

>  <SMILES>  (23) 
CC[NH+](CC)CCCNc1c2ccccc2[n+](C)c2ccc(OC)cc12

>  <Energy>  (23) 
87.02589117490807

>  <Genealogy>  (23) 
CC[NH+](CC)CCCNc1c2ccccc2[n+](C)c2ccc(OC)cc12 (protonated)
CC[NH+](CC)CCCNc1c2ccccc2[n+](C)c2ccc(OC)cc12 (3D coordinates assigned)
CC[NH+](CC)CCCNc1c2ccccc2[n+](C)c2ccc(OC)cc12 (optimized conformer: 87.02589117490807 kcal/mol)

>  <smiles>  (23) 
CCN(CC)CCCNc1c2ccccc2[n+](C)c2ccc(OC)cc12

>  <score_type>  (23) 
oracle

>  <origin>  (23) 
adg

>  <m_score__min__energy>  (23) 
-4.9000000000000004

>  <m_primary>  (23) 
energy

$$$$
23:0
     RDKit          3D

 47 50  0  0  0  0  0  0  0  0999 V2000
   55.9460   30.4210   44.1110 C   0  0  0  0  0  0  0  0  0  0  0  0
   57.0710   30.9700   44.8880 N   0  0  0  0  0  0  0  0  0  0  0  0
   58.3810   30.5630   44.3410 C   0  0  0  0  0  0  0  0  0  0  0  0
   59.0110   29.5110   45.2120 C   0  0  0  0  0  0  0  0  0  0  0  0
   60.1750   29.6940   45.9320 C   0  0  0  0  0  0  0  0  0  0  0  0
   60.4010   28.5920   46.6690 N   0  0  0  0  0  0  0  0  0  0  0  0
   59.3760   27.7580   46.4050 C   0  0  0  0  0  0  0  0  0  0  0  0
   58.5120   28.2830   45.5030 N   0  0  0  0  0  0  0  0  0  0  0  0
   57.2980   27.6310   45.0030 C   0  0  0  0  0  0  0  0  0  0  0  0
   56.9050   26.4370   45.8910 C   0  0  0  0  0  0  0  0  0  0  0  0
   57.6470   25.2030   45.5450 N   0  0  0  0  0  0  0  0  0  0  0  0
   57.6200   24.9840   44.0850 C   0  0  0  0  0  0  0  0  0  0  0  0
   57.2230   23.5710   43.7830 C   0  0  0  0  0  0  0  0  0  0  0  0
   57.9200   22.4330   44.1260 C   0  0  0  0  0  0  0  0  0  0  0  0
   57.1710   21.3830   43.6370 C   0  0  0  0  0  0  0  0  0  0  0  0
   56.0940   21.8430   43.0390 O   0  0  0  0  0  0  0  0  0  0  0  0
   56.0930   23.1550   43.1100 C   0  0  0  0  0  0  0  0  0  0  0  0
   59.0330   25.2310   46.0710 C   0  0  0  0  0  0  0  0  0  0  0  0
   59.2340   26.4040   47.0600 C   0  0  0  0  0  0  0  0  0  0  0  0
   57.0340   32.4300   45.1750 C   0  0  0  0  0  0  0  0  0  0  0  0
   58.1570   32.9450   46.0720 C   0  0  0  0  0  0  0  0  0  0  0  0
   58.1210   33.3510   44.6080 C   0  0  0  0  0  0  0  0  0  0  0  0
   55.1745   30.0445   44.7988 H   0  0  0  0  0  0  0  0  0  0  0  0
   55.5179   31.2115   43.4771 H   0  0  0  0  0  0  0  0  0  0  0  0
   56.3057   29.5971   43.4771 H   0  0  0  0  0  0  0  0  0  0  0  0
   58.2404   30.1578   43.3281 H   0  0  0  0  0  0  0  0  0  0  0  0
   59.0421   31.4416   44.3092 H   0  0  0  0  0  0  0  0  0  0  0  0
   60.8110   30.5911   45.9069 H   0  0  0  0  0  0  0  0  0  0  0  0
   61.1960   28.4320   47.3270 H   0  0  0  0  0  0  0  0  0  0  0  0
   56.4748   28.3606   44.9969 H   0  0  0  0  0  0  0  0  0  0  0  0
   57.4937   27.2607   43.9859 H   0  0  0  0  0  0  0  0  0  0  0  0
   57.1162   26.6930   46.9397 H   0  0  0  0  0  0  0  0  0  0  0  0
   55.8350   26.2392   45.7299 H   0  0  0  0  0  0  0  0  0  0  0  0
   56.8935   25.6716   43.6274 H   0  0  0  0  0  0  0  0  0  0  0  0
   58.6231   25.1715   43.6744 H   0  0  0  0  0  0  0  0  0  0  0  0
   58.8721   22.3743   44.6738 H   0  0  0  0  0  0  0  0  0  0  0  0
   57.4352   20.3195   43.7330 H   0  0  0  0  0  0  0  0  0  0  0  0
   55.3157   23.8158   42.6987 H   0  0  0  0  0  0  0  0  0  0  0  0
   59.2382   24.2839   46.5915 H   0  0  0  0  0  0  0  0  0  0  0  0
   59.7232   25.3670   45.2254 H   0  0  0  0  0  0  0  0  0  0  0  0
   58.3654   26.4378   47.7341 H   0  0  0  0  0  0  0  0  0  0  0  0
   60.1800   26.2105   47.5870 H   0  0  0  0  0  0  0  0  0  0  0  0
   55.9346   32.4622   45.1563 H   0  0  0  0  0  0  0  0  0  0  0  0
   57.9384   33.6881   46.8531 H   0  0  0  0  0  0  0  0  0  0  0  0
   58.9038   32.4731   46.7275 H   0  0  0  0  0  0  0  0  0  0  0  0
   57.8747   34.3865   44.3303 H   0  0  0  0  0  0  0  0  0  0  0  0
   58.8282   33.2938   43.7674 H   0  0  0  0  0  0  0  0  0  0  0  0
  1  2  1  0
  2  3  1  0
  3  4  1  0
  4  5  2  0
  5  6  1  0
  6  7  2  0
  7  8  1  0
  8  9  1  0
  9 10  1  0
 10 11  1  0
 11 12  1  0
 12 13  1  0
 13 14  1  0
 14 15  2  0
 15 16  1  0
 16 17  1  0
 11 18  1  0
 18 19  1  0
  2 20  1  0
 20 21  1  0
 21 22  1  0
  8  4  1  0
 17 13  2  0
 22 20  1  0
 19  7  1  0
  1 23  1  0
  1 24  1  0
  1 25  1  0
  3 26  1  0
  3 27  1  0
  5 28  1  0
  6 29  1  0
  9 30  1  0
  9 31  1  0
 10 32  1  0
 10 33  1  0
 12 34  1  0
 12 35  1  0
 14 36  1  0
 15 37  1  0
 17 38  1  0
 18 39  1  0
 18 40  1  0
 19 41  1  0
 19 42  1  0
 20 43  1  0
 21 44  1  0
 21 45  1  0
 22 46  1  0
 22 47  1  0
M  CHG  1   6   1
M  END
>  <UniqueID>  (24) 
23

>  <SMILES>  (24) 
CN(Cc1c[nH+]c2n1CCN(Cc1ccoc1)CC2)C1CC1

>  <Energy>  (24) 
388.2285783506698

>  <Genealogy>  (24) 
CN(Cc1c[nH+]c2n1CCN(Cc1ccoc1)CC2)C1CC1 (protonated)
CN(Cc1c[nH+]c2n1CCN(Cc1ccoc1)CC2)C1CC1 (3D coordinates assigned)
CN(Cc1c[nH+]c2n1CCN(Cc1ccoc1)CC2)C1CC1 (nonaromatic ring conformer: 388.2285783506698 kcal/mol)

>  <smiles>  (24) 
CN(Cc1cnc2n1CCN(Cc1ccoc1)CC2)C1CC1

>  <score_type>  (24) 
oracle

>  <origin>  (24) 
adg

>  <m_score__min__energy>  (24) 
-4

>  <m_primary>  (24) 
energy

$$$$
24:0
     RDKit          3D

 47 48  0  0  0  0  0  0  0  0999 V2000
   57.0410   28.6490   44.8490 C   0  0  0  0  0  0  0  0  0  0  0  0
   56.1580   29.7490   44.8780 O   0  0  0  0  0  0  0  0  0  0  0  0
   56.2180   30.4630   43.6580 C   0  0  0  0  0  0  0  0  0  0  0  0
   57.6640   30.8880   43.3670 C   0  0  0  0  0  0  0  0  0  0  0  0
   57.8500   32.4110   43.4620 C   0  0  0  0  0  0  0  0  0  0  0  0
   58.3960   32.8230   44.7740 N   0  0  0  0  0  0  0  0  0  0  0  0
   57.4270   32.5760   45.8730 C   0  0  0  0  0  0  0  0  0  0  0  0
   57.6550   33.4720   47.1070 C   0  0  0  0  0  0  0  0  0  0  0  0
   59.0520   33.9180   47.1760 N   0  0  0  0  0  0  0  0  0  0  0  0
   59.7730   33.9700   48.4220 C   0  0  0  0  0  0  0  0  0  0  0  0
   60.5020   34.9680   48.6730 O   0  0  0  0  0  0  0  0  0  0  0  0
   59.7980   32.8020   49.3690 C   0  0  0  0  0  0  0  0  0  0  0  0
   59.9800   31.5490   48.6360 N   0  0  0  0  0  0  0  0  0  0  0  0
   59.0920   30.5670   48.6520 N   0  0  0  0  0  0  0  0  0  0  0  0
   59.5470   29.5980   47.8330 C   0  0  0  0  0  0  0  0  0  0  0  0
   58.7930   28.3490   47.5220 C   0  0  0  0  0  0  0  0  0  0  0  0
   60.7410   29.9860   47.2530 C   0  0  0  0  0  0  0  0  0  0  0  0
   60.9880   31.2310   47.7950 C   0  0  0  0  0  0  0  0  0  0  0  0
   62.1460   32.1150   47.4540 C   0  0  0  0  0  0  0  0  0  0  0  0
   59.6470   34.5440   45.9890 C   0  0  0  0  0  0  0  0  0  0  0  0
   58.8240   34.2330   44.7340 C   0  0  0  0  0  0  0  0  0  0  0  0
   57.2838   28.3465   45.8783 H   0  0  0  0  0  0  0  0  0  0  0  0
   56.5634   27.8092   44.3230 H   0  0  0  0  0  0  0  0  0  0  0  0
   57.9642   28.9337   44.3230 H   0  0  0  0  0  0  0  0  0  0  0  0
   55.8563   29.8202   42.8419 H   0  0  0  0  0  0  0  0  0  0  0  0
   55.5870   31.3608   43.7345 H   0  0  0  0  0  0  0  0  0  0  0  0
   58.3296   30.4033   44.0964 H   0  0  0  0  0  0  0  0  0  0  0  0
   57.9067   30.5808   42.3390 H   0  0  0  0  0  0  0  0  0  0  0  0
   58.5437   32.7338   42.6717 H   0  0  0  0  0  0  0  0  0  0  0  0
   56.8629   32.8815   43.3424 H   0  0  0  0  0  0  0  0  0  0  0  0
   56.4123   32.7614   45.4908 H   0  0  0  0  0  0  0  0  0  0  0  0
   57.5662   31.5347   46.1991 H   0  0  0  0  0  0  0  0  0  0  0  0
   56.9983   34.3519   47.0401 H   0  0  0  0  0  0  0  0  0  0  0  0
   57.4251   32.8908   48.0122 H   0  0  0  0  0  0  0  0  0  0  0  0
   60.6287   32.9297   50.0787 H   0  0  0  0  0  0  0  0  0  0  0  0
   58.8400   32.7617   49.9080 H   0  0  0  0  0  0  0  0  0  0  0  0
   58.4959   27.8569   48.4599 H   0  0  0  0  0  0  0  0  0  0  0  0
   57.8946   28.5987   46.9384 H   0  0  0  0  0  0  0  0  0  0  0  0
   59.4324   27.6704   46.9384 H   0  0  0  0  0  0  0  0  0  0  0  0
   61.3528   29.4304   46.5270 H   0  0  0  0  0  0  0  0  0  0  0  0
   62.6177   32.4751   48.3802 H   0  0  0  0  0  0  0  0  0  0  0  0
   62.8808   31.5460   46.8655 H   0  0  0  0  0  0  0  0  0  0  0  0
   61.7909   32.9738   46.8655 H   0  0  0  0  0  0  0  0  0  0  0  0
   59.6814   35.6336   46.1359 H   0  0  0  0  0  0  0  0  0  0  0  0
   60.6616   34.1418   45.8517 H   0  0  0  0  0  0  0  0  0  0  0  0
   57.9391   34.8857   44.7029 H   0  0  0  0  0  0  0  0  0  0  0  0
   59.4359   34.4088   43.8370 H   0  0  0  0  0  0  0  0  0  0  0  0
  1  2  1  0
  2  3  1  0
  3  4  1  0
  4  5  1  0
  5  6  1  0
  6  7  1  0
  7  8  1  0
  8  9  1  0
  9 10  1  0
 10 11  2  0
 10 12  1  0
 12 13  1  0
 13 14  1  0
 14 15  2  0
 15 16  1  0
 15 17  1  0
 17 18  2  0
 18 19  1  0
  9 20  1  0
 20 21  1  0
 21  6  1  0
 18 13  1  0
  1 22  1  0
  1 23  1  0
  1 24  1  0
  3 25  1  0
  3 26  1  0
  4 27  1  0
  4 28  1  0
  5 29  1  0
  5 30  1  0
  7 31  1  0
  7 32  1  0
  8 33  1  0
  8 34  1  0
 12 35  1  0
 12 36  1  0
 16 37  1  0
 16 38  1  0
 16 39  1  0
 17 40  1  0
 19 41  1  0
 19 42  1  0
 19 43  1  0
 20 44  1  0
 20 45  1  0
 21 46  1  0
 21 47  1  0
M  END
>  <UniqueID>  (25) 
24

>  <SMILES>  (25) 
COCCCN1CCN(C(=O)Cn2nc(C)cc2C)CC1

>  <Energy>  (25) 
78.95945186796921

>  <Genealogy>  (25) 
COCCCN1CCN(C(=O)Cn2nc(C)cc2C)CC1 (3D coordinates assigned)
COCCCN1CCN(C(=O)Cn2nc(C)cc2C)CC1 (nonaromatic ring conformer: 78.95945186796921 kcal/mol)

>  <smiles>  (25) 
COCCCN1CCN(C(=O)Cn2nc(C)cc2C)CC1

>  <score_type>  (25) 
oracle

>  <origin>  (25) 
adg

>  <m_score__min__energy>  (25) 
-7.0300000000000002

>  <m_primary>  (25) 
energy

$$$$
25:0
     RDKit          3D

 36 38  0  0  0  0  0  0  0  0999 V2000
   60.4210   28.8380   47.4730 C   0  0  0  0  0  0  0  0  0  0  0  0
   60.8000   29.7660   46.3230 C   0  0  0  0  0  0  0  0  0  0  0  0
   60.7860   31.1600   46.7700 N   0  0  0  0  0  0  0  0  0  0  0  0
   61.7820   31.7520   47.4740 C   0  0  0  0  0  0  0  0  0  0  0  0
   61.5930   33.0820   47.6270 N   0  0  0  0  0  0  0  0  0  0  0  0
   60.4430   33.3330   46.9830 C   0  0  0  0  0  0  0  0  0  0  0  0
   59.8180   34.5660   46.8140 C   0  0  0  0  0  0  0  0  0  0  0  0
   58.6240   34.5980   46.0770 C   0  0  0  0  0  0  0  0  0  0  0  0
   58.0850   33.4110   45.5380 C   0  0  0  0  0  0  0  0  0  0  0  0
   58.7360   32.1730   45.7220 C   0  0  0  0  0  0  0  0  0  0  0  0
   58.1270   30.9770   45.2220 N   0  0  0  0  0  0  0  0  0  0  0  0
   57.7820   29.9100   46.1650 C   0  0  0  0  0  0  0  0  0  0  0  0
   56.8310   28.9040   45.5090 C   0  0  0  0  0  0  0  0  0  0  0  0
   55.7040   29.5970   44.8670 N   0  0  0  0  0  0  0  0  0  0  0  0
   56.1060   30.6080   43.8620 C   0  0  0  0  0  0  0  0  0  0  0  0
   57.6100   30.9350   43.8530 C   0  0  0  0  0  0  0  0  0  0  0  0
   59.9390   32.1710   46.4550 C   0  0  0  0  0  0  0  0  0  0  0  0
   60.6255   29.3387   48.4308 H   0  0  0  0  0  0  0  0  0  0  0  0
   59.3506   28.5927   47.4087 H   0  0  0  0  0  0  0  0  0  0  0  0
   61.0136   27.9135   47.4087 H   0  0  0  0  0  0  0  0  0  0  0  0
   61.8085   29.5092   45.9666 H   0  0  0  0  0  0  0  0  0  0  0  0
   60.0704   29.6437   45.5089 H   0  0  0  0  0  0  0  0  0  0  0  0
   62.6497   31.2092   47.8770 H   0  0  0  0  0  0  0  0  0  0  0  0
   62.2180   33.7630   48.1130 H   0  0  0  0  0  0  0  0  0  0  0  0
   60.2457   35.4839   47.2436 H   0  0  0  0  0  0  0  0  0  0  0  0
   58.1051   35.5549   45.9186 H   0  0  0  0  0  0  0  0  0  0  0  0
   57.1455   33.4512   44.9672 H   0  0  0  0  0  0  0  0  0  0  0  0
   58.7003   29.3907   46.4764 H   0  0  0  0  0  0  0  0  0  0  0  0
   57.2837   30.3541   47.0394 H   0  0  0  0  0  0  0  0  0  0  0  0
   57.3813   28.3290   44.7496 H   0  0  0  0  0  0  0  0  0  0  0  0
   56.4370   28.2316   46.2852 H   0  0  0  0  0  0  0  0  0  0  0  0
   55.1450   30.0690   45.6160 H   0  0  0  0  0  0  0  0  0  0  0  0
   55.8302   30.2311   42.8660 H   0  0  0  0  0  0  0  0  0  0  0  0
   55.5846   31.5392   44.1286 H   0  0  0  0  0  0  0  0  0  0  0  0
   58.1468   30.1604   43.2856 H   0  0  0  0  0  0  0  0  0  0  0  0
   57.7606   31.9178   43.3824 H   0  0  0  0  0  0  0  0  0  0  0  0
  1  2  1  0
  2  3  1  0
  3  4  1  0
  4  5  2  0
  5  6  1  0
  6  7  2  0
  7  8  1  0
  8  9  2  0
  9 10  1  0
 10 11  1  0
 11 12  1  0
 12 13  1  0
 13 14  1  0
 14 15  1  0
 15 16  1  0
 10 17  2  0
 17  3  1  0
 17  6  1  0
 16 11  1  0
  1 18  1  0
  1 19  1  0
  1 20  1  0
  2 21  1  0
  2 22  1  0
  4 23  1  0
  5 24  1  0
  7 25  1  0
  8 26  1  0
  9 27  1  0
 12 28  1  0
 12 29  1  0
 13 30  1  0
 13 31  1  0
 14 32  1  0
 15 33  1  0
 15 34  1  0
 16 35  1  0
 16 36  1  0
M  CHG  1   5   1
M  END
>  <UniqueID>  (26) 
25

>  <SMILES>  (26) 
CCn1c[nH+]c2cccc(N3CCNCC3)c21

>  <Energy>  (26) 
84.02707107582773

>  <Genealogy>  (26) 
CCn1c[nH+]c2cccc(N3CCNCC3)c21 (protonated)
CCn1c[nH+]c2cccc(N3CCNCC3)c21 (3D coordinates assigned)
CCn1c[nH+]c2cccc(N3CCNCC3)c21 (nonaromatic ring conformer: 84.02707107582773 kcal/mol)

>  <smiles>  (26) 
CCn1cnc2cccc(N3CCNCC3)c21

>  <score_type>  (26) 
oracle

>  <origin>  (26) 
adg

>  <m_score__min__energy>  (26) 
-4.8200000000000003

>  <m_primary>  (26) 
energy

$$$$
26:0
     RDKit          3D

 30 31  0  0  0  0  0  0  0  0999 V2000
   58.0330   27.3670   42.9350 N   0  0  0  0  0  0  0  0  0  0  0  0
   58.1400   27.5870   44.3750 C   0  0  0  0  0  0  0  0  0  0  0  0
   57.0480   28.5380   44.8790 C   0  0  0  0  0  0  0  0  0  0  0  0
   57.2780   29.8950   44.3590 N   0  0  0  0  0  0  0  0  0  0  0  0
   57.8070   30.8200   45.1740 N   0  0  0  0  0  0  0  0  0  0  0  0
   58.0670   32.0940   44.7530 C   0  0  0  0  0  0  0  0  0  0  0  0
   58.6560   33.0900   45.6820 C   0  0  0  0  0  0  0  0  0  0  0  0
   58.8100   32.7950   47.0510 C   0  0  0  0  0  0  0  0  0  0  0  0
   59.3680   33.7370   47.9190 C   0  0  0  0  0  0  0  0  0  0  0  0
   59.5170   33.4420   49.2340 F   0  0  0  0  0  0  0  0  0  0  0  0
   59.7770   34.9830   47.4350 C   0  0  0  0  0  0  0  0  0  0  0  0
   59.6280   35.2870   46.0790 C   0  0  0  0  0  0  0  0  0  0  0  0
   60.0200   36.4980   45.6110 F   0  0  0  0  0  0  0  0  0  0  0  0
   59.0720   34.3470   45.2050 C   0  0  0  0  0  0  0  0  0  0  0  0
   57.7800   32.4400   43.4280 C   0  0  0  0  0  0  0  0  0  0  0  0
   57.2500   31.4840   42.5730 C   0  0  0  0  0  0  0  0  0  0  0  0
   57.0060   30.1990   43.0500 C   0  0  0  0  0  0  0  0  0  0  0  0
   56.5380   29.3290   42.2650 O   0  0  0  0  0  0  0  0  0  0  0  0
   57.0240   27.2550   42.6850 H   0  0  0  0  0  0  0  0  0  0  0  0
   58.3920   28.2130   42.4370 H   0  0  0  0  0  0  0  0  0  0  0  0
   58.0405   26.6216   44.8928 H   0  0  0  0  0  0  0  0  0  0  0  0
   59.1191   28.0431   44.5834 H   0  0  0  0  0  0  0  0  0  0  0  0
   56.0665   28.1788   44.5362 H   0  0  0  0  0  0  0  0  0  0  0  0
   57.0743   28.5651   45.9784 H   0  0  0  0  0  0  0  0  0  0  0  0
   58.0090   30.5670   46.1680 H   0  0  0  0  0  0  0  0  0  0  0  0
   58.4890   31.8170   47.4389 H   0  0  0  0  0  0  0  0  0  0  0  0
   60.2155   35.7232   48.1204 H   0  0  0  0  0  0  0  0  0  0  0  0
   58.9592   34.5917   44.1385 H   0  0  0  0  0  0  0  0  0  0  0  0
   57.9728   33.4611   43.0671 H   0  0  0  0  0  0  0  0  0  0  0  0
   57.0246   31.7394   41.5271 H   0  0  0  0  0  0  0  0  0  0  0  0
  1  2  1  0
  2  3  1  0
  3  4  1  0
  4  5  1  0
  5  6  2  0
  6  7  1  0
  7  8  2  0
  8  9  1  0
  9 10  1  0
  9 11  2  0
 11 12  1  0
 12 13  1  0
 12 14  2  0
  6 15  1  0
 15 16  2  0
 16 17  1  0
 17 18  2  0
 17  4  1  0
 14  7  1  0
  1 19  1  0
  1 20  1  0
  2 21  1  0
  2 22  1  0
  3 23  1  0
  3 24  1  0
  5 25  1  0
  8 26  1  0
 11 27  1  0
 14 28  1  0
 15 29  1  0
 16 30  1  0
M  CHG  1   5   1
M  END
>  <UniqueID>  (27) 
26

>  <SMILES>  (27) 
NCCn1[nH+]c(-c2cc(F)cc(F)c2)ccc1=O

>  <Energy>  (27) 
34.07444060456604

>  <Genealogy>  (27) 
NCCn1[nH+]c(-c2cc(F)cc(F)c2)ccc1=O (protonated)
NCCn1[nH+]c(-c2cc(F)cc(F)c2)ccc1=O (3D coordinates assigned)
NCCn1[nH+]c(-c2cc(F)cc(F)c2)ccc1=O (optimized conformer: 34.07444060456604 kcal/mol)

>  <smiles>  (27) 
NCCn1nc(-c2cc(F)cc(F)c2)ccc1=O

>  <score_type>  (27) 
oracle

>  <origin>  (27) 
adg

>  <m_score__min__energy>  (27) 
-4.9400000000000004

>  <m_primary>  (27) 
energy

$$$$
27:0
     RDKit          3D

 30 31  0  0  0  0  0  0  0  0999 V2000
   56.6320   29.6080   42.8590 C   0  0  0  0  0  0  0  0  0  0  0  0
   57.0410   30.7430   43.7400 C   0  0  0  0  0  0  0  0  0  0  0  0
   57.0070   30.6900   45.0880 N   0  0  0  0  0  0  0  0  0  0  0  0
   57.4630   31.8580   45.5140 N   0  0  0  0  0  0  0  0  0  0  0  0
   57.7680   32.6040   44.4390 C   0  0  0  0  0  0  0  0  0  0  0  0
   58.4970   34.2440   44.5270 S   0  0  0  0  0  0  0  0  0  0  0  0
   59.7200   33.8220   45.8260 C   0  0  0  0  0  0  0  0  0  0  0  0
   59.1870   34.0720   47.2450 C   0  0  2  0  0  0  0  0  0  0  0  0
   60.2960   34.2700   48.2710 C   0  0  0  0  0  0  0  0  0  0  0  0
   59.6910   33.7050   49.5170 C   0  0  0  0  0  0  0  0  0  0  0  0
   58.7070   32.6830   48.9850 C   0  0  0  0  0  0  0  0  0  0  0  0
   58.3510   33.0150   47.6610 O   0  0  0  0  0  0  0  0  0  0  0  0
   57.5020   31.9350   43.3010 N   0  0  0  0  0  0  0  0  0  0  0  0
   57.7960   32.3410   41.9290 C   0  0  0  0  0  0  0  0  0  0  0  0
   56.3243   28.7540   43.4803 H   0  0  0  0  0  0  0  0  0  0  0  0
   55.7903   29.9216   42.2240 H   0  0  0  0  0  0  0  0  0  0  0  0
   57.4802   29.3126   42.2240 H   0  0  0  0  0  0  0  0  0  0  0  0
   57.5840   32.1180   46.5170 H   0  0  0  0  0  0  0  0  0  0  0  0
   59.9817   32.7579   45.7307 H   0  0  0  0  0  0  0  0  0  0  0  0
   60.5964   34.4708   45.6809 H   0  0  0  0  0  0  0  0  0  0  0  0
   58.6106   35.0074   47.1916 H   0  0  0  0  0  0  0  0  0  0  0  0
   61.2044   33.7193   47.9854 H   0  0  0  0  0  0  0  0  0  0  0  0
   60.6144   35.3178   48.3750 H   0  0  0  0  0  0  0  0  0  0  0  0
   60.4561   33.2269   50.1463 H   0  0  0  0  0  0  0  0  0  0  0  0
   59.2211   34.4679   50.1552 H   0  0  0  0  0  0  0  0  0  0  0  0
   59.1705   31.6856   49.0005 H   0  0  0  0  0  0  0  0  0  0  0  0
   57.8061   32.6796   49.6161 H   0  0  0  0  0  0  0  0  0  0  0  0
   58.4411   33.2319   41.9405 H   0  0  0  0  0  0  0  0  0  0  0  0
   58.3116   31.5217   41.4066 H   0  0  0  0  0  0  0  0  0  0  0  0
   56.8567   32.5752   41.4066 H   0  0  0  0  0  0  0  0  0  0  0  0
  1  2  1  0
  2  3  2  0
  3  4  1  0
  4  5  2  0
  5  6  1  0
  6  7  1  0
  7  8  1  0
  8  9  1  0
  9 10  1  0
 10 11  1  0
 11 12  1  0
  5 13  1  0
 13 14  1  0
 13  2  1  0
 12  8  1  0
  1 15  1  0
  1 16  1  0
  1 17  1  0
  4 18  1  0
  7 19  1  0
  7 20  1  0
  8 21  1  6
  9 22  1  0
  9 23  1  0
 10 24  1  0
 10 25  1  0
 11 26  1  0
 11 27  1  0
 14 28  1  0
 14 29  1  0
 14 30  1  0
M  CHG  1   4   1
M  END
>  <UniqueID>  (28) 
27

>  <SMILES>  (28) 
Cc1n[nH+]c(SC[C@@H]2CCCO2)n1C

>  <Energy>  (28) 
58.147652655894554

>  <Genealogy>  (28) 
Cc1n[nH+]c(SCC2CCCO2)n1C (protonated)
Cc1n[nH+]c(SC[C@@H]2CCCO2)n1C (chirality)
Cc1n[nH+]c(SC[C@@H]2CCCO2)n1C (3D coordinates assigned)
Cc1n[nH+]c(SC[C@@H]2CCCO2)n1C (nonaromatic ring conformer: 58.147652655894554 kcal/mol)

>  <smiles>  (28) 
Cc1nnc(SCC2CCCO2)n1C

>  <score_type>  (28) 
oracle

>  <origin>  (28) 
adg

>  <m_score__min__energy>  (28) 
-4.4100000000000001

>  <m_primary>  (28) 
energy

$$$$
28:0
     RDKit          3D

 56 57  0  0  0  0  0  0  0  0999 V2000
   58.7740   31.4010   49.6330 C   0  0  0  0  0  0  0  0  0  0  0  0
   59.2850   30.4710   48.5330 C   0  0  0  0  0  0  0  0  0  0  0  0
   58.5470   30.6710   47.2030 C   0  0  0  0  0  0  0  0  0  0  0  0
   58.6460   29.4550   46.3110 C   0  0  0  0  0  0  0  0  0  0  0  0
   59.7540   28.5990   46.4340 C   0  0  0  0  0  0  0  0  0  0  0  0
   59.8710   27.4700   45.6200 C   0  0  0  0  0  0  0  0  0  0  0  0
   58.8870   27.1870   44.6720 C   0  0  0  0  0  0  0  0  0  0  0  0
   57.7840   28.0330   44.5280 C   0  0  0  0  0  0  0  0  0  0  0  0
   57.6560   29.1790   45.3410 C   0  0  0  0  0  0  0  0  0  0  0  0
   56.5700   30.0580   45.2090 O   0  0  0  0  0  0  0  0  0  0  0  0
   56.2840   30.8370   44.0500 C   0  0  0  0  0  0  0  0  0  0  0  0
   57.5900   31.2630   43.3950 C   0  0  0  0  0  0  0  0  0  0  0  0
   58.3050   32.0810   44.2950 O   0  0  0  0  0  0  0  0  0  0  0  0
   57.4110   32.8860   45.0300 C   0  0  0  0  0  0  0  0  0  0  0  0
   57.9530   34.3220   45.1340 C   0  0  0  0  0  0  0  0  0  0  0  0
   59.0830   34.4910   46.0760 N   0  0  0  0  0  0  0  0  0  0  0  0
   58.7440   34.2570   47.4910 C   0  0  0  0  0  0  0  0  0  0  0  0
   59.9940   34.4460   48.3490 C   0  0  0  0  0  0  0  0  0  0  0  0
   61.0260   33.4230   48.0330 N   0  0  0  0  0  0  0  0  0  0  0  0
   62.3870   33.8490   48.4520 C   0  0  0  0  0  0  0  0  0  0  0  0
   63.5110   33.4710   47.4730 C   0  0  0  0  0  0  0  0  0  0  0  0
   60.9670   32.9010   46.6360 C   0  0  0  0  0  0  0  0  0  0  0  0
   60.3740   33.9100   45.6290 C   0  0  0  0  0  0  0  0  0  0  0  0
   59.0108   30.9700   50.6169 H   0  0  0  0  0  0  0  0  0  0  0  0
   59.2588   32.3837   49.5369 H   0  0  0  0  0  0  0  0  0  0  0  0
   57.6845   31.5187   49.5369 H   0  0  0  0  0  0  0  0  0  0  0  0
   60.3558   30.6670   48.3749 H   0  0  0  0  0  0  0  0  0  0  0  0
   59.1067   29.4364   48.8613 H   0  0  0  0  0  0  0  0  0  0  0  0
   57.4860   30.8721   47.4125 H   0  0  0  0  0  0  0  0  0  0  0  0
   59.0165   31.5160   46.6781 H   0  0  0  0  0  0  0  0  0  0  0  0
   60.5347   28.8198   47.1768 H   0  0  0  0  0  0  0  0  0  0  0  0
   60.7395   26.8034   45.7264 H   0  0  0  0  0  0  0  0  0  0  0  0
   58.9798   26.2946   44.0356 H   0  0  0  0  0  0  0  0  0  0  0  0
   57.0126   27.8045   43.7779 H   0  0  0  0  0  0  0  0  0  0  0  0
   55.6956   30.2371   43.3402 H   0  0  0  0  0  0  0  0  0  0  0  0
   55.7085   31.7290   44.3385 H   0  0  0  0  0  0  0  0  0  0  0  0
   58.1879   30.3729   43.1496 H   0  0  0  0  0  0  0  0  0  0  0  0
   57.3797   31.8202   42.4702 H   0  0  0  0  0  0  0  0  0  0  0  0
   56.4350   32.9017   44.5229 H   0  0  0  0  0  0  0  0  0  0  0  0
   57.3013   32.4692   46.0421 H   0  0  0  0  0  0  0  0  0  0  0  0
   58.2907   34.6338   44.1346 H   0  0  0  0  0  0  0  0  0  0  0  0
   57.1289   34.9372   45.5244 H   0  0  0  0  0  0  0  0  0  0  0  0
   57.9704   34.9726   47.8065 H   0  0  0  0  0  0  0  0  0  0  0  0
   58.3650   33.2317   47.6139 H   0  0  0  0  0  0  0  0  0  0  0  0
   60.4110   35.4461   48.1593 H   0  0  0  0  0  0  0  0  0  0  0  0
   59.7094   34.3371   49.4059 H   0  0  0  0  0  0  0  0  0  0  0  0
   60.8030   32.6030   48.6480 H   0  0  0  0  0  0  0  0  0  0  0  0
   62.3839   34.9433   48.5634 H   0  0  0  0  0  0  0  0  0  0  0  0
   62.6024   33.3178   49.3908 H   0  0  0  0  0  0  0  0  0  0  0  0
   64.4048   33.1704   48.0393 H   0  0  0  0  0  0  0  0  0  0  0  0
   63.1798   32.6348   46.8397 H   0  0  0  0  0  0  0  0  0  0  0  0
   63.7524   34.3374   46.8397 H   0  0  0  0  0  0  0  0  0  0  0  0
   61.9881   32.6473   46.3151 H   0  0  0  0  0  0  0  0  0  0  0  0
   60.3039   32.0234   46.6450 H   0  0  0  0  0  0  0  0  0  0  0  0
   61.0955   34.7282   45.4877 H   0  0  0  0  0  0  0  0  0  0  0  0
   60.1808   33.3639   44.6939 H   0  0  0  0  0  0  0  0  0  0  0  0
  1  2  1  0
  2  3  1  0
  3  4  1  0
  4  5  2  0
  5  6  1  0
  6  7  2  0
  7  8  1  0
  8  9  2  0
  9 10  1  0
 10 11  1  0
 11 12  1  0
 12 13  1  0
 13 14  1  0
 14 15  1  0
 15 16  1  0
 16 17  1  0
 17 18  1  0
 18 19  1  0
 19 20  1  0
 20 21  1  0
 19 22  1  0
 22 23  1  0
  9  4  1  0
 23 16  1  0
  1 24  1  0
  1 25  1  0
  1 26  1  0
  2 27  1  0
  2 28  1  0
  3 29  1  0
  3 30  1  0
  5 31  1  0
  6 32  1  0
  7 33  1  0
  8 34  1  0
 11 35  1  0
 11 36  1  0
 12 37  1  0
 12 38  1  0
 14 39  1  0
 14 40  1  0
 15 41  1  0
 15 42  1  0
 17 43  1  0
 17 44  1  0
 18 45  1  0
 18 46  1  0
 19 47  1  0
 20 48  1  0
 20 49  1  0
 21 50  1  0
 21 51  1  0
 21 52  1  0
 22 53  1  0
 22 54  1  0
 23 55  1  0
 23 56  1  0
M  CHG  1  19   1
M  END
>  <UniqueID>  (29) 
28

>  <SMILES>  (29) 
CCCc1ccccc1OCCOCCN1CC[NH+](CC)CC1

>  <Energy>  (29) 
63.54308594041616

>  <Genealogy>  (29) 
CCCc1ccccc1OCCOCCN1CC[NH+](CC)CC1 (protonated)
CCCc1ccccc1OCCOCCN1CC[NH+](CC)CC1 (3D coordinates assigned)
CCCc1ccccc1OCCOCCN1CC[NH+](CC)CC1 (nonaromatic ring conformer: 63.54308594041616 kcal/mol)

>  <smiles>  (29) 
CCCc1ccccc1OCCOCCN1CCN(CC)CC1

>  <score_type>  (29) 
oracle

>  <origin>  (29) 
adg

>  <m_score__min__energy>  (29) 
-5.0499999999999998

>  <m_primary>  (29) 
energy

$$$$
29:0
     RDKit          3D

 37 39  0  0  0  0  0  0  0  0999 V2000
   57.7730   25.9340   44.2770 C   0  0  0  0  0  0  0  0  0  0  0  0
   57.7630   26.9120   43.1870 N   0  0  0  0  0  0  0  0  0  0  0  0
   57.7500   28.2520   43.7200 C   0  0  0  0  0  0  0  0  0  0  0  0
   56.8880   29.2220   43.1840 C   0  0  0  0  0  0  0  0  0  0  0  0
   56.8960   30.5280   43.6810 C   0  0  0  0  0  0  0  0  0  0  0  0
   57.7720   30.8880   44.7170 C   0  0  0  0  0  0  0  0  0  0  0  0
   57.7950   32.2680   45.2390 C   0  0  0  0  0  0  0  0  0  0  0  0
   56.7360   33.1030   45.2470 N   0  0  0  0  0  0  0  0  0  0  0  0
   57.1640   34.2440   45.7660 N   0  0  0  0  0  0  0  0  0  0  0  0
   58.4650   34.0590   46.0530 C   0  0  0  0  0  0  0  0  0  0  0  0
   59.5340   35.3160   46.7450 S   0  0  0  0  0  0  0  0  0  0  0  0
   59.9910   34.3230   48.2110 C   0  0  0  0  0  0  0  0  0  0  0  0
   61.4220   33.8670   48.1250 C   0  0  0  0  0  0  0  0  0  0  0  0
   62.1710   33.6430   49.2930 C   0  0  0  0  0  0  0  0  0  0  0  0
   63.5160   33.2720   49.2070 C   0  0  0  0  0  0  0  0  0  0  0  0
   64.1210   33.1150   47.9570 C   0  0  0  0  0  0  0  0  0  0  0  0
   63.3820   33.3320   46.7910 C   0  0  0  0  0  0  0  0  0  0  0  0
   62.0380   33.7100   46.8720 C   0  0  0  0  0  0  0  0  0  0  0  0
   58.8580   32.8500   45.7400 O   0  0  0  0  0  0  0  0  0  0  0  0
   58.6440   29.9230   45.2440 C   0  0  0  0  0  0  0  0  0  0  0  0
   58.6360   28.6160   44.7470 C   0  0  0  0  0  0  0  0  0  0  0  0
   57.7676   26.4610   45.2425 H   0  0  0  0  0  0  0  0  0  0  0  0
   56.8813   25.2940   44.2036 H   0  0  0  0  0  0  0  0  0  0  0  0
   58.6775   25.3124   44.2036 H   0  0  0  0  0  0  0  0  0  0  0  0
   56.9190   26.7530   42.5900 H   0  0  0  0  0  0  0  0  0  0  0  0
   58.6110   26.7690   42.5900 H   0  0  0  0  0  0  0  0  0  0  0  0
   56.2019   28.9522   42.3676 H   0  0  0  0  0  0  0  0  0  0  0  0
   56.2118   31.2783   43.2579 H   0  0  0  0  0  0  0  0  0  0  0  0
   59.8618   34.9355   49.1155 H   0  0  0  0  0  0  0  0  0  0  0  0
   59.3412   33.4364   48.2517 H   0  0  0  0  0  0  0  0  0  0  0  0
   61.6969   33.7601   50.2787 H   0  0  0  0  0  0  0  0  0  0  0  0
   64.0990   33.1034   50.1244 H   0  0  0  0  0  0  0  0  0  0  0  0
   65.1788   32.8206   47.8910 H   0  0  0  0  0  0  0  0  0  0  0  0
   63.8583   33.2053   45.8076 H   0  0  0  0  0  0  0  0  0  0  0  0
   61.4613   33.8850   45.9518 H   0  0  0  0  0  0  0  0  0  0  0  0
   59.3378   30.1963   46.0527 H   0  0  0  0  0  0  0  0  0  0  0  0
   59.3277   27.8686   45.1629 H   0  0  0  0  0  0  0  0  0  0  0  0
  1  2  1  0
  2  3  1  0
  3  4  2  0
  4  5  1  0
  5  6  2  0
  6  7  1  0
  7  8  2  0
  8  9  1  0
  9 10  2  0
 10 11  1  0
 11 12  1  0
 12 13  1  0
 13 14  2  0
 14 15  1  0
 15 16  2  0
 16 17  1  0
 17 18  2  0
 10 19  1  0
  6 20  1  0
 20 21  2  0
 21  3  1  0
 19  7  1  0
 18 13  1  0
  1 22  1  0
  1 23  1  0
  1 24  1  0
  2 25  1  0
  2 26  1  0
  4 27  1  0
  5 28  1  0
 12 29  1  0
 12 30  1  0
 14 31  1  0
 15 32  1  0
 16 33  1  0
 17 34  1  0
 18 35  1  0
 20 36  1  0
 21 37  1  0
M  CHG  1   2   1
M  END
>  <UniqueID>  (30) 
29

>  <SMILES>  (30) 
C[NH2+]c1ccc(-c2nnc(SCc3ccccc3)o2)cc1

>  <Energy>  (30) 
68.54504041642959

>  <Genealogy>  (30) 
C[NH2+]c1ccc(-c2nnc(SCc3ccccc3)o2)cc1 (protonated)
C[NH2+]c1ccc(-c2nnc(SCc3ccccc3)o2)cc1 (3D coordinates assigned)
C[NH2+]c1ccc(-c2nnc(SCc3ccccc3)o2)cc1 (optimized conformer: 68.54504041642959 kcal/mol)

>  <smiles>  (30) 
CNc1ccc(-c2nnc(SCc3ccccc3)o2)cc1

>  <score_type>  (30) 
oracle

>  <origin>  (30) 
adg

>  <m_score__min__energy>  (30) 
-6.5300000000000002

>  <m_primary>  (30) 
energy

$$$$
30:0
     RDKit          3D

 42 45  0  0  0  0  0  0  0  0999 V2000
   57.5614   33.2386   39.6069 H   0  0  0  0  0  0  0  0  0  0  0  0
   57.0980   32.7100   40.4530 C   0  0  0  0  0  0  0  0  0  0  0  0
   56.0192   32.4952   40.4431 H   0  0  0  0  0  0  0  0  0  0  0  0
   57.8450   32.3290   41.4920 C   0  0  0  0  0  0  0  0  0  0  0  0
   58.9225   32.5506   41.4881 H   0  0  0  0  0  0  0  0  0  0  0  0
   57.2490   31.6040   42.6680 C   0  0  0  0  0  0  0  0  0  0  0  0
   56.1610   31.7655   42.6776 H   0  0  0  0  0  0  0  0  0  0  0  0
   57.4761   30.5319   42.5732 H   0  0  0  0  0  0  0  0  0  0  0  0
   57.8240   32.1000   43.9370 N   0  0  0  0  0  0  0  0  0  0  0  0
   57.8610   33.4530   44.1200 C   0  0  0  0  0  0  0  0  0  0  0  0
   57.5149   34.1152   43.3127 H   0  0  0  0  0  0  0  0  0  0  0  0
   58.3260   34.0100   45.3030 C   0  0  0  0  0  0  0  0  0  0  0  0
   58.3654   35.1039   45.4113 H   0  0  0  0  0  0  0  0  0  0  0  0
   58.7430   33.1980   46.3540 C   0  0  0  0  0  0  0  0  0  0  0  0
   58.9480   33.7940   47.5000 N   0  0  0  0  0  0  0  0  0  0  0  0
   60.0880   33.7580   48.3720 C   0  0  0  0  0  0  0  0  0  0  0  0
   59.8990   33.8850   49.7510 C   0  0  0  0  0  0  0  0  0  0  0  0
   58.8871   34.0467   50.1509 H   0  0  0  0  0  0  0  0  0  0  0  0
   60.9860   33.8080   50.6250 C   0  0  0  0  0  0  0  0  0  0  0  0
   60.8295   33.9297   51.7070 H   0  0  0  0  0  0  0  0  0  0  0  0
   62.2760   33.5760   50.1270 C   0  0  0  0  0  0  0  0  0  0  0  0
   63.3780   33.5020   50.9950 C   0  0  0  0  0  0  0  0  0  0  0  0
   63.2339   33.6316   52.0778 H   0  0  0  0  0  0  0  0  0  0  0  0
   64.6570   33.2640   50.4850 C   0  0  0  0  0  0  0  0  0  0  0  0
   65.5172   33.2079   51.1682 H   0  0  0  0  0  0  0  0  0  0  0  0
   64.8480   33.0970   49.1110 C   0  0  0  0  0  0  0  0  0  0  0  0
   65.8575   32.9091   48.7166 H   0  0  0  0  0  0  0  0  0  0  0  0
   63.7600   33.1680   48.2360 C   0  0  0  0  0  0  0  0  0  0  0  0
   63.9150   33.0346   47.1552 H   0  0  0  0  0  0  0  0  0  0  0  0
   62.4710   33.4090   48.7340 C   0  0  0  0  0  0  0  0  0  0  0  0
   61.3710   33.4850   47.8670 C   0  0  0  0  0  0  0  0  0  0  0  0
   61.5130   33.3303   46.7872 H   0  0  0  0  0  0  0  0  0  0  0  0
   58.8630   31.7960   46.1190 C   0  0  0  0  0  0  0  0  0  0  0  0
   59.5860   30.9350   46.9780 C   0  0  0  0  0  0  0  0  0  0  0  0
   60.1280   31.3582   47.8365 H   0  0  0  0  0  0  0  0  0  0  0  0
   59.6230   29.5610   46.7550 C   0  0  0  0  0  0  0  0  0  0  0  0
   60.1585   28.9054   47.4574 H   0  0  0  0  0  0  0  0  0  0  0  0
   58.9850   29.0160   45.6470 C   0  0  0  0  0  0  0  0  0  0  0  0
   59.0240   27.2820   45.3810 Cl  0  0  0  0  0  0  0  0  0  0  0  0
   58.3590   29.8510   44.7220 C   0  0  0  0  0  0  0  0  0  0  0  0
   57.8818   29.4126   43.8331 H   0  0  0  0  0  0  0  0  0  0  0  0
   58.3280   31.2550   44.9090 C   0  0  0  0  0  0  0  0  0  0  0  0
  1  2  1  0
  2  3  1  0
  2  4  2  0
  4  5  1  0
  4  6  1  0
  6  7  1  0
  6  8  1  0
  6  9  1  0
  9 10  1  0
 10 11  1  0
 10 12  2  0
 12 13  1  0
 12 14  1  0
 14 15  2  0
 15 16  1  0
 16 17  2  0
 17 18  1  0
 17 19  1  0
 19 20  1  0
 19 21  2  0
 21 22  1  0
 22 23  1  0
 22 24  2  0
 24 25  1  0
 24 26  1  0
 26 27  1  0
 26 28  2  0
 28 29  1  0
 28 30  1  0
 30 31  2  0
 31 32  1  0
 14 33  1  0
 33 34  2  0
 34 35  1  0
 34 36  1  0
 36 37  1  0
 36 38  2  0
 38 39  1  0
 38 40  1  0
 40 41  1  0
 40 42  2  0
 42  9  1  0
 31 16  1  0
 42 33  1  0
 30 21  1  0
M  END
>  <UniqueID>  (31) 
30

>  <SMILES>  (31) 
C=CCn1cc/c(=N/c2ccc3ccccc3c2)c2ccc(Cl)cc21

>  <Energy>  (31) 
74.9709677432362

>  <Genealogy>  (31) 
C=CCn1cc/c(=N/c2ccc3ccccc3c2)c2ccc(Cl)cc21 (cis-trans isomerization)
C=CCn1cc/c(=N/c2ccc3ccccc3c2)c2ccc(Cl)cc21 (3D coordinates assigned)
C=CCn1cc/c(=N/c2ccc3ccccc3c2)c2ccc(Cl)cc21 (optimized conformer: 74.9709677432362 kcal/mol)

>  <smiles>  (31) 
C=CCn1ccc(=Nc2ccc3ccccc3c2)c2ccc(Cl)cc21

>  <score_type>  (31) 
oracle

>  <origin>  (31) 
adg

>  <m_score__min__energy>  (31) 
-8.4000000000000004

>  <m_primary>  (31) 
energy

$$$$
31:0
     RDKit          3D

 53 55  0  0  0  0  0  0  0  0999 V2000
   59.7860   29.8960   45.9930 C   0  0  0  0  0  0  0  0  0  0  0  0
   58.4120   29.3430   46.3560 C   0  0  0  0  0  0  0  0  0  0  0  0
   57.3920   30.1240   45.7610 O   0  0  0  0  0  0  0  0  0  0  0  0
   57.7070   30.4440   44.4180 C   0  0  0  0  0  0  0  0  0  0  0  0
   57.5460   31.9430   44.1780 C   0  0  0  0  0  0  0  0  0  0  0  0
   56.9760   32.5350   45.3260 O   0  0  0  0  0  0  0  0  0  0  0  0
   57.5070   33.8290   45.5450 C   0  0  0  0  0  0  0  0  0  0  0  0
   58.0820   33.9280   46.9590 C   0  0  0  0  0  0  0  0  0  0  0  0
   58.4980   32.6180   47.4560 N   0  0  0  0  0  0  0  0  0  0  0  0
   59.5890   32.5230   48.3820 C   0  0  0  0  0  0  0  0  0  0  0  0
   60.8710   32.9630   48.0110 C   0  0  0  0  0  0  0  0  0  0  0  0
   61.1180   33.4530   46.7100 C   0  0  0  0  0  0  0  0  0  0  0  0
   62.3990   33.8420   46.3290 C   0  0  0  0  0  0  0  0  0  0  0  0
   63.4540   33.7410   47.2290 C   0  0  0  0  0  0  0  0  0  0  0  0
   63.2290   33.2780   48.5250 C   0  0  0  0  0  0  0  0  0  0  0  0
   61.9280   32.9130   48.9570 C   0  0  0  0  0  0  0  0  0  0  0  0
   61.6780   32.5090   50.2560 N   0  0  0  0  0  0  0  0  0  0  0  0
   62.6920   32.7340   51.3100 C   0  0  0  0  0  0  0  0  0  0  0  0
   60.4700   31.9140   50.5730 C   0  0  0  0  0  0  0  0  0  0  0  0
   60.2680   31.2490   51.8090 C   0  0  0  0  0  0  0  0  0  0  0  0
   59.0360   30.6820   52.1290 C   0  0  0  0  0  0  0  0  0  0  0  0
   57.9730   30.7330   51.2310 C   0  0  0  0  0  0  0  0  0  0  0  0
   56.7600   30.1370   51.6090 O   0  0  0  0  0  0  0  0  0  0  0  0
   55.6870   30.8270   52.2400 C   0  0  0  0  0  0  0  0  0  0  0  0
   58.1550   31.3600   49.9890 C   0  0  0  0  0  0  0  0  0  0  0  0
   59.3950   31.9410   49.6460 C   0  0  0  0  0  0  0  0  0  0  0  0
   60.3454   30.1211   46.9130 H   0  0  0  0  0  0  0  0  0  0  0  0
   60.3372   29.1497   45.4021 H   0  0  0  0  0  0  0  0  0  0  0  0
   59.6665   30.8161   45.4021 H   0  0  0  0  0  0  0  0  0  0  0  0
   58.3317   28.3068   45.9956 H   0  0  0  0  0  0  0  0  0  0  0  0
   58.2927   29.3737   47.4491 H   0  0  0  0  0  0  0  0  0  0  0  0
   58.7473   30.1530   44.2102 H   0  0  0  0  0  0  0  0  0  0  0  0
   57.0226   29.8996   43.7508 H   0  0  0  0  0  0  0  0  0  0  0  0
   58.5305   32.3927   43.9817 H   0  0  0  0  0  0  0  0  0  0  0  0
   56.8918   32.1116   43.3099 H   0  0  0  0  0  0  0  0  0  0  0  0
   58.3049   34.0237   44.8132 H   0  0  0  0  0  0  0  0  0  0  0  0
   56.7043   34.5722   45.4296 H   0  0  0  0  0  0  0  0  0  0  0  0
   58.9533   34.5993   46.9453 H   0  0  0  0  0  0  0  0  0  0  0  0
   57.2994   34.3197   47.6254 H   0  0  0  0  0  0  0  0  0  0  0  0
   58.2290   31.7560   46.9290 H   0  0  0  0  0  0  0  0  0  0  0  0
   60.2896   33.5281   45.9902 H   0  0  0  0  0  0  0  0  0  0  0  0
   62.5768   34.2296   45.3150 H   0  0  0  0  0  0  0  0  0  0  0  0
   64.4695   34.0273   46.9177 H   0  0  0  0  0  0  0  0  0  0  0  0
   64.0743   33.1944   49.2239 H   0  0  0  0  0  0  0  0  0  0  0  0
   62.2221   32.6297   52.2991 H   0  0  0  0  0  0  0  0  0  0  0  0
   63.4984   31.9929   51.2072 H   0  0  0  0  0  0  0  0  0  0  0  0
   63.1093   33.7466   51.2072 H   0  0  0  0  0  0  0  0  0  0  0  0
   61.0980   31.1795   52.5275 H   0  0  0  0  0  0  0  0  0  0  0  0
   58.9016   30.1882   53.1027 H   0  0  0  0  0  0  0  0  0  0  0  0
   55.7973   30.7561   53.3322 H   0  0  0  0  0  0  0  0  0  0  0  0
   55.7030   31.8845   51.9378 H   0  0  0  0  0  0  0  0  0  0  0  0
   54.7314   30.3737   51.9378 H   0  0  0  0  0  0  0  0  0  0  0  0
   57.3206   31.3993   49.2733 H   0  0  0  0  0  0  0  0  0  0  0  0
  1  2  1  0
  2  3  1  0
  3  4  1  0
  4  5  1  0
  5  6  1  0
  6  7  1  0
  7  8  1  0
  8  9  1  0
  9 10  1  0
 10 11  2  0
 11 12  1  0
 12 13  2  0
 13 14  1  0
 14 15  2  0
 15 16  1  0
 16 17  2  0
 17 18  1  0
 17 19  1  0
 19 20  2  0
 20 21  1  0
 21 22  2  0
 22 23  1  0
 23 24  1  0
 22 25  1  0
 25 26  2  0
 26 10  1  0
 16 11  1  0
 26 19  1  0
  1 27  1  0
  1 28  1  0
  1 29  1  0
  2 30  1  0
  2 31  1  0
  4 32  1  0
  4 33  1  0
  5 34  1  0
  5 35  1  0
  7 36  1  0
  7 37  1  0
  8 38  1  0
  8 39  1  0
  9 40  1  0
 12 41  1  0
 13 42  1  0
 14 43  1  0
 15 44  1  0
 18 45  1  0
 18 46  1  0
 18 47  1  0
 20 48  1  0
 21 49  1  0
 24 50  1  0
 24 51  1  0
 24 52  1  0
 25 53  1  0
M  CHG  1  17   1
M  END
>  <UniqueID>  (32) 
31

>  <SMILES>  (32) 
CCOCCOCCNc1c2ccccc2[n+](C)c2ccc(OC)cc12

>  <Energy>  (32) 
77.4382982646058

>  <Genealogy>  (32) 
CCOCCOCCNc1c2ccccc2[n+](C)c2ccc(OC)cc12 (3D coordinates assigned)
CCOCCOCCNc1c2ccccc2[n+](C)c2ccc(OC)cc12 (optimized conformer: 77.4382982646058 kcal/mol)

>  <smiles>  (32) 
CCOCCOCCNc1c2ccccc2[n+](C)c2ccc(OC)cc12

>  <score_type>  (32) 
oracle

>  <origin>  (32) 
adg

>  <m_score__min__energy>  (32) 
-5.71

>  <m_primary>  (32) 
energy

$$$$
