0:0
     RDKit          3D

 29 31  0  0  1  0  0  0  0  0999 V2000
   60.9270   28.6070   44.8740 C   0  0  0  0  0  0  0  0  0  0  0  0
   59.5160   28.1860   45.1200 C   0  0  0  0  0  0  0  0  0  0  0  0
   58.5050   29.1080   45.0700 C   0  0  0  0  0  0  0  0  0  0  0  0
   57.1920   28.7010   45.3010 C   0  0  0  0  0  0  0  0  0  0  0  0
   56.2950   29.5790   45.2460 N   0  0  0  0  0  0  0  0  0  0  0  0
   55.9370   30.3830   44.1290 C   0  0  0  0  0  0  0  0  0  0  0  0
   56.8890   30.9370   43.1490 C   0  0  0  0  0  0  0  0  0  0  0  0
   56.2640   29.6610   42.7960 C   0  0  0  0  0  0  0  0  0  0  0  0
   56.8790   27.4440   45.5710 N   0  0  0  0  0  0  0  0  0  0  0  0
   55.7620   26.8250   45.8190 N   0  0  0  0  0  0  0  0  0  0  0  0
   56.0560   25.5010   46.0300 C   0  0  0  0  0  0  0  0  0  0  0  0
   55.1160   24.3980   46.3470 C   0  0  0  0  0  0  0  0  0  0  0  0
   57.4160   25.3100   45.9040 C   0  0  0  0  0  0  0  0  0  0  0  0
   57.9160   26.5610   45.6120 C   0  0  0  0  0  0  0  0  0  0  0  0
   59.1900   26.9190   45.3940 N   0  0  0  0  0  0  0  0  0  0  0  0
   61.4373   28.7593   45.8365 H   0  0  0  0  0  0  0  0  0  0  0  0
   61.4485   27.8253   44.3021 H   0  0  0  0  0  0  0  0  0  0  0  0
   60.9349   29.5466   44.3021 H   0  0  0  0  0  0  0  0  0  0  0  0
   58.7273   30.1624   44.8491 H   0  0  0  0  0  0  0  0  0  0  0  0
   55.1157   30.8685   44.6765 H   0  0  0  0  0  0  0  0  0  0  0  0
   56.6189   31.8435   42.5876 H   0  0  0  0  0  0  0  0  0  0  0  0
   57.9343   31.2726   43.2178 H   0  0  0  0  0  0  0  0  0  0  0  0
   55.5143   29.6147   41.9924 H   0  0  0  0  0  0  0  0  0  0  0  0
   56.6233   28.6614   42.5103 H   0  0  0  0  0  0  0  0  0  0  0  0
   54.7690   27.1150   45.8810 H   0  0  0  0  0  0  0  0  0  0  0  0
   55.0274   24.2940   47.4385 H   0  0  0  0  0  0  0  0  0  0  0  0
   54.1282   24.6236   45.9188 H   0  0  0  0  0  0  0  0  0  0  0  0
   55.4954   23.4585   45.9188 H   0  0  0  0  0  0  0  0  0  0  0  0
   57.9764   24.3697   46.0123 H   0  0  0  0  0  0  0  0  0  0  0  0
  1  2  1  0
  2  3  2  0
  3  4  1  0
  4  5  2  0
  5  6  1  0
  6  7  1  0
  7  8  1  0
  4  9  1  0
  9 10  1  0
 10 11  1  0
 11 12  1  0
 11 13  2  0
 13 14  1  0
 14 15  2  0
 15  2  1  0
  8  6  1  0
 14  9  1  0
  1 16  1  0
  1 17  1  0
  1 18  1  0
  3 19  1  0
  6 20  1  0
  7 21  1  0
  7 22  1  0
  8 23  1  0
  8 24  1  0
 10 25  1  0
 12 26  1  0
 12 27  1  0
 12 28  1  0
 13 29  1  0
M  END
>  <smiles>  (1) 
Cc1cc(=NC2CC2)n2[nH]c(C)cc2n1

>  <score_type>  (1) 
oracle

>  <origin>  (1) 
adg

>  <m_score__min__energy>  (1) 
-6.1699999999999999

>  <m_primary>  (1) 
energy

$$$$
1:0
     RDKit          3D

 65 68  0  0  0  0  0  0  0  0999 V2000
   57.4920   33.3900   43.9860 O   0  0  0  0  0  0  0  0  0  0  0  0
   57.6730   32.7570   45.0610 C   0  0  0  0  0  0  0  0  0  0  0  0
   57.0320   31.4850   45.2250 N   0  0  0  0  0  0  0  0  0  0  0  0
   57.3950   30.2550   44.5180 C   0  0  1  0  0  0  0  0  0  0  0  0
   58.9240   30.0880   44.5120 C   0  0  0  0  0  0  0  0  0  0  0  0
   59.5790   30.2580   45.8950 C   0  0  0  0  0  0  0  0  0  0  0  0
   58.7130   29.7630   47.0740 C   0  0  2  0  0  0  0  0  0  0  0  0
   59.4350   30.0080   48.3910 C   0  0  0  0  0  0  0  0  0  0  0  0
   58.7240   30.1210   49.6020 C   0  0  0  0  0  0  0  0  0  0  0  0
   59.4020   30.3480   50.8040 C   0  0  0  0  0  0  0  0  0  0  0  0
   60.7930   30.4620   50.8130 C   0  0  0  0  0  0  0  0  0  0  0  0
   61.5110   30.3450   49.6210 C   0  0  0  0  0  0  0  0  0  0  0  0
   60.8400   30.1180   48.4160 C   0  0  0  0  0  0  0  0  0  0  0  0
   58.3230   28.2740   46.9270 C   0  0  0  0  0  0  0  0  0  0  0  0
   57.3410   28.0200   45.8540 N   0  0  0  0  0  0  0  0  0  0  0  0
   56.9610   26.6210   45.6030 C   0  0  0  0  0  0  0  0  0  0  0  0
   57.7930   26.0160   44.4710 C   0  0  0  0  0  0  0  0  0  0  0  0
   57.6780   26.7950   43.3350 F   0  0  0  0  0  0  0  0  0  0  0  0
   59.1220   25.9720   44.8520 F   0  0  0  0  0  0  0  0  0  0  0  0
   57.3670   24.7320   44.1880 F   0  0  0  0  0  0  0  0  0  0  0  0
   56.6660   29.0670   45.1130 C   0  0  0  0  0  0  0  0  0  0  0  0
   55.4310   28.9560   44.8880 O   0  0  0  0  0  0  0  0  0  0  0  0
   58.5310   33.3060   46.0750 N   0  0  0  0  0  0  0  0  0  0  0  0
   58.0500   33.4370   47.4570 C   0  0  0  0  0  0  0  0  0  0  0  0
   59.1790   33.1050   48.4410 C   0  0  0  0  0  0  0  0  0  0  0  0
   60.4540   33.7040   48.0210 N   0  0  0  0  0  0  0  0  0  0  0  0
   61.5650   33.6720   48.9280 C   0  0  0  0  0  0  0  0  0  0  0  0
   61.3960   34.1360   50.2010 N   0  0  0  0  0  0  0  0  0  0  0  0
   62.4140   34.1560   51.0990 C   0  0  0  0  0  0  0  0  0  0  0  0
   63.6800   33.7020   50.7350 C   0  0  0  0  0  0  0  0  0  0  0  0
   63.8880   33.2190   49.4450 C   0  0  0  0  0  0  0  0  0  0  0  0
   62.8300   33.1820   48.5190 C   0  0  0  0  0  0  0  0  0  0  0  0
   63.0580   32.6700   47.1120 C   0  0  0  0  0  0  0  0  0  0  0  0
   61.9000   32.0930   46.6270 F   0  0  0  0  0  0  0  0  0  0  0  0
   63.4220   33.7200   46.2910 F   0  0  0  0  0  0  0  0  0  0  0  0
   64.0590   31.7140   47.0690 F   0  0  0  0  0  0  0  0  0  0  0  0
   60.5080   34.5990   46.8610 C   0  0  0  0  0  0  0  0  0  0  0  0
   59.7780   33.9710   45.6670 C   0  0  0  0  0  0  0  0  0  0  0  0
   57.0753   30.3183   43.4674 H   0  0  0  0  0  0  0  0  0  0  0  0
   59.1602   29.0805   44.1391 H   0  0  0  0  0  0  0  0  0  0  0  0
   59.3281   30.8838   43.8690 H   0  0  0  0  0  0  0  0  0  0  0  0
   60.5233   29.6938   45.9006 H   0  0  0  0  0  0  0  0  0  0  0  0
   59.7252   31.3381   46.0435 H   0  0  0  0  0  0  0  0  0  0  0  0
   57.7760   30.3392   47.0657 H   0  0  0  0  0  0  0  0  0  0  0  0
   57.6278   30.0300   49.6021 H   0  0  0  0  0  0  0  0  0  0  0  0
   58.8379   30.4369   51.7441 H   0  0  0  0  0  0  0  0  0  0  0  0
   61.3238   30.6440   51.7591 H   0  0  0  0  0  0  0  0  0  0  0  0
   62.6075   30.4317   49.6304 H   0  0  0  0  0  0  0  0  0  0  0  0
   61.4121   30.0246   47.4812 H   0  0  0  0  0  0  0  0  0  0  0  0
   59.2334   27.6967   46.7082 H   0  0  0  0  0  0  0  0  0  0  0  0
   57.8506   27.9709   47.8730 H   0  0  0  0  0  0  0  0  0  0  0  0
   57.1230   26.0352   46.5199 H   0  0  0  0  0  0  0  0  0  0  0  0
   55.9015   26.5955   45.3084 H   0  0  0  0  0  0  0  0  0  0  0  0
   57.7101   34.4691   47.6278 H   0  0  0  0  0  0  0  0  0  0  0  0
   57.2160   32.7376   47.6161 H   0  0  0  0  0  0  0  0  0  0  0  0
   58.9122   33.4931   49.4351 H   0  0  0  0  0  0  0  0  0  0  0  0
   59.3034   32.0124   48.4673 H   0  0  0  0  0  0  0  0  0  0  0  0
   60.4600   34.4930   50.4950 H   0  0  0  0  0  0  0  0  0  0  0  0
   62.2387   34.5320   52.1178 H   0  0  0  0  0  0  0  0  0  0  0  0
   64.5075   33.7247   51.4594 H   0  0  0  0  0  0  0  0  0  0  0  0
   64.8862   32.8643   49.1487 H   0  0  0  0  0  0  0  0  0  0  0  0
   60.0276   35.5546   47.1178 H   0  0  0  0  0  0  0  0  0  0  0  0
   61.5604   34.7665   46.5881 H   0  0  0  0  0  0  0  0  0  0  0  0
   59.5383   34.7616   44.9407 H   0  0  0  0  0  0  0  0  0  0  0  0
   60.4396   33.2125   45.2232 H   0  0  0  0  0  0  0  0  0  0  0  0
  1  2  2  0
  2  3  1  0
  3  4  1  0
  4  5  1  0
  5  6  1  0
  6  7  1  0
  7  8  1  0
  8  9  2  0
  9 10  1  0
 10 11  2  0
 11 12  1  0
 12 13  2  0
  7 14  1  0
 14 15  1  0
 15 16  1  0
 16 17  1  0
 17 18  1  0
 17 19  1  0
 17 20  1  0
 15 21  1  0
 21 22  2  0
  2 23  1  0
 23 24  1  0
 24 25  1  0
 25 26  1  0
 26 27  1  0
 27 28  2  0
 28 29  1  0
 29 30  2  0
 30 31  1  0
 31 32  2  0
 32 33  1  0
 33 34  1  0
 33 35  1  0
 33 36  1  0
 26 37  1  0
 37 38  1  0
 21  4  1  0
 38 23  1  0
 13  8  1  0
 32 27  1  0
  4 39  1  6
  5 40  1  0
  5 41  1  0
  6 42  1  0
  6 43  1  0
  7 44  1  1
  9 45  1  0
 10 46  1  0
 11 47  1  0
 12 48  1  0
 13 49  1  0
 14 50  1  0
 14 51  1  0
 16 52  1  0
 16 53  1  0
 24 54  1  0
 24 55  1  0
 25 56  1  0
 25 57  1  0
 28 58  1  0
 29 59  1  0
 30 60  1  0
 31 61  1  0
 37 62  1  0
 37 63  1  0
 38 64  1  0
 38 65  1  0
M  CHG  2   3  -1  28   1
M  END
>  <UniqueID>  (2) 
1

>  <SMILES>  (2) 
O=C([N-][C@H]1CC[C@H](c2ccccc2)CN(CC(F)(F)F)C1=O)N1CCN(c2[nH+]cccc2C(F)(F)F)CC1

>  <Energy>  (2) 
82.35482840714891

>  <Genealogy>  (2) 
O=C([N-]C1CCC(c2ccccc2)CN(CC(F)(F)F)C1=O)N1CCN(c2[nH+]cccc2C(F)(F)F)CC1 (protonated)
O=C([N-][C@H]1CC[C@H](c2ccccc2)CN(CC(F)(F)F)C1=O)N1CCN(c2[nH+]cccc2C(F)(F)F)CC1 (chirality)
O=C([N-][C@H]1CC[C@H](c2ccccc2)CN(CC(F)(F)F)C1=O)N1CCN(c2[nH+]cccc2C(F)(F)F)CC1 (3D coordinates assigned)
O=C([N-][C@H]1CC[C@H](c2ccccc2)CN(CC(F)(F)F)C1=O)N1CCN(c2[nH+]cccc2C(F)(F)F)CC1 (nonaromatic ring conformer: 82.35482840714891 kcal/mol)

>  <smiles>  (2) 
O=C(NC1CCC(c2ccccc2)CN(CC(F)(F)F)C1=O)N1CCN(c2ncccc2C(F)(F)F)CC1

>  <score_type>  (2) 
oracle

>  <origin>  (2) 
adg

>  <m_score__min__energy>  (2) 
-6.9699999999999998

>  <m_primary>  (2) 
energy

$$$$
2:0
     RDKit          3D

 31 33  0  0  0  0  0  0  0  0999 V2000
   56.4451   23.4785   46.1555 H   0  0  0  0  0  0  0  0  0  0  0  0
   56.0430   24.5020   46.1280 C   0  0  0  0  0  0  0  0  0  0  0  0
   54.8360   24.9370   45.6240 C   0  0  0  0  0  0  0  0  0  0  0  0
   53.7800   24.0850   45.0050 C   0  0  0  0  0  0  0  0  0  0  0  0
   53.1854   23.6052   45.7964 H   0  0  0  0  0  0  0  0  0  0  0  0
   53.1239   24.7097   44.3810 H   0  0  0  0  0  0  0  0  0  0  0  0
   54.2518   23.3117   44.3810 H   0  0  0  0  0  0  0  0  0  0  0  0
   54.7430   26.2380   45.7890 O   0  0  0  0  0  0  0  0  0  0  0  0
   55.8070   26.7130   46.3670 N   0  0  0  0  0  0  0  0  0  0  0  0
   56.6210   25.6620   46.5880 C   0  0  0  0  0  0  0  0  0  0  0  0
   57.8030   25.7250   47.1280 N   0  0  0  0  0  0  0  0  0  0  0  0
   58.9640   26.4380   46.6640 C   0  0  0  0  0  0  0  0  0  0  0  0
   59.9960   25.7740   46.3800 O   0  0  0  0  0  0  0  0  0  0  0  0
   59.0160   27.9340   46.5150 C   0  0  0  0  0  0  0  0  0  0  0  0
   58.0900   28.3644   46.9240 H   0  0  0  0  0  0  0  0  0  0  0  0
   59.8984   28.3001   47.0602 H   0  0  0  0  0  0  0  0  0  0  0  0
   59.1810   28.4410   44.7640 S   0  0  0  0  0  0  0  0  0  0  0  0
   57.6070   29.3140   44.6970 C   0  0  0  0  0  0  0  0  0  0  0  0
   57.3880   30.6510   44.5720 N   0  0  0  0  0  0  0  0  0  0  0  0
   58.2610   31.8150   44.3370 C   0  0  0  0  0  0  0  0  0  0  0  0
   58.7162   31.3827   43.4337 H   0  0  0  0  0  0  0  0  0  0  0  0
   57.7480   33.2030   44.6760 C   0  0  0  0  0  0  0  0  0  0  0  0
   58.0647   34.0686   44.0757 H   0  0  0  0  0  0  0  0  0  0  0  0
   56.7538   33.6560   44.8036 H   0  0  0  0  0  0  0  0  0  0  0  0
   58.7450   32.5080   45.5990 C   0  0  0  0  0  0  0  0  0  0  0  0
   59.7809   32.8721   45.6644 H   0  0  0  0  0  0  0  0  0  0  0  0
   58.7684   32.2515   46.6684 H   0  0  0  0  0  0  0  0  0  0  0  0
   56.0690   30.7880   44.5670 N   0  0  0  0  0  0  0  0  0  0  0  0
   55.4920   29.6020   44.6870 N   0  0  0  0  0  0  0  0  0  0  0  0
   56.4290   28.6740   44.7610 N   0  0  0  0  0  0  0  0  0  0  0  0
   56.2580   27.6490   44.8560 H   0  0  0  0  0  0  0  0  0  0  0  0
  1  2  1  0
  2  3  2  0
  3  4  1  0
  4  5  1  0
  4  6  1  0
  4  7  1  0
  3  8  1  0
  8  9  1  0
  9 10  1  0
 10 11  2  0
 11 12  1  0
 12 13  2  0
 12 14  1  0
 14 15  1  0
 14 16  1  0
 14 17  1  0
 17 18  1  0
 18 19  1  0
 19 20  1  0
 20 21  1  0
 20 22  1  0
 22 23  1  0
 22 24  1  0
 22 25  1  0
 25 26  1  0
 25 27  1  0
 19 28  1  0
 28 29  2  0
 29 30  1  0
 30 31  1  0
 10  2  1  0
 30 18  2  0
 25 20  1  0
M  CHG  2   9  -1  30   1
M  END
>  <UniqueID>  (3) 
2

>  <SMILES>  (3) 
Cc1c/c(=N/C(=O)CSc2[nH+]nnn2C2CC2)[n-]o1

>  <Energy>  (3) 
375.4198625682074

>  <Genealogy>  (3) 
Cc1cc(=NC(=O)CSc2[nH+]nnn2C2CC2)[n-]o1 (protonated)
Cc1c/c(=N/C(=O)CSc2[nH+]nnn2C2CC2)[n-]o1 (cis-trans isomerization)
Cc1c/c(=N/C(=O)CSc2[nH+]nnn2C2CC2)[n-]o1 (3D coordinates assigned)
Cc1c/c(=N/C(=O)CSc2[nH+]nnn2C2CC2)[n-]o1 (nonaromatic ring conformer: 375.4198625682074 kcal/mol)

>  <smiles>  (3) 
Cc1cc(=NC(=O)CSc2nnnn2C2CC2)[nH]o1

>  <score_type>  (3) 
oracle

>  <origin>  (3) 
adg

>  <m_score__min__energy>  (3) 
-8.3699999999999992

>  <m_primary>  (3) 
energy

$$$$
3:0
     RDKit          3D

 29 31  0  0  0  0  0  0  0  0999 V2000
   57.7570   24.1810   46.7090 C   0  0  0  0  0  0  0  0  0  0  0  0
   57.0480   25.4220   46.2850 C   0  0  0  0  0  0  0  0  0  0  0  0
   55.7200   25.6030   46.4160 N   0  0  0  0  0  0  0  0  0  0  0  0
   55.5070   26.8110   45.9930 O   0  0  0  0  0  0  0  0  0  0  0  0
   56.6420   27.3560   45.6300 C   0  0  0  0  0  0  0  0  0  0  0  0
   56.7680   28.7170   45.1040 C   0  0  0  0  0  0  0  0  0  0  0  0
   55.7430   29.5950   45.0560 N   0  0  0  0  0  0  0  0  0  0  0  0
   56.0830   30.7730   44.5370 N   0  0  0  0  0  0  0  0  0  0  0  0
   57.3800   30.8340   44.1680 C   0  0  0  0  0  0  0  0  0  0  0  0
   58.1340   32.2810   43.4290 S   0  0  0  0  0  0  0  0  0  0  0  0
   57.3980   33.4610   44.6130 C   0  0  0  0  0  0  0  0  0  0  0  0
   58.2870   33.6470   45.8120 C   0  0  0  0  0  0  0  0  0  0  0  0
   59.3160   34.6030   45.7840 C   0  0  0  0  0  0  0  0  0  0  0  0
   60.1630   34.7580   46.8860 C   0  0  0  0  0  0  0  0  0  0  0  0
   59.9910   33.9600   48.0220 C   0  0  0  0  0  0  0  0  0  0  0  0
   61.0550   34.1540   49.4020 Cl  0  0  0  0  0  0  0  0  0  0  0  0
   58.9710   33.0020   48.0540 C   0  0  0  0  0  0  0  0  0  0  0  0
   58.1220   32.8450   46.9540 C   0  0  0  0  0  0  0  0  0  0  0  0
   58.1840   29.3910   44.4860 S   0  0  0  0  0  0  0  0  0  0  0  0
   57.6780   26.5120   45.8000 N   0  0  0  0  0  0  0  0  0  0  0  0
   57.7851   24.1319   47.8075 H   0  0  0  0  0  0  0  0  0  0  0  0
   57.2247   23.3022   46.3162 H   0  0  0  0  0  0  0  0  0  0  0  0
   58.7844   24.1933   46.3162 H   0  0  0  0  0  0  0  0  0  0  0  0
   57.2590   34.4315   44.1142 H   0  0  0  0  0  0  0  0  0  0  0  0
   56.4315   33.0601   44.9523 H   0  0  0  0  0  0  0  0  0  0  0  0
   59.4560   35.2317   44.8923 H   0  0  0  0  0  0  0  0  0  0  0  0
   60.9662   35.5091   46.8594 H   0  0  0  0  0  0  0  0  0  0  0  0
   58.8371   32.3718   48.9456 H   0  0  0  0  0  0  0  0  0  0  0  0
   57.3218   32.0907   46.9828 H   0  0  0  0  0  0  0  0  0  0  0  0
  1  2  1  0
  2  3  2  0
  3  4  1  0
  4  5  1  0
  5  6  1  0
  6  7  2  0
  7  8  1  0
  8  9  2  0
  9 10  1  0
 10 11  1  0
 11 12  1  0
 12 13  2  0
 13 14  1  0
 14 15  2  0
 15 16  1  0
 15 17  1  0
 17 18  2  0
  9 19  1  0
  5 20  2  0
 20  2  1  0
 19  6  1  0
 18 12  1  0
  1 21  1  0
  1 22  1  0
  1 23  1  0
 11 24  1  0
 11 25  1  0
 13 26  1  0
 14 27  1  0
 17 28  1  0
 18 29  1  0
M  END
>  <UniqueID>  (4) 
3

>  <SMILES>  (4) 
Cc1noc(-c2nnc(SCc3ccc(Cl)cc3)s2)n1

>  <Energy>  (4) 
90.8453376657088

>  <Genealogy>  (4) 
Cc1noc(-c2nnc(SCc3ccc(Cl)cc3)s2)n1 (3D coordinates assigned)
Cc1noc(-c2nnc(SCc3ccc(Cl)cc3)s2)n1 (optimized conformer: 90.8453376657088 kcal/mol)

>  <smiles>  (4) 
Cc1noc(-c2nnc(SCc3ccc(Cl)cc3)s2)n1

>  <score_type>  (4) 
oracle

>  <origin>  (4) 
adg

>  <m_score__min__energy>  (4) 
-9.2300000000000004

>  <m_primary>  (4) 
energy

$$$$
4:0
     RDKit          3D

 48 50  0  0  0  0  0  0  0  0999 V2000
   63.2370   33.4790   52.1710 C   0  0  0  0  0  0  0  0  0  0  0  0
   63.0890   34.3960   51.0920 O   0  0  0  0  0  0  0  0  0  0  0  0
   62.9250   34.0220   49.7500 C   0  0  0  0  0  0  0  0  0  0  0  0
   63.9670   33.4550   48.9930 C   0  0  0  0  0  0  0  0  0  0  0  0
   63.7520   33.0920   47.6620 C   0  0  0  0  0  0  0  0  0  0  0  0
   62.5010   33.2910   47.0730 C   0  0  0  0  0  0  0  0  0  0  0  0
   61.4530   33.8660   47.8100 C   0  0  0  0  0  0  0  0  0  0  0  0
   60.1580   34.0630   47.2070 N   0  0  0  0  0  0  0  0  0  0  0  0
   60.0370   34.8270   45.9580 C   0  0  0  0  0  0  0  0  0  0  0  0
   58.6720   34.5910   45.3060 C   0  0  0  0  0  0  0  0  0  0  0  0
   58.3280   33.1620   45.4140 N   0  0  0  0  0  0  0  0  0  0  0  0
   57.2400   32.7370   44.5050 C   0  0  0  0  0  0  0  0  0  0  0  0
   57.7210   31.9290   43.2820 C   0  0  0  0  0  0  0  0  0  0  0  0
   57.9330   30.5310   43.6520 N   0  0  0  0  0  0  0  0  0  0  0  0
   56.9770   29.7820   44.4190 C   0  0  0  0  0  0  0  0  0  0  0  0
   55.9310   30.3480   44.8390 O   0  0  0  0  0  0  0  0  0  0  0  0
   57.2130   28.3540   44.7250 C   0  0  0  0  0  0  0  0  0  0  0  0
   58.2690   27.6440   44.1280 C   0  0  0  0  0  0  0  0  0  0  0  0
   58.4550   26.3340   44.4350 N   0  0  0  0  0  0  0  0  0  0  0  0
   57.6390   25.6930   45.3120 C   0  0  0  0  0  0  0  0  0  0  0  0
   56.5900   26.3920   45.9090 C   0  0  0  0  0  0  0  0  0  0  0  0
   56.4020   27.7030   45.6030 N   0  0  0  0  0  0  0  0  0  0  0  0
   58.1340   32.6990   46.8100 C   0  0  0  0  0  0  0  0  0  0  0  0
   58.9440   33.5210   47.8310 C   0  0  0  0  0  0  0  0  0  0  0  0
   61.6750   34.2210   49.1520 C   0  0  0  0  0  0  0  0  0  0  0  0
   63.1499   34.0188   53.1255 H   0  0  0  0  0  0  0  0  0  0  0  0
   62.4511   32.7118   52.1106 H   0  0  0  0  0  0  0  0  0  0  0  0
   64.2244   32.9980   52.1106 H   0  0  0  0  0  0  0  0  0  0  0  0
   64.9544   33.2972   49.4515 H   0  0  0  0  0  0  0  0  0  0  0  0
   64.5700   32.6481   47.0756 H   0  0  0  0  0  0  0  0  0  0  0  0
   62.3360   32.9957   46.0263 H   0  0  0  0  0  0  0  0  0  0  0  0
   60.1509   35.8987   46.1784 H   0  0  0  0  0  0  0  0  0  0  0  0
   60.8218   34.4933   45.2633 H   0  0  0  0  0  0  0  0  0  0  0  0
   57.9088   35.1937   45.8201 H   0  0  0  0  0  0  0  0  0  0  0  0
   58.7111   34.8843   44.2465 H   0  0  0  0  0  0  0  0  0  0  0  0
   56.5364   32.1134   45.0761 H   0  0  0  0  0  0  0  0  0  0  0  0
   56.7748   33.6548   44.1160 H   0  0  0  0  0  0  0  0  0  0  0  0
   56.9609   31.9836   42.4887 H   0  0  0  0  0  0  0  0  0  0  0  0
   58.6703   32.3530   42.9226 H   0  0  0  0  0  0  0  0  0  0  0  0
   58.8400   30.0880   43.3830 H   0  0  0  0  0  0  0  0  0  0  0  0
   58.9408   28.1463   43.4164 H   0  0  0  0  0  0  0  0  0  0  0  0
   57.8042   24.6317   45.5492 H   0  0  0  0  0  0  0  0  0  0  0  0
   55.9208   25.8869   46.6211 H   0  0  0  0  0  0  0  0  0  0  0  0
   57.0663   32.7801   47.0618 H   0  0  0  0  0  0  0  0  0  0  0  0
   58.4893   31.6595   46.8660 H   0  0  0  0  0  0  0  0  0  0  0  0
   58.3246   34.3518   48.1999 H   0  0  0  0  0  0  0  0  0  0  0  0
   59.2347   32.8656   48.6652 H   0  0  0  0  0  0  0  0  0  0  0  0
   60.8559   34.6609   49.7398 H   0  0  0  0  0  0  0  0  0  0  0  0
  1  2  1  0
  2  3  1  0
  3  4  2  0
  4  5  1  0
  5  6  2  0
  6  7  1  0
  7  8  1  0
  8  9  1  0
  9 10  1  0
 10 11  1  0
 11 12  1  0
 12 13  1  0
 13 14  1  0
 14 15  1  0
 15 16  2  0
 15 17  1  0
 17 18  2  0
 18 19  1  0
 19 20  2  0
 20 21  1  0
 21 22  2  0
 11 23  1  0
 23 24  1  0
  7 25  2  0
 25  3  1  0
 24  8  1  0
 22 17  1  0
  1 26  1  0
  1 27  1  0
  1 28  1  0
  4 29  1  0
  5 30  1  0
  6 31  1  0
  9 32  1  0
  9 33  1  0
 10 34  1  0
 10 35  1  0
 12 36  1  0
 12 37  1  0
 13 38  1  0
 13 39  1  0
 14 40  1  0
 18 41  1  0
 20 42  1  0
 21 43  1  0
 23 44  1  0
 23 45  1  0
 24 46  1  0
 24 47  1  0
 25 48  1  0
M  END
>  <UniqueID>  (5) 
4

>  <SMILES>  (5) 
COc1cccc(N2CCN(CCNC(=O)c3cnccn3)CC2)c1

>  <Energy>  (5) 
60.149959216019795

>  <Genealogy>  (5) 
COc1cccc(N2CCN(CCNC(=O)c3cnccn3)CC2)c1 (3D coordinates assigned)
COc1cccc(N2CCN(CCNC(=O)c3cnccn3)CC2)c1 (nonaromatic ring conformer: 60.149959216019795 kcal/mol)

>  <smiles>  (5) 
COc1cccc(N2CCN(CCNC(=O)c3cnccn3)CC2)c1

>  <score_type>  (5) 
oracle

>  <origin>  (5) 
adg

>  <m_score__min__energy>  (5) 
-7.8700000000000001

>  <m_primary>  (5) 
energy

$$$$
5:0
     RDKit          3D

 63 67  0  0  0  0  0  0  0  0999 V2000
   53.7940   30.0610   54.4010 C   0  0  0  0  0  0  0  0  0  0  0  0
   55.1490   29.9670   53.7660 C   0  0  0  0  0  0  0  0  0  0  0  0
   56.2820   29.7200   54.5540 C   0  0  0  0  0  0  0  0  0  0  0  0
   57.5460   29.6690   53.9650 C   0  0  0  0  0  0  0  0  0  0  0  0
   57.6670   29.8640   52.5840 C   0  0  0  0  0  0  0  0  0  0  0  0
   59.2410   29.8080   51.8030 S   0  0  0  0  0  0  0  0  0  0  0  0
   59.9090   28.5030   52.1340 O   0  0  0  0  0  0  0  0  0  0  0  0
   60.0840   30.9390   52.3240 O   0  0  0  0  0  0  0  0  0  0  0  0
   59.0760   29.9620   50.0230 C   0  0  2  0  0  0  0  0  0  0  0  0
   60.4080   29.7780   49.2920 C   0  0  0  0  0  0  0  0  0  0  0  0
   60.3030   30.6600   48.0480 C   0  0  1  0  0  0  0  0  0  0  0  0
   59.8650   29.8450   46.8540 C   0  0  0  0  0  0  0  0  0  0  0  0
   60.6920   29.0710   46.3030 O   0  0  0  0  0  0  0  0  0  0  0  0
   58.5430   30.0350   46.3120 N   0  0  0  0  0  0  0  0  0  0  0  0
   57.8640   29.2430   45.2690 C   0  0  0  0  0  0  0  0  0  0  0  0
   56.5430   29.7200   44.8300 C   0  0  0  0  0  0  0  0  0  0  0  0
   55.5040   30.0990   44.4890 N   0  0  0  0  0  0  0  0  0  0  0  0
   58.0640   27.7350   45.2540 C   0  0  0  0  0  0  0  0  0  0  0  0
   58.7340   28.6150   44.1930 C   0  0  0  0  0  0  0  0  0  0  0  0
   59.2950   31.6590   48.3810 N   0  0  0  0  0  0  0  0  0  0  0  0
   58.9520   32.7860   47.5580 C   0  0  0  0  0  0  0  0  0  0  0  0
   57.7680   32.8970   47.1410 O   0  0  0  0  0  0  0  0  0  0  0  0
   59.9890   33.8180   47.1410 C   0  0  0  0  0  0  0  0  0  0  0  0
   61.3260   33.5900   47.8420 C   0  0  0  0  0  0  0  0  0  0  0  0
   62.5000   33.2310   47.1440 C   0  0  0  0  0  0  0  0  0  0  0  0
   63.7090   33.0630   47.8240 C   0  0  0  0  0  0  0  0  0  0  0  0
   63.7760   33.2760   49.2020 C   0  0  0  0  0  0  0  0  0  0  0  0
   65.4400   33.0720   50.1200 Br  0  0  0  0  0  0  0  0  0  0  0  0
   62.6320   33.6630   49.9030 C   0  0  0  0  0  0  0  0  0  0  0  0
   61.4190   33.8250   49.2280 C   0  0  0  0  0  0  0  0  0  0  0  0
   59.4360   35.2620   47.1260 C   0  0  0  0  0  0  0  0  0  0  0  0
   59.5610   35.3110   45.6120 C   0  0  0  0  0  0  0  0  0  0  0  0
   60.1410   33.9080   45.6060 C   0  0  0  0  0  0  0  0  0  0  0  0
   58.5650   31.3370   49.5970 C   0  0  0  0  0  0  0  0  0  0  0  0
   56.5580   30.1140   51.8370 N   0  0  0  0  0  0  0  0  0  0  0  0
   55.3170   30.1740   52.3890 C   0  0  0  0  0  0  0  0  0  0  0  0
   53.9008   30.0536   55.4958 H   0  0  0  0  0  0  0  0  0  0  0  0
   53.3057   30.9952   54.0865 H   0  0  0  0  0  0  0  0  0  0  0  0
   53.1814   29.2032   54.0865 H   0  0  0  0  0  0  0  0  0  0  0  0
   56.1744   29.5662   55.6379 H   0  0  0  0  0  0  0  0  0  0  0  0
   58.4381   29.4776   54.5794 H   0  0  0  0  0  0  0  0  0  0  0  0
   58.3605   29.1708   49.7545 H   0  0  0  0  0  0  0  0  0  0  0  0
   61.2453   30.1034   49.9268 H   0  0  0  0  0  0  0  0  0  0  0  0
   60.5965   28.7248   49.0365 H   0  0  0  0  0  0  0  0  0  0  0  0
   61.2680   31.1159   47.7818 H   0  0  0  0  0  0  0  0  0  0  0  0
   57.9790   30.8060   46.7380 H   0  0  0  0  0  0  0  0  0  0  0  0
   58.6720   27.2521   46.0332 H   0  0  0  0  0  0  0  0  0  0  0  0
   57.3974   26.8602   45.2338 H   0  0  0  0  0  0  0  0  0  0  0  0
   59.8237   28.7641   44.2095 H   0  0  0  0  0  0  0  0  0  0  0  0
   58.7488   28.6347   43.0933 H   0  0  0  0  0  0  0  0  0  0  0  0
   62.4623   33.0822   46.0548 H   0  0  0  0  0  0  0  0  0  0  0  0
   64.6112   32.7618   47.2715 H   0  0  0  0  0  0  0  0  0  0  0  0
   62.6856   33.8405   50.9873 H   0  0  0  0  0  0  0  0  0  0  0  0
   60.5251   34.1401   49.7862 H   0  0  0  0  0  0  0  0  0  0  0  0
   58.4023   35.3483   47.4919 H   0  0  0  0  0  0  0  0  0  0  0  0
   59.9085   36.0399   47.7438 H   0  0  0  0  0  0  0  0  0  0  0  0
   58.5991   35.4002   45.0859 H   0  0  0  0  0  0  0  0  0  0  0  0
   60.1030   36.1365   45.1274 H   0  0  0  0  0  0  0  0  0  0  0  0
   59.5332   33.1762   45.0537 H   0  0  0  0  0  0  0  0  0  0  0  0
   61.1180   33.7183   45.1375 H   0  0  0  0  0  0  0  0  0  0  0  0
   58.7704   32.0833   50.3786 H   0  0  0  0  0  0  0  0  0  0  0  0
   57.4771   31.3373   49.4340 H   0  0  0  0  0  0  0  0  0  0  0  0
   54.4434   30.3852   51.7548 H   0  0  0  0  0  0  0  0  0  0  0  0
  1  2  1  0
  2  3  2  0
  3  4  1  0
  4  5  2  0
  5  6  1  0
  6  7  2  0
  6  8  2  0
  6  9  1  0
  9 10  1  0
 10 11  1  0
 11 12  1  0
 12 13  2  0
 12 14  1  0
 14 15  1  0
 15 16  1  0
 16 17  3  0
 15 18  1  0
 18 19  1  0
 11 20  1  0
 20 21  1  0
 21 22  2  0
 21 23  1  0
 23 24  1  0
 24 25  2  0
 25 26  1  0
 26 27  2  0
 27 28  1  0
 27 29  1  0
 29 30  2  0
 23 31  1  0
 31 32  1  0
 32 33  1  0
 20 34  1  0
  5 35  1  0
 35 36  2  0
 36  2  1  0
 34  9  1  0
 19 15  1  0
 33 23  1  0
 30 24  1  0
  1 37  1  0
  1 38  1  0
  1 39  1  0
  3 40  1  0
  4 41  1  0
  9 42  1  6
 10 43  1  0
 10 44  1  0
 11 45  1  6
 14 46  1  0
 18 47  1  0
 18 48  1  0
 19 49  1  0
 19 50  1  0
 25 51  1  0
 26 52  1  0
 29 53  1  0
 30 54  1  0
 31 55  1  0
 31 56  1  0
 32 57  1  0
 32 58  1  0
 33 59  1  0
 33 60  1  0
 34 61  1  0
 34 62  1  0
 36 63  1  0
M  END
>  <UniqueID>  (6) 
5

>  <SMILES>  (6) 
Cc1ccc(S(=O)(=O)[C@@H]2C[C@@H](C(=O)NC3(C#N)CC3)N(C(=O)C3(c4ccc(Br)cc4)CCC3)C2)nc1

>  <Energy>  (6) 
399.36660340454915

>  <Genealogy>  (6) 
Cc1ccc(S(=O)(=O)[C@@H]2C[C@@H](C(=O)NC3(C#N)CC3)N(C(=O)C3(c4ccc(Br)cc4)CCC3)C2)nc1 (chirality)
Cc1ccc(S(=O)(=O)[C@@H]2C[C@@H](C(=O)NC3(C#N)CC3)N(C(=O)C3(c4ccc(Br)cc4)CCC3)C2)nc1 (3D coordinates assigned)
Cc1ccc(S(=O)(=O)[C@@H]2C[C@@H](C(=O)NC3(C#N)CC3)N(C(=O)C3(c4ccc(Br)cc4)CCC3)C2)nc1 (nonaromatic ring conformer: 399.36660340454915 kcal/mol)

>  <smiles>  (6) 
Cc1ccc(S(=O)(=O)C2CC(C(=O)NC3(C#N)CC3)N(C(=O)C3(c4ccc(Br)cc4)CCC3)C2)nc1

>  <score_type>  (6) 
oracle

>  <origin>  (6) 
adg

>  <m_score__min__energy>  (6) 
-10.23

>  <m_primary>  (6) 
energy

$$$$
6:0
     RDKit          3D

 40 42  0  0  0  0  0  0  0  0999 V2000
   56.6570   25.6720   45.6780 C   0  0  0  0  0  0  0  0  0  0  0  0
   56.0250   26.9440   45.5830 O   0  0  0  0  0  0  0  0  0  0  0  0
   56.7060   28.1700   45.6230 C   0  0  0  0  0  0  0  0  0  0  0  0
   57.7670   28.3110   46.5230 C   0  0  0  0  0  0  0  0  0  0  0  0
   58.4780   29.5120   46.6030 C   0  0  0  0  0  0  0  0  0  0  0  0
   58.1370   30.5990   45.7790 C   0  0  0  0  0  0  0  0  0  0  0  0
   58.8900   31.8760   45.8620 C   0  0  0  0  0  0  0  0  0  0  0  0
   58.5440   32.9700   45.0530 C   0  0  0  0  0  0  0  0  0  0  0  0
   59.2390   34.1350   45.1340 N   0  0  0  0  0  0  0  0  0  0  0  0
   60.2840   34.2860   45.9910 C   0  0  0  0  0  0  0  0  0  0  0  0
   60.6790   33.2260   46.8210 C   0  0  0  0  0  0  0  0  0  0  0  0
   61.8100   33.3830   47.7670 C   0  0  0  0  0  0  0  0  0  0  0  0
   63.0840   32.8940   47.4270 C   0  0  0  0  0  0  0  0  0  0  0  0
   64.1570   33.0300   48.3120 C   0  0  0  0  0  0  0  0  0  0  0  0
   63.9770   33.6650   49.5540 C   0  0  0  0  0  0  0  0  0  0  0  0
   65.0230   33.8260   50.4760 O   0  0  0  0  0  0  0  0  0  0  0  0
   66.2180   33.0520   50.4780 C   0  0  0  0  0  0  0  0  0  0  0  0
   62.7130   34.1580   49.8910 C   0  0  0  0  0  0  0  0  0  0  0  0
   61.6350   34.0220   49.0100 C   0  0  0  0  0  0  0  0  0  0  0  0
   60.4330   34.5480   49.3570 F   0  0  0  0  0  0  0  0  0  0  0  0
   59.9680   32.0190   46.7510 C   0  0  0  0  0  0  0  0  0  0  0  0
   57.0690   30.4560   44.8740 C   0  0  0  0  0  0  0  0  0  0  0  0
   56.3600   29.2540   44.7960 C   0  0  0  0  0  0  0  0  0  0  0  0
   56.7890   25.4064   46.7373 H   0  0  0  0  0  0  0  0  0  0  0  0
   56.0309   24.9137   45.1851 H   0  0  0  0  0  0  0  0  0  0  0  0
   57.6395   25.7130   45.1851 H   0  0  0  0  0  0  0  0  0  0  0  0
   58.0447   27.4690   47.1741 H   0  0  0  0  0  0  0  0  0  0  0  0
   59.3103   29.6073   47.3158 H   0  0  0  0  0  0  0  0  0  0  0  0
   57.7039   32.8835   44.3482 H   0  0  0  0  0  0  0  0  0  0  0  0
   58.9630   34.9370   44.5230 H   0  0  0  0  0  0  0  0  0  0  0  0
   60.8225   35.2443   46.0337 H   0  0  0  0  0  0  0  0  0  0  0  0
   63.2372   32.4002   46.4561 H   0  0  0  0  0  0  0  0  0  0  0  0
   65.1472   32.6385   48.0359 H   0  0  0  0  0  0  0  0  0  0  0  0
   66.5245   32.8535   51.5156 H   0  0  0  0  0  0  0  0  0  0  0  0
   66.0381   32.0984   49.9600 H   0  0  0  0  0  0  0  0  0  0  0  0
   67.0146   33.6061   49.9600 H   0  0  0  0  0  0  0  0  0  0  0  0
   62.5645   34.6582   50.8594 H   0  0  0  0  0  0  0  0  0  0  0  0
   60.2570   31.1774   47.3977 H   0  0  0  0  0  0  0  0  0  0  0  0
   56.7898   31.2972   44.2225 H   0  0  0  0  0  0  0  0  0  0  0  0
   55.5272   29.1552   44.0842 H   0  0  0  0  0  0  0  0  0  0  0  0
  1  2  1  0
  2  3  1  0
  3  4  2  0
  4  5  1  0
  5  6  2  0
  6  7  1  0
  7  8  2  0
  8  9  1  0
  9 10  2  0
 10 11  1  0
 11 12  1  0
 12 13  2  0
 13 14  1  0
 14 15  2  0
 15 16  1  0
 16 17  1  0
 15 18  1  0
 18 19  2  0
 19 20  1  0
 11 21  2  0
  6 22  1  0
 22 23  2  0
 23  3  1  0
 21  7  1  0
 19 12  1  0
  1 24  1  0
  1 25  1  0
  1 26  1  0
  4 27  1  0
  5 28  1  0
  8 29  1  0
  9 30  1  0
 10 31  1  0
 13 32  1  0
 14 33  1  0
 17 34  1  0
 17 35  1  0
 17 36  1  0
 18 37  1  0
 21 38  1  0
 22 39  1  0
 23 40  1  0
M  CHG  1   9   1
M  END
>  <UniqueID>  (7) 
6

>  <SMILES>  (7) 
COc1ccc(-c2c[nH+]cc(-c3ccc(OC)cc3F)c2)cc1

>  <Energy>  (7) 
52.69865901673491

>  <Genealogy>  (7) 
COc1ccc(-c2c[nH+]cc(-c3ccc(OC)cc3F)c2)cc1 (protonated)
COc1ccc(-c2c[nH+]cc(-c3ccc(OC)cc3F)c2)cc1 (3D coordinates assigned)
COc1ccc(-c2c[nH+]cc(-c3ccc(OC)cc3F)c2)cc1 (optimized conformer: 52.69865901673491 kcal/mol)

>  <smiles>  (7) 
COc1ccc(-c2cncc(-c3ccc(OC)cc3F)c2)cc1

>  <score_type>  (7) 
oracle

>  <origin>  (7) 
adg

>  <m_score__min__energy>  (7) 
-4.9100000000000001

>  <m_primary>  (7) 
energy

$$$$
7:0
     RDKit          3D

 18 18  0  0  0  0  0  0  0  0999 V2000
   57.3960   28.1450   43.2920 N   0  0  0  0  0  0  0  0  0  0  0  0
   58.3500   27.6560   44.2900 C   0  0  0  0  0  0  0  0  0  0  0  0
   58.3780   28.5500   45.5380 C   0  0  0  0  0  0  0  0  0  0  0  0
   57.9340   29.9460   45.2280 C   0  0  0  0  0  0  0  0  0  0  0  0
   58.5860   31.1030   45.6050 C   0  0  0  0  0  0  0  0  0  0  0  0
   57.8030   32.1290   45.1260 C   0  0  0  0  0  0  0  0  0  0  0  0
   58.1380   33.9970   45.3110 Br  0  0  0  0  0  0  0  0  0  0  0  0
   56.7260   31.5450   44.4930 C   0  0  0  0  0  0  0  0  0  0  0  0
   56.8330   30.2380   44.5730 O   0  0  0  0  0  0  0  0  0  0  0  0
   57.7360   29.0600   42.9180 H   0  0  0  0  0  0  0  0  0  0  0  0
   56.4570   28.2870   43.7290 H   0  0  0  0  0  0  0  0  0  0  0  0
   57.3210   27.4680   42.4990 H   0  0  0  0  0  0  0  0  0  0  0  0
   58.0623   26.6371   44.5883 H   0  0  0  0  0  0  0  0  0  0  0  0
   59.3531   27.6674   43.8386 H   0  0  0  0  0  0  0  0  0  0  0  0
   57.7071   28.1228   46.2979 H   0  0  0  0  0  0  0  0  0  0  0  0
   59.4136   28.5929   45.9065 H   0  0  0  0  0  0  0  0  0  0  0  0
   59.5279   31.1870   46.1669 H   0  0  0  0  0  0  0  0  0  0  0  0
   55.9066   32.0878   43.9990 H   0  0  0  0  0  0  0  0  0  0  0  0
  1  2  1  0
  2  3  1  0
  3  4  1  0
  4  5  2  0
  5  6  1  0
  6  7  1  0
  6  8  2  0
  8  9  1  0
  9  4  1  0
  1 10  1  0
  1 11  1  0
  1 12  1  0
  2 13  1  0
  2 14  1  0
  3 15  1  0
  3 16  1  0
  5 17  1  0
  8 18  1  0
M  CHG  1   1   1
M  END
>  <UniqueID>  (8) 
7

>  <SMILES>  (8) 
[NH3+]CCc1cc(Br)co1

>  <Energy>  (8) 
37.997931349709916

>  <Genealogy>  (8) 
[NH3+]CCc1cc(Br)co1 (protonated)
[NH3+]CCc1cc(Br)co1 (3D coordinates assigned)
[NH3+]CCc1cc(Br)co1 (optimized conformer: 37.997931349709916 kcal/mol)

>  <smiles>  (8) 
NCCc1cc(Br)co1

>  <score_type>  (8) 
oracle

>  <origin>  (8) 
adg

>  <m_score__min__energy>  (8) 
-3.29

>  <m_primary>  (8) 
energy

$$$$
8:0
     RDKit          3D

 24 24  0  0  0  0  0  0  0  0999 V2000
   59.6940   28.8590   44.5220 C   0  0  0  0  0  0  0  0  0  0  0  0
   58.7700   29.6710   45.3200 N   0  0  0  0  0  0  0  0  0  0  0  0
   58.9670   29.8000   46.7670 C   0  0  0  0  0  0  0  0  0  0  0  0
   57.6250   30.2850   44.6950 C   0  0  0  0  0  0  0  0  0  0  0  0
   56.7990   29.4870   43.5230 S   0  0  0  0  0  0  0  0  0  0  0  0
   57.0790   31.5110   45.2040 N   0  0  0  0  0  0  0  0  0  0  0  0
   57.8760   32.6540   45.5570 C   0  0  0  0  0  0  0  0  0  0  0  0
   58.4010   33.4680   44.5420 C   0  0  0  0  0  0  0  0  0  0  0  0
   59.1910   34.5780   44.8620 C   0  0  0  0  0  0  0  0  0  0  0  0
   59.4700   34.8770   46.1970 C   0  0  0  0  0  0  0  0  0  0  0  0
   58.9660   34.0640   47.2160 C   0  0  0  0  0  0  0  0  0  0  0  0
   59.2480   34.3480   48.5110 F   0  0  0  0  0  0  0  0  0  0  0  0
   58.1770   32.9530   46.9000 C   0  0  0  0  0  0  0  0  0  0  0  0
   60.3490   28.2834   45.1925 H   0  0  0  0  0  0  0  0  0  0  0  0
   59.1202   28.1676   43.8874 H   0  0  0  0  0  0  0  0  0  0  0  0
   60.3060   29.5169   43.8874 H   0  0  0  0  0  0  0  0  0  0  0  0
   58.1599   29.2715   47.2955 H   0  0  0  0  0  0  0  0  0  0  0  0
   59.9365   29.3613   47.0456 H   0  0  0  0  0  0  0  0  0  0  0  0
   58.9524   30.8640   47.0456 H   0  0  0  0  0  0  0  0  0  0  0  0
   56.0380   31.6030   45.2460 H   0  0  0  0  0  0  0  0  0  0  0  0
   58.1904   33.2323   43.4884 H   0  0  0  0  0  0  0  0  0  0  0  0
   59.5926   35.2157   44.0607 H   0  0  0  0  0  0  0  0  0  0  0  0
   60.0868   35.7529   46.4469 H   0  0  0  0  0  0  0  0  0  0  0  0
   57.7899   32.3099   47.7041 H   0  0  0  0  0  0  0  0  0  0  0  0
  1  2  1  0
  2  3  1  0
  2  4  1  0
  4  5  2  0
  4  6  1  0
  6  7  1  0
  7  8  2  0
  8  9  1  0
  9 10  2  0
 10 11  1  0
 11 12  1  0
 11 13  2  0
 13  7  1  0
  1 14  1  0
  1 15  1  0
  1 16  1  0
  3 17  1  0
  3 18  1  0
  3 19  1  0
  6 20  1  0
  8 21  1  0
  9 22  1  0
 10 23  1  0
 13 24  1  0
M  END
>  <UniqueID>  (9) 
8

>  <SMILES>  (9) 
CN(C)C(=S)Nc1cccc(F)c1

>  <Energy>  (9) 
26.13833145569671

>  <Genealogy>  (9) 
CN(C)C(=S)Nc1cccc(F)c1 (3D coordinates assigned)
CN(C)C(=S)Nc1cccc(F)c1 (optimized conformer: 26.13833145569671 kcal/mol)

>  <smiles>  (9) 
CN(C)C(=S)Nc1cccc(F)c1

>  <score_type>  (9) 
oracle

>  <origin>  (9) 
adg

>  <m_score__min__energy>  (9) 
-4.9400000000000004

>  <m_primary>  (9) 
energy

$$$$
9:0
     RDKit          3D

 28 29  0  0  0  0  0  0  0  0999 V2000
   60.6060   26.4200   46.3990 C   0  0  0  0  0  0  0  0  0  0  0  0
   59.6160   27.3370   45.7720 C   0  0  0  0  0  0  0  0  0  0  0  0
   58.2690   27.0640   45.8170 C   0  0  0  0  0  0  0  0  0  0  0  0
   57.3210   27.9030   45.2390 C   0  0  0  0  0  0  0  0  0  0  0  0
   57.8070   29.0310   44.6150 C   0  0  0  0  0  0  0  0  0  0  0  0
   56.7290   30.2010   43.8360 S   0  0  0  0  0  0  0  0  0  0  0  0
   56.2670   29.6490   42.4990 O   0  0  0  0  0  0  0  0  0  0  0  0
   55.5630   30.3640   44.7680 O   0  0  0  0  0  0  0  0  0  0  0  0
   57.6200   31.6490   43.6000 N   0  0  0  0  0  0  0  0  0  0  0  0
   57.8780   32.5310   44.4740 C   0  0  0  0  0  0  0  0  0  0  0  0
   58.8020   33.4730   44.1280 N   0  0  0  0  0  0  0  0  0  0  0  0
   59.1480   34.4460   44.9710 C   0  0  0  0  0  0  0  0  0  0  0  0
   58.6070   34.5680   46.2270 C   0  0  0  0  0  0  0  0  0  0  0  0
   57.6620   33.6010   46.5790 C   0  0  0  0  0  0  0  0  0  0  0  0
   57.3500   32.6390   45.6860 N   0  0  0  0  0  0  0  0  0  0  0  0
   59.1490   29.3190   44.5630 C   0  0  0  0  0  0  0  0  0  0  0  0
   60.0760   28.4740   45.1410 C   0  0  0  0  0  0  0  0  0  0  0  0
   60.5293   26.4910   47.4940 H   0  0  0  0  0  0  0  0  0  0  0  0
   60.3999   25.3866   46.0832 H   0  0  0  0  0  0  0  0  0  0  0  0
   61.6206   26.7045   46.0832 H   0  0  0  0  0  0  0  0  0  0  0  0
   57.9291   26.1509   46.3275 H   0  0  0  0  0  0  0  0  0  0  0  0
   56.2449   27.6783   45.2781 H   0  0  0  0  0  0  0  0  0  0  0  0
   59.8984   35.1820   44.6467 H   0  0  0  0  0  0  0  0  0  0  0  0
   58.8993   35.3765   46.9132 H   0  0  0  0  0  0  0  0  0  0  0  0
   57.1804   33.6236   47.5677 H   0  0  0  0  0  0  0  0  0  0  0  0
   56.6430   31.9430   45.9900 H   0  0  0  0  0  0  0  0  0  0  0  0
   59.4894   30.2334   44.0550 H   0  0  0  0  0  0  0  0  0  0  0  0
   61.1514   28.7014   45.0993 H   0  0  0  0  0  0  0  0  0  0  0  0
  1  2  1  0
  2  3  2  0
  3  4  1  0
  4  5  2  0
  5  6  1  0
  6  7  2  0
  6  8  2  0
  6  9  1  0
  9 10  2  3
 10 11  1  0
 11 12  2  0
 12 13  1  0
 13 14  2  0
 14 15  1  0
  5 16  1  0
 16 17  2  0
 17  2  1  0
 15 10  1  0
  1 18  1  0
  1 19  1  0
  1 20  1  0
  3 21  1  0
  4 22  1  0
 12 23  1  0
 13 24  1  0
 14 25  1  0
 15 26  1  0
 16 27  1  0
 17 28  1  0
M  END
>  <smiles>  (10) 
Cc1ccc(S(=O)(=O)N=c2nccc[nH]2)cc1

>  <score_type>  (10) 
oracle

>  <origin>  (10) 
adg

>  <m_score__min__energy>  (10) 
-6.9699999999999998

>  <m_primary>  (10) 
energy

$$$$
10:0
     RDKit          3D

 31 33  0  0  0  0  0  0  0  0999 V2000
   55.8190   31.0400   44.5520 O   0  0  0  0  0  0  0  0  0  0  0  0
   56.6760   30.1730   44.8690 C   0  0  0  0  0  0  0  0  0  0  0  0
   56.5190   28.7570   44.3750 C   0  0  0  0  0  0  0  0  0  0  0  0
   57.0590   27.7990   45.3430 N   0  0  0  0  0  0  0  0  0  0  0  0
   56.3810   26.8600   46.0500 C   0  0  0  0  0  0  0  0  0  0  0  0
   55.1310   26.7180   45.9910 O   0  0  0  0  0  0  0  0  0  0  0  0
   57.1680   26.0790   46.8340 N   0  0  0  0  0  0  0  0  0  0  0  0
   58.3990   26.5650   46.5850 C   0  0  0  0  0  0  0  0  0  0  0  0
   59.6080   26.1210   47.1170 C   0  0  0  0  0  0  0  0  0  0  0  0
   60.7860   26.7690   46.7000 C   0  0  0  0  0  0  0  0  0  0  0  0
   60.7270   27.8290   45.7670 C   0  0  0  0  0  0  0  0  0  0  0  0
   59.4900   28.2550   45.2470 C   0  0  0  0  0  0  0  0  0  0  0  0
   58.3420   27.5940   45.6870 C   0  0  0  0  0  0  0  0  0  0  0  0
   57.8600   30.5990   45.5540 N   0  0  0  0  0  0  0  0  0  0  0  0
   58.2580   31.9590   45.7670 C   0  0  0  0  0  0  0  0  0  0  0  0
   58.5570   32.4360   47.0570 C   0  0  0  0  0  0  0  0  0  0  0  0
   58.4630   31.6190   48.1340 F   0  0  0  0  0  0  0  0  0  0  0  0
   58.9140   33.7760   47.2420 C   0  0  0  0  0  0  0  0  0  0  0  0
   58.9540   34.6490   46.1530 C   0  0  0  0  0  0  0  0  0  0  0  0
   58.6260   34.1870   44.8750 C   0  0  0  0  0  0  0  0  0  0  0  0
   58.2670   32.8490   44.6830 C   0  0  0  0  0  0  0  0  0  0  0  0
   57.9450   32.4120   43.4400 F   0  0  0  0  0  0  0  0  0  0  0  0
   55.4505   28.5470   44.2192 H   0  0  0  0  0  0  0  0  0  0  0  0
   57.0747   28.6519   43.4315 H   0  0  0  0  0  0  0  0  0  0  0  0
   59.6407   25.2916   47.8389 H   0  0  0  0  0  0  0  0  0  0  0  0
   61.7582   26.4485   47.1027 H   0  0  0  0  0  0  0  0  0  0  0  0
   61.6545   28.3248   45.4447 H   0  0  0  0  0  0  0  0  0  0  0  0
   59.4303   29.0787   44.5204 H   0  0  0  0  0  0  0  0  0  0  0  0
   59.1639   34.1430   48.2484 H   0  0  0  0  0  0  0  0  0  0  0  0
   59.2435   35.6999   46.3006 H   0  0  0  0  0  0  0  0  0  0  0  0
   58.6503   34.8771   44.0188 H   0  0  0  0  0  0  0  0  0  0  0  0
  1  2  2  0
  2  3  1  0
  3  4  1  0
  4  5  1  0
  5  6  2  0
  5  7  1  0
  7  8  1  0
  8  9  2  0
  9 10  1  0
 10 11  2  0
 11 12  1  0
 12 13  2  0
  2 14  1  0
 14 15  1  0
 15 16  2  0
 16 17  1  0
 16 18  1  0
 18 19  2  0
 19 20  1  0
 20 21  2  0
 21 22  1  0
 13  4  1  0
 21 15  1  0
 13  8  1  0
  3 23  1  0
  3 24  1  0
  9 25  1  0
 10 26  1  0
 11 27  1  0
 12 28  1  0
 18 29  1  0
 19 30  1  0
 20 31  1  0
M  CHG  2   7  -1  14  -1
M  END
>  <UniqueID>  (11) 
9

>  <SMILES>  (11) 
O=C(Cn1c(=O)[n-]c2ccccc21)[N-]c1c(F)cccc1F

>  <Energy>  (11) 
78.7364385157219

>  <Genealogy>  (11) 
O=C(Cn1c(=O)[n-]c2ccccc21)[N-]c1c(F)cccc1F (protonated)
O=C(Cn1c(=O)[n-]c2ccccc21)[N-]c1c(F)cccc1F (3D coordinates assigned)
O=C(Cn1c(=O)[n-]c2ccccc21)[N-]c1c(F)cccc1F (optimized conformer: 78.7364385157219 kcal/mol)

>  <smiles>  (11) 
O=C(Cn1c(=O)[nH]c2ccccc21)Nc1c(F)cccc1F

>  <score_type>  (11) 
oracle

>  <origin>  (11) 
adg

>  <m_score__min__energy>  (11) 
-10.109999999999999

>  <m_primary>  (11) 
energy

$$$$
11:0
     RDKit          3D

 39 40  0  0  0  0  0  0  0  0999 V2000
   57.1110   29.4590   44.7660 C   0  0  0  0  0  0  0  0  0  0  0  0
   56.6420   30.7940   44.8990 O   0  0  0  0  0  0  0  0  0  0  0  0
   57.4110   31.9510   44.7000 C   0  0  0  0  0  0  0  0  0  0  0  0
   57.8790   32.8750   45.6350 C   0  0  0  0  0  0  0  0  0  0  0  0
   57.8090   32.8470   47.1410 C   0  0  0  0  0  0  0  0  0  0  0  0
   59.1310   32.5700   47.7490 N   0  0  0  0  0  0  0  0  0  0  0  0
   58.9700   31.5980   48.8450 C   0  0  0  0  0  0  0  0  0  0  0  0
   59.7970   33.7950   48.2520 C   0  0  0  0  0  0  0  0  0  0  0  0
   61.2960   33.6650   48.1590 C   0  0  0  0  0  0  0  0  0  0  0  0
   61.9070   33.3060   46.9480 C   0  0  0  0  0  0  0  0  0  0  0  0
   63.2970   33.2090   46.8680 C   0  0  0  0  0  0  0  0  0  0  0  0
   64.0660   33.4490   48.0090 C   0  0  0  0  0  0  0  0  0  0  0  0
   63.4600   33.7640   49.1840 N   0  0  0  0  0  0  0  0  0  0  0  0
   62.1080   33.8690   49.2860 C   0  0  0  0  0  0  0  0  0  0  0  0
   58.5620   33.8100   44.8630 C   0  0  0  0  0  0  0  0  0  0  0  0
   59.2670   35.0320   45.3580 C   0  0  0  0  0  0  0  0  0  0  0  0
   58.5200   33.4570   43.5630 N   0  0  0  0  0  0  0  0  0  0  0  0
   57.8220   32.3370   43.4780 N   0  0  0  0  0  0  0  0  0  0  0  0
   57.6020   31.6140   42.2320 C   0  0  0  0  0  0  0  0  0  0  0  0
   57.2642   29.0230   45.7642 H   0  0  0  0  0  0  0  0  0  0  0  0
   56.3685   28.8627   44.2154 H   0  0  0  0  0  0  0  0  0  0  0  0
   58.0633   29.4581   44.2154 H   0  0  0  0  0  0  0  0  0  0  0  0
   57.4503   33.8234   47.4988 H   0  0  0  0  0  0  0  0  0  0  0  0
   57.1217   32.0404   47.4360 H   0  0  0  0  0  0  0  0  0  0  0  0
   59.0560   32.1171   49.8110 H   0  0  0  0  0  0  0  0  0  0  0  0
   57.9809   31.1225   48.7710 H   0  0  0  0  0  0  0  0  0  0  0  0
   59.7530   30.8289   48.7710 H   0  0  0  0  0  0  0  0  0  0  0  0
   59.4715   34.6559   47.6496 H   0  0  0  0  0  0  0  0  0  0  0  0
   59.5200   33.9396   49.3067 H   0  0  0  0  0  0  0  0  0  0  0  0
   61.2899   33.1008   46.0608 H   0  0  0  0  0  0  0  0  0  0  0  0
   63.7819   32.9463   45.9162 H   0  0  0  0  0  0  0  0  0  0  0  0
   65.1628   33.3830   47.9566 H   0  0  0  0  0  0  0  0  0  0  0  0
   61.6490   34.1146   50.2550 H   0  0  0  0  0  0  0  0  0  0  0  0
   59.2683   35.0343   46.4580 H   0  0  0  0  0  0  0  0  0  0  0  0
   60.3037   35.0316   44.9901 H   0  0  0  0  0  0  0  0  0  0  0  0
   58.7477   35.9292   44.9901 H   0  0  0  0  0  0  0  0  0  0  0  0
   57.2885   30.5838   42.4563 H   0  0  0  0  0  0  0  0  0  0  0  0
   56.8165   32.1177   41.6496 H   0  0  0  0  0  0  0  0  0  0  0  0
   58.5350   31.5948   41.6496 H   0  0  0  0  0  0  0  0  0  0  0  0
  1  2  1  0
  2  3  1  0
  3  4  2  0
  4  5  1  0
  5  6  1  0
  6  7  1  0
  6  8  1  0
  8  9  1  0
  9 10  2  0
 10 11  1  0
 11 12  2  0
 12 13  1  0
 13 14  2  0
  4 15  1  0
 15 16  1  0
 15 17  2  0
 17 18  1  0
 18 19  1  0
 18  3  1  0
 14  9  1  0
  1 20  1  0
  1 21  1  0
  1 22  1  0
  5 23  1  0
  5 24  1  0
  7 25  1  0
  7 26  1  0
  7 27  1  0
  8 28  1  0
  8 29  1  0
 10 30  1  0
 11 31  1  0
 12 32  1  0
 14 33  1  0
 16 34  1  0
 16 35  1  0
 16 36  1  0
 19 37  1  0
 19 38  1  0
 19 39  1  0
M  END
>  <UniqueID>  (12) 
10

>  <SMILES>  (12) 
COc1c(CN(C)Cc2cccnc2)c(C)nn1C

>  <Energy>  (12) 
67.55649356706898

>  <Genealogy>  (12) 
COc1c(CN(C)Cc2cccnc2)c(C)nn1C (3D coordinates assigned)
COc1c(CN(C)Cc2cccnc2)c(C)nn1C (optimized conformer: 67.55649356706898 kcal/mol)

>  <smiles>  (12) 
COc1c(CN(C)Cc2cccnc2)c(C)nn1C

>  <score_type>  (12) 
oracle

>  <origin>  (12) 
adg

>  <m_score__min__energy>  (12) 
-6.2300000000000004

>  <m_primary>  (12) 
energy

$$$$
12:0
     RDKit          3D

 33 34  0  0  0  0  0  0  0  0999 V2000
   60.8260   28.6120   44.8340 C   0  0  0  0  0  0  0  0  0  0  0  0
   60.5780   27.7170   46.0430 C   0  0  0  0  0  0  0  0  0  0  0  0
   59.5980   28.2940   46.9040 O   0  0  0  0  0  0  0  0  0  0  0  0
   58.2180   28.1730   46.6940 C   0  0  0  0  0  0  0  0  0  0  0  0
   57.5740   27.2340   47.2350 O   0  0  0  0  0  0  0  0  0  0  0  0
   57.5330   29.1410   45.8180 C   0  0  0  0  0  0  0  0  0  0  0  0
   56.3170   28.9580   45.1920 C   0  0  0  0  0  0  0  0  0  0  0  0
   55.5190   27.8220   45.2460 O   0  0  0  0  0  0  0  0  0  0  0  0
   56.0230   30.1130   44.5040 C   0  0  0  0  0  0  0  0  0  0  0  0
   56.9990   30.9760   44.6840 O   0  0  0  0  0  0  0  0  0  0  0  0
   57.9130   30.4300   45.4600 C   0  0  0  0  0  0  0  0  0  0  0  0
   59.1320   31.0910   45.8300 N   0  0  0  0  0  0  0  0  0  0  0  0
   59.2860   32.5210   45.7700 C   0  0  0  0  0  0  0  0  0  0  0  0
   58.4670   33.2830   44.9160 C   0  0  0  0  0  0  0  0  0  0  0  0
   58.5840   34.6730   44.8740 C   0  0  0  0  0  0  0  0  0  0  0  0
   59.5090   35.3230   45.6910 C   0  0  0  0  0  0  0  0  0  0  0  0
   60.3210   34.5840   46.5530 C   0  0  0  0  0  0  0  0  0  0  0  0
   60.2240   33.1820   46.6000 C   0  0  0  0  0  0  0  0  0  0  0  0
   61.1140   32.4120   47.5370 C   0  0  0  0  0  0  0  0  0  0  0  0
   61.1053   29.6198   45.1750 H   0  0  0  0  0  0  0  0  0  0  0  0
   61.6414   28.1911   44.2273 H   0  0  0  0  0  0  0  0  0  0  0  0
   59.9103   28.6708   44.2273 H   0  0  0  0  0  0  0  0  0  0  0  0
   60.2226   26.7347   45.6984 H   0  0  0  0  0  0  0  0  0  0  0  0
   61.5194   27.6075   46.6014 H   0  0  0  0  0  0  0  0  0  0  0  0
   55.1190   30.2862   43.9017 H   0  0  0  0  0  0  0  0  0  0  0  0
   59.9670   30.5080   46.0540 H   0  0  0  0  0  0  0  0  0  0  0  0
   57.7282   32.7785   44.2760 H   0  0  0  0  0  0  0  0  0  0  0  0
   57.9454   35.2573   44.1952 H   0  0  0  0  0  0  0  0  0  0  0  0
   59.5987   36.4188   45.6560 H   0  0  0  0  0  0  0  0  0  0  0  0
   61.0428   35.1028   47.2010 H   0  0  0  0  0  0  0  0  0  0  0  0
   60.8424   32.6470   48.5767 H   0  0  0  0  0  0  0  0  0  0  0  0
   60.9875   31.3338   47.3597 H   0  0  0  0  0  0  0  0  0  0  0  0
   62.1628   32.6922   47.3597 H   0  0  0  0  0  0  0  0  0  0  0  0
  1  2  1  0
  2  3  1  0
  3  4  1  0
  4  5  2  0
  4  6  1  0
  6  7  1  0
  7  8  1  0
  7  9  2  0
  9 10  1  0
 10 11  1  0
 11 12  1  0
 12 13  1  0
 13 14  2  0
 14 15  1  0
 15 16  2  0
 16 17  1  0
 17 18  2  0
 18 19  1  0
 11  6  2  0
 18 13  1  0
  1 20  1  0
  1 21  1  0
  1 22  1  0
  2 23  1  0
  2 24  1  0
  9 25  1  0
 12 26  1  0
 14 27  1  0
 15 28  1  0
 16 29  1  0
 17 30  1  0
 19 31  1  0
 19 32  1  0
 19 33  1  0
M  CHG  1   8  -1
M  END
>  <UniqueID>  (13) 
11

>  <SMILES>  (13) 
CCOC(=O)c1c([O-])coc1Nc1ccccc1C

>  <Energy>  (13) 
62.578079331649676

>  <Genealogy>  (13) 
CCOC(=O)c1c([O-])coc1Nc1ccccc1C (protonated)
CCOC(=O)c1c([O-])coc1Nc1ccccc1C (3D coordinates assigned)
CCOC(=O)c1c([O-])coc1Nc1ccccc1C (optimized conformer: 62.578079331649676 kcal/mol)

>  <smiles>  (13) 
CCOC(=O)c1c(O)coc1Nc1ccccc1C

>  <score_type>  (13) 
oracle

>  <origin>  (13) 
adg

>  <m_score__min__energy>  (13) 
-9.4800000000000004

>  <m_primary>  (13) 
energy

$$$$
13:0
     RDKit          3D

 34 35  0  0  0  0  0  0  0  0999 V2000
   52.2630   24.1470   44.8630 C   0  0  0  0  0  0  0  0  0  0  0  0
   53.7400   24.1710   45.2380 C   0  0  0  0  0  0  0  0  0  0  0  0
   54.1500   25.5160   45.6280 N   0  0  0  0  0  0  0  0  0  0  0  0
   55.4820   25.8560   46.0230 C   0  0  0  0  0  0  0  0  0  0  0  0
   56.1650   25.0520   46.7140 O   0  0  0  0  0  0  0  0  0  0  0  0
   56.0350   27.1130   45.6210 N   0  0  0  0  0  0  0  0  0  0  0  0
   57.3920   27.5080   45.9990 C   0  0  0  0  0  0  0  0  0  0  0  0
   58.1980   27.9350   44.7690 C   0  0  0  0  0  0  0  0  0  0  0  0
   57.9480   29.3780   44.4520 C   0  0  0  0  0  0  0  0  0  0  0  0
   57.1270   29.7950   43.4080 C   0  0  0  0  0  0  0  0  0  0  0  0
   57.0720   31.4740   43.4410 S   0  0  0  0  0  0  0  0  0  0  0  0
   58.0840   31.6000   44.7830 C   0  0  0  0  0  0  0  0  0  0  0  0
   58.5100   32.8520   45.4350 C   0  0  0  0  0  0  0  0  0  0  0  0
   58.9010   33.9750   44.6870 C   0  0  0  0  0  0  0  0  0  0  0  0
   59.2970   35.1380   45.3520 C   0  0  0  0  0  0  0  0  0  0  0  0
   59.3010   35.1750   46.7460 C   0  0  0  0  0  0  0  0  0  0  0  0
   58.9080   34.0420   47.4600 C   0  0  0  0  0  0  0  0  0  0  0  0
   58.5250   32.9180   46.7960 N   0  0  0  0  0  0  0  0  0  0  0  0
   58.4680   30.3780   45.2150 N   0  0  0  0  0  0  0  0  0  0  0  0
   51.6525   24.1371   45.7780 H   0  0  0  0  0  0  0  0  0  0  0  0
   52.0206   25.0413   44.2702 H   0  0  0  0  0  0  0  0  0  0  0  0
   52.0498   23.2453   44.2702 H   0  0  0  0  0  0  0  0  0  0  0  0
   53.9104   23.4831   46.0793 H   0  0  0  0  0  0  0  0  0  0  0  0
   54.3322   23.8593   44.3650 H   0  0  0  0  0  0  0  0  0  0  0  0
   55.4420   27.7540   45.0450 H   0  0  0  0  0  0  0  0  0  0  0  0
   57.3388   28.3498   46.7051 H   0  0  0  0  0  0  0  0  0  0  0  0
   57.8921   26.6467   46.4660 H   0  0  0  0  0  0  0  0  0  0  0  0
   59.2696   27.7890   44.9700 H   0  0  0  0  0  0  0  0  0  0  0  0
   57.8862   27.3231   43.9097 H   0  0  0  0  0  0  0  0  0  0  0  0
   56.6077   29.1427   42.6905 H   0  0  0  0  0  0  0  0  0  0  0  0
   58.8954   33.9389   43.5876 H   0  0  0  0  0  0  0  0  0  0  0  0
   59.6053   36.0235   44.7767 H   0  0  0  0  0  0  0  0  0  0  0  0
   59.6105   36.0872   47.2771 H   0  0  0  0  0  0  0  0  0  0  0  0
   58.9079   34.0578   48.5599 H   0  0  0  0  0  0  0  0  0  0  0  0
  1  2  1  0
  2  3  1  0
  3  4  1  0
  4  5  2  0
  4  6  1  0
  6  7  1  0
  7  8  1  0
  8  9  1  0
  9 10  2  0
 10 11  1  0
 11 12  1  0
 12 13  1  0
 13 14  2  0
 14 15  1  0
 15 16  2  0
 16 17  1  0
 17 18  2  0
 12 19  2  0
 19  9  1  0
 18 13  1  0
  1 20  1  0
  1 21  1  0
  1 22  1  0
  2 23  1  0
  2 24  1  0
  6 25  1  0
  7 26  1  0
  7 27  1  0
  8 28  1  0
  8 29  1  0
 10 30  1  0
 14 31  1  0
 15 32  1  0
 16 33  1  0
 17 34  1  0
M  CHG  1   3  -1
M  END
>  <UniqueID>  (14) 
12

>  <SMILES>  (14) 
CC[N-]C(=O)NCCc1csc(-c2ccccn2)n1

>  <Energy>  (14) 
53.77920986573472

>  <Genealogy>  (14) 
CC[N-]C(=O)NCCc1csc(-c2ccccn2)n1 (protonated)
CC[N-]C(=O)NCCc1csc(-c2ccccn2)n1 (3D coordinates assigned)
CC[N-]C(=O)NCCc1csc(-c2ccccn2)n1 (optimized conformer: 53.77920986573472 kcal/mol)

>  <smiles>  (14) 
CCNC(=O)NCCc1csc(-c2ccccn2)n1

>  <score_type>  (14) 
oracle

>  <origin>  (14) 
adg

>  <m_score__min__energy>  (14) 
-9.0700000000000003

>  <m_primary>  (14) 
energy

$$$$
14:0
     RDKit          3D

 43 45  0  0  1  0  0  0  0  0999 V2000
   57.4270   32.3030   41.4830 C   0  0  0  0  0  0  0  0  0  0  0  0
   57.4710   31.7640   42.8690 C   0  0  0  0  0  0  0  0  0  0  0  0
   56.6710   30.7070   43.2140 C   0  0  0  0  0  0  0  0  0  0  0  0
   56.7260   30.2160   44.5140 C   0  0  0  0  0  0  0  0  0  0  0  0
   55.9750   29.2200   44.8510 N   0  0  0  0  0  0  0  0  0  0  0  0
   56.6400   28.0290   45.2750 C   0  0  0  0  0  0  0  0  0  0  0  0
   57.9950   27.9450   44.9620 C   0  0  0  0  0  0  0  0  0  0  0  0
   58.7350   26.8360   45.3250 C   0  0  0  0  0  0  0  0  0  0  0  0
   58.0690   25.8340   46.0030 C   0  0  0  0  0  0  0  0  0  0  0  0
   56.7100   25.9570   46.2980 C   0  0  0  0  0  0  0  0  0  0  0  0
   56.0090   27.0440   45.9350 N   0  0  0  0  0  0  0  0  0  0  0  0
   57.5690   30.8000   45.3970 N   0  0  0  0  0  0  0  0  0  0  0  0
   58.3590   31.8370   45.0740 C   0  0  0  0  0  0  0  0  0  0  0  0
   59.2720   32.4830   45.9980 C   0  0  0  0  0  0  0  0  0  0  0  0
   60.1510   31.7250   46.7650 C   0  0  0  0  0  0  0  0  0  0  0  0
   61.0350   32.2660   47.6540 C   0  0  0  0  0  0  0  0  0  0  0  0
   61.0880   33.6320   47.8250 C   0  0  0  0  0  0  0  0  0  0  0  0
   62.0490   34.2330   48.7920 C   0  0  0  0  0  0  0  0  0  0  0  0
   63.4770   33.8150   48.5170 C   0  0  0  0  0  0  0  0  0  0  0  0
   61.7200   33.8840   50.2100 C   0  0  0  0  0  0  0  0  0  0  0  0
   60.2180   34.3900   47.0670 C   0  0  0  0  0  0  0  0  0  0  0  0
   59.3260   33.8410   46.1710 C   0  0  0  0  0  0  0  0  0  0  0  0
   58.2780   32.2850   43.8060 N   0  0  0  0  0  0  0  0  0  0  0  0
   57.3375   33.3988   41.5184 H   0  0  0  0  0  0  0  0  0  0  0  0
   58.3506   32.0274   40.9529 H   0  0  0  0  0  0  0  0  0  0  0  0
   56.5603   31.8813   40.9529 H   0  0  0  0  0  0  0  0  0  0  0  0
   55.9953   30.2534   42.4740 H   0  0  0  0  0  0  0  0  0  0  0  0
   58.4807   28.7700   44.4203 H   0  0  0  0  0  0  0  0  0  0  0  0
   59.8054   26.7550   45.0850 H   0  0  0  0  0  0  0  0  0  0  0  0
   58.6144   24.9306   46.3135 H   0  0  0  0  0  0  0  0  0  0  0  0
   56.2018   25.1457   46.8398 H   0  0  0  0  0  0  0  0  0  0  0  0
   57.5920   30.4150   46.3660 H   0  0  0  0  0  0  0  0  0  0  0  0
   60.1329   30.6313   46.6491 H   0  0  0  0  0  0  0  0  0  0  0  0
   61.7039   31.6121   48.2328 H   0  0  0  0  0  0  0  0  0  0  0  0
   61.9550   35.3202   48.6532 H   0  0  0  0  0  0  0  0  0  0  0  0
   64.0039   33.6608   49.4702 H   0  0  0  0  0  0  0  0  0  0  0  0
   63.4803   32.8782   47.9404 H   0  0  0  0  0  0  0  0  0  0  0  0
   63.9849   34.6022   47.9404 H   0  0  0  0  0  0  0  0  0  0  0  0
   62.3133   34.5134   50.8896 H   0  0  0  0  0  0  0  0  0  0  0  0
   60.6489   34.0572   50.3912 H   0  0  0  0  0  0  0  0  0  0  0  0
   61.9560   32.8250   50.3912 H   0  0  0  0  0  0  0  0  0  0  0  0
   60.2376   35.4836   47.1836 H   0  0  0  0  0  0  0  0  0  0  0  0
   58.6559   34.4948   45.5935 H   0  0  0  0  0  0  0  0  0  0  0  0
  1  2  1  0
  2  3  2  0
  3  4  1  0
  4  5  2  0
  5  6  1  0
  6  7  2  0
  7  8  1  0
  8  9  2  0
  9 10  1  0
 10 11  2  0
  4 12  1  0
 12 13  1  0
 13 14  1  0
 14 15  2  0
 15 16  1  0
 16 17  2  0
 17 18  1  0
 18 19  1  0
 18 20  1  0
 17 21  1  0
 21 22  2  0
 13 23  2  0
 23  2  1  0
 11  6  1  0
 22 14  1  0
  1 24  1  0
  1 25  1  0
  1 26  1  0
  3 27  1  0
  7 28  1  0
  8 29  1  0
  9 30  1  0
 10 31  1  0
 12 32  1  0
 15 33  1  0
 16 34  1  0
 18 35  1  0
 19 36  1  0
 19 37  1  0
 19 38  1  0
 20 39  1  0
 20 40  1  0
 20 41  1  0
 21 42  1  0
 22 43  1  0
M  END
>  <smiles>  (15) 
Cc1cc(=Nc2ccccn2)[nH]c(-c2ccc(C(C)C)cc2)n1

>  <score_type>  (15) 
oracle

>  <origin>  (15) 
adg

>  <m_score__min__energy>  (15) 
-7.7999999999999998

>  <m_primary>  (15) 
energy

$$$$
15:0
     RDKit          3D

 32 34  0  0  0  0  0  0  0  0999 V2000
   61.4070   30.9150   47.2200 C   0  0  0  0  0  0  0  0  0  0  0  0
   60.2110   30.9870   46.3850 N   0  0  0  0  0  0  0  0  0  0  0  0
   59.6560   30.0070   45.6270 C   0  0  0  0  0  0  0  0  0  0  0  0
   60.1560   28.8550   45.5040 O   0  0  0  0  0  0  0  0  0  0  0  0
   58.5110   30.3930   45.0070 N   0  0  0  0  0  0  0  0  0  0  0  0
   57.7020   29.6280   44.0590 C   0  0  0  0  0  0  0  0  0  0  0  0
   56.3160   29.4580   44.5940 C   0  0  0  0  0  0  0  0  0  0  0  0
   55.4880   30.4040   44.5050 O   0  0  0  0  0  0  0  0  0  0  0  0
   55.9560   28.2400   45.2480 N   0  0  0  0  0  0  0  0  0  0  0  0
   56.8850   27.1270   45.3910 C   0  0  0  0  0  0  0  0  0  0  0  0
   57.5140   27.0360   46.7680 C   0  0  0  0  0  0  0  0  0  0  0  0
   56.4000   26.0770   46.3710 C   0  0  0  0  0  0  0  0  0  0  0  0
   58.3580   31.6770   45.3940 C   0  0  0  0  0  0  0  0  0  0  0  0
   57.3720   32.5420   45.0380 N   0  0  0  0  0  0  0  0  0  0  0  0
   57.3980   33.8130   45.5450 C   0  0  0  0  0  0  0  0  0  0  0  0
   58.4300   34.2180   46.4240 C   0  0  0  0  0  0  0  0  0  0  0  0
   59.4450   33.3120   46.7790 C   0  0  0  0  0  0  0  0  0  0  0  0
   59.3740   32.0320   46.2330 C   0  0  0  0  0  0  0  0  0  0  0  0
   61.1154   30.9326   48.2805 H   0  0  0  0  0  0  0  0  0  0  0  0
   61.9493   29.9826   47.0042 H   0  0  0  0  0  0  0  0  0  0  0  0
   62.0572   31.7756   47.0042 H   0  0  0  0  0  0  0  0  0  0  0  0
   57.6594   30.1646   43.0997 H   0  0  0  0  0  0  0  0  0  0  0  0
   58.1572   28.6376   43.9111 H   0  0  0  0  0  0  0  0  0  0  0  0
   57.2692   27.1190   44.3603 H   0  0  0  0  0  0  0  0  0  0  0  0
   58.5443   26.6671   46.8792 H   0  0  0  0  0  0  0  0  0  0  0  0
   57.6770   27.7396   47.5977 H   0  0  0  0  0  0  0  0  0  0  0  0
   56.6249   25.0147   46.1954 H   0  0  0  0  0  0  0  0  0  0  0  0
   55.4236   25.7997   46.7949 H   0  0  0  0  0  0  0  0  0  0  0  0
   56.6060   32.2540   44.3900 H   0  0  0  0  0  0  0  0  0  0  0  0
   56.6087   34.5267   45.2663 H   0  0  0  0  0  0  0  0  0  0  0  0
   58.4383   35.2406   46.8293 H   0  0  0  0  0  0  0  0  0  0  0  0
   60.2601   33.6013   47.4586 H   0  0  0  0  0  0  0  0  0  0  0  0
  1  2  1  0
  2  3  1  0
  3  4  2  0
  3  5  1  0
  5  6  1  0
  6  7  1  0
  7  8  2  0
  7  9  1  0
  9 10  1  0
 10 11  1  0
 11 12  1  0
  5 13  1  0
 13 14  2  0
 14 15  1  0
 15 16  2  0
 16 17  1  0
 17 18  2  0
 18  2  1  0
 12 10  1  0
 18 13  1  0
  1 19  1  0
  1 20  1  0
  1 21  1  0
  6 22  1  0
  6 23  1  0
 10 24  1  0
 11 25  1  0
 11 26  1  0
 12 27  1  0
 12 28  1  0
 14 29  1  0
 15 30  1  0
 16 31  1  0
 17 32  1  0
M  CHG  2   9  -1  14   1
M  END
>  <UniqueID>  (16) 
13

>  <SMILES>  (16) 
Cn1c(=O)n(CC(=O)[N-]C2CC2)c2[nH+]cccc21

>  <Energy>  (16) 
336.1764070869572

>  <Genealogy>  (16) 
Cn1c(=O)n(CC(=O)[N-]C2CC2)c2[nH+]cccc21 (protonated)
Cn1c(=O)n(CC(=O)[N-]C2CC2)c2[nH+]cccc21 (3D coordinates assigned)
Cn1c(=O)n(CC(=O)[N-]C2CC2)c2[nH+]cccc21 (nonaromatic ring conformer: 336.1764070869572 kcal/mol)

>  <smiles>  (16) 
Cn1c(=O)n(CC(=O)NC2CC2)c2ncccc21

>  <score_type>  (16) 
oracle

>  <origin>  (16) 
adg

>  <m_score__min__energy>  (16) 
-6.4800000000000004

>  <m_primary>  (16) 
energy

$$$$
16:0
     RDKit          3D

 49 51  0  0  0  0  0  0  0  0999 V2000
   59.2580   29.9940   48.8700 C   0  0  0  0  0  0  0  0  0  0  0  0
   58.5390   29.7500   47.6090 N   0  0  0  0  0  0  0  0  0  0  0  0
   59.1310   30.5560   46.5280 C   0  0  0  0  0  0  0  0  0  0  0  0
   58.2990   30.4130   45.2810 C   0  0  0  0  0  0  0  0  0  0  0  0
   58.1570   31.4870   44.3750 C   0  0  0  0  0  0  0  0  0  0  0  0
   58.8790   32.6730   44.5270 O   0  0  0  0  0  0  0  0  0  0  0  0
   58.2440   33.9460   44.6870 C   0  0  0  0  0  0  0  0  0  0  0  0
   59.2720   34.9700   45.2200 C   0  0  0  0  0  0  0  0  0  0  0  0
   59.2780   35.1070   46.7560 C   0  0  0  0  0  0  0  0  0  0  0  0
   58.8780   33.7980   47.4440 C   0  0  0  0  0  0  0  0  0  0  0  0
   57.4520   33.3620   47.0490 C   0  0  0  0  0  0  0  0  0  0  0  0
   57.0390   33.8180   45.6330 C   0  0  0  0  0  0  0  0  0  0  0  0
   57.2470   31.3880   43.3180 C   0  0  0  0  0  0  0  0  0  0  0  0
   56.4930   30.2290   43.1460 C   0  0  0  0  0  0  0  0  0  0  0  0
   56.6620   29.1470   44.0100 C   0  0  0  0  0  0  0  0  0  0  0  0
   57.5970   29.2060   45.0590 C   0  0  0  0  0  0  0  0  0  0  0  0
   57.7880   27.9990   45.9820 C   0  0  1  0  0  0  0  0  0  0  0  0
   58.4090   26.8250   45.3090 N   0  0  0  0  0  0  0  0  0  0  0  0
   59.5870   26.2860   46.0060 C   0  0  0  0  0  0  0  0  0  0  0  0
   57.4630   25.7480   44.9560 C   0  0  0  0  0  0  0  0  0  0  0  0
   58.6190   28.3230   47.2510 C   0  0  0  0  0  0  0  0  0  0  0  0
   58.5958   29.7693   49.7191 H   0  0  0  0  0  0  0  0  0  0  0  0
   60.1464   29.3470   48.9166 H   0  0  0  0  0  0  0  0  0  0  0  0
   59.5691   31.0480   48.9166 H   0  0  0  0  0  0  0  0  0  0  0  0
   59.1579   31.6130   46.8315 H   0  0  0  0  0  0  0  0  0  0  0  0
   60.1543   30.2055   46.3279 H   0  0  0  0  0  0  0  0  0  0  0  0
   57.8718   34.3013   43.7148 H   0  0  0  0  0  0  0  0  0  0  0  0
   60.2749   34.6546   44.8964 H   0  0  0  0  0  0  0  0  0  0  0  0
   58.9862   35.9511   44.8128 H   0  0  0  0  0  0  0  0  0  0  0  0
   60.2895   35.3877   47.0848 H   0  0  0  0  0  0  0  0  0  0  0  0
   58.5445   35.8781   47.0340 H   0  0  0  0  0  0  0  0  0  0  0  0
   59.5866   33.0094   47.1506 H   0  0  0  0  0  0  0  0  0  0  0  0
   58.8994   33.9603   48.5317 H   0  0  0  0  0  0  0  0  0  0  0  0
   57.3995   32.2640   47.0904 H   0  0  0  0  0  0  0  0  0  0  0  0
   56.7595   33.8396   47.7577 H   0  0  0  0  0  0  0  0  0  0  0  0
   56.3374   33.0813   45.2146 H   0  0  0  0  0  0  0  0  0  0  0  0
   56.5735   34.8107   45.7214 H   0  0  0  0  0  0  0  0  0  0  0  0
   57.1258   32.2288   42.6192 H   0  0  0  0  0  0  0  0  0  0  0  0
   55.7621   30.1670   42.3263 H   0  0  0  0  0  0  0  0  0  0  0  0
   56.0579   28.2385   43.8695 H   0  0  0  0  0  0  0  0  0  0  0  0
   56.7600   27.7401   46.2757 H   0  0  0  0  0  0  0  0  0  0  0  0
   59.4338   26.3561   47.0930 H   0  0  0  0  0  0  0  0  0  0  0  0
   59.7303   25.2327   45.7231 H   0  0  0  0  0  0  0  0  0  0  0  0
   60.4777   26.8661   45.7231 H   0  0  0  0  0  0  0  0  0  0  0  0
   57.0644   25.2942   45.8753 H   0  0  0  0  0  0  0  0  0  0  0  0
   56.6351   26.1664   44.3648 H   0  0  0  0  0  0  0  0  0  0  0  0
   57.9847   24.9809   44.3648 H   0  0  0  0  0  0  0  0  0  0  0  0
   58.2358   27.7236   48.0900 H   0  0  0  0  0  0  0  0  0  0  0  0
   59.6715   28.0822   47.0407 H   0  0  0  0  0  0  0  0  0  0  0  0
  1  2  1  0
  2  3  1  0
  3  4  1  0
  4  5  2  0
  5  6  1  0
  6  7  1  0
  7  8  1  0
  8  9  1  0
  9 10  1  0
 10 11  1  0
 11 12  1  0
  5 13  1  0
 13 14  2  0
 14 15  1  0
 15 16  2  0
 16 17  1  0
 17 18  1  0
 18 19  1  0
 18 20  1  0
 17 21  1  0
 21  2  1  0
 16  4  1  0
 12  7  1  0
  1 22  1  0
  1 23  1  0
  1 24  1  0
  3 25  1  0
  3 26  1  0
  7 27  1  0
  8 28  1  0
  8 29  1  0
  9 30  1  0
  9 31  1  0
 10 32  1  0
 10 33  1  0
 11 34  1  0
 11 35  1  0
 12 36  1  0
 12 37  1  0
 13 38  1  0
 14 39  1  0
 15 40  1  0
 17 41  1  1
 19 42  1  0
 19 43  1  0
 19 44  1  0
 20 45  1  0
 20 46  1  0
 20 47  1  0
 21 48  1  0
 21 49  1  0
M  END
>  <UniqueID>  (17) 
14

>  <SMILES>  (17) 
CN1Cc2c(OC3CCCCC3)cccc2[C@@H](N(C)C)C1

>  <Energy>  (17) 
68.25622748491668

>  <Genealogy>  (17) 
CN1Cc2c(OC3CCCCC3)cccc2[C@@H](N(C)C)C1 (chirality)
CN1Cc2c(OC3CCCCC3)cccc2[C@@H](N(C)C)C1 (3D coordinates assigned)
CN1Cc2c(OC3CCCCC3)cccc2[C@@H](N(C)C)C1 (nonaromatic ring conformer: 68.25622748491668 kcal/mol)

>  <smiles>  (17) 
CN1Cc2c(OC3CCCCC3)cccc2C(N(C)C)C1

>  <score_type>  (17) 
oracle

>  <origin>  (17) 
adg

>  <m_score__min__energy>  (17) 
-7.3300000000000001

>  <m_primary>  (17) 
energy

$$$$
17:0
     RDKit          3D

 61 63  0  0  0  0  0  0  0  0999 V2000
   60.1930   34.1410   50.2080 C   0  0  0  0  0  0  0  0  0  0  0  0
   60.4400   34.5960   48.7750 C   0  0  0  0  0  0  0  0  0  0  0  0
   59.2140   34.6690   48.0470 O   0  0  0  0  0  0  0  0  0  0  0  0
   58.7590   33.7460   47.0910 C   0  0  0  0  0  0  0  0  0  0  0  0
   58.3560   34.1610   45.8060 C   0  0  0  0  0  0  0  0  0  0  0  0
   57.8660   33.2410   44.8800 C   0  0  0  0  0  0  0  0  0  0  0  0
   57.7600   31.8910   45.2180 C   0  0  0  0  0  0  0  0  0  0  0  0
   57.0840   30.7370   44.0640 S   0  0  0  0  0  0  0  0  0  0  0  0
   55.6830   30.3860   44.4820 O   0  0  0  0  0  0  0  0  0  0  0  0
   57.0180   31.3780   42.7060 O   0  0  0  0  0  0  0  0  0  0  0  0
   58.0430   29.2750   43.9750 N   0  0  0  0  0  0  0  0  0  0  0  0
   57.3610   28.1340   44.6410 C   0  0  0  0  0  0  0  0  0  0  0  0
   57.9070   27.8590   46.0550 C   0  0  0  0  0  0  0  0  0  0  0  0
   59.3730   27.6070   46.0630 N   0  0  0  0  0  0  0  0  0  0  0  0
   59.6960   26.1690   46.1800 C   0  0  0  0  0  0  0  0  0  0  0  0
   58.4350   25.3600   46.4770 C   0  0  0  0  0  0  0  0  0  0  0  0
   60.0830   28.2170   44.9150 C   0  0  0  0  0  0  0  0  0  0  0  0
   59.4120   29.5240   44.4830 C   0  0  0  0  0  0  0  0  0  0  0  0
   58.1820   31.4620   46.4800 C   0  0  0  0  0  0  0  0  0  0  0  0
   58.6960   32.3690   47.4220 C   0  0  0  0  0  0  0  0  0  0  0  0
   59.1110   31.8480   48.7040 N   0  0  0  0  0  0  0  0  0  0  0  0
   59.8760   30.6070   48.9270 C   0  0  0  0  0  0  0  0  0  0  0  0
   60.6870   30.2370   47.6670 C   0  0  0  0  0  0  0  0  0  0  0  0
   61.7980   31.2610   47.3470 C   0  0  0  0  0  0  0  0  0  0  0  0
   62.3490   31.9780   48.5940 C   0  0  0  0  0  0  0  0  0  0  0  0
   62.2650   31.0850   49.8330 C   0  0  0  0  0  0  0  0  0  0  0  0
   60.8050   30.7230   50.1710 C   0  0  0  0  0  0  0  0  0  0  0  0
   60.5989   34.8887   50.9052 H   0  0  0  0  0  0  0  0  0  0  0  0
   59.1115   34.0314   50.3767 H   0  0  0  0  0  0  0  0  0  0  0  0
   60.6902   33.1744   50.3767 H   0  0  0  0  0  0  0  0  0  0  0  0
   60.9110   35.5900   48.7885 H   0  0  0  0  0  0  0  0  0  0  0  0
   61.0993   33.8661   48.2824 H   0  0  0  0  0  0  0  0  0  0  0  0
   58.4289   35.2234   45.5302 H   0  0  0  0  0  0  0  0  0  0  0  0
   57.5617   33.5805   43.8789 H   0  0  0  0  0  0  0  0  0  0  0  0
   58.1220   29.0420   42.9560 H   0  0  0  0  0  0  0  0  0  0  0  0
   56.2873   28.3610   44.7162 H   0  0  0  0  0  0  0  0  0  0  0  0
   57.5450   27.2359   44.0331 H   0  0  0  0  0  0  0  0  0  0  0  0
   57.6961   28.7320   46.6901 H   0  0  0  0  0  0  0  0  0  0  0  0
   57.4111   26.9529   46.4333 H   0  0  0  0  0  0  0  0  0  0  0  0
   60.1365   25.8189   45.2348 H   0  0  0  0  0  0  0  0  0  0  0  0
   60.4100   26.0307   47.0053 H   0  0  0  0  0  0  0  0  0  0  0  0
   58.3020   25.2747   47.5656 H   0  0  0  0  0  0  0  0  0  0  0  0
   57.5624   25.8673   46.0397 H   0  0  0  0  0  0  0  0  0  0  0  0
   58.5324   24.3554   46.0397 H   0  0  0  0  0  0  0  0  0  0  0  0
   61.1230   28.4262   45.2058 H   0  0  0  0  0  0  0  0  0  0  0  0
   60.0518   27.5126   44.0707 H   0  0  0  0  0  0  0  0  0  0  0  0
   59.3573   30.2029   45.3468 H   0  0  0  0  0  0  0  0  0  0  0  0
   60.0088   29.9744   43.6762 H   0  0  0  0  0  0  0  0  0  0  0  0
   58.1103   30.3956   46.7400 H   0  0  0  0  0  0  0  0  0  0  0  0
   58.7520   32.3540   49.5450 H   0  0  0  0  0  0  0  0  0  0  0  0
   59.1560   29.8001   49.1281 H   0  0  0  0  0  0  0  0  0  0  0  0
   61.1516   29.2525   47.8249 H   0  0  0  0  0  0  0  0  0  0  0  0
   59.9902   30.2282   46.8159 H   0  0  0  0  0  0  0  0  0  0  0  0
   62.6273   30.7326   46.8541 H   0  0  0  0  0  0  0  0  0  0  0  0
   61.3522   32.0315   46.7008 H   0  0  0  0  0  0  0  0  0  0  0  0
   63.4009   32.2467   48.4170 H   0  0  0  0  0  0  0  0  0  0  0  0
   61.7416   32.8774   48.7733 H   0  0  0  0  0  0  0  0  0  0  0  0
   62.8284   30.1591   49.6451 H   0  0  0  0  0  0  0  0  0  0  0  0
   62.6899   31.6361   50.6849 H   0  0  0  0  0  0  0  0  0  0  0  0
   60.8012   29.7567   50.6966 H   0  0  0  0  0  0  0  0  0  0  0  0
   60.4089   31.5430   50.7881 H   0  0  0  0  0  0  0  0  0  0  0  0
  1  2  1  0
  2  3  1  0
  3  4  1  0
  4  5  2  0
  5  6  1  0
  6  7  2  0
  7  8  1  0
  8  9  2  0
  8 10  2  0
  8 11  1  0
 11 12  1  0
 12 13  1  0
 13 14  1  0
 14 15  1  0
 15 16  1  0
 14 17  1  0
 17 18  1  0
  7 19  1  0
 19 20  2  0
 20 21  1  0
 21 22  1  0
 22 23  1  0
 23 24  1  0
 24 25  1  0
 25 26  1  0
 26 27  1  0
 20  4  1  0
 27 22  1  0
 18 11  1  0
  1 28  1  0
  1 29  1  0
  1 30  1  0
  2 31  1  0
  2 32  1  0
  5 33  1  0
  6 34  1  0
 11 35  1  0
 12 36  1  0
 12 37  1  0
 13 38  1  0
 13 39  1  0
 15 40  1  0
 15 41  1  0
 16 42  1  0
 16 43  1  0
 16 44  1  0
 17 45  1  0
 17 46  1  0
 18 47  1  0
 18 48  1  0
 19 49  1  0
 21 50  1  0
 22 51  1  0
 23 52  1  0
 23 53  1  0
 24 54  1  0
 24 55  1  0
 25 56  1  0
 25 57  1  0
 26 58  1  0
 26 59  1  0
 27 60  1  0
 27 61  1  0
M  CHG  1  11   1
M  END
>  <UniqueID>  (18) 
15

>  <SMILES>  (18) 
CCOc1ccc(S(=O)(=O)[NH+]2CCN(CC)CC2)cc1NC1CCCCC1

>  <Energy>  (18) 
72.75826373028224

>  <Genealogy>  (18) 
CCOc1ccc(S(=O)(=O)[NH+]2CCN(CC)CC2)cc1NC1CCCCC1 (protonated)
CCOc1ccc(S(=O)(=O)[NH+]2CCN(CC)CC2)cc1NC1CCCCC1 (3D coordinates assigned)
CCOc1ccc(S(=O)(=O)[NH+]2CCN(CC)CC2)cc1NC1CCCCC1 (nonaromatic ring conformer: 72.75826373028224 kcal/mol)

>  <smiles>  (18) 
CCOc1ccc(S(=O)(=O)N2CCN(CC)CC2)cc1NC1CCCCC1

>  <score_type>  (18) 
oracle

>  <origin>  (18) 
adg

>  <m_score__min__energy>  (18) 
-6.79

>  <m_primary>  (18) 
energy

$$$$
19:0
     RDKit          3D

 38 40  0  0  1  0  0  0  0  0999 V2000
   55.9960   25.7390   45.9640 C   0  0  0  0  0  0  0  0  0  0  0  0
   55.7210   27.0730   45.6440 O   0  0  0  0  0  0  0  0  0  0  0  0
   56.6400   28.0220   45.2630 C   0  0  0  0  0  0  0  0  0  0  0  0
   57.9790   27.7460   45.0230 C   0  0  0  0  0  0  0  0  0  0  0  0
   58.8760   28.7240   44.6410 C   0  0  0  0  0  0  0  0  0  0  0  0
   61.1470   32.4210   47.8310 C   0  0  0  0  0  0  0  0  0  0  0  0
   60.3660   33.3640   48.4840 C   0  0  0  0  0  0  0  0  0  0  0  0
   58.9840   33.3800   48.1420 N   0  0  0  0  0  0  0  0  0  0  0  0
   58.5870   33.4390   46.9150 C   0  0  0  0  0  0  0  0  0  0  0  0
   57.8130   33.6520   44.3540 N   0  0  0  0  0  0  0  0  0  0  0  0
   58.5970   34.6400   44.8710 C   0  0  0  0  0  0  0  0  0  0  0  0
   59.0030   34.5430   46.1890 C   0  0  0  0  0  0  0  0  0  0  0  0
   57.4320   32.5950   45.0960 C   0  0  0  0  0  0  0  0  0  0  0  0
   56.6810   31.6720   44.5610 N   0  0  0  0  0  0  0  0  0  0  0  0
   57.0690   30.3120   44.7340 C   0  0  0  0  0  0  0  0  0  0  0  0
   58.4080   30.0070   44.5000 C   0  0  0  0  0  0  0  0  0  0  0  0
   62.2790   34.1240   49.6690 C   0  0  0  0  0  0  0  0  0  0  0  0
   63.0840   33.1850   49.0240 C   0  0  0  0  0  0  0  0  0  0  0  0
   64.8130   33.0840   49.3790 Cl  0  0  0  0  0  0  0  0  0  0  0  0
   62.4990   32.3260   48.0940 C   0  0  0  0  0  0  0  0  0  0  0  0
   60.9240   34.2240   49.4090 C   0  0  0  0  0  0  0  0  0  0  0  0
   57.8130   32.4690   46.3930 N   0  0  0  0  0  0  0  0  0  0  0  0
   56.1830   29.3230   45.1150 C   0  0  0  0  0  0  0  0  0  0  0  0
   56.0202   25.6217   47.0575 H   0  0  0  0  0  0  0  0  0  0  0  0
   55.2124   25.0919   45.5431 H   0  0  0  0  0  0  0  0  0  0  0  0
   56.9717   25.4546   45.5431 H   0  0  0  0  0  0  0  0  0  0  0  0
   58.3379   26.7129   45.1411 H   0  0  0  0  0  0  0  0  0  0  0  0
   59.9330   28.4825   44.4554 H   0  0  0  0  0  0  0  0  0  0  0  0
   60.6851   31.7436   47.0977 H   0  0  0  0  0  0  0  0  0  0  0  0
   57.5420   33.7850   43.3570 H   0  0  0  0  0  0  0  0  0  0  0  0
   58.9005   35.4972   44.2520 H   0  0  0  0  0  0  0  0  0  0  0  0
   59.6360   35.3176   46.6465 H   0  0  0  0  0  0  0  0  0  0  0  0
   59.1008   30.8062   44.1977 H   0  0  0  0  0  0  0  0  0  0  0  0
   62.7341   34.8036   50.4045 H   0  0  0  0  0  0  0  0  0  0  0  0
   63.1120   31.5762   47.5724 H   0  0  0  0  0  0  0  0  0  0  0  0
   60.3053   34.9714   49.9272 H   0  0  0  0  0  0  0  0  0  0  0  0
   57.5240   31.6540   46.9780 H   0  0  0  0  0  0  0  0  0  0  0  0
   55.1258   29.5649   45.2991 H   0  0  0  0  0  0  0  0  0  0  0  0
  1  2  1  0
  2  3  1  0
  3  4  2  0
  4  5  1  0
  5  6  2  0
  6  7  1  0
  7  8  1  0
  8  9  2  0
  9 10  1  0
 10 11  1  0
 11 12  2  0
 12 13  1  0
 13 14  2  0
 14 15  1  0
 15 16  2  0
 16 17  1  0
 17 18  2  0
 18 19  1  0
 18 20  1  0
 20 21  2  0
 13 22  1  0
  7 23  2  0
 23  3  1  0
 22  9  1  0
 21 15  1  0
  1 24  1  0
  1 25  1  0
  1 26  1  0
  4 27  1  0
  5 28  1  0
  6 29  1  0
 10 30  1  0
 11 31  1  0
 12 32  1  0
 16 33  1  0
 17 34  1  0
 20 35  1  0
 21 36  1  0
 22 37  1  0
 23 38  1  0
M  END
>  <smiles>  (19) 
COc1cccc(N=c2[nH]ccc(=Nc3ccc(Cl)cc3)[nH]2)c1

>  <score_type>  (19) 
oracle

>  <origin>  (19) 
adg

>  <m_score__min__energy>  (19) 
-8.25

>  <m_primary>  (19) 
energy

$$$$
20:0
     RDKit          3D

 35 37  0  0  0  0  0  0  0  0999 V2000
   55.1290   29.3460   44.6130 O   0  0  0  0  0  0  0  0  0  0  0  0
   56.3240   29.6580   44.8630 C   0  0  0  0  0  0  0  0  0  0  0  0
   56.6850   31.0450   44.8780 N   0  0  0  0  0  0  0  0  0  0  0  0
   57.8260   31.6120   45.5390 C   0  0  0  0  0  0  0  0  0  0  0  0
   58.3190   32.8440   45.1010 C   0  0  0  0  0  0  0  0  0  0  0  0
   59.4200   33.4320   45.7320 C   0  0  0  0  0  0  0  0  0  0  0  0
   60.0350   32.7980   46.8240 C   0  0  0  0  0  0  0  0  0  0  0  0
   61.1670   33.4080   47.4730 N   0  0  0  0  0  0  0  0  0  0  0  0
   62.4380   33.5610   46.7580 C   0  0  0  0  0  0  0  0  0  0  0  0
   63.5950   33.5680   47.7620 C   0  0  0  0  0  0  0  0  0  0  0  0
   63.3750   34.5270   48.7790 O   0  0  0  0  0  0  0  0  0  0  0  0
   62.2410   34.1630   49.5430 C   0  0  0  0  0  0  0  0  0  0  0  0
   60.9710   34.2060   48.6870 C   0  0  0  0  0  0  0  0  0  0  0  0
   59.5190   31.5730   47.2820 C   0  0  0  0  0  0  0  0  0  0  0  0
   58.4190   30.9870   46.6500 C   0  0  0  0  0  0  0  0  0  0  0  0
   57.3160   28.5880   45.0720 C   0  0  0  0  0  0  0  0  0  0  0  0
   58.5910   28.5170   44.5200 C   0  0  0  0  0  0  0  0  0  0  0  0
   59.2840   27.3540   44.8770 C   0  0  0  0  0  0  0  0  0  0  0  0
   58.5600   26.5010   45.6980 C   0  0  0  0  0  0  0  0  0  0  0  0
   57.0540   27.1930   45.9770 S   0  0  0  0  0  0  0  0  0  0  0  0
   57.8378   33.3549   44.2540 H   0  0  0  0  0  0  0  0  0  0  0  0
   59.8065   34.3965   45.3710 H   0  0  0  0  0  0  0  0  0  0  0  0
   62.5668   32.7232   46.0569 H   0  0  0  0  0  0  0  0  0  0  0  0
   62.4319   34.5096   46.2011 H   0  0  0  0  0  0  0  0  0  0  0  0
   63.6811   32.5713   48.2193 H   0  0  0  0  0  0  0  0  0  0  0  0
   64.5216   33.8273   47.2288 H   0  0  0  0  0  0  0  0  0  0  0  0
   62.3799   33.1431   49.9310 H   0  0  0  0  0  0  0  0  0  0  0  0
   62.1311   34.8769   50.3726 H   0  0  0  0  0  0  0  0  0  0  0  0
   60.1280   33.7956   49.2623 H   0  0  0  0  0  0  0  0  0  0  0  0
   60.7548   35.2477   48.4076 H   0  0  0  0  0  0  0  0  0  0  0  0
   59.9844   31.0723   48.1438 H   0  0  0  0  0  0  0  0  0  0  0  0
   58.0159   30.0339   47.0229 H   0  0  0  0  0  0  0  0  0  0  0  0
   59.0125   29.2965   43.8683 H   0  0  0  0  0  0  0  0  0  0  0  0
   60.3076   27.1365   44.5381 H   0  0  0  0  0  0  0  0  0  0  0  0
   58.9112   25.5381   46.0973 H   0  0  0  0  0  0  0  0  0  0  0  0
  1  2  2  0
  2  3  1  0
  3  4  1  0
  4  5  2  0
  5  6  1  0
  6  7  2  0
  7  8  1  0
  8  9  1  0
  9 10  1  0
 10 11  1  0
 11 12  1  0
 12 13  1  0
  7 14  1  0
 14 15  2  0
  2 16  1  0
 16 17  2  0
 17 18  1  0
 18 19  2  0
 19 20  1  0
 15  4  1  0
 20 16  1  0
 13  8  1  0
  5 21  1  0
  6 22  1  0
  9 23  1  0
  9 24  1  0
 10 25  1  0
 10 26  1  0
 12 27  1  0
 12 28  1  0
 13 29  1  0
 13 30  1  0
 14 31  1  0
 15 32  1  0
 17 33  1  0
 18 34  1  0
 19 35  1  0
M  CHG  1   3  -1
M  END
>  <UniqueID>  (20) 
16

>  <SMILES>  (20) 
O=C([N-]c1ccc(N2CCOCC2)cc1)c1cccs1

>  <Energy>  (20) 
72.77067541596398

>  <Genealogy>  (20) 
O=C([N-]c1ccc(N2CCOCC2)cc1)c1cccs1 (protonated)
O=C([N-]c1ccc(N2CCOCC2)cc1)c1cccs1 (3D coordinates assigned)
O=C([N-]c1ccc(N2CCOCC2)cc1)c1cccs1 (nonaromatic ring conformer: 72.77067541596398 kcal/mol)

>  <smiles>  (20) 
O=C(Nc1ccc(N2CCOCC2)cc1)c1cccs1

>  <score_type>  (20) 
oracle

>  <origin>  (20) 
adg

>  <m_score__min__energy>  (20) 
-8.5199999999999996

>  <m_primary>  (20) 
energy

$$$$
21:0
     RDKit          3D

 43 46  0  0  0  0  0  0  0  0999 V2000
   63.9160   32.3610   49.2460 C   0  0  0  0  0  0  0  0  0  0  0  0
   62.9370   31.4550   49.7400 O   0  0  0  0  0  0  0  0  0  0  0  0
   61.9870   30.8450   48.9150 C   0  0  0  0  0  0  0  0  0  0  0  0
   61.9130   31.2090   47.5680 C   0  0  0  0  0  0  0  0  0  0  0  0
   60.9650   30.6000   46.7430 C   0  0  0  0  0  0  0  0  0  0  0  0
   60.1040   29.6240   47.2650 C   0  0  0  0  0  0  0  0  0  0  0  0
   59.0800   28.9900   46.4060 C   0  0  0  0  0  0  0  0  0  0  0  0
   58.0890   29.8050   45.8440 C   0  0  0  0  0  0  0  0  0  0  0  0
   57.0690   29.2460   45.0600 C   0  0  0  0  0  0  0  0  0  0  0  0
   56.0180   30.1130   44.4760 C   0  0  0  0  0  0  0  0  0  0  0  0
   54.8620   29.5400   43.8700 N   0  0  0  0  0  0  0  0  0  0  0  0
   56.1340   31.3690   44.5100 O   0  0  0  0  0  0  0  0  0  0  0  0
   57.0510   27.8980   44.8440 N   0  0  0  0  0  0  0  0  0  0  0  0
   58.0070   27.0700   45.3570 C   0  0  0  0  0  0  0  0  0  0  0  0
   57.9560   25.6920   45.0950 C   0  0  0  0  0  0  0  0  0  0  0  0
   58.9480   24.8340   45.5870 C   0  0  0  0  0  0  0  0  0  0  0  0
   58.8610   23.3540   45.3380 C   0  0  0  0  0  0  0  0  0  0  0  0
   57.5290   23.0090   44.8570 N   0  0  0  0  0  0  0  0  0  0  0  0
   56.4050   22.9320   45.5880 C   0  0  0  0  0  0  0  0  0  0  0  0
   55.3860   22.6570   44.7040 C   0  0  0  0  0  0  0  0  0  0  0  0
   55.9170   22.5870   43.4660 N   0  0  0  0  0  0  0  0  0  0  0  0
   57.2170   22.8120   43.5870 N   0  0  0  0  0  0  0  0  0  0  0  0
   59.9890   25.3580   46.3650 C   0  0  0  0  0  0  0  0  0  0  0  0
   60.0510   26.7260   46.6360 C   0  0  0  0  0  0  0  0  0  0  0  0
   59.0570   27.5990   46.1500 C   0  0  0  0  0  0  0  0  0  0  0  0
   60.2040   29.2970   48.6260 C   0  0  0  0  0  0  0  0  0  0  0  0
   61.1340   29.9050   49.4100 N   0  0  0  0  0  0  0  0  0  0  0  0
   64.4327   32.8392   50.0912 H   0  0  0  0  0  0  0  0  0  0  0  0
   64.6462   31.8130   48.6324 H   0  0  0  0  0  0  0  0  0  0  0  0
   63.4262   33.1314   48.6324 H   0  0  0  0  0  0  0  0  0  0  0  0
   62.5959   31.9691   47.1607 H   0  0  0  0  0  0  0  0  0  0  0  0
   60.8936   30.8860   45.6832 H   0  0  0  0  0  0  0  0  0  0  0  0
   58.1108   30.8908   46.0187 H   0  0  0  0  0  0  0  0  0  0  0  0
   54.5520   28.5720   44.1100 H   0  0  0  0  0  0  0  0  0  0  0  0
   56.2870   27.4830   44.2630 H   0  0  0  0  0  0  0  0  0  0  0  0
   57.1287   25.2817   44.4973 H   0  0  0  0  0  0  0  0  0  0  0  0
   59.6072   23.0668   44.5826 H   0  0  0  0  0  0  0  0  0  0  0  0
   59.0570   22.8167   46.2776 H   0  0  0  0  0  0  0  0  0  0  0  0
   56.3162   23.0627   46.6766 H   0  0  0  0  0  0  0  0  0  0  0  0
   54.3256   22.5187   44.9618 H   0  0  0  0  0  0  0  0  0  0  0  0
   60.7630   24.6865   46.7651 H   0  0  0  0  0  0  0  0  0  0  0  0
   60.8830   27.1261   47.2341 H   0  0  0  0  0  0  0  0  0  0  0  0
   59.5276   28.5461   49.0603 H   0  0  0  0  0  0  0  0  0  0  0  0
  1  2  1  0
  2  3  1  0
  3  4  2  0
  4  5  1  0
  5  6  2  0
  6  7  1  0
  7  8  2  0
  8  9  1  0
  9 10  1  0
 10 11  1  0
 10 12  2  0
  9 13  2  0
 13 14  1  0
 14 15  2  0
 15 16  1  0
 16 17  1  0
 17 18  1  0
 18 19  1  0
 19 20  2  0
 20 21  1  0
 21 22  2  0
 16 23  2  0
 23 24  1  0
 24 25  2  0
  6 26  1  0
 26 27  2  0
 27  3  1  0
 25  7  1  0
 25 14  1  0
 22 18  1  0
  1 28  1  0
  1 29  1  0
  1 30  1  0
  4 31  1  0
  5 32  1  0
  8 33  1  0
 11 34  1  0
 13 35  1  0
 15 36  1  0
 17 37  1  0
 17 38  1  0
 19 39  1  0
 20 40  1  0
 23 41  1  0
 24 42  1  0
 26 43  1  0
M  CHG  2  11  -1  13   1
M  END
>  <UniqueID>  (21) 
17

>  <SMILES>  (21) 
COc1ccc(-c2cc(C([NH-])=O)[nH+]c3cc(Cn4ccnn4)ccc23)cn1

>  <Energy>  (21) 
91.02181319483392

>  <Genealogy>  (21) 
COc1ccc(-c2cc(C([NH-])=O)[nH+]c3cc(Cn4ccnn4)ccc23)cn1 (protonated)
COc1ccc(-c2cc(C([NH-])=O)[nH+]c3cc(Cn4ccnn4)ccc23)cn1 (3D coordinates assigned)
COc1ccc(-c2cc(C([NH-])=O)[nH+]c3cc(Cn4ccnn4)ccc23)cn1 (optimized conformer: 91.02181319483392 kcal/mol)

>  <smiles>  (21) 
COc1ccc(-c2cc(C(N)=O)nc3cc(Cn4ccnn4)ccc23)cn1

>  <score_type>  (21) 
oracle

>  <origin>  (21) 
adg

>  <m_score__min__energy>  (21) 
-8.1600000000000001

>  <m_primary>  (21) 
energy

$$$$
22:0
     RDKit          3D

 61 64  0  0  0  0  0  0  0  0999 V2000
   60.3530   33.8800   49.9130 C   0  0  0  0  0  0  0  0  0  0  0  0
   60.6160   32.7690   48.9020 C   0  0  0  0  0  0  0  0  0  0  0  0
   61.7920   33.0890   48.0810 N   0  0  0  0  0  0  0  0  0  0  0  0
   63.0190   32.5340   48.2090 C   0  0  0  0  0  0  0  0  0  0  0  0
   63.4300   31.5980   49.3050 C   0  0  0  0  0  0  0  0  0  0  0  0
   63.8420   32.9410   47.1770 C   0  0  0  0  0  0  0  0  0  0  0  0
   63.0860   33.7680   46.3760 C   0  0  0  0  0  0  0  0  0  0  0  0
   61.8300   33.8510   46.9560 C   0  0  0  0  0  0  0  0  0  0  0  0
   60.6670   34.6500   46.3950 C   0  0  0  0  0  0  0  0  0  0  0  0
   59.4900   33.8320   45.9910 N   0  0  0  0  0  0  0  0  0  0  0  0
   58.4560   33.7370   47.0430 C   0  0  0  0  0  0  0  0  0  0  0  0
   57.3690   32.7080   46.6620 C   0  0  0  0  0  0  0  0  0  0  0  0
   57.0500   32.6860   45.2100 N   0  0  0  0  0  0  0  0  0  0  0  0
   57.5840   31.4910   44.5170 C   0  0  0  0  0  0  0  0  0  0  0  0
   58.5510   30.7350   45.3940 C   0  0  0  0  0  0  0  0  0  0  0  0
   59.6710   31.2470   45.6740 O   0  0  0  0  0  0  0  0  0  0  0  0
   58.2180   29.4210   45.8980 N   0  0  0  0  0  0  0  0  0  0  0  0
   57.2730   28.6040   45.1100 C   0  0  0  0  0  0  0  0  0  0  0  0
   57.0320   27.2140   45.7150 C   0  0  0  0  0  0  0  0  0  0  0  0
   58.3530   26.5650   46.1210 C   0  0  0  0  0  0  0  0  0  0  0  0
   59.0490   27.4370   47.1240 C   0  0  0  0  0  0  0  0  0  0  0  0
   59.7900   26.8660   48.1700 C   0  0  0  0  0  0  0  0  0  0  0  0
   60.4070   27.6810   49.1200 C   0  0  0  0  0  0  0  0  0  0  0  0
   60.2820   29.0690   49.0360 C   0  0  0  0  0  0  0  0  0  0  0  0
   59.5600   29.6480   47.9890 C   0  0  0  0  0  0  0  0  0  0  0  0
   58.9630   28.8400   46.9990 C   0  0  0  0  0  0  0  0  0  0  0  0
   57.4230   33.9430   44.5330 C   0  0  0  0  0  0  0  0  0  0  0  0
   58.9250   34.2670   44.6860 C   0  0  0  0  0  0  0  0  0  0  0  0
   60.4481   33.4781   50.9325 H   0  0  0  0  0  0  0  0  0  0  0  0
   61.0846   34.6885   49.7679 H   0  0  0  0  0  0  0  0  0  0  0  0
   59.3366   34.2748   49.7679 H   0  0  0  0  0  0  0  0  0  0  0  0
   60.7950   31.8258   49.4389 H   0  0  0  0  0  0  0  0  0  0  0  0
   59.7392   32.6705   48.2450 H   0  0  0  0  0  0  0  0  0  0  0  0
   63.2256   32.0634   50.2805 H   0  0  0  0  0  0  0  0  0  0  0  0
   62.8607   30.6607   49.2194 H   0  0  0  0  0  0  0  0  0  0  0  0
   64.5054   31.3829   49.2194 H   0  0  0  0  0  0  0  0  0  0  0  0
   64.8945   32.6598   47.0248 H   0  0  0  0  0  0  0  0  0  0  0  0
   63.4159   34.2670   45.4529 H   0  0  0  0  0  0  0  0  0  0  0  0
   60.3399   35.3655   47.1638 H   0  0  0  0  0  0  0  0  0  0  0  0
   61.0362   35.1376   45.4807 H   0  0  0  0  0  0  0  0  0  0  0  0
   59.8660   32.8640   45.8530 H   0  0  0  0  0  0  0  0  0  0  0  0
   58.9300   33.4266   47.9858 H   0  0  0  0  0  0  0  0  0  0  0  0
   57.9804   34.7224   47.1559 H   0  0  0  0  0  0  0  0  0  0  0  0
   57.7195   31.7076   46.9558 H   0  0  0  0  0  0  0  0  0  0  0  0
   56.4492   33.0018   47.1889 H   0  0  0  0  0  0  0  0  0  0  0  0
   56.7479   30.8277   44.2508 H   0  0  0  0  0  0  0  0  0  0  0  0
   58.1197   31.8230   43.6154 H   0  0  0  0  0  0  0  0  0  0  0  0
   56.3109   29.1346   45.0568 H   0  0  0  0  0  0  0  0  0  0  0  0
   57.7167   28.4568   44.1143 H   0  0  0  0  0  0  0  0  0  0  0  0
   56.3906   27.3131   46.6031 H   0  0  0  0  0  0  0  0  0  0  0  0
   56.5440   26.5799   44.9602 H   0  0  0  0  0  0  0  0  0  0  0  0
   58.1557   25.5787   46.5664 H   0  0  0  0  0  0  0  0  0  0  0  0
   58.9913   26.4444   45.2333 H   0  0  0  0  0  0  0  0  0  0  0  0
   59.8848   25.7724   48.2413 H   0  0  0  0  0  0  0  0  0  0  0  0
   60.9919   27.2298   49.9351 H   0  0  0  0  0  0  0  0  0  0  0  0
   60.7534   29.7089   49.7965 H   0  0  0  0  0  0  0  0  0  0  0  0
   59.4565   30.7419   47.9365 H   0  0  0  0  0  0  0  0  0  0  0  0
   57.1880   33.8514   43.4623 H   0  0  0  0  0  0  0  0  0  0  0  0
   56.8531   34.7593   45.0007 H   0  0  0  0  0  0  0  0  0  0  0  0
   59.4756   33.7593   43.8804 H   0  0  0  0  0  0  0  0  0  0  0  0
   59.0296   35.3608   44.6337 H   0  0  0  0  0  0  0  0  0  0  0  0
  1  2  1  0
  2  3  1  0
  3  4  1  0
  4  5  1  0
  4  6  2  0
  6  7  1  0
  7  8  2  0
  8  9  1  0
  9 10  1  0
 10 11  1  0
 11 12  1  0
 12 13  1  0
 13 14  1  0
 14 15  1  0
 15 16  2  0
 15 17  1  0
 17 18  1  0
 18 19  1  0
 19 20  1  0
 20 21  1  0
 21 22  2  0
 22 23  1  0
 23 24  2  0
 24 25  1  0
 25 26  2  0
 13 27  1  0
 27 28  1  0
  8  3  1  0
 28 10  1  0
 26 17  1  0
 26 21  1  0
  1 29  1  0
  1 30  1  0
  1 31  1  0
  2 32  1  0
  2 33  1  0
  5 34  1  0
  5 35  1  0
  5 36  1  0
  6 37  1  0
  7 38  1  0
  9 39  1  0
  9 40  1  0
 10 41  1  0
 11 42  1  0
 11 43  1  0
 12 44  1  0
 12 45  1  0
 14 46  1  0
 14 47  1  0
 18 48  1  0
 18 49  1  0
 19 50  1  0
 19 51  1  0
 20 52  1  0
 20 53  1  0
 22 54  1  0
 23 55  1  0
 24 56  1  0
 25 57  1  0
 27 58  1  0
 27 59  1  0
 28 60  1  0
 28 61  1  0
M  CHG  1  10   1
M  END
>  <UniqueID>  (22) 
18

>  <SMILES>  (22) 
CCn1c(C)ccc1C[NH+]1CCN(CC(=O)N2CCCc3ccccc32)CC1

>  <Energy>  (22) 
109.0029252712711

>  <Genealogy>  (22) 
CCn1c(C)ccc1C[NH+]1CCN(CC(=O)N2CCCc3ccccc32)CC1 (protonated)
CCn1c(C)ccc1C[NH+]1CCN(CC(=O)N2CCCc3ccccc32)CC1 (3D coordinates assigned)
CCn1c(C)ccc1C[NH+]1CCN(CC(=O)N2CCCc3ccccc32)CC1 (nonaromatic ring conformer: 109.0029252712711 kcal/mol)

>  <smiles>  (22) 
CCn1c(C)ccc1CN1CCN(CC(=O)N2CCCc3ccccc32)CC1

>  <score_type>  (22) 
oracle

>  <origin>  (22) 
adg

>  <m_score__min__energy>  (22) 
-7.0499999999999998

>  <m_primary>  (22) 
energy

$$$$
23:0
     RDKit          3D

 44 44  0  0  0  0  0  0  0  0999 V2000
   56.4810   23.6090   43.2020 C   0  0  0  0  0  0  0  0  0  0  0  0
   56.9970   23.7970   44.6300 C   0  0  0  0  0  0  0  0  0  0  0  0
   56.7710   25.2320   45.1510 C   0  0  2  0  0  0  0  0  0  0  0  0
   57.9890   25.7010   45.9760 C   0  0  0  0  0  0  0  0  0  0  0  0
   58.0760   27.2060   46.0440 C   0  0  0  0  0  0  0  0  0  0  0  0
   59.0810   27.8250   46.8000 C   0  0  0  0  0  0  0  0  0  0  0  0
   59.1440   29.2160   46.8840 C   0  0  0  0  0  0  0  0  0  0  0  0
   58.1940   30.0160   46.2210 C   0  0  0  0  0  0  0  0  0  0  0  0
   58.2190   31.4210   46.2800 O   0  0  0  0  0  0  0  0  0  0  0  0
   59.3090   32.2160   46.7460 C   0  0  0  0  0  0  0  0  0  0  0  0
   59.0710   33.6980   46.4280 C   0  0  0  0  0  0  0  0  0  0  0  0
   57.6580   33.9440   45.8980 C   0  0  0  0  0  0  0  0  0  0  0  0
   57.7100   34.2250   44.5150 O   0  0  0  0  0  0  0  0  0  0  0  0
   58.0700   33.0550   43.8150 C   0  0  0  0  0  0  0  0  0  0  0  0
   57.1820   29.4040   45.4660 C   0  0  0  0  0  0  0  0  0  0  0  0
   56.2470   30.2250   44.8160 O   0  0  0  0  0  0  0  0  0  0  0  0
   55.9010   30.1230   43.4380 C   0  0  0  0  0  0  0  0  0  0  0  0
   57.1260   27.9980   45.3820 C   0  0  0  0  0  0  0  0  0  0  0  0
   55.5060   25.3180   45.9690 C   0  0  0  0  0  0  0  0  0  0  0  0
   54.7700   26.3380   45.9050 O   0  0  0  0  0  0  0  0  0  0  0  0
   55.1390   24.2580   46.7890 O   0  0  0  0  0  0  0  0  0  0  0  0
   55.4478   23.2326   43.2320 H   0  0  0  0  0  0  0  0  0  0  0  0
   56.5046   24.5735   42.6736 H   0  0  0  0  0  0  0  0  0  0  0  0
   57.1195   22.8857   42.6736 H   0  0  0  0  0  0  0  0  0  0  0  0
   56.4705   23.0935   45.2917 H   0  0  0  0  0  0  0  0  0  0  0  0
   58.0807   23.6085   44.6235 H   0  0  0  0  0  0  0  0  0  0  0  0
   56.6573   25.8996   44.2842 H   0  0  0  0  0  0  0  0  0  0  0  0
   57.9010   25.3032   46.9978 H   0  0  0  0  0  0  0  0  0  0  0  0
   58.8990   25.3286   45.4828 H   0  0  0  0  0  0  0  0  0  0  0  0
   59.8239   27.2107   47.3298 H   0  0  0  0  0  0  0  0  0  0  0  0
   59.9422   29.6915   47.4729 H   0  0  0  0  0  0  0  0  0  0  0  0
   59.4082   32.0912   47.8344 H   0  0  0  0  0  0  0  0  0  0  0  0
   60.2290   31.8880   46.2400 H   0  0  0  0  0  0  0  0  0  0  0  0
   59.2148   34.2869   47.3459 H   0  0  0  0  0  0  0  0  0  0  0  0
   59.7864   34.0002   45.6490 H   0  0  0  0  0  0  0  0  0  0  0  0
   57.0433   33.0474   46.0660 H   0  0  0  0  0  0  0  0  0  0  0  0
   57.2147   34.8005   46.4271 H   0  0  0  0  0  0  0  0  0  0  0  0
   58.3150   32.2587   44.5333 H   0  0  0  0  0  0  0  0  0  0  0  0
   57.2295   32.7327   43.1828 H   0  0  0  0  0  0  0  0  0  0  0  0
   58.9463   33.2609   43.1828 H   0  0  0  0  0  0  0  0  0  0  0  0
   54.8496   29.8130   43.3459 H   0  0  0  0  0  0  0  0  0  0  0  0
   56.0391   31.1001   42.9520 H   0  0  0  0  0  0  0  0  0  0  0  0
   56.5471   29.3771   42.9520 H   0  0  0  0  0  0  0  0  0  0  0  0
   56.3309   27.5179   44.7926 H   0  0  0  0  0  0  0  0  0  0  0  0
  1  2  1  0
  2  3  1  0
  3  4  1  0
  4  5  1  0
  5  6  2  0
  6  7  1  0
  7  8  2  0
  8  9  1  0
  9 10  1  0
 10 11  1  0
 11 12  1  0
 12 13  1  0
 13 14  1  0
  8 15  1  0
 15 16  1  0
 16 17  1  0
 15 18  2  0
  3 19  1  0
 19 20  2  0
 19 21  1  0
 18  5  1  0
  1 22  1  0
  1 23  1  0
  1 24  1  0
  2 25  1  0
  2 26  1  0
  3 27  1  6
  4 28  1  0
  4 29  1  0
  6 30  1  0
  7 31  1  0
 10 32  1  0
 10 33  1  0
 11 34  1  0
 11 35  1  0
 12 36  1  0
 12 37  1  0
 14 38  1  0
 14 39  1  0
 14 40  1  0
 17 41  1  0
 17 42  1  0
 17 43  1  0
 18 44  1  0
M  CHG  1  21  -1
M  END
>  <UniqueID>  (23) 
19

>  <SMILES>  (23) 
CC[C@H](Cc1ccc(OCCCOC)c(OC)c1)C(=O)[O-]

>  <Energy>  (23) 
32.1490748526092

>  <Genealogy>  (23) 
CCC(Cc1ccc(OCCCOC)c(OC)c1)C(=O)[O-] (protonated)
CC[C@H](Cc1ccc(OCCCOC)c(OC)c1)C(=O)[O-] (chirality)
CC[C@H](Cc1ccc(OCCCOC)c(OC)c1)C(=O)[O-] (3D coordinates assigned)
CC[C@H](Cc1ccc(OCCCOC)c(OC)c1)C(=O)[O-] (optimized conformer: 32.1490748526092 kcal/mol)

>  <smiles>  (23) 
CCC(Cc1ccc(OCCCOC)c(OC)c1)C(=O)O

>  <score_type>  (23) 
oracle

>  <origin>  (23) 
adg

>  <m_score__min__energy>  (23) 
-9.1199999999999992

>  <m_primary>  (23) 
energy

$$$$
24:0
     RDKit          3D

 27 29  0  0  0  0  0  0  0  0999 V2000
   58.2390   28.4050   44.1320 C   0  0  0  0  0  0  0  0  0  0  0  0
   57.9660   29.8110   44.5720 C   0  0  0  0  0  0  0  0  0  0  0  0
   56.6740   30.3730   44.4140 C   0  0  0  0  0  0  0  0  0  0  0  0
   56.4030   31.6320   44.8690 N   0  0  0  0  0  0  0  0  0  0  0  0
   57.3880   32.3480   45.4650 C   0  0  0  0  0  0  0  0  0  0  0  0
   57.2540   33.5700   46.0040 N   0  0  0  0  0  0  0  0  0  0  0  0
   58.4620   33.8680   46.5330 C   0  0  0  0  0  0  0  0  0  0  0  0
   59.3660   32.8300   46.3120 C   0  0  0  0  0  0  0  0  0  0  0  0
   60.7730   32.8120   46.7550 C   0  0  0  0  0  0  0  0  0  0  0  0
   61.2970   31.7520   47.5120 C   0  0  0  0  0  0  0  0  0  0  0  0
   62.6070   31.7730   47.8800 N   0  0  0  0  0  0  0  0  0  0  0  0
   63.4230   32.7980   47.5160 C   0  0  0  0  0  0  0  0  0  0  0  0
   62.9110   33.8410   46.7440 C   0  0  0  0  0  0  0  0  0  0  0  0
   61.6040   33.8210   46.3770 N   0  0  0  0  0  0  0  0  0  0  0  0
   58.6520   31.8530   45.6340 C   0  0  0  0  0  0  0  0  0  0  0  0
   58.9710   30.5610   45.2190 C   0  0  0  0  0  0  0  0  0  0  0  0
   58.3639   27.7620   45.0157 H   0  0  0  0  0  0  0  0  0  0  0  0
   57.3951   28.0392   43.5286 H   0  0  0  0  0  0  0  0  0  0  0  0
   59.1585   28.3816   43.5286 H   0  0  0  0  0  0  0  0  0  0  0  0
   55.8826   29.7898   43.9205 H   0  0  0  0  0  0  0  0  0  0  0  0
   56.3930   34.1600   46.0280 H   0  0  0  0  0  0  0  0  0  0  0  0
   58.6990   34.8013   47.0648 H   0  0  0  0  0  0  0  0  0  0  0  0
   60.6529   30.9101   47.8057 H   0  0  0  0  0  0  0  0  0  0  0  0
   62.9950   30.9830   48.4430 H   0  0  0  0  0  0  0  0  0  0  0  0
   64.4779   32.8047   47.8276 H   0  0  0  0  0  0  0  0  0  0  0  0
   63.5610   34.6729   46.4351 H   0  0  0  0  0  0  0  0  0  0  0  0
   59.9728   30.1402   45.3902 H   0  0  0  0  0  0  0  0  0  0  0  0
  1  2  1  0
  2  3  2  0
  3  4  1  0
  4  5  2  0
  5  6  1  0
  6  7  1  0
  7  8  2  0
  8  9  1  0
  9 10  2  0
 10 11  1  0
 11 12  2  0
 12 13  1  0
 13 14  2  0
  8 15  1  0
 15 16  2  0
 16  2  1  0
 15  5  1  0
 14  9  1  0
  1 17  1  0
  1 18  1  0
  1 19  1  0
  3 20  1  0
  6 21  1  0
  7 22  1  0
 10 23  1  0
 11 24  1  0
 12 25  1  0
 13 26  1  0
 16 27  1  0
M  CHG  1  11   1
M  END
>  <UniqueID>  (24) 
20

>  <SMILES>  (24) 
Cc1cnc2[nH]cc(-c3c[nH+]ccn3)c2c1

>  <Energy>  (24) 
68.62767195117067

>  <Genealogy>  (24) 
Cc1cnc2[nH]cc(-c3c[nH+]ccn3)c2c1 (protonated)
Cc1cnc2[nH]cc(-c3c[nH+]ccn3)c2c1 (3D coordinates assigned)
Cc1cnc2[nH]cc(-c3c[nH+]ccn3)c2c1 (optimized conformer: 68.62767195117067 kcal/mol)

>  <smiles>  (24) 
Cc1cnc2[nH]cc(-c3cnccn3)c2c1

>  <score_type>  (24) 
oracle

>  <origin>  (24) 
adg

>  <m_score__min__energy>  (24) 
-4.7000000000000002

>  <m_primary>  (24) 
energy

$$$$
25:0
     RDKit          3D

 31 33  0  0  0  0  0  0  0  0999 V2000
   56.1970   30.0740   43.2400 C   0  0  0  0  0  0  0  0  0  0  0  0
   56.2770   30.4850   44.6010 O   0  0  0  0  0  0  0  0  0  0  0  0
   57.4580   30.8900   45.2420 C   0  0  0  0  0  0  0  0  0  0  0  0
   57.7890   32.2470   45.4120 C   0  0  0  0  0  0  0  0  0  0  0  0
   58.9750   32.6100   46.0540 C   0  0  0  0  0  0  0  0  0  0  0  0
   59.8620   31.6310   46.5300 C   0  0  0  0  0  0  0  0  0  0  0  0
   61.1110   32.0460   47.2150 C   0  0  0  0  0  0  0  0  0  0  0  0
   61.8950   33.1170   46.7460 C   0  0  0  0  0  0  0  0  0  0  0  0
   63.0600   33.4650   47.4310 C   0  0  0  0  0  0  0  0  0  0  0  0
   63.7640   34.4240   47.0120 O   0  0  0  0  0  0  0  0  0  0  0  0
   63.4250   32.7460   48.5790 C   0  0  0  0  0  0  0  0  0  0  0  0
   64.5860   33.0440   49.3160 C   0  0  0  0  0  0  0  0  0  0  0  0
   64.9020   32.2980   50.4560 C   0  0  0  0  0  0  0  0  0  0  0  0
   64.0680   31.2550   50.8680 C   0  0  0  0  0  0  0  0  0  0  0  0
   62.9120   30.9510   50.1430 C   0  0  0  0  0  0  0  0  0  0  0  0
   62.5860   31.6900   48.9990 C   0  0  0  0  0  0  0  0  0  0  0  0
   61.4860   31.3920   48.3140 O   0  0  0  0  0  0  0  0  0  0  0  0
   59.5220   30.2740   46.3690 C   0  0  0  0  0  0  0  0  0  0  0  0
   58.3340   29.9090   45.7270 C   0  0  0  0  0  0  0  0  0  0  0  0
   57.9150   28.0510   45.5340 Br  0  0  0  0  0  0  0  0  0  0  0  0
   55.9870   28.9952   43.1945 H   0  0  0  0  0  0  0  0  0  0  0  0
   55.3895   30.6263   42.7371 H   0  0  0  0  0  0  0  0  0  0  0  0
   57.1527   30.2831   42.7371 H   0  0  0  0  0  0  0  0  0  0  0  0
   57.1096   33.0266   45.0370 H   0  0  0  0  0  0  0  0  0  0  0  0
   59.2170   33.6746   46.1883 H   0  0  0  0  0  0  0  0  0  0  0  0
   61.5920   33.6747   45.8475 H   0  0  0  0  0  0  0  0  0  0  0  0
   65.2453   33.8640   48.9954 H   0  0  0  0  0  0  0  0  0  0  0  0
   65.8102   32.5330   51.0304 H   0  0  0  0  0  0  0  0  0  0  0  0
   64.3219   30.6716   51.7653 H   0  0  0  0  0  0  0  0  0  0  0  0
   62.2576   30.1302   50.4716 H   0  0  0  0  0  0  0  0  0  0  0  0
   60.1967   29.4940   46.7515 H   0  0  0  0  0  0  0  0  0  0  0  0
  1  2  1  0
  2  3  1  0
  3  4  2  0
  4  5  1  0
  5  6  2  0
  6  7  1  0
  7  8  2  0
  8  9  1  0
  9 10  2  0
  9 11  1  0
 11 12  2  0
 12 13  1  0
 13 14  2  0
 14 15  1  0
 15 16  2  0
 16 17  1  0
  6 18  1  0
 18 19  2  0
 19 20  1  0
 19  3  1  0
 17  7  1  0
 16 11  1  0
  1 21  1  0
  1 22  1  0
  1 23  1  0
  4 24  1  0
  5 25  1  0
  8 26  1  0
 12 27  1  0
 13 28  1  0
 14 29  1  0
 15 30  1  0
 18 31  1  0
M  END
>  <UniqueID>  (25) 
21

>  <SMILES>  (25) 
COc1ccc(-c2cc(=O)c3ccccc3o2)cc1Br

>  <Energy>  (25) 
42.18237173025983

>  <Genealogy>  (25) 
COc1ccc(-c2cc(=O)c3ccccc3o2)cc1Br (3D coordinates assigned)
COc1ccc(-c2cc(=O)c3ccccc3o2)cc1Br (optimized conformer: 42.18237173025983 kcal/mol)

>  <smiles>  (25) 
COc1ccc(-c2cc(=O)c3ccccc3o2)cc1Br

>  <score_type>  (25) 
oracle

>  <origin>  (25) 
adg

>  <m_score__min__energy>  (25) 
-6.8799999999999999

>  <m_primary>  (25) 
energy

$$$$
26:0
     RDKit          3D

 57 59  0  0  0  0  0  0  0  0999 V2000
   68.3461   31.5721   51.0428 H   0  0  0  0  0  0  0  0  0  0  0  0
   67.2950   31.8470   50.8710 C   0  0  0  0  0  0  0  0  0  0  0  0
   66.2780   30.9410   51.1780 C   0  0  0  0  0  0  0  0  0  0  0  0
   66.5292   29.9513   51.5872 H   0  0  0  0  0  0  0  0  0  0  0  0
   64.9400   31.2900   50.9660 C   0  0  0  0  0  0  0  0  0  0  0  0
   64.1422   30.5700   51.2009 H   0  0  0  0  0  0  0  0  0  0  0  0
   64.6110   32.5570   50.4540 C   0  0  0  0  0  0  0  0  0  0  0  0
   63.1940   32.9110   50.2150 C   0  0  0  0  0  0  0  0  0  0  0  0
   62.3110   33.3340   51.1980 C   0  0  0  0  0  0  0  0  0  0  0  0
   62.5135   33.4897   52.2679 H   0  0  0  0  0  0  0  0  0  0  0  0
   61.1160   33.5150   50.5220 C   0  0  0  0  0  0  0  0  0  0  0  0
   59.9710   33.8560   51.0420 N   0  0  0  0  0  0  0  0  0  0  0  0
   59.6070   33.7340   52.4520 C   0  0  0  0  0  0  0  0  0  0  0  0
   58.7006   34.3281   52.6403 H   0  0  0  0  0  0  0  0  0  0  0  0
   60.4474   34.1010   53.0595 H   0  0  0  0  0  0  0  0  0  0  0  0
   59.3330   32.2610   52.8390 C   0  0  0  0  0  0  0  0  0  0  0  0
   58.3800   32.2248   53.3872 H   0  0  0  0  0  0  0  0  0  0  0  0
   60.1969   31.9369   53.4378 H   0  0  0  0  0  0  0  0  0  0  0  0
   59.2430   31.3110   51.6950 N   0  0  0  0  0  0  0  0  0  0  0  0
   59.3810   31.8920   50.8340 H   0  0  0  0  0  0  0  0  0  0  0  0
   60.3400   30.3040   51.7420 C   0  0  0  0  0  0  0  0  0  0  0  0
   59.9482   29.3753   52.1824 H   0  0  0  0  0  0  0  0  0  0  0  0
   61.1557   30.7252   52.3481 H   0  0  0  0  0  0  0  0  0  0  0  0
   60.9060   29.9890   50.3510 C   0  0  0  0  0  0  0  0  0  0  0  0
   61.8627   29.4565   50.4564 H   0  0  0  0  0  0  0  0  0  0  0  0
   60.1937   29.3575   49.7997 H   0  0  0  0  0  0  0  0  0  0  0  0
   61.0673   30.9271   49.7997 H   0  0  0  0  0  0  0  0  0  0  0  0
   57.9190   30.6470   51.5730 C   0  0  0  0  0  0  0  0  0  0  0  0
   57.7750   30.3417   50.5261 H   0  0  0  0  0  0  0  0  0  0  0  0
   57.9191   29.7845   52.2557 H   0  0  0  0  0  0  0  0  0  0  0  0
   56.7530   31.5560   51.9820 C   0  0  0  0  0  0  0  0  0  0  0  0
   56.6924   31.6033   53.0793 H   0  0  0  0  0  0  0  0  0  0  0  0
   56.9175   32.5666   51.5800 H   0  0  0  0  0  0  0  0  0  0  0  0
   55.8130   31.1500   51.5800 H   0  0  0  0  0  0  0  0  0  0  0  0
   61.2830   33.2270   49.2140 N   0  0  0  0  0  0  0  0  0  0  0  0
   60.2460   33.2220   48.2160 C   0  0  0  0  0  0  0  0  0  0  0  0
   59.4550   32.0820   48.0240 C   0  0  0  0  0  0  0  0  0  0  0  0
   59.6399   31.1805   48.6266 H   0  0  0  0  0  0  0  0  0  0  0  0
   58.4330   32.0830   47.0720 C   0  0  0  0  0  0  0  0  0  0  0  0
   57.8222   31.1799   46.9258 H   0  0  0  0  0  0  0  0  0  0  0  0
   58.1790   33.2300   46.2990 C   0  0  0  0  0  0  0  0  0  0  0  0
   57.1260   33.2290   45.3190 N   0  0  0  0  0  0  0  0  0  0  0  0
   56.6820   34.3020   44.8580 O   0  0  0  0  0  0  0  0  0  0  0  0
   56.5910   32.0430   44.8680 O   0  0  0  0  0  0  0  0  0  0  0  0
   58.9700   34.3760   46.5030 C   0  0  0  0  0  0  0  0  0  0  0  0
   58.7823   35.2818   45.9077 H   0  0  0  0  0  0  0  0  0  0  0  0
   59.9920   34.3720   47.4560 C   0  0  0  0  0  0  0  0  0  0  0  0
   60.6000   35.2756   47.6105 H   0  0  0  0  0  0  0  0  0  0  0  0
   62.5490   32.8710   49.0220 N   0  0  0  0  0  0  0  0  0  0  0  0
   63.1440   32.5700   47.7160 C   0  0  0  0  0  0  0  0  0  0  0  0
   64.1170   32.0778   47.8610 H   0  0  0  0  0  0  0  0  0  0  0  0
   62.4753   31.9018   47.1536 H   0  0  0  0  0  0  0  0  0  0  0  0
   63.2861   33.5046   47.1536 H   0  0  0  0  0  0  0  0  0  0  0  0
   65.6430   33.4550   50.1330 C   0  0  0  0  0  0  0  0  0  0  0  0
   65.3984   34.4413   49.7118 H   0  0  0  0  0  0  0  0  0  0  0  0
   66.9790   33.1020   50.3460 C   0  0  0  0  0  0  0  0  0  0  0  0
   67.7815   33.8130   50.1000 H   0  0  0  0  0  0  0  0  0  0  0  0
  1  2  1  0
  2  3  2  0
  3  4  1  0
  3  5  1  0
  5  6  1  0
  5  7  2  0
  7  8  1  0
  8  9  2  0
  9 10  1  0
  9 11  1  0
 11 12  2  0
 12 13  1  0
 13 14  1  0
 13 15  1  0
 13 16  1  0
 16 17  1  0
 16 18  1  0
 16 19  1  0
 19 20  1  0
 19 21  1  0
 21 22  1  0
 21 23  1  0
 21 24  1  0
 24 25  1  0
 24 26  1  0
 24 27  1  0
 19 28  1  0
 28 29  1  0
 28 30  1  0
 28 31  1  0
 31 32  1  0
 31 33  1  0
 31 34  1  0
 11 35  1  0
 35 36  1  0
 36 37  2  0
 37 38  1  0
 37 39  1  0
 39 40  1  0
 39 41  2  0
 41 42  1  0
 42 43  2  0
 42 44  1  0
 41 45  1  0
 45 46  1  0
 45 47  2  0
 47 48  1  0
 35 49  1  0
 49 50  1  0
 50 51  1  0
 50 52  1  0
 50 53  1  0
  7 54  1  0
 54 55  1  0
 54 56  2  0
 56 57  1  0
 56  2  1  0
 49  8  1  0
 47 36  1  0
M  CHG  3  19   1  42   1  44  -1
M  END
>  <UniqueID>  (26) 
22

>  <SMILES>  (26) 
CC[NH+](CC)CC/N=c1\cc(-c2ccccc2)n(C)n1-c1ccc([N+](=O)[O-])cc1

>  <Energy>  (26) 
105.64347095735027

>  <Genealogy>  (26) 
CC[NH+](CC)CCN=c1cc(-c2ccccc2)n(C)n1-c1ccc([N+](=O)[O-])cc1 (protonated)
CC[NH+](CC)CC/N=c1\cc(-c2ccccc2)n(C)n1-c1ccc([N+](=O)[O-])cc1 (cis-trans isomerization)
CC[NH+](CC)CC/N=c1\cc(-c2ccccc2)n(C)n1-c1ccc([N+](=O)[O-])cc1 (3D coordinates assigned)
CC[NH+](CC)CC/N=c1\cc(-c2ccccc2)n(C)n1-c1ccc([N+](=O)[O-])cc1 (optimized conformer: 105.64347095735027 kcal/mol)

>  <smiles>  (26) 
CCN(CC)CCN=c1cc(-c2ccccc2)n(C)n1-c1ccc([N+](=O)[O-])cc1

>  <score_type>  (26) 
oracle

>  <origin>  (26) 
adg

>  <m_score__min__energy>  (26) 
-5.5999999999999996

>  <m_primary>  (26) 
energy

$$$$
27:0
     RDKit          3D

 39 41  0  0  0  0  0  0  0  0999 V2000
   64.4040   32.5090   49.1030 C   0  0  0  0  0  0  0  0  0  0  0  0
   63.7570   33.7610   48.8960 O   0  0  0  0  0  0  0  0  0  0  0  0
   62.4940   33.9120   48.3060 C   0  0  0  0  0  0  0  0  0  0  0  0
   61.3940   34.1520   49.1380 C   0  0  0  0  0  0  0  0  0  0  0  0
   60.1150   34.3100   48.5980 C   0  0  0  0  0  0  0  0  0  0  0  0
   59.9200   34.2430   47.2100 C   0  0  0  0  0  0  0  0  0  0  0  0
   58.5380   34.3680   46.6320 C   0  0  0  0  0  0  0  0  0  0  0  0
   58.1270   33.0950   46.0530 N   0  0  0  0  0  0  0  0  0  0  0  0
   58.5970   31.8780   46.3750 C   0  0  0  0  0  0  0  0  0  0  0  0
   57.8620   30.9710   45.6300 C   0  0  0  0  0  0  0  0  0  0  0  0
   57.9900   29.4880   45.6280 C   0  0  0  0  0  0  0  0  0  0  0  0
   59.2170   28.8910   45.9820 C   0  0  0  0  0  0  0  0  0  0  0  0
   59.3580   27.5030   45.9940 C   0  0  0  0  0  0  0  0  0  0  0  0
   58.2810   26.6880   45.6560 C   0  0  0  0  0  0  0  0  0  0  0  0
   57.0580   27.2570   45.3020 C   0  0  0  0  0  0  0  0  0  0  0  0
   56.8950   28.6570   45.2810 C   0  0  0  0  0  0  0  0  0  0  0  0
   55.6730   29.2430   44.9150 O   0  0  0  0  0  0  0  0  0  0  0  0
   55.3550   29.7130   43.6080 C   0  0  0  0  0  0  0  0  0  0  0  0
   56.9690   31.6690   44.8960 N   0  0  0  0  0  0  0  0  0  0  0  0
   57.1470   32.9510   45.1770 N   0  0  0  0  0  0  0  0  0  0  0  0
   61.0150   33.9880   46.3730 C   0  0  0  0  0  0  0  0  0  0  0  0
   62.2960   33.8300   46.9140 C   0  0  0  0  0  0  0  0  0  0  0  0
   64.5014   32.3206   50.1824 H   0  0  0  0  0  0  0  0  0  0  0  0
   63.8072   31.7074   48.6432 H   0  0  0  0  0  0  0  0  0  0  0  0
   65.4030   32.5321   48.6432 H   0  0  0  0  0  0  0  0  0  0  0  0
   61.5378   34.2168   50.2266 H   0  0  0  0  0  0  0  0  0  0  0  0
   59.2575   34.4876   49.2637 H   0  0  0  0  0  0  0  0  0  0  0  0
   57.8337   34.6513   47.4280 H   0  0  0  0  0  0  0  0  0  0  0  0
   58.5412   35.1392   45.8476 H   0  0  0  0  0  0  0  0  0  0  0  0
   59.4033   31.6484   47.0871 H   0  0  0  0  0  0  0  0  0  0  0  0
   60.0731   29.5268   46.2519 H   0  0  0  0  0  0  0  0  0  0  0  0
   60.3221   27.0516   46.2711 H   0  0  0  0  0  0  0  0  0  0  0  0
   58.3949   25.5940   45.6682 H   0  0  0  0  0  0  0  0  0  0  0  0
   56.2117   26.6065   45.0364 H   0  0  0  0  0  0  0  0  0  0  0  0
   54.7401   30.6218   43.6847 H   0  0  0  0  0  0  0  0  0  0  0  0
   56.2836   29.9433   43.0652 H   0  0  0  0  0  0  0  0  0  0  0  0
   54.7958   28.9367   43.0652 H   0  0  0  0  0  0  0  0  0  0  0  0
   60.8668   33.9117   45.2857 H   0  0  0  0  0  0  0  0  0  0  0  0
   63.1518   33.6410   46.2493 H   0  0  0  0  0  0  0  0  0  0  0  0
  1  2  1  0
  2  3  1  0
  3  4  2  0
  4  5  1  0
  5  6  2  0
  6  7  1  0
  7  8  1  0
  8  9  1  0
  9 10  2  0
 10 11  1  0
 11 12  2  0
 12 13  1  0
 13 14  2  0
 14 15  1  0
 15 16  2  0
 16 17  1  0
 17 18  1  0
 10 19  1  0
 19 20  2  0
  6 21  1  0
 21 22  2  0
 22  3  1  0
 20  8  1  0
 16 11  1  0
  1 23  1  0
  1 24  1  0
  1 25  1  0
  4 26  1  0
  5 27  1  0
  7 28  1  0
  7 29  1  0
  9 30  1  0
 12 31  1  0
 13 32  1  0
 14 33  1  0
 15 34  1  0
 18 35  1  0
 18 36  1  0
 18 37  1  0
 21 38  1  0
 22 39  1  0
M  END
>  <UniqueID>  (27) 
23

>  <SMILES>  (27) 
COc1ccc(Cn2cc(-c3ccccc3OC)nn2)cc1

>  <Energy>  (27) 
76.40668383412414

>  <Genealogy>  (27) 
COc1ccc(Cn2cc(-c3ccccc3OC)nn2)cc1 (3D coordinates assigned)
COc1ccc(Cn2cc(-c3ccccc3OC)nn2)cc1 (optimized conformer: 76.40668383412414 kcal/mol)

>  <smiles>  (27) 
COc1ccc(Cn2cc(-c3ccccc3OC)nn2)cc1

>  <score_type>  (27) 
oracle

>  <origin>  (27) 
adg

>  <m_score__min__energy>  (27) 
-7.8700000000000001

>  <m_primary>  (27) 
energy

$$$$
28:0
     RDKit          3D

 51 54  0  0  0  0  0  0  0  0999 V2000
   55.8710   29.7630   43.2680 C   0  0  0  0  0  0  0  0  0  0  0  0
   56.0190   30.2290   44.5930 O   0  0  0  0  0  0  0  0  0  0  0  0
   57.3910   30.2750   44.9430 C   0  0  0  0  0  0  0  0  0  0  0  0
   57.8160   31.6760   45.3490 C   0  0  0  0  0  0  0  0  0  0  0  0
   57.3950   32.7570   44.5540 C   0  0  0  0  0  0  0  0  0  0  0  0
   57.7190   34.0640   44.9000 C   0  0  0  0  0  0  0  0  0  0  0  0
   58.4670   34.3200   46.0440 C   0  0  0  0  0  0  0  0  0  0  0  0
   58.9300   33.2670   46.8490 C   0  0  0  0  0  0  0  0  0  0  0  0
   58.6380   31.9230   46.4840 C   0  0  0  0  0  0  0  0  0  0  0  0
   59.2700   30.7870   47.2140 C   0  0  0  0  0  0  0  0  0  0  0  0
   59.8790   29.9050   46.5460 O   0  0  0  0  0  0  0  0  0  0  0  0
   59.2100   30.6680   48.6520 N   0  0  0  0  0  0  0  0  0  0  0  0
   59.7040   29.4450   49.2930 C   0  0  0  0  0  0  0  0  0  0  0  0
   58.7140   31.7780   49.4660 C   0  0  0  0  0  0  0  0  0  0  0  0
   59.5990   32.9640   49.2360 C   0  0  0  0  0  0  0  0  0  0  0  0
   60.4960   33.5790   50.1050 C   0  0  0  0  0  0  0  0  0  0  0  0
   60.8310   33.2310   51.4980 C   0  0  0  0  0  0  0  0  0  0  0  0
   59.9240   33.0210   52.3490 O   0  0  0  0  0  0  0  0  0  0  0  0
   62.1740   33.1150   51.8630 O   0  0  0  0  0  0  0  0  0  0  0  0
   63.0180   32.0760   51.3770 C   0  0  0  0  0  0  0  0  0  0  0  0
   63.1900   32.2320   49.8950 C   0  0  0  0  0  0  0  0  0  0  0  0
   63.9410   33.3000   49.3780 C   0  0  0  0  0  0  0  0  0  0  0  0
   64.0680   33.4660   47.9950 C   0  0  0  0  0  0  0  0  0  0  0  0
   63.4370   32.5760   47.1220 C   0  0  0  0  0  0  0  0  0  0  0  0
   62.6740   31.5210   47.6290 C   0  0  0  0  0  0  0  0  0  0  0  0
   62.5450   31.3510   49.0110 C   0  0  0  0  0  0  0  0  0  0  0  0
   61.0920   34.5930   49.4420 N   0  0  0  0  0  0  0  0  0  0  0  0
   60.5800   34.5740   48.1970 C   0  0  0  0  0  0  0  0  0  0  0  0
   59.6810   33.5800   48.0390 N   0  0  0  0  0  0  0  0  0  0  0  0
   55.5381   28.7147   43.2830 H   0  0  0  0  0  0  0  0  0  0  0  0
   55.1238   30.3775   42.7445 H   0  0  0  0  0  0  0  0  0  0  0  0
   56.8358   29.8338   42.7445 H   0  0  0  0  0  0  0  0  0  0  0  0
   57.5681   29.5898   45.7851 H   0  0  0  0  0  0  0  0  0  0  0  0
   57.9813   29.9766   44.0641 H   0  0  0  0  0  0  0  0  0  0  0  0
   56.8021   32.5661   43.6473 H   0  0  0  0  0  0  0  0  0  0  0  0
   57.3826   34.8982   44.2668 H   0  0  0  0  0  0  0  0  0  0  0  0
   58.6985   35.3590   46.3213 H   0  0  0  0  0  0  0  0  0  0  0  0
   59.6577   29.5595   50.3860 H   0  0  0  0  0  0  0  0  0  0  0  0
   59.0796   28.5927   48.9869 H   0  0  0  0  0  0  0  0  0  0  0  0
   60.7452   29.2654   48.9869 H   0  0  0  0  0  0  0  0  0  0  0  0
   57.6822   32.0218   49.1729 H   0  0  0  0  0  0  0  0  0  0  0  0
   58.7228   31.5001   50.5303 H   0  0  0  0  0  0  0  0  0  0  0  0
   63.9995   32.1386   51.8698 H   0  0  0  0  0  0  0  0  0  0  0  0
   62.5633   31.0984   51.5951 H   0  0  0  0  0  0  0  0  0  0  0  0
   64.4308   34.0081   50.0626 H   0  0  0  0  0  0  0  0  0  0  0  0
   64.6653   34.2982   47.5941 H   0  0  0  0  0  0  0  0  0  0  0  0
   63.5410   32.7060   46.0347 H   0  0  0  0  0  0  0  0  0  0  0  0
   62.1744   30.8236   46.9405 H   0  0  0  0  0  0  0  0  0  0  0  0
   61.9365   30.5247   49.4073 H   0  0  0  0  0  0  0  0  0  0  0  0
   61.8190   35.2480   49.8050 H   0  0  0  0  0  0  0  0  0  0  0  0
   60.8606   35.2831   47.4042 H   0  0  0  0  0  0  0  0  0  0  0  0
  1  2  1  0
  2  3  1  0
  3  4  1  0
  4  5  2  0
  5  6  1  0
  6  7  2  0
  7  8  1  0
  8  9  2  0
  9 10  1  0
 10 11  2  0
 10 12  1  0
 12 13  1  0
 12 14  1  0
 14 15  1  0
 15 16  2  0
 16 17  1  0
 17 18  2  0
 17 19  1  0
 19 20  1  0
 20 21  1  0
 21 22  2  0
 22 23  1  0
 23 24  2  0
 24 25  1  0
 25 26  2  0
 16 27  1  0
 27 28  2  0
 28 29  1  0
  9  4  1  0
 29 15  1  0
 29  8  1  0
 26 21  1  0
  1 30  1  0
  1 31  1  0
  1 32  1  0
  3 33  1  0
  3 34  1  0
  5 35  1  0
  6 36  1  0
  7 37  1  0
 13 38  1  0
 13 39  1  0
 13 40  1  0
 14 41  1  0
 14 42  1  0
 20 43  1  0
 20 44  1  0
 22 45  1  0
 23 46  1  0
 24 47  1  0
 25 48  1  0
 26 49  1  0
 27 50  1  0
 28 51  1  0
M  CHG  1  27   1
M  END
>  <UniqueID>  (28) 
24

>  <SMILES>  (28) 
COCc1cccc2c1C(=O)N(C)Cc1c(C(=O)OCc3ccccc3)[nH+]cn1-2

>  <Energy>  (28) 
100.82385576464162

>  <Genealogy>  (28) 
COCc1cccc2c1C(=O)N(C)Cc1c(C(=O)OCc3ccccc3)[nH+]cn1-2 (protonated)
COCc1cccc2c1C(=O)N(C)Cc1c(C(=O)OCc3ccccc3)[nH+]cn1-2 (3D coordinates assigned)
COCc1cccc2c1C(=O)N(C)Cc1c(C(=O)OCc3ccccc3)[nH+]cn1-2 (nonaromatic ring conformer: 100.82385576464162 kcal/mol)

>  <smiles>  (28) 
COCc1cccc2c1C(=O)N(C)Cc1c(C(=O)OCc3ccccc3)ncn1-2

>  <score_type>  (28) 
oracle

>  <origin>  (28) 
adg

>  <m_score__min__energy>  (28) 
-6.8700000000000001

>  <m_primary>  (28) 
energy

$$$$
29:0
     RDKit          3D

 44 44  0  0  0  0  0  0  0  0999 V2000
   60.3510   29.1650   46.1660 C   0  0  0  0  0  0  0  0  0  0  0  0
   60.0170   28.5940   44.7810 C   0  0  0  0  0  0  0  0  0  0  0  0
   58.7120   27.8840   44.7620 N   0  0  0  0  0  0  0  0  0  0  0  0
   58.8730   26.5390   45.3730 C   0  0  0  0  0  0  0  0  0  0  0  0
   57.9870   26.3570   46.6130 C   0  0  0  0  0  0  0  0  0  0  0  0
   58.1650   27.7870   43.3720 C   0  0  0  0  0  0  0  0  0  0  0  0
   57.2220   28.9560   43.0530 C   0  0  0  0  0  0  0  0  0  0  0  0
   56.3420   29.4920   44.5150 S   0  0  0  0  0  0  0  0  0  0  0  0
   55.8870   28.2860   45.2890 O   0  0  0  0  0  0  0  0  0  0  0  0
   55.1380   30.2990   44.1160 O   0  0  0  0  0  0  0  0  0  0  0  0
   57.3880   30.4380   45.5290 N   0  0  0  0  0  0  0  0  0  0  0  0
   57.4790   31.8060   45.0250 C   0  0  0  0  0  0  0  0  0  0  0  0
   58.3210   32.6200   45.9640 C   0  0  0  0  0  0  0  0  0  0  0  0
   58.7940   33.8830   45.5760 C   0  0  0  0  0  0  0  0  0  0  0  0
   59.6070   34.6280   46.4350 C   0  0  0  0  0  0  0  0  0  0  0  0
   59.9670   34.1130   47.6960 C   0  0  0  0  0  0  0  0  0  0  0  0
   60.7790   34.8210   48.5940 O   0  0  0  0  0  0  0  0  0  0  0  0
   61.8320   34.2380   49.3560 C   0  0  0  0  0  0  0  0  0  0  0  0
   59.5040   32.8470   48.0730 C   0  0  0  0  0  0  0  0  0  0  0  0
   58.6910   32.1020   47.2140 C   0  0  0  0  0  0  0  0  0  0  0  0
   59.9583   28.4936   46.9438 H   0  0  0  0  0  0  0  0  0  0  0  0
   61.4423   29.2518   46.2734 H   0  0  0  0  0  0  0  0  0  0  0  0
   59.8918   30.1588   46.2734 H   0  0  0  0  0  0  0  0  0  0  0  0
   59.9798   29.4214   44.0571 H   0  0  0  0  0  0  0  0  0  0  0  0
   60.7993   27.8660   44.5202 H   0  0  0  0  0  0  0  0  0  0  0  0
   58.0610   28.4260   45.3810 H   0  0  0  0  0  0  0  0  0  0  0  0
   58.6013   25.7765   44.6282 H   0  0  0  0  0  0  0  0  0  0  0  0
   59.9216   26.4341   45.6882 H   0  0  0  0  0  0  0  0  0  0  0  0
   58.5961   26.4821   47.5204 H   0  0  0  0  0  0  0  0  0  0  0  0
   57.1842   27.1090   46.6036 H   0  0  0  0  0  0  0  0  0  0  0  0
   57.5457   25.3494   46.6036 H   0  0  0  0  0  0  0  0  0  0  0  0
   59.0014   27.7979   42.6576 H   0  0  0  0  0  0  0  0  0  0  0  0
   57.5923   26.8512   43.2921 H   0  0  0  0  0  0  0  0  0  0  0  0
   57.8126   29.7971   42.6608 H   0  0  0  0  0  0  0  0  0  0  0  0
   56.4871   28.6182   42.3075 H   0  0  0  0  0  0  0  0  0  0  0  0
   57.9406   31.8008   44.0266 H   0  0  0  0  0  0  0  0  0  0  0  0
   56.4721   32.2434   44.9560 H   0  0  0  0  0  0  0  0  0  0  0  0
   58.5234   34.2891   44.5902 H   0  0  0  0  0  0  0  0  0  0  0  0
   59.9671   35.6202   46.1253 H   0  0  0  0  0  0  0  0  0  0  0  0
   61.6177   34.3566   50.4284 H   0  0  0  0  0  0  0  0  0  0  0  0
   61.9107   33.1678   49.1140 H   0  0  0  0  0  0  0  0  0  0  0  0
   62.7807   34.7393   49.1140 H   0  0  0  0  0  0  0  0  0  0  0  0
   59.7824   32.4347   49.0541 H   0  0  0  0  0  0  0  0  0  0  0  0
   58.3399   31.1053   47.5195 H   0  0  0  0  0  0  0  0  0  0  0  0
  1  2  1  0
  2  3  1  0
  3  4  1  0
  4  5  1  0
  3  6  1  0
  6  7  1  0
  7  8  1  0
  8  9  2  0
  8 10  2  0
  8 11  1  0
 11 12  1  0
 12 13  1  0
 13 14  2  0
 14 15  1  0
 15 16  2  0
 16 17  1  0
 17 18  1  0
 16 19  1  0
 19 20  2  0
 20 13  1  0
  1 21  1  0
  1 22  1  0
  1 23  1  0
  2 24  1  0
  2 25  1  0
  3 26  1  0
  4 27  1  0
  4 28  1  0
  5 29  1  0
  5 30  1  0
  5 31  1  0
  6 32  1  0
  6 33  1  0
  7 34  1  0
  7 35  1  0
 12 36  1  0
 12 37  1  0
 14 38  1  0
 15 39  1  0
 18 40  1  0
 18 41  1  0
 18 42  1  0
 19 43  1  0
 20 44  1  0
M  CHG  2   3   1  11  -1
M  END
>  <UniqueID>  (29) 
25

>  <SMILES>  (29) 
CC[NH+](CC)CCS(=O)(=O)[N-]Cc1ccc(OC)cc1

>  <Energy>  (29) 
35.233632757925726

>  <Genealogy>  (29) 
CC[NH+](CC)CCS(=O)(=O)[N-]Cc1ccc(OC)cc1 (protonated)
CC[NH+](CC)CCS(=O)(=O)[N-]Cc1ccc(OC)cc1 (3D coordinates assigned)
CC[NH+](CC)CCS(=O)(=O)[N-]Cc1ccc(OC)cc1 (optimized conformer: 35.233632757925726 kcal/mol)

>  <smiles>  (29) 
CCN(CC)CCS(=O)(=O)NCc1ccc(OC)cc1

>  <score_type>  (29) 
oracle

>  <origin>  (29) 
adg

>  <m_score__min__energy>  (29) 
-6.3099999999999996

>  <m_primary>  (29) 
energy

$$$$
30:0
     RDKit          3D

 44 47  0  0  0  0  0  0  0  0999 V2000
   58.1810   32.2880   50.9250 C   0  0  0  0  0  0  0  0  0  0  0  0
   58.9800   31.7810   49.7630 C   0  0  0  0  0  0  0  0  0  0  0  0
   60.1210   30.9940   49.9800 C   0  0  0  0  0  0  0  0  0  0  0  0
   60.8550   30.5050   48.8980 C   0  0  0  0  0  0  0  0  0  0  0  0
   60.4550   30.7930   47.5900 C   0  0  0  0  0  0  0  0  0  0  0  0
   61.1940   30.3270   46.5510 F   0  0  0  0  0  0  0  0  0  0  0  0
   59.3150   31.5820   47.3580 C   0  0  0  0  0  0  0  0  0  0  0  0
   58.9010   31.9050   45.9770 C   0  0  0  0  0  0  0  0  0  0  0  0
   58.4530   30.8630   45.1530 C   0  0  0  0  0  0  0  0  0  0  0  0
   58.0410   31.1260   43.8490 C   0  0  0  0  0  0  0  0  0  0  0  0
   58.0800   32.4320   43.3720 C   0  0  0  0  0  0  0  0  0  0  0  0
   58.5240   33.4410   44.1680 N   0  0  0  0  0  0  0  0  0  0  0  0
   58.9430   33.2210   45.4500 C   0  0  0  0  0  0  0  0  0  0  0  0
   59.5480   34.5970   46.3940 S   0  0  0  0  0  0  0  0  0  0  0  0
   59.7770   35.7780   45.4920 O   0  0  0  0  0  0  0  0  0  0  0  0
   58.5160   34.9740   47.4200 O   0  0  0  0  0  0  0  0  0  0  0  0
   61.0810   34.2080   47.1680 C   0  0  0  0  0  0  0  0  0  0  0  0
   62.1700   33.8070   46.3820 C   0  0  0  0  0  0  0  0  0  0  0  0
   63.3690   33.4140   46.9820 C   0  0  0  0  0  0  0  0  0  0  0  0
   63.4900   33.4140   48.3800 C   0  0  0  0  0  0  0  0  0  0  0  0
   64.6780   32.9910   48.9960 C   0  0  0  0  0  0  0  0  0  0  0  0
   64.7790   32.9790   50.3900 C   0  0  0  0  0  0  0  0  0  0  0  0
   63.7000   33.3900   51.1770 C   0  0  0  0  0  0  0  0  0  0  0  0
   62.5120   33.8160   50.5760 C   0  0  0  0  0  0  0  0  0  0  0  0
   62.3980   33.8320   49.1780 C   0  0  0  0  0  0  0  0  0  0  0  0
   61.2050   34.2400   48.5640 C   0  0  0  0  0  0  0  0  0  0  0  0
   58.5660   32.0500   48.4490 C   0  0  0  0  0  0  0  0  0  0  0  0
   58.6645   31.9812   51.8642 H   0  0  0  0  0  0  0  0  0  0  0  0
   58.1272   33.3858   50.8819 H   0  0  0  0  0  0  0  0  0  0  0  0
   57.1648   31.8691   50.8819 H   0  0  0  0  0  0  0  0  0  0  0  0
   60.4386   30.7613   51.0071 H   0  0  0  0  0  0  0  0  0  0  0  0
   61.7506   29.8914   49.0752 H   0  0  0  0  0  0  0  0  0  0  0  0
   58.4268   29.8330   45.5382 H   0  0  0  0  0  0  0  0  0  0  0  0
   57.6882   30.3089   43.2025 H   0  0  0  0  0  0  0  0  0  0  0  0
   57.7500   32.6497   42.3455 H   0  0  0  0  0  0  0  0  0  0  0  0
   58.5400   34.4070   43.7740 H   0  0  0  0  0  0  0  0  0  0  0  0
   62.0801   33.8017   45.2857 H   0  0  0  0  0  0  0  0  0  0  0  0
   64.2197   33.1040   46.3573 H   0  0  0  0  0  0  0  0  0  0  0  0
   65.5309   32.6684   48.3808 H   0  0  0  0  0  0  0  0  0  0  0  0
   65.7111   32.6449   50.8692 H   0  0  0  0  0  0  0  0  0  0  0  0
   63.7858   33.3783   52.2736 H   0  0  0  0  0  0  0  0  0  0  0  0
   61.6657   34.1390   51.2000 H   0  0  0  0  0  0  0  0  0  0  0  0
   60.3627   34.5867   49.1806 H   0  0  0  0  0  0  0  0  0  0  0  0
   57.6488   32.6312   48.2731 H   0  0  0  0  0  0  0  0  0  0  0  0
  1  2  1  0
  2  3  2  0
  3  4  1  0
  4  5  2  0
  5  6  1  0
  5  7  1  0
  7  8  1  0
  8  9  2  0
  9 10  1  0
 10 11  2  0
 11 12  1  0
 12 13  2  0
 13 14  1  0
 14 15  2  0
 14 16  2  0
 14 17  1  0
 17 18  2  0
 18 19  1  0
 19 20  2  0
 20 21  1  0
 21 22  2  0
 22 23  1  0
 23 24  2  0
 24 25  1  0
 25 26  2  0
  7 27  2  0
 27  2  1  0
 13  8  1  0
 26 17  1  0
 25 20  1  0
  1 28  1  0
  1 29  1  0
  1 30  1  0
  3 31  1  0
  4 32  1  0
  9 33  1  0
 10 34  1  0
 11 35  1  0
 12 36  1  0
 18 37  1  0
 19 38  1  0
 21 39  1  0
 22 40  1  0
 23 41  1  0
 24 42  1  0
 26 43  1  0
 27 44  1  0
M  CHG  1  12   1
M  END
>  <UniqueID>  (30) 
26

>  <SMILES>  (30) 
Cc1ccc(F)c(-c2ccc[nH+]c2S(=O)(=O)c2ccc3ccccc3c2)c1

>  <Energy>  (30) 
56.95551424435571

>  <Genealogy>  (30) 
Cc1ccc(F)c(-c2ccc[nH+]c2S(=O)(=O)c2ccc3ccccc3c2)c1 (protonated)
Cc1ccc(F)c(-c2ccc[nH+]c2S(=O)(=O)c2ccc3ccccc3c2)c1 (3D coordinates assigned)
Cc1ccc(F)c(-c2ccc[nH+]c2S(=O)(=O)c2ccc3ccccc3c2)c1 (optimized conformer: 56.95551424435571 kcal/mol)

>  <smiles>  (30) 
Cc1ccc(F)c(-c2cccnc2S(=O)(=O)c2ccc3ccccc3c2)c1

>  <score_type>  (30) 
oracle

>  <origin>  (30) 
adg

>  <m_score__min__energy>  (30) 
-7.3700000000000001

>  <m_primary>  (30) 
energy

$$$$
31:0
     RDKit          3D

 51 53  0  0  1  0  0  0  0  0999 V2000
   63.0430   33.8220   46.4360 C   0  0  0  0  0  0  0  0  0  0  0  0
   62.1650   33.3760   47.5610 C   0  0  0  0  0  0  0  0  0  0  0  0
   60.7730   33.3280   47.2550 N   0  0  0  0  0  0  0  0  0  0  0  0
   60.5390   33.8080   45.9360 C   0  0  0  0  0  0  0  0  0  0  0  0
   59.4170   34.7950   45.9830 C   0  0  0  0  0  0  0  0  0  0  0  0
   59.3060   35.1140   47.4400 C   0  0  0  0  0  0  0  0  0  0  0  0
   59.9120   33.9880   48.1750 C   0  0  1  0  0  0  0  0  0  0  0  0
   58.7490   32.8860   48.5130 C   0  0  0  0  0  0  0  0  0  0  0  0
   59.0720   32.0030   47.5680 N   0  0  0  0  0  0  0  0  0  0  0  0
   59.5550   30.8450   47.4790 C   0  0  0  0  0  0  0  0  0  0  0  0
   60.6150   30.6620   48.3070 N   0  0  0  0  0  0  0  0  0  0  0  0
   60.8750   29.3560   48.6460 C   0  0  0  0  0  0  0  0  0  0  0  0
   60.0940   28.3530   48.1590 N   0  0  0  0  0  0  0  0  0  0  0  0
   59.0610   28.5900   47.3320 C   0  0  0  0  0  0  0  0  0  0  0  0
   58.3150   27.5260   46.8770 C   0  0  0  0  0  0  0  0  0  0  0  0
   57.2880   27.8590   46.0220 C   0  0  0  0  0  0  0  0  0  0  0  0
   56.4990   26.8290   45.5490 O   0  0  0  0  0  0  0  0  0  0  0  0
   57.0670   25.5910   45.1670 C   0  0  0  0  0  0  0  0  0  0  0  0
   56.9970   29.1260   45.6150 C   0  0  0  0  0  0  0  0  0  0  0  0
   55.9360   29.2940   44.7460 O   0  0  0  0  0  0  0  0  0  0  0  0
   56.0400   29.6960   43.4030 C   0  0  0  0  0  0  0  0  0  0  0  0
   57.7700   30.2290   46.0840 C   0  0  0  0  0  0  0  0  0  0  0  0
   57.3200   31.3740   45.4920 O   0  0  0  0  0  0  0  0  0  0  0  0
   58.0990   31.9890   44.4290 C   0  0  0  0  0  0  0  0  0  0  0  0
   58.7480   29.9020   46.9360 C   0  0  0  0  0  0  0  0  0  0  0  0
   63.9541   34.2848   46.8432 H   0  0  0  0  0  0  0  0  0  0  0  0
   63.3172   32.9539   45.8186 H   0  0  0  0  0  0  0  0  0  0  0  0
   62.5037   34.5554   45.8186 H   0  0  0  0  0  0  0  0  0  0  0  0
   62.4832   32.3673   47.8632 H   0  0  0  0  0  0  0  0  0  0  0  0
   62.2796   34.1263   48.3572 H   0  0  0  0  0  0  0  0  0  0  0  0
   61.4469   34.2962   45.5522 H   0  0  0  0  0  0  0  0  0  0  0  0
   60.2778   32.9715   45.2711 H   0  0  0  0  0  0  0  0  0  0  0  0
   59.6585   35.6954   45.3990 H   0  0  0  0  0  0  0  0  0  0  0  0
   58.4818   34.4070   45.5530 H   0  0  0  0  0  0  0  0  0  0  0  0
   59.8453   36.0460   47.6649 H   0  0  0  0  0  0  0  0  0  0  0  0
   58.2548   35.2536   47.7325 H   0  0  0  0  0  0  0  0  0  0  0  0
   60.4122   34.3502   49.0853 H   0  0  0  0  0  0  0  0  0  0  0  0
   58.8469   32.4703   49.5267 H   0  0  0  0  0  0  0  0  0  0  0  0
   57.7116   33.2519   48.5068 H   0  0  0  0  0  0  0  0  0  0  0  0
   61.7171   29.1202   49.3132 H   0  0  0  0  0  0  0  0  0  0  0  0
   60.3030   27.3700   48.4360 H   0  0  0  0  0  0  0  0  0  0  0  0
   58.5237   26.4877   47.1742 H   0  0  0  0  0  0  0  0  0  0  0  0
   57.3310   25.0156   46.0666 H   0  0  0  0  0  0  0  0  0  0  0  0
   56.3395   25.0228   44.5687 H   0  0  0  0  0  0  0  0  0  0  0  0
   57.9722   25.7719   44.5687 H   0  0  0  0  0  0  0  0  0  0  0  0
   56.3153   30.7601   43.3590 H   0  0  0  0  0  0  0  0  0  0  0  0
   56.8126   29.0963   42.8995 H   0  0  0  0  0  0  0  0  0  0  0  0
   55.0735   29.5462   42.8995 H   0  0  0  0  0  0  0  0  0  0  0  0
   58.8904   32.6138   44.8688 H   0  0  0  0  0  0  0  0  0  0  0  0
   58.5544   31.2043   43.8071 H   0  0  0  0  0  0  0  0  0  0  0  0
   57.4414   32.6141   43.8071 H   0  0  0  0  0  0  0  0  0  0  0  0
  1  2  1  0
  2  3  1  0
  3  4  1  0
  4  5  1  0
  5  6  1  0
  6  7  1  0
  7  8  1  0
  8  9  1  0
  9 10  2  0
 10 11  1  0
 11 12  2  0
 12 13  1  0
 13 14  1  0
 14 15  2  0
 15 16  1  0
 16 17  1  0
 17 18  1  0
 16 19  2  0
 19 20  1  0
 20 21  1  0
 19 22  1  0
 22 23  1  0
 23 24  1  0
 22 25  2  0
  7  3  1  0
 25 10  1  0
 25 14  1  0
  1 26  1  0
  1 27  1  0
  1 28  1  0
  2 29  1  0
  2 30  1  0
  4 31  1  0
  4 32  1  0
  5 33  1  0
  5 34  1  0
  6 35  1  0
  6 36  1  0
  7 37  1  1
  8 38  1  0
  8 39  1  0
 12 40  1  0
 13 41  1  0
 15 42  1  0
 18 43  1  0
 18 44  1  0
 18 45  1  0
 21 46  1  0
 21 47  1  0
 21 48  1  0
 24 49  1  0
 24 50  1  0
 24 51  1  0
M  END
>  <smiles>  (31) 
CCN1CCCC1CN=c1nc[nH]c2cc(OC)c(OC)c(OC)c12

>  <score_type>  (31) 
oracle

>  <origin>  (31) 
adg

>  <m_score__min__energy>  (31) 
-7.8200000000000003

>  <m_primary>  (31) 
energy

$$$$
32:0
     RDKit          3D

 42 44  0  0  0  0  0  0  0  0999 V2000
   53.6520   24.5760   45.6220 C   0  0  0  0  0  0  0  0  0  0  0  0
   54.7650   25.3840   45.9890 O   0  0  0  0  0  0  0  0  0  0  0  0
   56.1030   24.9590   45.9600 C   0  0  0  0  0  0  0  0  0  0  0  0
   56.4560   23.6060   46.1340 C   0  0  0  0  0  0  0  0  0  0  0  0
   57.7910   23.2050   46.0450 C   0  0  0  0  0  0  0  0  0  0  0  0
   58.7870   24.1440   45.7770 C   0  0  0  0  0  0  0  0  0  0  0  0
   58.4530   25.4890   45.6110 C   0  0  0  0  0  0  0  0  0  0  0  0
   57.1200   25.9110   45.7250 C   0  0  0  0  0  0  0  0  0  0  0  0
   56.8130   27.3010   45.5450 N   0  0  0  0  0  0  0  0  0  0  0  0
   57.4090   28.1100   44.5180 C   0  0  0  0  0  0  0  0  0  0  0  0
   58.0900   27.5730   43.6020 O   0  0  0  0  0  0  0  0  0  0  0  0
   57.2080   29.5670   44.5100 C   0  0  0  0  0  0  0  0  0  0  0  0
   58.1460   30.5140   44.1540 C   0  0  0  0  0  0  0  0  0  0  0  0
   57.4810   31.7080   44.3350 C   0  0  0  0  0  0  0  0  0  0  0  0
   58.0370   33.0890   44.1090 C   0  0  0  0  0  0  0  0  0  0  0  0
   58.1610   33.8820   45.3520 N   0  0  0  0  0  0  0  0  0  0  0  0
   58.2020   33.0440   46.5680 C   0  0  0  0  0  0  0  0  0  0  0  0
   58.7210   33.8600   47.7640 C   0  0  0  0  0  0  0  0  0  0  0  0
   60.0320   34.3820   47.5850 O   0  0  0  0  0  0  0  0  0  0  0  0
   60.4030   34.5560   46.2240 C   0  0  0  0  0  0  0  0  0  0  0  0
   59.2200   34.9160   45.3070 C   0  0  0  0  0  0  0  0  0  0  0  0
   56.2620   31.4570   44.7550 O   0  0  0  0  0  0  0  0  0  0  0  0
   56.0620   30.1760   44.8740 N   0  0  0  0  0  0  0  0  0  0  0  0
   53.1489   24.2108   46.5295 H   0  0  0  0  0  0  0  0  0  0  0  0
   52.9459   25.1732   45.0265 H   0  0  0  0  0  0  0  0  0  0  0  0
   54.0011   23.7196   45.0265 H   0  0  0  0  0  0  0  0  0  0  0  0
   55.6745   22.8602   46.3414 H   0  0  0  0  0  0  0  0  0  0  0  0
   58.0573   22.1471   46.1865 H   0  0  0  0  0  0  0  0  0  0  0  0
   59.8364   23.8243   45.6964 H   0  0  0  0  0  0  0  0  0  0  0  0
   59.2410   26.2237   45.3891 H   0  0  0  0  0  0  0  0  0  0  0  0
   56.0150   27.7010   46.0890 H   0  0  0  0  0  0  0  0  0  0  0  0
   59.1780   30.3545   43.8083 H   0  0  0  0  0  0  0  0  0  0  0  0
   59.0344   32.9936   43.6551 H   0  0  0  0  0  0  0  0  0  0  0  0
   57.3315   33.6203   43.4533 H   0  0  0  0  0  0  0  0  0  0  0  0
   57.1886   32.6787   46.7908 H   0  0  0  0  0  0  0  0  0  0  0  0
   58.8798   32.1953   46.3939 H   0  0  0  0  0  0  0  0  0  0  0  0
   58.0337   34.7022   47.9320 H   0  0  0  0  0  0  0  0  0  0  0  0
   58.7674   33.1724   48.6213 H   0  0  0  0  0  0  0  0  0  0  0  0
   61.1469   35.3643   46.1664 H   0  0  0  0  0  0  0  0  0  0  0  0
   60.8044   33.5942   45.8722 H   0  0  0  0  0  0  0  0  0  0  0  0
   58.7950   35.8767   45.6332 H   0  0  0  0  0  0  0  0  0  0  0  0
   59.5929   34.9818   44.2742 H   0  0  0  0  0  0  0  0  0  0  0  0
  1  2  1  0
  2  3  1  0
  3  4  2  0
  4  5  1  0
  5  6  2  0
  6  7  1  0
  7  8  2  0
  8  9  1  0
  9 10  1  0
 10 11  2  0
 10 12  1  0
 12 13  1  0
 13 14  2  0
 14 15  1  0
 15 16  1  0
 16 17  1  0
 17 18  1  0
 18 19  1  0
 19 20  1  0
 20 21  1  0
 14 22  1  0
 22 23  1  0
  8  3  1  0
 23 12  2  0
 21 16  1  0
  1 24  1  0
  1 25  1  0
  1 26  1  0
  4 27  1  0
  5 28  1  0
  6 29  1  0
  7 30  1  0
  9 31  1  0
 13 32  1  0
 15 33  1  0
 15 34  1  0
 17 35  1  0
 17 36  1  0
 18 37  1  0
 18 38  1  0
 20 39  1  0
 20 40  1  0
 21 41  1  0
 21 42  1  0
M  END
>  <UniqueID>  (32) 
27

>  <SMILES>  (32) 
COc1ccccc1NC(=O)c1cc(CN2CCOCC2)on1

>  <Energy>  (32) 
91.86832058775406

>  <Genealogy>  (32) 
COc1ccccc1NC(=O)c1cc(CN2CCOCC2)on1 (3D coordinates assigned)
COc1ccccc1NC(=O)c1cc(CN2CCOCC2)on1 (nonaromatic ring conformer: 91.86832058775406 kcal/mol)

>  <smiles>  (32) 
COc1ccccc1NC(=O)c1cc(CN2CCOCC2)on1

>  <score_type>  (32) 
oracle

>  <origin>  (32) 
adg

>  <m_score__min__energy>  (32) 
-8.0500000000000007

>  <m_primary>  (32) 
energy

$$$$
33:0
     RDKit          3D

 39 41  0  0  0  0  0  0  0  0999 V2000
   54.3940   28.9690   44.4950 H   0  0  0  0  0  0  0  0  0  0  0  0
   55.1930   29.2290   45.0580 O   0  0  0  0  0  0  0  0  0  0  0  0
   56.2080   29.9750   44.5100 N   0  0  0  0  0  0  0  0  0  0  0  0
   57.3890   30.0900   45.0440 C   0  0  0  0  0  0  0  0  0  0  0  0
   57.9790   31.4160   45.3140 C   0  0  0  0  0  0  0  0  0  0  0  0
   57.9680   32.0451   44.4117 H   0  0  0  0  0  0  0  0  0  0  0  0
   57.4301   31.9884   46.0763 H   0  0  0  0  0  0  0  0  0  0  0  0
   59.4120   31.0750   45.7300 C   0  0  1  0  0  0  0  0  0  0  0  0
   60.0980   31.1507   44.8734 H   0  0  0  0  0  0  0  0  0  0  0  0
   60.0080   32.0710   46.7240 C   0  0  0  0  0  0  0  0  0  0  0  0
   61.3360   31.9420   47.1880 C   0  0  0  0  0  0  0  0  0  0  0  0
   61.9425   31.0813   46.8696 H   0  0  0  0  0  0  0  0  0  0  0  0
   61.8880   32.8970   48.0480 C   0  0  0  0  0  0  0  0  0  0  0  0
   62.9148   32.7706   48.4218 H   0  0  0  0  0  0  0  0  0  0  0  0
   61.1390   34.0100   48.4330 C   0  0  0  0  0  0  0  0  0  0  0  0
   61.6780   34.9360   49.2630 F   0  0  0  0  0  0  0  0  0  0  0  0
   59.8410   34.1780   47.9470 C   0  0  0  0  0  0  0  0  0  0  0  0
   59.2551   35.0616   48.2402 H   0  0  0  0  0  0  0  0  0  0  0  0
   59.2850   33.2260   47.0890 C   0  0  0  0  0  0  0  0  0  0  0  0
   58.2703   33.3790   46.6929 H   0  0  0  0  0  0  0  0  0  0  0  0
   59.3640   29.6890   46.2380 N   0  0  0  0  0  0  0  0  0  0  0  0
   59.0810   29.7290   47.2460 H   0  0  0  0  0  0  0  0  0  0  0  0
   60.3050   29.2350   46.1730 H   0  0  0  0  0  0  0  0  0  0  0  0
   58.3320   28.9760   45.4380 C   0  0  0  0  0  0  0  0  0  0  0  0
   57.6340   27.8720   46.3140 C   0  0  0  0  0  0  0  0  0  0  0  0
   57.9516   28.0016   47.3592 H   0  0  0  0  0  0  0  0  0  0  0  0
   56.5476   27.9971   46.1955 H   0  0  0  0  0  0  0  0  0  0  0  0
   57.9810   26.4470   45.8720 C   0  0  0  0  0  0  0  0  0  0  0  0
   59.0620   26.2855   45.9959 H   0  0  0  0  0  0  0  0  0  0  0  0
   57.4112   25.7398   46.4926 H   0  0  0  0  0  0  0  0  0  0  0  0
   57.6060   26.2190   44.4050 C   0  0  0  0  0  0  0  0  0  0  0  0
   57.9883   25.2347   44.0968 H   0  0  0  0  0  0  0  0  0  0  0  0
   56.5098   26.2803   44.3378 H   0  0  0  0  0  0  0  0  0  0  0  0
   58.1800   27.2870   43.4500 C   0  0  0  0  0  0  0  0  0  0  0  0
   58.8269   26.7837   42.7164 H   0  0  0  0  0  0  0  0  0  0  0  0
   57.3215   27.7904   42.9814 H   0  0  0  0  0  0  0  0  0  0  0  0
   59.0040   28.3750   44.1550 C   0  0  0  0  0  0  0  0  0  0  0  0
   59.9704   27.9381   44.4468 H   0  0  0  0  0  0  0  0  0  0  0  0
   59.1031   29.2036   43.4384 H   0  0  0  0  0  0  0  0  0  0  0  0
  1  2  1  0
  2  3  1  0
  3  4  2  0
  4  5  1  0
  5  6  1  0
  5  7  1  0
  5  8  1  0
  8  9  1  6
  8 10  1  0
 10 11  2  0
 11 12  1  0
 11 13  1  0
 13 14  1  0
 13 15  2  0
 15 16  1  0
 15 17  1  0
 17 18  1  0
 17 19  2  0
 19 20  1  0
  8 21  1  0
 21 22  1  0
 21 23  1  0
 21 24  1  0
 24 25  1  0
 25 26  1  0
 25 27  1  0
 25 28  1  0
 28 29  1  0
 28 30  1  0
 28 31  1  0
 31 32  1  0
 31 33  1  0
 31 34  1  0
 34 35  1  0
 34 36  1  0
 34 37  1  0
 37 38  1  0
 37 39  1  0
 24  4  1  0
 19 10  1  0
 37 24  1  0
M  CHG  1  21   1
M  END
>  <UniqueID>  (33) 
28

>  <SMILES>  (33) 
O/N=C1/C[C@@H](c2ccc(F)cc2)[NH2+]C12CCCCC2

>  <Energy>  (33) 
57.76969005551163

>  <Genealogy>  (33) 
ON=C1CC(c2ccc(F)cc2)[NH2+]C12CCCCC2 (protonated)
ON=C1C[C@@H](c2ccc(F)cc2)[NH2+]C12CCCCC2 (chirality)
O/N=C1/C[C@@H](c2ccc(F)cc2)[NH2+]C12CCCCC2 (cis-trans isomerization)
O/N=C1/C[C@@H](c2ccc(F)cc2)[NH2+]C12CCCCC2 (3D coordinates assigned)
O/N=C1/C[C@@H](c2ccc(F)cc2)[NH2+]C12CCCCC2 (nonaromatic ring conformer: 57.76969005551163 kcal/mol)

>  <smiles>  (33) 
ON=C1CC(c2ccc(F)cc2)NC12CCCCC2

>  <score_type>  (33) 
oracle

>  <origin>  (33) 
adg

>  <m_score__min__energy>  (33) 
-6.5899999999999999

>  <m_primary>  (33) 
energy

$$$$
34:0
     RDKit          3D

 35 36  0  0  0  0  0  0  0  0999 V2000
   59.4310   33.2080   49.8500 C   0  0  0  0  0  0  0  0  0  0  0  0
   59.3990   33.6030   48.3970 C   0  0  0  0  0  0  0  0  0  0  0  0
   59.4780   34.9250   48.0650 N   0  0  0  0  0  0  0  0  0  0  0  0
   59.4500   35.3450   46.7710 C   0  0  0  0  0  0  0  0  0  0  0  0
   59.3410   34.4210   45.7340 C   0  0  0  0  0  0  0  0  0  0  0  0
   59.2500   33.0660   46.0350 C   0  0  0  0  0  0  0  0  0  0  0  0
   59.2580   32.6340   47.3700 C   0  0  0  0  0  0  0  0  0  0  0  0
   59.1810   31.1550   47.6620 C   0  0  0  0  0  0  0  0  0  0  0  0
   58.1250   30.5470   46.8550 N   0  0  0  0  0  0  0  0  0  0  0  0
   58.2520   29.2480   46.2530 C   0  0  0  0  0  0  0  0  0  0  0  0
   59.3010   28.4010   46.6530 C   0  0  0  0  0  0  0  0  0  0  0  0
   59.4250   27.1070   46.1290 C   0  0  0  0  0  0  0  0  0  0  0  0
   60.5300   26.1960   46.6020 C   0  0  0  0  0  0  0  0  0  0  0  0
   60.1810   24.8840   46.3420 F   0  0  0  0  0  0  0  0  0  0  0  0
   61.7170   26.4860   45.9510 F   0  0  0  0  0  0  0  0  0  0  0  0
   60.7360   26.3470   47.9620 F   0  0  0  0  0  0  0  0  0  0  0  0
   58.4470   26.6370   45.2430 C   0  0  0  0  0  0  0  0  0  0  0  0
   57.3990   27.4650   44.8390 C   0  0  0  0  0  0  0  0  0  0  0  0
   57.2930   28.7800   45.3230 C   0  0  0  0  0  0  0  0  0  0  0  0
   56.2050   29.6460   44.8080 C   0  0  0  0  0  0  0  0  0  0  0  0
   56.3800   30.8910   44.7080 O   0  0  0  0  0  0  0  0  0  0  0  0
   54.9650   29.1160   44.4810 O   0  0  0  0  0  0  0  0  0  0  0  0
   59.3580   34.1091   50.4766 H   0  0  0  0  0  0  0  0  0  0  0  0
   58.5840   32.5407   50.0673 H   0  0  0  0  0  0  0  0  0  0  0  0
   60.3744   32.6857   50.0673 H   0  0  0  0  0  0  0  0  0  0  0  0
   59.5630   35.6490   48.8160 H   0  0  0  0  0  0  0  0  0  0  0  0
   59.5137   36.4191   46.5426 H   0  0  0  0  0  0  0  0  0  0  0  0
   59.3270   34.7597   44.6875 H   0  0  0  0  0  0  0  0  0  0  0  0
   59.1713   32.3291   45.2221 H   0  0  0  0  0  0  0  0  0  0  0  0
   60.1445   30.6837   47.4182 H   0  0  0  0  0  0  0  0  0  0  0  0
   58.9557   31.0058   48.7283 H   0  0  0  0  0  0  0  0  0  0  0  0
   57.2450   31.0910   46.7030 H   0  0  0  0  0  0  0  0  0  0  0  0
   60.0358   28.7598   47.3888 H   0  0  0  0  0  0  0  0  0  0  0  0
   58.5057   25.6066   44.8626 H   0  0  0  0  0  0  0  0  0  0  0  0
   56.6466   27.0837   44.1330 H   0  0  0  0  0  0  0  0  0  0  0  0
  1  2  1  0
  2  3  2  0
  3  4  1  0
  4  5  2  0
  5  6  1  0
  6  7  2  0
  7  8  1  0
  8  9  1  0
  9 10  1  0
 10 11  2  0
 11 12  1  0
 12 13  1  0
 13 14  1  0
 13 15  1  0
 13 16  1  0
 12 17  2  0
 17 18  1  0
 18 19  2  0
 19 20  1  0
 20 21  2  0
 20 22  1  0
  7  2  1  0
 19 10  1  0
  1 23  1  0
  1 24  1  0
  1 25  1  0
  3 26  1  0
  4 27  1  0
  5 28  1  0
  6 29  1  0
  8 30  1  0
  8 31  1  0
  9 32  1  0
 11 33  1  0
 17 34  1  0
 18 35  1  0
M  CHG  2   3   1  22  -1
M  END
>  <UniqueID>  (34) 
29

>  <SMILES>  (34) 
Cc1[nH+]cccc1CNc1cc(C(F)(F)F)ccc1C(=O)[O-]

>  <Energy>  (34) 
41.93914254277576

>  <Genealogy>  (34) 
Cc1[nH+]cccc1CNc1cc(C(F)(F)F)ccc1C(=O)[O-] (protonated)
Cc1[nH+]cccc1CNc1cc(C(F)(F)F)ccc1C(=O)[O-] (3D coordinates assigned)
Cc1[nH+]cccc1CNc1cc(C(F)(F)F)ccc1C(=O)[O-] (optimized conformer: 41.93914254277576 kcal/mol)

>  <smiles>  (34) 
Cc1ncccc1CNc1cc(C(F)(F)F)ccc1C(=O)O

>  <score_type>  (34) 
oracle

>  <origin>  (34) 
adg

>  <m_score__min__energy>  (34) 
-7.46

>  <m_primary>  (34) 
energy

$$$$
35:0
     RDKit          3D

 43 46  0  0  0  0  0  0  0  0999 V2000
   59.6380   35.3520   45.7500 C   0  0  0  0  0  0  0  0  0  0  0  0
   60.4170   34.1780   46.2520 C   0  0  0  0  0  0  0  0  0  0  0  0
   61.7560   34.1960   46.4010 N   0  0  0  0  0  0  0  0  0  0  0  0
   62.1210   33.0340   46.9190 N   0  0  0  0  0  0  0  0  0  0  0  0
   63.4990   32.7180   47.2870 C   0  0  0  0  0  0  0  0  0  0  0  0
   63.7470   33.1060   48.7190 C   0  0  0  0  0  0  0  0  0  0  0  0
   62.8780   33.9900   49.3790 C   0  0  0  0  0  0  0  0  0  0  0  0
   63.1400   34.3810   50.6960 C   0  0  0  0  0  0  0  0  0  0  0  0
   64.2710   33.9000   51.3590 C   0  0  0  0  0  0  0  0  0  0  0  0
   65.1460   33.0280   50.7050 C   0  0  0  0  0  0  0  0  0  0  0  0
   64.8890   32.6360   49.3890 C   0  0  0  0  0  0  0  0  0  0  0  0
   61.0300   32.2660   47.1290 C   0  0  0  0  0  0  0  0  0  0  0  0
   61.0470   30.6470   47.8150 Cl  0  0  0  0  0  0  0  0  0  0  0  0
   59.9170   32.9580   46.6920 C   0  0  0  0  0  0  0  0  0  0  0  0
   58.5140   32.5140   46.7540 C   0  0  0  0  0  0  0  0  0  0  0  0
   57.8500   32.7120   47.8080 O   0  0  0  0  0  0  0  0  0  0  0  0
   57.9120   31.8230   45.6500 N   0  0  0  0  0  0  0  0  0  0  0  0
   57.5660   32.4700   44.3830 C   0  0  0  0  0  0  0  0  0  0  0  0
   57.3140   31.3280   43.3680 C   0  0  0  0  0  0  0  0  0  0  0  0
   57.5790   30.0980   44.1620 C   0  0  0  0  0  0  0  0  0  0  0  0
   57.4960   28.7700   43.7410 C   0  0  0  0  0  0  0  0  0  0  0  0
   57.7630   27.7540   44.6720 C   0  0  0  0  0  0  0  0  0  0  0  0
   58.1010   28.0810   46.0000 C   0  0  0  0  0  0  0  0  0  0  0  0
   58.1750   29.4250   46.4000 C   0  0  0  0  0  0  0  0  0  0  0  0
   57.9200   30.4180   45.4470 C   0  0  0  0  0  0  0  0  0  0  0  0
   59.2546   35.9298   46.6039 H   0  0  0  0  0  0  0  0  0  0  0  0
   60.2916   35.9914   45.1385 H   0  0  0  0  0  0  0  0  0  0  0  0
   58.7949   34.9982   45.1385 H   0  0  0  0  0  0  0  0  0  0  0  0
   63.6705   31.6381   47.1665 H   0  0  0  0  0  0  0  0  0  0  0  0
   64.1859   33.2779   46.6354 H   0  0  0  0  0  0  0  0  0  0  0  0
   61.9889   34.3759   48.8588 H   0  0  0  0  0  0  0  0  0  0  0  0
   62.4534   35.0691   51.2109 H   0  0  0  0  0  0  0  0  0  0  0  0
   64.4732   34.2073   52.3957 H   0  0  0  0  0  0  0  0  0  0  0  0
   66.0376   32.6502   51.2269 H   0  0  0  0  0  0  0  0  0  0  0  0
   65.5842   31.9560   48.8748 H   0  0  0  0  0  0  0  0  0  0  0  0
   56.6591   33.0809   44.5022 H   0  0  0  0  0  0  0  0  0  0  0  0
   58.3704   33.1384   44.0420 H   0  0  0  0  0  0  0  0  0  0  0  0
   56.2759   31.3461   43.0045 H   0  0  0  0  0  0  0  0  0  0  0  0
   57.9445   31.4041   42.4699 H   0  0  0  0  0  0  0  0  0  0  0  0
   57.2274   28.5250   42.7028 H   0  0  0  0  0  0  0  0  0  0  0  0
   57.7082   26.6995   44.3638 H   0  0  0  0  0  0  0  0  0  0  0  0
   58.3076   27.2808   46.7260 H   0  0  0  0  0  0  0  0  0  0  0  0
   58.4272   29.6910   47.4371 H   0  0  0  0  0  0  0  0  0  0  0  0
  1  2  1  0
  2  3  2  0
  3  4  1  0
  4  5  1  0
  5  6  1  0
  6  7  2  0
  7  8  1  0
  8  9  2  0
  9 10  1  0
 10 11  2  0
  4 12  1  0
 12 13  1  0
 12 14  2  0
 14 15  1  0
 15 16  2  0
 15 17  1  0
 17 18  1  0
 18 19  1  0
 19 20  1  0
 20 21  2  0
 21 22  1  0
 22 23  2  0
 23 24  1  0
 24 25  2  0
 14  2  1  0
 25 17  1  0
 11  6  1  0
 25 20  1  0
  1 26  1  0
  1 27  1  0
  1 28  1  0
  5 29  1  0
  5 30  1  0
  7 31  1  0
  8 32  1  0
  9 33  1  0
 10 34  1  0
 11 35  1  0
 18 36  1  0
 18 37  1  0
 19 38  1  0
 19 39  1  0
 21 40  1  0
 22 41  1  0
 23 42  1  0
 24 43  1  0
M  END
>  <UniqueID>  (35) 
30

>  <SMILES>  (35) 
Cc1nn(Cc2ccccc2)c(Cl)c1C(=O)N1CCc2ccccc21

>  <Energy>  (35) 
95.72249908626189

>  <Genealogy>  (35) 
Cc1nn(Cc2ccccc2)c(Cl)c1C(=O)N1CCc2ccccc21 (3D coordinates assigned)
Cc1nn(Cc2ccccc2)c(Cl)c1C(=O)N1CCc2ccccc21 (nonaromatic ring conformer: 95.72249908626189 kcal/mol)

>  <smiles>  (35) 
Cc1nn(Cc2ccccc2)c(Cl)c1C(=O)N1CCc2ccccc21

>  <score_type>  (35) 
oracle

>  <origin>  (35) 
adg

>  <m_score__min__energy>  (35) 
-9.0999999999999996

>  <m_primary>  (35) 
energy

$$$$
36:0
     RDKit          3D

 29 31  0  0  0  0  0  0  0  0999 V2000
   55.0780   24.4550   45.4610 C   0  0  0  0  0  0  0  0  0  0  0  0
   55.2920   25.7570   45.9700 O   0  0  0  0  0  0  0  0  0  0  0  0
   56.5370   26.3270   45.8070 C   0  0  0  0  0  0  0  0  0  0  0  0
   57.6420   25.5180   45.8330 C   0  0  0  0  0  0  0  0  0  0  0  0
   58.8690   26.1040   45.6680 C   0  0  0  0  0  0  0  0  0  0  0  0
   58.9820   27.4900   45.4800 C   0  0  0  0  0  0  0  0  0  0  0  0
   60.7500   28.1530   45.2660 Br  0  0  0  0  0  0  0  0  0  0  0  0
   57.8890   28.3170   45.4500 C   0  0  0  0  0  0  0  0  0  0  0  0
   57.9320   29.7540   45.2600 C   0  0  0  0  0  0  0  0  0  0  0  0
   57.8080   30.6100   46.3140 N   0  0  0  0  0  0  0  0  0  0  0  0
   57.8770   31.8740   45.9020 C   0  0  0  0  0  0  0  0  0  0  0  0
   57.8010   33.0600   46.6080 C   0  0  0  0  0  0  0  0  0  0  0  0
   57.9100   34.2430   45.8790 C   0  0  0  0  0  0  0  0  0  0  0  0
   58.0860   34.2180   44.5110 C   0  0  0  0  0  0  0  0  0  0  0  0
   58.1600   33.0280   43.8180 C   0  0  0  0  0  0  0  0  0  0  0  0
   58.0510   31.8520   44.5410 C   0  0  0  0  0  0  0  0  0  0  0  0
   58.0780   30.5320   44.2030 N   0  0  0  0  0  0  0  0  0  0  0  0
   56.6510   27.6830   45.6220 C   0  0  0  0  0  0  0  0  0  0  0  0
   54.9620   23.7491   46.2966 H   0  0  0  0  0  0  0  0  0  0  0  0
   54.1665   24.4473   44.8452 H   0  0  0  0  0  0  0  0  0  0  0  0
   55.9390   24.1559   44.8452 H   0  0  0  0  0  0  0  0  0  0  0  0
   57.5470   24.4322   45.9817 H   0  0  0  0  0  0  0  0  0  0  0  0
   59.7757   25.4813   45.6830 H   0  0  0  0  0  0  0  0  0  0  0  0
   57.6604   33.0698   47.6989 H   0  0  0  0  0  0  0  0  0  0  0  0
   57.8549   35.2094   46.4015 H   0  0  0  0  0  0  0  0  0  0  0  0
   58.1691   35.1672   43.9614 H   0  0  0  0  0  0  0  0  0  0  0  0
   58.3009   33.0135   42.7272 H   0  0  0  0  0  0  0  0  0  0  0  0
   58.1990   30.2380   43.2310 H   0  0  0  0  0  0  0  0  0  0  0  0
   55.7366   28.2943   45.6083 H   0  0  0  0  0  0  0  0  0  0  0  0
  1  2  1  0
  2  3  1  0
  3  4  2  0
  4  5  1  0
  5  6  2  0
  6  7  1  0
  6  8  1  0
  8  9  1  0
  9 10  2  0
 10 11  1  0
 11 12  2  0
 12 13  1  0
 13 14  2  0
 14 15  1  0
 15 16  2  0
 16 17  1  0
  8 18  2  0
 18  3  1  0
 17  9  1  0
 16 11  1  0
  1 19  1  0
  1 20  1  0
  1 21  1  0
  4 22  1  0
  5 23  1  0
 12 24  1  0
 13 25  1  0
 14 26  1  0
 15 27  1  0
 17 28  1  0
 18 29  1  0
M  END
>  <smiles>  (36) 
COc1ccc(Br)c(-c2nc3ccccc3[nH]2)c1

>  <score_type>  (36) 
oracle

>  <origin>  (36) 
adg

>  <m_score__min__energy>  (36) 
-7.0099999999999998

>  <m_primary>  (36) 
energy

$$$$
37:0
     RDKit          3D

 35 37  0  0  0  0  0  0  0  0999 V2000
   59.9790   31.3040   50.5530 C   0  0  0  0  0  0  0  0  0  0  0  0
   59.8460   32.5490   49.7350 C   0  0  0  0  0  0  0  0  0  0  0  0
   59.6670   33.7720   50.2710 N   0  0  0  0  0  0  0  0  0  0  0  0
   59.6400   34.6200   49.2560 N   0  0  0  0  0  0  0  0  0  0  0  0
   59.7980   33.9210   48.1160 C   0  0  0  0  0  0  0  0  0  0  0  0
   59.8660   34.5440   46.7340 C   0  0  0  0  0  0  0  0  0  0  0  0
   58.5780   34.5400   45.9990 N   0  0  0  0  0  0  0  0  0  0  0  0
   58.7270   34.4140   44.5240 C   0  0  0  0  0  0  0  0  0  0  0  0
   58.1550   33.0930   44.1900 C   0  0  0  0  0  0  0  0  0  0  0  0
   58.1340   32.4100   42.9810 C   0  0  0  0  0  0  0  0  0  0  0  0
   57.5090   31.2000   42.9320 N   0  0  0  0  0  0  0  0  0  0  0  0
   56.9190   30.6630   44.0450 C   0  0  0  0  0  0  0  0  0  0  0  0
   56.2070   29.3550   43.9530 C   0  0  0  0  0  0  0  0  0  0  0  0
   55.1780   29.3230   44.8750 F   0  0  0  0  0  0  0  0  0  0  0  0
   56.9280   31.3530   45.2240 N   0  0  0  0  0  0  0  0  0  0  0  0
   57.5560   32.5530   45.2780 C   0  0  0  0  0  0  0  0  0  0  0  0
   57.6620   33.4580   46.4380 C   0  0  0  0  0  0  0  0  0  0  0  0
   59.9220   32.6010   48.3860 N   0  0  0  0  0  0  0  0  0  0  0  0
   60.2720   31.5130   47.4710 C   0  0  0  0  0  0  0  0  0  0  0  0
   59.9514   31.5628   51.6218 H   0  0  0  0  0  0  0  0  0  0  0  0
   59.1487   30.6214   50.3194 H   0  0  0  0  0  0  0  0  0  0  0  0
   60.9348   30.8122   50.3194 H   0  0  0  0  0  0  0  0  0  0  0  0
   59.5470   35.6520   49.3640 H   0  0  0  0  0  0  0  0  0  0  0  0
   60.1977   35.5872   46.8423 H   0  0  0  0  0  0  0  0  0  0  0  0
   60.5660   33.9318   46.1465 H   0  0  0  0  0  0  0  0  0  0  0  0
   58.1748   35.2148   44.0104 H   0  0  0  0  0  0  0  0  0  0  0  0
   59.7769   34.5002   44.2073 H   0  0  0  0  0  0  0  0  0  0  0  0
   58.6101   32.8352   42.0851 H   0  0  0  0  0  0  0  0  0  0  0  0
   55.7955   29.2323   42.9403 H   0  0  0  0  0  0  0  0  0  0  0  0
   56.9131   28.5384   44.1641 H   0  0  0  0  0  0  0  0  0  0  0  0
   56.6756   33.8688   46.6992 H   0  0  0  0  0  0  0  0  0  0  0  0
   58.0346   32.9395   47.3337 H   0  0  0  0  0  0  0  0  0  0  0  0
   60.5581   30.6235   48.0514 H   0  0  0  0  0  0  0  0  0  0  0  0
   59.4054   31.2740   46.8370 H   0  0  0  0  0  0  0  0  0  0  0  0
   61.1154   31.8241   46.8370 H   0  0  0  0  0  0  0  0  0  0  0  0
  1  2  1  0
  2  3  2  0
  3  4  1  0
  4  5  2  0
  5  6  1  0
  6  7  1  0
  7  8  1  0
  8  9  1  0
  9 10  2  0
 10 11  1  0
 11 12  2  0
 12 13  1  0
 13 14  1  0
 12 15  1  0
 15 16  2  0
 16 17  1  0
  5 18  1  0
 18 19  1  0
 18  2  1  0
 17  7  1  0
 16  9  1  0
  1 20  1  0
  1 21  1  0
  1 22  1  0
  4 23  1  0
  6 24  1  0
  6 25  1  0
  8 26  1  0
  8 27  1  0
 10 28  1  0
 13 29  1  0
 13 30  1  0
 17 31  1  0
 17 32  1  0
 19 33  1  0
 19 34  1  0
 19 35  1  0
M  CHG  1   4   1
M  END
>  <UniqueID>  (37) 
31

>  <SMILES>  (37) 
Cc1n[nH+]c(CN2Cc3cnc(CF)nc3C2)n1C

>  <Energy>  (37) 
87.14233980404475

>  <Genealogy>  (37) 
Cc1n[nH+]c(CN2Cc3cnc(CF)nc3C2)n1C (protonated)
Cc1n[nH+]c(CN2Cc3cnc(CF)nc3C2)n1C (3D coordinates assigned)
Cc1n[nH+]c(CN2Cc3cnc(CF)nc3C2)n1C (nonaromatic ring conformer: 87.14233980404475 kcal/mol)

>  <smiles>  (37) 
Cc1nnc(CN2Cc3cnc(CF)nc3C2)n1C

>  <score_type>  (37) 
oracle

>  <origin>  (37) 
adg

>  <m_score__min__energy>  (37) 
-5.7000000000000002

>  <m_primary>  (37) 
energy

$$$$
38:0
     RDKit          3D

 36 36  0  0  0  0  0  0  0  0999 V2000
   57.3720   31.4980   42.4740 C   0  0  0  0  0  0  0  0  0  0  0  0
   57.7740   31.0660   43.8910 C   0  0  2  0  0  0  0  0  0  0  0  0
   56.7160   30.2060   44.5240 C   0  0  0  0  0  0  0  0  0  0  0  0
   55.5060   30.5580   44.4920 O   0  0  0  0  0  0  0  0  0  0  0  0
   57.0960   29.0290   45.1750 O   0  0  0  0  0  0  0  0  0  0  0  0
   58.4540   28.7090   45.4590 C   0  0  0  0  0  0  0  0  0  0  0  0
   58.9580   27.6230   44.4960 C   0  0  0  0  0  0  0  0  0  0  0  0
   57.8640   26.9010   43.7990 N   0  0  0  0  0  0  0  0  0  0  0  0
   57.6650   25.5800   44.4230 C   0  0  0  0  0  0  0  0  0  0  0  0
   58.1500   26.7310   42.3590 C   0  0  0  0  0  0  0  0  0  0  0  0
   58.0970   32.2510   44.7840 C   0  0  0  0  0  0  0  0  0  0  0  0
   58.5600   33.4700   44.2460 C   0  0  0  0  0  0  0  0  0  0  0  0
   58.8330   34.5550   45.0840 C   0  0  0  0  0  0  0  0  0  0  0  0
   58.6360   34.4440   46.4620 C   0  0  0  0  0  0  0  0  0  0  0  0
   58.1620   33.2480   47.0050 C   0  0  0  0  0  0  0  0  0  0  0  0
   57.8910   32.1570   46.1730 C   0  0  0  0  0  0  0  0  0  0  0  0
   56.6238   32.3021   42.5342 H   0  0  0  0  0  0  0  0  0  0  0  0
   58.2596   31.8626   41.9362 H   0  0  0  0  0  0  0  0  0  0  0  0
   56.9446   30.6389   41.9362 H   0  0  0  0  0  0  0  0  0  0  0  0
   58.6920   30.4691   43.7861 H   0  0  0  0  0  0  0  0  0  0  0  0
   59.0715   29.6119   45.3431 H   0  0  0  0  0  0  0  0  0  0  0  0
   58.5253   28.3339   46.4906 H   0  0  0  0  0  0  0  0  0  0  0  0
   59.5999   28.0980   43.7395 H   0  0  0  0  0  0  0  0  0  0  0  0
   59.5045   26.8823   45.0983 H   0  0  0  0  0  0  0  0  0  0  0  0
   56.9670   27.4330   43.9000 H   0  0  0  0  0  0  0  0  0  0  0  0
   57.6809   25.6855   45.5178 H   0  0  0  0  0  0  0  0  0  0  0  0
   56.6947   25.1683   44.1084 H   0  0  0  0  0  0  0  0  0  0  0  0
   58.4709   24.9007   44.1084 H   0  0  0  0  0  0  0  0  0  0  0  0
   59.0896   26.1725   42.2352 H   0  0  0  0  0  0  0  0  0  0  0  0
   57.3277   26.1749   41.8850 H   0  0  0  0  0  0  0  0  0  0  0  0
   58.2456   27.7190   41.8850 H   0  0  0  0  0  0  0  0  0  0  0  0
   58.7071   33.5674   43.1602 H   0  0  0  0  0  0  0  0  0  0  0  0
   59.2039   35.4984   44.6570 H   0  0  0  0  0  0  0  0  0  0  0  0
   58.8541   35.2984   47.1195 H   0  0  0  0  0  0  0  0  0  0  0  0
   58.0013   33.1638   48.0899 H   0  0  0  0  0  0  0  0  0  0  0  0
   57.5143   31.2191   46.6072 H   0  0  0  0  0  0  0  0  0  0  0  0
  1  2  1  0
  2  3  1  0
  3  4  2  0
  3  5  1  0
  5  6  1  0
  6  7  1  0
  7  8  1  0
  8  9  1  0
  8 10  1  0
  2 11  1  0
 11 12  2  0
 12 13  1  0
 13 14  2  0
 14 15  1  0
 15 16  2  0
 16 11  1  0
  1 17  1  0
  1 18  1  0
  1 19  1  0
  2 20  1  6
  6 21  1  0
  6 22  1  0
  7 23  1  0
  7 24  1  0
  8 25  1  0
  9 26  1  0
  9 27  1  0
  9 28  1  0
 10 29  1  0
 10 30  1  0
 10 31  1  0
 12 32  1  0
 13 33  1  0
 14 34  1  0
 15 35  1  0
 16 36  1  0
M  CHG  1   8   1
M  END
>  <UniqueID>  (38) 
32

>  <SMILES>  (38) 
C[C@H](C(=O)OCC[NH+](C)C)c1ccccc1

>  <Energy>  (38) 
29.518246043888162

>  <Genealogy>  (38) 
CC(C(=O)OCC[NH+](C)C)c1ccccc1 (protonated)
C[C@H](C(=O)OCC[NH+](C)C)c1ccccc1 (chirality)
C[C@H](C(=O)OCC[NH+](C)C)c1ccccc1 (3D coordinates assigned)
C[C@H](C(=O)OCC[NH+](C)C)c1ccccc1 (optimized conformer: 29.518246043888162 kcal/mol)

>  <smiles>  (38) 
CC(C(=O)OCCN(C)C)c1ccccc1

>  <score_type>  (38) 
oracle

>  <origin>  (38) 
adg

>  <m_score__min__energy>  (38) 
-4.6399999999999997

>  <m_primary>  (38) 
energy

$$$$
39:0
     RDKit          3D

 42 44  0  0  0  0  0  0  0  0999 V2000
   65.1750   32.7340   49.7660 C   0  0  0  0  0  0  0  0  0  0  0  0
   64.1810   33.7520   49.7090 O   0  0  0  0  0  0  0  0  0  0  0  0
   63.0210   33.6830   48.9240 C   0  0  0  0  0  0  0  0  0  0  0  0
   61.7370   33.9210   49.4500 C   0  0  0  0  0  0  0  0  0  0  0  0
   60.6100   33.8380   48.6250 C   0  0  0  0  0  0  0  0  0  0  0  0
   60.7490   33.5170   47.2670 C   0  0  0  0  0  0  0  0  0  0  0  0
   59.5880   33.4240   46.4190 N   0  0  0  0  0  0  0  0  0  0  0  0
   59.0960   34.6050   45.7550 C   0  0  0  0  0  0  0  0  0  0  0  0
   59.6610   35.7210   45.9180 O   0  0  0  0  0  0  0  0  0  0  0  0
   57.8800   34.5170   44.8820 C   0  0  0  0  0  0  0  0  0  0  0  0
   57.8740   33.1910   44.1180 C   0  0  0  0  0  0  0  0  0  0  0  0
   58.0810   32.0230   45.0510 C   0  0  0  0  0  0  0  0  0  0  0  0
   57.4730   30.7910   44.7770 C   0  0  0  0  0  0  0  0  0  0  0  0
   57.6850   29.6830   45.6180 C   0  0  0  0  0  0  0  0  0  0  0  0
   57.0840   28.4380   45.3760 O   0  0  0  0  0  0  0  0  0  0  0  0
   57.7610   27.3040   44.8430 C   0  0  0  0  0  0  0  0  0  0  0  0
   58.5190   29.8130   46.7370 C   0  0  0  0  0  0  0  0  0  0  0  0
   58.7040   28.6920   47.5620 O   0  0  0  0  0  0  0  0  0  0  0  0
   59.7370   28.5650   48.5340 C   0  0  0  0  0  0  0  0  0  0  0  0
   59.1440   31.0450   47.0020 C   0  0  0  0  0  0  0  0  0  0  0  0
   58.9500   32.1510   46.1540 C   0  0  0  0  0  0  0  0  0  0  0  0
   62.0290   33.2810   46.7420 C   0  0  0  0  0  0  0  0  0  0  0  0
   63.1540   33.3640   47.5670 C   0  0  0  0  0  0  0  0  0  0  0  0
   65.4020   32.5016   50.8169 H   0  0  0  0  0  0  0  0  0  0  0  0
   64.8029   31.8295   49.2625 H   0  0  0  0  0  0  0  0  0  0  0  0
   66.0881   33.0845   49.2625 H   0  0  0  0  0  0  0  0  0  0  0  0
   61.6193   34.1733   50.5142 H   0  0  0  0  0  0  0  0  0  0  0  0
   59.6102   34.0254   49.0436 H   0  0  0  0  0  0  0  0  0  0  0  0
   56.9777   34.5799   45.5080 H   0  0  0  0  0  0  0  0  0  0  0  0
   57.8947   35.3473   44.1606 H   0  0  0  0  0  0  0  0  0  0  0  0
   56.9066   33.0754   43.6074 H   0  0  0  0  0  0  0  0  0  0  0  0
   58.6978   33.2050   43.3892 H   0  0  0  0  0  0  0  0  0  0  0  0
   56.8232   30.6888   43.8954 H   0  0  0  0  0  0  0  0  0  0  0  0
   58.1342   26.6788   45.6675 H   0  0  0  0  0  0  0  0  0  0  0  0
   57.0647   26.7183   44.2249 H   0  0  0  0  0  0  0  0  0  0  0  0
   58.6070   27.6391   44.2249 H   0  0  0  0  0  0  0  0  0  0  0  0
   59.3004   28.6187   49.5422 H   0  0  0  0  0  0  0  0  0  0  0  0
   60.2447   27.5977   48.4053 H   0  0  0  0  0  0  0  0  0  0  0  0
   60.4639   29.3805   48.4053 H   0  0  0  0  0  0  0  0  0  0  0  0
   59.7933   31.1452   47.8842 H   0  0  0  0  0  0  0  0  0  0  0  0
   62.1471   33.0299   45.6776 H   0  0  0  0  0  0  0  0  0  0  0  0
   64.1531   33.1770   47.1465 H   0  0  0  0  0  0  0  0  0  0  0  0
  1  2  1  0
  2  3  1  0
  3  4  2  0
  4  5  1  0
  5  6  2  0
  6  7  1  0
  7  8  1  0
  8  9  2  0
  8 10  1  0
 10 11  1  0
 11 12  1  0
 12 13  2  0
 13 14  1  0
 14 15  1  0
 15 16  1  0
 14 17  2  0
 17 18  1  0
 18 19  1  0
 17 20  1  0
 20 21  2  0
  6 22  1  0
 22 23  2  0
 23  3  1  0
 21  7  1  0
 21 12  1  0
  1 24  1  0
  1 25  1  0
  1 26  1  0
  4 27  1  0
  5 28  1  0
 10 29  1  0
 10 30  1  0
 11 31  1  0
 11 32  1  0
 13 33  1  0
 16 34  1  0
 16 35  1  0
 16 36  1  0
 19 37  1  0
 19 38  1  0
 19 39  1  0
 20 40  1  0
 22 41  1  0
 23 42  1  0
M  END
>  <UniqueID>  (39) 
33

>  <SMILES>  (39) 
COc1ccc(N2C(=O)CCc3cc(OC)c(OC)cc32)cc1

>  <Energy>  (39) 
50.433288606728674

>  <Genealogy>  (39) 
COc1ccc(N2C(=O)CCc3cc(OC)c(OC)cc32)cc1 (3D coordinates assigned)
COc1ccc(N2C(=O)CCc3cc(OC)c(OC)cc32)cc1 (nonaromatic ring conformer: 50.433288606728674 kcal/mol)

>  <smiles>  (39) 
COc1ccc(N2C(=O)CCc3cc(OC)c(OC)cc32)cc1

>  <score_type>  (39) 
oracle

>  <origin>  (39) 
adg

>  <m_score__min__energy>  (39) 
-6.6900000000000004

>  <m_primary>  (39) 
energy

$$$$
40:0
     RDKit          3D

 40 40  0  0  0  0  0  0  0  0999 V2000
   58.3266   29.5256   44.1239 H   0  0  0  0  0  0  0  0  0  0  0  0
   57.5050   30.2560   44.1620 C   0  0  0  0  0  0  0  0  0  0  0  0
   56.1810   29.7600   44.6270 C   0  0  0  0  0  0  0  0  0  0  0  0
   55.1450   30.4570   44.4760 O   0  0  0  0  0  0  0  0  0  0  0  0
   56.0400   28.4730   45.2430 N   0  0  0  0  0  0  0  0  0  0  0  0
   57.1080   27.5060   45.4840 C   0  0  0  0  0  0  0  0  0  0  0  0
   56.6611   26.5179   45.6684 H   0  0  0  0  0  0  0  0  0  0  0  0
   57.7587   27.4811   44.5974 H   0  0  0  0  0  0  0  0  0  0  0  0
   57.9650   27.9050   46.7040 C   0  0  0  0  0  0  0  0  0  0  0  0
   57.5219   28.8108   47.1436 H   0  0  0  0  0  0  0  0  0  0  0  0
   57.9570   27.0285   47.3686 H   0  0  0  0  0  0  0  0  0  0  0  0
   59.4720   28.2010   46.4210 C   0  0  0  0  0  0  0  0  0  0  0  0
   59.7800   28.1090   44.9110 C   0  0  0  0  0  0  0  0  0  0  0  0
   60.8251   27.7968   44.7683 H   0  0  0  0  0  0  0  0  0  0  0  0
   59.1101   27.3717   44.4444 H   0  0  0  0  0  0  0  0  0  0  0  0
   59.6242   29.0929   44.4444 H   0  0  0  0  0  0  0  0  0  0  0  0
   60.3140   27.1340   47.1530 C   0  0  0  0  0  0  0  0  0  0  0  0
   60.2094   27.2666   48.2400 H   0  0  0  0  0  0  0  0  0  0  0  0
   59.9612   26.1312   46.8703 H   0  0  0  0  0  0  0  0  0  0  0  0
   61.3714   27.2439   46.8703 H   0  0  0  0  0  0  0  0  0  0  0  0
   59.8830   29.5910   46.9470 C   0  0  0  0  0  0  0  0  0  0  0  0
   59.8804   29.5823   48.0470 H   0  0  0  0  0  0  0  0  0  0  0  0
   60.8922   29.8365   46.5846 H   0  0  0  0  0  0  0  0  0  0  0  0
   59.1696   30.3458   46.5846 H   0  0  0  0  0  0  0  0  0  0  0  0
   57.7910   31.5220   43.7820 C   0  0  0  0  0  0  0  0  0  0  0  0
   58.1800   32.5190   44.8150 C   0  0  0  0  0  0  0  0  0  0  0  0
   58.8580   33.6940   44.4460 C   0  0  0  0  0  0  0  0  0  0  0  0
   59.1059   33.8733   43.3894 H   0  0  0  0  0  0  0  0  0  0  0  0
   59.2190   34.6360   45.4140 C   0  0  0  0  0  0  0  0  0  0  0  0
   59.7506   35.5521   45.1171 H   0  0  0  0  0  0  0  0  0  0  0  0
   58.9060   34.4160   46.7570 C   0  0  0  0  0  0  0  0  0  0  0  0
   59.1903   35.1587   47.5170 H   0  0  0  0  0  0  0  0  0  0  0  0
   58.2320   33.2530   47.1350 C   0  0  0  0  0  0  0  0  0  0  0  0
   57.9870   33.0802   48.1934 H   0  0  0  0  0  0  0  0  0  0  0  0
   57.8680   32.3080   46.1720 C   0  0  0  0  0  0  0  0  0  0  0  0
   57.3351   31.3948   46.4754 H   0  0  0  0  0  0  0  0  0  0  0  0
   57.7480   31.9650   42.3420 C   0  0  0  0  0  0  0  0  0  0  0  0
   57.6418   33.0590   42.2979 H   0  0  0  0  0  0  0  0  0  0  0  0
   58.6793   31.6664   41.8386 H   0  0  0  0  0  0  0  0  0  0  0  0
   56.8915   31.4929   41.8386 H   0  0  0  0  0  0  0  0  0  0  0  0
  1  2  1  0
  2  3  1  0
  3  4  2  0
  3  5  1  0
  5  6  1  0
  6  7  1  0
  6  8  1  0
  6  9  1  0
  9 10  1  0
  9 11  1  0
  9 12  1  0
 12 13  1  0
 13 14  1  0
 13 15  1  0
 13 16  1  0
 12 17  1  0
 17 18  1  0
 17 19  1  0
 17 20  1  0
 12 21  1  0
 21 22  1  0
 21 23  1  0
 21 24  1  0
  2 25  2  0
 25 26  1  0
 26 27  2  0
 27 28  1  0
 27 29  1  0
 29 30  1  0
 29 31  2  0
 31 32  1  0
 31 33  1  0
 33 34  1  0
 33 35  2  0
 35 36  1  0
 25 37  1  0
 37 38  1  0
 37 39  1  0
 37 40  1  0
 35 26  1  0
M  CHG  1   5  -1
M  END
>  <UniqueID>  (40) 
34

>  <SMILES>  (40) 
C/C(=C\C(=O)[N-]CCC(C)(C)C)c1ccccc1

>  <Energy>  (40) 
40.06603540241927

>  <Genealogy>  (40) 
CC(=CC(=O)[N-]CCC(C)(C)C)c1ccccc1 (protonated)
C/C(=C\C(=O)[N-]CCC(C)(C)C)c1ccccc1 (cis-trans isomerization)
C/C(=C\C(=O)[N-]CCC(C)(C)C)c1ccccc1 (3D coordinates assigned)
C/C(=C\C(=O)[N-]CCC(C)(C)C)c1ccccc1 (optimized conformer: 40.06603540241927 kcal/mol)

>  <smiles>  (40) 
CC(=CC(=O)NCCC(C)(C)C)c1ccccc1

>  <score_type>  (40) 
oracle

>  <origin>  (40) 
adg

>  <m_score__min__energy>  (40) 
-9.0199999999999996

>  <m_primary>  (40) 
energy

$$$$
41:0
     RDKit          3D

 57 60  0  0  0  0  0  0  0  0999 V2000
   61.3620   33.4070   50.0410 C   0  0  0  0  0  0  0  0  0  0  0  0
   61.3410   31.8980   50.3140 C   0  0  0  0  0  0  0  0  0  0  0  0
   62.2640   31.1460   49.4190 N   0  0  0  0  0  0  0  0  0  0  0  0
   63.3950   32.0180   48.9970 C   0  0  0  0  0  0  0  0  0  0  0  0
   63.4010   32.2700   47.4850 C   0  0  0  0  0  0  0  0  0  0  0  0
   61.5300   30.6410   48.2280 C   0  0  0  0  0  0  0  0  0  0  0  0
   60.0210   30.4710   48.4970 C   0  0  0  0  0  0  0  0  0  0  0  0
   59.3020   30.2420   47.2380 N   0  0  0  0  0  0  0  0  0  0  0  0
   58.7770   29.0460   46.8580 C   0  0  0  0  0  0  0  0  0  0  0  0
   58.9230   27.8040   47.4870 C   0  0  0  0  0  0  0  0  0  0  0  0
   58.2690   26.6780   46.9270 C   0  0  0  0  0  0  0  0  0  0  0  0
   58.3710   25.4020   47.5020 O   0  0  0  0  0  0  0  0  0  0  0  0
   57.2590   24.5870   47.8590 C   0  0  0  0  0  0  0  0  0  0  0  0
   57.4850   26.8230   45.7560 C   0  0  0  0  0  0  0  0  0  0  0  0
   56.8520   25.6840   45.2380 O   0  0  0  0  0  0  0  0  0  0  0  0
   57.3710   24.8860   44.1780 C   0  0  0  0  0  0  0  0  0  0  0  0
   57.3610   28.0910   45.1410 C   0  0  0  0  0  0  0  0  0  0  0  0
   58.0250   29.1700   45.7190 C   0  0  0  0  0  0  0  0  0  0  0  0
   58.0870   30.4920   45.3560 C   0  0  0  0  0  0  0  0  0  0  0  0
   57.4580   31.1500   44.3060 C   0  0  0  0  0  0  0  0  0  0  0  0
   57.6630   32.5240   44.1720 C   0  0  0  0  0  0  0  0  0  0  0  0
   58.5230   33.2150   45.0530 C   0  0  0  0  0  0  0  0  0  0  0  0
   58.7390   34.5890   44.8610 C   0  0  0  0  0  0  0  0  0  0  0  0
   59.6350   35.2820   45.6720 C   0  0  0  0  0  0  0  0  0  0  0  0
   60.3410   34.6080   46.6650 C   0  0  0  0  0  0  0  0  0  0  0  0
   60.1380   33.2430   46.8780 C   0  0  0  0  0  0  0  0  0  0  0  0
   59.1940   32.5230   46.1130 C   0  0  0  0  0  0  0  0  0  0  0  0
   58.9060   31.1360   46.2750 C   0  0  0  0  0  0  0  0  0  0  0  0
   61.3696   33.9524   50.9963 H   0  0  0  0  0  0  0  0  0  0  0  0
   62.2638   33.6630   49.4655 H   0  0  0  0  0  0  0  0  0  0  0  0
   60.4677   33.6880   49.4655 H   0  0  0  0  0  0  0  0  0  0  0  0
   61.6411   31.7237   51.3578 H   0  0  0  0  0  0  0  0  0  0  0  0
   60.3198   31.5368   50.1224 H   0  0  0  0  0  0  0  0  0  0  0  0
   62.6490   30.3280   49.9490 H   0  0  0  0  0  0  0  0  0  0  0  0
   63.3102   32.9839   49.5165 H   0  0  0  0  0  0  0  0  0  0  0  0
   64.3321   31.5038   49.2567 H   0  0  0  0  0  0  0  0  0  0  0  0
   63.4268   33.3530   47.2939 H   0  0  0  0  0  0  0  0  0  0  0  0
   64.2882   31.7976   47.0381 H   0  0  0  0  0  0  0  0  0  0  0  0
   62.4924   31.8403   47.0381 H   0  0  0  0  0  0  0  0  0  0  0  0
   61.6635   31.3548   47.4017 H   0  0  0  0  0  0  0  0  0  0  0  0
   61.9396   29.6518   47.9757 H   0  0  0  0  0  0  0  0  0  0  0  0
   59.8661   29.6109   49.1650 H   0  0  0  0  0  0  0  0  0  0  0  0
   59.6358   31.3876   48.9675 H   0  0  0  0  0  0  0  0  0  0  0  0
   59.5327   27.7039   48.3971 H   0  0  0  0  0  0  0  0  0  0  0  0
   57.1824   24.5309   48.9549 H   0  0  0  0  0  0  0  0  0  0  0  0
   56.3369   25.0247   47.4489 H   0  0  0  0  0  0  0  0  0  0  0  0
   57.3988   23.5759   47.4489 H   0  0  0  0  0  0  0  0  0  0  0  0
   57.9253   24.0338   44.5981 H   0  0  0  0  0  0  0  0  0  0  0  0
   56.5413   24.5144   43.5587 H   0  0  0  0  0  0  0  0  0  0  0  0
   58.0471   25.4937   43.5587 H   0  0  0  0  0  0  0  0  0  0  0  0
   56.7566   28.2210   44.2312 H   0  0  0  0  0  0  0  0  0  0  0  0
   56.8161   30.6029   43.5998 H   0  0  0  0  0  0  0  0  0  0  0  0
   57.1486   33.0749   43.3708 H   0  0  0  0  0  0  0  0  0  0  0  0
   58.1974   35.1215   44.0653 H   0  0  0  0  0  0  0  0  0  0  0  0
   59.7848   36.3622   45.5278 H   0  0  0  0  0  0  0  0  0  0  0  0
   61.0647   35.1554   47.2868 H   0  0  0  0  0  0  0  0  0  0  0  0
   60.7209   32.7217   47.6516 H   0  0  0  0  0  0  0  0  0  0  0  0
  1  2  1  0
  2  3  1  0
  3  4  1  0
  4  5  1  0
  3  6  1  0
  6  7  1  0
  7  8  1  0
  8  9  1  0
  9 10  2  0
 10 11  1  0
 11 12  1  0
 12 13  1  0
 11 14  2  0
 14 15  1  0
 15 16  1  0
 14 17  1  0
 17 18  2  0
 18 19  1  0
 19 20  2  0
 20 21  1  0
 21 22  2  0
 22 23  1  0
 23 24  2  0
 24 25  1  0
 25 26  2  0
 26 27  1  0
 27 28  2  0
 28  8  1  0
 18  9  1  0
 28 19  1  0
 27 22  1  0
  1 29  1  0
  1 30  1  0
  1 31  1  0
  2 32  1  0
  2 33  1  0
  3 34  1  0
  4 35  1  0
  4 36  1  0
  5 37  1  0
  5 38  1  0
  5 39  1  0
  6 40  1  0
  6 41  1  0
  7 42  1  0
  7 43  1  0
 10 44  1  0
 13 45  1  0
 13 46  1  0
 13 47  1  0
 16 48  1  0
 16 49  1  0
 16 50  1  0
 17 51  1  0
 20 52  1  0
 21 53  1  0
 23 54  1  0
 24 55  1  0
 25 56  1  0
 26 57  1  0
M  CHG  1   3   1
M  END
>  <UniqueID>  (41) 
35

>  <SMILES>  (41) 
CC[NH+](CC)CCn1c2cc(OC)c(OC)cc2c2ccc3ccccc3c21

>  <Energy>  (41) 
111.69891353425649

>  <Genealogy>  (41) 
CC[NH+](CC)CCn1c2cc(OC)c(OC)cc2c2ccc3ccccc3c21 (protonated)
CC[NH+](CC)CCn1c2cc(OC)c(OC)cc2c2ccc3ccccc3c21 (3D coordinates assigned)
CC[NH+](CC)CCn1c2cc(OC)c(OC)cc2c2ccc3ccccc3c21 (optimized conformer: 111.69891353425649 kcal/mol)

>  <smiles>  (41) 
CCN(CC)CCn1c2cc(OC)c(OC)cc2c2ccc3ccccc3c21

>  <score_type>  (41) 
oracle

>  <origin>  (41) 
adg

>  <m_score__min__energy>  (41) 
-5.9400000000000004

>  <m_primary>  (41) 
energy

$$$$
42:0
     RDKit          3D

 53 56  0  0  0  0  0  0  0  0999 V2000
   57.8690   31.9860   50.4570 C   0  0  0  0  0  0  0  0  0  0  0  0
   59.0320   31.6230   49.7220 O   0  0  0  0  0  0  0  0  0  0  0  0
   60.3540   31.6270   50.2000 C   0  0  0  0  0  0  0  0  0  0  0  0
   60.6190   32.4440   51.3080 C   0  0  0  0  0  0  0  0  0  0  0  0
   61.8940   32.4970   51.8740 C   0  0  0  0  0  0  0  0  0  0  0  0
   62.9290   31.7400   51.3320 C   0  0  0  0  0  0  0  0  0  0  0  0
   62.6950   30.9350   50.2160 C   0  0  0  0  0  0  0  0  0  0  0  0
   61.4180   30.8700   49.6360 C   0  0  0  0  0  0  0  0  0  0  0  0
   61.2480   30.0960   48.4390 N   0  0  0  0  0  0  0  0  0  0  0  0
   61.5690   30.6730   47.1380 C   0  0  0  0  0  0  0  0  0  0  0  0
   60.2760   31.0120   46.3790 C   0  0  0  0  0  0  0  0  0  0  0  0
   59.2660   29.9190   46.3840 N   0  0  0  0  0  0  0  0  0  0  0  0
   59.3350   28.9910   45.2220 C   0  0  0  0  0  0  0  0  0  0  0  0
   58.1300   28.0490   45.0480 C   0  0  0  0  0  0  0  0  0  0  0  0
   56.8120   28.8130   45.2010 C   0  0  0  0  0  0  0  0  0  0  0  0
   56.4550   29.8150   43.7150 S   0  0  0  0  0  0  0  0  0  0  0  0
   57.2720   31.2900   44.3190 C   0  0  0  0  0  0  0  0  0  0  0  0
   57.2590   31.6670   45.6210 N   0  0  0  0  0  0  0  0  0  0  0  0
   57.9560   32.8170   45.7960 C   0  0  0  0  0  0  0  0  0  0  0  0
   58.1240   33.4600   47.0240 C   0  0  0  0  0  0  0  0  0  0  0  0
   58.8750   34.6480   47.0670 C   0  0  0  0  0  0  0  0  0  0  0  0
   59.4430   35.1770   45.8900 C   0  0  0  0  0  0  0  0  0  0  0  0
   59.2630   34.5240   44.6590 C   0  0  0  0  0  0  0  0  0  0  0  0
   58.5160   33.3490   44.6440 C   0  0  0  0  0  0  0  0  0  0  0  0
   58.1360   32.3660   43.3390 S   0  0  0  0  0  0  0  0  0  0  0  0
   59.0710   29.2520   47.7020 C   0  0  0  0  0  0  0  0  0  0  0  0
   60.3710   28.9300   48.4500 C   0  0  0  0  0  0  0  0  0  0  0  0
   58.0807   31.9199   51.5344 H   0  0  0  0  0  0  0  0  0  0  0  0
   57.5812   33.0167   50.2024 H   0  0  0  0  0  0  0  0  0  0  0  0
   57.0460   31.3020   50.2024 H   0  0  0  0  0  0  0  0  0  0  0  0
   59.8099   33.0526   51.7380 H   0  0  0  0  0  0  0  0  0  0  0  0
   62.0810   33.1373   52.7487 H   0  0  0  0  0  0  0  0  0  0  0  0
   63.9315   31.7763   51.7834 H   0  0  0  0  0  0  0  0  0  0  0  0
   63.5189   30.3459   49.7868 H   0  0  0  0  0  0  0  0  0  0  0  0
   62.1580   31.5908   47.2820 H   0  0  0  0  0  0  0  0  0  0  0  0
   62.1499   29.9443   46.5536 H   0  0  0  0  0  0  0  0  0  0  0  0
   59.8253   31.9013   46.8437 H   0  0  0  0  0  0  0  0  0  0  0  0
   60.5582   31.1792   45.3291 H   0  0  0  0  0  0  0  0  0  0  0  0
   58.3550   30.4160   46.2250 H   0  0  0  0  0  0  0  0  0  0  0  0
   59.4239   29.5983   44.3092 H   0  0  0  0  0  0  0  0  0  0  0  0
   60.2008   28.3390   45.4098 H   0  0  0  0  0  0  0  0  0  0  0  0
   58.1691   27.5955   44.0466 H   0  0  0  0  0  0  0  0  0  0  0  0
   58.1773   27.2712   45.8244 H   0  0  0  0  0  0  0  0  0  0  0  0
   55.9948   28.0925   45.3531 H   0  0  0  0  0  0  0  0  0  0  0  0
   56.8983   29.4884   46.0649 H   0  0  0  0  0  0  0  0  0  0  0  0
   57.6776   33.0453   47.9398 H   0  0  0  0  0  0  0  0  0  0  0  0
   59.0203   35.1681   48.0253 H   0  0  0  0  0  0  0  0  0  0  0  0
   60.0303   36.1060   45.9357 H   0  0  0  0  0  0  0  0  0  0  0  0
   59.6994   34.9292   43.7341 H   0  0  0  0  0  0  0  0  0  0  0  0
   58.4647   29.9152   48.3364 H   0  0  0  0  0  0  0  0  0  0  0  0
   58.5815   28.2887   47.4960 H   0  0  0  0  0  0  0  0  0  0  0  0
   60.1366   28.6589   49.4900 H   0  0  0  0  0  0  0  0  0  0  0  0
   60.8776   28.0892   47.9535 H   0  0  0  0  0  0  0  0  0  0  0  0
  1  2  1  0
  2  3  1  0
  3  4  2  0
  4  5  1  0
  5  6  2  0
  6  7  1  0
  7  8  2  0
  8  9  1  0
  9 10  1  0
 10 11  1  0
 11 12  1  0
 12 13  1  0
 13 14  1  0
 14 15  1  0
 15 16  1  0
 16 17  1  0
 17 18  2  0
 18 19  1  0
 19 20  2  0
 20 21  1  0
 21 22  2  0
 22 23  1  0
 23 24  2  0
 24 25  1  0
 12 26  1  0
 26 27  1  0
  8  3  1  0
 27  9  1  0
 25 17  1  0
 24 19  1  0
  1 28  1  0
  1 29  1  0
  1 30  1  0
  4 31  1  0
  5 32  1  0
  6 33  1  0
  7 34  1  0
 10 35  1  0
 10 36  1  0
 11 37  1  0
 11 38  1  0
 12 39  1  0
 13 40  1  0
 13 41  1  0
 14 42  1  0
 14 43  1  0
 15 44  1  0
 15 45  1  0
 20 46  1  0
 21 47  1  0
 22 48  1  0
 23 49  1  0
 26 50  1  0
 26 51  1  0
 27 52  1  0
 27 53  1  0
M  CHG  1  12   1
M  END
>  <UniqueID>  (42) 
36

>  <SMILES>  (42) 
COc1ccccc1N1CC[NH+](CCCSc2nc3ccccc3s2)CC1

>  <Energy>  (42) 
103.45008733808493

>  <Genealogy>  (42) 
COc1ccccc1N1CC[NH+](CCCSc2nc3ccccc3s2)CC1 (protonated)
COc1ccccc1N1CC[NH+](CCCSc2nc3ccccc3s2)CC1 (3D coordinates assigned)
COc1ccccc1N1CC[NH+](CCCSc2nc3ccccc3s2)CC1 (nonaromatic ring conformer: 103.45008733808493 kcal/mol)

>  <smiles>  (42) 
COc1ccccc1N1CCN(CCCSc2nc3ccccc3s2)CC1

>  <score_type>  (42) 
oracle

>  <origin>  (42) 
adg

>  <m_score__min__energy>  (42) 
-6.5300000000000002

>  <m_primary>  (42) 
energy

$$$$
43:0
     RDKit          3D

 36 37  0  0  0  0  0  0  0  0999 V2000
   58.1060   32.9810   47.4930 C   0  0  0  0  0  0  0  0  0  0  0  0
   57.4250   33.8300   46.4080 C   0  0  0  0  0  0  0  0  0  0  0  0
   58.3100   34.2130   45.2830 N   0  0  0  0  0  0  0  0  0  0  0  0
   59.4440   35.0880   45.6220 C   0  0  0  0  0  0  0  0  0  0  0  0
   58.6120   33.1470   44.3020 C   0  0  0  0  0  0  0  0  0  0  0  0
   57.3960   32.3270   43.8500 C   0  0  0  0  0  0  0  0  0  0  0  0
   56.9240   31.5030   44.9110 O   0  0  0  0  0  0  0  0  0  0  0  0
   57.4070   30.2140   45.1920 C   0  0  0  0  0  0  0  0  0  0  0  0
   58.7710   29.9770   45.4890 C   0  0  0  0  0  0  0  0  0  0  0  0
   59.1770   28.6710   45.7490 C   0  0  0  0  0  0  0  0  0  0  0  0
   58.3030   27.6270   45.7250 C   0  0  0  0  0  0  0  0  0  0  0  0
   56.9520   27.8200   45.4420 C   0  0  0  0  0  0  0  0  0  0  0  0
   56.4990   29.1250   45.1750 C   0  0  0  0  0  0  0  0  0  0  0  0
   55.1460   29.3210   44.8980 O   0  0  0  0  0  0  0  0  0  0  0  0
   59.0140   26.3610   46.0370 C   0  0  0  0  0  0  0  0  0  0  0  0
   60.4720   26.8380   46.2510 C   0  0  0  0  0  0  0  0  0  0  0  0
   60.4540   28.2510   46.0520 O   0  0  0  0  0  0  0  0  0  0  0  0
   57.8103   33.3496   48.4863 H   0  0  0  0  0  0  0  0  0  0  0  0
   57.7969   31.9309   47.3846 H   0  0  0  0  0  0  0  0  0  0  0  0
   59.1982   33.0548   47.3846 H   0  0  0  0  0  0  0  0  0  0  0  0
   56.5808   33.2544   46.0006 H   0  0  0  0  0  0  0  0  0  0  0  0
   57.1123   34.7663   46.8933 H   0  0  0  0  0  0  0  0  0  0  0  0
   59.5374   35.1601   46.7157 H   0  0  0  0  0  0  0  0  0  0  0  0
   60.3697   34.6679   45.2018 H   0  0  0  0  0  0  0  0  0  0  0  0
   59.2724   36.0900   45.2018 H   0  0  0  0  0  0  0  0  0  0  0  0
   59.0583   33.6163   43.4128 H   0  0  0  0  0  0  0  0  0  0  0  0
   59.2902   32.4435   44.8071 H   0  0  0  0  0  0  0  0  0  0  0  0
   56.5932   33.0121   43.5399 H   0  0  0  0  0  0  0  0  0  0  0  0
   57.6947   31.6847   43.0085 H   0  0  0  0  0  0  0  0  0  0  0  0
   59.4935   30.8061   45.5137 H   0  0  0  0  0  0  0  0  0  0  0  0
   56.2544   26.9697   45.4277 H   0  0  0  0  0  0  0  0  0  0  0  0
   54.7650   30.2350   44.6920 H   0  0  0  0  0  0  0  0  0  0  0  0
   58.6113   25.8931   46.9475 H   0  0  0  0  0  0  0  0  0  0  0  0
   58.9137   25.5973   45.2517 H   0  0  0  0  0  0  0  0  0  0  0  0
   60.8068   26.5995   47.2713 H   0  0  0  0  0  0  0  0  0  0  0  0
   61.1657   26.3410   45.5569 H   0  0  0  0  0  0  0  0  0  0  0  0
  1  2  1  0
  2  3  1  0
  3  4  1  0
  3  5  1  0
  5  6  1  0
  6  7  1  0
  7  8  1  0
  8  9  2  0
  9 10  1  0
 10 11  2  0
 11 12  1  0
 12 13  2  0
 13 14  1  0
 11 15  1  0
 15 16  1  0
 16 17  1  0
 13  8  1  0
 17 10  1  0
  1 18  1  0
  1 19  1  0
  1 20  1  0
  2 21  1  0
  2 22  1  0
  4 23  1  0
  4 24  1  0
  4 25  1  0
  5 26  1  0
  5 27  1  0
  6 28  1  0
  6 29  1  0
  9 30  1  0
 12 31  1  0
 14 32  1  0
 15 33  1  0
 15 34  1  0
 16 35  1  0
 16 36  1  0
M  END
>  <UniqueID>  (43) 
37

>  <SMILES>  (43) 
CCN(C)CCOc1cc2c(cc1O)CCO2

>  <Energy>  (43) 
56.04433455804655

>  <Genealogy>  (43) 
CCN(C)CCOc1cc2c(cc1O)CCO2 (3D coordinates assigned)
CCN(C)CCOc1cc2c(cc1O)CCO2 (nonaromatic ring conformer: 56.04433455804655 kcal/mol)

>  <smiles>  (43) 
CCN(C)CCOc1cc2c(cc1O)CCO2

>  <score_type>  (43) 
oracle

>  <origin>  (43) 
adg

>  <m_score__min__energy>  (43) 
-6.8099999999999996

>  <m_primary>  (43) 
energy

$$$$
