0:0
     RDKit          3D

 35 35  0  0  0  0  0  0  0  0999 V2000
   58.1500   27.0710   43.0720 C   0  0  0  0  0  0  0  0  0  0  0  0
   57.7500   27.6470   44.4260 C   0  0  0  0  0  0  0  0  0  0  0  0
   58.0630   29.0820   44.4840 N   0  0  0  0  0  0  0  0  0  0  0  0
   59.4650   29.5130   44.6020 C   0  0  0  0  0  0  0  0  0  0  0  0
   60.2070   28.6470   45.6140 C   0  0  0  0  0  0  0  0  0  0  0  0
   56.9830   30.0420   44.4600 C   0  0  0  0  0  0  0  0  0  0  0  0
   55.8410   29.7060   44.8770 O   0  0  0  0  0  0  0  0  0  0  0  0
   57.1550   31.4170   43.8730 C   0  0  0  0  0  0  0  0  0  0  0  0
   57.7980   32.3440   44.8720 C   0  0  0  0  0  0  0  0  0  0  0  0
   57.8200   32.0080   46.2350 C   0  0  0  0  0  0  0  0  0  0  0  0
   58.4060   32.8690   47.1680 C   0  0  0  0  0  0  0  0  0  0  0  0
   58.9900   34.0780   46.7470 C   0  0  0  0  0  0  0  0  0  0  0  0
   59.5890   34.9760   47.6440 O   0  0  0  0  0  0  0  0  0  0  0  0
   60.3060   34.5880   48.8120 C   0  0  0  0  0  0  0  0  0  0  0  0
   58.9800   34.4040   45.3870 C   0  0  0  0  0  0  0  0  0  0  0  0
   58.3930   33.5450   44.4540 C   0  0  0  0  0  0  0  0  0  0  0  0
   58.7715   26.1761   43.2234 H   0  0  0  0  0  0  0  0  0  0  0  0
   57.2458   26.7984   42.5079 H   0  0  0  0  0  0  0  0  0  0  0  0
   58.7213   27.8230   42.5079 H   0  0  0  0  0  0  0  0  0  0  0  0
   56.6695   27.5052   44.5755 H   0  0  0  0  0  0  0  0  0  0  0  0
   58.3118   27.1266   45.2156 H   0  0  0  0  0  0  0  0  0  0  0  0
   59.9549   29.4237   43.6212 H   0  0  0  0  0  0  0  0  0  0  0  0
   59.4881   30.5583   44.9439 H   0  0  0  0  0  0  0  0  0  0  0  0
   59.9376   28.9615   46.6331 H   0  0  0  0  0  0  0  0  0  0  0  0
   59.9273   27.5930   45.4695 H   0  0  0  0  0  0  0  0  0  0  0  0
   61.2914   28.7617   45.4695 H   0  0  0  0  0  0  0  0  0  0  0  0
   57.7922   31.3511   42.9788 H   0  0  0  0  0  0  0  0  0  0  0  0
   56.1648   31.8150   43.6064 H   0  0  0  0  0  0  0  0  0  0  0  0
   57.3731   31.0608   46.5713 H   0  0  0  0  0  0  0  0  0  0  0  0
   58.4105   32.6003   48.2347 H   0  0  0  0  0  0  0  0  0  0  0  0
   59.7426   34.8929   49.7062 H   0  0  0  0  0  0  0  0  0  0  0  0
   60.4371   33.4958   48.8159 H   0  0  0  0  0  0  0  0  0  0  0  0
   61.2920   35.0757   48.8159 H   0  0  0  0  0  0  0  0  0  0  0  0
   59.4383   35.3450   45.0487 H   0  0  0  0  0  0  0  0  0  0  0  0
   58.3972   33.8112   43.3867 H   0  0  0  0  0  0  0  0  0  0  0  0
  1  2  1  0
  2  3  1  0
  3  4  1  0
  4  5  1  0
  3  6  1  0
  6  7  2  0
  6  8  1  0
  8  9  1  0
  9 10  2  0
 10 11  1  0
 11 12  2  0
 12 13  1  0
 13 14  1  0
 12 15  1  0
 15 16  2  0
 16  9  1  0
  1 17  1  0
  1 18  1  0
  1 19  1  0
  2 20  1  0
  2 21  1  0
  4 22  1  0
  4 23  1  0
  5 24  1  0
  5 25  1  0
  5 26  1  0
  8 27  1  0
  8 28  1  0
 10 29  1  0
 11 30  1  0
 14 31  1  0
 14 32  1  0
 14 33  1  0
 15 34  1  0
 16 35  1  0
M  END
>  <UniqueID>  (1) 
1

>  <SMILES>  (1) 
CCN(CC)C(=O)Cc1ccc(OC)cc1

>  <Energy>  (1) 
24.226880269459148

>  <Genealogy>  (1) 
CCN(CC)C(=O)Cc1ccc(OC)cc1 (3D coordinates assigned)
CCN(CC)C(=O)Cc1ccc(OC)cc1 (optimized conformer: 24.226880269459148 kcal/mol)

>  <smiles>  (1) 
CCN(CC)C(=O)Cc1ccc(OC)cc1

>  <score_type>  (1) 
oracle

>  <origin>  (1) 
adg

>  <m_score__min__energy>  (1) 
-5.8399999999999999

>  <m_primary>  (1) 
energy

$$$$
1:0
     RDKit          3D

 32 34  0  0  0  0  0  0  0  0999 V2000
   59.3710   34.5500   45.5770 C   0  0  0  0  0  0  0  0  0  0  0  0
   59.6120   33.8020   46.7640 O   0  0  0  0  0  0  0  0  0  0  0  0
   60.7940   33.0920   47.0350 C   0  0  0  0  0  0  0  0  0  0  0  0
   61.9600   33.7420   47.4870 C   0  0  0  0  0  0  0  0  0  0  0  0
   63.1190   33.0110   47.7560 C   0  0  0  0  0  0  0  0  0  0  0  0
   63.1320   31.6290   47.5730 C   0  0  0  0  0  0  0  0  0  0  0  0
   61.9860   30.9700   47.1240 C   0  0  0  0  0  0  0  0  0  0  0  0
   60.8070   31.6910   46.8620 C   0  0  0  0  0  0  0  0  0  0  0  0
   59.6020   30.9900   46.3570 C   0  0  0  0  0  0  0  0  0  0  0  0
   59.0430   31.4270   45.2320 O   0  0  0  0  0  0  0  0  0  0  0  0
   57.9680   30.8680   44.6890 C   0  0  0  0  0  0  0  0  0  0  0  0
   57.4500   31.3960   43.5010 C   0  0  0  0  0  0  0  0  0  0  0  0
   56.3240   30.8240   42.9090 C   0  0  0  0  0  0  0  0  0  0  0  0
   55.7060   29.7200   43.5000 C   0  0  0  0  0  0  0  0  0  0  0  0
   56.2080   29.1780   44.6890 C   0  0  0  0  0  0  0  0  0  0  0  0
   55.5620   28.0790   45.2470 O   0  0  0  0  0  0  0  0  0  0  0  0
   57.3500   29.7510   45.3000 C   0  0  0  0  0  0  0  0  0  0  0  0
   57.9080   29.2670   46.4990 C   0  0  0  0  0  0  0  0  0  0  0  0
   57.4020   28.2780   47.0980 O   0  0  0  0  0  0  0  0  0  0  0  0
   59.0410   29.8950   47.0400 C   0  0  0  0  0  0  0  0  0  0  0  0
   59.5920   29.4620   48.2490 O   0  0  0  0  0  0  0  0  0  0  0  0
   59.0437   35.5657   45.8438 H   0  0  0  0  0  0  0  0  0  0  0  0
   60.2964   34.6066   44.9850 H   0  0  0  0  0  0  0  0  0  0  0  0
   58.5867   34.0557   44.9850 H   0  0  0  0  0  0  0  0  0  0  0  0
   61.9570   34.8328   47.6289 H   0  0  0  0  0  0  0  0  0  0  0  0
   64.0230   33.5263   48.1128 H   0  0  0  0  0  0  0  0  0  0  0  0
   64.0474   31.0564   47.7829 H   0  0  0  0  0  0  0  0  0  0  0  0
   62.0052   29.8804   46.9742 H   0  0  0  0  0  0  0  0  0  0  0  0
   57.9330   32.2659   43.0320 H   0  0  0  0  0  0  0  0  0  0  0  0
   55.9221   31.2433   41.9749 H   0  0  0  0  0  0  0  0  0  0  0  0
   54.8186   29.2732   43.0279 H   0  0  0  0  0  0  0  0  0  0  0  0
   59.2210   28.6700   48.7620 H   0  0  0  0  0  0  0  0  0  0  0  0
  1  2  1  0
  2  3  1  0
  3  4  2  0
  4  5  1  0
  5  6  2  0
  6  7  1  0
  7  8  2  0
  8  9  1  0
  9 10  1  0
 10 11  1  0
 11 12  2  0
 12 13  1  0
 13 14  2  0
 14 15  1  0
 15 16  1  0
 15 17  2  0
 17 18  1  0
 18 19  2  0
 18 20  1  0
 20 21  1  0
  8  3  1  0
 20  9  2  0
 17 11  1  0
  1 22  1  0
  1 23  1  0
  1 24  1  0
  4 25  1  0
  5 26  1  0
  6 27  1  0
  7 28  1  0
 12 29  1  0
 13 30  1  0
 14 31  1  0
 21 32  1  0
M  CHG  1  16  -1
M  END
>  <UniqueID>  (2) 
2

>  <SMILES>  (2) 
COc1ccccc1-c1oc2cccc([O-])c2c(=O)c1O

>  <Energy>  (2) 
47.663737560681966

>  <Genealogy>  (2) 
COc1ccccc1-c1oc2cccc([O-])c2c(=O)c1O (protonated)
COc1ccccc1-c1oc2cccc([O-])c2c(=O)c1O (3D coordinates assigned)
COc1ccccc1-c1oc2cccc([O-])c2c(=O)c1O (optimized conformer: 47.663737560681966 kcal/mol)

>  <smiles>  (2) 
COc1ccccc1-c1oc2cccc(O)c2c(=O)c1O

>  <score_type>  (2) 
oracle

>  <origin>  (2) 
adg

>  <m_score__min__energy>  (2) 
-8.9000000000000004

>  <m_primary>  (2) 
energy

$$$$
2:0
     RDKit          3D

 51 53  0  0  0  0  0  0  0  0999 V2000
   56.4740   29.3720   43.0240 C   0  0  0  0  0  0  0  0  0  0  0  0
   57.4800   29.0650   44.1050 C   0  0  0  0  0  0  0  0  0  0  0  0
   57.7830   27.7150   44.3770 C   0  0  0  0  0  0  0  0  0  0  0  0
   58.7010   27.3690   45.3880 C   0  0  0  0  0  0  0  0  0  0  0  0
   58.9840   26.0410   45.7510 O   0  0  0  0  0  0  0  0  0  0  0  0
   58.2000   25.2340   46.6290 C   0  0  0  0  0  0  0  0  0  0  0  0
   56.8650   24.8330   46.0450 C   0  0  0  0  0  0  0  0  0  0  0  0
   55.8550   25.5260   46.3510 O   0  0  0  0  0  0  0  0  0  0  0  0
   56.7390   23.8260   45.0190 N   0  0  0  0  0  0  0  0  0  0  0  0
   56.1420   24.2020   43.7290 C   0  0  0  0  0  0  0  0  0  0  0  0
   55.5120   22.9810   43.0480 C   0  0  0  0  0  0  0  0  0  0  0  0
   56.4190   21.8970   43.0150 O   0  0  0  0  0  0  0  0  0  0  0  0
   56.6760   21.4580   44.3350 C   0  0  0  0  0  0  0  0  0  0  0  0
   57.4240   22.5340   45.1320 C   0  0  0  0  0  0  0  0  0  0  0  0
   59.3460   28.3840   46.0960 C   0  0  0  0  0  0  0  0  0  0  0  0
   59.0870   29.7220   45.8140 C   0  0  0  0  0  0  0  0  0  0  0  0
   58.1630   30.0850   44.8220 C   0  0  0  0  0  0  0  0  0  0  0  0
   57.8470   31.8200   44.5860 S   0  0  0  0  0  0  0  0  0  0  0  0
   56.4060   32.1250   44.8940 O   0  0  0  0  0  0  0  0  0  0  0  0
   58.0930   32.1540   43.1350 O   0  0  0  0  0  0  0  0  0  0  0  0
   58.8890   32.7890   45.6100 N   0  0  0  0  0  0  0  0  0  0  0  0
   58.9410   34.1810   45.1220 C   0  0  0  0  0  0  0  0  0  0  0  0
   59.7870   35.0810   46.0610 C   0  0  0  0  0  0  0  0  0  0  0  0
   60.2000   34.3950   47.2310 O   0  0  0  0  0  0  0  0  0  0  0  0
   59.0710   33.8390   47.8790 C   0  0  0  0  0  0  0  0  0  0  0  0
   58.4230   32.7350   47.0160 C   0  0  0  0  0  0  0  0  0  0  0  0
   55.5185   29.6636   43.4844 H   0  0  0  0  0  0  0  0  0  0  0  0
   56.8471   30.1972   42.3996 H   0  0  0  0  0  0  0  0  0  0  0  0
   56.3228   28.4791   42.3996 H   0  0  0  0  0  0  0  0  0  0  0  0
   57.2959   26.9212   43.7917 H   0  0  0  0  0  0  0  0  0  0  0  0
   58.7669   24.3206   46.8623 H   0  0  0  0  0  0  0  0  0  0  0  0
   57.9939   25.8364   47.5260 H   0  0  0  0  0  0  0  0  0  0  0  0
   55.3651   24.9621   43.8983 H   0  0  0  0  0  0  0  0  0  0  0  0
   56.9318   24.6029   43.0768 H   0  0  0  0  0  0  0  0  0  0  0  0
   54.6129   22.6813   43.6064 H   0  0  0  0  0  0  0  0  0  0  0  0
   55.2503   23.2515   42.0144 H   0  0  0  0  0  0  0  0  0  0  0  0
   55.7207   21.2385   44.8343 H   0  0  0  0  0  0  0  0  0  0  0  0
   57.3017   20.5544   44.2901 H   0  0  0  0  0  0  0  0  0  0  0  0
   57.4651   22.2374   46.1905 H   0  0  0  0  0  0  0  0  0  0  0  0
   58.4416   22.6341   44.7265 H   0  0  0  0  0  0  0  0  0  0  0  0
   60.0667   28.1238   46.8852 H   0  0  0  0  0  0  0  0  0  0  0  0
   59.6142   30.5064   46.3768 H   0  0  0  0  0  0  0  0  0  0  0  0
   59.8550   32.3810   45.5580 H   0  0  0  0  0  0  0  0  0  0  0  0
   59.3893   34.1912   44.1175 H   0  0  0  0  0  0  0  0  0  0  0  0
   57.9149   34.5766   45.0966 H   0  0  0  0  0  0  0  0  0  0  0  0
   60.6799   35.4212   45.5160 H   0  0  0  0  0  0  0  0  0  0  0  0
   59.1597   35.9298   46.3708 H   0  0  0  0  0  0  0  0  0  0  0  0
   59.3854   33.4058   48.8400 H   0  0  0  0  0  0  0  0  0  0  0  0
   58.3312   34.6373   48.0386 H   0  0  0  0  0  0  0  0  0  0  0  0
   58.6830   31.7537   47.4396 H   0  0  0  0  0  0  0  0  0  0  0  0
   57.3344   32.8927   47.0211 H   0  0  0  0  0  0  0  0  0  0  0  0
  1  2  1  0
  2  3  2  0
  3  4  1  0
  4  5  1  0
  5  6  1  0
  6  7  1  0
  7  8  2  0
  7  9  1  0
  9 10  1  0
 10 11  1  0
 11 12  1  0
 12 13  1  0
 13 14  1  0
  4 15  2  0
 15 16  1  0
 16 17  2  0
 17 18  1  0
 18 19  2  0
 18 20  2  0
 18 21  1  0
 21 22  1  0
 22 23  1  0
 23 24  1  0
 24 25  1  0
 25 26  1  0
 17  2  1  0
 26 21  1  0
 14  9  1  0
  1 27  1  0
  1 28  1  0
  1 29  1  0
  3 30  1  0
  6 31  1  0
  6 32  1  0
 10 33  1  0
 10 34  1  0
 11 35  1  0
 11 36  1  0
 13 37  1  0
 13 38  1  0
 14 39  1  0
 14 40  1  0
 15 41  1  0
 16 42  1  0
 21 43  1  0
 22 44  1  0
 22 45  1  0
 23 46  1  0
 23 47  1  0
 25 48  1  0
 25 49  1  0
 26 50  1  0
 26 51  1  0
M  CHG  1  21   1
M  END
>  <UniqueID>  (3) 
3

>  <SMILES>  (3) 
Cc1cc(OCC(=O)N2CCOCC2)ccc1S(=O)(=O)[NH+]1CCOCC1

>  <Energy>  (3) 
67.22378382001654

>  <Genealogy>  (3) 
Cc1cc(OCC(=O)N2CCOCC2)ccc1S(=O)(=O)[NH+]1CCOCC1 (protonated)
Cc1cc(OCC(=O)N2CCOCC2)ccc1S(=O)(=O)[NH+]1CCOCC1 (3D coordinates assigned)
Cc1cc(OCC(=O)N2CCOCC2)ccc1S(=O)(=O)[NH+]1CCOCC1 (nonaromatic ring conformer: 67.22378382001654 kcal/mol)

>  <smiles>  (3) 
Cc1cc(OCC(=O)N2CCOCC2)ccc1S(=O)(=O)N1CCOCC1

>  <score_type>  (3) 
oracle

>  <origin>  (3) 
adg

>  <m_score__min__energy>  (3) 
-7.04

>  <m_primary>  (3) 
energy

$$$$
3:0
     RDKit          3D

 29 30  0  0  0  0  0  0  0  0999 V2000
   60.4350   33.7810   49.0190 N   0  0  0  0  0  0  0  0  0  0  0  0
   59.8530   33.8290   47.7080 C   0  0  0  0  0  0  0  0  0  0  0  0
   58.4540   33.8400   47.5900 C   0  0  0  0  0  0  0  0  0  0  0  0
   57.8460   33.8610   46.3330 C   0  0  0  0  0  0  0  0  0  0  0  0
   58.6280   33.8690   45.1790 C   0  0  0  0  0  0  0  0  0  0  0  0
   60.0200   33.8630   45.2770 C   0  0  0  0  0  0  0  0  0  0  0  0
   60.6520   33.8570   46.5350 C   0  0  0  0  0  0  0  0  0  0  0  0
   62.1580   33.8410   46.5900 C   0  0  0  0  0  0  0  0  0  0  0  0
   62.7180   32.4830   47.5960 S   0  0  0  0  0  0  0  0  0  0  0  0
   63.7740   31.4870   46.7510 O   0  0  0  0  0  0  0  0  0  0  0  0
   63.4530   33.0460   49.0820 C   0  0  0  0  0  0  0  0  0  0  0  0
   62.6930   33.6970   50.0020 N   0  0  0  0  0  0  0  0  0  0  0  0
   63.2340   34.1470   51.1620 C   0  0  0  0  0  0  0  0  0  0  0  0
   64.5890   33.9440   51.4220 C   0  0  0  0  0  0  0  0  0  0  0  0
   65.3550   33.2740   50.4690 C   0  0  0  0  0  0  0  0  0  0  0  0
   64.7780   32.8370   49.3180 N   0  0  0  0  0  0  0  0  0  0  0  0
   60.6900   34.6400   49.5520 H   0  0  0  0  0  0  0  0  0  0  0  0
   60.6550   32.8610   49.4640 H   0  0  0  0  0  0  0  0  0  0  0  0
   57.8308   33.8320   48.4964 H   0  0  0  0  0  0  0  0  0  0  0  0
   56.7489   33.8712   46.2534 H   0  0  0  0  0  0  0  0  0  0  0  0
   58.1471   33.8801   44.1897 H   0  0  0  0  0  0  0  0  0  0  0  0
   60.6300   33.8630   44.3616 H   0  0  0  0  0  0  0  0  0  0  0  0
   62.5583   33.7288   45.5716 H   0  0  0  0  0  0  0  0  0  0  0  0
   62.5127   34.7851   47.0292 H   0  0  0  0  0  0  0  0  0  0  0  0
   64.5380   32.0730   46.5230 H   0  0  0  0  0  0  0  0  0  0  0  0
   62.6047   34.6712   51.8963 H   0  0  0  0  0  0  0  0  0  0  0  0
   65.0428   34.3041   52.3571 H   0  0  0  0  0  0  0  0  0  0  0  0
   66.4261   33.0989   50.6483 H   0  0  0  0  0  0  0  0  0  0  0  0
   65.3620   32.3360   48.6110 H   0  0  0  0  0  0  0  0  0  0  0  0
  1  2  1  0
  2  3  2  0
  3  4  1  0
  4  5  2  0
  5  6  1  0
  6  7  2  0
  7  8  1  0
  8  9  1  0
  9 10  1  6
  9 11  1  0
 11 12  2  0
 12 13  1  0
 13 14  2  0
 14 15  1  0
 15 16  2  0
  7  2  1  0
 16 11  1  0
  1 17  1  0
  1 18  1  0
  3 19  1  0
  4 20  1  0
  5 21  1  0
  6 22  1  0
  8 23  1  0
  8 24  1  0
 10 25  1  0
 13 26  1  0
 14 27  1  0
 15 28  1  0
 16 29  1  0
M  CHG  2   9   1  16   1
M  END
>  <UniqueID>  (4) 
4

>  <SMILES>  (4) 
Nc1ccccc1C[S@@+](O)c1nccc[nH+]1

>  <Energy>  (4) 
25.979433094549357

>  <Genealogy>  (4) 
Nc1ccccc1C[S+](O)c1nccc[nH+]1 (protonated)
Nc1ccccc1C[S@@+](O)c1nccc[nH+]1 (chirality)
Nc1ccccc1C[S@@+](O)c1nccc[nH+]1 (3D coordinates assigned)
Nc1ccccc1C[S@@+](O)c1nccc[nH+]1 (optimized conformer: 25.979433094549357 kcal/mol)

>  <smiles>  (4) 
Nc1ccccc1C[S+]([O-])c1ncccn1

>  <score_type>  (4) 
oracle

>  <origin>  (4) 
adg

>  <m_score__min__energy>  (4) 
-4.3899999999999997

>  <m_primary>  (4) 
energy

$$$$
4:0
     RDKit          3D

 49 51  0  0  0  0  0  0  0  0999 V2000
   60.4130   34.2170   49.4880 C   0  0  0  0  0  0  0  0  0  0  0  0
   61.5770   33.5120   48.8410 C   0  0  0  0  0  0  0  0  0  0  0  0
   62.8640   34.0460   49.0100 C   0  0  0  0  0  0  0  0  0  0  0  0
   63.9520   33.4630   48.3620 C   0  0  0  0  0  0  0  0  0  0  0  0
   63.7670   32.3920   47.5490 N   0  0  0  0  0  0  0  0  0  0  0  0
   62.5350   31.8490   47.3570 C   0  0  0  0  0  0  0  0  0  0  0  0
   61.4070   32.3710   48.0130 C   0  0  0  0  0  0  0  0  0  0  0  0
   60.0500   31.7210   47.7760 C   0  0  0  0  0  0  0  0  0  0  0  0
   59.2420   32.3630   46.7140 N   0  0  0  0  0  0  0  0  0  0  0  0
   59.9750   33.3890   45.9450 C   0  0  0  0  0  0  0  0  0  0  0  0
   59.0350   34.1750   45.0040 C   0  0  0  0  0  0  0  0  0  0  0  0
   57.7900   33.4360   44.7120 N   0  0  0  0  0  0  0  0  0  0  0  0
   58.0300   32.2310   43.8860 C   0  0  0  0  0  0  0  0  0  0  0  0
   56.8180   31.2980   43.9590 C   0  0  0  0  0  0  0  0  0  0  0  0
   56.9080   30.4410   45.0980 O   0  0  0  0  0  0  0  0  0  0  0  0
   58.0230   29.6630   45.4490 C   0  0  0  0  0  0  0  0  0  0  0  0
   58.2310   29.1710   46.7540 C   0  0  0  0  0  0  0  0  0  0  0  0
   59.3620   28.4000   47.0430 C   0  0  0  0  0  0  0  0  0  0  0  0
   60.2930   28.1170   46.0410 C   0  0  0  0  0  0  0  0  0  0  0  0
   60.0950   28.6040   44.7480 C   0  0  0  0  0  0  0  0  0  0  0  0
   58.9660   29.3750   44.4540 C   0  0  0  0  0  0  0  0  0  0  0  0
   57.0290   33.1400   45.9520 C   0  0  0  0  0  0  0  0  0  0  0  0
   57.9340   32.8570   47.1690 C   0  0  0  0  0  0  0  0  0  0  0  0
   60.5106   34.1579   50.5821 H   0  0  0  0  0  0  0  0  0  0  0  0
   60.4046   35.2721   49.1771 H   0  0  0  0  0  0  0  0  0  0  0  0
   59.4740   33.7357   49.1771 H   0  0  0  0  0  0  0  0  0  0  0  0
   63.0142   34.9250   49.6541 H   0  0  0  0  0  0  0  0  0  0  0  0
   64.9624   33.8718   48.5099 H   0  0  0  0  0  0  0  0  0  0  0  0
   64.5900   31.9780   47.0560 H   0  0  0  0  0  0  0  0  0  0  0  0
   62.4199   30.9901   46.6795 H   0  0  0  0  0  0  0  0  0  0  0  0
   60.2160   30.6706   47.4946 H   0  0  0  0  0  0  0  0  0  0  0  0
   59.4820   31.8293   48.7118 H   0  0  0  0  0  0  0  0  0  0  0  0
   60.4465   34.0922   46.6473 H   0  0  0  0  0  0  0  0  0  0  0  0
   60.7320   32.8814   45.3292 H   0  0  0  0  0  0  0  0  0  0  0  0
   58.7753   35.1314   45.4812 H   0  0  0  0  0  0  0  0  0  0  0  0
   59.5647   34.3321   44.0528 H   0  0  0  0  0  0  0  0  0  0  0  0
   58.1957   32.5323   42.8411 H   0  0  0  0  0  0  0  0  0  0  0  0
   58.9167   31.7026   44.2662 H   0  0  0  0  0  0  0  0  0  0  0  0
   55.9015   31.9018   44.0331 H   0  0  0  0  0  0  0  0  0  0  0  0
   56.7943   30.6777   43.0509 H   0  0  0  0  0  0  0  0  0  0  0  0
   57.5020   29.3940   47.5470 H   0  0  0  0  0  0  0  0  0  0  0  0
   59.5185   28.0157   48.0618 H   0  0  0  0  0  0  0  0  0  0  0  0
   61.1816   27.5107   46.2707 H   0  0  0  0  0  0  0  0  0  0  0  0
   60.8283   28.3809   43.9590 H   0  0  0  0  0  0  0  0  0  0  0  0
   58.8173   29.7582   43.4337 H   0  0  0  0  0  0  0  0  0  0  0  0
   56.3906   34.0049   46.1850 H   0  0  0  0  0  0  0  0  0  0  0  0
   56.4405   32.2298   45.7643 H   0  0  0  0  0  0  0  0  0  0  0  0
   58.0738   33.7846   47.7434 H   0  0  0  0  0  0  0  0  0  0  0  0
   57.4594   32.0949   47.8046 H   0  0  0  0  0  0  0  0  0  0  0  0
  1  2  1  0
  2  3  2  0
  3  4  1  0
  4  5  2  0
  5  6  1  0
  6  7  2  0
  7  8  1  0
  8  9  1  0
  9 10  1  0
 10 11  1  0
 11 12  1  0
 12 13  1  0
 13 14  1  0
 14 15  1  0
 15 16  1  0
 16 17  2  0
 17 18  1  0
 18 19  2  0
 19 20  1  0
 20 21  2  0
 12 22  1  0
 22 23  1  0
  7  2  1  0
 23  9  1  0
 21 16  1  0
  1 24  1  0
  1 25  1  0
  1 26  1  0
  3 27  1  0
  4 28  1  0
  5 29  1  0
  6 30  1  0
  8 31  1  0
  8 32  1  0
 10 33  1  0
 10 34  1  0
 11 35  1  0
 11 36  1  0
 13 37  1  0
 13 38  1  0
 14 39  1  0
 14 40  1  0
 17 41  1  0
 18 42  1  0
 19 43  1  0
 20 44  1  0
 21 45  1  0
 22 46  1  0
 22 47  1  0
 23 48  1  0
 23 49  1  0
M  CHG  1   5   1
M  END
>  <UniqueID>  (5) 
5

>  <SMILES>  (5) 
Cc1cc[nH+]cc1CN1CCN(CCOc2ccccc2)CC1

>  <Energy>  (5) 
65.54485247463742

>  <Genealogy>  (5) 
Cc1cc[nH+]cc1CN1CCN(CCOc2ccccc2)CC1 (protonated)
Cc1cc[nH+]cc1CN1CCN(CCOc2ccccc2)CC1 (3D coordinates assigned)
Cc1cc[nH+]cc1CN1CCN(CCOc2ccccc2)CC1 (nonaromatic ring conformer: 65.54485247463742 kcal/mol)

>  <smiles>  (5) 
Cc1ccncc1CN1CCN(CCOc2ccccc2)CC1

>  <score_type>  (5) 
oracle

>  <origin>  (5) 
adg

>  <m_score__min__energy>  (5) 
-6.6799999999999997

>  <m_primary>  (5) 
energy

$$$$
5:0
     RDKit          3D

 32 34  0  0  0  0  0  0  0  0999 V2000
   60.3930   28.5530   46.7950 F   0  0  0  0  0  0  0  0  0  0  0  0
   60.4030   27.8530   45.6040 C   0  0  0  0  0  0  0  0  0  0  0  0
   60.4600   26.4970   45.8700 F   0  0  0  0  0  0  0  0  0  0  0  0
   61.5180   28.2180   44.8720 F   0  0  0  0  0  0  0  0  0  0  0  0
   59.1570   28.1590   44.8340 C   0  0  0  0  0  0  0  0  0  0  0  0
   58.4280   27.2460   44.1450 N   0  0  0  0  0  0  0  0  0  0  0  0
   57.4070   27.9050   43.6000 N   0  0  0  0  0  0  0  0  0  0  0  0
   57.5250   29.1940   43.9600 C   0  0  0  0  0  0  0  0  0  0  0  0
   56.6980   30.2600   43.6380 C   0  0  0  0  0  0  0  0  0  0  0  0
   57.0540   31.5180   44.1540 C   0  0  0  0  0  0  0  0  0  0  0  0
   58.2170   31.6580   44.9600 C   0  0  0  0  0  0  0  0  0  0  0  0
   58.6060   32.9390   45.5040 N   0  0  0  0  0  0  0  0  0  0  0  0
   59.3260   33.0180   46.7870 C   0  0  0  0  0  0  0  0  0  0  0  0
   59.1960   34.4110   47.4160 C   0  0  0  0  0  0  0  0  0  0  0  0
   59.6410   35.5210   46.4500 C   0  0  0  0  0  0  0  0  0  0  0  0
   59.2610   35.2540   44.9790 C   0  0  0  0  0  0  0  0  0  0  0  0
   58.1820   34.1760   44.8300 C   0  0  0  0  0  0  0  0  0  0  0  0
   58.9710   30.5480   45.2280 N   0  0  0  0  0  0  0  0  0  0  0  0
   58.5990   29.3750   44.7230 N   0  0  0  0  0  0  0  0  0  0  0  0
   56.6630   27.4750   43.0070 H   0  0  0  0  0  0  0  0  0  0  0  0
   55.8057   30.1271   43.0086 H   0  0  0  0  0  0  0  0  0  0  0  0
   56.4308   32.3972   43.9335 H   0  0  0  0  0  0  0  0  0  0  0  0
   58.9075   32.2723   47.4789 H   0  0  0  0  0  0  0  0  0  0  0  0
   60.3917   32.8208   46.5990 H   0  0  0  0  0  0  0  0  0  0  0  0
   58.1445   34.5799   47.6914 H   0  0  0  0  0  0  0  0  0  0  0  0
   59.8489   34.4475   48.3005 H   0  0  0  0  0  0  0  0  0  0  0  0
   59.1700   36.4640   46.7644 H   0  0  0  0  0  0  0  0  0  0  0  0
   60.7392   35.5641   46.4949 H   0  0  0  0  0  0  0  0  0  0  0  0
   58.8865   36.1893   44.5375 H   0  0  0  0  0  0  0  0  0  0  0  0
   60.1635   34.8922   44.4645 H   0  0  0  0  0  0  0  0  0  0  0  0
   57.2453   34.5339   45.2823 H   0  0  0  0  0  0  0  0  0  0  0  0
   58.0263   33.9681   43.7611 H   0  0  0  0  0  0  0  0  0  0  0  0
  1  2  1  0
  2  3  1  0
  2  4  1  0
  2  5  1  0
  5  6  2  0
  6  7  1  0
  7  8  2  0
  8  9  1  0
  9 10  2  0
 10 11  1  0
 11 12  1  0
 12 13  1  0
 13 14  1  0
 14 15  1  0
 15 16  1  0
 16 17  1  0
 11 18  2  0
 18 19  1  0
 19  5  1  0
 19  8  1  0
 17 12  1  0
  7 20  1  0
  9 21  1  0
 10 22  1  0
 13 23  1  0
 13 24  1  0
 14 25  1  0
 14 26  1  0
 15 27  1  0
 15 28  1  0
 16 29  1  0
 16 30  1  0
 17 31  1  0
 17 32  1  0
M  CHG  1   7   1
M  END
>  <UniqueID>  (6) 
6

>  <SMILES>  (6) 
FC(F)(F)c1n[nH+]c2ccc(N3CCCCC3)nn12

>  <Energy>  (6) 
78.78924989937633

>  <Genealogy>  (6) 
FC(F)(F)c1n[nH+]c2ccc(N3CCCCC3)nn12 (protonated)
FC(F)(F)c1n[nH+]c2ccc(N3CCCCC3)nn12 (3D coordinates assigned)
FC(F)(F)c1n[nH+]c2ccc(N3CCCCC3)nn12 (nonaromatic ring conformer: 78.78924989937633 kcal/mol)

>  <smiles>  (6) 
FC(F)(F)c1nnc2ccc(N3CCCCC3)nn12

>  <score_type>  (6) 
oracle

>  <origin>  (6) 
adg

>  <m_score__min__energy>  (6) 
-5.3099999999999996

>  <m_primary>  (6) 
energy

$$$$
6:0
     RDKit          3D

 54 55  0  0  0  0  0  0  0  0999 V2000
   58.8780   30.0740   46.4580 C   0  0  0  0  0  0  0  0  0  0  0  0
   58.4440   30.3630   45.0250 C   0  0  0  0  0  0  0  0  0  0  0  0
   57.0650   30.9070   45.0290 N   0  0  0  0  0  0  0  0  0  0  0  0
   56.1570   30.1820   44.1120 C   0  0  0  0  0  0  0  0  0  0  0  0
   56.6390   30.1560   42.6520 C   0  0  0  0  0  0  0  0  0  0  0  0
   57.0130   32.3740   44.8540 C   0  0  0  0  0  0  0  0  0  0  0  0
   58.3960   32.9230   44.4860 C   0  0  0  0  0  0  0  0  0  0  0  0
   58.7200   34.0420   45.3090 O   0  0  0  0  0  0  0  0  0  0  0  0
   59.0520   33.9270   46.6630 C   0  0  0  0  0  0  0  0  0  0  0  0
   58.1490   33.7870   47.5350 O   0  0  0  0  0  0  0  0  0  0  0  0
   60.4960   33.9970   47.0760 C   0  0  2  0  0  0  0  0  0  0  0  0
   61.2170   32.6760   46.7870 C   0  0  0  0  0  0  0  0  0  0  0  0
   62.7100   32.7610   47.1490 C   0  0  0  0  0  0  0  0  0  0  0  0
   63.0200   33.8800   48.1640 C   0  0  0  0  0  0  0  0  0  0  0  0
   61.9530   34.0530   49.1820 N   0  0  2  0  0  0  0  0  0  0  0  0
   61.8540   32.8960   50.1130 C   0  0  0  0  0  0  0  0  0  0  0  0
   60.4210   32.4890   50.3820 C   0  0  0  0  0  0  0  0  0  0  0  0
   59.8410   31.4270   49.6650 C   0  0  0  0  0  0  0  0  0  0  0  0
   58.5230   31.0380   49.9230 C   0  0  0  0  0  0  0  0  0  0  0  0
   57.7720   31.7060   50.8920 C   0  0  0  0  0  0  0  0  0  0  0  0
   58.3380   32.7640   51.6080 C   0  0  0  0  0  0  0  0  0  0  0  0
   59.6560   33.1580   51.3570 C   0  0  0  0  0  0  0  0  0  0  0  0
   60.1830   34.1930   52.0590 F   0  0  0  0  0  0  0  0  0  0  0  0
   60.6270   34.3830   48.5730 C   0  0  0  0  0  0  0  0  0  0  0  0
   58.1712   30.5447   47.1572 H   0  0  0  0  0  0  0  0  0  0  0  0
   58.8901   28.9869   46.6253 H   0  0  0  0  0  0  0  0  0  0  0  0
   59.8858   30.4820   46.6253 H   0  0  0  0  0  0  0  0  0  0  0  0
   59.1275   31.0985   44.5757 H   0  0  0  0  0  0  0  0  0  0  0  0
   58.4707   29.4330   44.4381 H   0  0  0  0  0  0  0  0  0  0  0  0
   56.0641   29.1443   44.4649 H   0  0  0  0  0  0  0  0  0  0  0  0
   55.1967   30.7183   44.1224 H   0  0  0  0  0  0  0  0  0  0  0  0
   57.7372   30.0968   42.6294 H   0  0  0  0  0  0  0  0  0  0  0  0
   56.2139   29.2795   42.1411 H   0  0  0  0  0  0  0  0  0  0  0  0
   56.3107   31.0732   42.1411 H   0  0  0  0  0  0  0  0  0  0  0  0
   56.3021   32.6172   44.0506 H   0  0  0  0  0  0  0  0  0  0  0  0
   56.6897   32.8327   45.8001 H   0  0  0  0  0  0  0  0  0  0  0  0
   59.1496   32.1351   44.6318 H   0  0  0  0  0  0  0  0  0  0  0  0
   58.3849   33.2442   43.4340 H   0  0  0  0  0  0  0  0  0  0  0  0
   60.9794   34.7836   46.4780 H   0  0  0  0  0  0  0  0  0  0  0  0
   60.7498   31.8760   47.3801 H   0  0  0  0  0  0  0  0  0  0  0  0
   61.1330   32.4637   45.7109 H   0  0  0  0  0  0  0  0  0  0  0  0
   63.0213   31.7988   47.5818 H   0  0  0  0  0  0  0  0  0  0  0  0
   63.2604   32.9923   46.2251 H   0  0  0  0  0  0  0  0  0  0  0  0
   63.9600   33.6345   48.6799 H   0  0  0  0  0  0  0  0  0  0  0  0
   63.0937   34.8226   47.6017 H   0  0  0  0  0  0  0  0  0  0  0  0
   62.2290   34.8830   49.7590 H   0  0  0  0  0  0  0  0  0  0  0  0
   62.3864   32.0410   49.6709 H   0  0  0  0  0  0  0  0  0  0  0  0
   62.3007   33.1992   51.0714 H   0  0  0  0  0  0  0  0  0  0  0  0
   60.4271   30.9000   48.8977 H   0  0  0  0  0  0  0  0  0  0  0  0
   58.0769   30.2040   49.3614 H   0  0  0  0  0  0  0  0  0  0  0  0
   56.7347   31.3994   51.0918 H   0  0  0  0  0  0  0  0  0  0  0  0
   57.7449   33.2886   52.3715 H   0  0  0  0  0  0  0  0  0  0  0  0
   59.8473   33.8487   49.1357 H   0  0  0  0  0  0  0  0  0  0  0  0
   60.5204   35.4765   48.6260 H   0  0  0  0  0  0  0  0  0  0  0  0
  1  2  1  0
  2  3  1  0
  3  4  1  0
  4  5  1  0
  3  6  1  0
  6  7  1  0
  7  8  1  0
  8  9  1  0
  9 10  2  0
  9 11  1  0
 11 12  1  0
 12 13  1  0
 13 14  1  0
 14 15  1  0
 15 16  1  0
 16 17  1  0
 17 18  2  0
 18 19  1  0
 19 20  2  0
 20 21  1  0
 21 22  2  0
 22 23  1  0
 15 24  1  0
 24 11  1  0
 22 17  1  0
  1 25  1  0
  1 26  1  0
  1 27  1  0
  2 28  1  0
  2 29  1  0
  4 30  1  0
  4 31  1  0
  5 32  1  0
  5 33  1  0
  5 34  1  0
  6 35  1  0
  6 36  1  0
  7 37  1  0
  7 38  1  0
 11 39  1  6
 12 40  1  0
 12 41  1  0
 13 42  1  0
 13 43  1  0
 14 44  1  0
 14 45  1  0
 15 46  1  1
 16 47  1  0
 16 48  1  0
 18 49  1  0
 19 50  1  0
 20 51  1  0
 21 52  1  0
 24 53  1  0
 24 54  1  0
M  CHG  1  15   1
M  END
>  <UniqueID>  (7) 
7

>  <SMILES>  (7) 
CCN(CC)CCOC(=O)[C@@H]1CCC[N@H+](Cc2ccccc2F)C1

>  <Energy>  (7) 
61.092651497792545

>  <Genealogy>  (7) 
CCN(CC)CCOC(=O)C1CCC[NH+](Cc2ccccc2F)C1 (protonated)
CCN(CC)CCOC(=O)[C@@H]1CCC[N@H+](Cc2ccccc2F)C1 (chirality)
CCN(CC)CCOC(=O)[C@@H]1CCC[N@H+](Cc2ccccc2F)C1 (3D coordinates assigned)
CCN(CC)CCOC(=O)[C@@H]1CCC[N@H+](Cc2ccccc2F)C1 (nonaromatic ring conformer: 61.092651497792545 kcal/mol)

>  <smiles>  (7) 
CCN(CC)CCOC(=O)C1CCCN(Cc2ccccc2F)C1

>  <score_type>  (7) 
oracle

>  <origin>  (7) 
adg

>  <m_score__min__energy>  (7) 
-5.4299999999999997

>  <m_primary>  (7) 
energy

$$$$
7:0
     RDKit          3D

 66 70  0  0  0  0  0  0  0  0999 V2000
   55.9030   19.0040   44.8600 C   0  0  0  0  0  0  0  0  0  0  0  0
   56.1780   20.4410   45.1050 N   0  0  0  0  0  0  0  0  0  0  0  0
   57.2410   20.5240   46.1410 C   0  0  0  0  0  0  0  0  0  0  0  0
   56.6510   21.0740   43.8280 C   0  0  0  0  0  0  0  0  0  0  0  0
   56.2030   22.5400   43.6420 C   0  0  0  0  0  0  0  0  0  0  0  0
   56.0130   23.1930   44.9380 N   0  0  0  0  0  0  0  0  0  0  0  0
   56.7030   24.4150   45.2710 C   0  0  0  0  0  0  0  0  0  0  0  0
   57.4370   25.1050   44.2930 C   0  0  0  0  0  0  0  0  0  0  0  0
   58.0770   26.3080   44.6060 C   0  0  0  0  0  0  0  0  0  0  0  0
   57.9750   26.8440   45.8950 C   0  0  0  0  0  0  0  0  0  0  0  0
   58.6450   28.1140   46.2230 C   0  0  0  0  0  0  0  0  0  0  0  0
   59.7750   28.0730   47.0500 C   0  0  0  0  0  0  0  0  0  0  0  0
   60.4480   29.2460   47.3920 C   0  0  0  0  0  0  0  0  0  0  0  0
   60.0030   30.4880   46.9150 C   0  0  0  0  0  0  0  0  0  0  0  0
   60.7280   31.7330   47.2770 C   0  0  0  0  0  0  0  0  0  0  0  0
   61.7040   31.8110   48.2130 N   0  0  0  0  0  0  0  0  0  0  0  0
   62.2020   33.0720   48.3640 C   0  0  0  0  0  0  0  0  0  0  0  0
   63.2800   33.3910   49.3330 C   0  0  0  0  0  0  0  0  0  0  0  0
   63.0360   34.2640   50.4090 C   0  0  0  0  0  0  0  0  0  0  0  0
   64.0520   34.5690   51.3200 C   0  0  0  0  0  0  0  0  0  0  0  0
   65.3230   34.0080   51.1680 C   0  0  0  0  0  0  0  0  0  0  0  0
   66.5960   34.3960   52.3100 Cl  0  0  0  0  0  0  0  0  0  0  0  0
   65.5770   33.1370   50.1050 C   0  0  0  0  0  0  0  0  0  0  0  0
   64.5630   32.8280   49.1930 C   0  0  0  0  0  0  0  0  0  0  0  0
   61.6100   34.0270   47.5360 C   0  0  0  0  0  0  0  0  0  0  0  0
   60.4470   33.2510   46.6030 S   0  0  0  0  0  0  0  0  0  0  0  0
   58.8600   30.5320   46.0980 C   0  0  0  0  0  0  0  0  0  0  0  0
   58.1800   29.3580   45.7360 C   0  0  0  0  0  0  0  0  0  0  0  0
   56.7410   29.4910   44.7080 S   0  0  0  0  0  0  0  0  0  0  0  0
   57.1250   28.9680   43.0510 C   0  0  0  0  0  0  0  0  0  0  0  0
   55.6480   28.6100   45.2470 O   0  0  0  0  0  0  0  0  0  0  0  0
   56.2370   30.9060   44.6900 O   0  0  0  0  0  0  0  0  0  0  0  0
   57.2580   26.1510   46.8800 C   0  0  0  0  0  0  0  0  0  0  0  0
   56.6190   24.9500   46.5680 C   0  0  0  0  0  0  0  0  0  0  0  0
   55.1010   22.5760   45.9030 C   0  0  0  0  0  0  0  0  0  0  0  0
   54.9220   21.0760   45.6020 C   0  0  0  0  0  0  0  0  0  0  0  0
   55.8028   18.4806   45.8223 H   0  0  0  0  0  0  0  0  0  0  0  0
   54.9690   18.9017   44.2880 H   0  0  0  0  0  0  0  0  0  0  0  0
   56.7333   18.5641   44.2880 H   0  0  0  0  0  0  0  0  0  0  0  0
   56.7827   20.4882   47.1403 H   0  0  0  0  0  0  0  0  0  0  0  0
   57.9334   19.6772   46.0246 H   0  0  0  0  0  0  0  0  0  0  0  0
   57.7935   21.4680   46.0246 H   0  0  0  0  0  0  0  0  0  0  0  0
   57.7506   21.0455   43.8160 H   0  0  0  0  0  0  0  0  0  0  0  0
   56.1997   20.4997   43.0055 H   0  0  0  0  0  0  0  0  0  0  0  0
   56.9725   23.0831   43.0737 H   0  0  0  0  0  0  0  0  0  0  0  0
   55.2470   22.5506   43.0980 H   0  0  0  0  0  0  0  0  0  0  0  0
   57.5090   24.6966   43.2742 H   0  0  0  0  0  0  0  0  0  0  0  0
   58.6620   26.8345   43.8375 H   0  0  0  0  0  0  0  0  0  0  0  0
   60.1349   27.1068   47.4333 H   0  0  0  0  0  0  0  0  0  0  0  0
   61.3348   29.1968   48.0410 H   0  0  0  0  0  0  0  0  0  0  0  0
   62.0090   31.0030   48.7980 H   0  0  0  0  0  0  0  0  0  0  0  0
   62.0384   34.7100   50.5346 H   0  0  0  0  0  0  0  0  0  0  0  0
   63.8504   35.2521   52.1583 H   0  0  0  0  0  0  0  0  0  0  0  0
   66.5766   32.6936   49.9855 H   0  0  0  0  0  0  0  0  0  0  0  0
   64.7692   32.1399   48.3599 H   0  0  0  0  0  0  0  0  0  0  0  0
   61.8602   35.0976   47.5003 H   0  0  0  0  0  0  0  0  0  0  0  0
   58.4918   31.5032   45.7359 H   0  0  0  0  0  0  0  0  0  0  0  0
   57.7757   28.0818   43.0877 H   0  0  0  0  0  0  0  0  0  0  0  0
   56.1944   28.7179   42.5205 H   0  0  0  0  0  0  0  0  0  0  0  0
   57.6423   29.7810   42.5205 H   0  0  0  0  0  0  0  0  0  0  0  0
   57.1988   26.5547   47.9015 H   0  0  0  0  0  0  0  0  0  0  0  0
   56.0459   24.4187   47.3422 H   0  0  0  0  0  0  0  0  0  0  0  0
   55.5134   22.6942   46.9159 H   0  0  0  0  0  0  0  0  0  0  0  0
   54.1212   23.0705   45.8293 H   0  0  0  0  0  0  0  0  0  0  0  0
   54.6094   20.5655   46.5248 H   0  0  0  0  0  0  0  0  0  0  0  0
   54.1629   20.9810   44.8116 H   0  0  0  0  0  0  0  0  0  0  0  0
  1  2  1  0
  2  3  1  0
  2  4  1  0
  4  5  1  0
  5  6  1  0
  6  7  1  0
  7  8  2  0
  8  9  1  0
  9 10  2  0
 10 11  1  0
 11 12  2  0
 12 13  1  0
 13 14  2  0
 14 15  1  0
 15 16  2  0
 16 17  1  0
 17 18  1  0
 18 19  2  0
 19 20  1  0
 20 21  2  0
 21 22  1  0
 21 23  1  0
 23 24  2  0
 17 25  2  0
 25 26  1  0
 14 27  1  0
 27 28  2  0
 28 29  1  0
 29 30  1  0
 29 31  2  0
 29 32  2  0
 10 33  1  0
 33 34  2  0
  6 35  1  0
 35 36  1  0
 36  2  1  0
 34  7  1  0
 28 11  1  0
 26 15  1  0
 24 18  1  0
  1 37  1  0
  1 38  1  0
  1 39  1  0
  3 40  1  0
  3 41  1  0
  3 42  1  0
  4 43  1  0
  4 44  1  0
  5 45  1  0
  5 46  1  0
  8 47  1  0
  9 48  1  0
 12 49  1  0
 13 50  1  0
 16 51  1  0
 19 52  1  0
 20 53  1  0
 23 54  1  0
 24 55  1  0
 25 56  1  0
 27 57  1  0
 30 58  1  0
 30 59  1  0
 30 60  1  0
 33 61  1  0
 34 62  1  0
 35 63  1  0
 35 64  1  0
 36 65  1  0
 36 66  1  0
M  CHG  2   2   1  16   1
M  END
>  <UniqueID>  (8) 
8

>  <SMILES>  (8) 
C[N+]1(C)CCN(c2ccc(-c3ccc(-c4[nH+]c(-c5ccc(Cl)cc5)cs4)cc3S(C)(=O)=O)cc2)CC1

>  <Energy>  (8) 
127.97398099520194

>  <Genealogy>  (8) 
C[N+]1(C)CCN(c2ccc(-c3ccc(-c4[nH+]c(-c5ccc(Cl)cc5)cs4)cc3S(C)(=O)=O)cc2)CC1 (protonated)
C[N+]1(C)CCN(c2ccc(-c3ccc(-c4[nH+]c(-c5ccc(Cl)cc5)cs4)cc3S(C)(=O)=O)cc2)CC1 (3D coordinates assigned)
C[N+]1(C)CCN(c2ccc(-c3ccc(-c4[nH+]c(-c5ccc(Cl)cc5)cs4)cc3S(C)(=O)=O)cc2)CC1 (nonaromatic ring conformer: 127.97398099520194 kcal/mol)

>  <smiles>  (8) 
C[N+]1(C)CCN(c2ccc(-c3ccc(-c4nc(-c5ccc(Cl)cc5)cs4)cc3S(C)(=O)=O)cc2)CC1

>  <score_type>  (8) 
oracle

>  <origin>  (8) 
adg

>  <m_score__min__energy>  (8) 
-7.46

>  <m_primary>  (8) 
energy

$$$$
8:0
     RDKit          3D

 58 60  0  0  0  0  0  0  0  0999 V2000
   58.1450   27.0590   42.8940 C   0  0  0  0  0  0  0  0  0  0  0  0
   57.8290   26.9180   44.3830 C   0  0  0  0  0  0  0  0  0  0  0  0
   58.3340   28.0560   45.1870 N   0  0  0  0  0  0  0  0  0  0  0  0
   57.8280   27.9860   46.5760 C   0  0  0  0  0  0  0  0  0  0  0  0
   58.8330   27.3190   47.5150 C   0  0  0  0  0  0  0  0  0  0  0  0
   59.8010   28.2900   45.0830 C   0  0  0  0  0  0  0  0  0  0  0  0
   60.3060   29.6520   45.6110 C   0  0  0  0  0  0  0  0  0  0  0  0
   59.2070   30.4940   46.0840 N   0  0  0  0  0  0  0  0  0  0  0  0
   59.4640   31.7850   46.6540 C   0  0  0  0  0  0  0  0  0  0  0  0
   58.6190   32.8750   46.3520 C   0  0  0  0  0  0  0  0  0  0  0  0
   57.5480   32.6640   45.4680 O   0  0  0  0  0  0  0  0  0  0  0  0
   57.4090   33.2960   44.1970 C   0  0  0  0  0  0  0  0  0  0  0  0
   57.8400   32.3290   43.0880 C   0  0  0  0  0  0  0  0  0  0  0  0
   57.7710   30.9180   43.5160 N   0  0  0  0  0  0  0  0  0  0  0  0
   56.6480   30.1790   42.9170 C   0  0  0  0  0  0  0  0  0  0  0  0
   55.6460   29.6880   43.9660 C   0  0  0  0  0  0  0  0  0  0  0  0
   56.1270   29.9910   45.2450 O   0  0  0  0  0  0  0  0  0  0  0  0
   58.8710   34.1440   46.9310 C   0  0  0  0  0  0  0  0  0  0  0  0
   59.9470   34.3310   47.8100 C   0  0  0  0  0  0  0  0  0  0  0  0
   60.7660   33.2450   48.1140 C   0  0  0  0  0  0  0  0  0  0  0  0
   60.5260   31.9950   47.5450 C   0  0  0  0  0  0  0  0  0  0  0  0
   61.6460   30.8720   48.1440 S   0  0  0  0  0  0  0  0  0  0  0  0
   62.4490   31.9910   49.1130 C   0  0  0  0  0  0  0  0  0  0  0  0
   63.5410   31.7970   49.9510 C   0  0  0  0  0  0  0  0  0  0  0  0
   64.0220   32.9030   50.6670 C   0  0  0  0  0  0  0  0  0  0  0  0
   63.3940   34.1560   50.5240 C   0  0  0  0  0  0  0  0  0  0  0  0
   62.3220   34.3030   49.6900 N   0  0  0  0  0  0  0  0  0  0  0  0
   61.8540   33.2360   48.9920 C   0  0  0  0  0  0  0  0  0  0  0  0
   59.1433   27.5044   42.7716 H   0  0  0  0  0  0  0  0  0  0  0  0
   58.1255   26.0668   42.4195 H   0  0  0  0  0  0  0  0  0  0  0  0
   57.3936   27.7072   42.4195 H   0  0  0  0  0  0  0  0  0  0  0  0
   56.7377   26.8572   44.5066 H   0  0  0  0  0  0  0  0  0  0  0  0
   58.3316   26.0085   44.7438 H   0  0  0  0  0  0  0  0  0  0  0  0
   57.6297   29.0069   46.9343 H   0  0  0  0  0  0  0  0  0  0  0  0
   56.9091   27.3813   46.5744 H   0  0  0  0  0  0  0  0  0  0  0  0
   58.5433   27.5113   48.5586 H   0  0  0  0  0  0  0  0  0  0  0  0
   58.8428   26.2345   47.3311 H   0  0  0  0  0  0  0  0  0  0  0  0
   59.8361   27.7312   47.3311 H   0  0  0  0  0  0  0  0  0  0  0  0
   60.3099   27.4981   45.6522 H   0  0  0  0  0  0  0  0  0  0  0  0
   60.0278   28.2851   44.0067 H   0  0  0  0  0  0  0  0  0  0  0  0
   61.0023   29.4747   46.4439 H   0  0  0  0  0  0  0  0  0  0  0  0
   60.8050   30.1757   44.7823 H   0  0  0  0  0  0  0  0  0  0  0  0
   58.2790   30.3640   45.6200 H   0  0  0  0  0  0  0  0  0  0  0  0
   56.3580   33.5823   44.0442 H   0  0  0  0  0  0  0  0  0  0  0  0
   58.0450   34.1929   44.1651 H   0  0  0  0  0  0  0  0  0  0  0  0
   57.1781   32.4682   42.2206 H   0  0  0  0  0  0  0  0  0  0  0  0
   58.8869   32.5527   42.8350 H   0  0  0  0  0  0  0  0  0  0  0  0
   57.7420   30.8200   44.5580 H   0  0  0  0  0  0  0  0  0  0  0  0
   56.1249   30.8419   42.2120 H   0  0  0  0  0  0  0  0  0  0  0  0
   57.0613   29.2953   42.4087 H   0  0  0  0  0  0  0  0  0  0  0  0
   54.6777   30.1863   43.8103 H   0  0  0  0  0  0  0  0  0  0  0  0
   55.5166   28.5999   43.8700 H   0  0  0  0  0  0  0  0  0  0  0  0
   56.3440   30.9590   45.2360 H   0  0  0  0  0  0  0  0  0  0  0  0
   58.2144   34.9923   46.6877 H   0  0  0  0  0  0  0  0  0  0  0  0
   60.1418   35.3190   48.2527 H   0  0  0  0  0  0  0  0  0  0  0  0
   64.0126   30.8081   50.0494 H   0  0  0  0  0  0  0  0  0  0  0  0
   64.8867   32.7924   51.3379 H   0  0  0  0  0  0  0  0  0  0  0  0
   63.7696   35.0224   51.0881 H   0  0  0  0  0  0  0  0  0  0  0  0
  1  2  1  0
  2  3  1  0
  3  4  1  0
  4  5  1  0
  3  6  1  0
  6  7  1  0
  7  8  1  0
  8  9  1  0
  9 10  2  0
 10 11  1  0
 11 12  1  0
 12 13  1  0
 13 14  1  0
 14 15  1  0
 15 16  1  0
 16 17  1  0
 10 18  1  0
 18 19  2  0
 19 20  1  0
 20 21  2  0
 21 22  1  0
 22 23  1  0
 23 24  2  0
 24 25  1  0
 25 26  2  0
 26 27  1  0
 27 28  2  0
 21  9  1  0
 28 23  1  0
 28 20  1  0
  1 29  1  0
  1 30  1  0
  1 31  1  0
  2 32  1  0
  2 33  1  0
  4 34  1  0
  4 35  1  0
  5 36  1  0
  5 37  1  0
  5 38  1  0
  6 39  1  0
  6 40  1  0
  7 41  1  0
  7 42  1  0
  8 43  1  0
 12 44  1  0
 12 45  1  0
 13 46  1  0
 13 47  1  0
 14 48  1  0
 15 49  1  0
 15 50  1  0
 16 51  1  0
 16 52  1  0
 17 53  1  0
 18 54  1  0
 19 55  1  0
 24 56  1  0
 25 57  1  0
 26 58  1  0
M  END
>  <UniqueID>  (9) 
9

>  <SMILES>  (9) 
CCN(CC)CCNc1c(OCCNCCO)ccc2c1sc1cccnc12

>  <Energy>  (9) 
101.1365845146641

>  <Genealogy>  (9) 
CCN(CC)CCNc1c(OCCNCCO)ccc2c1sc1cccnc12 (3D coordinates assigned)
CCN(CC)CCNc1c(OCCNCCO)ccc2c1sc1cccnc12 (optimized conformer: 101.1365845146641 kcal/mol)

>  <smiles>  (9) 
CCN(CC)CCNc1c(OCCNCCO)ccc2c1sc1cccnc12

>  <score_type>  (9) 
oracle

>  <origin>  (9) 
adg

>  <m_score__min__energy>  (9) 
-5.8499999999999996

>  <m_primary>  (9) 
energy

$$$$
9:0
     RDKit          3D

 30 31  0  0  0  0  0  0  0  0999 V2000
   57.1890   31.2220   43.1780 C   0  0  0  0  0  0  0  0  0  0  0  0
   56.4760   30.9170   44.4100 N   0  0  0  0  0  0  0  0  0  0  0  0
   56.2100   29.5770   44.8380 C   0  0  0  0  0  0  0  0  0  0  0  0
   55.1390   29.0120   44.4880 O   0  0  0  0  0  0  0  0  0  0  0  0
   57.1930   28.8650   45.6940 C   0  0  0  0  0  0  0  0  0  0  0  0
   57.0280   27.4860   45.9200 C   0  0  0  0  0  0  0  0  0  0  0  0
   57.9360   26.7800   46.7110 C   0  0  0  0  0  0  0  0  0  0  0  0
   57.6980   24.9050   46.9940 Br  0  0  0  0  0  0  0  0  0  0  0  0
   59.0220   27.4390   47.2860 C   0  0  0  0  0  0  0  0  0  0  0  0
   59.2000   28.8090   47.0870 C   0  0  0  0  0  0  0  0  0  0  0  0
   60.7250   29.6580   47.8810 Br  0  0  0  0  0  0  0  0  0  0  0  0
   58.2840   29.5350   46.3040 C   0  0  0  0  0  0  0  0  0  0  0  0
   58.4430   30.9540   46.1650 N   0  0  0  0  0  0  0  0  0  0  0  0
   58.5280   31.8310   47.3310 C   0  0  0  0  0  0  0  0  0  0  0  0
   58.9130   33.2140   46.9120 C   0  0  0  0  0  0  0  0  0  0  0  0
   59.2360   34.2530   47.7630 C   0  0  0  0  0  0  0  0  0  0  0  0
   59.4670   35.3390   46.9470 C   0  0  0  0  0  0  0  0  0  0  0  0
   59.2700   34.8970   45.6540 C   0  0  0  0  0  0  0  0  0  0  0  0
   58.9380   33.6260   45.6670 O   0  0  0  0  0  0  0  0  0  0  0  0
   58.1755   31.6440   43.4202 H   0  0  0  0  0  0  0  0  0  0  0  0
   57.3183   30.3005   42.5915 H   0  0  0  0  0  0  0  0  0  0  0  0
   56.6119   31.9520   42.5915 H   0  0  0  0  0  0  0  0  0  0  0  0
   56.1746   26.9588   45.4686 H   0  0  0  0  0  0  0  0  0  0  0  0
   59.7416   26.8767   47.8991 H   0  0  0  0  0  0  0  0  0  0  0  0
   58.4930   31.3660   45.2060 H   0  0  0  0  0  0  0  0  0  0  0  0
   57.5499   31.8629   47.8334 H   0  0  0  0  0  0  0  0  0  0  0  0
   59.2918   31.4394   48.0189 H   0  0  0  0  0  0  0  0  0  0  0  0
   59.2961   34.2203   48.8609 H   0  0  0  0  0  0  0  0  0  0  0  0
   59.7512   36.3538   47.2623 H   0  0  0  0  0  0  0  0  0  0  0  0
   59.3751   35.5152   44.7502 H   0  0  0  0  0  0  0  0  0  0  0  0
  1  2  1  0
  2  3  1  0
  3  4  2  0
  3  5  1  0
  5  6  2  0
  6  7  1  0
  7  8  1  0
  7  9  2  0
  9 10  1  0
 10 11  1  0
 10 12  2  0
 12 13  1  0
 13 14  1  0
 14 15  1  0
 15 16  2  0
 16 17  1  0
 17 18  2  0
 18 19  1  0
 12  5  1  0
 19 15  1  0
  1 20  1  0
  1 21  1  0
  1 22  1  0
  6 23  1  0
  9 24  1  0
 13 25  1  0
 14 26  1  0
 14 27  1  0
 16 28  1  0
 17 29  1  0
 18 30  1  0
M  CHG  1   2  -1
M  END
>  <UniqueID>  (10) 
10

>  <SMILES>  (10) 
C[N-]C(=O)c1cc(Br)cc(Br)c1NCc1ccco1

>  <Energy>  (10) 
59.58123342814802

>  <Genealogy>  (10) 
C[N-]C(=O)c1cc(Br)cc(Br)c1NCc1ccco1 (protonated)
C[N-]C(=O)c1cc(Br)cc(Br)c1NCc1ccco1 (3D coordinates assigned)
C[N-]C(=O)c1cc(Br)cc(Br)c1NCc1ccco1 (optimized conformer: 59.58123342814802 kcal/mol)

>  <smiles>  (10) 
CNC(=O)c1cc(Br)cc(Br)c1NCc1ccco1

>  <score_type>  (10) 
oracle

>  <origin>  (10) 
adg

>  <m_score__min__energy>  (10) 
-8.3200000000000003

>  <m_primary>  (10) 
energy

$$$$
10:0
     RDKit          3D

 62 65  0  0  0  0  0  0  0  0999 V2000
   57.3980   25.5910   44.5560 C   0  0  0  0  0  0  0  0  0  0  0  0
   56.8260   26.0780   45.8860 C   0  0  0  0  0  0  0  0  0  0  0  0
   55.6250   26.7290   45.6520 F   0  0  0  0  0  0  0  0  0  0  0  0
   56.5650   24.9820   46.6940 F   0  0  0  0  0  0  0  0  0  0  0  0
   57.8030   27.0060   46.5690 C   0  0  0  0  0  0  0  0  0  0  0  0
   57.8010   28.3810   46.2900 C   0  0  0  0  0  0  0  0  0  0  0  0
   58.6950   29.2380   46.9410 C   0  0  0  0  0  0  0  0  0  0  0  0
   59.6250   28.7380   47.8740 C   0  0  0  0  0  0  0  0  0  0  0  0
   60.5160   29.6320   48.5830 N   0  0  0  0  0  0  0  0  0  0  0  0
   61.1040   30.7990   47.9110 C   0  0  0  0  0  0  0  0  0  0  0  0
   62.3560   31.2830   48.6570 C   0  0  0  0  0  0  0  0  0  0  0  0
   62.1070   31.5860   50.0960 N   0  0  0  0  0  0  0  0  0  0  0  0
   61.8690   33.0350   50.3150 C   0  0  0  0  0  0  0  0  0  0  0  0
   62.3390   33.8990   49.1310 C   0  0  0  0  0  0  0  0  0  0  0  0
   61.2660   33.9930   48.1290 N   0  0  0  0  0  0  0  0  0  0  0  0
   61.5610   33.8180   46.7270 C   0  0  0  0  0  0  0  0  0  0  0  0
   62.7250   33.5080   46.3570 O   0  0  0  0  0  0  0  0  0  0  0  0
   60.5190   34.0890   45.6770 C   0  0  0  0  0  0  0  0  0  0  0  0
   59.0730   33.9420   46.2240 C   0  0  0  0  0  0  0  0  0  0  0  0
   58.0630   34.3940   45.1570 C   0  0  0  0  0  0  0  0  0  0  0  0
   57.7610   33.1600   44.3290 C   0  0  0  0  0  0  0  0  0  0  0  0
   57.8690   31.9880   45.2910 C   0  0  0  0  0  0  0  0  0  0  0  0
   58.7170   32.4560   46.4750 C   0  0  0  0  0  0  0  0  0  0  0  0
   58.9190   34.7960   47.5030 C   0  0  0  0  0  0  0  0  0  0  0  0
   59.9500   34.4260   48.5300 C   0  0  0  0  0  0  0  0  0  0  0  0
   59.6600   34.5390   49.7530 O   0  0  0  0  0  0  0  0  0  0  0  0
   60.9880   30.8000   50.6880 C   0  0  0  0  0  0  0  0  0  0  0  0
   60.7940   29.4380   50.0130 C   0  0  0  0  0  0  0  0  0  0  0  0
   59.6620   27.3500   48.1060 C   0  0  0  0  0  0  0  0  0  0  0  0
   58.7650   26.4940   47.4590 C   0  0  0  0  0  0  0  0  0  0  0  0
   58.2229   24.8887   44.7468 H   0  0  0  0  0  0  0  0  0  0  0  0
   56.6093   25.0829   43.9817 H   0  0  0  0  0  0  0  0  0  0  0  0
   57.7738   26.4506   43.9817 H   0  0  0  0  0  0  0  0  0  0  0  0
   57.0917   28.7880   45.5544 H   0  0  0  0  0  0  0  0  0  0  0  0
   58.6716   30.3157   46.7217 H   0  0  0  0  0  0  0  0  0  0  0  0
   61.3810   30.5219   46.8831 H   0  0  0  0  0  0  0  0  0  0  0  0
   60.3626   31.6115   47.9013 H   0  0  0  0  0  0  0  0  0  0  0  0
   63.1248   30.4988   48.5936 H   0  0  0  0  0  0  0  0  0  0  0  0
   62.6777   32.2198   48.1785 H   0  0  0  0  0  0  0  0  0  0  0  0
   62.9720   31.3160   50.6240 H   0  0  0  0  0  0  0  0  0  0  0  0
   60.7909   33.1964   50.4625 H   0  0  0  0  0  0  0  0  0  0  0  0
   62.4499   33.3376   51.1988 H   0  0  0  0  0  0  0  0  0  0  0  0
   62.5919   34.9070   49.4916 H   0  0  0  0  0  0  0  0  0  0  0  0
   63.2260   33.4373   48.6726 H   0  0  0  0  0  0  0  0  0  0  0  0
   60.6526   35.1151   45.3037 H   0  0  0  0  0  0  0  0  0  0  0  0
   60.6507   33.3473   44.8754 H   0  0  0  0  0  0  0  0  0  0  0  0
   57.1455   34.7708   45.6326 H   0  0  0  0  0  0  0  0  0  0  0  0
   58.4642   35.2101   44.5380 H   0  0  0  0  0  0  0  0  0  0  0  0
   56.7467   33.2189   43.9074 H   0  0  0  0  0  0  0  0  0  0  0  0
   58.4551   33.0575   43.4818 H   0  0  0  0  0  0  0  0  0  0  0  0
   56.8683   31.6906   45.6376 H   0  0  0  0  0  0  0  0  0  0  0  0
   58.3289   31.1182   44.7991 H   0  0  0  0  0  0  0  0  0  0  0  0
   58.1457   32.3580   47.4099 H   0  0  0  0  0  0  0  0  0  0  0  0
   59.6280   31.8465   46.5681 H   0  0  0  0  0  0  0  0  0  0  0  0
   59.0376   35.8580   47.2419 H   0  0  0  0  0  0  0  0  0  0  0  0
   57.9215   34.6103   47.9280 H   0  0  0  0  0  0  0  0  0  0  0  0
   61.2001   30.6361   51.7548 H   0  0  0  0  0  0  0  0  0  0  0  0
   60.0637   31.3773   50.5386 H   0  0  0  0  0  0  0  0  0  0  0  0
   61.7083   28.8378   50.1301 H   0  0  0  0  0  0  0  0  0  0  0  0
   59.9477   28.9149   50.4821 H   0  0  0  0  0  0  0  0  0  0  0  0
   60.4042   26.9344   48.8034 H   0  0  0  0  0  0  0  0  0  0  0  0
   58.8120   25.4113   47.6475 H   0  0  0  0  0  0  0  0  0  0  0  0
  1  2  1  0
  2  3  1  0
  2  4  1  0
  2  5  1  0
  5  6  2  0
  6  7  1  0
  7  8  2  0
  8  9  1  0
  9 10  1  0
 10 11  1  0
 11 12  1  0
 12 13  1  0
 13 14  1  0
 14 15  1  0
 15 16  1  0
 16 17  2  0
 16 18  1  0
 18 19  1  0
 19 20  1  0
 20 21  1  0
 21 22  1  0
 22 23  1  0
 19 24  1  0
 24 25  1  0
 25 26  2  0
 12 27  1  0
 27 28  1  0
  8 29  1  0
 29 30  2  0
 30  5  1  0
 28  9  1  0
 25 15  1  0
 23 19  1  0
  1 31  1  0
  1 32  1  0
  1 33  1  0
  6 34  1  0
  7 35  1  0
 10 36  1  0
 10 37  1  0
 11 38  1  0
 11 39  1  0
 12 40  1  0
 13 41  1  0
 13 42  1  0
 14 43  1  0
 14 44  1  0
 18 45  1  0
 18 46  1  0
 20 47  1  0
 20 48  1  0
 21 49  1  0
 21 50  1  0
 22 51  1  0
 22 52  1  0
 23 53  1  0
 23 54  1  0
 24 55  1  0
 24 56  1  0
 27 57  1  0
 27 58  1  0
 28 59  1  0
 28 60  1  0
 29 61  1  0
 30 62  1  0
M  CHG  1  12   1
M  END
>  <UniqueID>  (11) 
11

>  <SMILES>  (11) 
CC(F)(F)c1ccc(N2CC[NH+](CCN3C(=O)CC4(CCCC4)CC3=O)CC2)cc1

>  <Energy>  (11) 
74.1818569763955

>  <Genealogy>  (11) 
CC(F)(F)c1ccc(N2CC[NH+](CCN3C(=O)CC4(CCCC4)CC3=O)CC2)cc1 (protonated)
CC(F)(F)c1ccc(N2CC[NH+](CCN3C(=O)CC4(CCCC4)CC3=O)CC2)cc1 (3D coordinates assigned)
CC(F)(F)c1ccc(N2CC[NH+](CCN3C(=O)CC4(CCCC4)CC3=O)CC2)cc1 (nonaromatic ring conformer: 74.1818569763955 kcal/mol)

>  <smiles>  (11) 
CC(F)(F)c1ccc(N2CCN(CCN3C(=O)CC4(CCCC4)CC3=O)CC2)cc1

>  <score_type>  (11) 
oracle

>  <origin>  (11) 
adg

>  <m_score__min__energy>  (11) 
-7.2000000000000002

>  <m_primary>  (11) 
energy

$$$$
11:0
     RDKit          3D

 61 65  0  0  0  0  0  0  0  0999 V2000
   65.8070   33.1830   50.1190 C   0  0  0  0  0  0  0  0  0  0  0  0
   64.8960   32.0330   49.6980 C   0  0  0  0  0  0  0  0  0  0  0  0
   64.8510   31.0860   50.8760 C   0  0  0  0  0  0  0  0  0  0  0  0
   63.6170   32.5900   49.3820 N   0  0  0  0  0  0  0  0  0  0  0  0
   63.1580   32.3510   48.0520 C   0  0  0  0  0  0  0  0  0  0  0  0
   62.2720   33.5390   47.6810 C   0  0  0  0  0  0  0  0  0  0  0  0
   61.2890   33.6430   48.7270 N   0  0  0  0  0  0  0  0  0  0  0  0
   60.0440   34.2260   48.3330 C   0  0  0  0  0  0  0  0  0  0  0  0
   59.5110   33.7680   47.0470 C   0  0  0  0  0  0  0  0  0  0  0  0
   59.2110   34.6480   46.0280 C   0  0  0  0  0  0  0  0  0  0  0  0
   58.7090   34.2370   44.8040 C   0  0  0  0  0  0  0  0  0  0  0  0
   58.4830   32.9010   44.5460 C   0  0  0  0  0  0  0  0  0  0  0  0
   58.7750   32.0050   45.5470 C   0  0  0  0  0  0  0  0  0  0  0  0
   58.5570   30.5620   45.3380 C   0  0  0  0  0  0  0  0  0  0  0  0
   59.3890   29.6330   45.9610 C   0  0  0  0  0  0  0  0  0  0  0  0
   59.2330   28.2770   45.8040 C   0  0  0  0  0  0  0  0  0  0  0  0
   58.2220   27.8040   45.0040 C   0  0  0  0  0  0  0  0  0  0  0  0
   58.0630   26.3670   44.8420 C   0  0  0  0  0  0  0  0  0  0  0  0
   58.5330   25.3830   45.6230 N   0  0  0  0  0  0  0  0  0  0  0  0
   58.1610   24.1900   45.1210 C   0  0  0  0  0  0  0  0  0  0  0  0
   58.3390   22.8670   45.4720 C   0  0  0  0  0  0  0  0  0  0  0  0
   57.8190   21.8260   44.7350 C   0  0  0  0  0  0  0  0  0  0  0  0
   57.0870   22.0810   43.5950 C   0  0  0  0  0  0  0  0  0  0  0  0
   56.8960   23.3940   43.2260 C   0  0  0  0  0  0  0  0  0  0  0  0
   57.4300   24.4410   43.9820 C   0  0  0  0  0  0  0  0  0  0  0  0
   57.3840   25.7940   43.8330 N   0  0  0  0  0  0  0  0  0  0  0  0
   57.4020   28.7180   44.3910 C   0  0  0  0  0  0  0  0  0  0  0  0
   57.5440   30.0810   44.5370 C   0  0  0  0  0  0  0  0  0  0  0  0
   59.2800   32.4230   46.7770 C   0  0  0  0  0  0  0  0  0  0  0  0
   61.9040   34.2230   49.8790 C   0  0  0  0  0  0  0  0  0  0  0  0
   63.3970   33.9040   49.8940 C   0  0  0  0  0  0  0  0  0  0  0  0
   65.8482   33.2350   51.2170 H   0  0  0  0  0  0  0  0  0  0  0  0
   66.8187   33.0137   49.7217 H   0  0  0  0  0  0  0  0  0  0  0  0
   65.4106   34.1291   49.7217 H   0  0  0  0  0  0  0  0  0  0  0  0
   65.2439   31.4835   48.8109 H   0  0  0  0  0  0  0  0  0  0  0  0
   64.8784   31.6634   51.8119 H   0  0  0  0  0  0  0  0  0  0  0  0
   63.9238   30.4955   50.8365 H   0  0  0  0  0  0  0  0  0  0  0  0
   65.7180   30.4102   50.8365 H   0  0  0  0  0  0  0  0  0  0  0  0
   64.0116   32.2828   47.3615 H   0  0  0  0  0  0  0  0  0  0  0  0
   62.6027   31.4037   47.9861 H   0  0  0  0  0  0  0  0  0  0  0  0
   62.8709   34.4601   47.6264 H   0  0  0  0  0  0  0  0  0  0  0  0
   61.8002   33.3979   46.6974 H   0  0  0  0  0  0  0  0  0  0  0  0
   59.3005   33.9941   49.1098 H   0  0  0  0  0  0  0  0  0  0  0  0
   60.2393   35.3018   48.2127 H   0  0  0  0  0  0  0  0  0  0  0  0
   59.3776   35.7225   46.1945 H   0  0  0  0  0  0  0  0  0  0  0  0
   58.4880   34.9851   44.0285 H   0  0  0  0  0  0  0  0  0  0  0  0
   58.0847   32.5655   43.5771 H   0  0  0  0  0  0  0  0  0  0  0  0
   60.2027   30.0002   46.6038 H   0  0  0  0  0  0  0  0  0  0  0  0
   59.9112   27.5771   46.3141 H   0  0  0  0  0  0  0  0  0  0  0  0
   58.9196   22.6346   46.3769 H   0  0  0  0  0  0  0  0  0  0  0  0
   57.9883   20.7879   45.0571 H   0  0  0  0  0  0  0  0  0  0  0  0
   56.6672   21.2588   42.9969 H   0  0  0  0  0  0  0  0  0  0  0  0
   56.3135   23.6224   42.3213 H   0  0  0  0  0  0  0  0  0  0  0  0
   56.8800   26.2270   43.0340 H   0  0  0  0  0  0  0  0  0  0  0  0
   56.5900   28.3435   43.7504 H   0  0  0  0  0  0  0  0  0  0  0  0
   56.8606   30.7730   44.0231 H   0  0  0  0  0  0  0  0  0  0  0  0
   59.5007   31.6732   47.5510 H   0  0  0  0  0  0  0  0  0  0  0  0
   61.7654   35.3140   49.8549 H   0  0  0  0  0  0  0  0  0  0  0  0
   61.4379   33.8061   50.7840 H   0  0  0  0  0  0  0  0  0  0  0  0
   63.9324   34.6337   49.2688 H   0  0  0  0  0  0  0  0  0  0  0  0
   63.7689   33.9573   50.9279 H   0  0  0  0  0  0  0  0  0  0  0  0
  1  2  1  0
  2  3  1  0
  2  4  1  0
  4  5  1  0
  5  6  1  0
  6  7  1  0
  7  8  1  0
  8  9  1  0
  9 10  2  0
 10 11  1  0
 11 12  2  0
 12 13  1  0
 13 14  1  0
 14 15  2  0
 15 16  1  0
 16 17  2  0
 17 18  1  0
 18 19  2  0
 19 20  1  0
 20 21  2  0
 21 22  1  0
 22 23  2  0
 23 24  1  0
 24 25  2  0
 25 26  1  0
 17 27  1  0
 27 28  2  0
 13 29  2  0
  7 30  1  0
 30 31  1  0
 31  4  1  0
 29  9  1  0
 28 14  1  0
 26 18  1  0
 25 20  1  0
  1 32  1  0
  1 33  1  0
  1 34  1  0
  2 35  1  0
  3 36  1  0
  3 37  1  0
  3 38  1  0
  5 39  1  0
  5 40  1  0
  6 41  1  0
  6 42  1  0
  8 43  1  0
  8 44  1  0
 10 45  1  0
 11 46  1  0
 12 47  1  0
 15 48  1  0
 16 49  1  0
 21 50  1  0
 22 51  1  0
 23 52  1  0
 24 53  1  0
 26 54  1  0
 27 55  1  0
 28 56  1  0
 29 57  1  0
 30 58  1  0
 30 59  1  0
 31 60  1  0
 31 61  1  0
M  END
>  <smiles>  (12) 
CC(C)N1CCN(Cc2cccc(-c3ccc(-c4nc5ccccc5[nH]4)cc3)c2)CC1

>  <score_type>  (12) 
oracle

>  <origin>  (12) 
adg

>  <m_score__min__energy>  (12) 
-10.02

>  <m_primary>  (12) 
energy

$$$$
12:0
     RDKit          3D

 43 44  0  0  0  0  0  0  0  0999 V2000
   57.0900   32.7230   40.3310 C   0  0  0  0  0  0  0  0  0  0  0  0
   57.7920   32.0140   41.4860 C   0  0  0  0  0  0  0  0  0  0  0  0
   57.9910   32.9040   42.5750 O   0  0  0  0  0  0  0  0  0  0  0  0
   57.8510   32.2400   43.8190 C   0  0  0  0  0  0  0  0  0  0  0  0
   57.2130   30.8540   43.6270 C   0  0  0  0  0  0  0  0  0  0  0  0
   56.6760   30.3360   44.8870 N   0  0  0  0  0  0  0  0  0  0  0  0
   56.1700   29.1490   45.0710 C   0  0  0  0  0  0  0  0  0  0  0  0
   56.9880   27.9660   45.4210 C   0  0  0  0  0  0  0  0  0  0  0  0
   56.3920   26.7720   45.8570 C   0  0  0  0  0  0  0  0  0  0  0  0
   55.0050   26.7090   45.9920 O   0  0  0  0  0  0  0  0  0  0  0  0
   57.1680   25.6780   46.1520 N   0  0  0  0  0  0  0  0  0  0  0  0
   56.5240   24.4130   46.5570 C   0  0  0  0  0  0  0  0  0  0  0  0
   56.5090   23.4300   45.4150 C   0  0  0  0  0  0  0  0  0  0  0  0
   56.6690   23.8730   44.0920 C   0  0  0  0  0  0  0  0  0  0  0  0
   56.6580   22.9570   43.0360 C   0  0  0  0  0  0  0  0  0  0  0  0
   56.4930   21.5930   43.2900 C   0  0  0  0  0  0  0  0  0  0  0  0
   56.3440   21.1340   44.6080 C   0  0  0  0  0  0  0  0  0  0  0  0
   56.1390   19.6740   44.8810 C   0  0  0  0  0  0  0  0  0  0  0  0
   56.3330   22.0590   45.6650 C   0  0  0  0  0  0  0  0  0  0  0  0
   58.5340   25.7750   46.0760 C   0  0  0  0  0  0  0  0  0  0  0  0
   59.2720   24.7920   46.3540 O   0  0  0  0  0  0  0  0  0  0  0  0
   59.1180   26.9410   45.7000 N   0  0  0  0  0  0  0  0  0  0  0  0
   58.3830   28.0320   45.3780 C   0  0  0  0  0  0  0  0  0  0  0  0
   58.9690   29.0930   45.0290 O   0  0  0  0  0  0  0  0  0  0  0  0
   56.3692   33.4510   40.7315 H   0  0  0  0  0  0  0  0  0  0  0  0
   57.8357   33.2464   39.7145 H   0  0  0  0  0  0  0  0  0  0  0  0
   56.5592   31.9826   39.7145 H   0  0  0  0  0  0  0  0  0  0  0  0
   57.1734   31.1678   41.8196 H   0  0  0  0  0  0  0  0  0  0  0  0
   58.7723   31.6564   41.1379 H   0  0  0  0  0  0  0  0  0  0  0  0
   58.8435   32.1201   44.2780 H   0  0  0  0  0  0  0  0  0  0  0  0
   57.1996   32.8419   44.4697 H   0  0  0  0  0  0  0  0  0  0  0  0
   56.3956   30.9341   42.8952 H   0  0  0  0  0  0  0  0  0  0  0  0
   57.9891   30.1612   43.2696 H   0  0  0  0  0  0  0  0  0  0  0  0
   55.0831   29.0202   44.9609 H   0  0  0  0  0  0  0  0  0  0  0  0
   57.0816   23.9782   47.3997 H   0  0  0  0  0  0  0  0  0  0  0  0
   55.4860   24.6250   46.8531 H   0  0  0  0  0  0  0  0  0  0  0  0
   56.8035   24.9451   43.8858 H   0  0  0  0  0  0  0  0  0  0  0  0
   56.7796   23.3112   42.0017 H   0  0  0  0  0  0  0  0  0  0  0  0
   56.4798   20.8771   42.4549 H   0  0  0  0  0  0  0  0  0  0  0  0
   56.1151   19.5040   45.9675 H   0  0  0  0  0  0  0  0  0  0  0  0
   55.1863   19.3484   44.4379 H   0  0  0  0  0  0  0  0  0  0  0  0
   56.9652   19.0986   44.4379 H   0  0  0  0  0  0  0  0  0  0  0  0
   56.1854   21.7070   46.6967 H   0  0  0  0  0  0  0  0  0  0  0  0
  1  2  1  0
  2  3  1  0
  3  4  1  0
  4  5  1  0
  5  6  1  0
  6  7  2  3
  7  8  1  0
  8  9  2  0
  9 10  1  0
  9 11  1  0
 11 12  1  0
 12 13  1  0
 13 14  2  0
 14 15  1  0
 15 16  2  0
 16 17  1  0
 17 18  1  0
 17 19  2  0
 11 20  1  0
 20 21  2  0
 20 22  1  0
 22 23  1  0
 23 24  2  0
 23  8  1  0
 19 13  1  0
  1 25  1  0
  1 26  1  0
  1 27  1  0
  2 28  1  0
  2 29  1  0
  4 30  1  0
  4 31  1  0
  5 32  1  0
  5 33  1  0
  7 34  1  0
 12 35  1  0
 12 36  1  0
 14 37  1  0
 15 38  1  0
 16 39  1  0
 18 40  1  0
 18 41  1  0
 18 42  1  0
 19 43  1  0
M  CHG  2  10  -1  22  -1
M  END
>  <UniqueID>  (13) 
12

>  <SMILES>  (13) 
CCOCCN=Cc1c([O-])n(Cc2cccc(C)c2)c(=O)[n-]c1=O

>  <Energy>  (13) 
54.52641194097347

>  <Genealogy>  (13) 
CCOCCN=Cc1c([O-])n(Cc2cccc(C)c2)c(=O)[n-]c1=O (protonated)
CCOCCN=Cc1c([O-])n(Cc2cccc(C)c2)c(=O)[n-]c1=O (3D coordinates assigned)
CCOCCN=Cc1c([O-])n(Cc2cccc(C)c2)c(=O)[n-]c1=O (optimized conformer: 54.52641194097347 kcal/mol)

>  <smiles>  (13) 
CCOCCN=Cc1c(O)n(Cc2cccc(C)c2)c(=O)[nH]c1=O

>  <score_type>  (13) 
oracle

>  <origin>  (13) 
adg

>  <m_score__min__energy>  (13) 
-11.56

>  <m_primary>  (13) 
energy

$$$$
13:0
     RDKit          3D

 50 52  0  0  0  0  0  0  0  0999 V2000
   59.5920   35.0540   47.0540 C   0  0  0  0  0  0  0  0  0  0  0  0
   60.0040   33.6240   46.9290 C   0  0  0  0  0  0  0  0  0  0  0  0
   60.8810   33.3030   46.0770 O   0  0  0  0  0  0  0  0  0  0  0  0
   59.4720   32.6430   47.8340 N   0  0  0  0  0  0  0  0  0  0  0  0
   59.6370   31.2250   47.6670 C   0  0  0  0  0  0  0  0  0  0  0  0
   58.9100   30.3440   48.4850 C   0  0  0  0  0  0  0  0  0  0  0  0
   59.0400   28.9610   48.3290 C   0  0  0  0  0  0  0  0  0  0  0  0
   59.8840   28.4400   47.3380 C   0  0  0  0  0  0  0  0  0  0  0  0
   60.0450   26.6980   47.1230 S   0  0  0  0  0  0  0  0  0  0  0  0
   59.5230   25.9890   48.3440 O   0  0  0  0  0  0  0  0  0  0  0  0
   61.5040   26.3650   46.9650 O   0  0  0  0  0  0  0  0  0  0  0  0
   59.1470   26.2150   45.6990 N   0  0  0  0  0  0  0  0  0  0  0  0
   59.2270   27.2320   44.6180 C   0  0  0  0  0  0  0  0  0  0  0  0
   57.8720   27.8670   44.2450 C   0  0  0  0  0  0  0  0  0  0  0  0
   57.0650   28.1980   45.5110 C   0  0  0  0  0  0  0  0  0  0  0  0
   55.7880   28.8330   45.1780 N   0  0  0  0  0  0  0  0  0  0  0  0
   55.5570   29.7540   44.0990 C   0  0  0  0  0  0  0  0  0  0  0  0
   54.5220   29.6460   43.3840 O   0  0  0  0  0  0  0  0  0  0  0  0
   56.5330   30.8350   43.8280 C   0  0  0  0  0  0  0  0  0  0  0  0
   57.0050   31.0660   42.5210 C   0  0  0  0  0  0  0  0  0  0  0  0
   57.9430   32.0750   42.2730 C   0  0  0  0  0  0  0  0  0  0  0  0
   58.4080   32.8720   43.3220 C   0  0  0  0  0  0  0  0  0  0  0  0
   57.9490   32.6520   44.6230 C   0  0  0  0  0  0  0  0  0  0  0  0
   57.0170   31.6380   44.8790 C   0  0  0  0  0  0  0  0  0  0  0  0
   56.8620   26.9630   46.4200 C   0  0  0  0  0  0  0  0  0  0  0  0
   57.7740   25.7840   46.0330 C   0  0  0  0  0  0  0  0  0  0  0  0
   60.5840   29.3170   46.4960 C   0  0  0  0  0  0  0  0  0  0  0  0
   60.4600   30.6990   46.6550 C   0  0  0  0  0  0  0  0  0  0  0  0
   59.5149   35.3217   48.1181 H   0  0  0  0  0  0  0  0  0  0  0  0
   60.3419   35.6955   46.5680 H   0  0  0  0  0  0  0  0  0  0  0  0
   58.6158   35.1982   46.5680 H   0  0  0  0  0  0  0  0  0  0  0  0
   59.0090   32.9870   48.7070 H   0  0  0  0  0  0  0  0  0  0  0  0
   58.2335   30.7455   49.2539 H   0  0  0  0  0  0  0  0  0  0  0  0
   58.4787   28.2797   48.9854 H   0  0  0  0  0  0  0  0  0  0  0  0
   59.9042   28.0335   44.9480 H   0  0  0  0  0  0  0  0  0  0  0  0
   59.5892   26.7104   43.7198 H   0  0  0  0  0  0  0  0  0  0  0  0
   58.0500   28.7921   43.6772 H   0  0  0  0  0  0  0  0  0  0  0  0
   57.3000   27.1518   43.6357 H   0  0  0  0  0  0  0  0  0  0  0  0
   57.6608   28.9206   46.0880 H   0  0  0  0  0  0  0  0  0  0  0  0
   56.6338   30.4491   41.6894 H   0  0  0  0  0  0  0  0  0  0  0  0
   58.3144   32.2406   41.2509 H   0  0  0  0  0  0  0  0  0  0  0  0
   59.1356   33.6728   43.1235 H   0  0  0  0  0  0  0  0  0  0  0  0
   58.3205   33.2767   45.4487 H   0  0  0  0  0  0  0  0  0  0  0  0
   56.6614   31.4681   45.9060 H   0  0  0  0  0  0  0  0  0  0  0  0
   57.0808   27.2509   47.4589 H   0  0  0  0  0  0  0  0  0  0  0  0
   55.8203   26.6303   46.3009 H   0  0  0  0  0  0  0  0  0  0  0  0
   57.8208   25.0822   46.8787 H   0  0  0  0  0  0  0  0  0  0  0  0
   57.3456   25.3109   45.1371 H   0  0  0  0  0  0  0  0  0  0  0  0
   61.2344   28.9138   45.7058 H   0  0  0  0  0  0  0  0  0  0  0  0
   61.0082   31.3788   45.9861 H   0  0  0  0  0  0  0  0  0  0  0  0
  1  2  1  0
  2  3  2  0
  2  4  1  0
  4  5  1  0
  5  6  2  0
  6  7  1  0
  7  8  2  0
  8  9  1  0
  9 10  2  0
  9 11  2  0
  9 12  1  0
 12 13  1  0
 13 14  1  0
 14 15  1  0
 15 16  1  0
 16 17  1  0
 17 18  2  0
 17 19  1  0
 19 20  2  0
 20 21  1  0
 21 22  2  0
 22 23  1  0
 23 24  2  0
 15 25  1  0
 25 26  1  0
  8 27  1  0
 27 28  2  0
 28  5  1  0
 26 12  1  0
 24 19  1  0
  1 29  1  0
  1 30  1  0
  1 31  1  0
  4 32  1  0
  6 33  1  0
  7 34  1  0
 13 35  1  0
 13 36  1  0
 14 37  1  0
 14 38  1  0
 15 39  1  0
 20 40  1  0
 21 41  1  0
 22 42  1  0
 23 43  1  0
 24 44  1  0
 25 45  1  0
 25 46  1  0
 26 47  1  0
 26 48  1  0
 27 49  1  0
 28 50  1  0
M  CHG  1  16  -1
M  END
>  <UniqueID>  (14) 
13

>  <SMILES>  (14) 
CC(=O)Nc1ccc(S(=O)(=O)N2CCC([N-]C(=O)c3ccccc3)CC2)cc1

>  <Energy>  (14) 
61.89460087801768

>  <Genealogy>  (14) 
CC(=O)Nc1ccc(S(=O)(=O)N2CCC([N-]C(=O)c3ccccc3)CC2)cc1 (protonated)
CC(=O)Nc1ccc(S(=O)(=O)N2CCC([N-]C(=O)c3ccccc3)CC2)cc1 (3D coordinates assigned)
CC(=O)Nc1ccc(S(=O)(=O)N2CCC([N-]C(=O)c3ccccc3)CC2)cc1 (nonaromatic ring conformer: 61.89460087801768 kcal/mol)

>  <smiles>  (14) 
CC(=O)Nc1ccc(S(=O)(=O)N2CCC(NC(=O)c3ccccc3)CC2)cc1

>  <score_type>  (14) 
oracle

>  <origin>  (14) 
adg

>  <m_score__min__energy>  (14) 
-11.279999999999999

>  <m_primary>  (14) 
energy

$$$$
14:0
     RDKit          3D

 56 58  0  0  0  0  0  0  0  0999 V2000
   61.5260   30.9490   48.3430 C   0  0  0  0  0  0  0  0  0  0  0  0
   62.4540   32.0090   48.9320 C   0  0  0  0  0  0  0  0  0  0  0  0
   62.5650   33.1680   48.0230 N   0  0  0  0  0  0  0  0  0  0  0  0
   63.9810   33.5000   47.7880 C   0  0  0  0  0  0  0  0  0  0  0  0
   61.8490   32.9560   46.7390 C   0  0  0  0  0  0  0  0  0  0  0  0
   61.0060   34.1900   46.4120 C   0  0  0  0  0  0  0  0  0  0  0  0
   59.5720   33.8980   46.6440 N   0  0  0  0  0  0  0  0  0  0  0  0
   58.9330   34.9760   47.4170 C   0  0  0  0  0  0  0  0  0  0  0  0
   58.8420   33.6670   45.3810 C   0  0  0  0  0  0  0  0  0  0  0  0
   58.5330   32.2000   45.2220 C   0  0  0  0  0  0  0  0  0  0  0  0
   59.3040   31.2460   45.8990 C   0  0  0  0  0  0  0  0  0  0  0  0
   59.0750   29.8810   45.7000 C   0  0  0  0  0  0  0  0  0  0  0  0
   58.0590   29.4490   44.8300 C   0  0  0  0  0  0  0  0  0  0  0  0
   57.8380   28.0010   44.5910 C   0  0  0  0  0  0  0  0  0  0  0  0
   58.0050   27.4570   43.3070 C   0  0  0  0  0  0  0  0  0  0  0  0
   57.7910   26.0950   43.0790 C   0  0  0  0  0  0  0  0  0  0  0  0
   57.4040   25.2470   44.1310 C   0  0  0  0  0  0  0  0  0  0  0  0
   57.1770   23.7980   43.8890 C   0  0  0  0  0  0  0  0  0  0  0  0
   57.9760   22.8280   44.5190 C   0  0  0  0  0  0  0  0  0  0  0  0
   57.7510   21.4710   44.2810 C   0  0  0  0  0  0  0  0  0  0  0  0
   56.7270   21.0890   43.4150 C   0  0  0  0  0  0  0  0  0  0  0  0
   55.9580   22.0330   42.8130 N   0  0  0  0  0  0  0  0  0  0  0  0
   56.1570   23.3620   43.0250 C   0  0  0  0  0  0  0  0  0  0  0  0
   57.2370   25.7920   45.4160 C   0  0  0  0  0  0  0  0  0  0  0  0
   57.4490   27.1540   45.6440 C   0  0  0  0  0  0  0  0  0  0  0  0
   57.2690   30.4100   44.1740 C   0  0  0  0  0  0  0  0  0  0  0  0
   57.5060   31.7740   44.3650 C   0  0  0  0  0  0  0  0  0  0  0  0
   61.0397   30.3935   49.1584 H   0  0  0  0  0  0  0  0  0  0  0  0
   60.7592   31.4366   47.7231 H   0  0  0  0  0  0  0  0  0  0  0  0
   62.1107   30.2533   47.7231 H   0  0  0  0  0  0  0  0  0  0  0  0
   62.0507   32.3453   49.8986 H   0  0  0  0  0  0  0  0  0  0  0  0
   63.4529   31.5689   49.0680 H   0  0  0  0  0  0  0  0  0  0  0  0
   64.4945   33.6204   48.7533 H   0  0  0  0  0  0  0  0  0  0  0  0
   64.4579   32.6893   47.2176 H   0  0  0  0  0  0  0  0  0  0  0  0
   64.0479   34.4382   47.2176 H   0  0  0  0  0  0  0  0  0  0  0  0
   62.5808   32.7890   45.9349 H   0  0  0  0  0  0  0  0  0  0  0  0
   61.1924   32.0779   46.8274 H   0  0  0  0  0  0  0  0  0  0  0  0
   61.3169   35.0253   47.0567 H   0  0  0  0  0  0  0  0  0  0  0  0
   61.1540   34.4598   45.3559 H   0  0  0  0  0  0  0  0  0  0  0  0
   59.0515   34.7761   48.4922 H   0  0  0  0  0  0  0  0  0  0  0  0
   59.4077   35.9366   47.1682 H   0  0  0  0  0  0  0  0  0  0  0  0
   57.8624   35.0207   47.1682 H   0  0  0  0  0  0  0  0  0  0  0  0
   57.9016   34.2375   45.3948 H   0  0  0  0  0  0  0  0  0  0  0  0
   59.4674   33.9966   44.5382 H   0  0  0  0  0  0  0  0  0  0  0  0
   60.0941   31.5727   46.5911 H   0  0  0  0  0  0  0  0  0  0  0  0
   59.6940   29.1405   46.2277 H   0  0  0  0  0  0  0  0  0  0  0  0
   58.3068   28.1086   42.4737 H   0  0  0  0  0  0  0  0  0  0  0  0
   57.9265   25.6832   42.0680 H   0  0  0  0  0  0  0  0  0  0  0  0
   58.7807   23.1391   45.2014 H   0  0  0  0  0  0  0  0  0  0  0  0
   58.3756   20.7102   44.7720 H   0  0  0  0  0  0  0  0  0  0  0  0
   56.5419   20.0225   43.2193 H   0  0  0  0  0  0  0  0  0  0  0  0
   55.5169   24.0990   42.5180 H   0  0  0  0  0  0  0  0  0  0  0  0
   56.9367   25.1402   46.2496 H   0  0  0  0  0  0  0  0  0  0  0  0
   57.3107   27.5667   46.6542 H   0  0  0  0  0  0  0  0  0  0  0  0
   56.4581   30.0855   43.5053 H   0  0  0  0  0  0  0  0  0  0  0  0
   56.8855   32.5165   43.8419 H   0  0  0  0  0  0  0  0  0  0  0  0
  1  2  1  0
  2  3  1  0
  3  4  1  0
  3  5  1  0
  5  6  1  0
  6  7  1  0
  7  8  1  0
  7  9  1  0
  9 10  1  0
 10 11  2  0
 11 12  1  0
 12 13  2  0
 13 14  1  0
 14 15  2  0
 15 16  1  0
 16 17  2  0
 17 18  1  0
 18 19  2  0
 19 20  1  0
 20 21  2  0
 21 22  1  0
 22 23  2  0
 17 24  1  0
 24 25  2  0
 13 26  1  0
 26 27  2  0
 27 10  1  0
 25 14  1  0
 23 18  1  0
  1 28  1  0
  1 29  1  0
  1 30  1  0
  2 31  1  0
  2 32  1  0
  4 33  1  0
  4 34  1  0
  4 35  1  0
  5 36  1  0
  5 37  1  0
  6 38  1  0
  6 39  1  0
  8 40  1  0
  8 41  1  0
  8 42  1  0
  9 43  1  0
  9 44  1  0
 11 45  1  0
 12 46  1  0
 15 47  1  0
 16 48  1  0
 19 49  1  0
 20 50  1  0
 21 51  1  0
 23 52  1  0
 24 53  1  0
 25 54  1  0
 26 55  1  0
 27 56  1  0
M  END
>  <UniqueID>  (15) 
14

>  <SMILES>  (15) 
CCN(C)CCN(C)Cc1ccc(-c2ccc(-c3cccnc3)cc2)cc1

>  <Energy>  (15) 
66.2601335817131

>  <Genealogy>  (15) 
CCN(C)CCN(C)Cc1ccc(-c2ccc(-c3cccnc3)cc2)cc1 (3D coordinates assigned)
CCN(C)CCN(C)Cc1ccc(-c2ccc(-c3cccnc3)cc2)cc1 (optimized conformer: 66.2601335817131 kcal/mol)

>  <smiles>  (15) 
CCN(C)CCN(C)Cc1ccc(-c2ccc(-c3cccnc3)cc2)cc1

>  <score_type>  (15) 
oracle

>  <origin>  (15) 
adg

>  <m_score__min__energy>  (15) 
-8.6699999999999999

>  <m_primary>  (15) 
energy

$$$$
15:0
     RDKit          3D

 58 61  0  0  0  0  0  0  0  0999 V2000
   60.5077   35.6881   46.0691 H   0  0  0  0  0  0  0  0  0  0  0  0
   60.4170   34.6430   46.4000 C   0  0  0  0  0  0  0  0  0  0  0  0
   59.3390   33.9430   46.0060 C   0  0  0  0  0  0  0  0  0  0  0  0
   59.1550   32.5100   46.1540 C   0  0  0  0  0  0  0  0  0  0  0  0
   58.0610   32.0850   45.5030 N   0  0  0  0  0  0  0  0  0  0  0  0
   57.6890   30.7770   45.4990 C   0  0  0  0  0  0  0  0  0  0  0  0
   56.6560   30.4130   44.8710 O   0  0  0  0  0  0  0  0  0  0  0  0
   58.4750   29.8460   46.2050 C   0  0  0  0  0  0  0  0  0  0  0  0
   58.1550   28.4810   46.2510 C   0  0  0  0  0  0  0  0  0  0  0  0
   57.2663   28.1095   45.7198 H   0  0  0  0  0  0  0  0  0  0  0  0
   58.9590   27.5900   46.9680 C   0  0  0  0  0  0  0  0  0  0  0  0
   58.6210   26.2760   46.9920 F   0  0  0  0  0  0  0  0  0  0  0  0
   60.1000   28.0460   47.6540 C   0  0  0  0  0  0  0  0  0  0  0  0
   60.9100   27.1060   48.3890 N   0  0  0  0  0  0  0  0  0  0  0  0
   61.6430   26.5730   47.8700 H   0  0  0  0  0  0  0  0  0  0  0  0
   60.7410   26.8500   49.8220 C   0  0  0  0  0  0  0  0  0  0  0  0
   61.3601   25.9860   50.1050 H   0  0  0  0  0  0  0  0  0  0  0  0
   59.6758   26.6511   50.0111 H   0  0  0  0  0  0  0  0  0  0  0  0
   61.1590   28.0600   50.6690 C   0  0  0  0  0  0  0  0  0  0  0  0
   61.8362   28.6917   50.0753 H   0  0  0  0  0  0  0  0  0  0  0  0
   61.6563   27.6838   51.5752 H   0  0  0  0  0  0  0  0  0  0  0  0
   59.9520   28.9030   51.1070 C   0  0  0  0  0  0  0  0  0  0  0  0
   60.0173   29.0974   52.1877 H   0  0  0  0  0  0  0  0  0  0  0  0
   59.0275   28.3518   50.8802 H   0  0  0  0  0  0  0  0  0  0  0  0
   59.9380   30.1900   50.3790 N   0  0  0  0  0  0  0  0  0  0  0  0
   61.0160   31.0650   50.8740 C   0  0  0  0  0  0  0  0  0  0  0  0
   61.0137   31.0632   51.9740 H   0  0  0  0  0  0  0  0  0  0  0  0
   61.9854   30.6951   50.5087 H   0  0  0  0  0  0  0  0  0  0  0  0
   60.8533   32.0897   50.5087 H   0  0  0  0  0  0  0  0  0  0  0  0
   58.6250   30.8660   50.4970 C   0  0  0  0  0  0  0  0  0  0  0  0
   58.3980   31.0342   51.5601 H   0  0  0  0  0  0  0  0  0  0  0  0
   57.8527   30.2281   50.0424 H   0  0  0  0  0  0  0  0  0  0  0  0
   58.6510   32.2070   49.7700 C   0  0  0  0  0  0  0  0  0  0  0  0
   58.6668   33.0234   50.5070 H   0  0  0  0  0  0  0  0  0  0  0  0
   59.5504   32.2648   49.1394 H   0  0  0  0  0  0  0  0  0  0  0  0
   57.7545   32.2997   49.1394 H   0  0  0  0  0  0  0  0  0  0  0  0
   60.4220   29.4170   47.6080 C   0  0  0  0  0  0  0  0  0  0  0  0
   61.3115   29.7844   48.1408 H   0  0  0  0  0  0  0  0  0  0  0  0
   59.6220   30.3190   46.8910 C   0  0  0  0  0  0  0  0  0  0  0  0
   59.9410   31.6460   46.8530 N   0  0  0  0  0  0  0  0  0  0  0  0
   60.7810   31.9960   47.3670 H   0  0  0  0  0  0  0  0  0  0  0  0
   57.3780   33.1860   44.8320 C   0  0  0  0  0  0  0  0  0  0  0  0
   57.3743   33.0293   43.7432 H   0  0  0  0  0  0  0  0  0  0  0  0
   56.3276   33.2673   45.1482 H   0  0  0  0  0  0  0  0  0  0  0  0
   58.1840   34.4540   45.1920 C   0  0  0  0  0  0  0  0  0  0  0  0
   58.5418   34.9592   44.2827 H   0  0  0  0  0  0  0  0  0  0  0  0
   57.5805   35.1939   45.7382 H   0  0  0  0  0  0  0  0  0  0  0  0
   61.4850   34.0860   47.2520 C   0  0  0  0  0  0  0  0  0  0  0  0
   61.3630   34.1750   48.6470 C   0  0  0  0  0  0  0  0  0  0  0  0
   60.4691   34.6385   49.0900 H   0  0  0  0  0  0  0  0  0  0  0  0
   62.3730   33.6770   49.4770 C   0  0  0  0  0  0  0  0  0  0  0  0
   62.2647   33.7371   50.5700 H   0  0  0  0  0  0  0  0  0  0  0  0
   63.5200   33.1030   48.9200 C   0  0  0  0  0  0  0  0  0  0  0  0
   64.8990   32.4280   50.0550 Br  0  0  0  0  0  0  0  0  0  0  0  0
   63.6620   33.0390   47.5310 C   0  0  0  0  0  0  0  0  0  0  0  0
   64.5684   32.5968   47.0919 H   0  0  0  0  0  0  0  0  0  0  0  0
   62.6540   33.5360   46.6980 C   0  0  0  0  0  0  0  0  0  0  0  0
   62.7766   33.4963   45.6056 H   0  0  0  0  0  0  0  0  0  0  0  0
  1  2  1  0
  2  3  2  0
  3  4  1  0
  4  5  1  0
  5  6  1  0
  6  7  2  0
  6  8  1  0
  8  9  2  0
  9 10  1  0
  9 11  1  0
 11 12  1  0
 11 13  2  0
 13 14  1  0
 14 15  1  0
 14 16  1  0
 16 17  1  0
 16 18  1  0
 16 19  1  0
 19 20  1  0
 19 21  1  0
 19 22  1  0
 22 23  1  0
 22 24  1  0
 22 25  1  0
 25 26  1  0
 26 27  1  0
 26 28  1  0
 26 29  1  0
 25 30  1  0
 30 31  1  0
 30 32  1  0
 30 33  1  0
 33 34  1  0
 33 35  1  0
 33 36  1  0
 13 37  1  0
 37 38  1  0
 37 39  2  0
 39 40  1  0
 40 41  1  0
  5 42  1  0
 42 43  1  0
 42 44  1  0
 42 45  1  0
 45 46  1  0
 45 47  1  0
  2 48  1  0
 48 49  2  0
 49 50  1  0
 49 51  1  0
 51 52  1  0
 51 53  2  0
 53 54  1  0
 53 55  1  0
 55 56  1  0
 55 57  2  0
 57 58  1  0
 45  3  1  0
 57 48  1  0
 40  4  2  0
 39  8  1  0
M  CHG  1  40   1
M  END
>  <UniqueID>  (16) 
15

>  <SMILES>  (16) 
CCN(C)CCCNc1cc2[nH+]c3n(c(=O)c2cc1F)CC/C3=C\c1ccc(Br)cc1

>  <Energy>  (16) 
82.1835134479623

>  <Genealogy>  (16) 
CCN(C)CCCNc1cc2[nH+]c3n(c(=O)c2cc1F)CCC3=Cc1ccc(Br)cc1 (protonated)
CCN(C)CCCNc1cc2[nH+]c3n(c(=O)c2cc1F)CC/C3=C\c1ccc(Br)cc1 (cis-trans isomerization)
CCN(C)CCCNc1cc2[nH+]c3n(c(=O)c2cc1F)CC/C3=C\c1ccc(Br)cc1 (3D coordinates assigned)
CCN(C)CCCNc1cc2[nH+]c3n(c(=O)c2cc1F)CC/C3=C\c1ccc(Br)cc1 (nonaromatic ring conformer: 82.1835134479623 kcal/mol)

>  <smiles>  (16) 
CCN(C)CCCNc1cc2nc3n(c(=O)c2cc1F)CCC3=Cc1ccc(Br)cc1

>  <score_type>  (16) 
oracle

>  <origin>  (16) 
adg

>  <m_score__min__energy>  (16) 
-7.6600000000000001

>  <m_primary>  (16) 
energy

$$$$
16:0
     RDKit          3D

 43 45  0  0  0  0  0  0  0  0999 V2000
   64.2460   33.2630   49.3730 C   0  0  0  0  0  0  0  0  0  0  0  0
   63.0030   33.8480   50.0370 C   0  0  0  0  0  0  0  0  0  0  0  0
   62.2110   34.5610   49.0880 O   0  0  0  0  0  0  0  0  0  0  0  0
   61.2840   33.9870   48.2010 C   0  0  0  0  0  0  0  0  0  0  0  0
   60.0720   34.6120   47.8520 C   0  0  0  0  0  0  0  0  0  0  0  0
   59.1880   33.9920   46.9660 C   0  0  0  0  0  0  0  0  0  0  0  0
   59.4920   32.7380   46.4130 C   0  0  0  0  0  0  0  0  0  0  0  0
   58.5390   32.1000   45.4750 C   0  0  0  0  0  0  0  0  0  0  0  0
   57.7650   30.9690   45.6960 C   0  0  0  0  0  0  0  0  0  0  0  0
   57.0670   30.8110   44.5150 C   0  0  0  0  0  0  0  0  0  0  0  0
   56.0920   29.7540   44.2140 C   0  0  0  0  0  0  0  0  0  0  0  0
   55.5640   29.6980   43.0710 O   0  0  0  0  0  0  0  0  0  0  0  0
   55.7830   28.7670   45.2060 N   0  0  0  0  0  0  0  0  0  0  0  0
   56.6530   27.7040   45.6170 C   0  0  0  0  0  0  0  0  0  0  0  0
   58.0260   27.9670   45.7140 C   0  0  0  0  0  0  0  0  0  0  0  0
   58.9140   26.9670   46.1110 C   0  0  0  0  0  0  0  0  0  0  0  0
   58.4350   25.6960   46.4320 C   0  0  0  0  0  0  0  0  0  0  0  0
   57.0650   25.4290   46.3750 C   0  0  0  0  0  0  0  0  0  0  0  0
   56.1560   26.4330   45.9840 C   0  0  0  0  0  0  0  0  0  0  0  0
   54.7700   26.2110   45.9810 O   0  0  0  0  0  0  0  0  0  0  0  0
   54.1470   24.9840   45.6180 C   0  0  0  0  0  0  0  0  0  0  0  0
   57.4190   31.7910   43.6650 N   0  0  0  0  0  0  0  0  0  0  0  0
   58.2950   32.5440   44.2610 O   0  0  0  0  0  0  0  0  0  0  0  0
   60.7010   32.1140   46.7670 C   0  0  0  0  0  0  0  0  0  0  0  0
   61.5840   32.7360   47.6530 C   0  0  0  0  0  0  0  0  0  0  0  0
   64.9530   32.9302   50.1472 H   0  0  0  0  0  0  0  0  0  0  0  0
   63.9581   32.4059   48.7466 H   0  0  0  0  0  0  0  0  0  0  0  0
   64.7230   34.0312   48.7466 H   0  0  0  0  0  0  0  0  0  0  0  0
   62.4042   33.0307   50.4653 H   0  0  0  0  0  0  0  0  0  0  0  0
   63.3196   34.5447   50.8272 H   0  0  0  0  0  0  0  0  0  0  0  0
   59.8198   35.5938   48.2792 H   0  0  0  0  0  0  0  0  0  0  0  0
   58.2447   34.4910   46.6990 H   0  0  0  0  0  0  0  0  0  0  0  0
   57.7185   30.3446   46.6004 H   0  0  0  0  0  0  0  0  0  0  0  0
   58.4070   28.9709   45.4750 H   0  0  0  0  0  0  0  0  0  0  0  0
   59.9915   27.1802   46.1710 H   0  0  0  0  0  0  0  0  0  0  0  0
   59.1371   24.9035   46.7303 H   0  0  0  0  0  0  0  0  0  0  0  0
   56.6927   24.4277   46.6372 H   0  0  0  0  0  0  0  0  0  0  0  0
   53.8667   24.4320   46.5273 H   0  0  0  0  0  0  0  0  0  0  0  0
   53.2455   25.1924   45.0231 H   0  0  0  0  0  0  0  0  0  0  0  0
   54.8472   24.3792   45.0231 H   0  0  0  0  0  0  0  0  0  0  0  0
   57.0650   31.9440   42.6940 H   0  0  0  0  0  0  0  0  0  0  0  0
   60.9531   31.1304   46.3439 H   0  0  0  0  0  0  0  0  0  0  0  0
   62.5260   32.2360   47.9226 H   0  0  0  0  0  0  0  0  0  0  0  0
  1  2  1  0
  2  3  1  0
  3  4  1  0
  4  5  2  0
  5  6  1  0
  6  7  2  0
  7  8  1  0
  8  9  2  0
  9 10  1  0
 10 11  1  0
 11 12  2  0
 11 13  1  0
 13 14  1  0
 14 15  2  0
 15 16  1  0
 16 17  2  0
 17 18  1  0
 18 19  2  0
 19 20  1  0
 20 21  1  0
 10 22  2  0
 22 23  1  0
  7 24  1  0
 24 25  2  0
 25  4  1  0
 23  8  1  0
 19 14  1  0
  1 26  1  0
  1 27  1  0
  1 28  1  0
  2 29  1  0
  2 30  1  0
  5 31  1  0
  6 32  1  0
  9 33  1  0
 15 34  1  0
 16 35  1  0
 17 36  1  0
 18 37  1  0
 21 38  1  0
 21 39  1  0
 21 40  1  0
 22 41  1  0
 24 42  1  0
 25 43  1  0
M  CHG  2  13  -1  22   1
M  END
>  <UniqueID>  (17) 
16

>  <SMILES>  (17) 
CCOc1ccc(-c2cc(C(=O)[N-]c3ccccc3OC)[nH+]o2)cc1

>  <Energy>  (17) 
79.07622893004356

>  <Genealogy>  (17) 
CCOc1ccc(-c2cc(C(=O)[N-]c3ccccc3OC)[nH+]o2)cc1 (protonated)
CCOc1ccc(-c2cc(C(=O)[N-]c3ccccc3OC)[nH+]o2)cc1 (3D coordinates assigned)
CCOc1ccc(-c2cc(C(=O)[N-]c3ccccc3OC)[nH+]o2)cc1 (optimized conformer: 79.07622893004356 kcal/mol)

>  <smiles>  (17) 
CCOc1ccc(-c2cc(C(=O)Nc3ccccc3OC)no2)cc1

>  <score_type>  (17) 
oracle

>  <origin>  (17) 
adg

>  <m_score__min__energy>  (17) 
-8.5399999999999991

>  <m_primary>  (17) 
energy

$$$$
17:0
     RDKit          3D

 57 59  0  0  0  0  0  0  0  0999 V2000
   61.0000   28.9710   45.1800 C   0  0  0  0  0  0  0  0  0  0  0  0
   59.9760   29.9060   45.5040 O   0  0  0  0  0  0  0  0  0  0  0  0
   58.6890   29.9090   44.9400 C   0  0  0  0  0  0  0  0  0  0  0  0
   58.3220   30.8200   43.9290 C   0  0  0  0  0  0  0  0  0  0  0  0
   57.0300   30.8050   43.4000 C   0  0  0  0  0  0  0  0  0  0  0  0
   56.0890   29.8880   43.8730 C   0  0  0  0  0  0  0  0  0  0  0  0
   56.4400   28.9810   44.8740 C   0  0  0  0  0  0  0  0  0  0  0  0
   57.7410   28.9730   45.4040 C   0  0  0  0  0  0  0  0  0  0  0  0
   58.0960   28.0050   46.5040 C   0  0  0  0  0  0  0  0  0  0  0  0
   58.9490   28.6460   47.5040 N   0  0  0  0  0  0  0  0  0  0  0  0
   59.7130   27.8770   48.4400 C   0  0  0  0  0  0  0  0  0  0  0  0
   59.6270   26.6200   48.4310 O   0  0  0  0  0  0  0  0  0  0  0  0
   60.5930   28.5990   49.4360 C   0  0  0  0  0  0  0  0  0  0  0  0
   60.8180   30.0370   49.1710 N   0  0  0  0  0  0  0  0  0  0  0  0
   62.0180   30.6000   49.8160 C   0  0  0  0  0  0  0  0  0  0  0  0
   62.5900   31.7050   48.9670 C   0  0  0  0  0  0  0  0  0  0  0  0
   62.8740   32.9570   49.5390 C   0  0  0  0  0  0  0  0  0  0  0  0
   63.4040   33.9860   48.7550 C   0  0  0  0  0  0  0  0  0  0  0  0
   63.6450   33.7760   47.3940 C   0  0  0  0  0  0  0  0  0  0  0  0
   63.3550   32.5370   46.8160 C   0  0  0  0  0  0  0  0  0  0  0  0
   62.8280   31.5040   47.5970 C   0  0  0  0  0  0  0  0  0  0  0  0
   59.3890   31.0180   49.4200 S   0  0  0  0  0  0  0  0  0  0  0  0
   59.5220   31.7970   50.7000 O   0  0  0  0  0  0  0  0  0  0  0  0
   58.1590   30.1620   49.5150 O   0  0  0  0  0  0  0  0  0  0  0  0
   59.2250   32.1630   48.0920 C   0  0  0  0  0  0  0  0  0  0  0  0
   58.1500   32.0410   47.2040 C   0  0  0  0  0  0  0  0  0  0  0  0
   57.9910   32.9590   46.1620 C   0  0  0  0  0  0  0  0  0  0  0  0
   58.8960   34.0210   46.0100 C   0  0  0  0  0  0  0  0  0  0  0  0
   58.7410   34.9890   44.8750 C   0  0  0  0  0  0  0  0  0  0  0  0
   59.9790   34.1350   46.8960 C   0  0  0  0  0  0  0  0  0  0  0  0
   60.1360   33.2170   47.9390 C   0  0  0  0  0  0  0  0  0  0  0  0
   61.4379   28.5711   46.1065 H   0  0  0  0  0  0  0  0  0  0  0  0
   60.5709   28.1465   44.5916 H   0  0  0  0  0  0  0  0  0  0  0  0
   61.7822   29.4731   44.5916 H   0  0  0  0  0  0  0  0  0  0  0  0
   59.0578   31.5470   43.5546 H   0  0  0  0  0  0  0  0  0  0  0  0
   56.7527   31.5171   42.6088 H   0  0  0  0  0  0  0  0  0  0  0  0
   55.0709   29.8805   43.4565 H   0  0  0  0  0  0  0  0  0  0  0  0
   55.6926   28.2673   45.2507 H   0  0  0  0  0  0  0  0  0  0  0  0
   57.1725   27.6551   46.9885 H   0  0  0  0  0  0  0  0  0  0  0  0
   58.6427   27.1574   46.0651 H   0  0  0  0  0  0  0  0  0  0  0  0
   59.0150   29.6890   47.5410 H   0  0  0  0  0  0  0  0  0  0  0  0
   60.1261   28.5074   50.4278 H   0  0  0  0  0  0  0  0  0  0  0  0
   61.5818   28.1228   49.3619 H   0  0  0  0  0  0  0  0  0  0  0  0
   61.7459   31.0027   50.8028 H   0  0  0  0  0  0  0  0  0  0  0  0
   62.7714   29.8068   49.9310 H   0  0  0  0  0  0  0  0  0  0  0  0
   62.6785   33.1279   50.6079 H   0  0  0  0  0  0  0  0  0  0  0  0
   63.6316   34.9616   49.2093 H   0  0  0  0  0  0  0  0  0  0  0  0
   64.0629   34.5859   46.7781 H   0  0  0  0  0  0  0  0  0  0  0  0
   63.5418   32.3742   45.7443 H   0  0  0  0  0  0  0  0  0  0  0  0
   62.5991   30.5311   47.1375 H   0  0  0  0  0  0  0  0  0  0  0  0
   57.4281   31.2202   47.3265 H   0  0  0  0  0  0  0  0  0  0  0  0
   57.1530   32.8486   45.4581 H   0  0  0  0  0  0  0  0  0  0  0  0
   58.5790   36.0006   45.2754 H   0  0  0  0  0  0  0  0  0  0  0  0
   59.6520   34.9802   44.2586 H   0  0  0  0  0  0  0  0  0  0  0  0
   57.8783   34.6962   44.2586 H   0  0  0  0  0  0  0  0  0  0  0  0
   60.7070   34.9498   46.7692 H   0  0  0  0  0  0  0  0  0  0  0  0
   60.9764   33.3223   48.6409 H   0  0  0  0  0  0  0  0  0  0  0  0
  1  2  1  0
  2  3  1  0
  3  4  2  0
  4  5  1  0
  5  6  2  0
  6  7  1  0
  7  8  2  0
  8  9  1  0
  9 10  1  0
 10 11  1  0
 11 12  2  0
 11 13  1  0
 13 14  1  0
 14 15  1  0
 15 16  1  0
 16 17  2  0
 17 18  1  0
 18 19  2  0
 19 20  1  0
 20 21  2  0
 14 22  1  0
 22 23  2  0
 22 24  2  0
 22 25  1  0
 25 26  2  0
 26 27  1  0
 27 28  2  0
 28 29  1  0
 28 30  1  0
 30 31  2  0
  8  3  1  0
 21 16  1  0
 31 25  1  0
  1 32  1  0
  1 33  1  0
  1 34  1  0
  4 35  1  0
  5 36  1  0
  6 37  1  0
  7 38  1  0
  9 39  1  0
  9 40  1  0
 10 41  1  0
 13 42  1  0
 13 43  1  0
 15 44  1  0
 15 45  1  0
 17 46  1  0
 18 47  1  0
 19 48  1  0
 20 49  1  0
 21 50  1  0
 26 51  1  0
 27 52  1  0
 29 53  1  0
 29 54  1  0
 29 55  1  0
 30 56  1  0
 31 57  1  0
M  END
>  <UniqueID>  (18) 
17

>  <SMILES>  (18) 
COc1ccccc1CNC(=O)CN(Cc1ccccc1)S(=O)(=O)c1ccc(C)cc1

>  <Energy>  (18) 
60.99956126755783

>  <Genealogy>  (18) 
COc1ccccc1CNC(=O)CN(Cc1ccccc1)S(=O)(=O)c1ccc(C)cc1 (3D coordinates assigned)
COc1ccccc1CNC(=O)CN(Cc1ccccc1)S(=O)(=O)c1ccc(C)cc1 (optimized conformer: 60.99956126755783 kcal/mol)

>  <smiles>  (18) 
COc1ccccc1CNC(=O)CN(Cc1ccccc1)S(=O)(=O)c1ccc(C)cc1

>  <score_type>  (18) 
oracle

>  <origin>  (18) 
adg

>  <m_score__min__energy>  (18) 
-8.6999999999999993

>  <m_primary>  (18) 
energy

$$$$
18:0
     RDKit          3D

 51 53  0  0  0  0  0  0  0  0999 V2000
   55.6000   29.7770   43.7220 C   0  0  0  0  0  0  0  0  0  0  0  0
   55.9230   29.2730   44.9990 O   0  0  0  0  0  0  0  0  0  0  0  0
   56.9690   28.3230   44.9030 C   0  0  0  0  0  0  0  0  0  0  0  0
   58.3180   29.0330   44.7680 C   0  0  0  0  0  0  0  0  0  0  0  0
   58.6180   29.8050   45.9910 N   0  0  0  0  0  0  0  0  0  0  0  0
   59.3170   29.2100   47.0180 C   0  0  0  0  0  0  0  0  0  0  0  0
   59.7190   28.0180   46.9290 O   0  0  0  0  0  0  0  0  0  0  0  0
   59.5580   29.9520   48.1670 C   0  0  0  0  0  0  0  0  0  0  0  0
   59.1000   31.2240   48.2670 C   0  0  0  0  0  0  0  0  0  0  0  0
   59.3990   31.7230   49.4820 N   0  0  0  0  0  0  0  0  0  0  0  0
   60.0560   30.7120   50.1030 C   0  0  0  0  0  0  0  0  0  0  0  0
   60.5630   30.8100   51.5080 C   0  0  0  0  0  0  0  0  0  0  0  0
   60.1760   29.6070   49.3150 N   0  0  0  0  0  0  0  0  0  0  0  0
   60.7740   28.3160   49.6560 C   0  0  0  0  0  0  0  0  0  0  0  0
   58.4030   31.8330   47.2670 N   0  0  0  0  0  0  0  0  0  0  0  0
   57.8890   33.2050   47.4260 C   0  0  0  0  0  0  0  0  0  0  0  0
   58.5230   34.1330   46.3820 C   0  0  0  0  0  0  0  0  0  0  0  0
   59.6270   35.0170   46.9790 C   0  0  0  0  0  0  0  0  0  0  0  0
   60.7810   34.2010   47.5040 C   0  0  0  0  0  0  0  0  0  0  0  0
   61.1000   34.2280   48.8720 C   0  0  0  0  0  0  0  0  0  0  0  0
   62.1860   33.4930   49.3560 C   0  0  0  0  0  0  0  0  0  0  0  0
   62.9640   32.7320   48.4790 C   0  0  0  0  0  0  0  0  0  0  0  0
   62.6570   32.7050   47.1160 C   0  0  0  0  0  0  0  0  0  0  0  0
   61.5710   33.4380   46.6270 C   0  0  0  0  0  0  0  0  0  0  0  0
   58.1430   31.1000   46.1260 C   0  0  0  0  0  0  0  0  0  0  0  0
   57.4570   31.6150   45.1980 O   0  0  0  0  0  0  0  0  0  0  0  0
   55.0093   30.6986   43.8302 H   0  0  0  0  0  0  0  0  0  0  0  0
   56.5255   29.9973   43.1699 H   0  0  0  0  0  0  0  0  0  0  0  0
   55.0132   29.0281   43.1699 H   0  0  0  0  0  0  0  0  0  0  0  0
   56.9764   27.6982   45.8083 H   0  0  0  0  0  0  0  0  0  0  0  0
   56.8034   27.6958   44.0147 H   0  0  0  0  0  0  0  0  0  0  0  0
   59.1077   28.2838   44.6094 H   0  0  0  0  0  0  0  0  0  0  0  0
   58.2742   29.7228   43.9123 H   0  0  0  0  0  0  0  0  0  0  0  0
   59.1630   32.6580   49.8810 H   0  0  0  0  0  0  0  0  0  0  0  0
   59.7315   30.6493   52.2099 H   0  0  0  0  0  0  0  0  0  0  0  0
   61.3355   30.0446   51.6733 H   0  0  0  0  0  0  0  0  0  0  0  0
   60.9946   31.8082   51.6733 H   0  0  0  0  0  0  0  0  0  0  0  0
   60.8223   28.2118   50.7500 H   0  0  0  0  0  0  0  0  0  0  0  0
   60.1597   27.5053   49.2372 H   0  0  0  0  0  0  0  0  0  0  0  0
   61.7896   28.2603   49.2372 H   0  0  0  0  0  0  0  0  0  0  0  0
   56.7970   33.2015   47.2935 H   0  0  0  0  0  0  0  0  0  0  0  0
   58.1443   33.5694   48.4320 H   0  0  0  0  0  0  0  0  0  0  0  0
   58.9577   33.5181   45.5802 H   0  0  0  0  0  0  0  0  0  0  0  0
   57.7332   34.7956   45.9983 H   0  0  0  0  0  0  0  0  0  0  0  0
   59.9988   35.6969   46.1983 H   0  0  0  0  0  0  0  0  0  0  0  0
   59.1956   35.5773   47.8216 H   0  0  0  0  0  0  0  0  0  0  0  0
   60.4930   34.8296   49.5646 H   0  0  0  0  0  0  0  0  0  0  0  0
   62.4287   33.5135   50.4287 H   0  0  0  0  0  0  0  0  0  0  0  0
   63.8182   32.1542   48.8618 H   0  0  0  0  0  0  0  0  0  0  0  0
   63.2705   32.1063   46.4267 H   0  0  0  0  0  0  0  0  0  0  0  0
   61.3344   33.4173   45.5529 H   0  0  0  0  0  0  0  0  0  0  0  0
  1  2  1  0
  2  3  1  0
  3  4  1  0
  4  5  1  0
  5  6  1  0
  6  7  2  0
  6  8  1  0
  8  9  2  0
  9 10  1  0
 10 11  2  0
 11 12  1  0
 11 13  1  0
 13 14  1  0
  9 15  1  0
 15 16  1  0
 16 17  1  0
 17 18  1  0
 18 19  1  0
 19 20  2  0
 20 21  1  0
 21 22  2  0
 22 23  1  0
 23 24  2  0
 15 25  1  0
 25 26  2  0
 25  5  1  0
 13  8  1  0
 24 19  1  0
  1 27  1  0
  1 28  1  0
  1 29  1  0
  3 30  1  0
  3 31  1  0
  4 32  1  0
  4 33  1  0
 10 34  1  0
 12 35  1  0
 12 36  1  0
 12 37  1  0
 14 38  1  0
 14 39  1  0
 14 40  1  0
 16 41  1  0
 16 42  1  0
 17 43  1  0
 17 44  1  0
 18 45  1  0
 18 46  1  0
 20 47  1  0
 21 48  1  0
 22 49  1  0
 23 50  1  0
 24 51  1  0
M  CHG  1  10   1
M  END
>  <UniqueID>  (19) 
18

>  <SMILES>  (19) 
COCCn1c(=O)c2c([nH+]c(C)n2C)n(CCCc2ccccc2)c1=O

>  <Energy>  (19) 
94.0168912487874

>  <Genealogy>  (19) 
COCCn1c(=O)c2c([nH+]c(C)n2C)n(CCCc2ccccc2)c1=O (protonated)
COCCn1c(=O)c2c([nH+]c(C)n2C)n(CCCc2ccccc2)c1=O (3D coordinates assigned)
COCCn1c(=O)c2c([nH+]c(C)n2C)n(CCCc2ccccc2)c1=O (optimized conformer: 94.0168912487874 kcal/mol)

>  <smiles>  (19) 
COCCn1c(=O)c2c(nc(C)n2C)n(CCCc2ccccc2)c1=O

>  <score_type>  (19) 
oracle

>  <origin>  (19) 
adg

>  <m_score__min__energy>  (19) 
-5.9400000000000004

>  <m_primary>  (19) 
energy

$$$$
19:0
     RDKit          3D

 35 37  0  0  0  0  0  0  0  0999 V2000
   57.5680   32.6700   52.7020 C   0  0  0  0  0  0  0  0  0  0  0  0
   56.3950   32.2720   51.9990 O   0  0  0  0  0  0  0  0  0  0  0  0
   55.5610   31.2120   52.3820 C   0  0  0  0  0  0  0  0  0  0  0  0
   56.1140   30.1740   53.1340 C   0  0  0  0  0  0  0  0  0  0  0  0
   55.3300   29.0930   53.5370 C   0  0  0  0  0  0  0  0  0  0  0  0
   53.9650   29.0310   53.1980 C   0  0  0  0  0  0  0  0  0  0  0  0
   53.1630   27.9450   53.5870 O   0  0  0  0  0  0  0  0  0  0  0  0
   53.5610   26.5790   53.5260 C   0  0  0  0  0  0  0  0  0  0  0  0
   53.3880   30.0820   52.4470 C   0  0  0  0  0  0  0  0  0  0  0  0
   51.9180   30.0420   52.0480 C   0  0  2  0  0  0  0  0  0  0  0  0
   51.6770   30.7800   50.6980 C   0  0  0  0  0  0  0  0  0  0  0  0
   51.3920   32.2650   50.8440 C   0  0  0  0  0  0  0  0  0  0  0  0
   51.6820   33.0540   49.9070 O   0  0  0  0  0  0  0  0  0  0  0  0
   50.7190   32.7670   52.0080 N   0  0  0  0  0  0  0  0  0  0  0  0
   50.5340   31.8790   53.1030 C   0  0  0  0  0  0  0  0  0  0  0  0
   49.9180   32.1180   54.3110 C   0  0  0  0  0  0  0  0  0  0  0  0
   50.0540   31.0430   55.0630 O   0  0  0  0  0  0  0  0  0  0  0  0
   50.7360   30.1380   54.3870 C   0  0  0  0  0  0  0  0  0  0  0  0
   51.0940   28.8920   54.8870 O   0  0  0  0  0  0  0  0  0  0  0  0
   51.0530   30.6190   53.1360 C   0  0  0  0  0  0  0  0  0  0  0  0
   54.1990   31.1600   52.0380 C   0  0  0  0  0  0  0  0  0  0  0  0
   57.3852   32.6080   53.7849 H   0  0  0  0  0  0  0  0  0  0  0  0
   58.4009   32.0042   52.4320 H   0  0  0  0  0  0  0  0  0  0  0  0
   57.8238   33.7052   52.4320 H   0  0  0  0  0  0  0  0  0  0  0  0
   57.1779   30.2089   53.4113 H   0  0  0  0  0  0  0  0  0  0  0  0
   55.7826   28.2812   54.1253 H   0  0  0  0  0  0  0  0  0  0  0  0
   53.6759   26.1846   54.5464 H   0  0  0  0  0  0  0  0  0  0  0  0
   52.7950   25.9974   52.9922 H   0  0  0  0  0  0  0  0  0  0  0  0
   54.5196   26.4999   52.9922 H   0  0  0  0  0  0  0  0  0  0  0  0
   51.6373   28.9878   51.9073 H   0  0  0  0  0  0  0  0  0  0  0  0
   52.5750   30.6605   50.0741 H   0  0  0  0  0  0  0  0  0  0  0  0
   50.7816   30.3286   50.2457 H   0  0  0  0  0  0  0  0  0  0  0  0
   49.4015   33.0455   54.5992 H   0  0  0  0  0  0  0  0  0  0  0  0
   51.9250   28.4230   54.5520 H   0  0  0  0  0  0  0  0  0  0  0  0
   53.7596   31.9726   51.4408 H   0  0  0  0  0  0  0  0  0  0  0  0
  1  2  1  0
  2  3  1  0
  3  4  2  0
  4  5  1  0
  5  6  2  0
  6  7  1  0
  7  8  1  0
  6  9  1  0
  9 10  1  0
 10 11  1  0
 11 12  1  0
 12 13  2  0
 12 14  1  0
 14 15  1  0
 15 16  2  0
 16 17  1  0
 17 18  1  0
 18 19  1  0
 18 20  2  0
  9 21  2  0
 21  3  1  0
 20 10  1  0
 20 15  1  0
  1 22  1  0
  1 23  1  0
  1 24  1  0
  4 25  1  0
  5 26  1  0
  8 27  1  0
  8 28  1  0
  8 29  1  0
 10 30  1  6
 11 31  1  0
 11 32  1  0
 16 33  1  0
 19 34  1  0
 21 35  1  0
M  CHG  1  14  -1
M  END
>  <UniqueID>  (20) 
19

>  <SMILES>  (20) 
COc1ccc(OC)c([C@@H]2CC(=O)[N-]c3coc(O)c32)c1

>  <Energy>  (20) 
69.619532837147

>  <Genealogy>  (20) 
COc1ccc(OC)c(C2CC(=O)[N-]c3coc(O)c32)c1 (protonated)
COc1ccc(OC)c([C@@H]2CC(=O)[N-]c3coc(O)c32)c1 (chirality)
COc1ccc(OC)c([C@@H]2CC(=O)[N-]c3coc(O)c32)c1 (3D coordinates assigned)
COc1ccc(OC)c([C@@H]2CC(=O)[N-]c3coc(O)c32)c1 (nonaromatic ring conformer: 69.619532837147 kcal/mol)

>  <smiles>  (20) 
COc1ccc(OC)c(C2CC(=O)Nc3coc(O)c32)c1

>  <score_type>  (20) 
oracle

>  <origin>  (20) 
adg

>  <m_score__min__energy>  (20) 
-7.71

>  <m_primary>  (20) 
energy

$$$$
20:0
     RDKit          3D

 53 56  0  0  0  0  0  0  0  0999 V2000
   61.7890   33.8310   50.9540 C   0  0  0  0  0  0  0  0  0  0  0  0
   63.0340   34.2410   50.1750 C   0  0  0  0  0  0  0  0  0  0  0  0
   63.7840   33.0330   49.7580 N   0  0  0  0  0  0  0  0  0  0  0  0
   64.8530   32.6740   50.7270 C   0  0  0  0  0  0  0  0  0  0  0  0
   66.2760   32.7090   50.1490 C   0  0  0  0  0  0  0  0  0  0  0  0
   64.2260   33.1110   48.3470 C   0  0  0  0  0  0  0  0  0  0  0  0
   63.2670   32.3570   47.4030 C   0  0  0  0  0  0  0  0  0  0  0  0
   61.9960   32.0070   48.0650 N   0  0  0  0  0  0  0  0  0  0  0  0
   60.8720   32.6930   47.4610 C   0  0  0  0  0  0  0  0  0  0  0  0
   60.7060   34.0870   47.7250 C   0  0  0  0  0  0  0  0  0  0  0  0
   59.6630   34.8300   47.1380 C   0  0  0  0  0  0  0  0  0  0  0  0
   58.7960   34.1620   46.2880 C   0  0  0  0  0  0  0  0  0  0  0  0
   57.7000   34.5950   45.5640 C   0  0  0  0  0  0  0  0  0  0  0  0
   57.2300   33.4660   44.8860 C   0  0  0  0  0  0  0  0  0  0  0  0
   58.0070   32.3950   45.1860 N   0  0  0  0  0  0  0  0  0  0  0  0
   57.9570   31.0950   44.7810 C   0  0  0  0  0  0  0  0  0  0  0  0
   56.9760   30.6300   43.8910 C   0  0  0  0  0  0  0  0  0  0  0  0
   56.9570   29.2900   43.5010 C   0  0  0  0  0  0  0  0  0  0  0  0
   57.9180   28.3890   43.9930 C   0  0  0  0  0  0  0  0  0  0  0  0
   57.9360   27.0350   43.6260 O   0  0  0  0  0  0  0  0  0  0  0  0
   58.1250   26.5650   42.2960 C   0  0  0  0  0  0  0  0  0  0  0  0
   58.8990   28.8470   44.8810 C   0  0  0  0  0  0  0  0  0  0  0  0
   58.9370   30.1940   45.2870 C   0  0  0  0  0  0  0  0  0  0  0  0
   59.9320   30.6690   46.1920 C   0  0  0  0  0  0  0  0  0  0  0  0
   60.7890   29.8630   46.6420 O   0  0  0  0  0  0  0  0  0  0  0  0
   59.9470   32.0390   46.5770 C   0  0  0  0  0  0  0  0  0  0  0  0
   58.9430   32.8360   46.0320 C   0  0  0  0  0  0  0  0  0  0  0  0
   61.9929   33.8981   52.0329 H   0  0  0  0  0  0  0  0  0  0  0  0
   60.9571   34.5026   50.6956 H   0  0  0  0  0  0  0  0  0  0  0  0
   61.5189   32.7965   50.6956 H   0  0  0  0  0  0  0  0  0  0  0  0
   62.7356   34.8118   49.2833 H   0  0  0  0  0  0  0  0  0  0  0  0
   63.6752   34.8641   50.8157 H   0  0  0  0  0  0  0  0  0  0  0  0
   64.8063   33.3819   51.5677 H   0  0  0  0  0  0  0  0  0  0  0  0
   64.6641   31.6334   51.0293 H   0  0  0  0  0  0  0  0  0  0  0  0
   67.0057   32.7269   50.9719 H   0  0  0  0  0  0  0  0  0  0  0  0
   66.4427   31.8147   49.5306 H   0  0  0  0  0  0  0  0  0  0  0  0
   66.3985   33.6104   49.5306 H   0  0  0  0  0  0  0  0  0  0  0  0
   64.2655   34.1678   48.0443 H   0  0  0  0  0  0  0  0  0  0  0  0
   65.2177   32.6408   48.2732 H   0  0  0  0  0  0  0  0  0  0  0  0
   63.0500   32.9957   46.5341 H   0  0  0  0  0  0  0  0  0  0  0  0
   63.7586   31.4213   47.0984 H   0  0  0  0  0  0  0  0  0  0  0  0
   62.0610   32.2410   49.0830 H   0  0  0  0  0  0  0  0  0  0  0  0
   61.8450   30.9740   48.0360 H   0  0  0  0  0  0  0  0  0  0  0  0
   61.4095   34.5924   48.4029 H   0  0  0  0  0  0  0  0  0  0  0  0
   59.5410   35.9030   47.3471 H   0  0  0  0  0  0  0  0  0  0  0  0
   57.2853   35.6132   45.5289 H   0  0  0  0  0  0  0  0  0  0  0  0
   56.3614   33.4488   44.2113 H   0  0  0  0  0  0  0  0  0  0  0  0
   56.2187   31.3250   43.4991 H   0  0  0  0  0  0  0  0  0  0  0  0
   56.1840   28.9359   42.8031 H   0  0  0  0  0  0  0  0  0  0  0  0
   58.5353   25.5447   42.3225 H   0  0  0  0  0  0  0  0  0  0  0  0
   57.1596   26.5584   41.7688 H   0  0  0  0  0  0  0  0  0  0  0  0
   58.8262   27.2286   41.7688 H   0  0  0  0  0  0  0  0  0  0  0  0
   59.6513   28.1434   45.2671 H   0  0  0  0  0  0  0  0  0  0  0  0
  1  2  1  0
  2  3  1  0
  3  4  1  0
  4  5  1  0
  3  6  1  0
  6  7  1  0
  7  8  1  0
  8  9  1  0
  9 10  2  0
 10 11  1  0
 11 12  2  0
 12 13  1  0
 13 14  2  0
 14 15  1  0
 15 16  1  0
 16 17  2  0
 17 18  1  0
 18 19  2  0
 19 20  1  0
 20 21  1  0
 19 22  1  0
 22 23  2  0
 23 24  1  0
 24 25  2  0
 24 26  1  0
 26 27  2  0
 26  9  1  0
 27 12  1  0
 27 15  1  0
 23 16  1  0
  1 28  1  0
  1 29  1  0
  1 30  1  0
  2 31  1  0
  2 32  1  0
  4 33  1  0
  4 34  1  0
  5 35  1  0
  5 36  1  0
  5 37  1  0
  6 38  1  0
  6 39  1  0
  7 40  1  0
  7 41  1  0
  8 42  1  0
  8 43  1  0
 10 44  1  0
 11 45  1  0
 13 46  1  0
 14 47  1  0
 17 48  1  0
 18 49  1  0
 21 50  1  0
 21 51  1  0
 21 52  1  0
 22 53  1  0
M  CHG  1   8   1
M  END
>  <UniqueID>  (21) 
20

>  <SMILES>  (21) 
CCN(CC)CC[NH2+]c1ccc2ccn3c4ccc(OC)cc4c(=O)c1c23

>  <Energy>  (21) 
110.95414785455418

>  <Genealogy>  (21) 
CCN(CC)CC[NH2+]c1ccc2ccn3c4ccc(OC)cc4c(=O)c1c23 (protonated)
CCN(CC)CC[NH2+]c1ccc2ccn3c4ccc(OC)cc4c(=O)c1c23 (3D coordinates assigned)
CCN(CC)CC[NH2+]c1ccc2ccn3c4ccc(OC)cc4c(=O)c1c23 (optimized conformer: 110.95414785455418 kcal/mol)

>  <smiles>  (21) 
CCN(CC)CCNc1ccc2ccn3c4ccc(OC)cc4c(=O)c1c23

>  <score_type>  (21) 
oracle

>  <origin>  (21) 
adg

>  <m_score__min__energy>  (21) 
-6.1399999999999997

>  <m_primary>  (21) 
energy

$$$$
21:0
     RDKit          3D

 40 42  0  0  0  0  0  0  0  0999 V2000
   60.5070   31.4650   48.9550 C   0  0  0  0  0  0  0  0  0  0  0  0
   59.7330   30.5080   48.2410 O   0  0  0  0  0  0  0  0  0  0  0  0
   60.2780   29.6800   47.2540 C   0  0  0  0  0  0  0  0  0  0  0  0
   61.2480   30.0860   46.5560 O   0  0  0  0  0  0  0  0  0  0  0  0
   59.7340   28.3640   47.0320 N   0  0  0  0  0  0  0  0  0  0  0  0
   60.4020   27.4570   46.0920 C   0  0  0  0  0  0  0  0  0  0  0  0
   59.6350   26.1330   45.9670 C   0  0  0  0  0  0  0  0  0  0  0  0
   58.1820   26.3640   45.8400 N   0  0  0  0  0  0  0  0  0  0  0  0
   57.8350   26.9990   44.5500 C   0  0  0  0  0  0  0  0  0  0  0  0
   57.4160   28.4160   44.7720 C   0  0  0  0  0  0  0  0  0  0  0  0
   58.2740   29.4440   44.9190 N   0  0  0  0  0  0  0  0  0  0  0  0
   57.4290   30.4780   45.1170 C   0  0  0  0  0  0  0  0  0  0  0  0
   57.8540   31.8870   45.3200 C   0  0  0  0  0  0  0  0  0  0  0  0
   58.0480   32.3490   46.6360 C   0  0  0  0  0  0  0  0  0  0  0  0
   58.4370   33.6680   46.8810 C   0  0  0  0  0  0  0  0  0  0  0  0
   58.6420   34.5460   45.8190 C   0  0  0  0  0  0  0  0  0  0  0  0
   58.4650   34.1060   44.5070 C   0  0  0  0  0  0  0  0  0  0  0  0
   58.0760   32.7860   44.2440 C   0  0  0  0  0  0  0  0  0  0  0  0
   57.9300   32.3170   42.5520 Cl  0  0  0  0  0  0  0  0  0  0  0  0
   56.1370   30.0890   45.0830 N   0  0  0  0  0  0  0  0  0  0  0  0
   56.1720   28.8090   44.8730 O   0  0  0  0  0  0  0  0  0  0  0  0
   57.6030   27.0900   47.0040 C   0  0  0  0  0  0  0  0  0  0  0  0
   58.6340   27.8570   47.8590 C   0  0  0  0  0  0  0  0  0  0  0  0
   60.3792   31.3070   50.0361 H   0  0  0  0  0  0  0  0  0  0  0  0
   61.5684   31.3491   48.6905 H   0  0  0  0  0  0  0  0  0  0  0  0
   60.1717   32.4787   48.6905 H   0  0  0  0  0  0  0  0  0  0  0  0
   60.4541   27.9374   45.1038 H   0  0  0  0  0  0  0  0  0  0  0  0
   61.4127   27.2426   46.4696 H   0  0  0  0  0  0  0  0  0  0  0  0
   59.9915   25.5952   45.0761 H   0  0  0  0  0  0  0  0  0  0  0  0
   59.8140   25.5411   46.8767 H   0  0  0  0  0  0  0  0  0  0  0  0
   58.7123   26.9786   43.8867 H   0  0  0  0  0  0  0  0  0  0  0  0
   57.0039   26.4458   44.0882 H   0  0  0  0  0  0  0  0  0  0  0  0
   57.8913   31.6628   47.4814 H   0  0  0  0  0  0  0  0  0  0  0  0
   58.5818   34.0143   47.9150 H   0  0  0  0  0  0  0  0  0  0  0  0
   58.9433   35.5857   46.0148 H   0  0  0  0  0  0  0  0  0  0  0  0
   58.6324   34.8017   43.6715 H   0  0  0  0  0  0  0  0  0  0  0  0
   56.8653   27.8128   46.6254 H   0  0  0  0  0  0  0  0  0  0  0  0
   57.1602   26.3259   47.6598 H   0  0  0  0  0  0  0  0  0  0  0  0
   58.1337   28.7046   48.3502 H   0  0  0  0  0  0  0  0  0  0  0  0
   59.0496   27.1664   48.6076 H   0  0  0  0  0  0  0  0  0  0  0  0
  1  2  1  0
  2  3  1  0
  3  4  2  0
  3  5  1  0
  5  6  1  0
  6  7  1  0
  7  8  1  0
  8  9  1  0
  9 10  1  0
 10 11  2  0
 11 12  1  0
 12 13  1  0
 13 14  2  0
 14 15  1  0
 15 16  2  0
 16 17  1  0
 17 18  2  0
 18 19  1  0
 12 20  2  0
 20 21  1  0
  8 22  1  0
 22 23  1  0
 23  5  1  0
 21 10  1  0
 18 13  1  0
  1 24  1  0
  1 25  1  0
  1 26  1  0
  6 27  1  0
  6 28  1  0
  7 29  1  0
  7 30  1  0
  9 31  1  0
  9 32  1  0
 14 33  1  0
 15 34  1  0
 16 35  1  0
 17 36  1  0
 22 37  1  0
 22 38  1  0
 23 39  1  0
 23 40  1  0
M  END
>  <UniqueID>  (22) 
21

>  <SMILES>  (22) 
COC(=O)N1CCN(Cc2nc(-c3ccccc3Cl)no2)CC1

>  <Energy>  (22) 
82.70257955558942

>  <Genealogy>  (22) 
COC(=O)N1CCN(Cc2nc(-c3ccccc3Cl)no2)CC1 (3D coordinates assigned)
COC(=O)N1CCN(Cc2nc(-c3ccccc3Cl)no2)CC1 (nonaromatic ring conformer: 82.70257955558942 kcal/mol)

>  <smiles>  (22) 
COC(=O)N1CCN(Cc2nc(-c3ccccc3Cl)no2)CC1

>  <score_type>  (22) 
oracle

>  <origin>  (22) 
adg

>  <m_score__min__energy>  (22) 
-8.0999999999999996

>  <m_primary>  (22) 
energy

$$$$
22:0
     RDKit          3D

 43 45  0  0  0  0  0  0  0  0999 V2000
   60.1460   29.8350   48.2650 C   0  0  0  0  0  0  0  0  0  0  0  0
   60.4300   31.3610   48.2660 C   0  0  0  0  0  0  0  0  0  0  0  0
   59.8630   31.9290   49.5870 C   0  0  0  0  0  0  0  0  0  0  0  0
   61.9970   31.5440   48.2290 C   0  0  0  0  0  0  0  0  0  0  0  0
   62.5370   32.7250   47.4040 C   0  0  0  0  0  0  0  0  0  0  0  0
   61.4900   34.1900   47.6020 S   0  0  0  0  0  0  0  0  0  0  0  0
   60.1540   33.3820   46.7240 C   0  0  0  0  0  0  0  0  0  0  0  0
   59.5670   34.0400   45.6390 C   0  0  0  0  0  0  0  0  0  0  0  0
   58.5170   33.4470   44.9400 C   0  0  0  0  0  0  0  0  0  0  0  0
   58.0570   32.1800   45.3070 C   0  0  0  0  0  0  0  0  0  0  0  0
   56.9460   31.6030   44.6070 N   0  0  0  0  0  0  0  0  0  0  0  0
   56.9070   30.2430   44.1360 C   0  0  0  0  0  0  0  0  0  0  0  0
   55.5280   29.7590   43.3720 S   0  0  0  0  0  0  0  0  0  0  0  0
   58.1420   29.5030   43.9590 N   0  0  0  0  0  0  0  0  0  0  0  0
   58.3210   28.4520   44.9390 C   0  0  0  0  0  0  0  0  0  0  0  0
   57.1980   27.7670   45.4430 C   0  0  0  0  0  0  0  0  0  0  0  0
   57.3480   26.7590   46.3980 C   0  0  0  0  0  0  0  0  0  0  0  0
   58.6190   26.4230   46.8650 C   0  0  0  0  0  0  0  0  0  0  0  0
   59.7420   27.0950   46.3830 C   0  0  0  0  0  0  0  0  0  0  0  0
   59.6040   28.1080   45.4250 C   0  0  0  0  0  0  0  0  0  0  0  0
   61.0550   28.9290   44.8680 Cl  0  0  0  0  0  0  0  0  0  0  0  0
   58.6360   31.5210   46.4000 C   0  0  0  0  0  0  0  0  0  0  0  0
   59.7320   32.0840   47.0940 C   0  0  0  0  0  0  0  0  0  0  0  0
   60.0788   29.4739   49.3019 H   0  0  0  0  0  0  0  0  0  0  0  0
   59.1960   29.6392   47.7462 H   0  0  0  0  0  0  0  0  0  0  0  0
   60.9620   29.3105   47.7462 H   0  0  0  0  0  0  0  0  0  0  0  0
   60.3547   31.4365   50.4389 H   0  0  0  0  0  0  0  0  0  0  0  0
   60.0510   33.0119   49.6311 H   0  0  0  0  0  0  0  0  0  0  0  0
   58.7798   31.7429   49.6311 H   0  0  0  0  0  0  0  0  0  0  0  0
   62.3413   31.6766   49.2653 H   0  0  0  0  0  0  0  0  0  0  0  0
   62.3808   30.6430   47.7282 H   0  0  0  0  0  0  0  0  0  0  0  0
   63.5563   32.9633   47.7420 H   0  0  0  0  0  0  0  0  0  0  0  0
   62.5396   32.4378   46.3422 H   0  0  0  0  0  0  0  0  0  0  0  0
   59.9358   35.0309   45.3354 H   0  0  0  0  0  0  0  0  0  0  0  0
   58.0495   33.9778   44.0975 H   0  0  0  0  0  0  0  0  0  0  0  0
   56.1800   32.2500   44.3130 H   0  0  0  0  0  0  0  0  0  0  0  0
   58.1380   29.1020   42.9920 H   0  0  0  0  0  0  0  0  0  0  0  0
   58.9650   30.1400   44.0170 H   0  0  0  0  0  0  0  0  0  0  0  0
   56.1929   28.0286   45.0808 H   0  0  0  0  0  0  0  0  0  0  0  0
   56.4635   26.2297   46.7822 H   0  0  0  0  0  0  0  0  0  0  0  0
   58.7356   25.6266   47.6148 H   0  0  0  0  0  0  0  0  0  0  0  0
   60.7415   26.8283   46.7570 H   0  0  0  0  0  0  0  0  0  0  0  0
   58.2315   30.5505   46.7232 H   0  0  0  0  0  0  0  0  0  0  0  0
  1  2  1  0
  2  3  1  0
  2  4  1  0
  4  5  1  0
  5  6  1  0
  6  7  1  0
  7  8  2  0
  8  9  1  0
  9 10  2  0
 10 11  1  0
 11 12  1  0
 12 13  2  0
 12 14  1  0
 14 15  1  0
 15 16  2  0
 16 17  1  0
 17 18  2  0
 18 19  1  0
 19 20  2  0
 20 21  1  0
 10 22  1  0
 22 23  2  0
 23  2  1  0
 23  7  1  0
 20 15  1  0
  1 24  1  0
  1 25  1  0
  1 26  1  0
  3 27  1  0
  3 28  1  0
  3 29  1  0
  4 30  1  0
  4 31  1  0
  5 32  1  0
  5 33  1  0
  8 34  1  0
  9 35  1  0
 11 36  1  0
 14 37  1  0
 14 38  1  0
 16 39  1  0
 17 40  1  0
 18 41  1  0
 19 42  1  0
 22 43  1  0
M  CHG  1  14   1
M  END
>  <UniqueID>  (23) 
22

>  <SMILES>  (23) 
CC1(C)CCSc2ccc(NC(=S)[NH2+]c3ccccc3Cl)cc21

>  <Energy>  (23) 
64.97894526796587

>  <Genealogy>  (23) 
CC1(C)CCSc2ccc(NC(=S)[NH2+]c3ccccc3Cl)cc21 (protonated)
CC1(C)CCSc2ccc(NC(=S)[NH2+]c3ccccc3Cl)cc21 (3D coordinates assigned)
CC1(C)CCSc2ccc(NC(=S)[NH2+]c3ccccc3Cl)cc21 (nonaromatic ring conformer: 64.97894526796587 kcal/mol)

>  <smiles>  (23) 
CC1(C)CCSc2ccc(NC(=S)Nc3ccccc3Cl)cc21

>  <score_type>  (23) 
oracle

>  <origin>  (23) 
adg

>  <m_score__min__energy>  (23) 
-6.9199999999999999

>  <m_primary>  (23) 
energy

$$$$
23:0
     RDKit          3D

 46 47  0  0  0  0  0  0  0  0999 V2000
   59.6740   33.8900   49.5580 C   0  0  0  0  0  0  0  0  0  0  0  0
   59.3390   34.2910   48.4730 C   0  0  0  0  0  0  0  0  0  0  0  0
   58.9280   34.7850   47.1460 C   0  0  0  0  0  0  0  0  0  0  0  0
   59.8060   34.2680   46.0680 N   0  0  2  0  0  0  0  0  0  0  0  0
   59.2610   34.4460   44.6850 C   0  0  0  0  0  0  0  0  0  0  0  0
   58.2360   33.3950   44.1810 C   0  0  0  0  0  0  0  0  0  0  0  0
   57.2850   32.8570   45.2600 C   0  0  0  0  0  0  0  0  0  0  0  0
   56.9300   31.4450   45.0030 N   0  0  0  0  0  0  0  0  0  0  0  0
   57.0210   31.1500   43.5600 C   0  0  0  0  0  0  0  0  0  0  0  0
   56.5030   29.7270   43.2660 C   0  0  0  0  0  0  0  0  0  0  0  0
   56.4740   28.8900   44.4750 N   0  0  0  0  0  0  0  0  0  0  0  0
   57.7010   29.0700   45.2550 C   0  0  0  0  0  0  0  0  0  0  0  0
   57.7980   30.5190   45.7730 C   0  0  0  0  0  0  0  0  0  0  0  0
   60.2200   32.8690   46.3590 C   0  0  0  0  0  0  0  0  0  0  0  0
   61.5610   32.7950   47.0650 C   0  0  0  0  0  0  0  0  0  0  0  0
   62.5160   33.8030   46.8420 C   0  0  0  0  0  0  0  0  0  0  0  0
   63.7530   33.7660   47.4910 C   0  0  0  0  0  0  0  0  0  0  0  0
   64.0540   32.7210   48.3650 C   0  0  0  0  0  0  0  0  0  0  0  0
   63.1210   31.7070   48.5890 C   0  0  0  0  0  0  0  0  0  0  0  0
   61.8770   31.7330   47.9450 C   0  0  0  0  0  0  0  0  0  0  0  0
   60.6650   30.2820   48.2820 Br  0  0  0  0  0  0  0  0  0  0  0  0
   59.9800   33.5237   50.5491 H   0  0  0  0  0  0  0  0  0  0  0  0
   57.8953   34.4609   46.9499 H   0  0  0  0  0  0  0  0  0  0  0  0
   59.0045   35.8823   47.1516 H   0  0  0  0  0  0  0  0  0  0  0  0
   60.6780   34.8490   46.1110 H   0  0  0  0  0  0  0  0  0  0  0  0
   58.7704   35.4298   44.6477 H   0  0  0  0  0  0  0  0  0  0  0  0
   60.1314   34.3307   44.0224 H   0  0  0  0  0  0  0  0  0  0  0  0
   57.6290   33.8602   43.3904 H   0  0  0  0  0  0  0  0  0  0  0  0
   58.8224   32.5344   43.8267 H   0  0  0  0  0  0  0  0  0  0  0  0
   57.7770   32.9306   46.2411 H   0  0  0  0  0  0  0  0  0  0  0  0
   56.3632   33.4569   45.2428 H   0  0  0  0  0  0  0  0  0  0  0  0
   56.4140   31.8786   43.0025 H   0  0  0  0  0  0  0  0  0  0  0  0
   58.0740   31.2168   43.2488 H   0  0  0  0  0  0  0  0  0  0  0  0
   55.4837   29.7974   42.8583 H   0  0  0  0  0  0  0  0  0  0  0  0
   57.1887   29.2583   42.5449 H   0  0  0  0  0  0  0  0  0  0  0  0
   56.4220   27.8880   44.1750 H   0  0  0  0  0  0  0  0  0  0  0  0
   57.6918   28.3786   46.1105 H   0  0  0  0  0  0  0  0  0  0  0  0
   58.5681   28.8613   44.6112 H   0  0  0  0  0  0  0  0  0  0  0  0
   57.4906   30.5398   46.8290 H   0  0  0  0  0  0  0  0  0  0  0  0
   58.8395   30.8527   45.6547 H   0  0  0  0  0  0  0  0  0  0  0  0
   59.4577   32.4015   46.9996 H   0  0  0  0  0  0  0  0  0  0  0  0
   60.3186   32.3428   45.3981 H   0  0  0  0  0  0  0  0  0  0  0  0
   62.2873   34.6276   46.1508 H   0  0  0  0  0  0  0  0  0  0  0  0
   64.4907   34.5622   47.3125 H   0  0  0  0  0  0  0  0  0  0  0  0
   65.0268   32.6961   48.8778 H   0  0  0  0  0  0  0  0  0  0  0  0
   63.3640   30.8825   49.2754 H   0  0  0  0  0  0  0  0  0  0  0  0
  1  2  3  0
  2  3  1  0
  3  4  1  0
  4  5  1  0
  5  6  1  0
  6  7  1  0
  7  8  1  0
  8  9  1  0
  9 10  1  0
 10 11  1  0
 11 12  1  0
 12 13  1  0
  4 14  1  0
 14 15  1  0
 15 16  2  0
 16 17  1  0
 17 18  2  0
 18 19  1  0
 19 20  2  0
 20 21  1  0
 13  8  1  0
 20 15  1  0
  1 22  1  0
  3 23  1  0
  3 24  1  0
  4 25  1  6
  5 26  1  0
  5 27  1  0
  6 28  1  0
  6 29  1  0
  7 30  1  0
  7 31  1  0
  9 32  1  0
  9 33  1  0
 10 34  1  0
 10 35  1  0
 11 36  1  0
 12 37  1  0
 12 38  1  0
 13 39  1  0
 13 40  1  0
 14 41  1  0
 14 42  1  0
 16 43  1  0
 17 44  1  0
 18 45  1  0
 19 46  1  0
M  CHG  1   4   1
M  END
>  <UniqueID>  (24) 
23

>  <SMILES>  (24) 
C#CC[N@H+](CCCN1CCNCC1)Cc1ccccc1Br

>  <Energy>  (24) 
59.20542300919407

>  <Genealogy>  (24) 
C#CC[NH+](CCCN1CCNCC1)Cc1ccccc1Br (protonated)
C#CC[N@H+](CCCN1CCNCC1)Cc1ccccc1Br (chirality)
C#CC[N@H+](CCCN1CCNCC1)Cc1ccccc1Br (3D coordinates assigned)
C#CC[N@H+](CCCN1CCNCC1)Cc1ccccc1Br (nonaromatic ring conformer: 59.20542300919407 kcal/mol)

>  <smiles>  (24) 
C#CCN(CCCN1CCNCC1)Cc1ccccc1Br

>  <score_type>  (24) 
oracle

>  <origin>  (24) 
adg

>  <m_score__min__energy>  (24) 
-6.0800000000000001

>  <m_primary>  (24) 
energy

$$$$
24:0
     RDKit          3D

 35 37  0  0  0  0  0  0  0  0999 V2000
   57.0598   35.0708   44.5317 H   0  0  0  0  0  0  0  0  0  0  0  0
   57.8470   34.3350   44.7530 C   0  0  0  0  0  0  0  0  0  0  0  0
   58.9520   34.7850   45.3640 C   0  0  0  0  0  0  0  0  0  0  0  0
   59.1759   35.8585   45.2776 H   0  0  0  0  0  0  0  0  0  0  0  0
   59.8910   33.9580   46.1420 C   0  0  0  0  0  0  0  0  0  0  0  0
   61.1230   34.3500   46.4310 O   0  0  0  0  0  0  0  0  0  0  0  0
   61.6450   33.3910   47.1550 C   0  0  0  0  0  0  0  0  0  0  0  0
   62.9180   33.3100   47.7090 C   0  0  0  0  0  0  0  0  0  0  0  0
   63.6523   34.1154   47.5604 H   0  0  0  0  0  0  0  0  0  0  0  0
   63.2400   32.1650   48.4670 C   0  0  0  0  0  0  0  0  0  0  0  0
   64.5280   32.0860   49.0220 O   0  0  0  0  0  0  0  0  0  0  0  0
   65.1220   33.0570   49.8840 C   0  0  0  0  0  0  0  0  0  0  0  0
   64.5866   33.0618   50.8449 H   0  0  0  0  0  0  0  0  0  0  0  0
   65.0543   34.0440   49.4030 H   0  0  0  0  0  0  0  0  0  0  0  0
   66.5910   32.7340   50.1320 C   0  0  0  0  0  0  0  0  0  0  0  0
   66.7796   32.6925   51.2149 H   0  0  0  0  0  0  0  0  0  0  0  0
   66.8339   31.7610   49.6800 H   0  0  0  0  0  0  0  0  0  0  0  0
   67.2196   33.5154   49.6800 H   0  0  0  0  0  0  0  0  0  0  0  0
   62.2650   31.1370   48.6350 C   0  0  0  0  0  0  0  0  0  0  0  0
   62.5147   30.2406   49.2216 H   0  0  0  0  0  0  0  0  0  0  0  0
   60.9870   31.2580   48.0580 C   0  0  0  0  0  0  0  0  0  0  0  0
   60.2272   30.4729   48.1856 H   0  0  0  0  0  0  0  0  0  0  0  0
   60.7200   32.4060   47.3210 C   0  0  0  0  0  0  0  0  0  0  0  0
   59.5900   32.7510   46.6880 N   0  0  0  0  0  0  0  0  0  0  0  0
   58.6870   32.2260   46.6590 H   0  0  0  0  0  0  0  0  0  0  0  0
   57.5960   32.9380   44.3520 C   0  0  0  0  0  0  0  0  0  0  0  0
   57.1010   32.0370   45.1700 O   0  0  0  0  0  0  0  0  0  0  0  0
   56.9590   30.9160   44.5050 C   0  0  0  0  0  0  0  0  0  0  0  0
   56.4500   29.7100   45.0770 N   0  0  0  0  0  0  0  0  0  0  0  0
   57.1910   28.9930   45.7810 O   0  0  0  0  0  0  0  0  0  0  0  0
   55.1470   29.3290   44.8590 O   0  0  0  0  0  0  0  0  0  0  0  0
   57.3600   31.0720   43.1930 C   0  0  0  0  0  0  0  0  0  0  0  0
   57.3564   30.3109   42.3989 H   0  0  0  0  0  0  0  0  0  0  0  0
   57.7660   32.3860   43.0910 C   0  0  0  0  0  0  0  0  0  0  0  0
   58.1471   32.8931   42.1924 H   0  0  0  0  0  0  0  0  0  0  0  0
  1  2  1  0
  2  3  2  0
  3  4  1  0
  3  5  1  0
  5  6  1  0
  6  7  1  0
  7  8  2  0
  8  9  1  0
  8 10  1  0
 10 11  1  0
 11 12  1  0
 12 13  1  0
 12 14  1  0
 12 15  1  0
 15 16  1  0
 15 17  1  0
 15 18  1  0
 10 19  2  0
 19 20  1  0
 19 21  1  0
 21 22  1  0
 21 23  2  0
 23 24  1  0
 24 25  1  0
  2 26  1  0
 26 27  1  0
 27 28  1  0
 28 29  1  0
 29 30  2  0
 29 31  1  0
 28 32  2  0
 32 33  1  0
 32 34  1  0
 34 35  1  0
 24  5  2  0
 34 26  2  0
 23  7  1  0
M  CHG  3  24   1  29   1  31  -1
M  END
>  <UniqueID>  (25) 
24

>  <SMILES>  (25) 
CCOc1ccc2[nH+]c(/C=C\c3ccc([N+](=O)[O-])o3)oc2c1

>  <Energy>  (25) 
106.68006844024606

>  <Genealogy>  (25) 
CCOc1ccc2[nH+]c(C=Cc3ccc([N+](=O)[O-])o3)oc2c1 (protonated)
CCOc1ccc2[nH+]c(/C=C\c3ccc([N+](=O)[O-])o3)oc2c1 (cis-trans isomerization)
CCOc1ccc2[nH+]c(/C=C\c3ccc([N+](=O)[O-])o3)oc2c1 (3D coordinates assigned)
CCOc1ccc2[nH+]c(/C=C\c3ccc([N+](=O)[O-])o3)oc2c1 (optimized conformer: 106.68006844024606 kcal/mol)

>  <smiles>  (25) 
CCOc1ccc2nc(C=Cc3ccc([N+](=O)[O-])o3)oc2c1

>  <score_type>  (25) 
oracle

>  <origin>  (25) 
adg

>  <m_score__min__energy>  (25) 
-5.7599999999999998

>  <m_primary>  (25) 
energy

$$$$
25:0
     RDKit          3D

 45 47  0  0  1  0  0  0  0  0999 V2000
   60.2720   34.2030   46.9070 C   0  0  0  0  0  0  0  0  0  0  0  0
   61.5010   33.9090   47.7410 C   0  0  0  0  0  0  0  0  0  0  0  0
   62.5950   33.2740   46.9180 C   0  0  0  0  0  0  0  0  0  0  0  0
   63.1210   32.0210   47.6310 C   0  0  0  0  0  0  0  0  0  0  0  0
   62.4200   30.8730   47.1610 N   0  0  0  0  0  0  0  0  0  0  0  0
   61.1980   30.6560   47.4000 C   0  0  0  0  0  0  0  0  0  0  0  0
   60.5640   31.0590   48.4950 N   0  0  0  0  0  0  0  0  0  0  0  0
   59.2660   30.8000   48.7010 C   0  0  0  0  0  0  0  0  0  0  0  0
   58.5730   31.2640   49.9460 C   0  0  0  0  0  0  0  0  0  0  0  0
   57.8930   30.1760   50.4470 F   0  0  0  0  0  0  0  0  0  0  0  0
   57.7810   32.3490   49.7040 F   0  0  0  0  0  0  0  0  0  0  0  0
   59.5880   31.5640   50.8590 F   0  0  0  0  0  0  0  0  0  0  0  0
   58.5480   30.1020   47.7760 N   0  0  0  0  0  0  0  0  0  0  0  0
   59.1480   29.6670   46.6410 C   0  0  0  0  0  0  0  0  0  0  0  0
   60.4650   29.9480   46.4620 C   0  0  0  0  0  0  0  0  0  0  0  0
   60.8110   29.4160   45.2780 N   0  0  0  0  0  0  0  0  0  0  0  0
   59.7110   28.8240   44.7570 C   0  0  0  0  0  0  0  0  0  0  0  0
   58.6650   28.9710   45.5900 N   0  0  0  0  0  0  0  0  0  0  0  0
   57.3390   28.4730   45.3660 C   0  0  0  0  0  0  0  0  0  0  0  0
   56.4190   29.5590   44.8770 C   0  0  0  0  0  0  0  0  0  0  0  0
   55.1870   29.3560   44.8970 O   0  0  0  0  0  0  0  0  0  0  0  0
   57.0350   30.7940   44.4060 C   0  0  0  0  0  0  0  0  0  0  0  0
   57.4090   31.8210   45.2400 C   0  0  0  0  0  0  0  0  0  0  0  0
   57.9850   32.9570   44.7170 C   0  0  0  0  0  0  0  0  0  0  0  0
   58.1980   33.0880   43.3640 C   0  0  0  0  0  0  0  0  0  0  0  0
   57.8210   32.0560   42.5340 C   0  0  0  0  0  0  0  0  0  0  0  0
   57.2430   30.9120   43.0390 C   0  0  0  0  0  0  0  0  0  0  0  0
   59.4188   34.4071   47.5706 H   0  0  0  0  0  0  0  0  0  0  0  0
   60.4611   35.0812   46.2722 H   0  0  0  0  0  0  0  0  0  0  0  0
   60.0432   33.3342   46.2722 H   0  0  0  0  0  0  0  0  0  0  0  0
   61.8765   34.8511   48.1670 H   0  0  0  0  0  0  0  0  0  0  0  0
   61.2158   33.2034   48.5352 H   0  0  0  0  0  0  0  0  0  0  0  0
   62.1944   32.9926   45.9330 H   0  0  0  0  0  0  0  0  0  0  0  0
   63.4182   33.9926   46.7917 H   0  0  0  0  0  0  0  0  0  0  0  0
   64.1948   31.9049   47.4224 H   0  0  0  0  0  0  0  0  0  0  0  0
   62.9652   32.1254   48.7149 H   0  0  0  0  0  0  0  0  0  0  0  0
   61.0750   31.5850   49.2050 H   0  0  0  0  0  0  0  0  0  0  0  0
   59.6772   28.2983   43.7913 H   0  0  0  0  0  0  0  0  0  0  0  0
   57.3800   27.6727   44.6125 H   0  0  0  0  0  0  0  0  0  0  0  0
   56.9471   28.0915   46.3204 H   0  0  0  0  0  0  0  0  0  0  0  0
   57.2481   31.7352   46.3248 H   0  0  0  0  0  0  0  0  0  0  0  0
   58.2799   33.7737   45.3923 H   0  0  0  0  0  0  0  0  0  0  0  0
   58.6599   33.9982   42.9539 H   0  0  0  0  0  0  0  0  0  0  0  0
   57.9840   32.1465   41.4499 H   0  0  0  0  0  0  0  0  0  0  0  0
   56.9479   30.0965   42.3623 H   0  0  0  0  0  0  0  0  0  0  0  0
  1  2  1  0
  2  3  1  0
  3  4  1  0
  4  5  1  0
  5  6  2  0
  6  7  1  0
  7  8  1  0
  8  9  1  0
  9 10  1  0
  9 11  1  0
  9 12  1  0
  8 13  2  0
 13 14  1  0
 14 15  2  0
 15 16  1  0
 16 17  2  0
 17 18  1  0
 18 19  1  0
 19 20  1  0
 20 21  2  0
 20 22  1  0
 22 23  2  0
 23 24  1  0
 24 25  2  0
 25 26  1  0
 26 27  2  0
 15  6  1  0
 27 22  1  0
 18 14  1  0
  1 28  1  0
  1 29  1  0
  1 30  1  0
  2 31  1  0
  2 32  1  0
  3 33  1  0
  3 34  1  0
  4 35  1  0
  4 36  1  0
  7 37  1  0
 17 38  1  0
 19 39  1  0
 19 40  1  0
 23 41  1  0
 24 42  1  0
 25 43  1  0
 26 44  1  0
 27 45  1  0
M  END
>  <smiles>  (26) 
CCCCN=c1[nH]c(C(F)(F)F)nc2c1ncn2CC(=O)c1ccccc1

>  <score_type>  (26) 
oracle

>  <origin>  (26) 
adg

>  <m_score__min__energy>  (26) 
-7.2800000000000002

>  <m_primary>  (26) 
energy

$$$$
26:0
     RDKit          3D

 57 58  0  0  0  0  0  0  0  0999 V2000
   62.4610   31.9180   47.5360 C   0  0  0  0  0  0  0  0  0  0  0  0
   61.5450   31.1340   48.4710 C   0  0  0  0  0  0  0  0  0  0  0  0
   60.2890   31.8840   48.6990 N   0  0  0  0  0  0  0  0  0  0  0  0
   60.4970   32.9900   49.6630 C   0  0  0  0  0  0  0  0  0  0  0  0
   59.2820   33.1380   50.5750 C   0  0  0  0  0  0  0  0  0  0  0  0
   59.2010   30.9830   49.1490 C   0  0  0  0  0  0  0  0  0  0  0  0
   59.2720   29.6500   48.3960 C   0  0  0  0  0  0  0  0  0  0  0  0
   58.6790   29.7680   47.1050 O   0  0  0  0  0  0  0  0  0  0  0  0
   59.3540   30.2740   45.9880 C   0  0  0  0  0  0  0  0  0  0  0  0
   59.7940   31.4570   45.9910 O   0  0  0  0  0  0  0  0  0  0  0  0
   59.5510   29.4100   44.7530 C   0  0  1  0  0  0  0  0  0  0  0  0
   60.5080   28.2420   45.0720 C   0  0  0  0  0  0  0  0  0  0  0  0
   59.8530   27.1680   45.9580 C   0  0  0  0  0  0  0  0  0  0  0  0
   58.3510   26.9910   45.6810 C   0  0  0  0  0  0  0  0  0  0  0  0
   57.9660   27.5010   44.2880 C   0  0  0  0  0  0  0  0  0  0  0  0
   58.2780   28.9470   44.0990 N   0  0  1  0  0  0  0  0  0  0  0  0
   57.1320   29.8010   44.3980 C   0  0  0  0  0  0  0  0  0  0  0  0
   56.3090   29.4600   45.2380 O   0  0  0  0  0  0  0  0  0  0  0  0
   57.0130   31.1860   43.8130 C   0  0  0  0  0  0  0  0  0  0  0  0
   56.6420   32.1320   44.8110 O   0  0  0  0  0  0  0  0  0  0  0  0
   57.5150   33.0730   45.3770 C   0  0  0  0  0  0  0  0  0  0  0  0
   58.3370   33.8170   44.5220 C   0  0  0  0  0  0  0  0  0  0  0  0
   59.2310   34.7600   45.0390 C   0  0  0  0  0  0  0  0  0  0  0  0
   59.3090   34.9680   46.4170 C   0  0  0  0  0  0  0  0  0  0  0  0
   58.4920   34.2340   47.2810 C   0  0  0  0  0  0  0  0  0  0  0  0
   57.5960   33.2910   46.7690 C   0  0  0  0  0  0  0  0  0  0  0  0
   63.1640   32.5197   48.1308 H   0  0  0  0  0  0  0  0  0  0  0  0
   63.0237   31.2174   46.9015 H   0  0  0  0  0  0  0  0  0  0  0  0
   61.8557   32.5821   46.9015 H   0  0  0  0  0  0  0  0  0  0  0  0
   61.3099   30.1598   48.0176 H   0  0  0  0  0  0  0  0  0  0  0  0
   62.0554   30.9850   49.4339 H   0  0  0  0  0  0  0  0  0  0  0  0
   61.3853   32.7748   50.2751 H   0  0  0  0  0  0  0  0  0  0  0  0
   60.6398   33.9271   49.1048 H   0  0  0  0  0  0  0  0  0  0  0  0
   59.6052   33.0986   51.6257 H   0  0  0  0  0  0  0  0  0  0  0  0
   58.7912   34.1026   50.3783 H   0  0  0  0  0  0  0  0  0  0  0  0
   58.5740   32.3195   50.3783 H   0  0  0  0  0  0  0  0  0  0  0  0
   59.3064   30.7968   50.2280 H   0  0  0  0  0  0  0  0  0  0  0  0
   58.2316   31.4603   48.9431 H   0  0  0  0  0  0  0  0  0  0  0  0
   60.3256   29.3545   48.2837 H   0  0  0  0  0  0  0  0  0  0  0  0
   58.7214   28.8901   48.9698 H   0  0  0  0  0  0  0  0  0  0  0  0
   60.0141   30.0558   43.9924 H   0  0  0  0  0  0  0  0  0  0  0  0
   60.8226   27.7756   44.1267 H   0  0  0  0  0  0  0  0  0  0  0  0
   61.3651   28.6539   45.6249 H   0  0  0  0  0  0  0  0  0  0  0  0
   60.3581   26.2080   45.7756 H   0  0  0  0  0  0  0  0  0  0  0  0
   59.9573   27.4965   47.0026 H   0  0  0  0  0  0  0  0  0  0  0  0
   58.0993   25.9225   45.7512 H   0  0  0  0  0  0  0  0  0  0  0  0
   57.7940   27.5778   46.4263 H   0  0  0  0  0  0  0  0  0  0  0  0
   58.5190   26.9202   43.5351 H   0  0  0  0  0  0  0  0  0  0  0  0
   56.8785   27.3781   44.1776 H   0  0  0  0  0  0  0  0  0  0  0  0
   58.4330   29.0320   43.0660 H   0  0  0  0  0  0  0  0  0  0  0  0
   57.9819   31.4789   43.3823 H   0  0  0  0  0  0  0  0  0  0  0  0
   56.2340   31.1724   43.0364 H   0  0  0  0  0  0  0  0  0  0  0  0
   58.2792   33.6586   43.4350 H   0  0  0  0  0  0  0  0  0  0  0  0
   59.8735   35.3385   44.3589 H   0  0  0  0  0  0  0  0  0  0  0  0
   60.0132   35.7093   46.8226 H   0  0  0  0  0  0  0  0  0  0  0  0
   58.5541   34.3987   48.3668 H   0  0  0  0  0  0  0  0  0  0  0  0
   56.9527   32.7176   47.4526 H   0  0  0  0  0  0  0  0  0  0  0  0
  1  2  1  0
  2  3  1  0
  3  4  1  0
  4  5  1  0
  3  6  1  0
  6  7  1  0
  7  8  1  0
  8  9  1  0
  9 10  2  0
  9 11  1  0
 11 12  1  0
 12 13  1  0
 13 14  1  0
 14 15  1  0
 15 16  1  0
 16 17  1  0
 17 18  2  0
 17 19  1  0
 19 20  1  0
 20 21  1  0
 21 22  2  0
 22 23  1  0
 23 24  2  0
 24 25  1  0
 25 26  2  0
 16 11  1  0
 26 21  1  0
  1 27  1  0
  1 28  1  0
  1 29  1  0
  2 30  1  0
  2 31  1  0
  4 32  1  0
  4 33  1  0
  5 34  1  0
  5 35  1  0
  5 36  1  0
  6 37  1  0
  6 38  1  0
  7 39  1  0
  7 40  1  0
 11 41  1  6
 12 42  1  0
 12 43  1  0
 13 44  1  0
 13 45  1  0
 14 46  1  0
 14 47  1  0
 15 48  1  0
 15 49  1  0
 16 50  1  6
 19 51  1  0
 19 52  1  0
 22 53  1  0
 23 54  1  0
 24 55  1  0
 25 56  1  0
 26 57  1  0
M  CHG  1  16   1
M  END
>  <UniqueID>  (27) 
25

>  <SMILES>  (27) 
CCN(CC)CCOC(=O)[C@H]1CCCC[N@H+]1C(=O)COc1ccccc1

>  <Energy>  (27) 
66.57327346888323

>  <Genealogy>  (27) 
CCN(CC)CCOC(=O)C1CCCC[NH+]1C(=O)COc1ccccc1 (protonated)
CCN(CC)CCOC(=O)[C@H]1CCCC[N@H+]1C(=O)COc1ccccc1 (chirality)
CCN(CC)CCOC(=O)[C@H]1CCCC[N@H+]1C(=O)COc1ccccc1 (3D coordinates assigned)
CCN(CC)CCOC(=O)[C@H]1CCCC[N@H+]1C(=O)COc1ccccc1 (nonaromatic ring conformer: 66.57327346888323 kcal/mol)

>  <smiles>  (27) 
CCN(CC)CCOC(=O)C1CCCCN1C(=O)COc1ccccc1

>  <score_type>  (27) 
oracle

>  <origin>  (27) 
adg

>  <m_score__min__energy>  (27) 
-6.54

>  <m_primary>  (27) 
energy

$$$$
27:0
     RDKit          3D

 33 35  0  0  0  0  0  0  0  0999 V2000
   58.2200   26.9300   44.1500 C   0  0  0  0  0  0  0  0  0  0  0  0
   58.5740   28.2100   44.7620 N   0  0  0  0  0  0  0  0  0  0  0  0
   57.8680   29.3740   44.7530 C   0  0  0  0  0  0  0  0  0  0  0  0
   56.5570   29.5880   44.1070 C   0  0  0  0  0  0  0  0  0  0  0  0
   56.4340   29.6370   42.6860 N   0  0  0  0  0  0  0  0  0  0  0  0
   55.5240   29.7060   44.8180 O   0  0  0  0  0  0  0  0  0  0  0  0
   58.6170   30.3270   45.4350 C   0  0  0  0  0  0  0  0  0  0  0  0
   58.3360   31.6640   45.7140 C   0  0  0  0  0  0  0  0  0  0  0  0
   59.2830   32.3890   46.4530 C   0  0  0  0  0  0  0  0  0  0  0  0
   60.4790   31.7750   46.9010 C   0  0  0  0  0  0  0  0  0  0  0  0
   61.4800   32.5430   47.6840 C   0  0  0  0  0  0  0  0  0  0  0  0
   62.8580   32.3280   47.4900 C   0  0  0  0  0  0  0  0  0  0  0  0
   63.7980   33.0530   48.2290 C   0  0  0  0  0  0  0  0  0  0  0  0
   63.3770   33.9970   49.1680 C   0  0  0  0  0  0  0  0  0  0  0  0
   62.0130   34.2180   49.3700 C   0  0  0  0  0  0  0  0  0  0  0  0
   61.0670   33.4980   48.6340 C   0  0  0  0  0  0  0  0  0  0  0  0
   60.6950   30.4150   46.5910 C   0  0  0  0  0  0  0  0  0  0  0  0
   59.7510   29.7570   45.8730 N   0  0  0  0  0  0  0  0  0  0  0  0
   59.7020   28.4780   45.4600 C   0  0  0  0  0  0  0  0  0  0  0  0
   60.6050   27.6290   45.6930 O   0  0  0  0  0  0  0  0  0  0  0  0
   58.0155   26.1907   44.9384 H   0  0  0  0  0  0  0  0  0  0  0  0
   57.3234   27.0576   43.5256 H   0  0  0  0  0  0  0  0  0  0  0  0
   59.0547   26.5788   43.5256 H   0  0  0  0  0  0  0  0  0  0  0  0
   55.5100   29.8430   42.2460 H   0  0  0  0  0  0  0  0  0  0  0  0
   57.2340   29.3800   42.0660 H   0  0  0  0  0  0  0  0  0  0  0  0
   57.4041   32.1341   45.3667 H   0  0  0  0  0  0  0  0  0  0  0  0
   59.0947   33.4471   46.6875 H   0  0  0  0  0  0  0  0  0  0  0  0
   63.1970   31.5853   46.7528 H   0  0  0  0  0  0  0  0  0  0  0  0
   64.8725   32.8792   48.0702 H   0  0  0  0  0  0  0  0  0  0  0  0
   64.1188   34.5658   49.7478 H   0  0  0  0  0  0  0  0  0  0  0  0
   61.6817   34.9609   50.1105 H   0  0  0  0  0  0  0  0  0  0  0  0
   59.9943   33.6782   48.7976 H   0  0  0  0  0  0  0  0  0  0  0  0
   61.6083   29.9004   46.9242 H   0  0  0  0  0  0  0  0  0  0  0  0
  1  2  1  0
  2  3  1  0
  3  4  1  0
  4  5  1  0
  4  6  2  0
  3  7  2  0
  7  8  1  0
  8  9  2  0
  9 10  1  0
 10 11  1  0
 11 12  2  0
 12 13  1  0
 13 14  2  0
 14 15  1  0
 15 16  2  0
 10 17  2  0
 17 18  1  0
 18 19  1  0
 19 20  2  0
 19  2  1  0
 18  7  1  0
 16 11  1  0
  1 21  1  0
  1 22  1  0
  1 23  1  0
  5 24  1  0
  5 25  1  0
  8 26  1  0
  9 27  1  0
 12 28  1  0
 13 29  1  0
 14 30  1  0
 15 31  1  0
 16 32  1  0
 17 33  1  0
M  END
>  <UniqueID>  (28) 
26

>  <SMILES>  (28) 
Cn1c(C(N)=O)c2ccc(-c3ccccc3)cn2c1=O

>  <Energy>  (28) 
82.77224958982549

>  <Genealogy>  (28) 
Cn1c(C(N)=O)c2ccc(-c3ccccc3)cn2c1=O (3D coordinates assigned)
Cn1c(C(N)=O)c2ccc(-c3ccccc3)cn2c1=O (optimized conformer: 82.77224958982549 kcal/mol)

>  <smiles>  (28) 
Cn1c(C(N)=O)c2ccc(-c3ccccc3)cn2c1=O

>  <score_type>  (28) 
oracle

>  <origin>  (28) 
adg

>  <m_score__min__energy>  (28) 
-7.4400000000000004

>  <m_primary>  (28) 
energy

$$$$
28:0
     RDKit          3D

 32 34  0  0  1  0  0  0  0  0999 V2000
   60.7530   29.0360   48.6910 N   0  0  0  0  0  0  0  0  0  0  0  0
   60.1010   29.0060   47.7170 C   0  0  0  0  0  0  0  0  0  0  0  0
   59.2850   28.9720   46.5440 C   0  0  0  0  0  0  0  0  0  0  0  0
   59.2470   27.8400   45.8030 C   0  0  0  0  0  0  0  0  0  0  0  0
   58.5070   27.6670   44.6540 C   0  0  0  0  0  0  0  0  0  0  0  0
   57.7570   28.7750   44.2680 C   0  0  0  0  0  0  0  0  0  0  0  0
   57.0290   28.6280   43.1520 N   0  0  0  0  0  0  0  0  0  0  0  0
   56.2960   29.6740   42.7530 C   0  0  0  0  0  0  0  0  0  0  0  0
   56.2700   30.8230   43.4170 N   0  0  0  0  0  0  0  0  0  0  0  0
   57.0070   30.9650   44.5440 C   0  0  0  0  0  0  0  0  0  0  0  0
   56.9380   32.0690   45.1210 N   0  0  0  0  0  0  0  0  0  0  0  0
   57.4330   33.2990   44.6780 C   0  0  0  0  0  0  0  0  0  0  0  0
   58.3750   33.6290   45.8460 C   0  0  0  0  0  0  0  0  0  0  0  0
   59.5610   34.3260   45.5810 C   0  0  0  0  0  0  0  0  0  0  0  0
   60.4230   34.6120   46.6170 C   0  0  0  0  0  0  0  0  0  0  0  0
   60.0530   34.1850   47.8690 C   0  0  0  0  0  0  0  0  0  0  0  0
   58.8970   33.5030   48.1550 C   0  0  0  0  0  0  0  0  0  0  0  0
   58.0480   33.2210   47.1280 C   0  0  0  0  0  0  0  0  0  0  0  0
   57.7850   29.9420   45.0190 C   0  0  0  0  0  0  0  0  0  0  0  0
   58.5180   30.0990   46.1480 C   0  0  0  0  0  0  0  0  0  0  0  0
   59.8557   26.9902   46.1457 H   0  0  0  0  0  0  0  0  0  0  0  0
   58.5084   26.7256   44.0850 H   0  0  0  0  0  0  0  0  0  0  0  0
   57.0290   27.7240   42.6020 H   0  0  0  0  0  0  0  0  0  0  0  0
   55.6914   29.5779   41.8391 H   0  0  0  0  0  0  0  0  0  0  0  0
   57.9768   33.2038   43.7266 H   0  0  0  0  0  0  0  0  0  0  0  0
   56.6693   34.0609   44.4629 H   0  0  0  0  0  0  0  0  0  0  0  0
   59.8018   34.6420   44.5552 H   0  0  0  0  0  0  0  0  0  0  0  0
   61.3637   35.1569   46.4493 H   0  0  0  0  0  0  0  0  0  0  0  0
   60.7337   34.4061   48.7043 H   0  0  0  0  0  0  0  0  0  0  0  0
   58.6628   33.1930   49.1841 H   0  0  0  0  0  0  0  0  0  0  0  0
   57.1119   32.6746   47.3152 H   0  0  0  0  0  0  0  0  0  0  0  0
   58.5186   31.0384   46.7202 H   0  0  0  0  0  0  0  0  0  0  0  0
  1  2  3  0
  2  3  1  0
  3  4  2  0
  4  5  1  0
  5  6  2  0
  6  7  1  0
  7  8  1  0
  8  9  2  0
  9 10  1  0
 10 11  2  0
 11 12  1  0
 12 13  1  0
 13 14  2  0
 14 15  1  0
 15 16  2  0
 16 17  1  0
 17 18  2  0
 10 19  1  0
 19 20  2  0
 20  3  1  0
 19  6  1  0
 18 13  1  0
  4 21  1  0
  5 22  1  0
  7 23  1  0
  8 24  1  0
 12 25  1  0
 12 26  1  0
 14 27  1  0
 15 28  1  0
 16 29  1  0
 17 30  1  0
 18 31  1  0
 20 32  1  0
M  END
>  <smiles>  (29) 
N#Cc1ccc2[nH]cnc(=NCc3ccccc3)c2c1

>  <score_type>  (29) 
oracle

>  <origin>  (29) 
adg

>  <m_score__min__energy>  (29) 
-7.2000000000000002

>  <m_primary>  (29) 
energy

$$$$
29:0
     RDKit          3D

 57 60  0  0  0  0  0  0  0  0999 V2000
   55.8930   24.5940   45.3920 C   0  0  0  0  0  0  0  0  0  0  0  0
   55.8970   25.6290   46.3690 O   0  0  0  0  0  0  0  0  0  0  0  0
   56.8490   26.6580   46.4300 C   0  0  0  0  0  0  0  0  0  0  0  0
   56.7790   27.8010   45.6150 C   0  0  0  0  0  0  0  0  0  0  0  0
   57.7520   28.7980   45.7130 C   0  0  0  0  0  0  0  0  0  0  0  0
   58.8210   28.6740   46.6200 C   0  0  0  0  0  0  0  0  0  0  0  0
   59.8400   29.7540   46.7040 C   0  0  0  0  0  0  0  0  0  0  0  0
   60.8730   29.6750   45.9830 O   0  0  0  0  0  0  0  0  0  0  0  0
   59.6760   30.8810   47.5840 N   0  0  0  0  0  0  0  0  0  0  0  0
   60.7100   31.8550   47.8110 C   0  0  0  0  0  0  0  0  0  0  0  0
   61.8370   31.5270   48.5850 C   0  0  0  0  0  0  0  0  0  0  0  0
   62.8230   32.4900   48.8660 C   0  0  0  0  0  0  0  0  0  0  0  0
   64.0140   32.1320   49.6780 C   0  0  0  0  0  0  0  0  0  0  0  0
   65.2260   32.8300   49.5170 C   0  0  0  0  0  0  0  0  0  0  0  0
   66.3450   32.4920   50.2840 C   0  0  0  0  0  0  0  0  0  0  0  0
   66.2690   31.4550   51.2160 C   0  0  0  0  0  0  0  0  0  0  0  0
   65.0720   30.7550   51.3850 C   0  0  0  0  0  0  0  0  0  0  0  0
   63.9490   31.0890   50.6220 C   0  0  0  0  0  0  0  0  0  0  0  0
   62.6590   33.7950   48.3720 C   0  0  0  0  0  0  0  0  0  0  0  0
   61.5360   34.1300   47.6150 C   0  0  0  0  0  0  0  0  0  0  0  0
   60.5570   33.1700   47.3320 C   0  0  0  0  0  0  0  0  0  0  0  0
   59.4300   33.5210   46.5150 N   0  0  0  0  0  0  0  0  0  0  0  0
   59.6380   34.2340   45.2530 C   0  0  0  0  0  0  0  0  0  0  0  0
   58.7100   33.6720   44.1610 C   0  0  0  0  0  0  0  0  0  0  0  0
   57.3420   33.3290   44.6360 N   0  0  0  0  0  0  0  0  0  0  0  0
   57.0500   31.8940   44.4750 C   0  0  0  0  0  0  0  0  0  0  0  0
   57.0310   33.8010   46.0010 C   0  0  0  0  0  0  0  0  0  0  0  0
   58.0720   33.3290   47.0260 C   0  0  0  0  0  0  0  0  0  0  0  0
   58.8790   27.5300   47.4390 C   0  0  0  0  0  0  0  0  0  0  0  0
   57.9030   26.5350   47.3390 C   0  0  0  0  0  0  0  0  0  0  0  0
   55.8892   23.6155   45.8945 H   0  0  0  0  0  0  0  0  0  0  0  0
   54.9952   24.6868   44.7632 H   0  0  0  0  0  0  0  0  0  0  0  0
   56.7915   24.6798   44.7632 H   0  0  0  0  0  0  0  0  0  0  0  0
   55.9536   27.9108   44.8963 H   0  0  0  0  0  0  0  0  0  0  0  0
   57.6821   29.6906   45.0739 H   0  0  0  0  0  0  0  0  0  0  0  0
   58.7710   31.0330   48.0760 H   0  0  0  0  0  0  0  0  0  0  0  0
   61.9490   30.5048   48.9756 H   0  0  0  0  0  0  0  0  0  0  0  0
   65.2930   33.6466   48.7830 H   0  0  0  0  0  0  0  0  0  0  0  0
   67.2873   33.0442   50.1530 H   0  0  0  0  0  0  0  0  0  0  0  0
   67.1513   31.1894   51.8168 H   0  0  0  0  0  0  0  0  0  0  0  0
   65.0128   29.9389   52.1202 H   0  0  0  0  0  0  0  0  0  0  0  0
   63.0094   30.5339   50.7599 H   0  0  0  0  0  0  0  0  0  0  0  0
   63.4220   34.5586   48.5837 H   0  0  0  0  0  0  0  0  0  0  0  0
   61.4188   35.1565   47.2375 H   0  0  0  0  0  0  0  0  0  0  0  0
   59.4199   35.3021   45.3998 H   0  0  0  0  0  0  0  0  0  0  0  0
   60.6831   34.1021   44.9363 H   0  0  0  0  0  0  0  0  0  0  0  0
   58.6192   34.4256   43.3648 H   0  0  0  0  0  0  0  0  0  0  0  0
   59.1665   32.7339   43.8122 H   0  0  0  0  0  0  0  0  0  0  0  0
   56.9547   31.4258   45.4658 H   0  0  0  0  0  0  0  0  0  0  0  0
   56.1085   31.7715   43.9195 H   0  0  0  0  0  0  0  0  0  0  0  0
   57.8687   31.4133   43.9195 H   0  0  0  0  0  0  0  0  0  0  0  0
   57.0079   34.9008   45.9995 H   0  0  0  0  0  0  0  0  0  0  0  0
   56.0560   33.3820   46.2906 H   0  0  0  0  0  0  0  0  0  0  0  0
   57.9512   33.9064   47.9545 H   0  0  0  0  0  0  0  0  0  0  0  0
   57.9163   32.2572   47.2181 H   0  0  0  0  0  0  0  0  0  0  0  0
   59.6993   27.4187   48.1634 H   0  0  0  0  0  0  0  0  0  0  0  0
   57.9651   25.6453   47.9829 H   0  0  0  0  0  0  0  0  0  0  0  0
  1  2  1  0
  2  3  1  0
  3  4  2  0
  4  5  1  0
  5  6  2  0
  6  7  1  0
  7  8  2  0
  7  9  1  0
  9 10  1  0
 10 11  2  0
 11 12  1  0
 12 13  1  0
 13 14  2  0
 14 15  1  0
 15 16  2  0
 16 17  1  0
 17 18  2  0
 12 19  2  0
 19 20  1  0
 20 21  2  0
 21 22  1  0
 22 23  1  0
 23 24  1  0
 24 25  1  0
 25 26  1  0
 25 27  1  0
 27 28  1  0
  6 29  1  0
 29 30  2  0
 30  3  1  0
 21 10  1  0
 28 22  1  0
 18 13  1  0
  1 31  1  0
  1 32  1  0
  1 33  1  0
  4 34  1  0
  5 35  1  0
  9 36  1  0
 11 37  1  0
 14 38  1  0
 15 39  1  0
 16 40  1  0
 17 41  1  0
 18 42  1  0
 19 43  1  0
 20 44  1  0
 23 45  1  0
 23 46  1  0
 24 47  1  0
 24 48  1  0
 26 49  1  0
 26 50  1  0
 26 51  1  0
 27 52  1  0
 27 53  1  0
 28 54  1  0
 28 55  1  0
 29 56  1  0
 30 57  1  0
M  END
>  <UniqueID>  (30) 
27

>  <SMILES>  (30) 
COc1ccc(C(=O)Nc2cc(-c3ccccc3)ccc2N2CCN(C)CC2)cc1

>  <Energy>  (30) 
82.58494763713992

>  <Genealogy>  (30) 
COc1ccc(C(=O)Nc2cc(-c3ccccc3)ccc2N2CCN(C)CC2)cc1 (3D coordinates assigned)
COc1ccc(C(=O)Nc2cc(-c3ccccc3)ccc2N2CCN(C)CC2)cc1 (nonaromatic ring conformer: 82.58494763713992 kcal/mol)

>  <smiles>  (30) 
COc1ccc(C(=O)Nc2cc(-c3ccccc3)ccc2N2CCN(C)CC2)cc1

>  <score_type>  (30) 
oracle

>  <origin>  (30) 
adg

>  <m_score__min__energy>  (30) 
-8.3399999999999999

>  <m_primary>  (30) 
energy

$$$$
30:0
     RDKit          3D

 51 53  0  0  0  0  0  0  0  0999 V2000
   57.0140   21.5680   42.9990 C   0  0  0  0  0  0  0  0  0  0  0  0
   57.4510   22.5700   44.0550 C   0  0  0  0  0  0  0  0  0  0  0  0
   56.7000   23.7720   43.9100 O   0  0  0  0  0  0  0  0  0  0  0  0
   57.1610   25.0440   44.2790 C   0  0  0  0  0  0  0  0  0  0  0  0
   57.0450   25.5390   45.5920 C   0  0  0  0  0  0  0  0  0  0  0  0
   57.5200   26.8150   45.9080 C   0  0  0  0  0  0  0  0  0  0  0  0
   58.1020   27.6240   44.9220 C   0  0  0  0  0  0  0  0  0  0  0  0
   58.6020   28.9240   45.2790 N   0  0  0  0  0  0  0  0  0  0  0  0
   57.8740   30.1470   45.0840 C   0  0  0  0  0  0  0  0  0  0  0  0
   56.6360   30.1200   44.8470 O   0  0  0  0  0  0  0  0  0  0  0  0
   58.5710   31.4730   45.2600 C   0  0  1  0  0  0  0  0  0  0  0  0
   58.0110   32.5460   44.2930 C   0  0  0  0  0  0  0  0  0  0  0  0
   57.0910   33.5320   45.0120 C   0  0  0  0  0  0  0  0  0  0  0  0
   57.8240   34.2300   46.1760 C   0  0  0  0  0  0  0  0  0  0  0  0
   58.7750   33.3530   46.9120 N   0  0  0  0  0  0  0  0  0  0  0  0
   60.1920   33.6800   46.6440 C   0  0  0  0  0  0  0  0  0  0  0  0
   60.9640   33.7590   47.9380 C   0  0  0  0  0  0  0  0  0  0  0  0
   60.2740   33.7580   49.1620 C   0  0  0  0  0  0  0  0  0  0  0  0
   60.9730   33.8170   50.3700 C   0  0  0  0  0  0  0  0  0  0  0  0
   62.3680   33.8750   50.3700 C   0  0  0  0  0  0  0  0  0  0  0  0
   63.0670   33.8750   49.1620 C   0  0  0  0  0  0  0  0  0  0  0  0
   62.3770   33.8160   47.9440 C   0  0  0  0  0  0  0  0  0  0  0  0
   63.3090   33.8180   46.4510 Cl  0  0  0  0  0  0  0  0  0  0  0  0
   58.4890   31.9140   46.7410 C   0  0  0  0  0  0  0  0  0  0  0  0
   58.2360   27.1200   43.6160 C   0  0  0  0  0  0  0  0  0  0  0  0
   57.7620   25.8440   43.3010 C   0  0  0  0  0  0  0  0  0  0  0  0
   56.6205   20.6658   43.4901 H   0  0  0  0  0  0  0  0  0  0  0  0
   56.2293   22.0156   42.3713 H   0  0  0  0  0  0  0  0  0  0  0  0
   57.8759   21.2975   42.3713 H   0  0  0  0  0  0  0  0  0  0  0  0
   57.2768   22.1474   45.0555 H   0  0  0  0  0  0  0  0  0  0  0  0
   58.5216   22.7898   43.9306 H   0  0  0  0  0  0  0  0  0  0  0  0
   56.5788   24.9192   46.3720 H   0  0  0  0  0  0  0  0  0  0  0  0
   57.4364   27.1878   46.9395 H   0  0  0  0  0  0  0  0  0  0  0  0
   59.5140   28.9750   45.7880 H   0  0  0  0  0  0  0  0  0  0  0  0
   59.6327   31.3537   44.9982 H   0  0  0  0  0  0  0  0  0  0  0  0
   58.8518   33.1007   43.8510 H   0  0  0  0  0  0  0  0  0  0  0  0
   57.4239   32.0339   43.5164 H   0  0  0  0  0  0  0  0  0  0  0  0
   56.7497   34.2930   44.2948 H   0  0  0  0  0  0  0  0  0  0  0  0
   56.2356   32.9753   45.4223 H   0  0  0  0  0  0  0  0  0  0  0  0
   58.3865   35.0825   45.7676 H   0  0  0  0  0  0  0  0  0  0  0  0
   57.0521   34.5349   46.8979 H   0  0  0  0  0  0  0  0  0  0  0  0
   60.6307   32.8982   46.0066 H   0  0  0  0  0  0  0  0  0  0  0  0
   60.2449   34.6539   46.1353 H   0  0  0  0  0  0  0  0  0  0  0  0
   59.1751   33.7104   49.1690 H   0  0  0  0  0  0  0  0  0  0  0  0
   60.4234   33.8178   51.3229 H   0  0  0  0  0  0  0  0  0  0  0  0
   62.9164   33.9207   51.3225 H   0  0  0  0  0  0  0  0  0  0  0  0
   64.1660   33.9216   49.1662 H   0  0  0  0  0  0  0  0  0  0  0  0
   59.2211   31.3357   47.3237 H   0  0  0  0  0  0  0  0  0  0  0  0
   57.4627   31.7300   47.0915 H   0  0  0  0  0  0  0  0  0  0  0  0
   58.7161   27.7331   42.8390 H   0  0  0  0  0  0  0  0  0  0  0  0
   57.8624   25.4644   42.2735 H   0  0  0  0  0  0  0  0  0  0  0  0
  1  2  1  0
  2  3  1  0
  3  4  1  0
  4  5  2  0
  5  6  1  0
  6  7  2  0
  7  8  1  0
  8  9  1  0
  9 10  2  0
  9 11  1  0
 11 12  1  0
 12 13  1  0
 13 14  1  0
 14 15  1  0
 15 16  1  0
 16 17  1  0
 17 18  2  0
 18 19  1  0
 19 20  2  0
 20 21  1  0
 21 22  2  0
 22 23  1  0
 15 24  1  0
  7 25  1  0
 25 26  2  0
 26  4  1  0
 24 11  1  0
 22 17  1  0
  1 27  1  0
  1 28  1  0
  1 29  1  0
  2 30  1  0
  2 31  1  0
  5 32  1  0
  6 33  1  0
  8 34  1  0
 11 35  1  6
 12 36  1  0
 12 37  1  0
 13 38  1  0
 13 39  1  0
 14 40  1  0
 14 41  1  0
 16 42  1  0
 16 43  1  0
 18 44  1  0
 19 45  1  0
 20 46  1  0
 21 47  1  0
 24 48  1  0
 24 49  1  0
 25 50  1  0
 26 51  1  0
M  END
>  <UniqueID>  (31) 
28

>  <SMILES>  (31) 
CCOc1ccc(NC(=O)[C@H]2CCCN(Cc3ccccc3Cl)C2)cc1

>  <Energy>  (31) 
61.3216335255515

>  <Genealogy>  (31) 
CCOc1ccc(NC(=O)[C@H]2CCCN(Cc3ccccc3Cl)C2)cc1 (chirality)
CCOc1ccc(NC(=O)[C@H]2CCCN(Cc3ccccc3Cl)C2)cc1 (3D coordinates assigned)
CCOc1ccc(NC(=O)[C@H]2CCCN(Cc3ccccc3Cl)C2)cc1 (nonaromatic ring conformer: 61.3216335255515 kcal/mol)

>  <smiles>  (31) 
CCOc1ccc(NC(=O)C2CCCN(Cc3ccccc3Cl)C2)cc1

>  <score_type>  (31) 
oracle

>  <origin>  (31) 
adg

>  <m_score__min__energy>  (31) 
-8.4900000000000002

>  <m_primary>  (31) 
energy

$$$$
31:0
     RDKit          3D

 41 42  0  0  0  0  0  0  0  0999 V2000
   58.5380   29.0700   47.2460 C   0  0  0  0  0  0  0  0  0  0  0  0
   58.3830   30.2740   46.5020 O   0  0  0  0  0  0  0  0  0  0  0  0
   57.8100   30.3540   45.2220 C   0  0  0  0  0  0  0  0  0  0  0  0
   57.0060   29.3160   44.7040 C   0  0  0  0  0  0  0  0  0  0  0  0
   56.4410   29.4280   43.4310 C   0  0  0  0  0  0  0  0  0  0  0  0
   56.6650   30.5700   42.6620 C   0  0  0  0  0  0  0  0  0  0  0  0
   57.4590   31.6050   43.1610 C   0  0  0  0  0  0  0  0  0  0  0  0
   58.0440   31.5020   44.4350 C   0  0  0  0  0  0  0  0  0  0  0  0
   58.8830   32.6460   44.9480 C   0  0  0  0  0  0  0  0  0  0  0  0
   58.0730   33.5520   45.7700 N   0  0  0  0  0  0  0  0  0  0  0  0
   56.9060   34.2360   45.2090 C   0  0  0  0  0  0  0  0  0  0  0  0
   58.4340   33.7830   47.1410 C   0  0  0  0  0  0  0  0  0  0  0  0
   57.9440   33.0590   48.0480 O   0  0  0  0  0  0  0  0  0  0  0  0
   59.4620   34.8080   47.4910 C   0  0  0  0  0  0  0  0  0  0  0  0
   60.3870   34.2320   48.9530 S   0  0  0  0  0  0  0  0  0  0  0  0
   61.1550   32.8520   48.1000 C   0  0  0  0  0  0  0  0  0  0  0  0
   60.4880   31.7460   47.7220 N   0  0  0  0  0  0  0  0  0  0  0  0
   61.4060   30.9620   47.1250 C   0  0  0  0  0  0  0  0  0  0  0  0
   62.6270   31.6100   47.1500 C   0  0  0  0  0  0  0  0  0  0  0  0
   62.4600   32.7960   47.7690 N   0  0  0  0  0  0  0  0  0  0  0  0
   63.4800   33.8120   48.0040 C   0  0  0  0  0  0  0  0  0  0  0  0
   58.5087   29.2974   48.3218 H   0  0  0  0  0  0  0  0  0  0  0  0
   57.7217   28.3765   46.9955 H   0  0  0  0  0  0  0  0  0  0  0  0
   59.5033   28.6059   46.9955 H   0  0  0  0  0  0  0  0  0  0  0  0
   56.8232   28.4137   45.3060 H   0  0  0  0  0  0  0  0  0  0  0  0
   55.8177   28.6132   43.0341 H   0  0  0  0  0  0  0  0  0  0  0  0
   56.2158   30.6555   41.6615 H   0  0  0  0  0  0  0  0  0  0  0  0
   57.6276   32.5063   42.5533 H   0  0  0  0  0  0  0  0  0  0  0  0
   59.7073   32.2455   45.5564 H   0  0  0  0  0  0  0  0  0  0  0  0
   59.2814   33.2066   44.0895 H   0  0  0  0  0  0  0  0  0  0  0  0
   56.2710   34.6082   46.0265 H   0  0  0  0  0  0  0  0  0  0  0  0
   57.2393   35.0817   44.5895 H   0  0  0  0  0  0  0  0  0  0  0  0
   56.3310   33.5320   44.5895 H   0  0  0  0  0  0  0  0  0  0  0  0
   60.1527   34.9434   46.6456 H   0  0  0  0  0  0  0  0  0  0  0  0
   58.9738   35.7689   47.7108 H   0  0  0  0  0  0  0  0  0  0  0  0
   59.4740   31.5370   47.8620 H   0  0  0  0  0  0  0  0  0  0  0  0
   61.2157   29.9700   46.6895 H   0  0  0  0  0  0  0  0  0  0  0  0
   63.5708   31.2248   46.7366 H   0  0  0  0  0  0  0  0  0  0  0  0
   63.6180   33.9495   49.0866 H   0  0  0  0  0  0  0  0  0  0  0  0
   64.4294   33.4900   47.5513 H   0  0  0  0  0  0  0  0  0  0  0  0
   63.1617   34.7627   47.5513 H   0  0  0  0  0  0  0  0  0  0  0  0
  1  2  1  0
  2  3  1  0
  3  4  2  0
  4  5  1  0
  5  6  2  0
  6  7  1  0
  7  8  2  0
  8  9  1  0
  9 10  1  0
 10 11  1  0
 10 12  1  0
 12 13  2  0
 12 14  1  0
 14 15  1  0
 15 16  1  0
 16 17  2  0
 17 18  1  0
 18 19  2  0
 19 20  1  0
 20 21  1  0
  8  3  1  0
 20 16  1  0
  1 22  1  0
  1 23  1  0
  1 24  1  0
  4 25  1  0
  5 26  1  0
  6 27  1  0
  7 28  1  0
  9 29  1  0
  9 30  1  0
 11 31  1  0
 11 32  1  0
 11 33  1  0
 14 34  1  0
 14 35  1  0
 17 36  1  0
 18 37  1  0
 19 38  1  0
 21 39  1  0
 21 40  1  0
 21 41  1  0
M  CHG  1  17   1
M  END
>  <UniqueID>  (32) 
29

>  <SMILES>  (32) 
COc1ccccc1CN(C)C(=O)CSc1[nH+]ccn1C

>  <Energy>  (32) 
67.2660940271237

>  <Genealogy>  (32) 
COc1ccccc1CN(C)C(=O)CSc1[nH+]ccn1C (protonated)
COc1ccccc1CN(C)C(=O)CSc1[nH+]ccn1C (3D coordinates assigned)
COc1ccccc1CN(C)C(=O)CSc1[nH+]ccn1C (optimized conformer: 67.2660940271237 kcal/mol)

>  <smiles>  (32) 
COc1ccccc1CN(C)C(=O)CSc1nccn1C

>  <score_type>  (32) 
oracle

>  <origin>  (32) 
adg

>  <m_score__min__energy>  (32) 
-4.7400000000000002

>  <m_primary>  (32) 
energy

$$$$
32:0
     RDKit          3D

 55 58  0  0  0  0  0  0  0  0999 V2000
   55.3030   29.7150   43.6820 C   0  0  0  0  0  0  0  0  0  0  0  0
   56.5220   29.3710   42.9480 N   0  0  0  0  0  0  0  0  0  0  0  0
   57.7370   29.5970   43.7590 C   0  0  0  0  0  0  0  0  0  0  0  0
   58.0440   28.4230   44.6790 C   0  0  0  0  0  0  0  0  0  0  0  0
   57.5770   27.1870   44.3340 N   0  0  0  0  0  0  0  0  0  0  0  0
   57.8640   26.0800   45.0760 C   0  0  0  0  0  0  0  0  0  0  0  0
   57.3700   24.7400   44.6800 C   0  0  0  0  0  0  0  0  0  0  0  0
   57.0130   24.4610   43.3500 C   0  0  0  0  0  0  0  0  0  0  0  0
   56.5380   23.1950   42.9940 C   0  0  0  0  0  0  0  0  0  0  0  0
   56.4030   22.1880   43.9550 C   0  0  0  0  0  0  0  0  0  0  0  0
   55.9240   20.9350   43.5480 O   0  0  0  0  0  0  0  0  0  0  0  0
   55.9120   19.7720   44.3700 C   0  0  0  0  0  0  0  0  0  0  0  0
   56.7520   22.4650   45.2890 C   0  0  0  0  0  0  0  0  0  0  0  0
   57.2250   23.7310   45.6470 C   0  0  0  0  0  0  0  0  0  0  0  0
   58.6300   26.2040   46.1890 N   0  0  0  0  0  0  0  0  0  0  0  0
   59.0940   27.4050   46.6080 C   0  0  0  0  0  0  0  0  0  0  0  0
   58.7660   28.5740   45.8900 C   0  0  0  0  0  0  0  0  0  0  0  0
   59.2590   29.9240   46.3790 C   0  0  0  0  0  0  0  0  0  0  0  0
   59.6450   29.8810   47.8030 N   0  0  0  0  0  0  0  0  0  0  0  0
   60.1080   31.1930   48.3150 C   0  0  0  0  0  0  0  0  0  0  0  0
   59.6530   32.3730   47.4810 C   0  0  0  0  0  0  0  0  0  0  0  0
   60.5870   33.1370   46.7550 C   0  0  0  0  0  0  0  0  0  0  0  0
   60.1620   34.2240   45.9840 C   0  0  0  0  0  0  0  0  0  0  0  0
   58.8050   34.5600   45.9340 C   0  0  0  0  0  0  0  0  0  0  0  0
   57.8720   33.8130   46.6600 C   0  0  0  0  0  0  0  0  0  0  0  0
   58.2920   32.7240   47.4320 C   0  0  0  0  0  0  0  0  0  0  0  0
   60.5990   28.7920   48.0620 C   0  0  0  0  0  0  0  0  0  0  0  0
   59.8810   27.4560   47.8890 C   0  0  0  0  0  0  0  0  0  0  0  0
   55.4981   29.6599   44.7632 H   0  0  0  0  0  0  0  0  0  0  0  0
   54.9914   30.7362   43.4172 H   0  0  0  0  0  0  0  0  0  0  0  0
   54.5035   29.0074   43.4172 H   0  0  0  0  0  0  0  0  0  0  0  0
   56.4470   28.3780   42.6250 H   0  0  0  0  0  0  0  0  0  0  0  0
   58.5908   29.7489   43.0823 H   0  0  0  0  0  0  0  0  0  0  0  0
   57.5615   30.4815   44.3890 H   0  0  0  0  0  0  0  0  0  0  0  0
   57.0210   27.0830   43.4580 H   0  0  0  0  0  0  0  0  0  0  0  0
   57.1079   25.2441   42.5834 H   0  0  0  0  0  0  0  0  0  0  0  0
   56.2678   22.9891   41.9478 H   0  0  0  0  0  0  0  0  0  0  0  0
   55.9151   20.0711   45.4285 H   0  0  0  0  0  0  0  0  0  0  0  0
   55.0077   19.1826   44.1582 H   0  0  0  0  0  0  0  0  0  0  0  0
   56.8039   19.1640   44.1582 H   0  0  0  0  0  0  0  0  0  0  0  0
   56.6523   21.6815   46.0546 H   0  0  0  0  0  0  0  0  0  0  0  0
   57.4860   23.9390   46.6951 H   0  0  0  0  0  0  0  0  0  0  0  0
   60.1332   30.2221   45.7815 H   0  0  0  0  0  0  0  0  0  0  0  0
   58.4395   30.6493   46.2676 H   0  0  0  0  0  0  0  0  0  0  0  0
   59.7218   31.3218   49.3369 H   0  0  0  0  0  0  0  0  0  0  0  0
   61.2073   31.1804   48.2772 H   0  0  0  0  0  0  0  0  0  0  0  0
   61.6553   32.8779   46.7944 H   0  0  0  0  0  0  0  0  0  0  0  0
   60.8957   34.8152   45.4164 H   0  0  0  0  0  0  0  0  0  0  0  0
   58.4717   35.4121   45.3234 H   0  0  0  0  0  0  0  0  0  0  0  0
   56.8060   34.0819   46.6242 H   0  0  0  0  0  0  0  0  0  0  0  0
   57.5548   32.1402   48.0027 H   0  0  0  0  0  0  0  0  0  0  0  0
   61.4356   28.8567   47.3507 H   0  0  0  0  0  0  0  0  0  0  0  0
   60.9912   28.8751   49.0863 H   0  0  0  0  0  0  0  0  0  0  0  0
   60.6284   26.6490   47.8798 H   0  0  0  0  0  0  0  0  0  0  0  0
   59.1781   27.3353   48.7265 H   0  0  0  0  0  0  0  0  0  0  0  0
  1  2  1  0
  2  3  1  0
  3  4  1  0
  4  5  2  0
  5  6  1  0
  6  7  1  0
  7  8  2  0
  8  9  1  0
  9 10  2  0
 10 11  1  0
 11 12  1  0
 10 13  1  0
 13 14  2  0
  6 15  2  0
 15 16  1  0
 16 17  2  0
 17 18  1  0
 18 19  1  0
 19 20  1  0
 20 21  1  0
 21 22  2  0
 22 23  1  0
 23 24  2  0
 24 25  1  0
 25 26  2  0
 19 27  1  0
 27 28  1  0
 17  4  1  0
 26 21  1  0
 14  7  1  0
 28 16  1  0
  1 29  1  0
  1 30  1  0
  1 31  1  0
  2 32  1  0
  3 33  1  0
  3 34  1  0
  5 35  1  0
  8 36  1  0
  9 37  1  0
 12 38  1  0
 12 39  1  0
 12 40  1  0
 13 41  1  0
 14 42  1  0
 18 43  1  0
 18 44  1  0
 20 45  1  0
 20 46  1  0
 22 47  1  0
 23 48  1  0
 24 49  1  0
 25 50  1  0
 26 51  1  0
 27 52  1  0
 27 53  1  0
 28 54  1  0
 28 55  1  0
M  CHG  1   5   1
M  END
>  <UniqueID>  (33) 
30

>  <SMILES>  (33) 
CNCc1[nH+]c(-c2ccc(OC)cc2)nc2c1CN(Cc1ccccc1)CC2

>  <Energy>  (33) 
72.11224781548594

>  <Genealogy>  (33) 
CNCc1[nH+]c(-c2ccc(OC)cc2)nc2c1CN(Cc1ccccc1)CC2 (protonated)
CNCc1[nH+]c(-c2ccc(OC)cc2)nc2c1CN(Cc1ccccc1)CC2 (3D coordinates assigned)
CNCc1[nH+]c(-c2ccc(OC)cc2)nc2c1CN(Cc1ccccc1)CC2 (nonaromatic ring conformer: 72.11224781548594 kcal/mol)

>  <smiles>  (33) 
CNCc1nc(-c2ccc(OC)cc2)nc2c1CN(Cc1ccccc1)CC2

>  <score_type>  (33) 
oracle

>  <origin>  (33) 
adg

>  <m_score__min__energy>  (33) 
-7.6200000000000001

>  <m_primary>  (33) 
energy

$$$$
33:0
     RDKit          3D

 35 37  0  0  0  0  0  0  0  0999 V2000
   59.0350   35.7608   46.3693 H   0  0  0  0  0  0  0  0  0  0  0  0
   59.1730   34.7430   46.7630 C   0  0  0  0  0  0  0  0  0  0  0  0
   60.0260   34.5210   47.8430 C   0  0  0  0  0  0  0  0  0  0  0  0
   60.5652   35.3602   48.3066 H   0  0  0  0  0  0  0  0  0  0  0  0
   60.1890   33.2240   48.3300 C   0  0  0  0  0  0  0  0  0  0  0  0
   60.8599   33.0387   49.1818 H   0  0  0  0  0  0  0  0  0  0  0  0
   59.5210   32.1870   47.7550 N   0  0  0  0  0  0  0  0  0  0  0  0
   59.6680   31.2290   48.1470 H   0  0  0  0  0  0  0  0  0  0  0  0
   58.6780   32.3750   46.6950 C   0  0  0  0  0  0  0  0  0  0  0  0
   57.9690   31.2260   46.0930 C   0  0  0  0  0  0  0  0  0  0  0  0
   58.1870   29.9400   46.4540 N   0  0  0  0  0  0  0  0  0  0  0  0
   57.3340   29.2810   45.6440 C   0  0  0  0  0  0  0  0  0  0  0  0
   57.1950   27.9900   45.6280 N   0  0  0  0  0  0  0  0  0  0  0  0
   58.1260   27.1010   44.9430 C   0  0  0  0  0  0  0  0  0  0  0  0
   58.0484   26.2446   45.6290 H   0  0  0  0  0  0  0  0  0  0  0  0
   58.1270   27.2660   43.4340 C   0  0  0  0  0  0  0  0  0  0  0  0
   58.3110   26.3968   42.7854 H   0  0  0  0  0  0  0  0  0  0  0  0
   57.4188   27.6674   42.6942 H   0  0  0  0  0  0  0  0  0  0  0  0
   59.2600   27.8480   44.2670 C   0  0  0  0  0  0  0  0  0  0  0  0
   60.2635   27.3998   44.2205 H   0  0  0  0  0  0  0  0  0  0  0  0
   59.7108   28.8451   44.3789 H   0  0  0  0  0  0  0  0  0  0  0  0
   56.6410   30.1150   44.8500 N   0  0  0  0  0  0  0  0  0  0  0  0
   55.6640   29.7710   43.8190 C   0  0  0  0  0  0  0  0  0  0  0  0
   54.8062   30.4554   43.8946 H   0  0  0  0  0  0  0  0  0  0  0  0
   55.3439   28.7302   43.9751 H   0  0  0  0  0  0  0  0  0  0  0  0
   56.2750   29.8870   42.4170 C   0  0  0  0  0  0  0  0  0  0  0  0
   55.4670   29.8307   41.6727 H   0  0  0  0  0  0  0  0  0  0  0  0
   56.9925   29.0627   42.2921 H   0  0  0  0  0  0  0  0  0  0  0  0
   57.0310   31.2000   42.2240 C   0  0  0  0  0  0  0  0  0  0  0  0
   57.2779   31.6288   43.2064 H   0  0  0  0  0  0  0  0  0  0  0  0
   57.9581   31.0103   41.6633 H   0  0  0  0  0  0  0  0  0  0  0  0
   56.4014   31.9066   41.6633 H   0  0  0  0  0  0  0  0  0  0  0  0
   57.0380   31.3450   45.1200 N   0  0  0  0  0  0  0  0  0  0  0  0
   58.4950   33.6710   46.1830 C   0  0  0  0  0  0  0  0  0  0  0  0
   57.8211   33.8389   45.3300 H   0  0  0  0  0  0  0  0  0  0  0  0
  1  2  1  0
  2  3  2  0
  3  4  1  0
  3  5  1  0
  5  6  1  0
  5  7  2  0
  7  8  1  0
  7  9  1  0
  9 10  1  0
 10 11  2  0
 11 12  1  0
 12 13  2  0
 13 14  1  0
 14 15  1  0
 14 16  1  0
 16 17  1  0
 16 18  1  0
 16 19  1  0
 19 20  1  0
 19 21  1  0
 12 22  1  0
 22 23  1  0
 23 24  1  0
 23 25  1  0
 23 26  1  0
 26 27  1  0
 26 28  1  0
 26 29  1  0
 29 30  1  0
 29 31  1  0
 29 32  1  0
 22 33  1  0
  9 34  2  0
 34 35  1  0
 34  2  1  0
 33 10  1  0
 19 14  1  0
M  CHG  2   7   1  33  -1
M  END
>  <UniqueID>  (34) 
31

>  <SMILES>  (34) 
CCCn1[n-]c(-c2cccc[nH+]2)n/c1=N\C1CC1

>  <Energy>  (34) 
328.28592285947116

>  <Genealogy>  (34) 
CCCn1[n-]c(-c2cccc[nH+]2)nc1=NC1CC1 (protonated)
CCCn1[n-]c(-c2cccc[nH+]2)n/c1=N\C1CC1 (cis-trans isomerization)
CCCn1[n-]c(-c2cccc[nH+]2)n/c1=N\C1CC1 (3D coordinates assigned)
CCCn1[n-]c(-c2cccc[nH+]2)n/c1=N\C1CC1 (nonaromatic ring conformer: 328.28592285947116 kcal/mol)

>  <smiles>  (34) 
CCCn1[nH]c(-c2ccccn2)nc1=NC1CC1

>  <score_type>  (34) 
oracle

>  <origin>  (34) 
adg

>  <m_score__min__energy>  (34) 
-5.8600000000000003

>  <m_primary>  (34) 
energy

$$$$
34:0
     RDKit          3D

 51 53  0  0  0  0  0  0  0  0999 V2000
   57.7750   32.0570   43.1630 C   0  0  0  0  0  0  0  0  0  0  0  0
   57.1160   32.0190   44.5370 C   0  0  0  0  0  0  0  0  0  0  0  0
   56.8850   30.6710   44.9500 O   0  0  0  0  0  0  0  0  0  0  0  0
   57.8780   29.7010   45.1690 C   0  0  0  0  0  0  0  0  0  0  0  0
   58.2410   28.7510   44.1940 C   0  0  0  0  0  0  0  0  0  0  0  0
   59.2270   27.8020   44.4700 C   0  0  0  0  0  0  0  0  0  0  0  0
   59.8630   27.7880   45.7120 C   0  0  0  0  0  0  0  0  0  0  0  0
   59.5230   28.7350   46.6910 C   0  0  0  0  0  0  0  0  0  0  0  0
   60.1870   28.6860   48.0450 C   0  0  0  0  0  0  0  0  0  0  0  0
   60.6180   30.0310   48.4610 N   0  0  0  0  0  0  0  0  0  0  0  0
   61.4810   30.6740   47.4410 C   0  0  0  0  0  0  0  0  0  0  0  0
   61.8280   32.1860   47.6930 C   0  0  0  0  0  0  0  0  0  0  0  0
   60.6580   33.0510   47.1430 C   0  0  0  0  0  0  0  0  0  0  0  0
   60.7650   33.8820   46.0000 C   0  0  0  0  0  0  0  0  0  0  0  0
   59.6740   34.6340   45.5540 C   0  0  0  0  0  0  0  0  0  0  0  0
   58.4560   34.5770   46.2270 C   0  0  0  0  0  0  0  0  0  0  0  0
   58.3220   33.7630   47.3490 C   0  0  0  0  0  0  0  0  0  0  0  0
   59.4060   33.0080   47.8020 C   0  0  0  0  0  0  0  0  0  0  0  0
   63.1400   32.6760   47.0420 C   0  0  0  0  0  0  0  0  0  0  0  0
   63.5660   33.8880   47.8640 C   0  0  0  0  0  0  0  0  0  0  0  0
   62.9700   33.6940   49.2580 C   0  0  0  0  0  0  0  0  0  0  0  0
   62.1230   32.4260   49.1910 C   0  0  0  0  0  0  0  0  0  0  0  0
   58.5170   29.6790   46.4170 C   0  0  0  0  0  0  0  0  0  0  0  0
   58.1550   30.5830   47.3630 F   0  0  0  0  0  0  0  0  0  0  0  0
   58.8668   32.1200   43.2816 H   0  0  0  0  0  0  0  0  0  0  0  0
   57.5186   31.1426   42.6079 H   0  0  0  0  0  0  0  0  0  0  0  0
   57.4152   32.9359   42.6079 H   0  0  0  0  0  0  0  0  0  0  0  0
   57.7746   32.5123   45.2670 H   0  0  0  0  0  0  0  0  0  0  0  0
   56.1497   32.5416   44.4800 H   0  0  0  0  0  0  0  0  0  0  0  0
   57.7458   28.7570   43.2118 H   0  0  0  0  0  0  0  0  0  0  0  0
   59.5039   27.0618   43.7048 H   0  0  0  0  0  0  0  0  0  0  0  0
   60.6335   27.0323   45.9247 H   0  0  0  0  0  0  0  0  0  0  0  0
   59.4736   28.2908   48.7832 H   0  0  0  0  0  0  0  0  0  0  0  0
   61.0710   28.0344   47.9825 H   0  0  0  0  0  0  0  0  0  0  0  0
   61.0770   29.9870   49.3980 H   0  0  0  0  0  0  0  0  0  0  0  0
   59.7590   30.6180   48.5790 H   0  0  0  0  0  0  0  0  0  0  0  0
   62.4265   30.1136   47.3972 H   0  0  0  0  0  0  0  0  0  0  0  0
   60.9039   30.6521   46.5048 H   0  0  0  0  0  0  0  0  0  0  0  0
   61.7196   33.9361   45.4562 H   0  0  0  0  0  0  0  0  0  0  0  0
   59.7783   35.2747   44.6660 H   0  0  0  0  0  0  0  0  0  0  0  0
   57.6021   35.1734   45.8732 H   0  0  0  0  0  0  0  0  0  0  0  0
   57.3598   33.7146   47.8798 H   0  0  0  0  0  0  0  0  0  0  0  0
   59.2845   32.3675   48.6880 H   0  0  0  0  0  0  0  0  0  0  0  0
   63.9090   31.8907   47.0857 H   0  0  0  0  0  0  0  0  0  0  0  0
   63.0031   32.9272   45.9798 H   0  0  0  0  0  0  0  0  0  0  0  0
   64.6631   33.9412   47.9232 H   0  0  0  0  0  0  0  0  0  0  0  0
   63.2142   34.8243   47.4063 H   0  0  0  0  0  0  0  0  0  0  0  0
   63.7719   33.5772   50.0019 H   0  0  0  0  0  0  0  0  0  0  0  0
   62.3653   34.5625   49.5579 H   0  0  0  0  0  0  0  0  0  0  0  0
   62.6770   31.5742   49.6122 H   0  0  0  0  0  0  0  0  0  0  0  0
   61.1946   32.5319   49.7714 H   0  0  0  0  0  0  0  0  0  0  0  0
  1  2  1  0
  2  3  1  0
  3  4  1  0
  4  5  2  0
  5  6  1  0
  6  7  2  0
  7  8  1  0
  8  9  1  0
  9 10  1  0
 10 11  1  0
 11 12  1  0
 12 13  1  0
 13 14  2  0
 14 15  1  0
 15 16  2  0
 16 17  1  0
 17 18  2  0
 12 19  1  0
 19 20  1  0
 20 21  1  0
 21 22  1  0
  8 23  2  0
 23 24  1  0
 23  4  1  0
 22 12  1  0
 18 13  1  0
  1 25  1  0
  1 26  1  0
  1 27  1  0
  2 28  1  0
  2 29  1  0
  5 30  1  0
  6 31  1  0
  7 32  1  0
  9 33  1  0
  9 34  1  0
 10 35  1  0
 10 36  1  0
 11 37  1  0
 11 38  1  0
 14 39  1  0
 15 40  1  0
 16 41  1  0
 17 42  1  0
 18 43  1  0
 19 44  1  0
 19 45  1  0
 20 46  1  0
 20 47  1  0
 21 48  1  0
 21 49  1  0
 22 50  1  0
 22 51  1  0
M  CHG  1  10   1
M  END
>  <UniqueID>  (35) 
32

>  <SMILES>  (35) 
CCOc1cccc(C[NH2+]CC2(c3ccccc3)CCCC2)c1F

>  <Energy>  (35) 
65.70171877592529

>  <Genealogy>  (35) 
CCOc1cccc(C[NH2+]CC2(c3ccccc3)CCCC2)c1F (protonated)
CCOc1cccc(C[NH2+]CC2(c3ccccc3)CCCC2)c1F (3D coordinates assigned)
CCOc1cccc(C[NH2+]CC2(c3ccccc3)CCCC2)c1F (nonaromatic ring conformer: 65.70171877592529 kcal/mol)

>  <smiles>  (35) 
CCOc1cccc(CNCC2(c3ccccc3)CCCC2)c1F

>  <score_type>  (35) 
oracle

>  <origin>  (35) 
adg

>  <m_score__min__energy>  (35) 
-6.5300000000000002

>  <m_primary>  (35) 
energy

$$$$
35:0
     RDKit          3D

 54 56  0  0  0  0  0  0  0  0999 V2000
   56.6400   30.3370   43.3320 C   0  0  0  0  0  0  0  0  0  0  0  0
   56.4350   30.9720   44.5890 O   0  0  0  0  0  0  0  0  0  0  0  0
   57.3920   31.7630   45.2420 C   0  0  0  0  0  0  0  0  0  0  0  0
   57.1970   33.1350   45.4880 C   0  0  0  0  0  0  0  0  0  0  0  0
   58.1900   33.8850   46.1250 C   0  0  0  0  0  0  0  0  0  0  0  0
   59.3920   33.2800   46.5260 C   0  0  0  0  0  0  0  0  0  0  0  0
   60.4720   34.1010   47.1910 C   0  0  0  0  0  0  0  0  0  0  0  0
   61.7840   34.1440   46.3770 C   0  0  0  0  0  0  0  0  0  0  0  0
   62.9900   34.0050   47.2290 N   0  0  0  0  0  0  0  0  0  0  0  0
   63.6880   32.7200   46.9540 C   0  0  0  0  0  0  0  0  0  0  0  0
   63.2090   31.6040   47.8950 C   0  0  0  0  0  0  0  0  0  0  0  0
   63.5050   31.9210   49.3180 N   0  0  0  0  0  0  0  0  0  0  0  0
   62.6340   31.1870   50.2790 C   0  0  0  0  0  0  0  0  0  0  0  0
   61.1420   31.4780   50.1610 C   0  0  0  0  0  0  0  0  0  0  0  0
   60.6230   32.6540   50.7370 C   0  0  0  0  0  0  0  0  0  0  0  0
   59.2610   32.9450   50.6640 C   0  0  0  0  0  0  0  0  0  0  0  0
   58.3990   32.0840   49.9910 C   0  0  0  0  0  0  0  0  0  0  0  0
   58.8990   30.9380   49.3700 C   0  0  0  0  0  0  0  0  0  0  0  0
   60.2740   30.6320   49.4300 C   0  0  0  0  0  0  0  0  0  0  0  0
   60.7990   29.5120   48.7680 O   0  0  0  0  0  0  0  0  0  0  0  0
   60.0590   28.6640   47.8970 C   0  0  0  0  0  0  0  0  0  0  0  0
   63.5970   33.3800   49.5880 C   0  0  0  0  0  0  0  0  0  0  0  0
   62.6750   34.1960   48.6690 C   0  0  0  0  0  0  0  0  0  0  0  0
   59.5720   31.9040   46.3070 C   0  0  0  0  0  0  0  0  0  0  0  0
   58.5820   31.1570   45.6610 C   0  0  0  0  0  0  0  0  0  0  0  0
   56.9742   29.3017   43.4944 H   0  0  0  0  0  0  0  0  0  0  0  0
   55.6974   30.3333   42.7650 H   0  0  0  0  0  0  0  0  0  0  0  0
   57.4068   30.8852   42.7650 H   0  0  0  0  0  0  0  0  0  0  0  0
   56.2593   33.6192   45.1777 H   0  0  0  0  0  0  0  0  0  0  0  0
   58.0286   34.9567   46.3134 H   0  0  0  0  0  0  0  0  0  0  0  0
   60.1033   35.1297   47.3164 H   0  0  0  0  0  0  0  0  0  0  0  0
   60.6991   33.6259   48.1568 H   0  0  0  0  0  0  0  0  0  0  0  0
   61.7723   33.3216   45.6466 H   0  0  0  0  0  0  0  0  0  0  0  0
   61.8370   35.1254   45.8831 H   0  0  0  0  0  0  0  0  0  0  0  0
   63.4885   32.4207   45.9145 H   0  0  0  0  0  0  0  0  0  0  0  0
   64.7650   32.8710   47.1193 H   0  0  0  0  0  0  0  0  0  0  0  0
   62.1226   31.4788   47.7760 H   0  0  0  0  0  0  0  0  0  0  0  0
   63.7430   30.6793   47.6309 H   0  0  0  0  0  0  0  0  0  0  0  0
   64.4700   31.5470   49.4950 H   0  0  0  0  0  0  0  0  0  0  0  0
   62.7836   30.1092   50.1180 H   0  0  0  0  0  0  0  0  0  0  0  0
   62.9318   31.5291   51.2812 H   0  0  0  0  0  0  0  0  0  0  0  0
   61.3006   33.3517   51.2509 H   0  0  0  0  0  0  0  0  0  0  0  0
   58.8676   33.8559   51.1388 H   0  0  0  0  0  0  0  0  0  0  0  0
   57.3226   32.3068   49.9484 H   0  0  0  0  0  0  0  0  0  0  0  0
   58.2144   30.2680   48.8293 H   0  0  0  0  0  0  0  0  0  0  0  0
   59.4510   27.9673   48.4928 H   0  0  0  0  0  0  0  0  0  0  0  0
   59.4003   29.2752   47.2625 H   0  0  0  0  0  0  0  0  0  0  0  0
   60.7537   28.0941   47.2625 H   0  0  0  0  0  0  0  0  0  0  0  0
   63.3108   33.5661   50.6337 H   0  0  0  0  0  0  0  0  0  0  0  0
   64.6331   33.6958   49.3960 H   0  0  0  0  0  0  0  0  0  0  0  0
   61.6351   33.8846   48.8466 H   0  0  0  0  0  0  0  0  0  0  0  0
   62.8255   35.2598   48.9050 H   0  0  0  0  0  0  0  0  0  0  0  0
   60.4959   31.4120   46.6452 H   0  0  0  0  0  0  0  0  0  0  0  0
   58.7399   30.0835   45.4805 H   0  0  0  0  0  0  0  0  0  0  0  0
  1  2  1  0
  2  3  1  0
  3  4  2  0
  4  5  1  0
  5  6  2  0
  6  7  1  0
  7  8  1  0
  8  9  1  0
  9 10  1  0
 10 11  1  0
 11 12  1  0
 12 13  1  0
 13 14  1  0
 14 15  2  0
 15 16  1  0
 16 17  2  0
 17 18  1  0
 18 19  2  0
 19 20  1  0
 20 21  1  0
 12 22  1  0
 22 23  1  0
  6 24  1  0
 24 25  2  0
 25  3  1  0
 23  9  1  0
 19 14  1  0
  1 26  1  0
  1 27  1  0
  1 28  1  0
  4 29  1  0
  5 30  1  0
  7 31  1  0
  7 32  1  0
  8 33  1  0
  8 34  1  0
 10 35  1  0
 10 36  1  0
 11 37  1  0
 11 38  1  0
 12 39  1  0
 13 40  1  0
 13 41  1  0
 15 42  1  0
 16 43  1  0
 17 44  1  0
 18 45  1  0
 21 46  1  0
 21 47  1  0
 21 48  1  0
 22 49  1  0
 22 50  1  0
 23 51  1  0
 23 52  1  0
 24 53  1  0
 25 54  1  0
M  CHG  1  12   1
M  END
>  <UniqueID>  (36) 
33

>  <SMILES>  (36) 
COc1ccc(CCN2CC[NH+](Cc3ccccc3OC)CC2)cc1

>  <Energy>  (36) 
67.86332674110422

>  <Genealogy>  (36) 
COc1ccc(CCN2CC[NH+](Cc3ccccc3OC)CC2)cc1 (protonated)
COc1ccc(CCN2CC[NH+](Cc3ccccc3OC)CC2)cc1 (3D coordinates assigned)
COc1ccc(CCN2CC[NH+](Cc3ccccc3OC)CC2)cc1 (nonaromatic ring conformer: 67.86332674110422 kcal/mol)

>  <smiles>  (36) 
COc1ccc(CCN2CCN(Cc3ccccc3OC)CC2)cc1

>  <score_type>  (36) 
oracle

>  <origin>  (36) 
adg

>  <m_score__min__energy>  (36) 
-6.5999999999999996

>  <m_primary>  (36) 
energy

$$$$
36:0
     RDKit          3D

 50 53  0  0  0  0  0  0  0  0999 V2000
   63.1960   33.7840   46.7450 C   0  0  0  0  0  0  0  0  0  0  0  0
   62.0180   33.4770   46.0070 O   0  0  0  0  0  0  0  0  0  0  0  0
   60.7310   33.3650   46.5590 C   0  0  0  0  0  0  0  0  0  0  0  0
   59.7540   34.3550   46.3390 C   0  0  0  0  0  0  0  0  0  0  0  0
   58.4810   34.2270   46.8850 C   0  0  0  0  0  0  0  0  0  0  0  0
   58.1570   33.1150   47.6550 C   0  0  0  0  0  0  0  0  0  0  0  0
   59.1090   32.1080   47.8940 C   0  0  0  0  0  0  0  0  0  0  0  0
   58.7960   30.9770   48.6640 O   0  0  0  0  0  0  0  0  0  0  0  0
   58.5120   30.9920   50.0590 C   0  0  0  0  0  0  0  0  0  0  0  0
   60.4110   32.2330   47.3490 C   0  0  0  0  0  0  0  0  0  0  0  0
   61.4530   31.1470   47.5910 C   0  0  1  0  0  0  0  0  0  0  0  0
   61.8990   31.1830   48.9890 N   0  0  0  0  0  0  0  0  0  0  0  0
   61.6420   30.1480   49.9470 C   0  0  0  0  0  0  0  0  0  0  0  0
   62.0200   30.3240   51.2870 C   0  0  0  0  0  0  0  0  0  0  0  0
   61.7550   29.3290   52.2310 C   0  0  0  0  0  0  0  0  0  0  0  0
   61.1090   28.1530   51.8430 C   0  0  0  0  0  0  0  0  0  0  0  0
   60.7310   27.9700   50.5100 C   0  0  0  0  0  0  0  0  0  0  0  0
   60.9980   28.9670   49.5550 C   0  0  0  0  0  0  0  0  0  0  0  0
   60.6130   28.8030   48.1470 C   0  0  0  0  0  0  0  0  0  0  0  0
   60.0030   27.7590   47.7830 O   0  0  0  0  0  0  0  0  0  0  0  0
   60.9310   29.8260   47.1830 N   0  0  0  0  0  0  0  0  0  0  0  0
   60.7020   29.5720   45.7520 C   0  0  0  0  0  0  0  0  0  0  0  0
   59.2260   29.5070   45.4570 C   0  0  0  0  0  0  0  0  0  0  0  0
   58.5340   28.2870   45.5350 C   0  0  0  0  0  0  0  0  0  0  0  0
   57.1690   28.2310   45.2390 C   0  0  0  0  0  0  0  0  0  0  0  0
   56.4850   29.3910   44.8620 C   0  0  0  0  0  0  0  0  0  0  0  0
   55.1610   29.3350   44.5750 F   0  0  0  0  0  0  0  0  0  0  0  0
   57.1670   30.6090   44.7830 C   0  0  0  0  0  0  0  0  0  0  0  0
   58.5320   30.6680   45.0770 C   0  0  0  0  0  0  0  0  0  0  0  0
   62.9791   33.7275   47.8219 H   0  0  0  0  0  0  0  0  0  0  0  0
   63.9860   33.0618   46.4917 H   0  0  0  0  0  0  0  0  0  0  0  0
   63.5330   34.8000   46.4917 H   0  0  0  0  0  0  0  0  0  0  0  0
   59.9997   35.2374   45.7299 H   0  0  0  0  0  0  0  0  0  0  0  0
   57.7275   35.0084   46.7070 H   0  0  0  0  0  0  0  0  0  0  0  0
   57.1470   33.0224   48.0808 H   0  0  0  0  0  0  0  0  0  0  0  0
   59.4536   30.9423   50.6254 H   0  0  0  0  0  0  0  0  0  0  0  0
   57.9788   31.9196   50.3147 H   0  0  0  0  0  0  0  0  0  0  0  0
   57.8841   30.1258   50.3147 H   0  0  0  0  0  0  0  0  0  0  0  0
   62.3381   31.3365   46.9660 H   0  0  0  0  0  0  0  0  0  0  0  0
   62.3960   32.0460   49.3080 H   0  0  0  0  0  0  0  0  0  0  0  0
   62.5274   31.2499   51.5955 H   0  0  0  0  0  0  0  0  0  0  0  0
   62.0550   29.4716   53.2796 H   0  0  0  0  0  0  0  0  0  0  0  0
   60.8977   27.3706   52.5868 H   0  0  0  0  0  0  0  0  0  0  0  0
   60.2228   27.0427   50.2068 H   0  0  0  0  0  0  0  0  0  0  0  0
   61.1533   30.3844   45.1634 H   0  0  0  0  0  0  0  0  0  0  0  0
   61.1610   28.6090   45.4838 H   0  0  0  0  0  0  0  0  0  0  0  0
   59.0685   27.3720   45.8302 H   0  0  0  0  0  0  0  0  0  0  0  0
   56.6321   27.2731   45.3027 H   0  0  0  0  0  0  0  0  0  0  0  0
   56.6285   31.5220   44.4891 H   0  0  0  0  0  0  0  0  0  0  0  0
   59.0654   31.6277   45.0106 H   0  0  0  0  0  0  0  0  0  0  0  0
  1  2  1  0
  2  3  1  0
  3  4  2  0
  4  5  1  0
  5  6  2  0
  6  7  1  0
  7  8  1  0
  8  9  1  0
  7 10  2  0
 10 11  1  0
 11 12  1  0
 12 13  1  0
 13 14  2  0
 14 15  1  0
 15 16  2  0
 16 17  1  0
 17 18  2  0
 18 19  1  0
 19 20  2  0
 19 21  1  0
 21 22  1  0
 22 23  1  0
 23 24  2  0
 24 25  1  0
 25 26  2  0
 26 27  1  0
 26 28  1  0
 28 29  2  0
 10  3  1  0
 21 11  1  0
 29 23  1  0
 18 13  1  0
  1 30  1  0
  1 31  1  0
  1 32  1  0
  4 33  1  0
  5 34  1  0
  6 35  1  0
  9 36  1  0
  9 37  1  0
  9 38  1  0
 11 39  1  6
 12 40  1  0
 14 41  1  0
 15 42  1  0
 16 43  1  0
 17 44  1  0
 22 45  1  0
 22 46  1  0
 24 47  1  0
 25 48  1  0
 28 49  1  0
 29 50  1  0
M  END
>  <UniqueID>  (37) 
34

>  <SMILES>  (37) 
COc1cccc(OC)c1[C@H]1Nc2ccccc2C(=O)N1Cc1ccc(F)cc1

>  <Energy>  (37) 
54.67154241337172

>  <Genealogy>  (37) 
COc1cccc(OC)c1[C@H]1Nc2ccccc2C(=O)N1Cc1ccc(F)cc1 (chirality)
COc1cccc(OC)c1[C@H]1Nc2ccccc2C(=O)N1Cc1ccc(F)cc1 (3D coordinates assigned)
COc1cccc(OC)c1[C@H]1Nc2ccccc2C(=O)N1Cc1ccc(F)cc1 (nonaromatic ring conformer: 54.67154241337172 kcal/mol)

>  <smiles>  (37) 
COc1cccc(OC)c1C1Nc2ccccc2C(=O)N1Cc1ccc(F)cc1

>  <score_type>  (37) 
oracle

>  <origin>  (37) 
adg

>  <m_score__min__energy>  (37) 
-6.3200000000000003

>  <m_primary>  (37) 
energy

$$$$
37:0
     RDKit          3D

 28 29  0  0  0  0  0  0  0  0999 V2000
   57.5727   32.0564   43.1202 H   0  0  0  0  0  0  0  0  0  0  0  0
   57.3320   31.3930   43.9640 C   0  0  0  0  0  0  0  0  0  0  0  0
   57.1890   31.9250   45.1440 N   0  0  0  0  0  0  0  0  0  0  0  0
   57.9780   32.9870   45.6960 C   0  0  0  0  0  0  0  0  0  0  0  0
   58.4330   34.0420   44.8890 C   0  0  0  0  0  0  0  0  0  0  0  0
   58.1503   34.0814   43.8267 H   0  0  0  0  0  0  0  0  0  0  0  0
   59.2440   35.0420   45.4320 C   0  0  0  0  0  0  0  0  0  0  0  0
   59.5884   35.8736   44.7997 H   0  0  0  0  0  0  0  0  0  0  0  0
   59.6180   34.9870   46.7770 C   0  0  0  0  0  0  0  0  0  0  0  0
   60.2561   35.7764   47.2009 H   0  0  0  0  0  0  0  0  0  0  0  0
   59.1830   33.9290   47.5890 C   0  0  0  0  0  0  0  0  0  0  0  0
   59.6290   33.8400   49.0180 C   0  0  0  0  0  0  0  0  0  0  0  0
   58.7689   34.0116   49.6819 H   0  0  0  0  0  0  0  0  0  0  0  0
   60.0469   32.8408   49.2101 H   0  0  0  0  0  0  0  0  0  0  0  0
   60.3984   34.6023   49.2101 H   0  0  0  0  0  0  0  0  0  0  0  0
   58.3860   32.9150   47.0340 C   0  0  0  0  0  0  0  0  0  0  0  0
   58.0802   32.0591   47.6536 H   0  0  0  0  0  0  0  0  0  0  0  0
   57.1850   29.9110   43.6900 C   0  0  2  0  0  0  0  0  0  0  0  0
   57.3777   29.7972   42.6130 H   0  0  0  0  0  0  0  0  0  0  0  0
   55.8550   29.4360   44.1370 C   0  0  0  0  0  0  0  0  0  0  0  0
   54.7700   29.7210   43.5660 O   0  0  0  0  0  0  0  0  0  0  0  0
   55.9200   28.6220   45.2450 O   0  0  0  0  0  0  0  0  0  0  0  0
   57.2560   28.4650   45.6840 C   0  0  0  0  0  0  0  0  0  0  0  0
   57.4921   27.3997   45.8229 H   0  0  0  0  0  0  0  0  0  0  0  0
   57.4283   28.9606   46.6508 H   0  0  0  0  0  0  0  0  0  0  0  0
   58.1290   29.0680   44.5710 C   0  0  0  0  0  0  0  0  0  0  0  0
   58.5930   28.2681   43.9753 H   0  0  0  0  0  0  0  0  0  0  0  0
   58.9413   29.6816   44.9879 H   0  0  0  0  0  0  0  0  0  0  0  0
  1  2  1  0
  2  3  2  0
  3  4  1  0
  4  5  2  0
  5  6  1  0
  5  7  1  0
  7  8  1  0
  7  9  2  0
  9 10  1  0
  9 11  1  0
 11 12  1  0
 12 13  1  0
 12 14  1  0
 12 15  1  0
 11 16  2  0
 16 17  1  0
  2 18  1  0
 18 19  1  6
 18 20  1  0
 20 21  2  0
 20 22  1  0
 22 23  1  0
 23 24  1  0
 23 25  1  0
 23 26  1  0
 26 27  1  0
 26 28  1  0
 16  4  1  0
 26 18  1  0
M  END
>  <UniqueID>  (38) 
35

>  <SMILES>  (38) 
Cc1cccc(/N=C\[C@H]2CCOC2=O)c1

>  <Energy>  (38) 
42.47723573423481

>  <Genealogy>  (38) 
Cc1cccc(N=C[C@H]2CCOC2=O)c1 (chirality)
Cc1cccc(/N=C\[C@H]2CCOC2=O)c1 (cis-trans isomerization)
Cc1cccc(/N=C\[C@H]2CCOC2=O)c1 (3D coordinates assigned)
Cc1cccc(/N=C\[C@H]2CCOC2=O)c1 (nonaromatic ring conformer: 42.47723573423481 kcal/mol)

>  <smiles>  (38) 
Cc1cccc(N=CC2CCOC2=O)c1

>  <score_type>  (38) 
oracle

>  <origin>  (38) 
adg

>  <m_score__min__energy>  (38) 
-7.0499999999999998

>  <m_primary>  (38) 
energy

$$$$
38:0
     RDKit          3D

 51 54  0  0  0  0  0  0  0  0999 V2000
   63.3240   33.8740   46.1270 C   0  0  0  0  0  0  0  0  0  0  0  0
   63.9800   33.8410   47.5110 C   0  0  0  0  0  0  0  0  0  0  0  0
   64.0830   32.4750   48.0510 N   0  0  0  0  0  0  0  0  0  0  0  0
   62.9110   32.1160   48.8140 C   0  0  0  0  0  0  0  0  0  0  0  0
   62.9110   30.9680   49.6160 C   0  0  0  0  0  0  0  0  0  0  0  0
   61.7770   30.6160   50.3500 C   0  0  0  0  0  0  0  0  0  0  0  0
   60.6140   31.4120   50.3090 C   0  0  0  0  0  0  0  0  0  0  0  0
   60.5680   32.4920   49.3950 C   0  0  0  0  0  0  0  0  0  0  0  0
   61.7380   32.8760   48.7140 C   0  0  0  0  0  0  0  0  0  0  0  0
   59.2750   33.2700   49.2010 C   0  0  1  0  0  0  0  0  0  0  0  0
   59.0850   33.6990   47.7640 C   0  0  0  0  0  0  0  0  0  0  0  0
   59.7690   34.8170   47.2540 C   0  0  0  0  0  0  0  0  0  0  0  0
   59.6190   35.1830   45.9130 C   0  0  0  0  0  0  0  0  0  0  0  0
   58.7900   34.4360   45.0700 C   0  0  0  0  0  0  0  0  0  0  0  0
   58.1080   33.3240   45.5680 C   0  0  0  0  0  0  0  0  0  0  0  0
   58.2540   32.9530   46.9080 C   0  0  0  0  0  0  0  0  0  0  0  0
   58.1400   32.4910   49.5850 O   0  0  0  0  0  0  0  0  0  0  0  0
   58.1690   31.6000   50.6580 C   0  0  0  0  0  0  0  0  0  0  0  0
   56.9690   31.2290   51.2640 C   0  0  0  0  0  0  0  0  0  0  0  0
   56.9730   30.4000   52.3940 C   0  0  0  0  0  0  0  0  0  0  0  0
   55.7930   29.9930   53.0340 O   0  0  0  0  0  0  0  0  0  0  0  0
   54.4840   30.1940   52.5110 C   0  0  0  0  0  0  0  0  0  0  0  0
   58.1950   29.9730   52.9210 C   0  0  0  0  0  0  0  0  0  0  0  0
   59.4160   30.3330   52.3160 C   0  0  0  0  0  0  0  0  0  0  0  0
   60.6430   29.9910   52.9070 O   0  0  0  0  0  0  0  0  0  0  0  0
   61.0710   28.6620   53.1880 C   0  0  0  0  0  0  0  0  0  0  0  0
   59.3960   31.0910   51.1170 C   0  0  0  0  0  0  0  0  0  0  0  0
   62.2312   33.9290   46.2404 H   0  0  0  0  0  0  0  0  0  0  0  0
   63.6800   34.7554   45.5734 H   0  0  0  0  0  0  0  0  0  0  0  0
   63.5897   32.9614   45.5734 H   0  0  0  0  0  0  0  0  0  0  0  0
   64.9911   34.2672   47.4329 H   0  0  0  0  0  0  0  0  0  0  0  0
   63.3480   34.4255   48.1957 H   0  0  0  0  0  0  0  0  0  0  0  0
   64.9470   32.3840   48.6350 H   0  0  0  0  0  0  0  0  0  0  0  0
   64.1850   31.8060   47.2520 H   0  0  0  0  0  0  0  0  0  0  0  0
   63.8117   30.3387   49.6680 H   0  0  0  0  0  0  0  0  0  0  0  0
   61.7909   29.7062   50.9681 H   0  0  0  0  0  0  0  0  0  0  0  0
   61.7317   33.7851   48.0948 H   0  0  0  0  0  0  0  0  0  0  0  0
   59.3558   34.1613   49.8406 H   0  0  0  0  0  0  0  0  0  0  0  0
   60.4245   35.4057   47.9126 H   0  0  0  0  0  0  0  0  0  0  0  0
   60.1541   36.0602   45.5202 H   0  0  0  0  0  0  0  0  0  0  0  0
   58.6752   34.7245   44.0147 H   0  0  0  0  0  0  0  0  0  0  0  0
   57.4544   32.7386   44.9046 H   0  0  0  0  0  0  0  0  0  0  0  0
   57.7170   32.0743   47.2947 H   0  0  0  0  0  0  0  0  0  0  0  0
   56.0143   31.5889   50.8529 H   0  0  0  0  0  0  0  0  0  0  0  0
   53.7704   30.3036   53.3409 H   0  0  0  0  0  0  0  0  0  0  0  0
   54.4715   31.1046   51.8940 H   0  0  0  0  0  0  0  0  0  0  0  0
   54.1989   29.3291   51.8940 H   0  0  0  0  0  0  0  0  0  0  0  0
   58.2040   29.3448   53.8240 H   0  0  0  0  0  0  0  0  0  0  0  0
   61.1185   28.5146   54.2770 H   0  0  0  0  0  0  0  0  0  0  0  0
   60.3576   27.9471   52.7520 H   0  0  0  0  0  0  0  0  0  0  0  0
   62.0675   28.4978   52.7520 H   0  0  0  0  0  0  0  0  0  0  0  0
  1  2  1  0
  2  3  1  0
  3  4  1  0
  4  5  2  0
  5  6  1  0
  6  7  2  0
  7  8  1  0
  8  9  2  0
  8 10  1  0
 10 11  1  0
 11 12  2  0
 12 13  1  0
 13 14  2  0
 14 15  1  0
 15 16  2  0
 10 17  1  0
 17 18  1  0
 18 19  2  0
 19 20  1  0
 20 21  1  0
 21 22  1  0
 20 23  2  0
 23 24  1  0
 24 25  1  0
 25 26  1  0
 24 27  2  0
  9  4  1  0
 16 11  1  0
 27 18  1  0
 27  7  1  0
  1 28  1  0
  1 29  1  0
  1 30  1  0
  2 31  1  0
  2 32  1  0
  3 33  1  0
  3 34  1  0
  5 35  1  0
  6 36  1  0
  9 37  1  0
 10 38  1  1
 12 39  1  0
 13 40  1  0
 14 41  1  0
 15 42  1  0
 16 43  1  0
 19 44  1  0
 22 45  1  0
 22 46  1  0
 22 47  1  0
 23 48  1  0
 26 49  1  0
 26 50  1  0
 26 51  1  0
M  CHG  1   3   1
M  END
>  <UniqueID>  (39) 
36

>  <SMILES>  (39) 
CC[NH2+]c1ccc2c(c1)[C@@H](c1ccccc1)Oc1cc(OC)cc(OC)c1-2

>  <Energy>  (39) 
64.47231272421844

>  <Genealogy>  (39) 
CC[NH2+]c1ccc2c(c1)C(c1ccccc1)Oc1cc(OC)cc(OC)c1-2 (protonated)
CC[NH2+]c1ccc2c(c1)[C@@H](c1ccccc1)Oc1cc(OC)cc(OC)c1-2 (chirality)
CC[NH2+]c1ccc2c(c1)[C@@H](c1ccccc1)Oc1cc(OC)cc(OC)c1-2 (3D coordinates assigned)
CC[NH2+]c1ccc2c(c1)[C@@H](c1ccccc1)Oc1cc(OC)cc(OC)c1-2 (nonaromatic ring conformer: 64.47231272421844 kcal/mol)

>  <smiles>  (39) 
CCNc1ccc2c(c1)C(c1ccccc1)Oc1cc(OC)cc(OC)c1-2

>  <score_type>  (39) 
oracle

>  <origin>  (39) 
adg

>  <m_score__min__energy>  (39) 
-5.5300000000000002

>  <m_primary>  (39) 
energy

$$$$
39:0
     RDKit          3D

 53 56  0  0  0  0  0  0  0  0999 V2000
   64.2760   31.9730   49.7010 C   0  0  0  0  0  0  0  0  0  0  0  0
   63.3820   33.1350   49.4610 N   0  0  0  0  0  0  0  0  0  0  0  0
   63.5570   34.1040   50.5740 C   0  0  0  0  0  0  0  0  0  0  0  0
   63.8100   33.8400   48.2060 C   0  0  0  0  0  0  0  0  0  0  0  0
   63.2980   33.2220   46.8880 C   0  0  0  0  0  0  0  0  0  0  0  0
   63.7640   31.9040   46.7920 O   0  0  0  0  0  0  0  0  0  0  0  0
   61.9470   32.7100   49.3300 C   0  0  0  0  0  0  0  0  0  0  0  0
   61.6550   31.2300   48.9340 C   0  0  0  0  0  0  0  0  0  0  0  0
   60.1980   30.7460   49.1270 C   0  0  0  0  0  0  0  0  0  0  0  0
   59.6650   30.0160   47.9560 N   0  0  0  0  0  0  0  0  0  0  0  0
   58.9950   30.6570   46.9430 C   0  0  0  0  0  0  0  0  0  0  0  0
   58.1400   29.9690   46.0920 C   0  0  0  0  0  0  0  0  0  0  0  0
   58.0900   28.5720   46.1030 C   0  0  0  0  0  0  0  0  0  0  0  0
   57.2670   27.8320   45.2330 C   0  0  0  0  0  0  0  0  0  0  0  0
   57.2960   26.4370   45.2550 C   0  0  0  0  0  0  0  0  0  0  0  0
   58.1430   25.7640   46.1360 C   0  0  0  0  0  0  0  0  0  0  0  0
   58.9640   26.4830   47.0080 C   0  0  0  0  0  0  0  0  0  0  0  0
   58.9440   27.8920   47.0080 C   0  0  0  0  0  0  0  0  0  0  0  0
   59.7400   28.6370   47.9170 C   0  0  0  0  0  0  0  0  0  0  0  0
   60.5140   28.0260   48.7060 O   0  0  0  0  0  0  0  0  0  0  0  0
   57.4340   30.9530   45.2640 C   0  0  0  0  0  0  0  0  0  0  0  0
   56.5480   30.7280   44.3990 O   0  0  0  0  0  0  0  0  0  0  0  0
   57.9720   32.2570   45.6090 C   0  0  0  0  0  0  0  0  0  0  0  0
   57.7310   33.4870   44.9970 C   0  0  0  0  0  0  0  0  0  0  0  0
   58.5300   34.5790   45.3640 C   0  0  0  0  0  0  0  0  0  0  0  0
   59.5840   34.4090   46.2800 C   0  0  0  0  0  0  0  0  0  0  0  0
   59.8250   33.1560   46.8670 C   0  0  0  0  0  0  0  0  0  0  0  0
   58.9490   32.0970   46.5810 C   0  0  0  0  0  0  0  0  0  0  0  0
   64.3945   31.8190   50.7837 H   0  0  0  0  0  0  0  0  0  0  0  0
   63.8359   31.0721   49.2485 H   0  0  0  0  0  0  0  0  0  0  0  0
   65.2596   32.1675   49.2485 H   0  0  0  0  0  0  0  0  0  0  0  0
   63.4621   33.5787   51.5358 H   0  0  0  0  0  0  0  0  0  0  0  0
   64.5530   34.5657   50.5050 H   0  0  0  0  0  0  0  0  0  0  0  0
   62.7854   34.8849   50.5050 H   0  0  0  0  0  0  0  0  0  0  0  0
   63.4450   34.8763   48.2584 H   0  0  0  0  0  0  0  0  0  0  0  0
   64.9063   33.7566   48.1722 H   0  0  0  0  0  0  0  0  0  0  0  0
   62.1980   33.2259   46.8815 H   0  0  0  0  0  0  0  0  0  0  0  0
   63.6656   33.8098   46.0340 H   0  0  0  0  0  0  0  0  0  0  0  0
   64.7540   31.9630   46.7380 H   0  0  0  0  0  0  0  0  0  0  0  0
   61.4624   32.8905   50.3009 H   0  0  0  0  0  0  0  0  0  0  0  0
   61.5612   33.3014   48.4865 H   0  0  0  0  0  0  0  0  0  0  0  0
   61.9103   31.1104   47.8707 H   0  0  0  0  0  0  0  0  0  0  0  0
   62.2617   30.6173   49.6170 H   0  0  0  0  0  0  0  0  0  0  0  0
   60.1647   30.0777   50.0001 H   0  0  0  0  0  0  0  0  0  0  0  0
   59.5729   31.6403   49.2661 H   0  0  0  0  0  0  0  0  0  0  0  0
   56.5987   28.3553   44.5334 H   0  0  0  0  0  0  0  0  0  0  0  0
   56.6480   25.8652   44.5745 H   0  0  0  0  0  0  0  0  0  0  0  0
   58.1644   24.6642   46.1440 H   0  0  0  0  0  0  0  0  0  0  0  0
   59.6303   25.9459   47.6990 H   0  0  0  0  0  0  0  0  0  0  0  0
   56.9348   33.5973   44.2460 H   0  0  0  0  0  0  0  0  0  0  0  0
   58.3321   35.5720   44.9342 H   0  0  0  0  0  0  0  0  0  0  0  0
   60.2249   35.2647   46.5388 H   0  0  0  0  0  0  0  0  0  0  0  0
   60.6838   33.0073   47.5381 H   0  0  0  0  0  0  0  0  0  0  0  0
  1  2  1  0
  2  3  1  0
  2  4  1  0
  4  5  1  0
  5  6  1  0
  2  7  1  0
  7  8  1  0
  8  9  1  0
  9 10  1  0
 10 11  1  0
 11 12  2  0
 12 13  1  0
 13 14  2  0
 14 15  1  0
 15 16  2  0
 16 17  1  0
 17 18  2  0
 18 19  1  0
 19 20  2  0
 12 21  1  0
 21 22  2  0
 21 23  1  0
 23 24  2  0
 24 25  1  0
 25 26  2  0
 26 27  1  0
 27 28  2  0
 19 10  1  0
 28 23  1  0
 28 11  1  0
 18 13  1  0
  1 29  1  0
  1 30  1  0
  1 31  1  0
  3 32  1  0
  3 33  1  0
  3 34  1  0
  4 35  1  0
  4 36  1  0
  5 37  1  0
  5 38  1  0
  6 39  1  0
  7 40  1  0
  7 41  1  0
  8 42  1  0
  8 43  1  0
  9 44  1  0
  9 45  1  0
 14 46  1  0
 15 47  1  0
 16 48  1  0
 17 49  1  0
 24 50  1  0
 25 51  1  0
 26 52  1  0
 27 53  1  0
M  CHG  1   2   1
M  END
>  <UniqueID>  (40) 
37

>  <SMILES>  (40) 
C[N+](C)(CCO)CCCn1c2c(c3ccccc3c1=O)C(=O)c1ccccc1-2

>  <Energy>  (40) 
121.351271145802

>  <Genealogy>  (40) 
C[N+](C)(CCO)CCCn1c2c(c3ccccc3c1=O)C(=O)c1ccccc1-2 (3D coordinates assigned)
C[N+](C)(CCO)CCCn1c2c(c3ccccc3c1=O)C(=O)c1ccccc1-2 (nonaromatic ring conformer: 121.351271145802 kcal/mol)

>  <smiles>  (40) 
C[N+](C)(CCO)CCCn1c2c(c3ccccc3c1=O)C(=O)c1ccccc1-2

>  <score_type>  (40) 
oracle

>  <origin>  (40) 
adg

>  <m_score__min__energy>  (40) 
-7.4199999999999999

>  <m_primary>  (40) 
energy

$$$$
40:0
     RDKit          3D

 51 53  0  0  0  0  0  0  0  0999 V2000
   62.0360   33.4430   49.7940 C   0  0  0  0  0  0  0  0  0  0  0  0
   61.4740   34.5590   48.9180 C   0  0  0  0  0  0  0  0  0  0  0  0
   60.8770   34.0070   47.6820 N   0  0  0  0  0  0  0  0  0  0  0  0
   61.7890   33.2910   46.7520 C   0  0  0  0  0  0  0  0  0  0  0  0
   63.2320   33.8180   46.7190 C   0  0  0  0  0  0  0  0  0  0  0  0
   59.9020   34.9080   47.0260 C   0  0  0  0  0  0  0  0  0  0  0  0
   59.4710   34.4280   45.6290 C   0  0  0  0  0  0  0  0  0  0  0  0
   57.9720   34.1030   45.5730 C   0  0  0  0  0  0  0  0  0  0  0  0
   57.5070   33.4440   46.7970 N   0  0  0  0  0  0  0  0  0  0  0  0
   58.1470   32.3250   47.4470 C   0  0  0  0  0  0  0  0  0  0  0  0
   58.6510   32.5170   48.7420 C   0  0  0  0  0  0  0  0  0  0  0  0
   59.2960   31.4850   49.4210 C   0  0  0  0  0  0  0  0  0  0  0  0
   59.4440   30.2360   48.8230 C   0  0  0  0  0  0  0  0  0  0  0  0
   58.9340   30.0050   47.5330 C   0  0  0  0  0  0  0  0  0  0  0  0
   59.0570   28.7520   46.9090 C   0  0  0  0  0  0  0  0  0  0  0  0
   59.6440   27.8000   47.4970 O   0  0  0  0  0  0  0  0  0  0  0  0
   58.5210   28.5670   45.6250 C   0  0  0  0  0  0  0  0  0  0  0  0
   58.6200   27.3370   44.9490 C   0  0  0  0  0  0  0  0  0  0  0  0
   58.0770   27.1930   43.6710 C   0  0  0  0  0  0  0  0  0  0  0  0
   57.4330   28.2660   43.0550 C   0  0  0  0  0  0  0  0  0  0  0  0
   57.3190   29.5020   43.7130 C   0  0  0  0  0  0  0  0  0  0  0  0
   56.6350   30.6530   43.0330 C   0  0  0  0  0  0  0  0  0  0  0  0
   57.8660   29.6540   45.0030 C   0  0  0  0  0  0  0  0  0  0  0  0
   57.7680   30.8230   45.6320 O   0  0  0  0  0  0  0  0  0  0  0  0
   58.2720   31.0500   46.8420 C   0  0  0  0  0  0  0  0  0  0  0  0
   61.9033   33.7066   50.8537 H   0  0  0  0  0  0  0  0  0  0  0  0
   61.5028   32.5050   49.5799 H   0  0  0  0  0  0  0  0  0  0  0  0
   63.1071   33.3129   49.5799 H   0  0  0  0  0  0  0  0  0  0  0  0
   60.7009   35.1037   49.4798 H   0  0  0  0  0  0  0  0  0  0  0  0
   62.2949   35.2366   48.6407 H   0  0  0  0  0  0  0  0  0  0  0  0
   61.8194   32.2331   47.0518 H   0  0  0  0  0  0  0  0  0  0  0  0
   61.3822   33.4489   45.7422 H   0  0  0  0  0  0  0  0  0  0  0  0
   63.5973   33.9514   47.7480 H   0  0  0  0  0  0  0  0  0  0  0  0
   63.8740   33.0963   46.1927 H   0  0  0  0  0  0  0  0  0  0  0  0
   63.2578   34.7836   46.1927 H   0  0  0  0  0  0  0  0  0  0  0  0
   59.0075   34.9767   47.6625 H   0  0  0  0  0  0  0  0  0  0  0  0
   60.3959   35.8824   46.8968 H   0  0  0  0  0  0  0  0  0  0  0  0
   59.6909   35.2195   44.8974 H   0  0  0  0  0  0  0  0  0  0  0  0
   60.0282   33.5083   45.3975 H   0  0  0  0  0  0  0  0  0  0  0  0
   57.4104   35.0392   45.4384 H   0  0  0  0  0  0  0  0  0  0  0  0
   57.8048   33.4143   44.7317 H   0  0  0  0  0  0  0  0  0  0  0  0
   56.7290   33.9210   47.3090 H   0  0  0  0  0  0  0  0  0  0  0  0
   58.5354   33.4967   49.2287 H   0  0  0  0  0  0  0  0  0  0  0  0
   59.6898   31.6577   50.4335 H   0  0  0  0  0  0  0  0  0  0  0  0
   59.9612   29.4280   49.3612 H   0  0  0  0  0  0  0  0  0  0  0  0
   59.1266   26.4866   45.4288 H   0  0  0  0  0  0  0  0  0  0  0  0
   58.1574   26.2290   43.1474 H   0  0  0  0  0  0  0  0  0  0  0  0
   57.0112   28.1435   42.0465 H   0  0  0  0  0  0  0  0  0  0  0  0
   56.2281   31.3378   43.7916 H   0  0  0  0  0  0  0  0  0  0  0  0
   57.3600   31.1910   42.4046 H   0  0  0  0  0  0  0  0  0  0  0  0
   55.8158   30.2734   42.4046 H   0  0  0  0  0  0  0  0  0  0  0  0
  1  2  1  0
  2  3  1  0
  3  4  1  0
  4  5  1  0
  3  6  1  0
  6  7  1  0
  7  8  1  0
  8  9  1  0
  9 10  1  0
 10 11  2  0
 11 12  1  0
 12 13  2  0
 13 14  1  0
 14 15  1  0
 15 16  2  0
 15 17  1  0
 17 18  2  0
 18 19  1  0
 19 20  2  0
 20 21  1  0
 21 22  1  0
 21 23  2  0
 23 24  1  0
 24 25  1  0
 25 10  1  0
 25 14  2  0
 23 17  1  0
  1 26  1  0
  1 27  1  0
  1 28  1  0
  2 29  1  0
  2 30  1  0
  4 31  1  0
  4 32  1  0
  5 33  1  0
  5 34  1  0
  5 35  1  0
  6 36  1  0
  6 37  1  0
  7 38  1  0
  7 39  1  0
  8 40  1  0
  8 41  1  0
  9 42  1  0
 11 43  1  0
 12 44  1  0
 13 45  1  0
 18 46  1  0
 19 47  1  0
 20 48  1  0
 22 49  1  0
 22 50  1  0
 22 51  1  0
M  END
>  <UniqueID>  (41) 
38

>  <SMILES>  (41) 
CCN(CC)CCCNc1cccc2c(=O)c3cccc(C)c3oc12

>  <Energy>  (41) 
64.17404111113285

>  <Genealogy>  (41) 
CCN(CC)CCCNc1cccc2c(=O)c3cccc(C)c3oc12 (3D coordinates assigned)
CCN(CC)CCCNc1cccc2c(=O)c3cccc(C)c3oc12 (optimized conformer: 64.17404111113285 kcal/mol)

>  <smiles>  (41) 
CCN(CC)CCCNc1cccc2c(=O)c3cccc(C)c3oc12

>  <score_type>  (41) 
oracle

>  <origin>  (41) 
adg

>  <m_score__min__energy>  (41) 
-7.1900000000000004

>  <m_primary>  (41) 
energy

$$$$
41:0
     RDKit          3D

 37 38  0  0  0  0  0  0  0  0999 V2000
   55.9810   24.3540   46.4290 C   0  0  0  0  0  0  0  0  0  0  0  0
   55.1160   25.3500   45.6660 C   0  0  0  0  0  0  0  0  0  0  0  0
   55.5200   26.7180   45.9730 N   0  0  0  0  0  0  0  0  0  0  0  0
   56.8820   27.1540   45.9990 C   0  0  0  0  0  0  0  0  0  0  0  0
   57.3360   27.7760   46.9980 O   0  0  0  0  0  0  0  0  0  0  0  0
   57.7700   26.8780   44.8240 C   0  0  0  0  0  0  0  0  0  0  0  0
   57.9990   28.1090   44.0360 N   0  0  0  0  0  0  0  0  0  0  0  0
   56.7960   28.9840   44.0300 C   0  0  0  0  0  0  0  0  0  0  0  0
   57.1400   30.4650   43.8370 C   0  0  0  0  0  0  0  0  0  0  0  0
   58.0540   30.8990   44.8980 N   0  0  0  0  0  0  0  0  0  0  0  0
   58.0300   32.2640   45.3640 C   0  0  0  0  0  0  0  0  0  0  0  0
   57.4350   33.1480   44.6890 O   0  0  0  0  0  0  0  0  0  0  0  0
   58.7410   32.6700   46.6240 C   0  0  0  0  0  0  0  0  0  0  0  0
   59.7330   33.8130   46.4630 C   0  0  0  0  0  0  0  0  0  0  0  0
   58.3910   34.0630   47.1250 C   0  0  0  0  0  0  0  0  0  0  0  0
   59.0170   29.9330   45.4440 C   0  0  0  0  0  0  0  0  0  0  0  0
   59.2530   28.7890   44.4480 C   0  0  0  0  0  0  0  0  0  0  0  0
   55.8486   24.5064   47.5103 H   0  0  0  0  0  0  0  0  0  0  0  0
   55.6812   23.3294   46.1637 H   0  0  0  0  0  0  0  0  0  0  0  0
   57.0375   24.5073   46.1637 H   0  0  0  0  0  0  0  0  0  0  0  0
   55.2275   25.1734   44.5860 H   0  0  0  0  0  0  0  0  0  0  0  0
   54.0667   25.2131   45.9663 H   0  0  0  0  0  0  0  0  0  0  0  0
   58.7365   26.4960   45.1846 H   0  0  0  0  0  0  0  0  0  0  0  0
   57.2796   26.1337   44.1794 H   0  0  0  0  0  0  0  0  0  0  0  0
   56.1349   28.6670   43.2100 H   0  0  0  0  0  0  0  0  0  0  0  0
   56.3076   28.8824   45.0104 H   0  0  0  0  0  0  0  0  0  0  0  0
   57.6224   30.6044   42.8583 H   0  0  0  0  0  0  0  0  0  0  0  0
   56.2180   31.0633   43.8812 H   0  0  0  0  0  0  0  0  0  0  0  0
   58.7781   31.6638   47.0670 H   0  0  0  0  0  0  0  0  0  0  0  0
   60.6542   33.8302   47.0639 H   0  0  0  0  0  0  0  0  0  0  0  0
   60.2768   34.2569   45.6161 H   0  0  0  0  0  0  0  0  0  0  0  0
   58.3397   34.2617   48.2057 H   0  0  0  0  0  0  0  0  0  0  0  0
   57.5598   34.7634   46.9563 H   0  0  0  0  0  0  0  0  0  0  0  0
   59.9708   30.4443   45.6409 H   0  0  0  0  0  0  0  0  0  0  0  0
   58.6117   29.5148   46.3772 H   0  0  0  0  0  0  0  0  0  0  0  0
   59.7395   29.2001   43.5512 H   0  0  0  0  0  0  0  0  0  0  0  0
   59.8828   28.0403   44.9508 H   0  0  0  0  0  0  0  0  0  0  0  0
  1  2  1  0
  2  3  1  0
  3  4  1  0
  4  5  2  0
  4  6  1  0
  6  7  1  0
  7  8  1  0
  8  9  1  0
  9 10  1  0
 10 11  1  0
 11 12  2  0
 11 13  1  0
 13 14  1  0
 14 15  1  0
 10 16  1  0
 16 17  1  0
 17  7  1  0
 15 13  1  0
  1 18  1  0
  1 19  1  0
  1 20  1  0
  2 21  1  0
  2 22  1  0
  6 23  1  0
  6 24  1  0
  8 25  1  0
  8 26  1  0
  9 27  1  0
  9 28  1  0
 13 29  1  0
 14 30  1  0
 14 31  1  0
 15 32  1  0
 15 33  1  0
 16 34  1  0
 16 35  1  0
 17 36  1  0
 17 37  1  0
M  CHG  1   3  -1
M  END
>  <UniqueID>  (42) 
39

>  <SMILES>  (42) 
CC[N-]C(=O)CN1CCN(C(=O)C2CC2)CC1

>  <Energy>  (42) 
299.5453935565637

>  <Genealogy>  (42) 
CC[N-]C(=O)CN1CCN(C(=O)C2CC2)CC1 (protonated)
CC[N-]C(=O)CN1CCN(C(=O)C2CC2)CC1 (3D coordinates assigned)
CC[N-]C(=O)CN1CCN(C(=O)C2CC2)CC1 (nonaromatic ring conformer: 299.5453935565637 kcal/mol)

>  <smiles>  (42) 
CCNC(=O)CN1CCN(C(=O)C2CC2)CC1

>  <score_type>  (42) 
oracle

>  <origin>  (42) 
adg

>  <m_score__min__energy>  (42) 
-7.96

>  <m_primary>  (42) 
energy

$$$$
42:0
     RDKit          3D

 52 54  0  0  0  0  0  0  0  0999 V2000
   60.4810   29.8840   46.6580 C   0  0  0  0  0  0  0  0  0  0  0  0
   59.4690   30.3590   45.6170 C   0  0  0  0  0  0  0  0  0  0  0  0
   58.1180   30.7130   46.2470 C   0  0  0  0  0  0  0  0  0  0  0  0
   57.3770   31.6610   45.3750 N   0  0  0  0  0  0  0  0  0  0  0  0
   57.8350   31.6210   43.9670 C   0  0  0  0  0  0  0  0  0  0  0  0
   57.0010   30.6930   43.0710 C   0  0  0  0  0  0  0  0  0  0  0  0
   57.3270   33.0390   45.9130 C   0  0  0  0  0  0  0  0  0  0  0  0
   58.7370   33.5980   46.1260 C   0  0  0  0  0  0  0  0  0  0  0  0
   58.9800   33.8730   47.5430 N   0  0  0  0  0  0  0  0  0  0  0  0
   59.9470   33.1300   48.3070 C   0  0  0  0  0  0  0  0  0  0  0  0
   61.2970   33.1270   47.9160 C   0  0  0  0  0  0  0  0  0  0  0  0
   61.7320   33.9040   46.8210 C   0  0  0  0  0  0  0  0  0  0  0  0
   63.0500   33.8360   46.3790 C   0  0  0  0  0  0  0  0  0  0  0  0
   63.9530   32.9910   47.0120 C   0  0  0  0  0  0  0  0  0  0  0  0
   63.5540   32.2330   48.1120 C   0  0  0  0  0  0  0  0  0  0  0  0
   62.2290   32.3150   48.6160 C   0  0  0  0  0  0  0  0  0  0  0  0
   61.8330   31.6150   49.7410 N   0  0  0  0  0  0  0  0  0  0  0  0
   62.8500   30.9950   50.6210 C   0  0  0  0  0  0  0  0  0  0  0  0
   60.4920   31.5290   50.0700 C   0  0  0  0  0  0  0  0  0  0  0  0
   60.0230   30.6420   51.0730 C   0  0  0  0  0  0  0  0  0  0  0  0
   58.6820   30.6300   51.4540 C   0  0  0  0  0  0  0  0  0  0  0  0
   57.7750   31.4930   50.8500 C   0  0  0  0  0  0  0  0  0  0  0  0
   58.1950   32.3390   49.8270 C   0  0  0  0  0  0  0  0  0  0  0  0
   59.5380   32.3360   49.3920 C   0  0  0  0  0  0  0  0  0  0  0  0
   60.0841   30.0703   47.6669 H   0  0  0  0  0  0  0  0  0  0  0  0
   60.6622   28.8068   46.5284 H   0  0  0  0  0  0  0  0  0  0  0  0
   61.4254   30.4329   46.5284 H   0  0  0  0  0  0  0  0  0  0  0  0
   59.8702   31.2508   45.1133 H   0  0  0  0  0  0  0  0  0  0  0  0
   59.3056   29.5377   44.9037 H   0  0  0  0  0  0  0  0  0  0  0  0
   57.5244   29.7955   46.3729 H   0  0  0  0  0  0  0  0  0  0  0  0
   58.2912   31.1858   47.2250 H   0  0  0  0  0  0  0  0  0  0  0  0
   57.7821   32.6399   43.5558 H   0  0  0  0  0  0  0  0  0  0  0  0
   58.8605   31.2233   43.9744 H   0  0  0  0  0  0  0  0  0  0  0  0
   56.3976   30.0216   43.6995 H   0  0  0  0  0  0  0  0  0  0  0  0
   56.3361   31.2968   42.4359 H   0  0  0  0  0  0  0  0  0  0  0  0
   57.6721   30.0961   42.4359 H   0  0  0  0  0  0  0  0  0  0  0  0
   56.7885   33.6831   45.2022 H   0  0  0  0  0  0  0  0  0  0  0  0
   56.8090   33.0173   46.8831 H   0  0  0  0  0  0  0  0  0  0  0  0
   59.4737   32.8628   45.7701 H   0  0  0  0  0  0  0  0  0  0  0  0
   58.8314   34.5387   45.5637 H   0  0  0  0  0  0  0  0  0  0  0  0
   58.4980   34.6850   47.9930 H   0  0  0  0  0  0  0  0  0  0  0  0
   61.0212   34.5709   46.3111 H   0  0  0  0  0  0  0  0  0  0  0  0
   63.3769   34.4516   45.5280 H   0  0  0  0  0  0  0  0  0  0  0  0
   64.9871   32.9197   46.6438 H   0  0  0  0  0  0  0  0  0  0  0  0
   64.2770   31.5608   48.5971 H   0  0  0  0  0  0  0  0  0  0  0  0
   62.5756   31.1623   51.6730 H   0  0  0  0  0  0  0  0  0  0  0  0
   62.8974   29.9142   50.4218 H   0  0  0  0  0  0  0  0  0  0  0  0
   63.8324   31.4480   50.4218 H   0  0  0  0  0  0  0  0  0  0  0  0
   60.7292   29.9522   51.5582 H   0  0  0  0  0  0  0  0  0  0  0  0
   58.3404   29.9351   52.2354 H   0  0  0  0  0  0  0  0  0  0  0  0
   56.7258   31.5076   51.1801 H   0  0  0  0  0  0  0  0  0  0  0  0
   57.4715   33.0180   49.3520 H   0  0  0  0  0  0  0  0  0  0  0  0
  1  2  1  0
  2  3  1  0
  3  4  1  0
  4  5  1  0
  5  6  1  0
  4  7  1  0
  7  8  1  0
  8  9  1  0
  9 10  1  0
 10 11  2  0
 11 12  1  0
 12 13  2  0
 13 14  1  0
 14 15  2  0
 15 16  1  0
 16 17  2  0
 17 18  1  0
 17 19  1  0
 19 20  2  0
 20 21  1  0
 21 22  2  0
 22 23  1  0
 23 24  2  0
 24 10  1  0
 16 11  1  0
 24 19  1  0
  1 25  1  0
  1 26  1  0
  1 27  1  0
  2 28  1  0
  2 29  1  0
  3 30  1  0
  3 31  1  0
  5 32  1  0
  5 33  1  0
  6 34  1  0
  6 35  1  0
  6 36  1  0
  7 37  1  0
  7 38  1  0
  8 39  1  0
  8 40  1  0
  9 41  1  0
 12 42  1  0
 13 43  1  0
 14 44  1  0
 15 45  1  0
 18 46  1  0
 18 47  1  0
 18 48  1  0
 20 49  1  0
 21 50  1  0
 22 51  1  0
 23 52  1  0
M  CHG  1  17   1
M  END
>  <UniqueID>  (43) 
40

>  <SMILES>  (43) 
CCCN(CC)CCNc1c2ccccc2[n+](C)c2ccccc12

>  <Energy>  (43) 
76.90802742428684

>  <Genealogy>  (43) 
CCCN(CC)CCNc1c2ccccc2[n+](C)c2ccccc12 (3D coordinates assigned)
CCCN(CC)CCNc1c2ccccc2[n+](C)c2ccccc12 (optimized conformer: 76.90802742428684 kcal/mol)

>  <smiles>  (43) 
CCCN(CC)CCNc1c2ccccc2[n+](C)c2ccccc12

>  <score_type>  (43) 
oracle

>  <origin>  (43) 
adg

>  <m_score__min__energy>  (43) 
-5.4500000000000002

>  <m_primary>  (43) 
energy

$$$$
43:0
     RDKit          3D

 53 57  0  0  0  0  0  0  0  0999 V2000
   66.1160   32.5970   50.1310 C   0  0  0  0  0  0  0  0  0  0  0  0
   64.9870   31.9210   49.5860 O   0  0  0  0  0  0  0  0  0  0  0  0
   63.9090   32.5600   48.9560 C   0  0  0  0  0  0  0  0  0  0  0  0
   63.2490   33.6660   49.5270 C   0  0  0  0  0  0  0  0  0  0  0  0
   62.1780   34.2690   48.8600 C   0  0  0  0  0  0  0  0  0  0  0  0
   61.7530   33.7800   47.6150 C   0  0  0  0  0  0  0  0  0  0  0  0
   60.5840   34.4100   46.9020 C   0  0  0  0  0  0  0  0  0  0  0  0
   59.3280   34.2170   47.6640 N   0  0  0  0  0  0  0  0  0  0  0  0
   58.1180   34.2000   46.8260 C   0  0  0  0  0  0  0  0  0  0  0  0
   58.0960   33.0160   45.8530 C   0  0  0  0  0  0  0  0  0  0  0  0
   58.6410   31.7250   46.4380 C   0  0  0  0  0  0  0  0  0  0  0  0
   58.6390   30.5360   45.6560 C   0  0  0  0  0  0  0  0  0  0  0  0
   58.1460   30.4980   44.2530 C   0  0  0  0  0  0  0  0  0  0  0  0
   58.5180   31.3730   43.4240 O   0  0  0  0  0  0  0  0  0  0  0  0
   57.1950   29.4120   43.8160 C   0  0  0  0  0  0  0  0  0  0  0  0
   56.2640   29.7300   42.6510 C   0  0  0  0  0  0  0  0  0  0  0  0
   55.7290   29.7330   44.0710 C   0  0  0  0  0  0  0  0  0  0  0  0
   59.1540   29.3530   46.2030 C   0  0  0  0  0  0  0  0  0  0  0  0
   59.6320   29.3120   47.5130 C   0  0  0  0  0  0  0  0  0  0  0  0
   60.0870   28.1050   48.0570 C   0  0  0  0  0  0  0  0  0  0  0  0
   60.5380   28.0610   49.3730 C   0  0  0  0  0  0  0  0  0  0  0  0
   60.5210   29.2240   50.1380 C   0  0  0  0  0  0  0  0  0  0  0  0
   60.0830   30.3950   49.6040 N   0  0  0  0  0  0  0  0  0  0  0  0
   59.6550   30.4850   48.3020 C   0  0  0  0  0  0  0  0  0  0  0  0
   59.2300   31.7150   47.7320 C   0  0  0  0  0  0  0  0  0  0  0  0
   59.3740   33.0140   48.5140 C   0  0  0  0  0  0  0  0  0  0  0  0
   62.4090   32.6770   47.0480 C   0  0  0  0  0  0  0  0  0  0  0  0
   63.4800   32.0750   47.7150 C   0  0  0  0  0  0  0  0  0  0  0  0
   66.0662   32.5672   51.2295 H   0  0  0  0  0  0  0  0  0  0  0  0
   67.0383   32.1024   49.7922 H   0  0  0  0  0  0  0  0  0  0  0  0
   66.1155   33.6435   49.7922 H   0  0  0  0  0  0  0  0  0  0  0  0
   63.5775   34.0568   50.5014 H   0  0  0  0  0  0  0  0  0  0  0  0
   61.6662   35.1307   49.3133 H   0  0  0  0  0  0  0  0  0  0  0  0
   60.7721   35.4876   46.7862 H   0  0  0  0  0  0  0  0  0  0  0  0
   60.4738   33.9291   45.9188 H   0  0  0  0  0  0  0  0  0  0  0  0
   57.2362   34.1355   47.4805 H   0  0  0  0  0  0  0  0  0  0  0  0
   58.1111   35.1240   46.2291 H   0  0  0  0  0  0  0  0  0  0  0  0
   57.0550   32.8427   45.5427 H   0  0  0  0  0  0  0  0  0  0  0  0
   58.7503   33.2845   45.0105 H   0  0  0  0  0  0  0  0  0  0  0  0
   57.8817   28.5822   44.0394 H   0  0  0  0  0  0  0  0  0  0  0  0
   56.3732   30.6772   42.1026 H   0  0  0  0  0  0  0  0  0  0  0  0
   55.9860   29.2207   41.7164 H   0  0  0  0  0  0  0  0  0  0  0  0
   55.4499   30.6826   44.5510 H   0  0  0  0  0  0  0  0  0  0  0  0
   54.9021   29.2265   44.5904 H   0  0  0  0  0  0  0  0  0  0  0  0
   59.1818   28.4409   45.5888 H   0  0  0  0  0  0  0  0  0  0  0  0
   60.0881   27.1914   47.4444 H   0  0  0  0  0  0  0  0  0  0  0  0
   60.9039   27.1174   49.8040 H   0  0  0  0  0  0  0  0  0  0  0  0
   60.8646   29.1952   51.1826 H   0  0  0  0  0  0  0  0  0  0  0  0
   60.0620   31.2170   50.2460 H   0  0  0  0  0  0  0  0  0  0  0  0
   58.5552   33.0728   49.2461 H   0  0  0  0  0  0  0  0  0  0  0  0
   60.3624   32.9948   48.9963 H   0  0  0  0  0  0  0  0  0  0  0  0
   62.0793   32.2844   46.0748 H   0  0  0  0  0  0  0  0  0  0  0  0
   63.9900   31.2127   47.2607 H   0  0  0  0  0  0  0  0  0  0  0  0
  1  2  1  0
  2  3  1  0
  3  4  2  0
  4  5  1  0
  5  6  2  0
  6  7  1  0
  7  8  1  0
  8  9  1  0
  9 10  1  0
 10 11  1  0
 11 12  2  0
 12 13  1  0
 13 14  2  0
 13 15  1  0
 15 16  1  0
 16 17  1  0
 12 18  1  0
 18 19  2  0
 19 20  1  0
 20 21  2  0
 21 22  1  0
 22 23  2  0
 23 24  1  0
 24 25  2  0
 25 26  1  0
  6 27  1  0
 27 28  2  0
 28  3  1  0
 26  8  1  0
 25 11  1  0
 17 15  1  0
 24 19  1  0
  1 29  1  0
  1 30  1  0
  1 31  1  0
  4 32  1  0
  5 33  1  0
  7 34  1  0
  7 35  1  0
  9 36  1  0
  9 37  1  0
 10 38  1  0
 10 39  1  0
 15 40  1  0
 16 41  1  0
 16 42  1  0
 17 43  1  0
 17 44  1  0
 18 45  1  0
 20 46  1  0
 21 47  1  0
 22 48  1  0
 23 49  1  0
 26 50  1  0
 26 51  1  0
 27 52  1  0
 28 53  1  0
M  CHG  1  23   1
M  END
>  <UniqueID>  (44) 
41

>  <SMILES>  (44) 
COc1ccc(CN2CCc3c(C(=O)C4CC4)cc4ccc[nH+]c4c3C2)cc1

>  <Energy>  (44) 
341.05571453896243

>  <Genealogy>  (44) 
COc1ccc(CN2CCc3c(C(=O)C4CC4)cc4ccc[nH+]c4c3C2)cc1 (protonated)
COc1ccc(CN2CCc3c(C(=O)C4CC4)cc4ccc[nH+]c4c3C2)cc1 (3D coordinates assigned)
COc1ccc(CN2CCc3c(C(=O)C4CC4)cc4ccc[nH+]c4c3C2)cc1 (nonaromatic ring conformer: 341.05571453896243 kcal/mol)

>  <smiles>  (44) 
COc1ccc(CN2CCc3c(C(=O)C4CC4)cc4cccnc4c3C2)cc1

>  <score_type>  (44) 
oracle

>  <origin>  (44) 
adg

>  <m_score__min__energy>  (44) 
-7.4800000000000004

>  <m_primary>  (44) 
energy

$$$$
44:0
     RDKit          3D

 47 49  0  0  0  0  0  0  0  0999 V2000
   59.8510   32.3300   49.7680 C   0  0  0  0  0  0  0  0  0  0  0  0
   60.4510   33.7320   49.7140 C   0  0  0  0  0  0  0  0  0  0  0  0
   61.5280   33.8010   48.7200 N   0  0  0  0  0  0  0  0  0  0  0  0
   62.8470   34.0020   48.9450 C   0  0  0  0  0  0  0  0  0  0  0  0
   63.5980   34.2300   50.5650 S   0  0  0  0  0  0  0  0  0  0  0  0
   64.4960   32.6280   50.6740 C   0  0  0  0  0  0  0  0  0  0  0  0
   63.7010   31.4800   50.0460 C   0  0  0  0  0  0  0  0  0  0  0  0
   65.9080   32.7150   50.0930 C   0  0  0  0  0  0  0  0  0  0  0  0
   63.5570   33.9870   47.8000 N   0  0  0  0  0  0  0  0  0  0  0  0
   62.6820   33.8030   46.8260 N   0  0  0  0  0  0  0  0  0  0  0  0
   61.4580   33.6820   47.3740 C   0  0  0  0  0  0  0  0  0  0  0  0
   60.2260   33.5210   46.5710 C   0  0  0  0  0  0  0  0  0  0  0  0
   59.6170   34.6510   46.0060 C   0  0  0  0  0  0  0  0  0  0  0  0
   58.4730   34.5170   45.2200 C   0  0  0  0  0  0  0  0  0  0  0  0
   57.9280   33.2530   44.9840 C   0  0  0  0  0  0  0  0  0  0  0  0
   58.5230   32.1090   45.5380 C   0  0  0  0  0  0  0  0  0  0  0  0
   57.9530   30.7750   45.2560 C   0  0  0  0  0  0  0  0  0  0  0  0
   58.0280   29.4660   46.3160 S   0  0  0  0  0  0  0  0  0  0  0  0
   57.2000   28.4350   45.2830 C   0  0  0  0  0  0  0  0  0  0  0  0
   56.8090   27.0350   45.6120 C   0  0  0  0  0  0  0  0  0  0  0  0
   56.8480   29.0580   44.1380 N   0  0  0  0  0  0  0  0  0  0  0  0
   57.2760   30.3500   44.1020 C   0  0  0  0  0  0  0  0  0  0  0  0
   57.0220   31.2040   42.8990 C   0  0  0  0  0  0  0  0  0  0  0  0
   59.6860   32.2500   46.3140 C   0  0  0  0  0  0  0  0  0  0  0  0
   59.7213   32.0269   50.8174 H   0  0  0  0  0  0  0  0  0  0  0  0
   58.8739   32.3296   49.2628 H   0  0  0  0  0  0  0  0  0  0  0  0
   60.5253   31.6229   49.2628 H   0  0  0  0  0  0  0  0  0  0  0  0
   59.6637   34.4508   49.4429 H   0  0  0  0  0  0  0  0  0  0  0  0
   60.8680   33.9748   50.7025 H   0  0  0  0  0  0  0  0  0  0  0  0
   64.6021   32.4036   51.7456 H   0  0  0  0  0  0  0  0  0  0  0  0
   63.2684   30.8554   50.8415 H   0  0  0  0  0  0  0  0  0  0  0  0
   62.8933   31.8913   49.4227 H   0  0  0  0  0  0  0  0  0  0  0  0
   64.3701   30.8686   49.4227 H   0  0  0  0  0  0  0  0  0  0  0  0
   66.6398   32.7601   50.9130 H   0  0  0  0  0  0  0  0  0  0  0  0
   66.1051   31.8273   49.4740 H   0  0  0  0  0  0  0  0  0  0  0  0
   65.9947   33.6202   49.4740 H   0  0  0  0  0  0  0  0  0  0  0  0
   62.9270   33.7560   45.8120 H   0  0  0  0  0  0  0  0  0  0  0  0
   60.0443   35.6489   46.1839 H   0  0  0  0  0  0  0  0  0  0  0  0
   57.9987   35.4090   44.7848 H   0  0  0  0  0  0  0  0  0  0  0  0
   57.0273   33.1535   44.3604 H   0  0  0  0  0  0  0  0  0  0  0  0
   56.7744   26.9111   46.7044 H   0  0  0  0  0  0  0  0  0  0  0  0
   55.8170   26.8219   45.1872 H   0  0  0  0  0  0  0  0  0  0  0  0
   57.5470   26.3387   45.1872 H   0  0  0  0  0  0  0  0  0  0  0  0
   56.7222   32.2120   43.2216 H   0  0  0  0  0  0  0  0  0  0  0  0
   57.9395   31.2698   42.2957 H   0  0  0  0  0  0  0  0  0  0  0  0
   56.2177   30.7577   42.2957 H   0  0  0  0  0  0  0  0  0  0  0  0
   60.1785   31.3561   46.7243 H   0  0  0  0  0  0  0  0  0  0  0  0
  1  2  1  0
  2  3  1  0
  3  4  1  0
  4  5  1  0
  5  6  1  0
  6  7  1  0
  6  8  1  0
  4  9  2  0
  9 10  1  0
 10 11  2  0
 11 12  1  0
 12 13  2  0
 13 14  1  0
 14 15  2  0
 15 16  1  0
 16 17  1  0
 17 18  1  0
 18 19  1  0
 19 20  1  0
 19 21  2  0
 21 22  1  0
 22 23  1  0
 16 24  2  0
 11  3  1  0
 24 12  1  0
 22 17  2  0
  1 25  1  0
  1 26  1  0
  1 27  1  0
  2 28  1  0
  2 29  1  0
  6 30  1  0
  7 31  1  0
  7 32  1  0
  7 33  1  0
  8 34  1  0
  8 35  1  0
  8 36  1  0
 10 37  1  0
 13 38  1  0
 14 39  1  0
 15 40  1  0
 20 41  1  0
 20 42  1  0
 20 43  1  0
 23 44  1  0
 23 45  1  0
 23 46  1  0
 24 47  1  0
M  CHG  1  10   1
M  END
>  <UniqueID>  (45) 
42

>  <SMILES>  (45) 
CCn1c(SC(C)C)n[nH+]c1-c1cccc(-c2sc(C)nc2C)c1

>  <Energy>  (45) 
110.88640273734211

>  <Genealogy>  (45) 
CCn1c(SC(C)C)n[nH+]c1-c1cccc(-c2sc(C)nc2C)c1 (protonated)
CCn1c(SC(C)C)n[nH+]c1-c1cccc(-c2sc(C)nc2C)c1 (3D coordinates assigned)
CCn1c(SC(C)C)n[nH+]c1-c1cccc(-c2sc(C)nc2C)c1 (optimized conformer: 110.88640273734211 kcal/mol)

>  <smiles>  (45) 
CCn1c(SC(C)C)nnc1-c1cccc(-c2sc(C)nc2C)c1

>  <score_type>  (45) 
oracle

>  <origin>  (45) 
adg

>  <m_score__min__energy>  (45) 
-6.8700000000000001

>  <m_primary>  (45) 
energy

$$$$
45:0
     RDKit          3D

 47 49  0  0  0  0  0  0  0  0999 V2000
   62.9550   32.4400   47.5390 C   0  0  0  0  0  0  0  0  0  0  0  0
   62.3900   33.8020   47.1500 C   0  0  0  0  0  0  0  0  0  0  0  0
   60.9860   34.0060   47.7240 C   0  0  0  0  0  0  0  0  0  0  0  0
   59.9880   33.9290   46.6570 N   0  0  0  0  0  0  0  0  0  0  0  0
   59.6270   34.9420   45.8320 C   0  0  0  0  0  0  0  0  0  0  0  0
   58.7060   34.5000   44.8890 C   0  0  0  0  0  0  0  0  0  0  0  0
   58.5230   33.1610   45.1600 C   0  0  0  0  0  0  0  0  0  0  0  0
   57.7280   32.2140   44.5200 C   0  0  0  0  0  0  0  0  0  0  0  0
   57.7700   30.8850   44.9920 C   0  0  0  0  0  0  0  0  0  0  0  0
   56.7630   29.6510   44.2320 S   0  0  0  0  0  0  0  0  0  0  0  0
   55.4020   29.6870   44.8710 O   0  0  0  0  0  0  0  0  0  0  0  0
   56.5890   30.0220   42.7860 O   0  0  0  0  0  0  0  0  0  0  0  0
   57.4050   28.0190   44.3140 N   0  0  1  0  0  0  0  0  0  0  0  0
   58.7970   27.9100   43.8190 C   0  0  0  0  0  0  0  0  0  0  0  0
   59.8730   28.2100   44.8790 C   0  0  0  0  0  0  0  0  0  0  0  0
   59.6440   27.4460   46.1880 C   0  0  2  0  0  0  0  0  0  0  0  0
   59.9820   25.9520   46.0560 C   0  0  0  0  0  0  0  0  0  0  0  0
   58.2150   27.6810   46.6860 C   0  0  0  0  0  0  0  0  0  0  0  0
   57.1640   27.3520   45.6160 C   0  0  0  0  0  0  0  0  0  0  0  0
   58.5710   30.5600   46.1140 C   0  0  0  0  0  0  0  0  0  0  0  0
   59.3630   31.5400   46.7380 C   0  0  0  0  0  0  0  0  0  0  0  0
   59.3150   32.8410   46.2320 C   0  0  0  0  0  0  0  0  0  0  0  0
   62.9895   32.3569   48.6353 H   0  0  0  0  0  0  0  0  0  0  0  0
   62.3119   31.6462   47.1311 H   0  0  0  0  0  0  0  0  0  0  0  0
   63.9711   32.3345   47.1311 H   0  0  0  0  0  0  0  0  0  0  0  0
   63.0535   34.5891   47.5376 H   0  0  0  0  0  0  0  0  0  0  0  0
   62.3272   33.8514   46.0529 H   0  0  0  0  0  0  0  0  0  0  0  0
   60.7813   33.2241   48.4701 H   0  0  0  0  0  0  0  0  0  0  0  0
   60.9316   34.9983   48.1955 H   0  0  0  0  0  0  0  0  0  0  0  0
   60.0097   35.9711   45.8992 H   0  0  0  0  0  0  0  0  0  0  0  0
   58.2259   35.0923   44.0961 H   0  0  0  0  0  0  0  0  0  0  0  0
   57.0862   32.4936   43.6715 H   0  0  0  0  0  0  0  0  0  0  0  0
   56.8200   27.4930   43.6220 H   0  0  0  0  0  0  0  0  0  0  0  0
   58.9239   28.6206   42.9889 H   0  0  0  0  0  0  0  0  0  0  0  0
   58.9407   26.8634   43.5124 H   0  0  0  0  0  0  0  0  0  0  0  0
   59.8631   29.2886   45.0948 H   0  0  0  0  0  0  0  0  0  0  0  0
   60.8413   27.8854   44.4702 H   0  0  0  0  0  0  0  0  0  0  0  0
   60.3383   27.8399   46.9448 H   0  0  0  0  0  0  0  0  0  0  0  0
   60.0823   25.5088   47.0578 H   0  0  0  0  0  0  0  0  0  0  0  0
   59.1768   25.4409   45.5079 H   0  0  0  0  0  0  0  0  0  0  0  0
   60.9288   25.8373   45.5079 H   0  0  0  0  0  0  0  0  0  0  0  0
   58.1094   28.7378   46.9725 H   0  0  0  0  0  0  0  0  0  0  0  0
   58.0431   27.0135   47.5433 H   0  0  0  0  0  0  0  0  0  0  0  0
   56.1786   27.6671   45.9897 H   0  0  0  0  0  0  0  0  0  0  0  0
   57.2197   26.2683   45.4354 H   0  0  0  0  0  0  0  0  0  0  0  0
   58.5735   29.5304   46.5012 H   0  0  0  0  0  0  0  0  0  0  0  0
   60.0010   31.2897   47.5984 H   0  0  0  0  0  0  0  0  0  0  0  0
  1  2  1  0
  2  3  1  0
  3  4  1  0
  4  5  1  0
  5  6  2  0
  6  7  1  0
  7  8  2  0
  8  9  1  0
  9 10  1  0
 10 11  2  0
 10 12  2  0
 10 13  1  0
 13 14  1  0
 14 15  1  0
 15 16  1  0
 16 17  1  0
 16 18  1  0
 18 19  1  0
  9 20  2  0
 20 21  1  0
 21 22  2  0
 22  4  1  0
 22  7  1  0
 19 13  1  0
  1 23  1  0
  1 24  1  0
  1 25  1  0
  2 26  1  0
  2 27  1  0
  3 28  1  0
  3 29  1  0
  5 30  1  0
  6 31  1  0
  8 32  1  0
 13 33  1  6
 14 34  1  0
 14 35  1  0
 15 36  1  0
 15 37  1  0
 16 38  1  1
 17 39  1  0
 17 40  1  0
 17 41  1  0
 18 42  1  0
 18 43  1  0
 19 44  1  0
 19 45  1  0
 20 46  1  0
 21 47  1  0
M  CHG  1  13   1
M  END
>  <UniqueID>  (46) 
43

>  <SMILES>  (46) 
CCCn1ccc2cc(S(=O)(=O)[NH+]3CCC(C)CC3)ccc21

>  <Energy>  (46) 
76.55850338032202

>  <Genealogy>  (46) 
CCCn1ccc2cc(S(=O)(=O)[NH+]3CCC(C)CC3)ccc21 (protonated)
CCCn1ccc2cc(S(=O)(=O)[NH+]3CCC(C)CC3)ccc21 (3D coordinates assigned)
CCCn1ccc2cc(S(=O)(=O)[NH+]3CCC(C)CC3)ccc21 (nonaromatic ring conformer: 76.55850338032202 kcal/mol)

>  <smiles>  (46) 
CCCn1ccc2cc(S(=O)(=O)N3CCC(C)CC3)ccc21

>  <score_type>  (46) 
oracle

>  <origin>  (46) 
adg

>  <m_score__min__energy>  (46) 
-7.75

>  <m_primary>  (46) 
energy

$$$$
