0:0
     RDKit          3D

 61 63  0  0  0  0  0  0  0  0999 V2000
   60.3010   34.4330   47.4910 C   0  0  0  0  0  0  0  0  0  0  0  0
   58.9470   34.8250   46.8970 C   0  0  0  0  0  0  0  0  0  0  0  0
   58.8810   34.5890   45.3820 C   0  0  0  0  0  0  0  0  0  0  0  0
   58.5450   33.1640   45.0580 C   0  0  0  0  0  0  0  0  0  0  0  0
   57.7400   32.7410   44.0070 C   0  0  0  0  0  0  0  0  0  0  0  0
   57.5340   31.3570   43.9930 C   0  0  0  0  0  0  0  0  0  0  0  0
   58.1670   30.6930   45.0380 C   0  0  0  0  0  0  0  0  0  0  0  0
   58.1140   29.2470   45.2960 C   0  0  0  0  0  0  0  0  0  0  0  0
   58.1450   28.6370   46.5450 C   0  0  0  0  0  0  0  0  0  0  0  0
   58.0700   27.2390   46.4840 C   0  0  0  0  0  0  0  0  0  0  0  0
   57.9800   26.7390   45.1840 C   0  0  0  0  0  0  0  0  0  0  0  0
   57.8800   25.3130   44.7880 C   0  0  0  0  0  0  0  0  0  0  0  0
   58.6490   24.3380   45.4460 C   0  0  0  0  0  0  0  0  0  0  0  0
   58.5610   22.9940   45.0750 C   0  0  0  0  0  0  0  0  0  0  0  0
   57.7040   22.5990   44.0380 C   0  0  0  0  0  0  0  0  0  0  0  0
   57.5930   21.1440   43.6600 C   0  0  0  0  0  0  0  0  0  0  0  0
   57.3660   20.3120   44.8540 N   0  0  0  0  0  0  0  0  0  0  0  0
   56.3160   20.8820   45.7260 C   0  0  0  0  0  0  0  0  0  0  0  0
   56.8650   21.3620   47.0790 C   0  0  0  0  0  0  0  0  0  0  0  0
   55.8200   21.4670   48.0320 O   0  0  0  0  0  0  0  0  0  0  0  0
   55.0280   22.6210   47.8300 C   0  0  0  0  0  0  0  0  0  0  0  0
   55.9050   23.8080   47.4340 C   0  0  0  0  0  0  0  0  0  0  0  0
   55.2240   24.5840   46.4660 O   0  0  0  0  0  0  0  0  0  0  0  0
   54.4770   23.7520   45.5950 C   0  0  0  0  0  0  0  0  0  0  0  0
   53.1400   24.4110   45.2560 C   0  0  0  0  0  0  0  0  0  0  0  0
   56.9180   23.5630   43.3920 C   0  0  0  0  0  0  0  0  0  0  0  0
   57.0100   24.9090   43.7580 C   0  0  0  0  0  0  0  0  0  0  0  0
   57.9900   28.0480   44.1230 S   0  0  0  0  0  0  0  0  0  0  0  0
   58.9820   31.8260   45.9780 S   0  0  0  0  0  0  0  0  0  0  0  0
   60.2387   34.4510   48.5891 H   0  0  0  0  0  0  0  0  0  0  0  0
   60.5692   33.4203   47.1555 H   0  0  0  0  0  0  0  0  0  0  0  0
   61.0688   35.1458   47.1555 H   0  0  0  0  0  0  0  0  0  0  0  0
   58.1620   34.2263   47.3821 H   0  0  0  0  0  0  0  0  0  0  0  0
   58.8021   35.9008   47.0749 H   0  0  0  0  0  0  0  0  0  0  0  0
   58.1089   35.2441   44.9522 H   0  0  0  0  0  0  0  0  0  0  0  0
   59.8699   34.8141   44.9560 H   0  0  0  0  0  0  0  0  0  0  0  0
   57.3084   33.4251   43.2615 H   0  0  0  0  0  0  0  0  0  0  0  0
   56.9302   30.8443   43.2298 H   0  0  0  0  0  0  0  0  0  0  0  0
   58.2210   29.1970   47.4887 H   0  0  0  0  0  0  0  0  0  0  0  0
   58.0810   26.5962   47.3766 H   0  0  0  0  0  0  0  0  0  0  0  0
   59.3261   24.6357   46.2602 H   0  0  0  0  0  0  0  0  0  0  0  0
   59.1677   22.2412   45.5996 H   0  0  0  0  0  0  0  0  0  0  0  0
   56.7507   21.0148   42.9644 H   0  0  0  0  0  0  0  0  0  0  0  0
   58.5332   20.8296   43.1833 H   0  0  0  0  0  0  0  0  0  0  0  0
   57.0530   19.3620   44.5400 H   0  0  0  0  0  0  0  0  0  0  0  0
   58.2650   20.1920   45.3800 H   0  0  0  0  0  0  0  0  0  0  0  0
   55.8556   21.7372   45.2096 H   0  0  0  0  0  0  0  0  0  0  0  0
   55.5836   20.0865   45.9278 H   0  0  0  0  0  0  0  0  0  0  0  0
   57.6139   20.6423   47.4413 H   0  0  0  0  0  0  0  0  0  0  0  0
   57.3237   22.3527   46.9446 H   0  0  0  0  0  0  0  0  0  0  0  0
   54.3002   22.4251   47.0288 H   0  0  0  0  0  0  0  0  0  0  0  0
   54.5041   22.8620   48.7668 H   0  0  0  0  0  0  0  0  0  0  0  0
   56.1127   24.4247   48.3209 H   0  0  0  0  0  0  0  0  0  0  0  0
   56.8550   23.4438   47.0157 H   0  0  0  0  0  0  0  0  0  0  0  0
   55.0477   23.5898   44.6687 H   0  0  0  0  0  0  0  0  0  0  0  0
   54.2876   22.7891   46.0919 H   0  0  0  0  0  0  0  0  0  0  0  0
   52.6130   24.6707   46.1860 H   0  0  0  0  0  0  0  0  0  0  0  0
   53.3195   25.3238   44.6691 H   0  0  0  0  0  0  0  0  0  0  0  0
   52.5254   23.7126   44.6691 H   0  0  0  0  0  0  0  0  0  0  0  0
   56.2255   23.2590   42.5932 H   0  0  0  0  0  0  0  0  0  0  0  0
   56.3971   25.6589   43.2365 H   0  0  0  0  0  0  0  0  0  0  0  0
  1  2  1  0
  2  3  1  0
  3  4  1  0
  4  5  2  0
  5  6  1  0
  6  7  2  0
  7  8  1  0
  8  9  2  0
  9 10  1  0
 10 11  2  0
 11 12  1  0
 12 13  2  0
 13 14  1  0
 14 15  2  0
 15 16  1  0
 16 17  1  0
 17 18  1  0
 18 19  1  0
 19 20  1  0
 20 21  1  0
 21 22  1  0
 22 23  1  0
 23 24  1  0
 24 25  1  0
 15 26  1  0
 26 27  2  0
 11 28  1  0
  7 29  1  0
 29  4  1  0
 28  8  1  0
 27 12  1  0
  1 30  1  0
  1 31  1  0
  1 32  1  0
  2 33  1  0
  2 34  1  0
  3 35  1  0
  3 36  1  0
  5 37  1  0
  6 38  1  0
  9 39  1  0
 10 40  1  0
 13 41  1  0
 14 42  1  0
 16 43  1  0
 16 44  1  0
 17 45  1  0
 17 46  1  0
 18 47  1  0
 18 48  1  0
 19 49  1  0
 19 50  1  0
 21 51  1  0
 21 52  1  0
 22 53  1  0
 22 54  1  0
 24 55  1  0
 24 56  1  0
 25 57  1  0
 25 58  1  0
 25 59  1  0
 26 60  1  0
 27 61  1  0
M  CHG  1  17   1
M  END
>  <UniqueID>  (1) 
1

>  <SMILES>  (1) 
CCCc1ccc(-c2ccc(-c3ccc(C[NH2+]CCOCCOCC)cc3)s2)s1

>  <Energy>  (1) 
112.27126131443661

>  <Genealogy>  (1) 
CCCc1ccc(-c2ccc(-c3ccc(C[NH2+]CCOCCOCC)cc3)s2)s1 (protonated)
CCCc1ccc(-c2ccc(-c3ccc(C[NH2+]CCOCCOCC)cc3)s2)s1 (3D coordinates assigned)
CCCc1ccc(-c2ccc(-c3ccc(C[NH2+]CCOCCOCC)cc3)s2)s1 (optimized conformer: 112.27126131443661 kcal/mol)

>  <smiles>  (1) 
CCCc1ccc(-c2ccc(-c3ccc(CNCCOCCOCC)cc3)s2)s1

>  <score_type>  (1) 
oracle

>  <origin>  (1) 
adg

>  <m_score__min__energy>  (1) 
-6.5700000000000003

>  <m_primary>  (1) 
energy

$$$$
1:0
     RDKit          3D

 44 45  0  0  0  0  0  0  0  0999 V2000
   55.5770   29.7670   43.9860 C   0  0  0  0  0  0  0  0  0  0  0  0
   56.3620   30.7830   44.5690 O   0  0  0  0  0  0  0  0  0  0  0  0
   57.6240   30.8710   43.9300 C   0  0  0  0  0  0  0  0  0  0  0  0
   58.7020   30.2710   44.8300 C   0  0  0  0  0  0  0  0  0  0  0  0
   58.2500   30.2730   46.2270 N   0  0  0  0  0  0  0  0  0  0  0  0
   59.3690   30.4340   47.1700 C   0  0  0  0  0  0  0  0  0  0  0  0
   58.8910   31.1840   48.4150 C   0  0  0  0  0  0  0  0  0  0  0  0
   58.0910   32.3120   48.0590 O   0  0  0  0  0  0  0  0  0  0  0  0
   58.3360   33.1930   46.9920 C   0  0  0  0  0  0  0  0  0  0  0  0
   57.4290   33.3390   45.9210 C   0  0  0  0  0  0  0  0  0  0  0  0
   57.7120   34.2090   44.8670 C   0  0  0  0  0  0  0  0  0  0  0  0
   58.8990   34.9410   44.8620 C   0  0  0  0  0  0  0  0  0  0  0  0
   59.8090   34.8050   45.9110 C   0  0  0  0  0  0  0  0  0  0  0  0
   59.5370   33.9390   46.9850 C   0  0  0  0  0  0  0  0  0  0  0  0
   60.5380   33.7860   48.0700 C   0  0  0  0  0  0  0  0  0  0  0  0
   60.1530   33.9490   49.4120 C   0  0  0  0  0  0  0  0  0  0  0  0
   61.0960   33.8320   50.4360 C   0  0  0  0  0  0  0  0  0  0  0  0
   62.4280   33.5450   50.1330 C   0  0  0  0  0  0  0  0  0  0  0  0
   62.8250   33.3540   48.8020 C   0  0  0  0  0  0  0  0  0  0  0  0
   64.2640   33.0860   48.4730 C   0  0  0  0  0  0  0  0  0  0  0  0
   61.8790   33.4850   47.7740 C   0  0  0  0  0  0  0  0  0  0  0  0
   55.1107   29.1635   44.7787 H   0  0  0  0  0  0  0  0  0  0  0  0
   54.7932   30.2216   43.3623 H   0  0  0  0  0  0  0  0  0  0  0  0
   56.2147   29.1233   43.3623 H   0  0  0  0  0  0  0  0  0  0  0  0
   57.5917   30.3176   42.9799 H   0  0  0  0  0  0  0  0  0  0  0  0
   57.8599   31.9276   43.7354 H   0  0  0  0  0  0  0  0  0  0  0  0
   58.9054   29.2370   44.5147 H   0  0  0  0  0  0  0  0  0  0  0  0
   59.6181   30.8742   44.7466 H   0  0  0  0  0  0  0  0  0  0  0  0
   57.5920   31.0790   46.3490 H   0  0  0  0  0  0  0  0  0  0  0  0
   59.7460   29.4429   47.4625 H   0  0  0  0  0  0  0  0  0  0  0  0
   60.1734   31.0074   46.6860 H   0  0  0  0  0  0  0  0  0  0  0  0
   58.2938   30.5021   49.0382 H   0  0  0  0  0  0  0  0  0  0  0  0
   59.7722   31.5408   48.9683 H   0  0  0  0  0  0  0  0  0  0  0  0
   56.4920   32.7629   45.9168 H   0  0  0  0  0  0  0  0  0  0  0  0
   56.9970   34.3176   44.0382 H   0  0  0  0  0  0  0  0  0  0  0  0
   59.1182   35.6265   44.0301 H   0  0  0  0  0  0  0  0  0  0  0  0
   60.7467   35.3799   45.8977 H   0  0  0  0  0  0  0  0  0  0  0  0
   59.1037   34.1699   49.6572 H   0  0  0  0  0  0  0  0  0  0  0  0
   60.7882   33.9663   51.4835 H   0  0  0  0  0  0  0  0  0  0  0  0
   63.1694   33.4684   50.9420 H   0  0  0  0  0  0  0  0  0  0  0  0
   64.8393   32.9789   49.4044 H   0  0  0  0  0  0  0  0  0  0  0  0
   64.3395   32.1584   47.8867 H   0  0  0  0  0  0  0  0  0  0  0  0
   64.6683   33.9243   47.8867 H   0  0  0  0  0  0  0  0  0  0  0  0
   62.1894   33.3510   46.7272 H   0  0  0  0  0  0  0  0  0  0  0  0
  1  2  1  0
  2  3  1  0
  3  4  1  0
  4  5  1  0
  5  6  1  0
  6  7  1  0
  7  8  1  0
  8  9  1  0
  9 10  2  0
 10 11  1  0
 11 12  2  0
 12 13  1  0
 13 14  2  0
 14 15  1  0
 15 16  2  0
 16 17  1  0
 17 18  2  0
 18 19  1  0
 19 20  1  0
 19 21  2  0
 14  9  1  0
 21 15  1  0
  1 22  1  0
  1 23  1  0
  1 24  1  0
  3 25  1  0
  3 26  1  0
  4 27  1  0
  4 28  1  0
  5 29  1  0
  6 30  1  0
  6 31  1  0
  7 32  1  0
  7 33  1  0
 10 34  1  0
 11 35  1  0
 12 36  1  0
 13 37  1  0
 16 38  1  0
 17 39  1  0
 18 40  1  0
 20 41  1  0
 20 42  1  0
 20 43  1  0
 21 44  1  0
M  END
>  <UniqueID>  (2) 
2

>  <SMILES>  (2) 
COCCNCCOc1ccccc1-c1cccc(C)c1

>  <Energy>  (2) 
45.01065829698895

>  <Genealogy>  (2) 
COCCNCCOc1ccccc1-c1cccc(C)c1 (3D coordinates assigned)
COCCNCCOc1ccccc1-c1cccc(C)c1 (optimized conformer: 45.01065829698895 kcal/mol)

>  <smiles>  (2) 
COCCNCCOc1ccccc1-c1cccc(C)c1

>  <score_type>  (2) 
oracle

>  <origin>  (2) 
adg

>  <m_score__min__energy>  (2) 
-7.79

>  <m_primary>  (2) 
energy

$$$$
2:0
     RDKit          3D

 39 40  0  0  0  0  0  0  0  0999 V2000
   58.6230   28.5980   44.7500 C   0  0  0  0  0  0  0  0  0  0  0  0
   57.7620   29.5190   45.6270 C   0  0  0  0  0  0  0  0  0  0  0  0
   56.9860   30.5350   44.8790 N   0  0  0  0  0  0  0  0  0  0  0  0
   55.8390   30.0140   44.1190 C   0  0  0  0  0  0  0  0  0  0  0  0
   57.7890   31.5470   44.1600 C   0  0  0  0  0  0  0  0  0  0  0  0
   58.5170   32.5050   45.0670 C   0  0  0  0  0  0  0  0  0  0  0  0
   59.6550   32.2110   45.7210 N   0  0  0  0  0  0  0  0  0  0  0  0
   59.9580   33.3330   46.4060 C   0  0  0  0  0  0  0  0  0  0  0  0
   61.1150   33.4810   47.3160 C   0  0  0  0  0  0  0  0  0  0  0  0
   62.3990   33.3340   46.7680 C   0  0  0  0  0  0  0  0  0  0  0  0
   63.5350   33.5050   47.5590 C   0  0  0  0  0  0  0  0  0  0  0  0
   63.4040   33.8220   48.9100 C   0  0  0  0  0  0  0  0  0  0  0  0
   62.1360   33.9470   49.4820 C   0  0  0  0  0  0  0  0  0  0  0  0
   62.0420   34.2480   50.8030 F   0  0  0  0  0  0  0  0  0  0  0  0
   60.9780   33.7510   48.7040 C   0  0  0  0  0  0  0  0  0  0  0  0
   59.6290   33.8320   49.3750 C   0  0  0  0  0  0  0  0  0  0  0  0
   59.0700   34.2850   46.2070 O   0  0  0  0  0  0  0  0  0  0  0  0
   58.1750   33.8110   45.3720 C   0  0  0  0  0  0  0  0  0  0  0  0
   56.9910   34.5840   44.8890 C   0  0  0  0  0  0  0  0  0  0  0  0
   59.2330   27.9455   45.3920 H   0  0  0  0  0  0  0  0  0  0  0  0
   57.9703   27.9811   44.1149 H   0  0  0  0  0  0  0  0  0  0  0  0
   59.2824   29.2078   44.1149 H   0  0  0  0  0  0  0  0  0  0  0  0
   57.0542   28.8930   46.1902 H   0  0  0  0  0  0  0  0  0  0  0  0
   58.4580   30.0729   46.2741 H   0  0  0  0  0  0  0  0  0  0  0  0
   55.0654   29.6626   44.8176 H   0  0  0  0  0  0  0  0  0  0  0  0
   55.4256   30.8127   43.4856 H   0  0  0  0  0  0  0  0  0  0  0  0
   56.1685   29.1772   43.4856 H   0  0  0  0  0  0  0  0  0  0  0  0
   58.5323   31.0234   43.5409 H   0  0  0  0  0  0  0  0  0  0  0  0
   57.0868   32.1453   43.5609 H   0  0  0  0  0  0  0  0  0  0  0  0
   60.1660   31.3010   45.7200 H   0  0  0  0  0  0  0  0  0  0  0  0
   62.5104   33.0812   45.7033 H   0  0  0  0  0  0  0  0  0  0  0  0
   64.5353   33.3896   47.1162 H   0  0  0  0  0  0  0  0  0  0  0  0
   64.3017   33.9741   49.5273 H   0  0  0  0  0  0  0  0  0  0  0  0
   59.7616   33.8240   50.4670 H   0  0  0  0  0  0  0  0  0  0  0  0
   59.1248   34.7620   49.0736 H   0  0  0  0  0  0  0  0  0  0  0  0
   59.0172   32.9690   49.0736 H   0  0  0  0  0  0  0  0  0  0  0  0
   56.4198   34.9570   45.7519 H   0  0  0  0  0  0  0  0  0  0  0  0
   57.3318   35.4341   44.2798 H   0  0  0  0  0  0  0  0  0  0  0  0
   56.3498   33.9300   44.2798 H   0  0  0  0  0  0  0  0  0  0  0  0
  1  2  1  0
  2  3  1  0
  3  4  1  0
  3  5  1  0
  5  6  1  0
  6  7  1  0
  7  8  2  0
  8  9  1  0
  9 10  2  0
 10 11  1  0
 11 12  2  0
 12 13  1  0
 13 14  1  0
 13 15  2  0
 15 16  1  0
  8 17  1  0
 17 18  1  0
 18 19  1  0
 18  6  2  0
 15  9  1  0
  1 20  1  0
  1 21  1  0
  1 22  1  0
  2 23  1  0
  2 24  1  0
  4 25  1  0
  4 26  1  0
  4 27  1  0
  5 28  1  0
  5 29  1  0
  7 30  1  0
 10 31  1  0
 11 32  1  0
 12 33  1  0
 16 34  1  0
 16 35  1  0
 16 36  1  0
 19 37  1  0
 19 38  1  0
 19 39  1  0
M  CHG  1   7   1
M  END
>  <UniqueID>  (3) 
3

>  <SMILES>  (3) 
CCN(C)Cc1[nH+]c(-c2cccc(F)c2C)oc1C

>  <Energy>  (3) 
78.94116905697344

>  <Genealogy>  (3) 
CCN(C)Cc1[nH+]c(-c2cccc(F)c2C)oc1C (protonated)
CCN(C)Cc1[nH+]c(-c2cccc(F)c2C)oc1C (3D coordinates assigned)
CCN(C)Cc1[nH+]c(-c2cccc(F)c2C)oc1C (optimized conformer: 78.94116905697344 kcal/mol)

>  <smiles>  (3) 
CCN(C)Cc1nc(-c2cccc(F)c2C)oc1C

>  <score_type>  (3) 
oracle

>  <origin>  (3) 
adg

>  <m_score__min__energy>  (3) 
-4.9100000000000001

>  <m_primary>  (3) 
energy

$$$$
3:0
     RDKit          3D

 35 36  0  0  0  0  0  0  0  0999 V2000
   58.1040   32.9340   43.8500 C   0  0  0  0  0  0  0  0  0  0  0  0
   57.4880   31.6160   43.4020 C   0  0  0  0  0  0  0  0  0  0  0  0
   56.6560   31.0780   44.4690 N   0  0  0  0  0  0  0  0  0  0  0  0
   56.2970   29.6960   44.5560 C   0  0  0  0  0  0  0  0  0  0  0  0
   55.1070   29.3590   44.8030 O   0  0  0  0  0  0  0  0  0  0  0  0
   57.3540   28.6490   44.4070 C   0  0  0  0  0  0  0  0  0  0  0  0
   57.8820   28.0080   46.0350 S   0  0  0  0  0  0  0  0  0  0  0  0
   58.6640   29.5340   46.5580 C   0  0  0  0  0  0  0  0  0  0  0  0
   58.0370   30.7340   46.5700 N   0  0  0  0  0  0  0  0  0  0  0  0
   58.8320   31.7060   47.0860 C   0  0  0  0  0  0  0  0  0  0  0  0
   58.4570   33.0380   47.2570 C   0  0  0  0  0  0  0  0  0  0  0  0
   59.3760   33.9290   47.8360 C   0  0  0  0  0  0  0  0  0  0  0  0
   60.6550   33.4920   48.2450 C   0  0  0  0  0  0  0  0  0  0  0  0
   61.5160   34.4310   48.8330 O   0  0  0  0  0  0  0  0  0  0  0  0
   62.8960   34.2180   49.1290 C   0  0  0  0  0  0  0  0  0  0  0  0
   63.6680   33.8410   47.8680 C   0  0  0  0  0  0  0  0  0  0  0  0
   61.0220   32.1390   48.0510 C   0  0  0  0  0  0  0  0  0  0  0  0
   60.0920   31.2800   47.4730 C   0  0  0  0  0  0  0  0  0  0  0  0
   60.2400   29.6340   47.1680 S   0  0  0  0  0  0  0  0  0  0  0  0
   58.1231   32.9750   44.9491 H   0  0  0  0  0  0  0  0  0  0  0  0
   59.1307   33.0094   43.4623 H   0  0  0  0  0  0  0  0  0  0  0  0
   57.5033   33.7700   43.4623 H   0  0  0  0  0  0  0  0  0  0  0  0
   56.8713   31.7856   42.5071 H   0  0  0  0  0  0  0  0  0  0  0  0
   58.2890   30.8997   43.1669 H   0  0  0  0  0  0  0  0  0  0  0  0
   56.9544   27.8184   43.8066 H   0  0  0  0  0  0  0  0  0  0  0  0
   58.2254   29.1014   43.9111 H   0  0  0  0  0  0  0  0  0  0  0  0
   57.0540   30.8830   46.2480 H   0  0  0  0  0  0  0  0  0  0  0  0
   57.4608   33.3845   46.9446 H   0  0  0  0  0  0  0  0  0  0  0  0
   59.0948   34.9836   47.9729 H   0  0  0  0  0  0  0  0  0  0  0  0
   63.3213   35.1410   49.5500 H   0  0  0  0  0  0  0  0  0  0  0  0
   62.9785   33.3939   49.8529 H   0  0  0  0  0  0  0  0  0  0  0  0
   64.6237   33.3743   48.1489 H   0  0  0  0  0  0  0  0  0  0  0  0
   63.0743   33.1314   47.2730 H   0  0  0  0  0  0  0  0  0  0  0  0
   63.8626   34.7455   47.2730 H   0  0  0  0  0  0  0  0  0  0  0  0
   62.0165   31.7758   48.3493 H   0  0  0  0  0  0  0  0  0  0  0  0
  1  2  1  0
  2  3  1  0
  3  4  1  0
  4  5  2  0
  4  6  1  0
  6  7  1  0
  7  8  1  0
  8  9  2  0
  9 10  1  0
 10 11  2  0
 11 12  1  0
 12 13  2  0
 13 14  1  0
 14 15  1  0
 15 16  1  0
 13 17  1  0
 17 18  2  0
 18 19  1  0
 19  8  1  0
 18 10  1  0
  1 20  1  0
  1 21  1  0
  1 22  1  0
  2 23  1  0
  2 24  1  0
  6 25  1  0
  6 26  1  0
  9 27  1  0
 11 28  1  0
 12 29  1  0
 15 30  1  0
 15 31  1  0
 16 32  1  0
 16 33  1  0
 16 34  1  0
 17 35  1  0
M  CHG  2   3  -1   9   1
M  END
>  <UniqueID>  (4) 
4

>  <SMILES>  (4) 
CC[N-]C(=O)CSc1[nH+]c2ccc(OCC)cc2s1

>  <Energy>  (4) 
54.89444625141954

>  <Genealogy>  (4) 
CC[N-]C(=O)CSc1[nH+]c2ccc(OCC)cc2s1 (protonated)
CC[N-]C(=O)CSc1[nH+]c2ccc(OCC)cc2s1 (3D coordinates assigned)
CC[N-]C(=O)CSc1[nH+]c2ccc(OCC)cc2s1 (optimized conformer: 54.89444625141954 kcal/mol)

>  <smiles>  (4) 
CCNC(=O)CSc1nc2ccc(OCC)cc2s1

>  <score_type>  (4) 
oracle

>  <origin>  (4) 
adg

>  <m_score__min__energy>  (4) 
-6.9000000000000004

>  <m_primary>  (4) 
energy

$$$$
4:0
     RDKit          3D

 40 42  0  0  0  0  0  0  0  0999 V2000
   58.5600   27.1790   46.4650 C   0  0  0  0  0  0  0  0  0  0  0  0
   59.3070   28.0850   45.4890 C   0  0  0  0  0  0  0  0  0  0  0  0
   58.4110   29.1340   44.9420 N   0  0  0  0  0  0  0  0  0  0  0  0
   58.3110   30.4000   45.5170 C   0  0  0  0  0  0  0  0  0  0  0  0
   57.4180   31.3590   44.9370 C   0  0  0  0  0  0  0  0  0  0  0  0
   56.6540   30.9830   43.8270 C   0  0  0  0  0  0  0  0  0  0  0  0
   56.7990   29.7350   43.2580 C   0  0  0  0  0  0  0  0  0  0  0  0
   57.6870   28.8240   43.8110 C   0  0  0  0  0  0  0  0  0  0  0  0
   57.8110   27.7020   43.2450 O   0  0  0  0  0  0  0  0  0  0  0  0
   57.1390   32.7480   45.4950 C   0  0  0  0  0  0  0  0  0  0  0  0
   58.3540   33.6810   45.5170 C   0  0  0  0  0  0  0  0  0  0  0  0
   59.2880   33.3440   46.6100 N   0  0  0  0  0  0  0  0  0  0  0  0
   60.1680   34.4930   46.9180 C   0  0  0  0  0  0  0  0  0  0  0  0
   61.5140   34.0110   47.3750 C   0  0  0  0  0  0  0  0  0  0  0  0
   62.6060   33.8340   46.5110 C   0  0  0  0  0  0  0  0  0  0  0  0
   63.7460   33.3660   47.1480 C   0  0  0  0  0  0  0  0  0  0  0  0
   63.3890   33.1710   48.7790 S   0  0  0  0  0  0  0  0  0  0  0  0
   61.7900   33.6790   48.6960 C   0  0  0  0  0  0  0  0  0  0  0  0
   60.0540   32.0970   46.3770 C   0  0  0  0  0  0  0  0  0  0  0  0
   59.2470   30.8180   46.6600 C   0  0  0  0  0  0  0  0  0  0  0  0
   58.8023   27.4729   47.4969 H   0  0  0  0  0  0  0  0  0  0  0  0
   57.4768   27.2771   46.3006 H   0  0  0  0  0  0  0  0  0  0  0  0
   58.8627   26.1343   46.3006 H   0  0  0  0  0  0  0  0  0  0  0  0
   60.1448   28.5663   46.0148 H   0  0  0  0  0  0  0  0  0  0  0  0
   59.6764   27.4708   44.6546 H   0  0  0  0  0  0  0  0  0  0  0  0
   55.9281   31.6920   43.4024 H   0  0  0  0  0  0  0  0  0  0  0  0
   56.2122   29.4629   42.3683 H   0  0  0  0  0  0  0  0  0  0  0  0
   56.3581   33.2157   44.8773 H   0  0  0  0  0  0  0  0  0  0  0  0
   56.8336   32.6082   46.5425 H   0  0  0  0  0  0  0  0  0  0  0  0
   58.8846   33.5964   44.5572 H   0  0  0  0  0  0  0  0  0  0  0  0
   57.9928   34.7069   45.6817 H   0  0  0  0  0  0  0  0  0  0  0  0
   60.2906   35.1085   46.0146 H   0  0  0  0  0  0  0  0  0  0  0  0
   59.7100   35.0891   47.7211 H   0  0  0  0  0  0  0  0  0  0  0  0
   62.5620   34.0460   45.4325 H   0  0  0  0  0  0  0  0  0  0  0  0
   64.7145   33.1587   46.6694 H   0  0  0  0  0  0  0  0  0  0  0  0
   61.0855   33.7384   49.5387 H   0  0  0  0  0  0  0  0  0  0  0  0
   60.3778   32.0787   45.3259 H   0  0  0  0  0  0  0  0  0  0  0  0
   60.9036   32.1043   47.0757 H   0  0  0  0  0  0  0  0  0  0  0  0
   59.9552   29.9967   46.8441 H   0  0  0  0  0  0  0  0  0  0  0  0
   58.6085   31.0324   47.5297 H   0  0  0  0  0  0  0  0  0  0  0  0
  1  2  1  0
  2  3  1  0
  3  4  1  0
  4  5  2  0
  5  6  1  0
  6  7  2  0
  7  8  1  0
  8  9  2  0
  5 10  1  0
 10 11  1  0
 11 12  1  0
 12 13  1  0
 13 14  1  0
 14 15  1  0
 15 16  2  0
 16 17  1  0
 17 18  1  0
 12 19  1  0
 19 20  1  0
  8  3  1  0
 18 14  2  0
 20  4  1  0
  1 21  1  0
  1 22  1  0
  1 23  1  0
  2 24  1  0
  2 25  1  0
  6 26  1  0
  7 27  1  0
 10 28  1  0
 10 29  1  0
 11 30  1  0
 11 31  1  0
 13 32  1  0
 13 33  1  0
 15 34  1  0
 16 35  1  0
 18 36  1  0
 19 37  1  0
 19 38  1  0
 20 39  1  0
 20 40  1  0
M  END
>  <UniqueID>  (5) 
5

>  <SMILES>  (5) 
CCn1c2c(ccc1=O)CCN(Cc1ccsc1)CC2

>  <Energy>  (5) 
87.89786779471733

>  <Genealogy>  (5) 
CCn1c2c(ccc1=O)CCN(Cc1ccsc1)CC2 (3D coordinates assigned)
CCn1c2c(ccc1=O)CCN(Cc1ccsc1)CC2 (nonaromatic ring conformer: 87.89786779471733 kcal/mol)

>  <smiles>  (5) 
CCn1c2c(ccc1=O)CCN(Cc1ccsc1)CC2

>  <score_type>  (5) 
oracle

>  <origin>  (5) 
adg

>  <m_score__min__energy>  (5) 
-5.5999999999999996

>  <m_primary>  (5) 
energy

$$$$
5:0
     RDKit          3D

 21 21  0  0  0  0  0  0  0  0999 V2000
   58.1850   27.4310   43.5650 C   0  0  0  0  0  0  0  0  0  0  0  0
   58.4880   28.2000   44.8460 C   0  0  0  0  0  0  0  0  0  0  0  0
   57.2850   28.6920   45.4340 O   0  0  0  0  0  0  0  0  0  0  0  0
   56.4340   29.6050   44.8000 C   0  0  0  0  0  0  0  0  0  0  0  0
   55.1830   29.4750   44.8840 O   0  0  0  0  0  0  0  0  0  0  0  0
   57.0210   30.7160   44.0290 C   0  0  0  0  0  0  0  0  0  0  0  0
   56.9100   30.8560   42.3560 S   0  0  0  0  0  0  0  0  0  0  0  0
   57.7710   32.2920   42.2190 C   0  0  0  0  0  0  0  0  0  0  0  0
   58.1620   32.6860   43.4900 C   0  0  0  0  0  0  0  0  0  0  0  0
   57.7480   31.8120   44.5100 C   0  0  0  0  0  0  0  0  0  0  0  0
   58.0670   32.0560   45.9540 C   0  0  0  0  0  0  0  0  0  0  0  0
   57.7927   26.4353   43.8192 H   0  0  0  0  0  0  0  0  0  0  0  0
   57.4362   27.9807   42.9758 H   0  0  0  0  0  0  0  0  0  0  0  0
   59.1075   27.3222   42.9758 H   0  0  0  0  0  0  0  0  0  0  0  0
   58.9910   27.5303   45.5590 H   0  0  0  0  0  0  0  0  0  0  0  0
   59.1375   29.0535   44.6015 H   0  0  0  0  0  0  0  0  0  0  0  0
   57.9873   32.8274   41.2828 H   0  0  0  0  0  0  0  0  0  0  0  0
   58.7434   33.5997   43.6824 H   0  0  0  0  0  0  0  0  0  0  0  0
   57.3514   31.5087   46.5851 H   0  0  0  0  0  0  0  0  0  0  0  0
   59.0875   31.7058   46.1683 H   0  0  0  0  0  0  0  0  0  0  0  0
   57.9962   33.1326   46.1683 H   0  0  0  0  0  0  0  0  0  0  0  0
  1  2  1  0
  2  3  1  0
  3  4  1  0
  4  5  2  0
  4  6  1  0
  6  7  1  0
  7  8  1  0
  8  9  2  0
  9 10  1  0
 10 11  1  0
 10  6  2  0
  1 12  1  0
  1 13  1  0
  1 14  1  0
  2 15  1  0
  2 16  1  0
  8 17  1  0
  9 18  1  0
 11 19  1  0
 11 20  1  0
 11 21  1  0
M  END
>  <UniqueID>  (6) 
6

>  <SMILES>  (6) 
CCOC(=O)c1sccc1C

>  <Energy>  (6) 
40.081393467580796

>  <Genealogy>  (6) 
CCOC(=O)c1sccc1C (3D coordinates assigned)
CCOC(=O)c1sccc1C (optimized conformer: 40.081393467580796 kcal/mol)

>  <smiles>  (6) 
CCOC(=O)c1sccc1C

>  <score_type>  (6) 
oracle

>  <origin>  (6) 
adg

>  <m_score__min__energy>  (6) 
-4.6399999999999997

>  <m_primary>  (6) 
energy

$$$$
6:0
     RDKit          3D

 60 63  0  0  0  0  0  0  0  0999 V2000
   61.1540   29.2200   49.8830 F   0  0  0  0  0  0  0  0  0  0  0  0
   60.3520   30.3470   49.8910 C   0  0  0  0  0  0  0  0  0  0  0  0
   60.7040   31.1710   50.9450 F   0  0  0  0  0  0  0  0  0  0  0  0
   59.0370   29.9570   50.0510 F   0  0  0  0  0  0  0  0  0  0  0  0
   60.4800   31.0470   48.6550 O   0  0  0  0  0  0  0  0  0  0  0  0
   61.6040   31.7870   48.2460 C   0  0  0  0  0  0  0  0  0  0  0  0
   62.6340   31.2170   47.4700 C   0  0  0  0  0  0  0  0  0  0  0  0
   63.7340   31.9870   47.0840 C   0  0  0  0  0  0  0  0  0  0  0  0
   63.8220   33.3260   47.4630 C   0  0  0  0  0  0  0  0  0  0  0  0
   62.8100   33.9030   48.2300 C   0  0  0  0  0  0  0  0  0  0  0  0
   61.6960   33.1430   48.6260 C   0  0  0  0  0  0  0  0  0  0  0  0
   60.6070   33.7780   49.4550 C   0  0  0  0  0  0  0  0  0  0  0  0
   59.4580   34.1480   48.6020 N   0  0  0  0  0  0  0  0  0  0  0  0
   58.4710   33.0390   48.5360 C   0  0  0  0  0  0  0  0  0  0  0  0
   57.6530   33.0560   47.2410 C   0  0  0  0  0  0  0  0  0  0  0  0
   58.5680   32.9680   46.1050 N   0  0  0  0  0  0  0  0  0  0  0  0
   58.1350   32.3550   44.8830 C   0  0  0  0  0  0  0  0  0  0  0  0
   58.0590   33.1360   43.7210 C   0  0  0  0  0  0  0  0  0  0  0  0
   57.6870   32.5590   42.5050 C   0  0  0  0  0  0  0  0  0  0  0  0
   57.3940   31.1980   42.4390 C   0  0  0  0  0  0  0  0  0  0  0  0
   57.4570   30.4100   43.5900 C   0  0  0  0  0  0  0  0  0  0  0  0
   57.8030   30.9800   44.8290 C   0  0  0  0  0  0  0  0  0  0  0  0
   57.8360   30.1020   46.0630 C   0  0  0  0  0  0  0  0  0  0  0  0
   58.1230   28.6930   45.7140 N   0  0  0  0  0  0  0  0  0  0  0  0
   57.8990   27.7620   46.8400 C   0  0  0  0  0  0  0  0  0  0  0  0
   58.9980   27.8590   47.9220 C   0  0  0  0  0  0  0  0  0  0  0  0
   60.3150   28.2500   47.3910 N   0  0  0  0  0  0  0  0  0  0  0  0
   60.4870   27.8290   46.0000 C   0  0  0  0  0  0  0  0  0  0  0  0
   59.4560   28.5150   45.0810 C   0  0  0  0  0  0  0  0  0  0  0  0
   59.8720   33.6340   46.1660 C   0  0  0  0  0  0  0  0  0  0  0  0
   59.8870   34.6850   47.2850 C   0  0  0  0  0  0  0  0  0  0  0  0
   62.5712   30.1614   47.1672 H   0  0  0  0  0  0  0  0  0  0  0  0
   64.5337   31.5352   46.4788 H   0  0  0  0  0  0  0  0  0  0  0  0
   64.6904   33.9278   47.1568 H   0  0  0  0  0  0  0  0  0  0  0  0
   62.8842   34.9596   48.5269 H   0  0  0  0  0  0  0  0  0  0  0  0
   60.2733   33.0643   50.2226 H   0  0  0  0  0  0  0  0  0  0  0  0
   61.0050   34.6866   49.9304 H   0  0  0  0  0  0  0  0  0  0  0  0
   59.0107   32.0826   48.5995 H   0  0  0  0  0  0  0  0  0  0  0  0
   57.7706   33.1655   49.3747 H   0  0  0  0  0  0  0  0  0  0  0  0
   56.9637   32.1989   47.2278 H   0  0  0  0  0  0  0  0  0  0  0  0
   57.0694   33.9864   47.1797 H   0  0  0  0  0  0  0  0  0  0  0  0
   58.2938   34.2096   43.7676 H   0  0  0  0  0  0  0  0  0  0  0  0
   57.6252   33.1791   41.5985 H   0  0  0  0  0  0  0  0  0  0  0  0
   57.1124   30.7435   41.4777 H   0  0  0  0  0  0  0  0  0  0  0  0
   57.2343   29.3346   43.5276 H   0  0  0  0  0  0  0  0  0  0  0  0
   58.6189   30.4691   46.7429 H   0  0  0  0  0  0  0  0  0  0  0  0
   56.8486   30.1454   46.5460 H   0  0  0  0  0  0  0  0  0  0  0  0
   56.9286   27.9958   47.3022 H   0  0  0  0  0  0  0  0  0  0  0  0
   57.9210   26.7395   46.4350 H   0  0  0  0  0  0  0  0  0  0  0  0
   58.6876   28.6063   48.6671 H   0  0  0  0  0  0  0  0  0  0  0  0
   59.1109   26.8555   48.3582 H   0  0  0  0  0  0  0  0  0  0  0  0
   60.4180   29.2900   47.4420 H   0  0  0  0  0  0  0  0  0  0  0  0
   61.5003   28.0970   45.6662 H   0  0  0  0  0  0  0  0  0  0  0  0
   60.3364   26.7408   45.9431 H   0  0  0  0  0  0  0  0  0  0  0  0
   59.8437   29.5057   44.8014 H   0  0  0  0  0  0  0  0  0  0  0  0
   59.3148   27.8606   44.2082 H   0  0  0  0  0  0  0  0  0  0  0  0
   60.6525   32.8843   46.3630 H   0  0  0  0  0  0  0  0  0  0  0  0
   60.0611   34.1347   45.2050 H   0  0  0  0  0  0  0  0  0  0  0  0
   60.9108   35.0751   47.3838 H   0  0  0  0  0  0  0  0  0  0  0  0
   59.1694   35.4699   47.0041 H   0  0  0  0  0  0  0  0  0  0  0  0
  1  2  1  0
  2  3  1  0
  2  4  1  0
  2  5  1  0
  5  6  1  0
  6  7  2  0
  7  8  1  0
  8  9  2  0
  9 10  1  0
 10 11  2  0
 11 12  1  0
 12 13  1  0
 13 14  1  0
 14 15  1  0
 15 16  1  0
 16 17  1  0
 17 18  2  0
 18 19  1  0
 19 20  2  0
 20 21  1  0
 21 22  2  0
 22 23  1  0
 23 24  1  0
 24 25  1  0
 25 26  1  0
 26 27  1  0
 27 28  1  0
 28 29  1  0
 16 30  1  0
 30 31  1  0
 11  6  1  0
 31 13  1  0
 22 17  1  0
 29 24  1  0
  7 32  1  0
  8 33  1  0
  9 34  1  0
 10 35  1  0
 12 36  1  0
 12 37  1  0
 14 38  1  0
 14 39  1  0
 15 40  1  0
 15 41  1  0
 18 42  1  0
 19 43  1  0
 20 44  1  0
 21 45  1  0
 23 46  1  0
 23 47  1  0
 25 48  1  0
 25 49  1  0
 26 50  1  0
 26 51  1  0
 27 52  1  0
 28 53  1  0
 28 54  1  0
 29 55  1  0
 29 56  1  0
 30 57  1  0
 30 58  1  0
 31 59  1  0
 31 60  1  0
M  END
>  <UniqueID>  (7) 
7

>  <SMILES>  (7) 
FC(F)(F)Oc1ccccc1CN1CCN(c2ccccc2CN2CCNCC2)CC1

>  <Energy>  (7) 
85.92176509038056

>  <Genealogy>  (7) 
FC(F)(F)Oc1ccccc1CN1CCN(c2ccccc2CN2CCNCC2)CC1 (3D coordinates assigned)
FC(F)(F)Oc1ccccc1CN1CCN(c2ccccc2CN2CCNCC2)CC1 (nonaromatic ring conformer: 85.92176509038056 kcal/mol)

>  <smiles>  (7) 
FC(F)(F)Oc1ccccc1CN1CCN(c2ccccc2CN2CCNCC2)CC1

>  <score_type>  (7) 
oracle

>  <origin>  (7) 
adg

>  <m_score__min__energy>  (7) 
-8.3499999999999996

>  <m_primary>  (7) 
energy

$$$$
7:0
     RDKit          3D

 51 53  0  0  0  0  0  0  0  0999 V2000
   58.3740   35.4340   44.7766 H   0  0  0  0  0  0  0  0  0  0  0  0
   58.8440   34.5810   45.2880 C   0  0  0  0  0  0  0  0  0  0  0  0
   58.2540   33.3200   45.2180 C   0  0  0  0  0  0  0  0  0  0  0  0
   57.3212   33.1830   44.6512 H   0  0  0  0  0  0  0  0  0  0  0  0
   58.8440   32.2240   45.8670 C   0  0  0  0  0  0  0  0  0  0  0  0
   58.2170   30.8790   45.7930 C   0  0  0  0  0  0  0  0  0  0  0  0
   57.1920   30.6210   44.8640 C   0  0  0  0  0  0  0  0  0  0  0  0
   56.8549   31.4209   44.1883 H   0  0  0  0  0  0  0  0  0  0  0  0
   56.5990   29.3590   44.7920 C   0  0  0  0  0  0  0  0  0  0  0  0
   55.7989   29.1719   44.0607 H   0  0  0  0  0  0  0  0  0  0  0  0
   57.0170   28.3290   45.6460 C   0  0  0  0  0  0  0  0  0  0  0  0
   58.0450   28.5780   46.5810 C   0  0  0  0  0  0  0  0  0  0  0  0
   58.6390   29.8470   46.6500 C   0  0  0  0  0  0  0  0  0  0  0  0
   59.4403   30.0361   47.3795 H   0  0  0  0  0  0  0  0  0  0  0  0
   58.4590   27.5440   47.4260 C   0  0  0  0  0  0  0  0  0  0  0  0
   59.2617   27.7179   48.1577 H   0  0  0  0  0  0  0  0  0  0  0  0
   57.8520   26.2920   47.3390 C   0  0  0  0  0  0  0  0  0  0  0  0
   58.1763   25.4766   48.0023 H   0  0  0  0  0  0  0  0  0  0  0  0
   56.8300   26.0720   46.4080 C   0  0  0  0  0  0  0  0  0  0  0  0
   56.2780   24.8900   46.3620 N   0  0  0  0  0  0  0  0  0  0  0  0
   55.6370   24.2520   45.2120 C   0  0  0  0  0  0  0  0  0  0  0  0
   56.0867   24.6459   44.2886 H   0  0  0  0  0  0  0  0  0  0  0  0
   54.5605   24.4748   45.2506 H   0  0  0  0  0  0  0  0  0  0  0  0
   55.8130   22.7300   45.2410 C   0  0  0  0  0  0  0  0  0  0  0  0
   54.9443   22.2732   45.7377 H   0  0  0  0  0  0  0  0  0  0  0  0
   56.7326   22.4855   45.7928 H   0  0  0  0  0  0  0  0  0  0  0  0
   55.9220   22.2010   43.8610 N   0  0  0  0  0  0  0  0  0  0  0  0
   56.2530   23.2690   42.9030 C   0  0  0  0  0  0  0  0  0  0  0  0
   56.5352   24.1795   43.4520 H   0  0  0  0  0  0  0  0  0  0  0  0
   57.0934   22.9468   42.2707 H   0  0  0  0  0  0  0  0  0  0  0  0
   55.3777   23.4786   42.2707 H   0  0  0  0  0  0  0  0  0  0  0  0
   56.9340   21.1350   43.7790 C   0  0  0  0  0  0  0  0  0  0  0  0
   57.2258   20.8276   44.7941 H   0  0  0  0  0  0  0  0  0  0  0  0
   56.5148   20.2721   43.2408 H   0  0  0  0  0  0  0  0  0  0  0  0
   57.8175   21.5088   43.2408 H   0  0  0  0  0  0  0  0  0  0  0  0
   56.4380   27.0930   45.5790 N   0  0  0  0  0  0  0  0  0  0  0  0
   55.6860   26.9420   44.8710 H   0  0  0  0  0  0  0  0  0  0  0  0
   60.0370   32.4170   46.5880 C   0  0  0  0  0  0  0  0  0  0  0  0
   60.5036   31.5620   47.0991 H   0  0  0  0  0  0  0  0  0  0  0  0
   60.6450   33.6870   46.6670 C   0  0  0  0  0  0  0  0  0  0  0  0
   61.8750   33.8790   47.4130 N   0  0  0  0  0  0  0  0  0  0  0  0
   63.1780   33.7460   46.7510 C   0  0  0  0  0  0  0  0  0  0  0  0
   63.9689   33.6653   47.5112 H   0  0  0  0  0  0  0  0  0  0  0  0
   63.1797   32.8430   46.1228 H   0  0  0  0  0  0  0  0  0  0  0  0
   63.3621   34.6300   46.1228 H   0  0  0  0  0  0  0  0  0  0  0  0
   61.8360   34.2050   48.8440 C   0  0  0  0  0  0  0  0  0  0  0  0
   61.9463   33.2827   49.4333 H   0  0  0  0  0  0  0  0  0  0  0  0
   62.6580   34.8949   49.0854 H   0  0  0  0  0  0  0  0  0  0  0  0
   60.8744   34.6816   49.0854 H   0  0  0  0  0  0  0  0  0  0  0  0
   60.0270   34.7670   46.0030 C   0  0  0  0  0  0  0  0  0  0  0  0
   60.4830   35.7669   46.0495 H   0  0  0  0  0  0  0  0  0  0  0  0
  1  2  1  0
  2  3  2  0
  3  4  1  0
  3  5  1  0
  5  6  1  0
  6  7  2  0
  7  8  1  0
  7  9  1  0
  9 10  1  0
  9 11  2  0
 11 12  1  0
 12 13  2  0
 13 14  1  0
 12 15  1  0
 15 16  1  0
 15 17  2  0
 17 18  1  0
 17 19  1  0
 19 20  2  0
 20 21  1  0
 21 22  1  0
 21 23  1  0
 21 24  1  0
 24 25  1  0
 24 26  1  0
 24 27  1  0
 27 28  1  0
 28 29  1  0
 28 30  1  0
 28 31  1  0
 27 32  1  0
 32 33  1  0
 32 34  1  0
 32 35  1  0
 19 36  1  0
 36 37  1  0
  5 38  2  0
 38 39  1  0
 38 40  1  0
 40 41  1  0
 41 42  1  0
 42 43  1  0
 42 44  1  0
 42 45  1  0
 41 46  1  0
 46 47  1  0
 46 48  1  0
 46 49  1  0
 40 50  2  0
 50 51  1  0
 50  2  1  0
 13  6  1  0
 36 11  1  0
M  END
>  <UniqueID>  (8) 
8

>  <SMILES>  (8) 
CN(C)CC/N=c1/ccc2cc(-c3cccc(N(C)C)c3)ccc2[nH]1

>  <Energy>  (8) 
64.31912758016324

>  <Genealogy>  (8) 
CN(C)CC/N=c1/ccc2cc(-c3cccc(N(C)C)c3)ccc2[nH]1 (cis-trans isomerization)
CN(C)CC/N=c1/ccc2cc(-c3cccc(N(C)C)c3)ccc2[nH]1 (3D coordinates assigned)
CN(C)CC/N=c1/ccc2cc(-c3cccc(N(C)C)c3)ccc2[nH]1 (optimized conformer: 64.31912758016324 kcal/mol)

>  <smiles>  (8) 
CN(C)CCN=c1ccc2cc(-c3cccc(N(C)C)c3)ccc2[nH]1

>  <score_type>  (8) 
oracle

>  <origin>  (8) 
adg

>  <m_score__min__energy>  (8) 
-8.0700000000000003

>  <m_primary>  (8) 
energy

$$$$
8:0
     RDKit          3D

 47 48  0  0  0  0  0  0  0  0999 V2000
   63.3540   33.5430   46.7570 C   0  0  0  0  0  0  0  0  0  0  0  0
   62.7980   33.0320   48.0230 N   0  0  0  0  0  0  0  0  0  0  0  0
   63.7960   32.1700   48.6850 C   0  0  0  0  0  0  0  0  0  0  0  0
   62.3990   34.1650   48.8920 C   0  0  0  0  0  0  0  0  0  0  0  0
   60.8710   34.3070   49.0070 C   0  0  0  0  0  0  0  0  0  0  0  0
   60.2190   33.1940   48.3930 O   0  0  0  0  0  0  0  0  0  0  0  0
   59.4670   33.2480   47.2080 C   0  0  0  0  0  0  0  0  0  0  0  0
   59.4660   34.4420   46.4780 C   0  0  0  0  0  0  0  0  0  0  0  0
   58.7040   34.5610   45.3130 C   0  0  0  0  0  0  0  0  0  0  0  0
   57.9320   33.4860   44.8670 C   0  0  0  0  0  0  0  0  0  0  0  0
   57.9310   32.2750   45.5790 C   0  0  0  0  0  0  0  0  0  0  0  0
   57.1290   31.1600   45.1530 N   0  0  0  0  0  0  0  0  0  0  0  0
   56.6660   30.9850   43.7750 C   0  0  0  0  0  0  0  0  0  0  0  0
   55.8180   29.7190   43.6430 C   0  0  0  0  0  0  0  0  0  0  0  0
   55.8640   28.9790   44.8610 O   0  0  0  0  0  0  0  0  0  0  0  0
   56.9270   28.1510   45.2490 C   0  0  0  0  0  0  0  0  0  0  0  0
   58.2620   28.4120   44.8770 C   0  0  0  0  0  0  0  0  0  0  0  0
   59.2860   27.5510   45.2840 C   0  0  0  0  0  0  0  0  0  0  0  0
   58.9900   26.4290   46.0640 C   0  0  0  0  0  0  0  0  0  0  0  0
   57.6700   26.1670   46.4390 C   0  0  0  0  0  0  0  0  0  0  0  0
   56.6430   27.0250   46.0320 C   0  0  0  0  0  0  0  0  0  0  0  0
   58.7130   32.1550   46.7360 C   0  0  0  0  0  0  0  0  0  0  0  0
   64.1481   34.2728   46.9734 H   0  0  0  0  0  0  0  0  0  0  0  0
   63.7722   32.7075   46.1765 H   0  0  0  0  0  0  0  0  0  0  0  0
   62.5566   34.0300   46.1765 H   0  0  0  0  0  0  0  0  0  0  0  0
   61.9570   32.4520   47.7910 H   0  0  0  0  0  0  0  0  0  0  0  0
   63.6919   32.2599   49.7764 H   0  0  0  0  0  0  0  0  0  0  0  0
   63.6330   31.1240   48.3861 H   0  0  0  0  0  0  0  0  0  0  0  0
   64.8071   32.4834   48.3861 H   0  0  0  0  0  0  0  0  0  0  0  0
   62.8153   34.0027   49.8972 H   0  0  0  0  0  0  0  0  0  0  0  0
   62.7882   35.0885   48.4385 H   0  0  0  0  0  0  0  0  0  0  0  0
   60.5901   34.3503   50.0697 H   0  0  0  0  0  0  0  0  0  0  0  0
   60.5592   35.2295   48.4953 H   0  0  0  0  0  0  0  0  0  0  0  0
   60.0700   35.2937   46.8242 H   0  0  0  0  0  0  0  0  0  0  0  0
   58.7121   35.5035   44.7458 H   0  0  0  0  0  0  0  0  0  0  0  0
   57.3235   33.5878   43.9563 H   0  0  0  0  0  0  0  0  0  0  0  0
   56.7140   30.5390   45.8840 H   0  0  0  0  0  0  0  0  0  0  0  0
   56.0606   31.8563   43.4847 H   0  0  0  0  0  0  0  0  0  0  0  0
   57.5431   30.8917   43.1178 H   0  0  0  0  0  0  0  0  0  0  0  0
   54.7767   29.9979   43.4240 H   0  0  0  0  0  0  0  0  0  0  0  0
   56.2148   29.0990   42.8256 H   0  0  0  0  0  0  0  0  0  0  0  0
   58.4984   29.2950   44.2652 H   0  0  0  0  0  0  0  0  0  0  0  0
   60.3258   27.7567   44.9901 H   0  0  0  0  0  0  0  0  0  0  0  0
   59.7967   25.7524   46.3825 H   0  0  0  0  0  0  0  0  0  0  0  0
   57.4381   25.2854   47.0547 H   0  0  0  0  0  0  0  0  0  0  0  0
   55.6051   26.8139   46.3290 H   0  0  0  0  0  0  0  0  0  0  0  0
   58.7384   31.1994   47.2803 H   0  0  0  0  0  0  0  0  0  0  0  0
  1  2  1  0
  2  3  1  0
  2  4  1  0
  4  5  1  0
  5  6  1  0
  6  7  1  0
  7  8  2  0
  8  9  1  0
  9 10  2  0
 10 11  1  0
 11 12  1  0
 12 13  1  0
 13 14  1  0
 14 15  1  0
 15 16  1  0
 16 17  2  0
 17 18  1  0
 18 19  2  0
 19 20  1  0
 20 21  2  0
 11 22  2  0
 22  7  1  0
 21 16  1  0
  1 23  1  0
  1 24  1  0
  1 25  1  0
  2 26  1  0
  3 27  1  0
  3 28  1  0
  3 29  1  0
  4 30  1  0
  4 31  1  0
  5 32  1  0
  5 33  1  0
  8 34  1  0
  9 35  1  0
 10 36  1  0
 12 37  1  0
 13 38  1  0
 13 39  1  0
 14 40  1  0
 14 41  1  0
 17 42  1  0
 18 43  1  0
 19 44  1  0
 20 45  1  0
 21 46  1  0
 22 47  1  0
M  CHG  1   2   1
M  END
>  <UniqueID>  (9) 
9

>  <SMILES>  (9) 
C[NH+](C)CCOc1cccc(NCCOc2ccccc2)c1

>  <Energy>  (9) 
42.56983869652505

>  <Genealogy>  (9) 
C[NH+](C)CCOc1cccc(NCCOc2ccccc2)c1 (protonated)
C[NH+](C)CCOc1cccc(NCCOc2ccccc2)c1 (3D coordinates assigned)
C[NH+](C)CCOc1cccc(NCCOc2ccccc2)c1 (optimized conformer: 42.56983869652505 kcal/mol)

>  <smiles>  (9) 
CN(C)CCOc1cccc(NCCOc2ccccc2)c1

>  <score_type>  (9) 
oracle

>  <origin>  (9) 
adg

>  <m_score__min__energy>  (9) 
-4.7999999999999998

>  <m_primary>  (9) 
energy

$$$$
9:0
     RDKit          3D

 45 47  0  0  0  0  0  0  0  0999 V2000
   63.3160   33.8440   46.3850 C   0  0  0  0  0  0  0  0  0  0  0  0
   62.5740   32.8580   47.2950 C   0  0  0  0  0  0  0  0  0  0  0  0
   62.8820   33.0800   48.7330 N   0  0  0  0  0  0  0  0  0  0  0  0
   64.3310   33.0900   49.0940 C   0  0  0  0  0  0  0  0  0  0  0  0
   64.7770   32.0440   50.1310 C   0  0  0  0  0  0  0  0  0  0  0  0
   62.1090   34.2060   49.3280 C   0  0  0  0  0  0  0  0  0  0  0  0
   60.6130   33.9390   49.5980 C   0  0  0  0  0  0  0  0  0  0  0  0
   59.7380   34.6250   48.6460 N   0  0  0  0  0  0  0  0  0  0  0  0
   59.2900   34.0660   47.3950 C   0  0  0  0  0  0  0  0  0  0  0  0
   59.1810   34.9160   46.2670 C   0  0  0  0  0  0  0  0  0  0  0  0
   58.7550   34.4190   45.0240 C   0  0  0  0  0  0  0  0  0  0  0  0
   58.4370   33.0680   44.9310 C   0  0  0  0  0  0  0  0  0  0  0  0
   58.5300   32.2280   46.0260 C   0  0  0  0  0  0  0  0  0  0  0  0
   58.9480   32.6980   47.2700 C   0  0  0  0  0  0  0  0  0  0  0  0
   58.1260   30.8840   45.6130 C   0  0  0  0  0  0  0  0  0  0  0  0
   58.0520   29.6990   46.3450 C   0  0  0  0  0  0  0  0  0  0  0  0
   57.6270   28.5340   45.6820 C   0  0  0  0  0  0  0  0  0  0  0  0
   57.2870   28.5740   44.3140 C   0  0  0  0  0  0  0  0  0  0  0  0
   57.3690   29.7780   43.5920 C   0  0  0  0  0  0  0  0  0  0  0  0
   57.7930   30.9210   44.2700 C   0  0  0  0  0  0  0  0  0  0  0  0
   57.9730   32.2860   43.7890 C   0  0  0  0  0  0  0  0  0  0  0  0
   57.7690   32.7080   42.6200 O   0  0  0  0  0  0  0  0  0  0  0  0
   63.8636   34.5716   47.0021 H   0  0  0  0  0  0  0  0  0  0  0  0
   64.0260   33.2938   45.7500 H   0  0  0  0  0  0  0  0  0  0  0  0
   62.5907   34.3739   45.7500 H   0  0  0  0  0  0  0  0  0  0  0  0
   61.4916   32.9800   47.1416 H   0  0  0  0  0  0  0  0  0  0  0  0
   62.9035   31.8420   47.0319 H   0  0  0  0  0  0  0  0  0  0  0  0
   62.4890   32.2430   49.2310 H   0  0  0  0  0  0  0  0  0  0  0  0
   64.9080   32.9180   48.1734 H   0  0  0  0  0  0  0  0  0  0  0  0
   64.5120   34.0680   49.5638 H   0  0  0  0  0  0  0  0  0  0  0  0
   64.6092   32.4376   51.1444 H   0  0  0  0  0  0  0  0  0  0  0  0
   64.1941   31.1211   49.9949 H   0  0  0  0  0  0  0  0  0  0  0  0
   65.8465   31.8256   49.9949 H   0  0  0  0  0  0  0  0  0  0  0  0
   62.5813   34.4677   50.2863 H   0  0  0  0  0  0  0  0  0  0  0  0
   62.1334   35.0089   48.5765 H   0  0  0  0  0  0  0  0  0  0  0  0
   60.4301   32.8566   49.5278 H   0  0  0  0  0  0  0  0  0  0  0  0
   60.3814   34.3254   50.6015 H   0  0  0  0  0  0  0  0  0  0  0  0
   59.4100   35.5830   48.9010 H   0  0  0  0  0  0  0  0  0  0  0  0
   59.4339   35.9820   46.3659 H   0  0  0  0  0  0  0  0  0  0  0  0
   58.6751   35.0800   44.1484 H   0  0  0  0  0  0  0  0  0  0  0  0
   59.0107   32.0212   48.1349 H   0  0  0  0  0  0  0  0  0  0  0  0
   58.3188   29.6764   47.4119 H   0  0  0  0  0  0  0  0  0  0  0  0
   57.5593   27.5851   46.2342 H   0  0  0  0  0  0  0  0  0  0  0  0
   56.9549   27.6558   43.8074 H   0  0  0  0  0  0  0  0  0  0  0  0
   57.1066   29.8173   42.5245 H   0  0  0  0  0  0  0  0  0  0  0  0
  1  2  1  0
  2  3  1  0
  3  4  1  0
  4  5  1  0
  3  6  1  0
  6  7  1  0
  7  8  1  0
  8  9  1  0
  9 10  2  0
 10 11  1  0
 11 12  2  0
 12 13  1  0
 13 14  2  0
 13 15  1  0
 15 16  2  0
 16 17  1  0
 17 18  2  0
 18 19  1  0
 19 20  2  0
 20 21  1  0
 21 22  2  0
 14  9  1  0
 20 15  1  0
 21 12  1  0
  1 23  1  0
  1 24  1  0
  1 25  1  0
  2 26  1  0
  2 27  1  0
  3 28  1  0
  4 29  1  0
  4 30  1  0
  5 31  1  0
  5 32  1  0
  5 33  1  0
  6 34  1  0
  6 35  1  0
  7 36  1  0
  7 37  1  0
  8 38  1  0
 10 39  1  0
 11 40  1  0
 14 41  1  0
 16 42  1  0
 17 43  1  0
 18 44  1  0
 19 45  1  0
M  CHG  1   3   1
M  END
>  <UniqueID>  (10) 
10

>  <SMILES>  (10) 
CC[NH+](CC)CCNc1ccc2c(c1)-c1ccccc1C2=O

>  <Energy>  (10) 
87.74738271612655

>  <Genealogy>  (10) 
CC[NH+](CC)CCNc1ccc2c(c1)-c1ccccc1C2=O (protonated)
CC[NH+](CC)CCNc1ccc2c(c1)-c1ccccc1C2=O (3D coordinates assigned)
CC[NH+](CC)CCNc1ccc2c(c1)-c1ccccc1C2=O (nonaromatic ring conformer: 87.74738271612655 kcal/mol)

>  <smiles>  (10) 
CCN(CC)CCNc1ccc2c(c1)-c1ccccc1C2=O

>  <score_type>  (10) 
oracle

>  <origin>  (10) 
adg

>  <m_score__min__energy>  (10) 
-5.9900000000000002

>  <m_primary>  (10) 
energy

$$$$
10:0
     RDKit          3D

 38 40  0  0  0  0  0  0  0  0999 V2000
   53.9970   23.5100   45.6000 C   0  0  0  0  0  0  0  0  0  0  0  0
   54.9070   23.7020   46.8080 C   0  0  0  0  0  0  0  0  0  0  0  0
   56.1060   24.4690   46.4320 N   0  0  0  0  0  0  0  0  0  0  0  0
   57.3270   23.8530   46.4860 C   0  0  0  0  0  0  0  0  0  0  0  0
   58.4880   24.5390   46.1330 C   0  0  0  0  0  0  0  0  0  0  0  0
   58.3990   25.8560   45.6960 C   0  0  0  0  0  0  0  0  0  0  0  0
   57.1530   26.4770   45.5920 C   0  0  0  0  0  0  0  0  0  0  0  0
   57.0830   27.8370   45.1350 N   0  0  0  0  0  0  0  0  0  0  0  0
   57.9420   28.8770   45.6310 C   0  0  0  0  0  0  0  0  0  0  0  0
   58.7090   28.6550   46.6070 O   0  0  0  0  0  0  0  0  0  0  0  0
   57.8880   30.2340   45.0410 C   0  0  0  0  0  0  0  0  0  0  0  0
   57.5510   30.3540   43.6830 C   0  0  0  0  0  0  0  0  0  0  0  0
   57.4330   31.6080   43.0850 C   0  0  0  0  0  0  0  0  0  0  0  0
   57.6490   32.7650   43.8290 C   0  0  0  0  0  0  0  0  0  0  0  0
   58.0000   32.6800   45.1820 C   0  0  0  0  0  0  0  0  0  0  0  0
   58.2300   33.8500   45.9210 C   0  0  0  0  0  0  0  0  0  0  0  0
   58.6040   33.7740   47.2640 C   0  0  0  0  0  0  0  0  0  0  0  0
   58.7590   32.5320   47.8770 C   0  0  0  0  0  0  0  0  0  0  0  0
   58.5310   31.3560   47.1570 C   0  0  0  0  0  0  0  0  0  0  0  0
   58.1310   31.4080   45.8040 C   0  0  0  0  0  0  0  0  0  0  0  0
   56.0020   25.7680   45.9920 C   0  0  0  0  0  0  0  0  0  0  0  0
   54.8770   26.3400   45.9670 O   0  0  0  0  0  0  0  0  0  0  0  0
   52.9741   23.2942   45.9421 H   0  0  0  0  0  0  0  0  0  0  0  0
   53.9947   24.4274   44.9931 H   0  0  0  0  0  0  0  0  0  0  0  0
   54.3656   22.6698   44.9931 H   0  0  0  0  0  0  0  0  0  0  0  0
   54.3593   24.2468   47.5911 H   0  0  0  0  0  0  0  0  0  0  0  0
   55.2179   22.7147   47.1804 H   0  0  0  0  0  0  0  0  0  0  0  0
   57.3929   22.8044   46.8117 H   0  0  0  0  0  0  0  0  0  0  0  0
   59.4672   24.0422   46.1996 H   0  0  0  0  0  0  0  0  0  0  0  0
   59.3121   26.4096   45.4317 H   0  0  0  0  0  0  0  0  0  0  0  0
   56.2970   28.0970   44.4970 H   0  0  0  0  0  0  0  0  0  0  0  0
   57.3781   29.4478   43.0839 H   0  0  0  0  0  0  0  0  0  0  0  0
   57.1679   31.6837   42.0201 H   0  0  0  0  0  0  0  0  0  0  0  0
   57.5434   33.7504   43.3517 H   0  0  0  0  0  0  0  0  0  0  0  0
   58.1151   34.8325   45.4398 H   0  0  0  0  0  0  0  0  0  0  0  0
   58.7766   34.6957   47.8391 H   0  0  0  0  0  0  0  0  0  0  0  0
   59.0623   32.4770   48.9329 H   0  0  0  0  0  0  0  0  0  0  0  0
   58.6644   30.3812   47.6489 H   0  0  0  0  0  0  0  0  0  0  0  0
  1  2  1  0
  2  3  1  0
  3  4  1  0
  4  5  2  0
  5  6  1  0
  6  7  2  0
  7  8  1  0
  8  9  1  0
  9 10  2  0
  9 11  1  0
 11 12  2  0
 12 13  1  0
 13 14  2  0
 14 15  1  0
 15 16  2  0
 16 17  1  0
 17 18  2  0
 18 19  1  0
 19 20  2  0
  7 21  1  0
 21 22  2  0
 21  3  1  0
 20 11  1  0
 20 15  1  0
  1 23  1  0
  1 24  1  0
  1 25  1  0
  2 26  1  0
  2 27  1  0
  4 28  1  0
  5 29  1  0
  6 30  1  0
  8 31  1  0
 12 32  1  0
 13 33  1  0
 14 34  1  0
 16 35  1  0
 17 36  1  0
 18 37  1  0
 19 38  1  0
M  END
>  <UniqueID>  (11) 
11

>  <SMILES>  (11) 
CCn1cccc(NC(=O)c2cccc3ccccc23)c1=O

>  <Energy>  (11) 
55.714133784692464

>  <Genealogy>  (11) 
CCn1cccc(NC(=O)c2cccc3ccccc23)c1=O (3D coordinates assigned)
CCn1cccc(NC(=O)c2cccc3ccccc23)c1=O (optimized conformer: 55.714133784692464 kcal/mol)

>  <smiles>  (11) 
CCn1cccc(NC(=O)c2cccc3ccccc23)c1=O

>  <score_type>  (11) 
oracle

>  <origin>  (11) 
adg

>  <m_score__min__energy>  (11) 
-7.79

>  <m_primary>  (11) 
energy

$$$$
11:0
     RDKit          3D

 58 60  0  0  0  0  0  0  0  0999 V2000
   60.7660   28.1430   49.9010 C   0  0  0  0  0  0  0  0  0  0  0  0
   61.4780   29.2140   50.7250 C   0  0  0  0  0  0  0  0  0  0  0  0
   60.9250   30.5480   50.4420 N   0  0  0  0  0  0  0  0  0  0  0  0
   59.4510   30.5770   50.5120 C   0  0  0  0  0  0  0  0  0  0  0  0
   58.8440   31.9840   50.7310 C   0  0  0  0  0  0  0  0  0  0  0  0
   59.0190   32.9660   49.5580 C   0  0  0  0  0  0  0  0  0  0  0  0
   60.2750   33.8450   49.6530 C   0  0  0  0  0  0  0  0  0  0  0  0
   61.4650   33.0160   49.9130 N   0  0  0  0  0  0  0  0  0  0  0  0
   62.5790   33.3650   49.0220 C   0  0  0  0  0  0  0  0  0  0  0  0
   63.1490   32.0960   48.3790 C   0  0  0  0  0  0  0  0  0  0  0  0
   62.3400   31.6490   47.1510 C   0  0  0  0  0  0  0  0  0  0  0  0
   60.9090   31.5520   47.4520 N   0  0  0  0  0  0  0  0  0  0  0  0
   59.8930   31.3560   46.4530 C   0  0  0  0  0  0  0  0  0  0  0  0
   59.5920   30.0710   45.9570 C   0  0  0  0  0  0  0  0  0  0  0  0
   60.2090   28.9260   46.5010 C   0  0  0  0  0  0  0  0  0  0  0  0
   59.8620   27.6530   46.0570 C   0  0  0  0  0  0  0  0  0  0  0  0
   58.8920   27.4960   45.0730 C   0  0  0  0  0  0  0  0  0  0  0  0
   58.2750   28.6100   44.5060 C   0  0  0  0  0  0  0  0  0  0  0  0
   58.6230   29.9230   44.9120 C   0  0  0  0  0  0  0  0  0  0  0  0
   58.0380   31.0400   44.3360 N   0  0  0  0  0  0  0  0  0  0  0  0
   57.1890   30.9140   43.1320 C   0  0  0  0  0  0  0  0  0  0  0  0
   58.2710   32.2750   44.8960 C   0  0  0  0  0  0  0  0  0  0  0  0
   57.6540   33.4910   44.5290 C   0  0  0  0  0  0  0  0  0  0  0  0
   58.1320   34.5870   45.2410 C   0  0  0  0  0  0  0  0  0  0  0  0
   59.2980   34.0590   46.3310 S   0  0  0  0  0  0  0  0  0  0  0  0
   59.1920   32.4320   45.9200 C   0  0  0  0  0  0  0  0  0  0  0  0
   60.2853   27.4200   50.5764 H   0  0  0  0  0  0  0  0  0  0  0  0
   60.0020   28.6161   49.2666 H   0  0  0  0  0  0  0  0  0  0  0  0
   61.4979   27.6216   49.2666 H   0  0  0  0  0  0  0  0  0  0  0  0
   61.3496   28.9903   51.7943 H   0  0  0  0  0  0  0  0  0  0  0  0
   62.5450   29.2118   50.4575 H   0  0  0  0  0  0  0  0  0  0  0  0
   61.2540   30.8890   49.5100 H   0  0  0  0  0  0  0  0  0  0  0  0
   61.2800   31.2190   51.1640 H   0  0  0  0  0  0  0  0  0  0  0  0
   59.0547   30.1755   49.5677 H   0  0  0  0  0  0  0  0  0  0  0  0
   59.1686   29.9757   51.3887 H   0  0  0  0  0  0  0  0  0  0  0  0
   57.7663   31.8641   50.9160 H   0  0  0  0  0  0  0  0  0  0  0  0
   59.3906   32.4225   51.5789 H   0  0  0  0  0  0  0  0  0  0  0  0
   59.0754   32.3837   48.6265 H   0  0  0  0  0  0  0  0  0  0  0  0
   58.1550   33.6463   49.5845 H   0  0  0  0  0  0  0  0  0  0  0  0
   60.4108   34.3864   48.7051 H   0  0  0  0  0  0  0  0  0  0  0  0
   60.1493   34.5577   50.4814 H   0  0  0  0  0  0  0  0  0  0  0  0
   61.7770   33.1910   50.8970 H   0  0  0  0  0  0  0  0  0  0  0  0
   62.2177   34.0425   48.2343 H   0  0  0  0  0  0  0  0  0  0  0  0
   63.3682   33.8614   49.6058 H   0  0  0  0  0  0  0  0  0  0  0  0
   64.1854   32.2926   48.0671 H   0  0  0  0  0  0  0  0  0  0  0  0
   63.0996   31.2897   49.1256 H   0  0  0  0  0  0  0  0  0  0  0  0
   62.4856   32.3804   46.3424 H   0  0  0  0  0  0  0  0  0  0  0  0
   62.6958   30.6528   46.8494 H   0  0  0  0  0  0  0  0  0  0  0  0
   60.6010   31.7670   48.4270 H   0  0  0  0  0  0  0  0  0  0  0  0
   60.9726   29.0397   47.2845 H   0  0  0  0  0  0  0  0  0  0  0  0
   60.3565   26.7689   46.4857 H   0  0  0  0  0  0  0  0  0  0  0  0
   58.6098   26.4863   44.7400 H   0  0  0  0  0  0  0  0  0  0  0  0
   57.5065   28.4682   43.7319 H   0  0  0  0  0  0  0  0  0  0  0  0
   56.1431   30.7588   43.4354 H   0  0  0  0  0  0  0  0  0  0  0  0
   57.2643   31.8332   42.5324 H   0  0  0  0  0  0  0  0  0  0  0  0
   57.5280   30.0563   42.5324 H   0  0  0  0  0  0  0  0  0  0  0  0
   56.8735   33.5646   43.7574 H   0  0  0  0  0  0  0  0  0  0  0  0
   57.8012   35.6281   45.1118 H   0  0  0  0  0  0  0  0  0  0  0  0
  1  2  1  0
  2  3  1  0
  3  4  1  0
  4  5  1  0
  5  6  1  0
  6  7  1  0
  7  8  1  0
  8  9  1  0
  9 10  1  0
 10 11  1  0
 11 12  1  0
 12 13  1  0
 13 14  2  0
 14 15  1  0
 15 16  2  0
 16 17  1  0
 17 18  2  0
 18 19  1  0
 19 20  2  0
 20 21  1  0
 20 22  1  0
 22 23  1  0
 23 24  2  0
 24 25  1  0
 25 26  1  0
 26 13  1  0
 19 14  1  0
 26 22  2  0
  1 27  1  0
  1 28  1  0
  1 29  1  0
  2 30  1  0
  2 31  1  0
  3 32  1  0
  3 33  1  0
  4 34  1  0
  4 35  1  0
  5 36  1  0
  5 37  1  0
  6 38  1  0
  6 39  1  0
  7 40  1  0
  7 41  1  0
  8 42  1  0
  9 43  1  0
  9 44  1  0
 10 45  1  0
 10 46  1  0
 11 47  1  0
 11 48  1  0
 12 49  1  0
 15 50  1  0
 16 51  1  0
 17 52  1  0
 18 53  1  0
 21 54  1  0
 21 55  1  0
 21 56  1  0
 23 57  1  0
 24 58  1  0
M  CHG  2   3   1  20   1
M  END
>  <UniqueID>  (12) 
12

>  <SMILES>  (12) 
CC[NH2+]CCCCNCCCNc1c2ccccc2[n+](C)c2ccsc12

>  <Energy>  (12) 
93.93726578116679

>  <Genealogy>  (12) 
CC[NH2+]CCCCNCCCNc1c2ccccc2[n+](C)c2ccsc12 (protonated)
CC[NH2+]CCCCNCCCNc1c2ccccc2[n+](C)c2ccsc12 (3D coordinates assigned)
CC[NH2+]CCCCNCCCNc1c2ccccc2[n+](C)c2ccsc12 (optimized conformer: 93.93726578116679 kcal/mol)

>  <smiles>  (12) 
CCNCCCCNCCCNc1c2ccccc2[n+](C)c2ccsc12

>  <score_type>  (12) 
oracle

>  <origin>  (12) 
adg

>  <m_score__min__energy>  (12) 
-5.2599999999999998

>  <m_primary>  (12) 
energy

$$$$
12:0
     RDKit          3D

 41 42  0  0  0  0  0  0  0  0999 V2000
   58.7270   29.1270   47.3260 C   0  0  0  0  0  0  0  0  0  0  0  0
   59.4140   30.0450   46.4050 N   0  0  0  0  0  0  0  0  0  0  0  0
   60.8520   30.0800   46.7250 C   0  0  0  0  0  0  0  0  0  0  0  0
   59.1890   29.6370   44.9990 C   0  0  0  0  0  0  0  0  0  0  0  0
   58.5100   30.7620   44.2110 C   0  0  0  0  0  0  0  0  0  0  0  0
   57.2390   31.1470   44.8690 N   0  0  0  0  0  0  0  0  0  0  0  0
   56.0940   30.4640   44.2430 C   0  0  0  0  0  0  0  0  0  0  0  0
   57.0320   32.6100   44.8530 C   0  0  0  0  0  0  0  0  0  0  0  0
   58.2280   33.3060   45.4290 C   0  0  0  0  0  0  0  0  0  0  0  0
   58.6170   34.6050   45.1910 C   0  0  0  0  0  0  0  0  0  0  0  0
   59.7260   34.8160   45.8640 O   0  0  0  0  0  0  0  0  0  0  0  0
   60.0250   33.7020   46.4990 C   0  0  0  0  0  0  0  0  0  0  0  0
   61.2300   33.5440   47.3460 C   0  0  0  0  0  0  0  0  0  0  0  0
   62.4980   33.4720   46.7420 C   0  0  0  0  0  0  0  0  0  0  0  0
   63.6470   33.3110   47.5220 C   0  0  0  0  0  0  0  0  0  0  0  0
   63.5430   33.2170   48.9120 C   0  0  0  0  0  0  0  0  0  0  0  0
   65.1130   32.9940   49.9770 Br  0  0  0  0  0  0  0  0  0  0  0  0
   62.2870   33.2810   49.5220 C   0  0  0  0  0  0  0  0  0  0  0  0
   61.1350   33.4430   48.7470 C   0  0  0  0  0  0  0  0  0  0  0  0
   59.1110   32.7350   46.2670 N   0  0  0  0  0  0  0  0  0  0  0  0
   58.9449   29.4181   48.3642 H   0  0  0  0  0  0  0  0  0  0  0  0
   57.6421   29.1763   47.1513 H   0  0  0  0  0  0  0  0  0  0  0  0
   59.0802   28.1000   47.1513 H   0  0  0  0  0  0  0  0  0  0  0  0
   60.9847   30.0832   47.8170 H   0  0  0  0  0  0  0  0  0  0  0  0
   61.3442   29.1936   46.2985 H   0  0  0  0  0  0  0  0  0  0  0  0
   61.3005   30.9893   46.2985 H   0  0  0  0  0  0  0  0  0  0  0  0
   60.1568   29.4020   44.5319 H   0  0  0  0  0  0  0  0  0  0  0  0
   58.5351   28.7525   44.9876 H   0  0  0  0  0  0  0  0  0  0  0  0
   59.1788   31.6344   44.1722 H   0  0  0  0  0  0  0  0  0  0  0  0
   58.2961   30.4099   43.1911 H   0  0  0  0  0  0  0  0  0  0  0  0
   55.4304   30.0682   45.0259 H   0  0  0  0  0  0  0  0  0  0  0  0
   55.5381   31.1782   43.6178 H   0  0  0  0  0  0  0  0  0  0  0  0
   56.4583   29.6355   43.6178 H   0  0  0  0  0  0  0  0  0  0  0  0
   56.8807   32.9447   43.8161 H   0  0  0  0  0  0  0  0  0  0  0  0
   56.1468   32.8549   45.4584 H   0  0  0  0  0  0  0  0  0  0  0  0
   58.0947   35.3336   44.5536 H   0  0  0  0  0  0  0  0  0  0  0  0
   62.5864   33.5429   45.6479 H   0  0  0  0  0  0  0  0  0  0  0  0
   64.6346   33.2583   47.0405 H   0  0  0  0  0  0  0  0  0  0  0  0
   62.2048   33.2036   50.6162 H   0  0  0  0  0  0  0  0  0  0  0  0
   60.1499   33.4918   49.2340 H   0  0  0  0  0  0  0  0  0  0  0  0
   59.0810   31.7600   46.6350 H   0  0  0  0  0  0  0  0  0  0  0  0
  1  2  1  0
  2  3  1  0
  2  4  1  0
  4  5  1  0
  5  6  1  0
  6  7  1  0
  6  8  1  0
  8  9  1  0
  9 10  2  0
 10 11  1  0
 11 12  1  0
 12 13  1  0
 13 14  2  0
 14 15  1  0
 15 16  2  0
 16 17  1  0
 16 18  1  0
 18 19  2  0
 12 20  2  0
 20  9  1  0
 19 13  1  0
  1 21  1  0
  1 22  1  0
  1 23  1  0
  3 24  1  0
  3 25  1  0
  3 26  1  0
  4 27  1  0
  4 28  1  0
  5 29  1  0
  5 30  1  0
  7 31  1  0
  7 32  1  0
  7 33  1  0
  8 34  1  0
  8 35  1  0
 10 36  1  0
 14 37  1  0
 15 38  1  0
 18 39  1  0
 19 40  1  0
 20 41  1  0
M  CHG  1  20   1
M  END
>  <UniqueID>  (13) 
13

>  <SMILES>  (13) 
CN(C)CCN(C)Cc1coc(-c2ccc(Br)cc2)[nH+]1

>  <Energy>  (13) 
69.69606501832517

>  <Genealogy>  (13) 
CN(C)CCN(C)Cc1coc(-c2ccc(Br)cc2)[nH+]1 (protonated)
CN(C)CCN(C)Cc1coc(-c2ccc(Br)cc2)[nH+]1 (3D coordinates assigned)
CN(C)CCN(C)Cc1coc(-c2ccc(Br)cc2)[nH+]1 (optimized conformer: 69.69606501832517 kcal/mol)

>  <smiles>  (13) 
CN(C)CCN(C)Cc1coc(-c2ccc(Br)cc2)n1

>  <score_type>  (13) 
oracle

>  <origin>  (13) 
adg

>  <m_score__min__energy>  (13) 
-4.7599999999999998

>  <m_primary>  (13) 
energy

$$$$
13:0
     RDKit          3D

 38 40  0  0  0  0  0  0  0  0999 V2000
   56.8390   34.5820   44.8880 N   0  0  0  0  0  0  0  0  0  0  0  0
   57.3840   33.6130   45.2090 C   0  0  0  0  0  0  0  0  0  0  0  0
   58.0680   32.4100   45.6120 C   0  0  0  0  0  0  0  0  0  0  0  0
   59.0570   32.3360   46.6060 C   0  0  0  0  0  0  0  0  0  0  0  0
   59.5790   33.3930   47.4300 N   0  0  0  0  0  0  0  0  0  0  0  0
   60.7260   34.2260   47.0740 C   0  0  0  0  0  0  0  0  0  0  0  0
   61.9360   33.8320   47.8790 C   0  0  0  0  0  0  0  0  0  0  0  0
   61.9730   34.0510   49.2610 C   0  0  0  0  0  0  0  0  0  0  0  0
   63.0840   33.6470   50.0020 C   0  0  0  0  0  0  0  0  0  0  0  0
   64.1540   33.0120   49.3540 C   0  0  0  0  0  0  0  0  0  0  0  0
   65.3570   32.5610   50.1330 C   0  0  0  0  0  0  0  0  0  0  0  0
   65.2430   31.2140   50.4200 F   0  0  0  0  0  0  0  0  0  0  0  0
   66.5000   32.7710   49.3810 F   0  0  0  0  0  0  0  0  0  0  0  0
   64.0910   32.7900   48.0090 N   0  0  0  0  0  0  0  0  0  0  0  0
   63.0160   33.1780   47.2700 C   0  0  0  0  0  0  0  0  0  0  0  0
   59.5950   30.7420   46.7220 S   0  0  0  0  0  0  0  0  0  0  0  0
   58.6030   30.1370   45.5110 C   0  0  0  0  0  0  0  0  0  0  0  0
   57.8020   31.1620   45.0180 C   0  0  0  0  0  0  0  0  0  0  0  0
   56.8360   30.9330   43.8830 C   0  0  0  0  0  0  0  0  0  0  0  0
   56.4910   29.4400   43.7240 C   0  0  0  0  0  0  0  0  0  0  0  0
   57.7570   28.5670   43.7620 C   0  0  0  0  0  0  0  0  0  0  0  0
   58.4820   28.6980   45.1110 C   0  0  0  0  0  0  0  0  0  0  0  0
   59.0900   33.5680   48.3380 H   0  0  0  0  0  0  0  0  0  0  0  0
   60.9467   34.0994   46.0038 H   0  0  0  0  0  0  0  0  0  0  0  0
   60.4825   35.2767   47.2901 H   0  0  0  0  0  0  0  0  0  0  0  0
   61.1261   34.5417   49.7629 H   0  0  0  0  0  0  0  0  0  0  0  0
   63.1207   33.8252   51.0869 H   0  0  0  0  0  0  0  0  0  0  0  0
   65.4200   33.1344   51.0696 H   0  0  0  0  0  0  0  0  0  0  0  0
   64.8810   32.3070   47.5250 H   0  0  0  0  0  0  0  0  0  0  0  0
   62.9945   32.9773   46.1887 H   0  0  0  0  0  0  0  0  0  0  0  0
   55.9110   31.4937   44.0829 H   0  0  0  0  0  0  0  0  0  0  0  0
   57.3109   31.2772   42.9524 H   0  0  0  0  0  0  0  0  0  0  0  0
   55.8223   29.1375   44.5434 H   0  0  0  0  0  0  0  0  0  0  0  0
   56.0008   29.2987   42.7495 H   0  0  0  0  0  0  0  0  0  0  0  0
   57.4726   27.5156   43.6081 H   0  0  0  0  0  0  0  0  0  0  0  0
   58.4374   28.9051   42.9665 H   0  0  0  0  0  0  0  0  0  0  0  0
   57.9128   28.1561   45.8807 H   0  0  0  0  0  0  0  0  0  0  0  0
   59.4917   28.2729   45.0120 H   0  0  0  0  0  0  0  0  0  0  0  0
  1  2  3  0
  2  3  1  0
  3  4  2  0
  4  5  1  0
  5  6  1  0
  6  7  1  0
  7  8  2  0
  8  9  1  0
  9 10  2  0
 10 11  1  0
 11 12  1  0
 11 13  1  0
 10 14  1  0
 14 15  2  0
  4 16  1  0
 16 17  1  0
 17 18  2  0
 18 19  1  0
 19 20  1  0
 20 21  1  0
 21 22  1  0
 18  3  1  0
 15  7  1  0
 22 17  1  0
  5 23  1  0
  6 24  1  0
  6 25  1  0
  8 26  1  0
  9 27  1  0
 11 28  1  0
 14 29  1  0
 15 30  1  0
 19 31  1  0
 19 32  1  0
 20 33  1  0
 20 34  1  0
 21 35  1  0
 21 36  1  0
 22 37  1  0
 22 38  1  0
M  CHG  1  14   1
M  END
>  <UniqueID>  (14) 
14

>  <SMILES>  (14) 
N#Cc1c(NCc2ccc(C(F)F)[nH+]c2)sc2c1CCCC2

>  <Energy>  (14) 
63.87944048455184

>  <Genealogy>  (14) 
N#Cc1c(NCc2ccc(C(F)F)[nH+]c2)sc2c1CCCC2 (protonated)
N#Cc1c(NCc2ccc(C(F)F)[nH+]c2)sc2c1CCCC2 (3D coordinates assigned)
N#Cc1c(NCc2ccc(C(F)F)[nH+]c2)sc2c1CCCC2 (nonaromatic ring conformer: 63.87944048455184 kcal/mol)

>  <smiles>  (14) 
N#Cc1c(NCc2ccc(C(F)F)nc2)sc2c1CCCC2

>  <score_type>  (14) 
oracle

>  <origin>  (14) 
adg

>  <m_score__min__energy>  (14) 
-5.9500000000000002

>  <m_primary>  (14) 
energy

$$$$
14:0
     RDKit          3D

 34 36  0  0  0  0  0  0  0  0999 V2000
   54.2192   26.4207   46.2572 H   0  0  0  0  0  0  0  0  0  0  0  0
   55.1750   25.9440   45.9940 C   0  0  0  0  0  0  0  0  0  0  0  0
   55.2250   24.6090   45.7700 N   0  0  0  0  0  0  0  0  0  0  0  0
   56.3900   23.9700   45.4920 C   0  0  0  0  0  0  0  0  0  0  0  0
   56.3770   22.5800   45.3290 C   0  0  0  0  0  0  0  0  0  0  0  0
   55.4190   22.0395   45.3344 H   0  0  0  0  0  0  0  0  0  0  0  0
   57.5730   21.8710   45.1590 C   0  0  0  0  0  0  0  0  0  0  0  0
   57.5530   20.4410   44.9680 N   0  0  0  0  0  0  0  0  0  0  0  0
   57.4220   20.2140   43.9540 H   0  0  0  0  0  0  0  0  0  0  0  0
   58.4610   20.0220   45.2780 H   0  0  0  0  0  0  0  0  0  0  0  0
   56.4600   19.8450   45.7390 C   0  0  0  0  0  0  0  0  0  0  0  0
   56.6657   19.9572   46.8138 H   0  0  0  0  0  0  0  0  0  0  0  0
   55.5166   20.3536   45.4912 H   0  0  0  0  0  0  0  0  0  0  0  0
   56.3766   18.7765   45.4912 H   0  0  0  0  0  0  0  0  0  0  0  0
   58.7870   22.5690   45.1690 C   0  0  0  0  0  0  0  0  0  0  0  0
   59.7327   22.0184   45.0570 H   0  0  0  0  0  0  0  0  0  0  0  0
   58.8090   23.9590   45.3200 C   0  0  0  0  0  0  0  0  0  0  0  0
   59.7743   24.4842   45.3694 H   0  0  0  0  0  0  0  0  0  0  0  0
   57.6080   24.6980   45.4100 C   0  0  0  0  0  0  0  0  0  0  0  0
   57.5470   26.1250   45.5230 C   0  0  0  0  0  0  0  0  0  0  0  0
   58.5310   26.9490   45.2640 N   0  0  0  0  0  0  0  0  0  0  0  0
   58.5480   28.3810   45.2150 C   0  0  0  0  0  0  0  0  0  0  0  0
   59.0580   29.0970   46.3050 C   0  0  0  0  0  0  0  0  0  0  0  0
   59.4696   28.5575   47.1708 H   0  0  0  0  0  0  0  0  0  0  0  0
   59.0460   30.4950   46.2970 C   0  0  0  0  0  0  0  0  0  0  0  0
   59.4660   31.0525   47.1472 H   0  0  0  0  0  0  0  0  0  0  0  0
   58.5010   31.1860   45.2100 C   0  0  0  0  0  0  0  0  0  0  0  0
   58.4850   33.0950   45.2010 Br  0  0  0  0  0  0  0  0  0  0  0  0
   57.9550   30.4760   44.1350 C   0  0  0  0  0  0  0  0  0  0  0  0
   57.5177   31.0190   43.2841 H   0  0  0  0  0  0  0  0  0  0  0  0
   57.9640   29.0770   44.1400 C   0  0  0  0  0  0  0  0  0  0  0  0
   57.3960   28.4030   43.1090 F   0  0  0  0  0  0  0  0  0  0  0  0
   56.3300   26.7140   45.8920 C   0  0  0  0  0  0  0  0  0  0  0  0
   56.2873   27.7928   46.1026 H   0  0  0  0  0  0  0  0  0  0  0  0
  1  2  1  0
  2  3  1  0
  3  4  1  0
  4  5  2  0
  5  6  1  0
  5  7  1  0
  7  8  1  0
  8  9  1  0
  8 10  1  0
  8 11  1  0
 11 12  1  0
 11 13  1  0
 11 14  1  0
  7 15  2  0
 15 16  1  0
 15 17  1  0
 17 18  1  0
 17 19  2  0
 19 20  1  0
 20 21  2  0
 21 22  1  0
 22 23  2  0
 23 24  1  0
 23 25  1  0
 25 26  1  0
 25 27  2  0
 27 28  1  0
 27 29  1  0
 29 30  1  0
 29 31  2  0
 31 32  1  0
 20 33  1  0
 33 34  1  0
 33  2  2  0
 19  4  1  0
 31 22  1  0
M  CHG  2   3  -1   8   1
M  END
>  <UniqueID>  (15) 
15

>  <SMILES>  (15) 
C[NH2+]c1ccc2/c(=N\c3ccc(Br)cc3F)cc[n-]c2c1

>  <Energy>  (15) 
60.202726034952214

>  <Genealogy>  (15) 
C[NH2+]c1ccc2c(=Nc3ccc(Br)cc3F)cc[n-]c2c1 (protonated)
C[NH2+]c1ccc2/c(=N\c3ccc(Br)cc3F)cc[n-]c2c1 (cis-trans isomerization)
C[NH2+]c1ccc2/c(=N\c3ccc(Br)cc3F)cc[n-]c2c1 (3D coordinates assigned)
C[NH2+]c1ccc2/c(=N\c3ccc(Br)cc3F)cc[n-]c2c1 (optimized conformer: 60.202726034952214 kcal/mol)

>  <smiles>  (15) 
CNc1ccc2c(=Nc3ccc(Br)cc3F)cc[nH]c2c1

>  <score_type>  (15) 
oracle

>  <origin>  (15) 
adg

>  <m_score__min__energy>  (15) 
-7.3499999999999996

>  <m_primary>  (15) 
energy

$$$$
15:0
     RDKit          3D

 29 29  0  0  0  0  0  0  0  0999 V2000
   55.1790   24.8340   45.3470 C   0  0  0  0  0  0  0  0  0  0  0  0
   55.3080   26.1440   45.9760 N   0  0  0  0  0  0  0  0  0  0  0  0
   56.2170   26.0190   47.0060 O   0  0  0  0  0  0  0  0  0  0  0  0
   57.5540   26.3870   46.8470 C   0  0  0  0  0  0  0  0  0  0  0  0
   58.4770   25.5700   47.1080 O   0  0  0  0  0  0  0  0  0  0  0  0
   57.8890   27.7710   46.3990 C   0  0  0  0  0  0  0  0  0  0  0  0
   57.3120   28.0050   45.0810 N   0  0  0  0  0  0  0  0  0  0  0  0
   56.4660   29.1120   44.7490 C   0  0  0  0  0  0  0  0  0  0  0  0
   55.2180   28.9790   44.8680 O   0  0  0  0  0  0  0  0  0  0  0  0
   57.0090   30.4080   44.2990 C   0  0  0  0  0  0  0  0  0  0  0  0
   57.0540   30.7080   42.9290 C   0  0  0  0  0  0  0  0  0  0  0  0
   57.5740   31.9290   42.4930 C   0  0  0  0  0  0  0  0  0  0  0  0
   58.0730   32.8490   43.4170 C   0  0  0  0  0  0  0  0  0  0  0  0
   58.0860   32.5450   44.7890 C   0  0  0  0  0  0  0  0  0  0  0  0
   58.5980   33.5560   45.7840 C   0  0  0  0  0  0  0  0  0  0  0  0
   58.7240   34.8040   45.1990 F   0  0  0  0  0  0  0  0  0  0  0  0
   57.7280   33.6670   46.8560 F   0  0  0  0  0  0  0  0  0  0  0  0
   59.8350   33.1480   46.2480 F   0  0  0  0  0  0  0  0  0  0  0  0
   57.5370   31.3240   45.2230 C   0  0  0  0  0  0  0  0  0  0  0  0
   55.1028   24.0598   46.1247 H   0  0  0  0  0  0  0  0  0  0  0  0
   54.2747   24.8153   44.7210 H   0  0  0  0  0  0  0  0  0  0  0  0
   56.0623   24.6392   44.7210 H   0  0  0  0  0  0  0  0  0  0  0  0
   55.7260   26.7920   45.2680 H   0  0  0  0  0  0  0  0  0  0  0  0
   57.4775   28.4982   47.1144 H   0  0  0  0  0  0  0  0  0  0  0  0
   58.9817   27.8869   46.3481 H   0  0  0  0  0  0  0  0  0  0  0  0
   56.6785   29.9791   42.1957 H   0  0  0  0  0  0  0  0  0  0  0  0
   57.5904   32.1662   41.4190 H   0  0  0  0  0  0  0  0  0  0  0  0
   58.4587   33.8185   43.0687 H   0  0  0  0  0  0  0  0  0  0  0  0
   57.5214   31.0849   46.2966 H   0  0  0  0  0  0  0  0  0  0  0  0
  1  2  1  0
  2  3  1  0
  3  4  1  0
  4  5  2  0
  4  6  1  0
  6  7  1  0
  7  8  1  0
  8  9  2  0
  8 10  1  0
 10 11  2  0
 11 12  1  0
 12 13  2  0
 13 14  1  0
 14 15  1  0
 15 16  1  0
 15 17  1  0
 15 18  1  0
 14 19  2  0
 19 10  1  0
  1 20  1  0
  1 21  1  0
  1 22  1  0
  2 23  1  0
  6 24  1  0
  6 25  1  0
 11 26  1  0
 12 27  1  0
 13 28  1  0
 19 29  1  0
M  CHG  1   7  -1
M  END
>  <UniqueID>  (16) 
16

>  <SMILES>  (16) 
CNOC(=O)C[N-]C(=O)c1cccc(C(F)(F)F)c1

>  <Energy>  (16) 
26.26079288702526

>  <Genealogy>  (16) 
CNOC(=O)C[N-]C(=O)c1cccc(C(F)(F)F)c1 (protonated)
CNOC(=O)C[N-]C(=O)c1cccc(C(F)(F)F)c1 (3D coordinates assigned)
CNOC(=O)C[N-]C(=O)c1cccc(C(F)(F)F)c1 (optimized conformer: 26.26079288702526 kcal/mol)

>  <smiles>  (16) 
CNOC(=O)CNC(=O)c1cccc(C(F)(F)F)c1

>  <score_type>  (16) 
oracle

>  <origin>  (16) 
adg

>  <m_score__min__energy>  (16) 
-8.4100000000000001

>  <m_primary>  (16) 
energy

$$$$
16:0
     RDKit          3D

 41 43  0  0  0  0  0  0  0  0999 V2000
   60.4810   27.4830   49.5040 C   0  0  0  0  0  0  0  0  0  0  0  0
   60.4670   26.9290   48.0820 C   0  0  0  0  0  0  0  0  0  0  0  0
   59.3050   27.4500   47.3300 N   0  0  0  0  0  0  0  0  0  0  0  0
   58.2860   26.5710   47.0770 C   0  0  0  0  0  0  0  0  0  0  0  0
   57.1420   26.9480   46.3600 C   0  0  0  0  0  0  0  0  0  0  0  0
   56.0710   25.9460   46.1050 C   0  0  0  0  0  0  0  0  0  0  0  0
   56.3550   24.7240   45.9890 O   0  0  0  0  0  0  0  0  0  0  0  0
   54.7400   26.3300   45.9910 O   0  0  0  0  0  0  0  0  0  0  0  0
   57.0460   28.2730   45.9010 C   0  0  0  0  0  0  0  0  0  0  0  0
   56.0340   28.6430   45.2430 O   0  0  0  0  0  0  0  0  0  0  0  0
   58.0740   29.1900   46.1790 C   0  0  0  0  0  0  0  0  0  0  0  0
   57.9840   30.5230   45.7380 C   0  0  0  0  0  0  0  0  0  0  0  0
   58.9920   31.4420   46.0260 C   0  0  0  0  0  0  0  0  0  0  0  0
   58.8790   32.7070   45.5530 F   0  0  0  0  0  0  0  0  0  0  0  0
   60.1130   31.0500   46.7690 C   0  0  0  0  0  0  0  0  0  0  0  0
   61.1550   31.9960   47.0860 N   0  0  0  0  0  0  0  0  0  0  0  0
   60.8520   33.4330   47.1740 C   0  0  0  0  0  0  0  0  0  0  0  0
   61.7240   34.0930   48.2450 C   0  0  0  0  0  0  0  0  0  0  0  0
   63.2300   33.8780   47.9900 C   0  0  0  0  0  0  0  0  0  0  0  0
   63.5430   32.6440   47.1240 C   0  0  0  0  0  0  0  0  0  0  0  0
   62.5250   31.5190   47.3360 C   0  0  0  0  0  0  0  0  0  0  0  0
   60.2170   29.7200   47.2060 C   0  0  0  0  0  0  0  0  0  0  0  0
   59.2120   28.7650   46.9140 C   0  0  0  0  0  0  0  0  0  0  0  0
   60.4600   26.6501   50.2222 H   0  0  0  0  0  0  0  0  0  0  0  0
   61.3944   28.0764   49.6574 H   0  0  0  0  0  0  0  0  0  0  0  0
   59.5987   28.1218   49.6574 H   0  0  0  0  0  0  0  0  0  0  0  0
   61.3929   27.2279   47.5688 H   0  0  0  0  0  0  0  0  0  0  0  0
   60.3946   25.8324   48.1301 H   0  0  0  0  0  0  0  0  0  0  0  0
   58.3676   25.5384   47.4474 H   0  0  0  0  0  0  0  0  0  0  0  0
   57.1063   30.8445   45.1581 H   0  0  0  0  0  0  0  0  0  0  0  0
   61.0508   33.9064   46.2012 H   0  0  0  0  0  0  0  0  0  0  0  0
   59.7935   33.5605   47.4446 H   0  0  0  0  0  0  0  0  0  0  0  0
   61.5175   35.1734   48.2525 H   0  0  0  0  0  0  0  0  0  0  0  0
   61.4774   33.6294   49.2116 H   0  0  0  0  0  0  0  0  0  0  0  0
   63.6263   34.7688   47.4807 H   0  0  0  0  0  0  0  0  0  0  0  0
   63.7003   33.7096   48.9700 H   0  0  0  0  0  0  0  0  0  0  0  0
   63.5284   32.9408   46.0649 H   0  0  0  0  0  0  0  0  0  0  0  0
   64.5330   32.2654   47.4184 H   0  0  0  0  0  0  0  0  0  0  0  0
   62.7509   30.6939   46.6444 H   0  0  0  0  0  0  0  0  0  0  0  0
   62.5927   31.1758   48.3789 H   0  0  0  0  0  0  0  0  0  0  0  0
   61.0983   29.4125   47.7880 H   0  0  0  0  0  0  0  0  0  0  0  0
  1  2  1  0
  2  3  1  0
  3  4  1  0
  4  5  2  0
  5  6  1  0
  6  7  2  0
  6  8  1  0
  5  9  1  0
  9 10  2  0
  9 11  1  0
 11 12  2  0
 12 13  1  0
 13 14  1  0
 13 15  2  0
 15 16  1  0
 16 17  1  0
 17 18  1  0
 18 19  1  0
 19 20  1  0
 20 21  1  0
 15 22  1  0
 22 23  2  0
 23  3  1  0
 23 11  1  0
 21 16  1  0
  1 24  1  0
  1 25  1  0
  1 26  1  0
  2 27  1  0
  2 28  1  0
  4 29  1  0
 12 30  1  0
 17 31  1  0
 17 32  1  0
 18 33  1  0
 18 34  1  0
 19 35  1  0
 19 36  1  0
 20 37  1  0
 20 38  1  0
 21 39  1  0
 21 40  1  0
 22 41  1  0
M  CHG  1   8  -1
M  END
>  <UniqueID>  (17) 
17

>  <SMILES>  (17) 
CCn1cc(C(=O)[O-])c(=O)c2cc(F)c(N3CCCCC3)cc21

>  <Energy>  (17) 
57.312525271392225

>  <Genealogy>  (17) 
CCn1cc(C(=O)[O-])c(=O)c2cc(F)c(N3CCCCC3)cc21 (protonated)
CCn1cc(C(=O)[O-])c(=O)c2cc(F)c(N3CCCCC3)cc21 (3D coordinates assigned)
CCn1cc(C(=O)[O-])c(=O)c2cc(F)c(N3CCCCC3)cc21 (nonaromatic ring conformer: 57.312525271392225 kcal/mol)

>  <smiles>  (17) 
CCn1cc(C(=O)O)c(=O)c2cc(F)c(N3CCCCC3)cc21

>  <score_type>  (17) 
oracle

>  <origin>  (17) 
adg

>  <m_score__min__energy>  (17) 
-9.8000000000000007

>  <m_primary>  (17) 
energy

$$$$
17:0
     RDKit          3D

 33 32  0  0  0  0  0  0  0  0999 V2000
   60.8220   31.5910   47.1290 C   0  0  0  0  0  0  0  0  0  0  0  0
   59.8020   30.4550   47.1890 C   0  0  0  0  0  0  0  0  0  0  0  0
   59.0760   30.3300   45.9150 N   0  0  0  0  0  0  0  0  0  0  0  0
   59.5100   29.1400   45.1460 C   0  0  0  0  0  0  0  0  0  0  0  0
   58.3540   28.4640   44.3820 C   0  0  0  0  0  0  0  0  0  0  0  0
   57.0060   28.5050   45.1150 C   0  0  0  0  0  0  0  0  0  0  0  0
   56.3210   29.7850   44.8800 N   0  0  0  0  0  0  0  0  0  0  0  0
   56.7070   30.3710   43.5870 C   0  0  0  0  0  0  0  0  0  0  0  0
   57.3920   31.7260   43.7990 C   0  0  0  0  0  0  0  0  0  0  0  0
   57.3090   32.1330   45.2090 N   0  0  0  0  0  0  0  0  0  0  0  0
   57.4180   33.5880   45.3540 C   0  0  0  0  0  0  0  0  0  0  0  0
   61.0940   31.8939   48.1509 H   0  0  0  0  0  0  0  0  0  0  0  0
   61.7215   31.2484   46.5965 H   0  0  0  0  0  0  0  0  0  0  0  0
   60.3849   32.4485   46.5965 H   0  0  0  0  0  0  0  0  0  0  0  0
   60.3267   29.5111   47.3981 H   0  0  0  0  0  0  0  0  0  0  0  0
   59.0765   30.6773   47.9854 H   0  0  0  0  0  0  0  0  0  0  0  0
   58.0460   30.3070   46.1000 H   0  0  0  0  0  0  0  0  0  0  0  0
   59.2710   31.1860   45.3440 H   0  0  0  0  0  0  0  0  0  0  0  0
   60.2755   29.4514   44.4201 H   0  0  0  0  0  0  0  0  0  0  0  0
   59.9024   28.4070   45.8663 H   0  0  0  0  0  0  0  0  0  0  0  0
   58.2359   28.9732   43.4141 H   0  0  0  0  0  0  0  0  0  0  0  0
   58.6236   27.4029   44.2755 H   0  0  0  0  0  0  0  0  0  0  0  0
   56.3716   27.6843   44.7490 H   0  0  0  0  0  0  0  0  0  0  0  0
   57.1888   28.3965   46.1943 H   0  0  0  0  0  0  0  0  0  0  0  0
   56.6270   30.4530   45.6260 H   0  0  0  0  0  0  0  0  0  0  0  0
   57.4014   29.6901   43.0730 H   0  0  0  0  0  0  0  0  0  0  0  0
   55.8032   30.5189   42.9777 H   0  0  0  0  0  0  0  0  0  0  0  0
   58.4497   31.6459   43.5076 H   0  0  0  0  0  0  0  0  0  0  0  0
   56.8832   32.4809   43.1816 H   0  0  0  0  0  0  0  0  0  0  0  0
   56.3630   31.8600   45.5660 H   0  0  0  0  0  0  0  0  0  0  0  0
   57.4376   33.8496   46.4223 H   0  0  0  0  0  0  0  0  0  0  0  0
   58.3447   33.9359   44.8743 H   0  0  0  0  0  0  0  0  0  0  0  0
   56.5535   34.0701   44.8743 H   0  0  0  0  0  0  0  0  0  0  0  0
  1  2  1  0
  2  3  1  0
  3  4  1  0
  4  5  1  0
  5  6  1  0
  6  7  1  0
  7  8  1  0
  8  9  1  0
  9 10  1  0
 10 11  1  0
  1 12  1  0
  1 13  1  0
  1 14  1  0
  2 15  1  0
  2 16  1  0
  3 17  1  0
  3 18  1  0
  4 19  1  0
  4 20  1  0
  5 21  1  0
  5 22  1  0
  6 23  1  0
  6 24  1  0
  7 25  1  0
  8 26  1  0
  8 27  1  0
  9 28  1  0
  9 29  1  0
 10 30  1  0
 11 31  1  0
 11 32  1  0
 11 33  1  0
M  CHG  1   3   1
M  END
>  <UniqueID>  (18) 
18

>  <SMILES>  (18) 
CC[NH2+]CCCNCCNC

>  <Energy>  (18) 
21.665822826509714

>  <Genealogy>  (18) 
CC[NH2+]CCCNCCNC (protonated)
CC[NH2+]CCCNCCNC (3D coordinates assigned)
CC[NH2+]CCCNCCNC (optimized conformer: 21.665822826509714 kcal/mol)

>  <smiles>  (18) 
CCNCCCNCCNC

>  <score_type>  (18) 
oracle

>  <origin>  (18) 
adg

>  <m_score__min__energy>  (18) 
-2.1200000000000001

>  <m_primary>  (18) 
energy

$$$$
19:0
     RDKit          3D

 58 59  0  0  0  0  0  0  0  0999 V2000
   55.1630   25.1210   45.6290 C   0  0  0  0  0  0  0  0  0  0  0  0
   55.4070   26.4910   45.9350 O   0  0  0  0  0  0  0  0  0  0  0  0
   56.6690   27.1040   45.8880 C   0  0  0  0  0  0  0  0  0  0  0  0
   57.8310   26.4560   46.3480 C   0  0  0  0  0  0  0  0  0  0  0  0
   59.0690   27.0970   46.2860 C   0  0  0  0  0  0  0  0  0  0  0  0
   59.1710   28.3930   45.7620 C   0  0  0  0  0  0  0  0  0  0  0  0
   60.5030   29.0970   45.7210 C   0  0  0  0  0  0  0  0  0  0  0  0
   60.4830   30.4050   46.5210 C   0  0  0  0  0  0  0  0  0  0  0  0
   59.8750   30.1950   47.8410 N   0  0  0  0  0  0  0  0  0  0  0  0
   60.6920   29.3060   48.6870 C   0  0  0  0  0  0  0  0  0  0  0  0
   60.0430   29.1640   50.0660 C   0  0  0  0  0  0  0  0  0  0  0  0
   58.6510   29.8120   50.1090 C   0  0  0  0  0  0  0  0  0  0  0  0
   58.6590   31.1910   50.7940 C   0  0  0  0  0  0  0  0  0  0  0  0
   59.7140   32.0830   50.2780 N   0  0  0  0  0  0  0  0  0  0  0  0
   59.3240   33.5030   50.2550 C   0  0  0  0  0  0  0  0  0  0  0  0
   60.0310   34.2310   49.1080 C   0  0  0  0  0  0  0  0  0  0  0  0
   59.4910   33.8070   47.7680 C   0  0  0  0  0  0  0  0  0  0  0  0
   60.0940   34.2690   46.5860 C   0  0  0  0  0  0  0  0  0  0  0  0
   59.5710   33.9090   45.3400 C   0  0  0  0  0  0  0  0  0  0  0  0
   58.4360   33.0960   45.2650 C   0  0  0  0  0  0  0  0  0  0  0  0
   57.7780   32.6500   43.7010 Cl  0  0  0  0  0  0  0  0  0  0  0  0
   57.8250   32.6410   46.4390 C   0  0  0  0  0  0  0  0  0  0  0  0
   58.3470   32.9960   47.6860 C   0  0  0  0  0  0  0  0  0  0  0  0
   58.0140   29.0450   45.3090 C   0  0  0  0  0  0  0  0  0  0  0  0
   56.7610   28.4040   45.3660 C   0  0  0  0  0  0  0  0  0  0  0  0
   55.5850   29.0250   44.9130 O   0  0  0  0  0  0  0  0  0  0  0  0
   55.5110   29.8830   43.7780 C   0  0  0  0  0  0  0  0  0  0  0  0
   55.0612   24.5492   46.5631 H   0  0  0  0  0  0  0  0  0  0  0  0
   54.2355   25.0356   45.0438 H   0  0  0  0  0  0  0  0  0  0  0  0
   56.0040   24.7206   45.0438 H   0  0  0  0  0  0  0  0  0  0  0  0
   57.7627   25.4379   46.7589 H   0  0  0  0  0  0  0  0  0  0  0  0
   59.9701   26.5821   46.6505 H   0  0  0  0  0  0  0  0  0  0  0  0
   61.2698   28.4322   46.1453 H   0  0  0  0  0  0  0  0  0  0  0  0
   60.7271   29.3421   44.6723 H   0  0  0  0  0  0  0  0  0  0  0  0
   61.5143   30.7648   46.6513 H   0  0  0  0  0  0  0  0  0  0  0  0
   59.8871   31.1479   45.9706 H   0  0  0  0  0  0  0  0  0  0  0  0
   59.7960   31.1220   48.3210 H   0  0  0  0  0  0  0  0  0  0  0  0
   60.7642   28.3158   48.2134 H   0  0  0  0  0  0  0  0  0  0  0  0
   61.6981   29.7360   48.8010 H   0  0  0  0  0  0  0  0  0  0  0  0
   59.9459   28.0948   50.3058 H   0  0  0  0  0  0  0  0  0  0  0  0
   60.6823   29.6765   50.7999 H   0  0  0  0  0  0  0  0  0  0  0  0
   58.2871   29.9332   49.0780 H   0  0  0  0  0  0  0  0  0  0  0  0
   57.9953   29.1526   50.6966 H   0  0  0  0  0  0  0  0  0  0  0  0
   57.6827   31.6703   50.6291 H   0  0  0  0  0  0  0  0  0  0  0  0
   58.8597   31.0269   51.8630 H   0  0  0  0  0  0  0  0  0  0  0  0
   60.6010   31.9640   50.8220 H   0  0  0  0  0  0  0  0  0  0  0  0
   58.2354   33.5779   50.1158 H   0  0  0  0  0  0  0  0  0  0  0  0
   59.6156   33.9691   51.2077 H   0  0  0  0  0  0  0  0  0  0  0  0
   59.8819   35.3144   49.2267 H   0  0  0  0  0  0  0  0  0  0  0  0
   61.1004   33.9760   49.1451 H   0  0  0  0  0  0  0  0  0  0  0  0
   60.9814   34.9167   46.6410 H   0  0  0  0  0  0  0  0  0  0  0  0
   60.0531   34.2658   44.4179 H   0  0  0  0  0  0  0  0  0  0  0  0
   56.9314   32.0022   46.3802 H   0  0  0  0  0  0  0  0  0  0  0  0
   57.8606   32.6393   48.6059 H   0  0  0  0  0  0  0  0  0  0  0  0
   58.0861   30.0659   44.9057 H   0  0  0  0  0  0  0  0  0  0  0  0
   55.4210   30.9269   44.1128 H   0  0  0  0  0  0  0  0  0  0  0  0
   56.4223   29.7694   43.1725 H   0  0  0  0  0  0  0  0  0  0  0  0
   54.6326   29.6151   43.1725 H   0  0  0  0  0  0  0  0  0  0  0  0
  1  2  1  0
  2  3  1  0
  3  4  2  0
  4  5  1  0
  5  6  2  0
  6  7  1  0
  7  8  1  0
  8  9  1  0
  9 10  1  0
 10 11  1  0
 11 12  1  0
 12 13  1  0
 13 14  1  0
 14 15  1  0
 15 16  1  0
 16 17  1  0
 17 18  2  0
 18 19  1  0
 19 20  2  0
 20 21  1  0
 20 22  1  0
 22 23  2  0
  6 24  1  0
 24 25  2  0
 25 26  1  0
 26 27  1  0
 25  3  1  0
 23 17  1  0
  1 28  1  0
  1 29  1  0
  1 30  1  0
  4 31  1  0
  5 32  1  0
  7 33  1  0
  7 34  1  0
  8 35  1  0
  8 36  1  0
  9 37  1  0
 10 38  1  0
 10 39  1  0
 11 40  1  0
 11 41  1  0
 12 42  1  0
 12 43  1  0
 13 44  1  0
 13 45  1  0
 14 46  1  0
 15 47  1  0
 15 48  1  0
 16 49  1  0
 16 50  1  0
 18 51  1  0
 19 52  1  0
 22 53  1  0
 23 54  1  0
 24 55  1  0
 27 56  1  0
 27 57  1  0
 27 58  1  0
M  END
>  <UniqueID>  (19) 
19

>  <SMILES>  (19) 
COc1ccc(CCNCCCCNCCc2ccc(Cl)cc2)cc1OC

>  <Energy>  (19) 
48.976145306877356

>  <Genealogy>  (19) 
COc1ccc(CCNCCCCNCCc2ccc(Cl)cc2)cc1OC (3D coordinates assigned)
COc1ccc(CCNCCCCNCCc2ccc(Cl)cc2)cc1OC (optimized conformer: 48.976145306877356 kcal/mol)

>  <smiles>  (19) 
COc1ccc(CCNCCCCNCCc2ccc(Cl)cc2)cc1OC

>  <score_type>  (19) 
oracle

>  <origin>  (19) 
adg

>  <m_score__min__energy>  (19) 
-8.5800000000000001

>  <m_primary>  (19) 
energy

$$$$
20:0
     RDKit          3D

 49 52  0  0  0  0  0  0  0  0999 V2000
   59.2660   27.6040   47.8290 C   0  0  0  0  0  0  0  0  0  0  0  0
   58.6690   28.4200   46.7260 C   0  0  0  0  0  0  0  0  0  0  0  0
   57.4000   28.2610   46.2820 N   0  0  0  0  0  0  0  0  0  0  0  0
   57.2440   29.1520   45.2880 C   0  0  0  0  0  0  0  0  0  0  0  0
   56.1030   29.3610   44.5130 C   0  0  0  0  0  0  0  0  0  0  0  0
   56.1610   30.3470   43.5100 C   0  0  0  0  0  0  0  0  0  0  0  0
   57.3430   31.0920   43.3060 C   0  0  0  0  0  0  0  0  0  0  0  0
   58.4800   30.8580   44.1020 C   0  0  0  0  0  0  0  0  0  0  0  0
   58.3920   29.8760   45.0900 C   0  0  0  0  0  0  0  0  0  0  0  0
   59.3210   29.4220   46.0050 C   0  0  0  0  0  0  0  0  0  0  0  0
   60.7440   29.8890   46.1510 C   0  0  0  0  0  0  0  0  0  0  0  0
   60.9910   30.4150   47.5100 N   0  0  0  0  0  0  0  0  0  0  0  0
   59.7540   30.9780   48.1070 C   0  0  0  0  0  0  0  0  0  0  0  0
   60.0750   31.9710   49.2320 C   0  0  0  0  0  0  0  0  0  0  0  0
   60.8620   33.1340   48.7470 N   0  0  0  0  0  0  0  0  0  0  0  0
   60.0000   34.3160   48.5300 C   0  0  0  0  0  0  0  0  0  0  0  0
   59.2270   34.1910   47.2410 C   0  0  0  0  0  0  0  0  0  0  0  0
   59.6900   34.8090   46.0670 C   0  0  0  0  0  0  0  0  0  0  0  0
   58.9540   34.7090   44.8820 C   0  0  0  0  0  0  0  0  0  0  0  0
   57.7510   33.9980   44.8620 C   0  0  0  0  0  0  0  0  0  0  0  0
   57.2810   33.3860   46.0280 C   0  0  0  0  0  0  0  0  0  0  0  0
   58.0140   33.4830   47.2150 C   0  0  0  0  0  0  0  0  0  0  0  0
   61.6720   32.8280   47.5400 C   0  0  0  0  0  0  0  0  0  0  0  0
   62.1330   31.3640   47.5260 C   0  0  0  0  0  0  0  0  0  0  0  0
   58.9609   28.0210   48.8001 H   0  0  0  0  0  0  0  0  0  0  0  0
   58.9131   26.5652   47.7489 H   0  0  0  0  0  0  0  0  0  0  0  0
   60.3629   27.6259   47.7489 H   0  0  0  0  0  0  0  0  0  0  0  0
   56.6880   27.5820   46.6350 H   0  0  0  0  0  0  0  0  0  0  0  0
   55.1877   28.7743   44.6803 H   0  0  0  0  0  0  0  0  0  0  0  0
   55.2793   30.5385   42.8807 H   0  0  0  0  0  0  0  0  0  0  0  0
   57.3755   31.8605   42.5196 H   0  0  0  0  0  0  0  0  0  0  0  0
   59.4072   31.4301   43.9505 H   0  0  0  0  0  0  0  0  0  0  0  0
   61.4215   29.0428   45.9640 H   0  0  0  0  0  0  0  0  0  0  0  0
   60.9251   30.6949   45.4245 H   0  0  0  0  0  0  0  0  0  0  0  0
   59.1832   31.4977   47.3234 H   0  0  0  0  0  0  0  0  0  0  0  0
   59.1685   30.1502   48.5335 H   0  0  0  0  0  0  0  0  0  0  0  0
   59.1307   32.3367   49.6617 H   0  0  0  0  0  0  0  0  0  0  0  0
   60.6801   31.4443   49.9846 H   0  0  0  0  0  0  0  0  0  0  0  0
   59.2919   34.4035   49.3672 H   0  0  0  0  0  0  0  0  0  0  0  0
   60.6386   35.2097   48.4708 H   0  0  0  0  0  0  0  0  0  0  0  0
   60.6342   35.3732   46.0801 H   0  0  0  0  0  0  0  0  0  0  0  0
   59.3225   35.1907   43.9643 H   0  0  0  0  0  0  0  0  0  0  0  0
   57.1738   33.9198   43.9289 H   0  0  0  0  0  0  0  0  0  0  0  0
   56.3335   32.8275   46.0116 H   0  0  0  0  0  0  0  0  0  0  0  0
   57.6395   33.0033   48.1313 H   0  0  0  0  0  0  0  0  0  0  0  0
   61.0637   33.0194   46.6437 H   0  0  0  0  0  0  0  0  0  0  0  0
   62.5650   33.4701   47.5527 H   0  0  0  0  0  0  0  0  0  0  0  0
   62.7466   31.1947   46.6289 H   0  0  0  0  0  0  0  0  0  0  0  0
   62.7087   31.1831   48.4457 H   0  0  0  0  0  0  0  0  0  0  0  0
  1  2  1  0
  2  3  1  0
  3  4  1  0
  4  5  2  0
  5  6  1  0
  6  7  2  0
  7  8  1  0
  8  9  2  0
  9 10  1  0
 10 11  1  0
 11 12  1  0
 12 13  1  0
 13 14  1  0
 14 15  1  0
 15 16  1  0
 16 17  1  0
 17 18  2  0
 18 19  1  0
 19 20  2  0
 20 21  1  0
 21 22  2  0
 15 23  1  0
 23 24  1  0
 10  2  2  0
 24 12  1  0
  9  4  1  0
 22 17  1  0
  1 25  1  0
  1 26  1  0
  1 27  1  0
  3 28  1  0
  5 29  1  0
  6 30  1  0
  7 31  1  0
  8 32  1  0
 11 33  1  0
 11 34  1  0
 13 35  1  0
 13 36  1  0
 14 37  1  0
 14 38  1  0
 16 39  1  0
 16 40  1  0
 18 41  1  0
 19 42  1  0
 20 43  1  0
 21 44  1  0
 22 45  1  0
 23 46  1  0
 23 47  1  0
 24 48  1  0
 24 49  1  0
M  END
>  <UniqueID>  (20) 
20

>  <SMILES>  (20) 
Cc1[nH]c2ccccc2c1CN1CCN(Cc2ccccc2)CC1

>  <Energy>  (20) 
95.98372158631872

>  <Genealogy>  (20) 
Cc1[nH]c2ccccc2c1CN1CCN(Cc2ccccc2)CC1 (3D coordinates assigned)
Cc1[nH]c2ccccc2c1CN1CCN(Cc2ccccc2)CC1 (nonaromatic ring conformer: 95.98372158631872 kcal/mol)

>  <smiles>  (20) 
Cc1[nH]c2ccccc2c1CN1CCN(Cc2ccccc2)CC1

>  <score_type>  (20) 
oracle

>  <origin>  (20) 
adg

>  <m_score__min__energy>  (20) 
-8.6300000000000008

>  <m_primary>  (20) 
energy

$$$$
21:0
     RDKit          3D

 53 56  0  0  0  0  0  0  0  0999 V2000
   57.0610   24.3890   43.7120 C   0  0  0  0  0  0  0  0  0  0  0  0
   58.0750   24.4930   44.7060 O   0  0  0  0  0  0  0  0  0  0  0  0
   58.3900   25.6730   45.3970 C   0  0  0  0  0  0  0  0  0  0  0  0
   58.9030   25.6660   46.7070 C   0  0  0  0  0  0  0  0  0  0  0  0
   59.2030   26.8670   47.3530 C   0  0  0  0  0  0  0  0  0  0  0  0
   58.9970   28.0930   46.7020 C   0  0  0  0  0  0  0  0  0  0  0  0
   59.3180   29.2970   47.3340 C   0  0  0  0  0  0  0  0  0  0  0  0
   59.1220   30.5350   46.6840 C   0  0  0  0  0  0  0  0  0  0  0  0
   59.4880   31.7430   47.3050 C   0  0  0  0  0  0  0  0  0  0  0  0
   60.0210   31.7430   48.6410 N   0  0  0  0  0  0  0  0  0  0  0  0
   61.3580   31.2190   48.9150 C   0  0  0  0  0  0  0  0  0  0  0  0
   62.3190   31.6080   47.7890 C   0  0  0  0  0  0  0  0  0  0  0  0
   62.8590   32.9680   48.0110 N   0  0  0  0  0  0  0  0  0  0  0  0
   63.9760   32.9440   48.9730 C   0  0  0  0  0  0  0  0  0  0  0  0
   63.3260   33.5440   46.7380 C   0  0  0  0  0  0  0  0  0  0  0  0
   59.3820   32.9480   46.5880 C   0  0  0  0  0  0  0  0  0  0  0  0
   59.8910   34.1520   47.1220 C   0  0  0  0  0  0  0  0  0  0  0  0
   59.8260   35.3350   46.3920 C   0  0  0  0  0  0  0  0  0  0  0  0
   59.2770   35.3380   45.1150 C   0  0  0  0  0  0  0  0  0  0  0  0
   58.7710   34.1610   44.5680 C   0  0  0  0  0  0  0  0  0  0  0  0
   58.7870   32.9450   45.2990 C   0  0  0  0  0  0  0  0  0  0  0  0
   58.2630   31.7760   44.7810 N   0  0  0  0  0  0  0  0  0  0  0  0
   57.3860   31.8250   43.5890 C   0  0  0  0  0  0  0  0  0  0  0  0
   58.5380   30.5640   45.3890 C   0  0  0  0  0  0  0  0  0  0  0  0
   58.2630   29.3310   44.7460 C   0  0  0  0  0  0  0  0  0  0  0  0
   58.4790   28.1080   45.3930 C   0  0  0  0  0  0  0  0  0  0  0  0
   58.1830   26.8960   44.7490 C   0  0  0  0  0  0  0  0  0  0  0  0
   56.0796   24.2883   44.1985 H   0  0  0  0  0  0  0  0  0  0  0  0
   57.0684   25.2926   43.0848 H   0  0  0  0  0  0  0  0  0  0  0  0
   57.2516   23.5057   43.0848 H   0  0  0  0  0  0  0  0  0  0  0  0
   59.0686   24.7098   47.2249 H   0  0  0  0  0  0  0  0  0  0  0  0
   59.6029   26.8520   48.3776 H   0  0  0  0  0  0  0  0  0  0  0  0
   59.7298   29.2802   48.3539 H   0  0  0  0  0  0  0  0  0  0  0  0
   59.5690   32.3460   49.3650 H   0  0  0  0  0  0  0  0  0  0  0  0
   61.7239   31.6355   49.8651 H   0  0  0  0  0  0  0  0  0  0  0  0
   61.3072   30.1221   48.9807 H   0  0  0  0  0  0  0  0  0  0  0  0
   63.1511   30.8891   47.7595 H   0  0  0  0  0  0  0  0  0  0  0  0
   61.7711   31.5955   46.8353 H   0  0  0  0  0  0  0  0  0  0  0  0
   63.5773   32.9526   49.9981 H   0  0  0  0  0  0  0  0  0  0  0  0
   64.5728   32.0328   48.8193 H   0  0  0  0  0  0  0  0  0  0  0  0
   64.6114   33.8287   48.8193 H   0  0  0  0  0  0  0  0  0  0  0  0
   64.0066   34.3835   46.9432 H   0  0  0  0  0  0  0  0  0  0  0  0
   63.8577   32.7737   46.1602 H   0  0  0  0  0  0  0  0  0  0  0  0
   62.4624   33.9049   46.1602 H   0  0  0  0  0  0  0  0  0  0  0  0
   60.3433   34.1549   48.1247 H   0  0  0  0  0  0  0  0  0  0  0  0
   60.2099   36.2698   46.8265 H   0  0  0  0  0  0  0  0  0  0  0  0
   59.2420   36.2720   44.5350 H   0  0  0  0  0  0  0  0  0  0  0  0
   58.3515   34.1745   43.5512 H   0  0  0  0  0  0  0  0  0  0  0  0
   56.3352   31.8837   43.9090 H   0  0  0  0  0  0  0  0  0  0  0  0
   57.6357   32.7106   42.9862 H   0  0  0  0  0  0  0  0  0  0  0  0
   57.5355   30.9171   42.9862 H   0  0  0  0  0  0  0  0  0  0  0  0
   57.8720   29.3350   43.7179 H   0  0  0  0  0  0  0  0  0  0  0  0
   57.7840   26.9079   43.7240 H   0  0  0  0  0  0  0  0  0  0  0  0
  1  2  1  0
  2  3  1  0
  3  4  2  0
  4  5  1  0
  5  6  2  0
  6  7  1  0
  7  8  2  0
  8  9  1  0
  9 10  1  0
 10 11  1  0
 11 12  1  0
 12 13  1  0
 13 14  1  0
 13 15  1  0
  9 16  2  0
 16 17  1  0
 17 18  2  0
 18 19  1  0
 19 20  2  0
 20 21  1  0
 21 22  2  0
 22 23  1  0
 22 24  1  0
 24 25  2  0
 25 26  1  0
 26 27  2  0
 27  3  1  0
 26  6  1  0
 24  8  1  0
 21 16  1  0
  1 28  1  0
  1 29  1  0
  1 30  1  0
  4 31  1  0
  5 32  1  0
  7 33  1  0
 10 34  1  0
 11 35  1  0
 11 36  1  0
 12 37  1  0
 12 38  1  0
 14 39  1  0
 14 40  1  0
 14 41  1  0
 15 42  1  0
 15 43  1  0
 15 44  1  0
 17 45  1  0
 18 46  1  0
 19 47  1  0
 20 48  1  0
 23 49  1  0
 23 50  1  0
 23 51  1  0
 25 52  1  0
 27 53  1  0
M  CHG  1  22   1
M  END
>  <UniqueID>  (21) 
21

>  <SMILES>  (21) 
COc1ccc2cc3c(NCCN(C)C)c4ccccc4[n+](C)c3cc2c1

>  <Energy>  (21) 
83.61975137460273

>  <Genealogy>  (21) 
COc1ccc2cc3c(NCCN(C)C)c4ccccc4[n+](C)c3cc2c1 (3D coordinates assigned)
COc1ccc2cc3c(NCCN(C)C)c4ccccc4[n+](C)c3cc2c1 (optimized conformer: 83.61975137460273 kcal/mol)

>  <smiles>  (21) 
COc1ccc2cc3c(NCCN(C)C)c4ccccc4[n+](C)c3cc2c1

>  <score_type>  (21) 
oracle

>  <origin>  (21) 
adg

>  <m_score__min__energy>  (21) 
-6.0199999999999996

>  <m_primary>  (21) 
energy

$$$$
22:0
     RDKit          3D

 52 55  0  0  0  0  0  0  0  0999 V2000
   56.2670   29.7260   42.5890 C   0  0  0  0  0  0  0  0  0  0  0  0
   55.6530   29.7510   43.9840 C   0  0  0  0  0  0  0  0  0  0  0  0
   56.6270   29.2500   44.9770 N   0  0  0  0  0  0  0  0  0  0  0  0
   57.4730   28.1690   44.4430 C   0  0  0  0  0  0  0  0  0  0  0  0
   57.3970   30.3170   45.6590 C   0  0  0  0  0  0  0  0  0  0  0  0
   58.0070   31.3890   44.7310 C   0  0  0  0  0  0  0  0  0  0  0  0
   58.4550   32.5660   45.4740 N   0  0  0  0  0  0  0  0  0  0  0  0
   58.5200   33.7880   44.9430 N   0  0  0  0  0  0  0  0  0  0  0  0
   59.1130   34.5830   45.8670 C   0  0  0  0  0  0  0  0  0  0  0  0
   59.6520   35.9430   45.5700 C   0  0  0  0  0  0  0  0  0  0  0  0
   59.4120   33.8660   46.9620 N   0  0  0  0  0  0  0  0  0  0  0  0
   60.4830   33.8920   47.7300 N   0  0  0  0  0  0  0  0  0  0  0  0
   60.7030   32.5980   48.0810 C   0  0  0  0  0  0  0  0  0  0  0  0
   61.8820   32.1720   48.8620 C   0  0  0  0  0  0  0  0  0  0  0  0
   61.6900   31.3680   49.9960 C   0  0  0  0  0  0  0  0  0  0  0  0
   62.7790   30.9730   50.7770 C   0  0  0  0  0  0  0  0  0  0  0  0
   64.0710   31.3680   50.4270 C   0  0  0  0  0  0  0  0  0  0  0  0
   64.2780   32.1510   49.2880 C   0  0  0  0  0  0  0  0  0  0  0  0
   63.1930   32.5520   48.4990 C   0  0  0  0  0  0  0  0  0  0  0  0
   63.5280   33.4540   47.0240 Cl  0  0  0  0  0  0  0  0  0  0  0  0
   59.8020   31.7470   47.4120 C   0  0  0  0  0  0  0  0  0  0  0  0
   59.9570   30.2990   47.1910 C   0  0  0  0  0  0  0  0  0  0  0  0
   59.5080   29.3820   48.1540 C   0  0  0  0  0  0  0  0  0  0  0  0
   59.6520   28.0090   47.9370 C   0  0  0  0  0  0  0  0  0  0  0  0
   60.2390   27.5440   46.7560 C   0  0  0  0  0  0  0  0  0  0  0  0
   60.3770   26.2110   46.5470 F   0  0  0  0  0  0  0  0  0  0  0  0
   60.6760   28.4530   45.7890 C   0  0  0  0  0  0  0  0  0  0  0  0
   60.5330   29.8270   46.0030 C   0  0  0  0  0  0  0  0  0  0  0  0
   59.0160   32.6390   46.7020 C   0  0  0  0  0  0  0  0  0  0  0  0
   57.3630   29.6814   42.6715 H   0  0  0  0  0  0  0  0  0  0  0  0
   55.9040   28.8419   42.0444 H   0  0  0  0  0  0  0  0  0  0  0  0
   55.9771   30.6367   42.0444 H   0  0  0  0  0  0  0  0  0  0  0  0
   55.3716   30.7833   44.2392 H   0  0  0  0  0  0  0  0  0  0  0  0
   54.7620   29.1061   43.9967 H   0  0  0  0  0  0  0  0  0  0  0  0
   57.9153   27.6038   45.2766 H   0  0  0  0  0  0  0  0  0  0  0  0
   56.8604   27.4944   43.8268 H   0  0  0  0  0  0  0  0  0  0  0  0
   58.2750   28.6015   43.8268 H   0  0  0  0  0  0  0  0  0  0  0  0
   56.7229   30.8234   46.3655 H   0  0  0  0  0  0  0  0  0  0  0  0
   58.2478   29.8150   46.1428 H   0  0  0  0  0  0  0  0  0  0  0  0
   58.8681   30.9533   44.2031 H   0  0  0  0  0  0  0  0  0  0  0  0
   57.2276   31.7098   44.0241 H   0  0  0  0  0  0  0  0  0  0  0  0
   59.8604   36.4689   46.5134 H   0  0  0  0  0  0  0  0  0  0  0  0
   60.5813   35.8502   44.9889 H   0  0  0  0  0  0  0  0  0  0  0  0
   58.9114   36.5121   44.9889 H   0  0  0  0  0  0  0  0  0  0  0  0
   60.6749   31.0465   50.2720 H   0  0  0  0  0  0  0  0  0  0  0  0
   62.6179   30.3498   51.6690 H   0  0  0  0  0  0  0  0  0  0  0  0
   64.9264   31.0630   51.0476 H   0  0  0  0  0  0  0  0  0  0  0  0
   65.2983   32.4537   49.0100 H   0  0  0  0  0  0  0  0  0  0  0  0
   59.0416   29.7449   49.0818 H   0  0  0  0  0  0  0  0  0  0  0  0
   59.3032   27.2933   48.6960 H   0  0  0  0  0  0  0  0  0  0  0  0
   61.1332   28.0869   44.8579 H   0  0  0  0  0  0  0  0  0  0  0  0
   60.8733   30.5398   45.2374 H   0  0  0  0  0  0  0  0  0  0  0  0
  1  2  1  0
  2  3  1  0
  3  4  1  0
  3  5  1  0
  5  6  1  0
  6  7  1  0
  7  8  1  0
  8  9  2  0
  9 10  1  0
  9 11  1  0
 11 12  1  0
 12 13  2  0
 13 14  1  0
 14 15  2  0
 15 16  1  0
 16 17  2  0
 17 18  1  0
 18 19  2  0
 19 20  1  0
 13 21  1  0
 21 22  1  0
 22 23  2  0
 23 24  1  0
 24 25  2  0
 25 26  1  0
 25 27  1  0
 27 28  2  0
 21 29  2  0
 29  7  1  0
 29 11  1  0
 19 14  1  0
 28 22  1  0
  1 30  1  0
  1 31  1  0
  1 32  1  0
  2 33  1  0
  2 34  1  0
  4 35  1  0
  4 36  1  0
  4 37  1  0
  5 38  1  0
  5 39  1  0
  6 40  1  0
  6 41  1  0
 10 42  1  0
 10 43  1  0
 10 44  1  0
 15 45  1  0
 16 46  1  0
 17 47  1  0
 18 48  1  0
 23 49  1  0
 24 50  1  0
 27 51  1  0
 28 52  1  0
M  END
>  <UniqueID>  (22) 
22

>  <SMILES>  (22) 
CCN(C)CCn1nc(C)n2nc(-c3ccccc3Cl)c(-c3ccc(F)cc3)c12

>  <Energy>  (22) 
164.27154946603258

>  <Genealogy>  (22) 
CCN(C)CCn1nc(C)n2nc(-c3ccccc3Cl)c(-c3ccc(F)cc3)c12 (3D coordinates assigned)
CCN(C)CCn1nc(C)n2nc(-c3ccccc3Cl)c(-c3ccc(F)cc3)c12 (optimized conformer: 164.27154946603258 kcal/mol)

>  <smiles>  (22) 
CCN(C)CCn1nc(C)n2nc(-c3ccccc3Cl)c(-c3ccc(F)cc3)c12

>  <score_type>  (22) 
oracle

>  <origin>  (22) 
adg

>  <m_score__min__energy>  (22) 
-8.0099999999999998

>  <m_primary>  (22) 
energy

$$$$
23:0
     RDKit          3D

 64 67  0  0  0  0  0  0  0  0999 V2000
   53.1040   24.1360   45.2590 C   0  0  0  0  0  0  0  0  0  0  0  0
   54.6330   24.1600   45.1240 C   0  0  0  0  0  0  0  0  0  0  0  0
   55.3620   24.1710   46.4170 N   0  0  0  0  0  0  0  0  0  0  0  0
   54.7010   23.3370   47.4480 C   0  0  0  0  0  0  0  0  0  0  0  0
   55.7590   22.6640   48.3140 C   0  0  0  0  0  0  0  0  0  0  0  0
   56.8130   23.9010   46.3170 C   0  0  0  0  0  0  0  0  0  0  0  0
   57.4880   24.8000   45.2680 C   0  0  0  0  0  0  0  0  0  0  0  0
   56.9170   26.1470   45.2990 N   0  0  0  0  0  0  0  0  0  0  0  0
   57.6690   27.3550   45.5330 C   0  0  0  0  0  0  0  0  0  0  0  0
   58.9980   27.3290   45.9930 C   0  0  0  0  0  0  0  0  0  0  0  0
   59.7000   28.5190   46.2050 C   0  0  0  0  0  0  0  0  0  0  0  0
   59.0890   29.7610   45.9520 C   0  0  0  0  0  0  0  0  0  0  0  0
   59.7630   30.9800   46.1500 C   0  0  0  0  0  0  0  0  0  0  0  0
   60.9490   30.9560   46.5730 O   0  0  0  0  0  0  0  0  0  0  0  0
   59.0990   32.2070   45.8740 C   0  0  0  0  0  0  0  0  0  0  0  0
   59.6830   33.5070   46.0310 C   0  0  0  0  0  0  0  0  0  0  0  0
   61.0900   33.7600   46.5440 C   0  0  0  0  0  0  0  0  0  0  0  0
   61.0930   34.0850   48.0440 C   0  0  0  0  0  0  0  0  0  0  0  0
   62.4820   34.1830   48.5490 N   0  0  0  0  0  0  0  0  0  0  0  0
   63.4720   33.6060   47.6080 C   0  0  0  0  0  0  0  0  0  0  0  0
   63.7620   32.1190   47.8970 C   0  0  0  0  0  0  0  0  0  0  0  0
   62.6660   31.5160   48.5520 O   0  0  0  0  0  0  0  0  0  0  0  0
   62.5260   32.0510   49.8570 C   0  0  0  0  0  0  0  0  0  0  0  0
   62.6310   33.5940   49.8940 C   0  0  0  0  0  0  0  0  0  0  0  0
   58.9050   34.6450   45.7460 C   0  0  0  0  0  0  0  0  0  0  0  0
   57.5950   34.5280   45.2940 C   0  0  0  0  0  0  0  0  0  0  0  0
   57.0250   33.2740   45.1240 C   0  0  0  0  0  0  0  0  0  0  0  0
   57.7560   32.1200   45.4100 C   0  0  0  0  0  0  0  0  0  0  0  0
   57.1630   30.9440   45.2390 O   0  0  0  0  0  0  0  0  0  0  0  0
   57.7620   29.7890   45.4850 C   0  0  0  0  0  0  0  0  0  0  0  0
   57.0640   28.5950   45.2760 C   0  0  0  0  0  0  0  0  0  0  0  0
   52.8300   24.1317   46.3243 H   0  0  0  0  0  0  0  0  0  0  0  0
   52.6791   25.0276   44.7747 H   0  0  0  0  0  0  0  0  0  0  0  0
   52.7073   23.2315   44.7747 H   0  0  0  0  0  0  0  0  0  0  0  0
   54.9429   23.2668   44.5618 H   0  0  0  0  0  0  0  0  0  0  0  0
   54.8885   25.0991   44.6112 H   0  0  0  0  0  0  0  0  0  0  0  0
   54.0614   23.9722   48.0784 H   0  0  0  0  0  0  0  0  0  0  0  0
   54.0859   22.5680   46.9577 H   0  0  0  0  0  0  0  0  0  0  0  0
   55.5163   22.8184   49.3757 H   0  0  0  0  0  0  0  0  0  0  0  0
   55.7802   21.5861   48.0957 H   0  0  0  0  0  0  0  0  0  0  0  0
   56.7443   23.1017   48.0957 H   0  0  0  0  0  0  0  0  0  0  0  0
   57.2782   24.0852   47.2966 H   0  0  0  0  0  0  0  0  0  0  0  0
   56.9463   22.8538   46.0078 H   0  0  0  0  0  0  0  0  0  0  0  0
   58.5653   24.8592   45.4822 H   0  0  0  0  0  0  0  0  0  0  0  0
   57.3212   24.3673   44.2705 H   0  0  0  0  0  0  0  0  0  0  0  0
   55.8840   26.2270   45.1520 H   0  0  0  0  0  0  0  0  0  0  0  0
   59.4890   26.3641   46.1875 H   0  0  0  0  0  0  0  0  0  0  0  0
   60.7364   28.4843   46.5719 H   0  0  0  0  0  0  0  0  0  0  0  0
   61.7000   32.8609   46.3721 H   0  0  0  0  0  0  0  0  0  0  0  0
   61.5038   34.6239   46.0033 H   0  0  0  0  0  0  0  0  0  0  0  0
   60.5794   35.0438   48.2080 H   0  0  0  0  0  0  0  0  0  0  0  0
   60.5732   33.2801   48.5842 H   0  0  0  0  0  0  0  0  0  0  0  0
   63.0805   33.6969   46.5840 H   0  0  0  0  0  0  0  0  0  0  0  0
   64.4138   34.1610   47.7307 H   0  0  0  0  0  0  0  0  0  0  0  0
   63.9477   31.5959   46.9473 H   0  0  0  0  0  0  0  0  0  0  0  0
   64.6454   32.0506   48.5488 H   0  0  0  0  0  0  0  0  0  0  0  0
   61.5424   31.7573   50.2522 H   0  0  0  0  0  0  0  0  0  0  0  0
   63.3502   31.6511   50.4659 H   0  0  0  0  0  0  0  0  0  0  0  0
   61.8387   33.9898   50.5464 H   0  0  0  0  0  0  0  0  0  0  0  0
   63.6269   33.8611   50.2773 H   0  0  0  0  0  0  0  0  0  0  0  0
   59.3413   35.6454   45.8834 H   0  0  0  0  0  0  0  0  0  0  0  0
   57.0090   35.4317   45.0706 H   0  0  0  0  0  0  0  0  0  0  0  0
   55.9900   33.1891   44.7614 H   0  0  0  0  0  0  0  0  0  0  0  0
   56.0287   28.6283   44.9058 H   0  0  0  0  0  0  0  0  0  0  0  0
  1  2  1  0
  2  3  1  0
  3  4  1  0
  4  5  1  0
  3  6  1  0
  6  7  1  0
  7  8  1  0
  8  9  1  0
  9 10  2  0
 10 11  1  0
 11 12  2  0
 12 13  1  0
 13 14  2  0
 13 15  1  0
 15 16  2  0
 16 17  1  0
 17 18  1  0
 18 19  1  0
 19 20  1  0
 20 21  1  0
 21 22  1  0
 22 23  1  0
 23 24  1  0
 16 25  1  0
 25 26  2  0
 26 27  1  0
 27 28  2  0
 28 29  1  0
 29 30  1  0
 30 31  2  0
 31  9  1  0
 30 12  1  0
 28 15  1  0
 24 19  1  0
  1 32  1  0
  1 33  1  0
  1 34  1  0
  2 35  1  0
  2 36  1  0
  4 37  1  0
  4 38  1  0
  5 39  1  0
  5 40  1  0
  5 41  1  0
  6 42  1  0
  6 43  1  0
  7 44  1  0
  7 45  1  0
  8 46  1  0
 10 47  1  0
 11 48  1  0
 17 49  1  0
 17 50  1  0
 18 51  1  0
 18 52  1  0
 20 53  1  0
 20 54  1  0
 21 55  1  0
 21 56  1  0
 23 57  1  0
 23 58  1  0
 24 59  1  0
 24 60  1  0
 25 61  1  0
 26 62  1  0
 27 63  1  0
 31 64  1  0
M  END
>  <UniqueID>  (23) 
23

>  <SMILES>  (23) 
CCN(CC)CCNc1ccc2c(=O)c3c(CCN4CCOCC4)cccc3oc2c1

>  <Energy>  (23) 
91.87402253080687

>  <Genealogy>  (23) 
CCN(CC)CCNc1ccc2c(=O)c3c(CCN4CCOCC4)cccc3oc2c1 (3D coordinates assigned)
CCN(CC)CCNc1ccc2c(=O)c3c(CCN4CCOCC4)cccc3oc2c1 (nonaromatic ring conformer: 91.87402253080687 kcal/mol)

>  <smiles>  (23) 
CCN(CC)CCNc1ccc2c(=O)c3c(CCN4CCOCC4)cccc3oc2c1

>  <score_type>  (23) 
oracle

>  <origin>  (23) 
adg

>  <m_score__min__energy>  (23) 
-8.3200000000000003

>  <m_primary>  (23) 
energy

$$$$
24:0
     RDKit          3D

 47 49  0  0  0  0  0  0  0  0999 V2000
   56.0600   29.2290   44.4260 O   0  0  0  0  0  0  0  0  0  0  0  0
   57.0150   29.9150   43.6690 C   0  0  0  0  0  0  0  0  0  0  0  0
   57.5170   31.0920   44.4560 C   0  0  0  0  0  0  0  0  0  0  0  0
   57.6470   32.3480   43.8440 C   0  0  0  0  0  0  0  0  0  0  0  0
   58.0140   33.4670   44.5990 C   0  0  0  0  0  0  0  0  0  0  0  0
   58.2630   33.3450   45.9770 C   0  0  0  0  0  0  0  0  0  0  0  0
   58.5240   34.5710   46.8290 C   0  0  0  0  0  0  0  0  0  0  0  0
   59.9170   34.7090   47.3310 N   0  0  0  0  0  0  0  0  0  0  0  0
   60.1130   34.2040   48.7130 C   0  0  0  0  0  0  0  0  0  0  0  0
   60.4310   32.6920   48.8060 C   0  0  0  0  0  0  0  0  0  0  0  0
   60.8560   32.1060   47.5180 N   0  0  0  0  0  0  0  0  0  0  0  0
   61.5020   30.7860   47.7090 C   0  0  0  0  0  0  0  0  0  0  0  0
   60.6370   29.7020   47.1140 C   0  0  0  0  0  0  0  0  0  0  0  0
   60.7790   29.3860   45.7480 C   0  0  0  0  0  0  0  0  0  0  0  0
   59.9960   28.3840   45.1660 C   0  0  0  0  0  0  0  0  0  0  0  0
   59.0740   27.6760   45.9400 C   0  0  0  0  0  0  0  0  0  0  0  0
   58.9230   27.9800   47.2940 C   0  0  0  0  0  0  0  0  0  0  0  0
   59.6760   29.0040   47.8830 C   0  0  0  0  0  0  0  0  0  0  0  0
   59.3180   29.4190   49.7280 Br  0  0  0  0  0  0  0  0  0  0  0  0
   61.7460   33.0380   46.8140 C   0  0  0  0  0  0  0  0  0  0  0  0
   60.9560   34.2690   46.3580 C   0  0  0  0  0  0  0  0  0  0  0  0
   58.1380   32.0840   46.5850 C   0  0  0  0  0  0  0  0  0  0  0  0
   57.7680   30.9670   45.8310 C   0  0  0  0  0  0  0  0  0  0  0  0
   56.0880   28.2860   44.1150 H   0  0  0  0  0  0  0  0  0  0  0  0
   57.8540   29.2421   43.4380 H   0  0  0  0  0  0  0  0  0  0  0  0
   56.5606   30.2649   42.7303 H   0  0  0  0  0  0  0  0  0  0  0  0
   57.4594   32.4532   42.7652 H   0  0  0  0  0  0  0  0  0  0  0  0
   58.1083   34.4484   44.1113 H   0  0  0  0  0  0  0  0  0  0  0  0
   58.2901   35.4606   46.2257 H   0  0  0  0  0  0  0  0  0  0  0  0
   57.8879   34.4643   47.7200 H   0  0  0  0  0  0  0  0  0  0  0  0
   60.0430   35.7470   47.4130 H   0  0  0  0  0  0  0  0  0  0  0  0
   60.9477   34.7589   49.1662 H   0  0  0  0  0  0  0  0  0  0  0  0
   59.1589   34.3555   49.2392 H   0  0  0  0  0  0  0  0  0  0  0  0
   61.2390   32.5492   49.5386 H   0  0  0  0  0  0  0  0  0  0  0  0
   59.5046   32.1812   49.1075 H   0  0  0  0  0  0  0  0  0  0  0  0
   62.4831   30.7843   47.2116 H   0  0  0  0  0  0  0  0  0  0  0  0
   61.6313   30.5975   48.7850 H   0  0  0  0  0  0  0  0  0  0  0  0
   61.5113   29.9316   45.1348 H   0  0  0  0  0  0  0  0  0  0  0  0
   60.1066   28.1530   44.0962 H   0  0  0  0  0  0  0  0  0  0  0  0
   58.4676   26.8799   45.4833 H   0  0  0  0  0  0  0  0  0  0  0  0
   58.2064   27.4104   47.9039 H   0  0  0  0  0  0  0  0  0  0  0  0
   62.5536   33.3531   47.4911 H   0  0  0  0  0  0  0  0  0  0  0  0
   62.1737   32.5356   45.9339 H   0  0  0  0  0  0  0  0  0  0  0  0
   61.6626   35.0982   46.2060 H   0  0  0  0  0  0  0  0  0  0  0  0
   60.4313   33.9892   45.4326 H   0  0  0  0  0  0  0  0  0  0  0  0
   58.3328   31.9755   47.6622 H   0  0  0  0  0  0  0  0  0  0  0  0
   57.6731   29.9851   46.3177 H   0  0  0  0  0  0  0  0  0  0  0  0
  1  2  1  0
  2  3  1  0
  3  4  2  0
  4  5  1  0
  5  6  2  0
  6  7  1  0
  7  8  1  0
  8  9  1  0
  9 10  1  0
 10 11  1  0
 11 12  1  0
 12 13  1  0
 13 14  2  0
 14 15  1  0
 15 16  2  0
 16 17  1  0
 17 18  2  0
 18 19  1  0
 11 20  1  0
 20 21  1  0
  6 22  1  0
 22 23  2  0
 23  3  1  0
 21  8  1  0
 18 13  1  0
  1 24  1  0
  2 25  1  0
  2 26  1  0
  4 27  1  0
  5 28  1  0
  7 29  1  0
  7 30  1  0
  8 31  1  0
  9 32  1  0
  9 33  1  0
 10 34  1  0
 10 35  1  0
 12 36  1  0
 12 37  1  0
 14 38  1  0
 15 39  1  0
 16 40  1  0
 17 41  1  0
 20 42  1  0
 20 43  1  0
 21 44  1  0
 21 45  1  0
 22 46  1  0
 23 47  1  0
M  CHG  1   8   1
M  END
>  <UniqueID>  (24) 
24

>  <SMILES>  (24) 
OCc1ccc(C[NH+]2CCN(Cc3ccccc3Br)CC2)cc1

>  <Energy>  (24) 
62.53454277443257

>  <Genealogy>  (24) 
OCc1ccc(C[NH+]2CCN(Cc3ccccc3Br)CC2)cc1 (protonated)
OCc1ccc(C[NH+]2CCN(Cc3ccccc3Br)CC2)cc1 (3D coordinates assigned)
OCc1ccc(C[NH+]2CCN(Cc3ccccc3Br)CC2)cc1 (nonaromatic ring conformer: 62.53454277443257 kcal/mol)

>  <smiles>  (24) 
OCc1ccc(CN2CCN(Cc3ccccc3Br)CC2)cc1

>  <score_type>  (24) 
oracle

>  <origin>  (24) 
adg

>  <m_score__min__energy>  (24) 
-7.5999999999999996

>  <m_primary>  (24) 
energy

$$$$
25:0
     RDKit          3D

 61 64  0  0  0  0  0  0  0  0999 V2000
   60.0270   33.5860   49.4550 C   0  0  0  0  0  0  0  0  0  0  0  0
   60.2550   34.6020   48.3290 C   0  0  0  0  0  0  0  0  0  0  0  0
   60.4190   33.9660   46.9960 N   0  0  0  0  0  0  0  0  0  0  0  0
   61.8430   33.7540   46.6070 C   0  0  0  0  0  0  0  0  0  0  0  0
   62.5390   32.5820   47.3220 C   0  0  0  0  0  0  0  0  0  0  0  0
   59.6660   34.7230   45.9500 C   0  0  0  0  0  0  0  0  0  0  0  0
   58.3390   34.0450   45.5590 C   0  0  0  0  0  0  0  0  0  0  0  0
   58.3680   32.6050   45.8520 N   0  0  0  0  0  0  0  0  0  0  0  0
   58.5540   32.2390   47.1240 N   0  0  0  0  0  0  0  0  0  0  0  0
   58.5800   30.9430   47.5190 C   0  0  0  0  0  0  0  0  0  0  0  0
   58.7540   30.6730   48.7380 O   0  0  0  0  0  0  0  0  0  0  0  0
   58.4140   29.9260   46.5700 C   0  0  0  0  0  0  0  0  0  0  0  0
   58.4390   28.5610   46.9400 C   0  0  0  0  0  0  0  0  0  0  0  0
   58.2840   27.6060   45.9410 C   0  0  0  0  0  0  0  0  0  0  0  0
   58.1090   27.9590   44.6210 C   0  0  0  0  0  0  0  0  0  0  0  0
   58.0670   29.2910   44.2200 C   0  0  0  0  0  0  0  0  0  0  0  0
   58.2230   30.2950   45.2080 C   0  0  0  0  0  0  0  0  0  0  0  0
   58.1970   31.6610   44.8720 C   0  0  0  0  0  0  0  0  0  0  0  0
   58.0170   32.0120   43.6720 O   0  0  0  0  0  0  0  0  0  0  0  0
   57.9870   26.7290   43.8460 C   0  0  0  0  0  0  0  0  0  0  0  0
   57.7880   26.6570   42.6040 O   0  0  0  0  0  0  0  0  0  0  0  0
   58.1030   25.5950   44.7100 N   0  0  0  0  0  0  0  0  0  0  0  0
   57.8130   24.2010   44.3820 C   0  0  0  0  0  0  0  0  0  0  0  0
   56.4640   24.0660   43.6700 C   0  0  0  0  0  0  0  0  0  0  0  0
   55.5690   23.1620   44.4320 N   0  0  0  0  0  0  0  0  0  0  0  0
   55.9900   23.0120   45.8390 C   0  0  0  0  0  0  0  0  0  0  0  0
   55.7390   24.3090   46.6460 C   0  0  0  0  0  0  0  0  0  0  0  0
   54.8520   25.2040   45.9950 O   0  0  0  0  0  0  0  0  0  0  0  0
   53.7310   24.5020   45.5040 C   0  0  0  0  0  0  0  0  0  0  0  0
   54.1430   23.5630   44.3520 C   0  0  0  0  0  0  0  0  0  0  0  0
   58.2680   26.1500   46.0160 C   0  0  0  0  0  0  0  0  0  0  0  0
   58.3650   25.4680   47.0700 O   0  0  0  0  0  0  0  0  0  0  0  0
   60.1392   34.0860   50.4283 H   0  0  0  0  0  0  0  0  0  0  0  0
   59.0128   33.1683   49.3721 H   0  0  0  0  0  0  0  0  0  0  0  0
   60.7655   32.7750   49.3721 H   0  0  0  0  0  0  0  0  0  0  0  0
   59.3903   35.2808   48.2893 H   0  0  0  0  0  0  0  0  0  0  0  0
   61.1887   35.1381   48.5543 H   0  0  0  0  0  0  0  0  0  0  0  0
   59.9930   33.0130   47.0820 H   0  0  0  0  0  0  0  0  0  0  0  0
   61.8774   33.5634   45.5242 H   0  0  0  0  0  0  0  0  0  0  0  0
   62.3844   34.6642   46.9045 H   0  0  0  0  0  0  0  0  0  0  0  0
   62.4588   32.7170   48.4107 H   0  0  0  0  0  0  0  0  0  0  0  0
   62.0556   31.6371   47.0331 H   0  0  0  0  0  0  0  0  0  0  0  0
   63.6000   32.5543   47.0331 H   0  0  0  0  0  0  0  0  0  0  0  0
   59.4459   35.7296   46.3352 H   0  0  0  0  0  0  0  0  0  0  0  0
   60.2968   34.7586   45.0495 H   0  0  0  0  0  0  0  0  0  0  0  0
   57.5187   34.5095   46.1259 H   0  0  0  0  0  0  0  0  0  0  0  0
   58.1878   34.1761   44.4773 H   0  0  0  0  0  0  0  0  0  0  0  0
   58.5773   28.2629   47.9897 H   0  0  0  0  0  0  0  0  0  0  0  0
   57.9166   29.5577   43.1635 H   0  0  0  0  0  0  0  0  0  0  0  0
   58.6056   23.8153   43.7240 H   0  0  0  0  0  0  0  0  0  0  0  0
   57.7704   23.6256   45.3185 H   0  0  0  0  0  0  0  0  0  0  0  0
   55.9951   25.0578   43.5895 H   0  0  0  0  0  0  0  0  0  0  0  0
   56.6288   23.6450   42.6672 H   0  0  0  0  0  0  0  0  0  0  0  0
   55.4206   22.1898   46.2971 H   0  0  0  0  0  0  0  0  0  0  0  0
   57.0687   22.7974   45.8562 H   0  0  0  0  0  0  0  0  0  0  0  0
   55.3093   24.0373   47.6215 H   0  0  0  0  0  0  0  0  0  0  0  0
   56.7058   24.8229   46.7519 H   0  0  0  0  0  0  0  0  0  0  0  0
   53.2926   23.9057   46.3177 H   0  0  0  0  0  0  0  0  0  0  0  0
   52.9952   25.2270   45.1258 H   0  0  0  0  0  0  0  0  0  0  0  0
   53.5187   22.6582   44.3932 H   0  0  0  0  0  0  0  0  0  0  0  0
   54.0004   24.1083   43.4074 H   0  0  0  0  0  0  0  0  0  0  0  0
  1  2  1  0
  2  3  1  0
  3  4  1  0
  4  5  1  0
  3  6  1  0
  6  7  1  0
  7  8  1  0
  8  9  1  0
  9 10  1  0
 10 11  2  0
 10 12  1  0
 12 13  2  0
 13 14  1  0
 14 15  2  0
 15 16  1  0
 16 17  2  0
 17 18  1  0
 18 19  2  0
 15 20  1  0
 20 21  2  0
 20 22  1  0
 22 23  1  0
 23 24  1  0
 24 25  1  0
 25 26  1  0
 26 27  1  0
 27 28  1  0
 28 29  1  0
 29 30  1  0
 22 31  1  0
 31 32  2  0
 18  8  1  0
 30 25  1  0
 17 12  1  0
 31 14  1  0
  1 33  1  0
  1 34  1  0
  1 35  1  0
  2 36  1  0
  2 37  1  0
  3 38  1  0
  4 39  1  0
  4 40  1  0
  5 41  1  0
  5 42  1  0
  5 43  1  0
  6 44  1  0
  6 45  1  0
  7 46  1  0
  7 47  1  0
 13 48  1  0
 16 49  1  0
 23 50  1  0
 23 51  1  0
 24 52  1  0
 24 53  1  0
 26 54  1  0
 26 55  1  0
 27 56  1  0
 27 57  1  0
 29 58  1  0
 29 59  1  0
 30 60  1  0
 30 61  1  0
M  CHG  2   3   1   9  -1
M  END
>  <UniqueID>  (25) 
25

>  <SMILES>  (25) 
CC[NH+](CC)CCn1[n-]c(=O)c2cc3c(cc2c1=O)C(=O)N(CCN1CCOCC1)C3=O

>  <Energy>  (25) 
115.85815890114351

>  <Genealogy>  (25) 
CC[NH+](CC)CCn1[n-]c(=O)c2cc3c(cc2c1=O)C(=O)N(CCN1CCOCC1)C3=O (protonated)
CC[NH+](CC)CCn1[n-]c(=O)c2cc3c(cc2c1=O)C(=O)N(CCN1CCOCC1)C3=O (3D coordinates assigned)
CC[NH+](CC)CCn1[n-]c(=O)c2cc3c(cc2c1=O)C(=O)N(CCN1CCOCC1)C3=O (nonaromatic ring conformer: 115.85815890114351 kcal/mol)

>  <smiles>  (25) 
CCN(CC)CCn1[nH]c(=O)c2cc3c(cc2c1=O)C(=O)N(CCN1CCOCC1)C3=O

>  <score_type>  (25) 
oracle

>  <origin>  (25) 
adg

>  <m_score__min__energy>  (25) 
-7.8700000000000001

>  <m_primary>  (25) 
energy

$$$$
26:0
     RDKit          3D

 47 50  0  0  0  0  0  0  0  0999 V2000
   59.4540   34.9030   45.5940 C   0  0  0  0  0  0  0  0  0  0  0  0
   59.8450   33.5850   46.0920 N   0  0  0  0  0  0  0  0  0  0  0  0
   59.1030   32.4490   46.0630 C   0  0  0  0  0  0  0  0  0  0  0  0
   59.8140   31.3820   46.5710 C   0  0  0  0  0  0  0  0  0  0  0  0
   61.0680   31.8670   46.8680 C   0  0  0  0  0  0  0  0  0  0  0  0
   62.2080   31.2260   47.3490 C   0  0  0  0  0  0  0  0  0  0  0  0
   63.3690   31.9990   47.5250 C   0  0  0  0  0  0  0  0  0  0  0  0
   63.3660   33.3770   47.2130 C   0  0  0  0  0  0  0  0  0  0  0  0
   62.2020   33.9970   46.7220 C   0  0  0  0  0  0  0  0  0  0  0  0
   61.0570   33.2100   46.5630 C   0  0  0  0  0  0  0  0  0  0  0  0
   59.2980   29.9800   46.6110 C   0  0  0  0  0  0  0  0  0  0  0  0
   57.7690   29.9720   46.3780 C   0  0  0  0  0  0  0  0  0  0  0  0
   57.3420   30.9010   45.2990 N   0  0  0  0  0  0  0  0  0  0  0  0
   57.8080   30.4810   43.9560 C   0  0  0  0  0  0  0  0  0  0  0  0
   56.7930   29.5290   43.3110 C   0  0  0  0  0  0  0  0  0  0  0  0
   57.3940   28.2250   42.9840 N   0  0  0  0  0  0  0  0  0  0  0  0
   58.5630   27.9320   43.8310 C   0  0  0  0  0  0  0  0  0  0  0  0
   58.2070   27.0530   44.9960 C   0  0  0  0  0  0  0  0  0  0  0  0
   59.0980   26.3000   45.7490 C   0  0  0  0  0  0  0  0  0  0  0  0
   58.4810   25.6000   46.7940 C   0  0  0  0  0  0  0  0  0  0  0  0
   57.1080   25.8020   46.8660 C   0  0  0  0  0  0  0  0  0  0  0  0
   56.6630   26.8540   45.6310 S   0  0  0  0  0  0  0  0  0  0  0  0
   57.6770   32.3140   45.6100 C   0  0  0  0  0  0  0  0  0  0  0  0
   59.2555   35.5721   46.4442 H   0  0  0  0  0  0  0  0  0  0  0  0
   60.2672   35.3196   44.9816 H   0  0  0  0  0  0  0  0  0  0  0  0
   58.5451   34.8088   44.9816 H   0  0  0  0  0  0  0  0  0  0  0  0
   62.1998   30.1512   47.5831 H   0  0  0  0  0  0  0  0  0  0  0  0
   64.2861   31.5277   47.9083 H   0  0  0  0  0  0  0  0  0  0  0  0
   64.2813   33.9703   47.3551 H   0  0  0  0  0  0  0  0  0  0  0  0
   62.1931   35.0679   46.4709 H   0  0  0  0  0  0  0  0  0  0  0  0
   59.7894   29.3884   45.8245 H   0  0  0  0  0  0  0  0  0  0  0  0
   59.5152   29.5434   47.5970 H   0  0  0  0  0  0  0  0  0  0  0  0
   57.4612   28.9519   46.1047 H   0  0  0  0  0  0  0  0  0  0  0  0
   57.2919   30.3084   47.3103 H   0  0  0  0  0  0  0  0  0  0  0  0
   57.9265   31.3700   43.3191 H   0  0  0  0  0  0  0  0  0  0  0  0
   58.7707   29.9590   44.0596 H   0  0  0  0  0  0  0  0  0  0  0  0
   55.9592   29.3708   44.0109 H   0  0  0  0  0  0  0  0  0  0  0  0
   56.4430   29.9875   42.3744 H   0  0  0  0  0  0  0  0  0  0  0  0
   57.6730   28.1990   41.9750 H   0  0  0  0  0  0  0  0  0  0  0  0
   56.6860   27.4730   43.1540 H   0  0  0  0  0  0  0  0  0  0  0  0
   59.3245   27.4232   43.2218 H   0  0  0  0  0  0  0  0  0  0  0  0
   58.9428   28.8851   44.2277 H   0  0  0  0  0  0  0  0  0  0  0  0
   60.1782   26.2574   45.5458 H   0  0  0  0  0  0  0  0  0  0  0  0
   59.0314   24.9517   47.4917 H   0  0  0  0  0  0  0  0  0  0  0  0
   56.4285   25.3512   47.6042 H   0  0  0  0  0  0  0  0  0  0  0  0
   57.5283   32.9247   44.7073 H   0  0  0  0  0  0  0  0  0  0  0  0
   57.0201   32.6560   46.4233 H   0  0  0  0  0  0  0  0  0  0  0  0
  1  2  1  0
  2  3  1  0
  3  4  2  0
  4  5  1  0
  5  6  2  0
  6  7  1  0
  7  8  2  0
  8  9  1  0
  9 10  2  0
  4 11  1  0
 11 12  1  0
 12 13  1  0
 13 14  1  0
 14 15  1  0
 15 16  1  0
 16 17  1  0
 17 18  1  0
 18 19  2  0
 19 20  1  0
 20 21  2  0
 21 22  1  0
 13 23  1  0
 10  2  1  0
 22 18  1  0
 23  3  1  0
 10  5  1  0
  1 24  1  0
  1 25  1  0
  1 26  1  0
  6 27  1  0
  7 28  1  0
  8 29  1  0
  9 30  1  0
 11 31  1  0
 11 32  1  0
 12 33  1  0
 12 34  1  0
 14 35  1  0
 14 36  1  0
 15 37  1  0
 15 38  1  0
 16 39  1  0
 16 40  1  0
 17 41  1  0
 17 42  1  0
 19 43  1  0
 20 44  1  0
 21 45  1  0
 23 46  1  0
 23 47  1  0
M  CHG  1  16   1
M  END
>  <UniqueID>  (26) 
26

>  <SMILES>  (26) 
Cn1c2c(c3ccccc31)CCN(CC[NH2+]Cc1cccs1)C2

>  <Energy>  (26) 
115.61324549675118

>  <Genealogy>  (26) 
Cn1c2c(c3ccccc31)CCN(CC[NH2+]Cc1cccs1)C2 (protonated)
Cn1c2c(c3ccccc31)CCN(CC[NH2+]Cc1cccs1)C2 (3D coordinates assigned)
Cn1c2c(c3ccccc31)CCN(CC[NH2+]Cc1cccs1)C2 (nonaromatic ring conformer: 115.61324549675118 kcal/mol)

>  <smiles>  (26) 
Cn1c2c(c3ccccc31)CCN(CCNCc1cccs1)C2

>  <score_type>  (26) 
oracle

>  <origin>  (26) 
adg

>  <m_score__min__energy>  (26) 
-6.7400000000000002

>  <m_primary>  (26) 
energy

$$$$
27:0
     RDKit          3D

 47 50  0  0  0  0  0  0  0  0999 V2000
   58.9570   30.0850   49.5240 C   0  0  0  0  0  0  0  0  0  0  0  0
   58.2910   30.9350   50.5940 C   0  0  0  0  0  0  0  0  0  0  0  0
   58.1530   32.2570   50.1160 O   0  0  0  0  0  0  0  0  0  0  0  0
   59.1620   33.0910   50.6550 C   0  0  0  0  0  0  0  0  0  0  0  0
   59.8920   33.8260   49.5150 C   0  0  0  0  0  0  0  0  0  0  0  0
   59.4850   33.4510   48.1330 N   0  0  1  0  0  0  0  0  0  0  0  0
   58.8910   34.5510   47.3490 C   0  0  1  0  0  0  0  0  0  0  0  0
   60.0220   35.1710   46.5170 C   0  0  0  0  0  0  0  0  0  0  0  0
   61.0550   34.0630   46.3690 C   0  0  0  0  0  0  0  0  0  0  0  0
   60.5860   32.9270   47.2970 C   0  0  2  0  0  0  0  0  0  0  0  0
   60.1000   31.7220   46.4900 C   0  0  0  0  0  0  0  0  0  0  0  0
   60.7860   30.5080   46.6380 C   0  0  0  0  0  0  0  0  0  0  0  0
   60.3690   29.3610   45.9720 C   0  0  0  0  0  0  0  0  0  0  0  0
   59.2360   29.3900   45.1560 C   0  0  0  0  0  0  0  0  0  0  0  0
   58.8130   28.2150   44.5120 C   0  0  0  0  0  0  0  0  0  0  0  0
   57.6700   28.2220   43.7140 C   0  0  0  0  0  0  0  0  0  0  0  0
   56.9340   29.3960   43.5570 C   0  0  0  0  0  0  0  0  0  0  0  0
   57.3430   30.5720   44.1880 C   0  0  0  0  0  0  0  0  0  0  0  0
   58.5120   30.5980   44.9850 C   0  0  0  0  0  0  0  0  0  0  0  0
   58.9580   31.7850   45.6340 C   0  0  0  0  0  0  0  0  0  0  0  0
   58.2980   33.0900   45.3420 C   0  0  0  0  0  0  0  0  0  0  0  0
   58.2030   33.4660   44.1420 O   0  0  0  0  0  0  0  0  0  0  0  0
   57.7730   34.0030   46.4260 C   0  0  0  0  0  0  0  0  0  0  0  0
   59.5679   29.3054   50.0026 H   0  0  0  0  0  0  0  0  0  0  0  0
   58.1856   29.6133   48.8976 H   0  0  0  0  0  0  0  0  0  0  0  0
   59.5995   30.7212   48.8976 H   0  0  0  0  0  0  0  0  0  0  0  0
   57.2984   30.5223   50.8271 H   0  0  0  0  0  0  0  0  0  0  0  0
   58.9075   30.9333   51.5050 H   0  0  0  0  0  0  0  0  0  0  0  0
   58.7045   33.8281   51.3313 H   0  0  0  0  0  0  0  0  0  0  0  0
   59.8836   32.4759   51.2127 H   0  0  0  0  0  0  0  0  0  0  0  0
   59.7108   34.9039   49.6388 H   0  0  0  0  0  0  0  0  0  0  0  0
   60.9492   33.5352   49.6028 H   0  0  0  0  0  0  0  0  0  0  0  0
   58.7690   32.6990   48.2860 H   0  0  0  0  0  0  0  0  0  0  0  0
   58.4369   35.3060   48.0076 H   0  0  0  0  0  0  0  0  0  0  0  0
   59.6489   35.4860   45.5313 H   0  0  0  0  0  0  0  0  0  0  0  0
   60.4433   36.0675   46.9954 H   0  0  0  0  0  0  0  0  0  0  0  0
   61.0961   33.7141   45.3266 H   0  0  0  0  0  0  0  0  0  0  0  0
   62.0642   34.4118   46.6334 H   0  0  0  0  0  0  0  0  0  0  0  0
   61.4256   32.5899   47.9226 H   0  0  0  0  0  0  0  0  0  0  0  0
   61.6691   30.4624   47.2922 H   0  0  0  0  0  0  0  0  0  0  0  0
   60.9349   28.4250   46.0885 H   0  0  0  0  0  0  0  0  0  0  0  0
   59.3866   27.2849   44.6382 H   0  0  0  0  0  0  0  0  0  0  0  0
   57.3482   27.3001   43.2074 H   0  0  0  0  0  0  0  0  0  0  0  0
   56.0277   29.3953   42.9336 H   0  0  0  0  0  0  0  0  0  0  0  0
   56.7493   31.4897   44.0642 H   0  0  0  0  0  0  0  0  0  0  0  0
   57.2620   34.8535   45.9511 H   0  0  0  0  0  0  0  0  0  0  0  0
   57.0892   33.4114   47.0524 H   0  0  0  0  0  0  0  0  0  0  0  0
  1  2  1  0
  2  3  1  0
  3  4  1  0
  4  5  1  0
  5  6  1  0
  6  7  1  0
  7  8  1  0
  8  9  1  0
  9 10  1  0
 10 11  1  0
 11 12  2  0
 12 13  1  0
 13 14  2  0
 14 15  1  0
 15 16  2  0
 16 17  1  0
 17 18  2  0
 18 19  1  0
 19 20  2  0
 20 21  1  0
 21 22  2  0
 21 23  1  0
 10  6  1  0
 20 11  1  0
 23  7  1  0
 19 14  1  0
  1 24  1  0
  1 25  1  0
  1 26  1  0
  2 27  1  0
  2 28  1  0
  4 29  1  0
  4 30  1  0
  5 31  1  0
  5 32  1  0
  6 33  1  1
  7 34  1  1
  8 35  1  0
  8 36  1  0
  9 37  1  0
  9 38  1  0
 10 39  1  1
 12 40  1  0
 13 41  1  0
 15 42  1  0
 16 43  1  0
 17 44  1  0
 18 45  1  0
 23 46  1  0
 23 47  1  0
M  CHG  1   6   1
M  END
>  <UniqueID>  (27) 
27

>  <SMILES>  (27) 
CCOCC[N@@H+]1C2CC[C@H]1CC(=O)c1c2ccc2ccccc12

>  <Energy>  (27) 
77.5933881434987

>  <Genealogy>  (27) 
CCOCC[NH+]1C2CCC1c1ccc3ccccc3c1C(=O)C2 (protonated)
CCOCC[N@@H+]1C2CC[C@H]1CC(=O)c1c2ccc2ccccc12 (chirality)
CCOCC[N@@H+]1C2CC[C@H]1CC(=O)c1c2ccc2ccccc12 (3D coordinates assigned)
CCOCC[N@@H+]1C2CC[C@H]1CC(=O)c1c2ccc2ccccc12 (nonaromatic ring conformer: 77.5933881434987 kcal/mol)

>  <smiles>  (27) 
CCOCCN1C2CCC1c1ccc3ccccc3c1C(=O)C2

>  <score_type>  (27) 
oracle

>  <origin>  (27) 
adg

>  <m_score__min__energy>  (27) 
-4.9299999999999997

>  <m_primary>  (27) 
energy

$$$$
28:0
     RDKit          3D

 51 52  0  0  0  0  0  0  0  0999 V2000
   60.7270   29.8160   47.9820 C   0  0  0  0  0  0  0  0  0  0  0  0
   61.5420   30.7820   47.1280 C   0  0  0  0  0  0  0  0  0  0  0  0
   62.3220   31.6400   47.9420 O   0  0  0  0  0  0  0  0  0  0  0  0
   63.1990   32.4120   47.1480 C   0  0  0  0  0  0  0  0  0  0  0  0
   63.2220   33.8490   47.6730 C   0  0  0  0  0  0  0  0  0  0  0  0
   63.0510   33.9460   49.2070 C   0  0  0  0  0  0  0  0  0  0  0  0
   61.8010   33.3530   49.7220 N   0  0  0  0  0  0  0  0  0  0  0  0
   61.8310   33.1420   51.1790 C   0  0  0  0  0  0  0  0  0  0  0  0
   60.4540   33.4030   51.8140 C   0  0  0  0  0  0  0  0  0  0  0  0
   59.4780   33.7110   50.8350 O   0  0  0  0  0  0  0  0  0  0  0  0
   58.4820   32.7090   50.7930 C   0  0  0  0  0  0  0  0  0  0  0  0
   58.5520   31.9740   49.4610 C   0  0  0  0  0  0  0  0  0  0  0  0
   59.5960   32.5240   48.6610 O   0  0  0  0  0  0  0  0  0  0  0  0
   59.4010   33.3200   47.5170 C   0  0  0  0  0  0  0  0  0  0  0  0
   59.8030   34.6700   47.4800 C   0  0  0  0  0  0  0  0  0  0  0  0
   59.6430   35.4260   46.3170 C   0  0  0  0  0  0  0  0  0  0  0  0
   59.0820   34.8540   45.1760 C   0  0  0  0  0  0  0  0  0  0  0  0
   58.6580   33.5190   45.1930 C   0  0  0  0  0  0  0  0  0  0  0  0
   58.0830   32.9440   44.0480 C   0  0  0  0  0  0  0  0  0  0  0  0
   57.6490   31.6160   44.0730 C   0  0  0  0  0  0  0  0  0  0  0  0
   57.7750   30.8570   45.2380 C   0  0  0  0  0  0  0  0  0  0  0  0
   58.3430   31.4180   46.3840 C   0  0  0  0  0  0  0  0  0  0  0  0
   58.8050   32.7470   46.3730 C   0  0  0  0  0  0  0  0  0  0  0  0
   60.9055   30.0276   49.0466 H   0  0  0  0  0  0  0  0  0  0  0  0
   59.6574   29.9411   47.7576 H   0  0  0  0  0  0  0  0  0  0  0  0
   61.0303   28.7827   47.7576 H   0  0  0  0  0  0  0  0  0  0  0  0
   62.2085   30.2062   46.4691 H   0  0  0  0  0  0  0  0  0  0  0  0
   60.8498   31.3952   46.5323 H   0  0  0  0  0  0  0  0  0  0  0  0
   64.2119   31.9859   47.1984 H   0  0  0  0  0  0  0  0  0  0  0  0
   62.8531   32.4061   46.1038 H   0  0  0  0  0  0  0  0  0  0  0  0
   64.1854   34.3044   47.4002 H   0  0  0  0  0  0  0  0  0  0  0  0
   62.3696   34.3744   47.2177 H   0  0  0  0  0  0  0  0  0  0  0  0
   63.8978   33.4278   49.6806 H   0  0  0  0  0  0  0  0  0  0  0  0
   63.0124   35.0180   49.4505 H   0  0  0  0  0  0  0  0  0  0  0  0
   61.6790   32.4230   49.2580 H   0  0  0  0  0  0  0  0  0  0  0  0
   60.9830   33.9430   49.4500 H   0  0  0  0  0  0  0  0  0  0  0  0
   62.1281   32.1029   51.3838 H   0  0  0  0  0  0  0  0  0  0  0  0
   62.5524   33.8483   51.6157 H   0  0  0  0  0  0  0  0  0  0  0  0
   60.1377   32.5036   52.3627 H   0  0  0  0  0  0  0  0  0  0  0  0
   60.5455   34.2648   52.4915 H   0  0  0  0  0  0  0  0  0  0  0  0
   58.6459   31.9954   51.6139 H   0  0  0  0  0  0  0  0  0  0  0  0
   57.4912   33.1743   50.9017 H   0  0  0  0  0  0  0  0  0  0  0  0
   58.7536   30.9079   49.6422 H   0  0  0  0  0  0  0  0  0  0  0  0
   57.5930   32.0851   48.9337 H   0  0  0  0  0  0  0  0  0  0  0  0
   60.2464   35.1320   48.3744 H   0  0  0  0  0  0  0  0  0  0  0  0
   59.9614   36.4788   46.3009 H   0  0  0  0  0  0  0  0  0  0  0  0
   58.9720   35.4527   44.2598 H   0  0  0  0  0  0  0  0  0  0  0  0
   57.9741   33.5400   43.1299 H   0  0  0  0  0  0  0  0  0  0  0  0
   57.2065   31.1670   43.1716 H   0  0  0  0  0  0  0  0  0  0  0  0
   57.4259   29.8140   45.2534 H   0  0  0  0  0  0  0  0  0  0  0  0
   58.4297   30.8169   47.3012 H   0  0  0  0  0  0  0  0  0  0  0  0
  1  2  1  0
  2  3  1  0
  3  4  1  0
  4  5  1  0
  5  6  1  0
  6  7  1  0
  7  8  1  0
  8  9  1  0
  9 10  1  0
 10 11  1  0
 11 12  1  0
 12 13  1  0
 13 14  1  0
 14 15  2  0
 15 16  1  0
 16 17  2  0
 17 18  1  0
 18 19  2  0
 19 20  1  0
 20 21  2  0
 21 22  1  0
 22 23  2  0
 23 14  1  0
 23 18  1  0
  1 24  1  0
  1 25  1  0
  1 26  1  0
  2 27  1  0
  2 28  1  0
  4 29  1  0
  4 30  1  0
  5 31  1  0
  5 32  1  0
  6 33  1  0
  6 34  1  0
  7 35  1  0
  7 36  1  0
  8 37  1  0
  8 38  1  0
  9 39  1  0
  9 40  1  0
 11 41  1  0
 11 42  1  0
 12 43  1  0
 12 44  1  0
 15 45  1  0
 16 46  1  0
 17 47  1  0
 19 48  1  0
 20 49  1  0
 21 50  1  0
 22 51  1  0
M  CHG  1   7   1
M  END
>  <UniqueID>  (28) 
28

>  <SMILES>  (28) 
CCOCCC[NH2+]CCOCCOc1cccc2ccccc12

>  <Energy>  (28) 
44.55407544187429

>  <Genealogy>  (28) 
CCOCCC[NH2+]CCOCCOc1cccc2ccccc12 (protonated)
CCOCCC[NH2+]CCOCCOc1cccc2ccccc12 (3D coordinates assigned)
CCOCCC[NH2+]CCOCCOc1cccc2ccccc12 (optimized conformer: 44.55407544187429 kcal/mol)

>  <smiles>  (28) 
CCOCCCNCCOCCOc1cccc2ccccc12

>  <score_type>  (28) 
oracle

>  <origin>  (28) 
adg

>  <m_score__min__energy>  (28) 
-3.8599999999999999

>  <m_primary>  (28) 
energy

$$$$
29:0
     RDKit          3D

 33 34  0  0  0  0  0  0  0  0999 V2000
   57.8100   28.3580   44.4140 C   0  0  0  0  0  0  0  0  0  0  0  0
   57.3320   29.3330   45.4840 C   0  0  0  0  0  0  0  0  0  0  0  0
   57.0200   30.6450   44.8700 N   0  0  0  0  0  0  0  0  0  0  0  0
   56.5000   30.4620   43.5020 C   0  0  0  0  0  0  0  0  0  0  0  0
   58.0950   31.6830   44.8970 C   0  0  2  0  0  0  0  0  0  0  0  0
   59.1960   31.5160   45.9940 C   0  0  0  0  0  0  0  0  0  0  0  0
   59.4430   32.8130   46.6780 N   0  0  1  0  0  0  0  0  0  0  0  0
   59.8400   33.8430   45.6830 C   0  0  0  0  0  0  0  0  0  0  0  0
   58.7040   34.0900   44.6510 C   0  0  0  0  0  0  0  0  0  0  0  0
   57.5290   33.1320   44.9560 C   0  0  2  0  0  0  0  0  0  0  0  0
   57.0490   33.4790   46.3800 C   0  0  0  0  0  0  0  0  0  0  0  0
   58.2120   33.2510   47.3830 C   0  0  0  0  0  0  0  0  0  0  0  0
   58.2454   27.4699   44.8954 H   0  0  0  0  0  0  0  0  0  0  0  0
   56.9583   28.0549   43.7873 H   0  0  0  0  0  0  0  0  0  0  0  0
   58.5712   28.8457   43.7873 H   0  0  0  0  0  0  0  0  0  0  0  0
   56.4279   28.9316   45.9651 H   0  0  0  0  0  0  0  0  0  0  0  0
   58.1260   29.4645   46.2338 H   0  0  0  0  0  0  0  0  0  0  0  0
   55.4633   30.0972   43.5495 H   0  0  0  0  0  0  0  0  0  0  0  0
   56.5263   31.4234   42.9681 H   0  0  0  0  0  0  0  0  0  0  0  0
   57.1226   29.7290   42.9681 H   0  0  0  0  0  0  0  0  0  0  0  0
   58.5996   31.5104   43.9349 H   0  0  0  0  0  0  0  0  0  0  0  0
   58.8619   30.7734   46.7336 H   0  0  0  0  0  0  0  0  0  0  0  0
   60.1284   31.1793   45.5172 H   0  0  0  0  0  0  0  0  0  0  0  0
   60.2150   32.6930   47.3750 H   0  0  0  0  0  0  0  0  0  0  0  0
   60.7404   33.5011   45.1515 H   0  0  0  0  0  0  0  0  0  0  0  0
   60.0399   34.7847   46.2152 H   0  0  0  0  0  0  0  0  0  0  0  0
   59.0808   33.8996   43.6352 H   0  0  0  0  0  0  0  0  0  0  0  0
   58.3604   35.1327   44.7193 H   0  0  0  0  0  0  0  0  0  0  0  0
   56.6925   33.2209   44.2472 H   0  0  0  0  0  0  0  0  0  0  0  0
   56.1998   32.8336   46.6491 H   0  0  0  0  0  0  0  0  0  0  0  0
   56.7323   34.5318   46.4159 H   0  0  0  0  0  0  0  0  0  0  0  0
   57.9168   32.4768   48.1065 H   0  0  0  0  0  0  0  0  0  0  0  0
   58.4217   34.1997   47.8987 H   0  0  0  0  0  0  0  0  0  0  0  0
  1  2  1  0
  2  3  1  0
  3  4  1  0
  3  5  1  0
  5  6  1  0
  6  7  1  0
  7  8  1  0
  8  9  1  0
  9 10  1  0
 10 11  1  0
 11 12  1  0
 10  5  1  0
 12  7  1  0
  1 13  1  0
  1 14  1  0
  1 15  1  0
  2 16  1  0
  2 17  1  0
  4 18  1  0
  4 19  1  0
  4 20  1  0
  5 21  1  6
  6 22  1  0
  6 23  1  0
  7 24  1  1
  8 25  1  0
  8 26  1  0
  9 27  1  0
  9 28  1  0
 10 29  1  6
 11 30  1  0
 11 31  1  0
 12 32  1  0
 12 33  1  0
M  CHG  1   7   1
M  END
>  <UniqueID>  (29) 
29

>  <SMILES>  (29) 
CCN(C)[C@@H]1C[NH+]2CCC1CC2

>  <Energy>  (29) 
55.21513394672429

>  <Genealogy>  (29) 
CCN(C)C1C[NH+]2CCC1CC2 (protonated)
CCN(C)[C@@H]1C[NH+]2CCC1CC2 (chirality)
CCN(C)[C@@H]1C[NH+]2CCC1CC2 (3D coordinates assigned)
CCN(C)[C@@H]1C[NH+]2CCC1CC2 (nonaromatic ring conformer: 55.21513394672429 kcal/mol)

>  <smiles>  (29) 
CCN(C)C1CN2CCC1CC2

>  <score_type>  (29) 
oracle

>  <origin>  (29) 
adg

>  <m_score__min__energy>  (29) 
-3.73

>  <m_primary>  (29) 
energy

$$$$
30:0
     RDKit          3D

 53 55  0  0  0  0  0  0  0  0999 V2000
   63.3660   33.6070   46.4380 C   0  0  0  0  0  0  0  0  0  0  0  0
   62.3790   33.6040   47.6230 C   0  0  0  0  0  0  0  0  0  0  0  0
   62.2720   32.3270   48.4170 N   0  0  0  0  0  0  0  0  0  0  0  0
   63.6040   32.0360   49.0170 C   0  0  0  0  0  0  0  0  0  0  0  0
   61.2240   32.5940   49.4710 C   0  0  0  0  0  0  0  0  0  0  0  0
   60.3350   33.8420   49.2930 C   0  0  0  0  0  0  0  0  0  0  0  0
   61.8550   31.2250   47.4810 C   0  0  0  0  0  0  0  0  0  0  0  0
   61.0710   30.0360   48.0880 C   0  0  0  0  0  0  0  0  0  0  0  0
   59.6250   30.1900   47.9070 N   0  0  0  0  0  0  0  0  0  0  0  0
   59.0170   30.0690   46.6090 C   0  0  0  0  0  0  0  0  0  0  0  0
   58.7150   28.8000   46.0820 C   0  0  0  0  0  0  0  0  0  0  0  0
   59.0700   27.6230   46.7730 C   0  0  0  0  0  0  0  0  0  0  0  0
   58.8040   26.3680   46.2290 C   0  0  0  0  0  0  0  0  0  0  0  0
   58.1940   26.2640   44.9850 C   0  0  0  0  0  0  0  0  0  0  0  0
   57.8200   27.4120   44.2890 C   0  0  0  0  0  0  0  0  0  0  0  0
   58.0390   28.7040   44.8340 C   0  0  0  0  0  0  0  0  0  0  0  0
   57.6250   29.8500   44.1810 N   0  0  0  0  0  0  0  0  0  0  0  0
   56.6720   29.7540   43.0520 C   0  0  0  0  0  0  0  0  0  0  0  0
   58.0880   31.0850   44.5910 C   0  0  0  0  0  0  0  0  0  0  0  0
   57.9230   32.2470   43.7940 C   0  0  0  0  0  0  0  0  0  0  0  0
   58.3720   33.4920   44.2330 C   0  0  0  0  0  0  0  0  0  0  0  0
   59.0140   33.6120   45.4610 C   0  0  0  0  0  0  0  0  0  0  0  0
   59.6400   35.3200   46.0450 Br  0  0  0  0  0  0  0  0  0  0  0  0
   59.2230   32.4840   46.2500 C   0  0  0  0  0  0  0  0  0  0  0  0
   58.7700   31.2150   45.8310 C   0  0  0  0  0  0  0  0  0  0  0  0
   64.3975   33.6101   46.8200 H   0  0  0  0  0  0  0  0  0  0  0  0
   63.2050   32.7084   45.8244 H   0  0  0  0  0  0  0  0  0  0  0  0
   63.1995   34.5046   45.8244 H   0  0  0  0  0  0  0  0  0  0  0  0
   62.6881   34.4010   48.3152 H   0  0  0  0  0  0  0  0  0  0  0  0
   61.3864   33.7448   47.1704 H   0  0  0  0  0  0  0  0  0  0  0  0
   63.5238   32.0535   50.1139 H   0  0  0  0  0  0  0  0  0  0  0  0
   63.9442   31.0423   48.6901 H   0  0  0  0  0  0  0  0  0  0  0  0
   64.3276   32.7972   48.6901 H   0  0  0  0  0  0  0  0  0  0  0  0
   60.5593   31.7182   49.5037 H   0  0  0  0  0  0  0  0  0  0  0  0
   61.7953   32.7865   50.3911 H   0  0  0  0  0  0  0  0  0  0  0  0
   60.0543   34.2361   50.2809 H   0  0  0  0  0  0  0  0  0  0  0  0
   60.8899   34.6110   48.7356 H   0  0  0  0  0  0  0  0  0  0  0  0
   59.4269   33.5688   48.7356 H   0  0  0  0  0  0  0  0  0  0  0  0
   61.2218   31.6750   46.7022 H   0  0  0  0  0  0  0  0  0  0  0  0
   62.7983   30.7874   47.1223 H   0  0  0  0  0  0  0  0  0  0  0  0
   61.3948   29.1072   47.5956 H   0  0  0  0  0  0  0  0  0  0  0  0
   61.2795   30.0038   49.1676 H   0  0  0  0  0  0  0  0  0  0  0  0
   59.0330   30.5120   48.7040 H   0  0  0  0  0  0  0  0  0  0  0  0
   59.5630   27.6966   47.7536 H   0  0  0  0  0  0  0  0  0  0  0  0
   59.0772   25.4589   46.7849 H   0  0  0  0  0  0  0  0  0  0  0  0
   58.0056   25.2722   44.5480 H   0  0  0  0  0  0  0  0  0  0  0  0
   57.3471   27.3151   43.3006 H   0  0  0  0  0  0  0  0  0  0  0  0
   55.6491   29.6510   43.4433 H   0  0  0  0  0  0  0  0  0  0  0  0
   56.7394   30.6635   42.4369 H   0  0  0  0  0  0  0  0  0  0  0  0
   56.9194   28.8762   42.4369 H   0  0  0  0  0  0  0  0  0  0  0  0
   57.4325   32.1644   42.8129 H   0  0  0  0  0  0  0  0  0  0  0  0
   58.2179   34.3825   43.6059 H   0  0  0  0  0  0  0  0  0  0  0  0
   59.7477   32.5833   47.2117 H   0  0  0  0  0  0  0  0  0  0  0  0
  1  2  1  0
  2  3  1  0
  3  4  1  0
  3  5  1  0
  5  6  1  0
  3  7  1  0
  7  8  1  0
  8  9  1  0
  9 10  1  0
 10 11  2  0
 11 12  1  0
 12 13  2  0
 13 14  1  0
 14 15  2  0
 15 16  1  0
 16 17  2  0
 17 18  1  0
 17 19  1  0
 19 20  2  0
 20 21  1  0
 21 22  2  0
 22 23  1  0
 22 24  1  0
 24 25  2  0
 25 10  1  0
 16 11  1  0
 25 19  1  0
  1 26  1  0
  1 27  1  0
  1 28  1  0
  2 29  1  0
  2 30  1  0
  4 31  1  0
  4 32  1  0
  4 33  1  0
  5 34  1  0
  5 35  1  0
  6 36  1  0
  6 37  1  0
  6 38  1  0
  7 39  1  0
  7 40  1  0
  8 41  1  0
  8 42  1  0
  9 43  1  0
 12 44  1  0
 13 45  1  0
 14 46  1  0
 15 47  1  0
 18 48  1  0
 18 49  1  0
 18 50  1  0
 20 51  1  0
 21 52  1  0
 24 53  1  0
M  CHG  2   3   1  17   1
M  END
>  <UniqueID>  (30) 
30

>  <SMILES>  (30) 
CC[N+](C)(CC)CCNc1c2ccccc2[n+](C)c2ccc(Br)cc12

>  <Energy>  (30) 
101.444407094134

>  <Genealogy>  (30) 
CC[N+](C)(CC)CCNc1c2ccccc2[n+](C)c2ccc(Br)cc12 (3D coordinates assigned)
CC[N+](C)(CC)CCNc1c2ccccc2[n+](C)c2ccc(Br)cc12 (optimized conformer: 101.444407094134 kcal/mol)

>  <smiles>  (30) 
CC[N+](C)(CC)CCNc1c2ccccc2[n+](C)c2ccc(Br)cc12

>  <score_type>  (30) 
oracle

>  <origin>  (30) 
adg

>  <m_score__min__energy>  (30) 
-5.1600000000000001

>  <m_primary>  (30) 
energy

$$$$
31:0
     RDKit          3D

 57 60  0  0  0  0  0  0  0  0999 V2000
   62.3010   33.4400   51.9640 C   0  0  0  0  0  0  0  0  0  0  0  0
   61.6000   33.3210   50.7300 O   0  0  0  0  0  0  0  0  0  0  0  0
   62.2140   33.2430   49.4700 C   0  0  0  0  0  0  0  0  0  0  0  0
   63.5560   33.6270   49.2720 C   0  0  0  0  0  0  0  0  0  0  0  0
   64.1370   33.5420   48.0040 C   0  0  0  0  0  0  0  0  0  0  0  0
   63.3910   33.0760   46.9220 C   0  0  0  0  0  0  0  0  0  0  0  0
   62.0620   32.6920   47.1020 C   0  0  0  0  0  0  0  0  0  0  0  0
   61.4630   32.7690   48.3720 C   0  0  0  0  0  0  0  0  0  0  0  0
   60.0250   32.3270   48.5490 C   0  0  0  0  0  0  0  0  0  0  0  0
   59.8570   31.3930   49.6940 N   0  0  0  0  0  0  0  0  0  0  0  0
   58.5230   30.7300   49.6760 C   0  0  0  0  0  0  0  0  0  0  0  0
   58.5430   29.3290   49.0320 C   0  0  0  0  0  0  0  0  0  0  0  0
   59.5890   29.2730   47.9950 N   0  0  0  0  0  0  0  0  0  0  0  0
   59.5180   28.1280   47.0360 C   0  0  1  0  0  0  0  0  0  0  0  0
   58.3980   27.0830   47.2740 C   0  0  0  0  0  0  0  0  0  0  0  0
   58.1240   26.5210   45.9660 N   0  0  0  0  0  0  0  0  0  0  0  0
   58.6560   27.3860   44.9800 C   0  0  0  0  0  0  0  0  0  0  0  0
   58.4900   27.1790   43.7480 O   0  0  0  0  0  0  0  0  0  0  0  0
   59.3980   28.5600   45.5400 C   0  0  2  0  0  0  0  0  0  0  0  0
   60.7920   28.6260   44.8690 C   0  0  0  0  0  0  0  0  0  0  0  0
   58.6120   29.8730   45.3480 C   0  0  0  0  0  0  0  0  0  0  0  0
   57.3360   29.8600   44.7420 C   0  0  0  0  0  0  0  0  0  0  0  0
   56.6420   31.0480   44.4980 C   0  0  0  0  0  0  0  0  0  0  0  0
   57.2070   32.2730   44.8460 C   0  0  0  0  0  0  0  0  0  0  0  0
   58.4710   32.3160   45.4350 C   0  0  0  0  0  0  0  0  0  0  0  0
   59.1910   33.8610   45.8490 Cl  0  0  0  0  0  0  0  0  0  0  0  0
   59.1710   31.1300   45.6810 C   0  0  0  0  0  0  0  0  0  0  0  0
   60.9270   29.3830   48.6140 C   0  0  0  0  0  0  0  0  0  0  0  0
   60.9510   30.3960   49.7830 C   0  0  0  0  0  0  0  0  0  0  0  0
   61.5956   33.3202   52.7995 H   0  0  0  0  0  0  0  0  0  0  0  0
   63.0748   32.6604   52.0228 H   0  0  0  0  0  0  0  0  0  0  0  0
   62.7741   34.4313   52.0228 H   0  0  0  0  0  0  0  0  0  0  0  0
   64.1497   33.9960   50.1214 H   0  0  0  0  0  0  0  0  0  0  0  0
   65.1850   33.8433   47.8591 H   0  0  0  0  0  0  0  0  0  0  0  0
   63.8512   33.0111   45.9250 H   0  0  0  0  0  0  0  0  0  0  0  0
   61.4784   32.3263   46.2443 H   0  0  0  0  0  0  0  0  0  0  0  0
   59.4009   33.2159   48.7234 H   0  0  0  0  0  0  0  0  0  0  0  0
   59.7220   31.7956   47.6348 H   0  0  0  0  0  0  0  0  0  0  0  0
   59.8950   31.9650   50.5720 H   0  0  0  0  0  0  0  0  0  0  0  0
   58.1685   30.6320   50.7127 H   0  0  0  0  0  0  0  0  0  0  0  0
   57.8570   31.3579   49.0659 H   0  0  0  0  0  0  0  0  0  0  0  0
   58.7533   28.5746   49.8044 H   0  0  0  0  0  0  0  0  0  0  0  0
   57.5643   29.1254   48.5731 H   0  0  0  0  0  0  0  0  0  0  0  0
   60.4877   27.6531   47.2462 H   0  0  0  0  0  0  0  0  0  0  0  0
   58.7406   26.3003   47.9669 H   0  0  0  0  0  0  0  0  0  0  0  0
   57.5020   27.5338   47.7256 H   0  0  0  0  0  0  0  0  0  0  0  0
   61.5710   28.6629   45.6448 H   0  0  0  0  0  0  0  0  0  0  0  0
   60.9401   27.7339   44.2428 H   0  0  0  0  0  0  0  0  0  0  0  0
   60.8552   29.5281   44.2428 H   0  0  0  0  0  0  0  0  0  0  0  0
   56.8815   28.8995   44.4577 H   0  0  0  0  0  0  0  0  0  0  0  0
   55.6471   31.0159   44.0300 H   0  0  0  0  0  0  0  0  0  0  0  0
   56.6565   33.2063   44.6564 H   0  0  0  0  0  0  0  0  0  0  0  0
   60.1698   31.1750   46.1396 H   0  0  0  0  0  0  0  0  0  0  0  0
   61.2224   28.3947   48.9961 H   0  0  0  0  0  0  0  0  0  0  0  0
   61.6260   29.7410   47.8438 H   0  0  0  0  0  0  0  0  0  0  0  0
   60.8495   29.8447   50.7295 H   0  0  0  0  0  0  0  0  0  0  0  0
   61.9048   30.9416   49.7325 H   0  0  0  0  0  0  0  0  0  0  0  0
  1  2  1  0
  2  3  1  0
  3  4  2  0
  4  5  1  0
  5  6  2  0
  6  7  1  0
  7  8  2  0
  8  9  1  0
  9 10  1  0
 10 11  1  0
 11 12  1  0
 12 13  1  0
 13 14  1  0
 14 15  1  0
 15 16  1  0
 16 17  1  0
 17 18  2  0
 17 19  1  0
 19 20  1  6
 19 21  1  0
 21 22  2  0
 22 23  1  0
 23 24  2  0
 24 25  1  0
 25 26  1  0
 25 27  2  0
 13 28  1  0
 28 29  1  0
  8  3  1  0
 29 10  1  0
 19 14  1  0
 27 21  1  0
  1 30  1  0
  1 31  1  0
  1 32  1  0
  4 33  1  0
  5 34  1  0
  6 35  1  0
  7 36  1  0
  9 37  1  0
  9 38  1  0
 10 39  1  0
 11 40  1  0
 11 41  1  0
 12 42  1  0
 12 43  1  0
 14 44  1  6
 15 45  1  0
 15 46  1  0
 20 47  1  0
 20 48  1  0
 20 49  1  0
 22 50  1  0
 23 51  1  0
 24 52  1  0
 27 53  1  0
 28 54  1  0
 28 55  1  0
 29 56  1  0
 29 57  1  0
M  CHG  2  10   1  16  -1
M  END
>  <UniqueID>  (31) 
31

>  <SMILES>  (31) 
COc1ccccc1C[NH+]1CCN([C@H]2C[N-]C(=O)[C@@]2(C)c2cccc(Cl)c2)CC1

>  <Energy>  (31) 
92.40941681827864

>  <Genealogy>  (31) 
COc1ccccc1C[NH+]1CCN(C2C[N-]C(=O)C2(C)c2cccc(Cl)c2)CC1 (protonated)
COc1ccccc1C[NH+]1CCN([C@H]2C[N-]C(=O)[C@@]2(C)c2cccc(Cl)c2)CC1 (chirality)
COc1ccccc1C[NH+]1CCN([C@H]2C[N-]C(=O)[C@@]2(C)c2cccc(Cl)c2)CC1 (3D coordinates assigned)
COc1ccccc1C[NH+]1CCN([C@H]2C[N-]C(=O)[C@@]2(C)c2cccc(Cl)c2)CC1 (nonaromatic ring conformer: 92.40941681827864 kcal/mol)

>  <smiles>  (31) 
COc1ccccc1CN1CCN(C2CNC(=O)C2(C)c2cccc(Cl)c2)CC1

>  <score_type>  (31) 
oracle

>  <origin>  (31) 
adg

>  <m_score__min__energy>  (31) 
-7.8499999999999996

>  <m_primary>  (31) 
energy

$$$$
32:0
     RDKit          3D

 52 55  0  0  0  0  0  0  0  0999 V2000
   55.2220   24.8440   45.5940 C   0  0  0  0  0  0  0  0  0  0  0  0
   56.7150   24.6020   45.4150 C   0  0  0  0  0  0  0  0  0  0  0  0
   57.4830   25.6790   46.0340 N   0  0  0  0  0  0  0  0  0  0  0  0
   57.7360   25.7460   47.3340 N   0  0  0  0  0  0  0  0  0  0  0  0
   58.4930   26.8440   47.5540 C   0  0  0  0  0  0  0  0  0  0  0  0
   58.7170   27.4810   46.3470 C   0  0  0  0  0  0  0  0  0  0  0  0
   58.0800   26.7190   45.4170 C   0  0  0  0  0  0  0  0  0  0  0  0
   58.1270   27.0340   43.9570 C   0  0  0  0  0  0  0  0  0  0  0  0
   58.3000   28.4980   43.7520 N   0  0  1  0  0  0  0  0  0  0  0  0
   57.0610   29.3300   43.8920 C   0  0  0  0  0  0  0  0  0  0  0  0
   57.2900   30.8100   44.0830 C   0  0  0  0  0  0  0  0  0  0  0  0
   57.8360   31.6680   43.1460 C   0  0  0  0  0  0  0  0  0  0  0  0
   57.8160   32.9190   43.7230 C   0  0  0  0  0  0  0  0  0  0  0  0
   57.2570   32.7430   44.9740 C   0  0  0  0  0  0  0  0  0  0  0  0
   57.0160   33.8140   45.9840 C   0  0  0  0  0  0  0  0  0  0  0  0
   56.9610   31.4800   45.1640 O   0  0  0  0  0  0  0  0  0  0  0  0
   59.4750   29.0450   44.4980 C   0  0  0  0  0  0  0  0  0  0  0  0
   59.5470   28.6860   46.0220 C   0  0  1  0  0  0  0  0  0  0  0  0
   59.2250   29.8760   46.9420 C   0  0  0  0  0  0  0  0  0  0  0  0
   59.8800   31.0420   46.4930 O   0  0  0  0  0  0  0  0  0  0  0  0
   59.7220   32.0930   47.4240 C   0  0  0  0  0  0  0  0  0  0  0  0
   60.6690   33.2480   47.0750 C   0  0  0  0  0  0  0  0  0  0  0  0
   60.2360   34.1500   45.9280 C   0  0  0  0  0  0  0  0  0  0  0  0
   60.1090   34.6320   47.3650 C   0  0  0  0  0  0  0  0  0  0  0  0
   54.9829   24.8828   46.6670 H   0  0  0  0  0  0  0  0  0  0  0  0
   54.9461   25.7986   45.1221 H   0  0  0  0  0  0  0  0  0  0  0  0
   54.6587   24.0254   45.1221 H   0  0  0  0  0  0  0  0  0  0  0  0
   56.9863   23.6460   45.8866 H   0  0  0  0  0  0  0  0  0  0  0  0
   56.9453   24.5718   44.3398 H   0  0  0  0  0  0  0  0  0  0  0  0
   58.8693   27.1765   48.5327 H   0  0  0  0  0  0  0  0  0  0  0  0
   58.9720   26.5004   43.4973 H   0  0  0  0  0  0  0  0  0  0  0  0
   57.1830   26.7155   43.4907 H   0  0  0  0  0  0  0  0  0  0  0  0
   58.5700   28.5890   42.7410 H   0  0  0  0  0  0  0  0  0  0  0  0
   56.4576   29.1951   42.9822 H   0  0  0  0  0  0  0  0  0  0  0  0
   56.5646   28.9804   44.8092 H   0  0  0  0  0  0  0  0  0  0  0  0
   58.2096   31.4056   42.1452 H   0  0  0  0  0  0  0  0  0  0  0  0
   58.1710   33.8612   43.2800 H   0  0  0  0  0  0  0  0  0  0  0  0
   57.1109   33.3922   46.9955 H   0  0  0  0  0  0  0  0  0  0  0  0
   57.7559   34.6170   45.8507 H   0  0  0  0  0  0  0  0  0  0  0  0
   56.0034   34.2226   45.8507 H   0  0  0  0  0  0  0  0  0  0  0  0
   60.3872   28.6610   44.0180 H   0  0  0  0  0  0  0  0  0  0  0  0
   59.3712   30.1392   44.4550 H   0  0  0  0  0  0  0  0  0  0  0  0
   60.5967   28.4282   46.2262 H   0  0  0  0  0  0  0  0  0  0  0  0
   58.1387   30.0490   46.9425 H   0  0  0  0  0  0  0  0  0  0  0  0
   59.5735   29.6426   47.9589 H   0  0  0  0  0  0  0  0  0  0  0  0
   58.6827   32.4523   47.3952 H   0  0  0  0  0  0  0  0  0  0  0  0
   59.9600   31.7221   48.4319 H   0  0  0  0  0  0  0  0  0  0  0  0
   61.5927   32.7028   47.3189 H   0  0  0  0  0  0  0  0  0  0  0  0
   60.9909   34.5952   45.2632 H   0  0  0  0  0  0  0  0  0  0  0  0
   59.5460   34.0497   45.0772 H   0  0  0  0  0  0  0  0  0  0  0  0
   60.7719   35.4261   47.7392 H   0  0  0  0  0  0  0  0  0  0  0  0
   59.2887   35.0249   47.9837 H   0  0  0  0  0  0  0  0  0  0  0  0
  1  2  1  0
  2  3  1  0
  3  4  1  0
  4  5  2  0
  5  6  1  0
  6  7  2  0
  7  8  1  0
  8  9  1  0
  9 10  1  0
 10 11  1  0
 11 12  2  0
 12 13  1  0
 13 14  2  0
 14 15  1  0
 14 16  1  0
  9 17  1  0
 17 18  1  0
 18 19  1  0
 19 20  1  0
 20 21  1  0
 21 22  1  0
 22 23  1  0
 23 24  1  0
  7  3  1  0
 16 11  1  0
 24 22  1  0
 18  6  1  0
  1 25  1  0
  1 26  1  0
  1 27  1  0
  2 28  1  0
  2 29  1  0
  5 30  1  0
  8 31  1  0
  8 32  1  0
  9 33  1  6
 10 34  1  0
 10 35  1  0
 12 36  1  0
 13 37  1  0
 15 38  1  0
 15 39  1  0
 15 40  1  0
 17 41  1  0
 17 42  1  0
 18 43  1  1
 19 44  1  0
 19 45  1  0
 21 46  1  0
 21 47  1  0
 22 48  1  0
 23 49  1  0
 23 50  1  0
 24 51  1  0
 24 52  1  0
M  CHG  1   9   1
M  END
>  <UniqueID>  (32) 
32

>  <SMILES>  (32) 
CCn1ncc2c1C[N@@H+](Cc1ccc(C)o1)C[C@H]2COCC1CC1

>  <Energy>  (32) 
383.9855113427275

>  <Genealogy>  (32) 
CCn1ncc2c1C[NH+](Cc1ccc(C)o1)CC2COCC1CC1 (protonated)
CCn1ncc2c1C[N@@H+](Cc1ccc(C)o1)C[C@H]2COCC1CC1 (chirality)
CCn1ncc2c1C[N@@H+](Cc1ccc(C)o1)C[C@H]2COCC1CC1 (3D coordinates assigned)
CCn1ncc2c1C[N@@H+](Cc1ccc(C)o1)C[C@H]2COCC1CC1 (nonaromatic ring conformer: 383.9855113427275 kcal/mol)

>  <smiles>  (32) 
CCn1ncc2c1CN(Cc1ccc(C)o1)CC2COCC1CC1

>  <score_type>  (32) 
oracle

>  <origin>  (32) 
adg

>  <m_score__min__energy>  (32) 
-5.8399999999999999

>  <m_primary>  (32) 
energy

$$$$
33:0
     RDKit          3D

 39 38  0  0  0  0  0  0  0  0999 V2000
   56.2730   29.6750   42.7210 C   0  0  0  0  0  0  0  0  0  0  0  0
   55.7580   30.1300   44.0840 C   0  0  0  0  0  0  0  0  0  0  0  0
   56.7080   31.0620   44.7070 N   0  0  0  0  0  0  0  0  0  0  0  0
   58.0830   30.8150   44.2490 C   0  0  0  0  0  0  0  0  0  0  0  0
   58.8000   29.8490   45.1970 C   0  0  0  0  0  0  0  0  0  0  0  0
   58.6790   30.2910   46.6640 C   0  0  0  0  0  0  0  0  0  0  0  0
   58.0600   31.6250   46.7560 N   0  0  0  0  0  0  0  0  0  0  0  0
   58.4960   32.3480   47.9660 C   0  0  0  0  0  0  0  0  0  0  0  0
   59.1610   33.7070   47.6420 C   0  0  0  0  0  0  0  0  0  0  0  0
   59.7870   33.7080   46.3010 N   0  0  0  0  0  0  0  0  0  0  0  0
   61.2450   33.8890   46.3950 C   0  0  0  0  0  0  0  0  0  0  0  0
   59.1640   34.6490   45.3360 C   0  0  0  0  0  0  0  0  0  0  0  0
   57.7550   34.2510   44.8690 C   0  0  0  0  0  0  0  0  0  0  0  0
   57.0907   28.9526   42.8605 H   0  0  0  0  0  0  0  0  0  0  0  0
   55.4550   29.1992   42.1601 H   0  0  0  0  0  0  0  0  0  0  0  0
   56.6444   30.5454   42.1601 H   0  0  0  0  0  0  0  0  0  0  0  0
   54.7884   30.6333   43.9553 H   0  0  0  0  0  0  0  0  0  0  0  0
   55.6444   29.2498   44.7338 H   0  0  0  0  0  0  0  0  0  0  0  0
   56.4460   32.0310   44.4110 H   0  0  0  0  0  0  0  0  0  0  0  0
   58.0552   30.3778   43.2400 H   0  0  0  0  0  0  0  0  0  0  0  0
   58.6295   31.7695   44.2344 H   0  0  0  0  0  0  0  0  0  0  0  0
   58.3551   28.8488   45.0890 H   0  0  0  0  0  0  0  0  0  0  0  0
   59.8672   29.8389   44.9307 H   0  0  0  0  0  0  0  0  0  0  0  0
   58.0573   29.5659   47.2096 H   0  0  0  0  0  0  0  0  0  0  0  0
   59.6861   30.3370   47.1040 H   0  0  0  0  0  0  0  0  0  0  0  0
   57.0190   31.5360   46.7400 H   0  0  0  0  0  0  0  0  0  0  0  0
   58.3510   32.1840   45.9200 H   0  0  0  0  0  0  0  0  0  0  0  0
   57.6180   32.5289   48.6035 H   0  0  0  0  0  0  0  0  0  0  0  0
   59.2458   31.7238   48.4742 H   0  0  0  0  0  0  0  0  0  0  0  0
   58.3949   34.4955   47.6776 H   0  0  0  0  0  0  0  0  0  0  0  0
   59.9498   33.8874   48.3871 H   0  0  0  0  0  0  0  0  0  0  0  0
   61.5424   33.9259   47.4534 H   0  0  0  0  0  0  0  0  0  0  0  0
   61.7516   33.0469   45.9009 H   0  0  0  0  0  0  0  0  0  0  0  0
   61.5303   34.8295   45.9009 H   0  0  0  0  0  0  0  0  0  0  0  0
   59.0999   35.6375   45.8142 H   0  0  0  0  0  0  0  0  0  0  0  0
   59.8017   34.6421   44.4397 H   0  0  0  0  0  0  0  0  0  0  0  0
   57.1156   34.0704   45.7456 H   0  0  0  0  0  0  0  0  0  0  0  0
   57.3263   35.0632   44.2636 H   0  0  0  0  0  0  0  0  0  0  0  0
   57.8146   33.3345   44.2636 H   0  0  0  0  0  0  0  0  0  0  0  0
  1  2  1  0
  2  3  1  0
  3  4  1  0
  4  5  1  0
  5  6  1  0
  6  7  1  0
  7  8  1  0
  8  9  1  0
  9 10  1  0
 10 11  1  0
 10 12  1  0
 12 13  1  0
  1 14  1  0
  1 15  1  0
  1 16  1  0
  2 17  1  0
  2 18  1  0
  3 19  1  0
  4 20  1  0
  4 21  1  0
  5 22  1  0
  5 23  1  0
  6 24  1  0
  6 25  1  0
  7 26  1  0
  7 27  1  0
  8 28  1  0
  8 29  1  0
  9 30  1  0
  9 31  1  0
 11 32  1  0
 11 33  1  0
 11 34  1  0
 12 35  1  0
 12 36  1  0
 13 37  1  0
 13 38  1  0
 13 39  1  0
M  CHG  1   7   1
M  END
>  <UniqueID>  (33) 
33

>  <SMILES>  (33) 
CCNCCC[NH2+]CCN(C)CC

>  <Energy>  (33) 
30.59412500721297

>  <Genealogy>  (33) 
CCNCCC[NH2+]CCN(C)CC (protonated)
CCNCCC[NH2+]CCN(C)CC (3D coordinates assigned)
CCNCCC[NH2+]CCN(C)CC (optimized conformer: 30.59412500721297 kcal/mol)

>  <smiles>  (33) 
CCNCCCNCCN(C)CC

>  <score_type>  (33) 
oracle

>  <origin>  (33) 
adg

>  <m_score__min__energy>  (33) 
-2.0899999999999999

>  <m_primary>  (33) 
energy

$$$$
34:0
     RDKit          3D

 64 67  0  0  0  0  0  0  0  0999 V2000
   65.1730   31.9460   50.4550 C   0  0  0  0  0  0  0  0  0  0  0  0
   64.9150   33.0390   49.4110 C   0  0  0  0  0  0  0  0  0  0  0  0
   63.5390   33.0880   48.8480 N   0  0  0  0  0  0  0  0  0  0  0  0
   63.4110   32.7050   47.4130 C   0  0  0  0  0  0  0  0  0  0  0  0
   63.0150   33.8330   46.4530 C   0  0  0  0  0  0  0  0  0  0  0  0
   62.6840   34.2250   49.2980 C   0  0  0  0  0  0  0  0  0  0  0  0
   61.5900   33.8990   50.3320 C   0  0  0  0  0  0  0  0  0  0  0  0
   61.6220   32.5270   50.6680 O   0  0  0  0  0  0  0  0  0  0  0  0
   60.3600   32.1350   51.1670 C   0  0  0  0  0  0  0  0  0  0  0  0
   59.7180   31.1250   50.2170 C   0  0  0  0  0  0  0  0  0  0  0  0
   60.4320   31.0640   48.9410 N   0  0  0  0  0  0  0  0  0  0  0  0
   59.7050   31.0180   47.7080 C   0  0  0  0  0  0  0  0  0  0  0  0
   59.2450   32.2070   47.0940 C   0  0  0  0  0  0  0  0  0  0  0  0
   59.3870   33.4520   47.7400 C   0  0  0  0  0  0  0  0  0  0  0  0
   58.9050   34.6180   47.1510 C   0  0  0  0  0  0  0  0  0  0  0  0
   58.2560   34.5630   45.9210 C   0  0  0  0  0  0  0  0  0  0  0  0
   58.0960   33.3450   45.2610 C   0  0  0  0  0  0  0  0  0  0  0  0
   58.6030   32.1440   45.8140 C   0  0  0  0  0  0  0  0  0  0  0  0
   58.4680   30.9300   45.1600 N   0  0  0  0  0  0  0  0  0  0  0  0
   58.0930   30.8610   43.7390 C   0  0  0  0  0  0  0  0  0  0  0  0
   58.7670   29.7850   45.8550 C   0  0  0  0  0  0  0  0  0  0  0  0
   58.5280   28.4450   45.5570 C   0  0  0  0  0  0  0  0  0  0  0  0
   57.7960   27.8110   44.5410 C   0  0  0  0  0  0  0  0  0  0  0  0
   57.6940   26.4130   44.5670 C   0  0  0  0  0  0  0  0  0  0  0  0
   58.2840   25.6710   45.6060 C   0  0  0  0  0  0  0  0  0  0  0  0
   58.9690   26.3210   46.6430 C   0  0  0  0  0  0  0  0  0  0  0  0
   59.0750   27.7190   46.6020 C   0  0  0  0  0  0  0  0  0  0  0  0
   59.6240   28.5380   47.5360 N   0  0  0  0  0  0  0  0  0  0  0  0
   60.1890   28.1450   48.8300 C   0  0  0  0  0  0  0  0  0  0  0  0
   59.4050   29.8020   47.0820 C   0  0  0  0  0  0  0  0  0  0  0  0
   65.0725   32.3719   51.4642 H   0  0  0  0  0  0  0  0  0  0  0  0
   64.4417   31.1347   50.3249 H   0  0  0  0  0  0  0  0  0  0  0  0
   66.1899   31.5473   50.3249 H   0  0  0  0  0  0  0  0  0  0  0  0
   65.1209   34.0111   49.8829 H   0  0  0  0  0  0  0  0  0  0  0  0
   65.5751   32.8028   48.5634 H   0  0  0  0  0  0  0  0  0  0  0  0
   63.0810   32.2750   49.3290 H   0  0  0  0  0  0  0  0  0  0  0  0
   64.3813   32.3060   47.0826 H   0  0  0  0  0  0  0  0  0  0  0  0
   62.5889   31.9754   47.3712 H   0  0  0  0  0  0  0  0  0  0  0  0
   62.7052   34.7154   47.0321 H   0  0  0  0  0  0  0  0  0  0  0  0
   63.8753   34.0939   45.8191 H   0  0  0  0  0  0  0  0  0  0  0  0
   62.1804   33.4989   45.8191 H   0  0  0  0  0  0  0  0  0  0  0  0
   63.3451   34.9849   49.7401 H   0  0  0  0  0  0  0  0  0  0  0  0
   62.1435   34.5547   48.3985 H   0  0  0  0  0  0  0  0  0  0  0  0
   61.7586   34.4982   51.2390 H   0  0  0  0  0  0  0  0  0  0  0  0
   60.6074   34.1370   49.8985 H   0  0  0  0  0  0  0  0  0  0  0  0
   60.4862   31.6748   52.1581 H   0  0  0  0  0  0  0  0  0  0  0  0
   59.7113   33.0196   51.2486 H   0  0  0  0  0  0  0  0  0  0  0  0
   59.7373   30.1301   50.6859 H   0  0  0  0  0  0  0  0  0  0  0  0
   58.6837   31.4436   50.0202 H   0  0  0  0  0  0  0  0  0  0  0  0
   61.4730   30.9840   48.9100 H   0  0  0  0  0  0  0  0  0  0  0  0
   59.8840   33.5028   48.7200 H   0  0  0  0  0  0  0  0  0  0  0  0
   59.0374   35.5847   47.6589 H   0  0  0  0  0  0  0  0  0  0  0  0
   57.8668   35.4861   45.4666 H   0  0  0  0  0  0  0  0  0  0  0  0
   57.5681   33.3168   44.2964 H   0  0  0  0  0  0  0  0  0  0  0  0
   57.0144   30.6625   43.6536 H   0  0  0  0  0  0  0  0  0  0  0  0
   58.3296   31.8178   43.2505 H   0  0  0  0  0  0  0  0  0  0  0  0
   58.6546   30.0511   43.2505 H   0  0  0  0  0  0  0  0  0  0  0  0
   57.3143   28.3965   43.7441 H   0  0  0  0  0  0  0  0  0  0  0  0
   57.1475   25.8916   43.7674 H   0  0  0  0  0  0  0  0  0  0  0  0
   58.2077   24.5736   45.6053 H   0  0  0  0  0  0  0  0  0  0  0  0
   59.4131   25.7473   47.4698 H   0  0  0  0  0  0  0  0  0  0  0  0
   59.5787   28.5695   49.6407 H   0  0  0  0  0  0  0  0  0  0  0  0
   60.1933   27.0479   48.9102 H   0  0  0  0  0  0  0  0  0  0  0  0
   61.2190   28.5226   48.9102 H   0  0  0  0  0  0  0  0  0  0  0  0
  1  2  1  0
  2  3  1  0
  3  4  1  0
  4  5  1  0
  3  6  1  0
  6  7  1  0
  7  8  1  0
  8  9  1  0
  9 10  1  0
 10 11  1  0
 11 12  1  0
 12 13  2  0
 13 14  1  0
 14 15  2  0
 15 16  1  0
 16 17  2  0
 17 18  1  0
 18 19  2  0
 19 20  1  0
 19 21  1  0
 21 22  1  0
 22 23  2  0
 23 24  1  0
 24 25  2  0
 25 26  1  0
 26 27  2  0
 27 28  1  0
 28 29  1  0
 28 30  1  0
 30 12  1  0
 18 13  1  0
 30 21  2  0
 27 22  1  0
  1 31  1  0
  1 32  1  0
  1 33  1  0
  2 34  1  0
  2 35  1  0
  3 36  1  0
  4 37  1  0
  4 38  1  0
  5 39  1  0
  5 40  1  0
  5 41  1  0
  6 42  1  0
  6 43  1  0
  7 44  1  0
  7 45  1  0
  9 46  1  0
  9 47  1  0
 10 48  1  0
 10 49  1  0
 11 50  1  0
 14 51  1  0
 15 52  1  0
 16 53  1  0
 17 54  1  0
 20 55  1  0
 20 56  1  0
 20 57  1  0
 23 58  1  0
 24 59  1  0
 25 60  1  0
 26 61  1  0
 29 62  1  0
 29 63  1  0
 29 64  1  0
M  CHG  2   3   1  19   1
M  END
>  <UniqueID>  (34) 
34

>  <SMILES>  (34) 
CC[NH+](CC)CCOCCNc1c2ccccc2[n+](C)c2c3ccccc3n(C)c12

>  <Energy>  (34) 
143.61230454286942

>  <Genealogy>  (34) 
CC[NH+](CC)CCOCCNc1c2ccccc2[n+](C)c2c3ccccc3n(C)c12 (protonated)
CC[NH+](CC)CCOCCNc1c2ccccc2[n+](C)c2c3ccccc3n(C)c12 (3D coordinates assigned)
CC[NH+](CC)CCOCCNc1c2ccccc2[n+](C)c2c3ccccc3n(C)c12 (optimized conformer: 143.61230454286942 kcal/mol)

>  <smiles>  (34) 
CCN(CC)CCOCCNc1c2ccccc2[n+](C)c2c3ccccc3n(C)c12

>  <score_type>  (34) 
oracle

>  <origin>  (34) 
adg

>  <m_score__min__energy>  (34) 
-4.2800000000000002

>  <m_primary>  (34) 
energy

$$$$
35:0
     RDKit          3D

 29 31  0  0  0  0  0  0  0  0999 V2000
   56.6430   30.3750   42.6290 C   0  0  0  0  0  0  0  0  0  0  0  0
   56.2140   30.0880   44.0650 C   0  0  0  0  0  0  0  0  0  0  0  0
   56.2910   31.2690   44.8620 O   0  0  0  0  0  0  0  0  0  0  0  0
   57.4730   31.9270   45.2410 C   0  0  0  0  0  0  0  0  0  0  0  0
   57.6760   33.2340   44.7790 C   0  0  0  0  0  0  0  0  0  0  0  0
   58.8320   33.9420   45.1200 C   0  0  0  0  0  0  0  0  0  0  0  0
   59.8000   33.3490   45.9330 C   0  0  0  0  0  0  0  0  0  0  0  0
   60.9260   34.0360   46.2690 N   0  0  0  0  0  0  0  0  0  0  0  0
   61.8640   33.4600   47.0590 C   0  0  0  0  0  0  0  0  0  0  0  0
   63.0300   34.1310   47.4230 C   0  0  0  0  0  0  0  0  0  0  0  0
   63.9680   33.4900   48.2420 C   0  0  0  0  0  0  0  0  0  0  0  0
   63.7540   32.1800   48.7050 C   0  0  0  0  0  0  0  0  0  0  0  0
   64.6150   31.6310   49.4410 O   0  0  0  0  0  0  0  0  0  0  0  0
   62.5900   31.4790   48.3560 C   0  0  0  0  0  0  0  0  0  0  0  0
   61.6340   32.0830   47.5420 C   0  0  0  0  0  0  0  0  0  0  0  0
   60.5220   31.4530   47.1910 O   0  0  0  0  0  0  0  0  0  0  0  0
   59.6070   32.0290   46.4140 C   0  0  0  0  0  0  0  0  0  0  0  0
   58.4480   31.3280   46.0660 C   0  0  0  0  0  0  0  0  0  0  0  0
   57.5573   30.9866   42.6347 H   0  0  0  0  0  0  0  0  0  0  0  0
   56.8399   29.4261   42.1085 H   0  0  0  0  0  0  0  0  0  0  0  0
   55.8411   30.9191   42.1085 H   0  0  0  0  0  0  0  0  0  0  0  0
   55.1775   29.7197   44.0650 H   0  0  0  0  0  0  0  0  0  0  0  0
   56.8891   29.3308   44.4902 H   0  0  0  0  0  0  0  0  0  0  0  0
   56.9166   33.7087   44.1403 H   0  0  0  0  0  0  0  0  0  0  0  0
   58.9792   34.9666   44.7478 H   0  0  0  0  0  0  0  0  0  0  0  0
   63.2123   35.1566   47.0696 H   0  0  0  0  0  0  0  0  0  0  0  0
   64.8881   34.0208   48.5279 H   0  0  0  0  0  0  0  0  0  0  0  0
   62.4324   30.4545   48.7243 H   0  0  0  0  0  0  0  0  0  0  0  0
   58.2958   30.3039   46.4376 H   0  0  0  0  0  0  0  0  0  0  0  0
  1  2  1  0
  2  3  1  0
  3  4  1  0
  4  5  2  0
  5  6  1  0
  6  7  2  0
  7  8  1  0
  8  9  2  0
  9 10  1  0
 10 11  2  0
 11 12  1  0
 12 13  2  0
 12 14  1  0
 14 15  2  0
 15 16  1  0
 16 17  1  0
 17 18  2  0
 18  4  1  0
 17  7  1  0
 15  9  1  0
  1 19  1  0
  1 20  1  0
  1 21  1  0
  2 22  1  0
  2 23  1  0
  5 24  1  0
  6 25  1  0
 10 26  1  0
 11 27  1  0
 14 28  1  0
 18 29  1  0
M  END
>  <UniqueID>  (35) 
35

>  <SMILES>  (35) 
CCOc1ccc2nc3ccc(=O)cc-3oc2c1

>  <Energy>  (35) 
34.583393132353585

>  <Genealogy>  (35) 
CCOc1ccc2nc3ccc(=O)cc-3oc2c1 (3D coordinates assigned)
CCOc1ccc2nc3ccc(=O)cc-3oc2c1 (optimized conformer: 34.583393132353585 kcal/mol)

>  <smiles>  (35) 
CCOc1ccc2nc3ccc(=O)cc-3oc2c1

>  <score_type>  (35) 
oracle

>  <origin>  (35) 
adg

>  <m_score__min__energy>  (35) 
-6.0499999999999998

>  <m_primary>  (35) 
energy

$$$$
36:0
     RDKit          3D

 46 48  0  0  0  0  0  0  0  0999 V2000
   56.1099   26.5537   45.2587 H   0  0  0  0  0  0  0  0  0  0  0  0
   56.7440   27.3750   45.6240 C   0  0  0  0  0  0  0  0  0  0  0  0
   57.6830   27.1340   46.5690 N   0  0  0  0  0  0  0  0  0  0  0  0
   58.5160   28.1090   47.0210 C   0  0  0  0  0  0  0  0  0  0  0  0
   59.5040   27.7720   47.9480 C   0  0  0  0  0  0  0  0  0  0  0  0
   59.5404   26.7539   48.3629 H   0  0  0  0  0  0  0  0  0  0  0  0
   60.4430   28.7170   48.3500 C   0  0  0  0  0  0  0  0  0  0  0  0
   61.2094   28.4448   49.0906 H   0  0  0  0  0  0  0  0  0  0  0  0
   60.4190   30.0100   47.8190 C   0  0  0  0  0  0  0  0  0  0  0  0
   61.4660   30.9300   48.1720 N   0  0  0  0  0  0  0  0  0  0  0  0
   62.4550   30.6070   48.0720 H   0  0  0  0  0  0  0  0  0  0  0  0
   61.2360   32.2160   48.7680 C   0  0  0  0  0  0  0  0  0  0  0  0
   60.0860   32.5380   49.1710 O   0  0  0  0  0  0  0  0  0  0  0  0
   62.3800   33.1820   48.9530 C   0  0  0  0  0  0  0  0  0  0  0  0
   62.5479   33.3186   50.0315 H   0  0  0  0  0  0  0  0  0  0  0  0
   62.0943   34.1177   48.4501 H   0  0  0  0  0  0  0  0  0  0  0  0
   63.6510   32.7290   48.3350 N   0  0  0  0  0  0  0  0  0  0  0  0
   63.7790   33.1900   46.9420 C   0  0  0  0  0  0  0  0  0  0  0  0
   64.0733   34.2499   46.9321 H   0  0  0  0  0  0  0  0  0  0  0  0
   64.5451   32.5919   46.4268 H   0  0  0  0  0  0  0  0  0  0  0  0
   62.8143   33.0725   46.4268 H   0  0  0  0  0  0  0  0  0  0  0  0
   64.8550   33.0820   49.1190 C   0  0  0  0  0  0  0  0  0  0  0  0
   64.6899   34.0517   49.6115 H   0  0  0  0  0  0  0  0  0  0  0  0
   65.7126   33.1343   48.4321 H   0  0  0  0  0  0  0  0  0  0  0  0
   65.1550   32.0280   50.1840 C   0  0  0  0  0  0  0  0  0  0  0  0
   65.0291   32.4703   51.1833 H   0  0  0  0  0  0  0  0  0  0  0  0
   64.4621   31.1816   50.0677 H   0  0  0  0  0  0  0  0  0  0  0  0
   66.1898   31.6734   50.0677 H   0  0  0  0  0  0  0  0  0  0  0  0
   59.4270   30.3550   46.8810 C   0  0  0  0  0  0  0  0  0  0  0  0
   59.4385   31.3560   46.4250 H   0  0  0  0  0  0  0  0  0  0  0  0
   58.4150   29.4350   46.5150 C   0  0  0  0  0  0  0  0  0  0  0  0
   57.3540   29.7220   45.5950 C   0  0  0  0  0  0  0  0  0  0  0  0
   57.0010   30.9160   45.1910 N   0  0  0  0  0  0  0  0  0  0  0  0
   57.6310   32.1880   45.3880 C   0  0  0  0  0  0  0  0  0  0  0  0
   57.7770   32.6790   46.6920 C   0  0  0  0  0  0  0  0  0  0  0  0
   57.3721   32.1083   47.5407 H   0  0  0  0  0  0  0  0  0  0  0  0
   58.4350   33.8910   46.9190 C   0  0  0  0  0  0  0  0  0  0  0  0
   58.5236   34.2845   47.9424 H   0  0  0  0  0  0  0  0  0  0  0  0
   58.9800   34.6030   45.8490 C   0  0  0  0  0  0  0  0  0  0  0  0
   59.4935   35.5588   46.0298 H   0  0  0  0  0  0  0  0  0  0  0  0
   58.8740   34.1030   44.5490 C   0  0  0  0  0  0  0  0  0  0  0  0
   59.3181   34.6588   43.7101 H   0  0  0  0  0  0  0  0  0  0  0  0
   58.2040   32.8960   44.3100 C   0  0  0  0  0  0  0  0  0  0  0  0
   58.1400   32.2750   42.6660 Cl  0  0  0  0  0  0  0  0  0  0  0  0
   56.5790   28.6580   45.1140 C   0  0  0  0  0  0  0  0  0  0  0  0
   55.8334   28.8395   44.3259 H   0  0  0  0  0  0  0  0  0  0  0  0
  1  2  1  0
  2  3  1  0
  3  4  1  0
  4  5  2  0
  5  6  1  0
  5  7  1  0
  7  8  1  0
  7  9  2  0
  9 10  1  0
 10 11  1  0
 10 12  1  0
 12 13  2  0
 12 14  1  0
 14 15  1  0
 14 16  1  0
 14 17  1  0
 17 18  1  0
 18 19  1  0
 18 20  1  0
 18 21  1  0
 17 22  1  0
 22 23  1  0
 22 24  1  0
 22 25  1  0
 25 26  1  0
 25 27  1  0
 25 28  1  0
  9 29  1  0
 29 30  1  0
 29 31  2  0
 31 32  1  0
 32 33  2  0
 33 34  1  0
 34 35  2  0
 35 36  1  0
 35 37  1  0
 37 38  1  0
 37 39  2  0
 39 40  1  0
 39 41  1  0
 41 42  1  0
 41 43  2  0
 43 44  1  0
 32 45  1  0
 45 46  1  0
 45  2  2  0
 31  4  1  0
 43 34  1  0
M  CHG  1   3  -1
M  END
>  <UniqueID>  (36) 
36

>  <SMILES>  (36) 
CCN(C)CC(=O)Nc1ccc2[n-]cc/c(=N/c3ccccc3Cl)c2c1

>  <Energy>  (36) 
75.31664212177712

>  <Genealogy>  (36) 
CCN(C)CC(=O)Nc1ccc2[n-]ccc(=Nc3ccccc3Cl)c2c1 (protonated)
CCN(C)CC(=O)Nc1ccc2[n-]cc/c(=N/c3ccccc3Cl)c2c1 (cis-trans isomerization)
CCN(C)CC(=O)Nc1ccc2[n-]cc/c(=N/c3ccccc3Cl)c2c1 (3D coordinates assigned)
CCN(C)CC(=O)Nc1ccc2[n-]cc/c(=N/c3ccccc3Cl)c2c1 (optimized conformer: 75.31664212177712 kcal/mol)

>  <smiles>  (36) 
CCN(C)CC(=O)Nc1ccc2[nH]ccc(=Nc3ccccc3Cl)c2c1

>  <score_type>  (36) 
oracle

>  <origin>  (36) 
adg

>  <m_score__min__energy>  (36) 
-9.0899999999999999

>  <m_primary>  (36) 
energy

$$$$
37:0
     RDKit          3D

 41 42  0  0  0  0  0  0  0  0999 V2000
   58.5440   32.3770   48.3470 C   0  0  0  0  0  0  0  0  0  0  0  0
   59.3820   33.3580   49.1650 C   0  0  0  0  0  0  0  0  0  0  0  0
   59.6820   34.5770   48.4000 N   0  0  0  0  0  0  0  0  0  0  0  0
   60.3310   34.3310   47.0980 C   0  0  0  0  0  0  0  0  0  0  0  0
   59.4290   34.6520   45.8940 C   0  0  0  0  0  0  0  0  0  0  0  0
   58.0710   34.5820   46.2800 O   0  0  0  0  0  0  0  0  0  0  0  0
   57.2910   33.9800   45.2640 C   0  0  0  0  0  0  0  0  0  0  0  0
   58.1860   33.4970   44.1260 C   0  0  0  0  0  0  0  0  0  0  0  0
   57.7500   32.2090   43.6970 O   0  0  0  0  0  0  0  0  0  0  0  0
   57.8340   31.0430   44.4730 C   0  0  0  0  0  0  0  0  0  0  0  0
   58.9840   30.8410   45.2450 C   0  0  0  0  0  0  0  0  0  0  0  0
   59.1140   29.7030   46.0450 C   0  0  0  0  0  0  0  0  0  0  0  0
   58.0980   28.7350   46.0670 C   0  0  0  0  0  0  0  0  0  0  0  0
   56.9400   28.9320   45.2920 C   0  0  0  0  0  0  0  0  0  0  0  0
   56.8070   30.0790   44.5020 C   0  0  0  0  0  0  0  0  0  0  0  0
   55.8940   27.9550   45.3090 N   0  0  0  0  0  0  0  0  0  0  0  0
   56.0900   26.6950   45.9530 C   0  0  0  0  0  0  0  0  0  0  0  0
   55.1350   25.8770   46.0330 O   0  0  0  0  0  0  0  0  0  0  0  0
   57.4500   26.3240   46.4620 C   0  0  0  0  0  0  0  0  0  0  0  0
   58.1860   27.5560   47.0070 C   0  0  0  0  0  0  0  0  0  0  0  0
   57.9822   31.7193   49.0266 H   0  0  0  0  0  0  0  0  0  0  0  0
   57.8403   32.9360   47.7127 H   0  0  0  0  0  0  0  0  0  0  0  0
   59.2061   31.7693   47.7127 H   0  0  0  0  0  0  0  0  0  0  0  0
   58.8253   33.6334   50.0729 H   0  0  0  0  0  0  0  0  0  0  0  0
   60.3330   32.8689   49.4227 H   0  0  0  0  0  0  0  0  0  0  0  0
   58.7910   35.1060   48.2440 H   0  0  0  0  0  0  0  0  0  0  0  0
   61.2330   34.9574   47.0344 H   0  0  0  0  0  0  0  0  0  0  0  0
   60.5654   33.2573   47.0503 H   0  0  0  0  0  0  0  0  0  0  0  0
   59.6532   35.6655   45.5299 H   0  0  0  0  0  0  0  0  0  0  0  0
   59.6171   33.9204   45.0944 H   0  0  0  0  0  0  0  0  0  0  0  0
   56.7451   33.1229   45.6853 H   0  0  0  0  0  0  0  0  0  0  0  0
   56.5808   34.7222   44.8706 H   0  0  0  0  0  0  0  0  0  0  0  0
   58.1254   34.2041   43.2856 H   0  0  0  0  0  0  0  0  0  0  0  0
   59.2268   33.4355   44.4768 H   0  0  0  0  0  0  0  0  0  0  0  0
   59.7934   31.5856   45.2216 H   0  0  0  0  0  0  0  0  0  0  0  0
   60.0157   29.5652   46.6597 H   0  0  0  0  0  0  0  0  0  0  0  0
   55.8976   30.2286   43.9015 H   0  0  0  0  0  0  0  0  0  0  0  0
   57.3431   25.5827   47.2677 H   0  0  0  0  0  0  0  0  0  0  0  0
   58.0345   25.9052   45.6296 H   0  0  0  0  0  0  0  0  0  0  0  0
   57.7388   27.8379   47.9717 H   0  0  0  0  0  0  0  0  0  0  0  0
   59.2480   27.2925   47.1199 H   0  0  0  0  0  0  0  0  0  0  0  0
  1  2  1  0
  2  3  1  0
  3  4  1  0
  4  5  1  0
  5  6  1  0
  6  7  1  0
  7  8  1  0
  8  9  1  0
  9 10  1  0
 10 11  2  0
 11 12  1  0
 12 13  2  0
 13 14  1  0
 14 15  2  0
 14 16  1  0
 16 17  1  0
 17 18  2  0
 17 19  1  0
 19 20  1  0
 15 10  1  0
 20 13  1  0
  1 21  1  0
  1 22  1  0
  1 23  1  0
  2 24  1  0
  2 25  1  0
  3 26  1  0
  4 27  1  0
  4 28  1  0
  5 29  1  0
  5 30  1  0
  7 31  1  0
  7 32  1  0
  8 33  1  0
  8 34  1  0
 11 35  1  0
 12 36  1  0
 15 37  1  0
 19 38  1  0
 19 39  1  0
 20 40  1  0
 20 41  1  0
M  CHG  1  16  -1
M  END
>  <UniqueID>  (37) 
37

>  <SMILES>  (37) 
CCNCCOCCOc1ccc2c(c1)[N-]C(=O)CC2

>  <Energy>  (37) 
38.7354059755145

>  <Genealogy>  (37) 
CCNCCOCCOc1ccc2c(c1)[N-]C(=O)CC2 (protonated)
CCNCCOCCOc1ccc2c(c1)[N-]C(=O)CC2 (3D coordinates assigned)
CCNCCOCCOc1ccc2c(c1)[N-]C(=O)CC2 (nonaromatic ring conformer: 38.7354059755145 kcal/mol)

>  <smiles>  (37) 
CCNCCOCCOc1ccc2c(c1)NC(=O)CC2

>  <score_type>  (37) 
oracle

>  <origin>  (37) 
adg

>  <m_score__min__energy>  (37) 
-8.0700000000000003

>  <m_primary>  (37) 
energy

$$$$
38:0
     RDKit          3D

 62 64  0  0  0  0  0  0  0  0999 V2000
   57.0320   31.1630   42.7530 C   0  0  0  0  0  0  0  0  0  0  0  0
   56.6360   30.5560   44.1060 C   0  0  0  0  0  0  0  0  0  0  0  0
   57.3510   31.1910   45.2380 N   0  0  0  0  0  0  0  0  0  0  0  0
   58.1030   30.1280   45.9610 C   0  0  0  0  0  0  0  0  0  0  0  0
   59.5780   30.4760   46.1660 C   0  0  0  0  0  0  0  0  0  0  0  0
   58.2610   32.2770   44.7590 C   0  0  0  0  0  0  0  0  0  0  0  0
   57.9660   33.6140   45.4710 C   0  0  0  0  0  0  0  0  0  0  0  0
   57.7260   33.4780   46.9830 C   0  0  0  0  0  0  0  0  0  0  0  0
   58.8620   33.9860   47.7570 N   0  0  0  0  0  0  0  0  0  0  0  0
   59.8320   33.1250   48.3860 C   0  0  0  0  0  0  0  0  0  0  0  0
   61.1600   33.0890   47.9270 C   0  0  0  0  0  0  0  0  0  0  0  0
   61.5740   33.8860   46.8390 C   0  0  0  0  0  0  0  0  0  0  0  0
   62.8860   33.8340   46.3720 C   0  0  0  0  0  0  0  0  0  0  0  0
   63.8020   32.9890   46.9790 C   0  0  0  0  0  0  0  0  0  0  0  0
   63.4210   32.2010   48.0600 C   0  0  0  0  0  0  0  0  0  0  0  0
   62.1060   32.2630   48.5880 C   0  0  0  0  0  0  0  0  0  0  0  0
   61.7420   31.5570   49.7150 N   0  0  0  0  0  0  0  0  0  0  0  0
   62.7720   30.9400   50.5760 C   0  0  0  0  0  0  0  0  0  0  0  0
   60.4130   31.4700   50.0770 C   0  0  0  0  0  0  0  0  0  0  0  0
   59.9720   30.5390   51.0420 C   0  0  0  0  0  0  0  0  0  0  0  0
   58.6390   30.5050   51.4560 C   0  0  0  0  0  0  0  0  0  0  0  0
   57.7060   31.3880   50.9150 C   0  0  0  0  0  0  0  0  0  0  0  0
   56.3320   31.2960   51.3350 N   0  0  0  0  0  0  0  0  0  0  0  0
   55.8120   30.2920   52.2620 C   0  0  0  0  0  0  0  0  0  0  0  0
   54.3160   30.0560   52.0120 C   0  0  0  0  0  0  0  0  0  0  0  0
   53.7210   31.1560   51.2510 N   0  0  0  0  0  0  0  0  0  0  0  0
   58.1140   32.2830   49.9150 C   0  0  0  0  0  0  0  0  0  0  0  0
   59.4490   32.3130   49.4650 C   0  0  0  0  0  0  0  0  0  0  0  0
   57.6261   32.0737   42.9195 H   0  0  0  0  0  0  0  0  0  0  0  0
   57.6291   30.4344   42.1849 H   0  0  0  0  0  0  0  0  0  0  0  0
   56.1246   31.4159   42.1849 H   0  0  0  0  0  0  0  0  0  0  0  0
   55.5539   30.6905   44.2509 H   0  0  0  0  0  0  0  0  0  0  0  0
   56.9098   29.4907   44.0900 H   0  0  0  0  0  0  0  0  0  0  0  0
   57.6378   29.9775   46.9464 H   0  0  0  0  0  0  0  0  0  0  0  0
   58.0615   29.2176   45.3450 H   0  0  0  0  0  0  0  0  0  0  0  0
   59.7963   30.5275   47.2429 H   0  0  0  0  0  0  0  0  0  0  0  0
   60.2055   29.7013   45.7013 H   0  0  0  0  0  0  0  0  0  0  0  0
   59.7931   31.4495   45.7013 H   0  0  0  0  0  0  0  0  0  0  0  0
   59.3025   31.9862   44.9609 H   0  0  0  0  0  0  0  0  0  0  0  0
   58.0965   32.4157   43.6802 H   0  0  0  0  0  0  0  0  0  0  0  0
   58.8238   34.2849   45.3160 H   0  0  0  0  0  0  0  0  0  0  0  0
   57.0358   34.0077   45.0355 H   0  0  0  0  0  0  0  0  0  0  0  0
   56.8255   34.0484   47.2543 H   0  0  0  0  0  0  0  0  0  0  0  0
   57.5999   32.4106   47.2169 H   0  0  0  0  0  0  0  0  0  0  0  0
   58.9820   35.0230   47.8830 H   0  0  0  0  0  0  0  0  0  0  0  0
   60.8513   34.5577   46.3526 H   0  0  0  0  0  0  0  0  0  0  0  0
   63.1941   34.4623   45.5233 H   0  0  0  0  0  0  0  0  0  0  0  0
   64.8350   32.9414   46.6040 H   0  0  0  0  0  0  0  0  0  0  0  0
   64.1532   31.5170   48.5139 H   0  0  0  0  0  0  0  0  0  0  0  0
   62.5091   31.0975   51.6325 H   0  0  0  0  0  0  0  0  0  0  0  0
   62.8253   29.8611   50.3683 H   0  0  0  0  0  0  0  0  0  0  0  0
   63.7484   31.4021   50.3683 H   0  0  0  0  0  0  0  0  0  0  0  0
   60.6909   29.8280   51.4753 H   0  0  0  0  0  0  0  0  0  0  0  0
   58.3224   29.7751   52.2156 H   0  0  0  0  0  0  0  0  0  0  0  0
   55.6390   31.9400   50.8920 H   0  0  0  0  0  0  0  0  0  0  0  0
   56.3571   29.3477   52.1165 H   0  0  0  0  0  0  0  0  0  0  0  0
   55.9488   30.6529   53.2921 H   0  0  0  0  0  0  0  0  0  0  0  0
   54.1909   29.1209   51.4464 H   0  0  0  0  0  0  0  0  0  0  0  0
   53.8080   29.9945   52.9857 H   0  0  0  0  0  0  0  0  0  0  0  0
   53.9190   31.0310   50.2270 H   0  0  0  0  0  0  0  0  0  0  0  0
   54.1390   32.0560   51.5670 H   0  0  0  0  0  0  0  0  0  0  0  0
   57.3794   32.9732   49.4746 H   0  0  0  0  0  0  0  0  0  0  0  0
  1  2  1  0
  2  3  1  0
  3  4  1  0
  4  5  1  0
  3  6  1  0
  6  7  1  0
  7  8  1  0
  8  9  1  0
  9 10  1  0
 10 11  2  0
 11 12  1  0
 12 13  2  0
 13 14  1  0
 14 15  2  0
 15 16  1  0
 16 17  2  0
 17 18  1  0
 17 19  1  0
 19 20  2  0
 20 21  1  0
 21 22  2  0
 22 23  1  0
 23 24  1  0
 24 25  1  0
 25 26  1  0
 22 27  1  0
 27 28  2  0
 28 10  1  0
 16 11  1  0
 28 19  1  0
  1 29  1  0
  1 30  1  0
  1 31  1  0
  2 32  1  0
  2 33  1  0
  4 34  1  0
  4 35  1  0
  5 36  1  0
  5 37  1  0
  5 38  1  0
  6 39  1  0
  6 40  1  0
  7 41  1  0
  7 42  1  0
  8 43  1  0
  8 44  1  0
  9 45  1  0
 12 46  1  0
 13 47  1  0
 14 48  1  0
 15 49  1  0
 18 50  1  0
 18 51  1  0
 18 52  1  0
 20 53  1  0
 21 54  1  0
 23 55  1  0
 24 56  1  0
 24 57  1  0
 25 58  1  0
 25 59  1  0
 26 60  1  0
 26 61  1  0
 27 62  1  0
M  CHG  1  17   1
M  END
>  <UniqueID>  (38) 
38

>  <SMILES>  (38) 
CCN(CC)CCCNc1c2ccccc2[n+](C)c2ccc(NCCN)cc12

>  <Energy>  (38) 
84.90474142084012

>  <Genealogy>  (38) 
CCN(CC)CCCNc1c2ccccc2[n+](C)c2ccc(NCCN)cc12 (3D coordinates assigned)
CCN(CC)CCCNc1c2ccccc2[n+](C)c2ccc(NCCN)cc12 (optimized conformer: 84.90474142084012 kcal/mol)

>  <smiles>  (38) 
CCN(CC)CCCNc1c2ccccc2[n+](C)c2ccc(NCCN)cc12

>  <score_type>  (38) 
oracle

>  <origin>  (38) 
adg

>  <m_score__min__energy>  (38) 
-7.0499999999999998

>  <m_primary>  (38) 
energy

$$$$
39:0
     RDKit          3D

 24 23  0  0  0  0  0  0  0  0999 V2000
   58.1430   27.0070   42.8330 C   0  0  0  0  0  0  0  0  0  0  0  0
   58.2440   27.7610   43.7690 C   0  0  0  0  0  0  0  0  0  0  0  0
   58.3730   28.6790   44.9080 C   0  0  0  0  0  0  0  0  0  0  0  0
   57.0130   29.2720   45.2910 C   0  0  0  0  0  0  0  0  0  0  0  0
   56.9090   30.6860   44.8620 N   0  0  0  0  0  0  0  0  0  0  0  0
   56.6620   30.8280   43.4060 C   0  0  0  0  0  0  0  0  0  0  0  0
   57.6890   31.7010   42.6660 C   0  0  0  0  0  0  0  0  0  0  0  0
   58.0310   31.5210   45.3520 C   0  0  0  0  0  0  0  0  0  0  0  0
   57.5370   32.9050   45.7740 C   0  0  0  0  0  0  0  0  0  0  0  0
   58.8190   34.2820   45.3040 Br  0  0  0  0  0  0  0  0  0  0  0  0
   58.0509   26.3194   41.9794 H   0  0  0  0  0  0  0  0  0  0  0  0
   58.7812   28.1292   45.7689 H   0  0  0  0  0  0  0  0  0  0  0  0
   59.0460   29.5007   44.6218 H   0  0  0  0  0  0  0  0  0  0  0  0
   56.2169   28.6893   44.8045 H   0  0  0  0  0  0  0  0  0  0  0  0
   56.9086   29.2298   46.3852 H   0  0  0  0  0  0  0  0  0  0  0  0
   56.6766   29.8245   42.9558 H   0  0  0  0  0  0  0  0  0  0  0  0
   55.6902   31.3328   43.3018 H   0  0  0  0  0  0  0  0  0  0  0  0
   58.3142   32.2324   43.3986 H   0  0  0  0  0  0  0  0  0  0  0  0
   58.3255   31.0632   42.0350 H   0  0  0  0  0  0  0  0  0  0  0  0
   57.1621   32.4319   42.0350 H   0  0  0  0  0  0  0  0  0  0  0  0
   58.4976   31.0260   46.2165 H   0  0  0  0  0  0  0  0  0  0  0  0
   58.7612   31.6414   44.5381 H   0  0  0  0  0  0  0  0  0  0  0  0
   56.5833   33.1151   45.2678 H   0  0  0  0  0  0  0  0  0  0  0  0
   57.4062   32.9096   46.8662 H   0  0  0  0  0  0  0  0  0  0  0  0
  1  2  3  0
  2  3  1  0
  3  4  1  0
  4  5  1  0
  5  6  1  0
  6  7  1  0
  5  8  1  0
  8  9  1  0
  9 10  1  0
  1 11  1  0
  3 12  1  0
  3 13  1  0
  4 14  1  0
  4 15  1  0
  6 16  1  0
  6 17  1  0
  7 18  1  0
  7 19  1  0
  7 20  1  0
  8 21  1  0
  8 22  1  0
  9 23  1  0
  9 24  1  0
M  END
>  <UniqueID>  (39) 
39

>  <SMILES>  (39) 
C#CCCN(CC)CCBr

>  <Energy>  (39) 
16.76567078492473

>  <Genealogy>  (39) 
C#CCCN(CC)CCBr (3D coordinates assigned)
C#CCCN(CC)CCBr (optimized conformer: 16.76567078492473 kcal/mol)

>  <smiles>  (39) 
C#CCCN(CC)CCBr

>  <score_type>  (39) 
oracle

>  <origin>  (39) 
adg

>  <m_score__min__energy>  (39) 
-4.0599999999999996

>  <m_primary>  (39) 
energy

$$$$
