0:0
     RDKit          3D

 30 32  0  0  0  0  0  0  0  0999 V2000
   60.3740   27.8670   47.3550 C   0  0  0  0  0  0  0  0  0  0  0  0
   59.2960   28.3760   46.4530 C   0  0  0  0  0  0  0  0  0  0  0  0
   58.4610   27.4640   45.7560 C   0  0  0  0  0  0  0  0  0  0  0  0
   57.4270   27.9470   44.9340 C   0  0  0  0  0  0  0  0  0  0  0  0
   57.2830   29.3270   44.8420 C   0  0  0  0  0  0  0  0  0  0  0  0
   56.3750   30.1450   44.2030 C   0  0  0  0  0  0  0  0  0  0  0  0
   55.2010   29.7150   43.3880 C   0  0  0  0  0  0  0  0  0  0  0  0
   56.6530   31.4350   44.5220 N   0  0  0  0  0  0  0  0  0  0  0  0
   57.7210   31.4500   45.3160 N   0  0  0  0  0  0  0  0  0  0  0  0
   58.2880   32.6520   45.8690 C   0  0  0  0  0  0  0  0  0  0  0  0
   58.3910   32.8000   47.2640 C   0  0  0  0  0  0  0  0  0  0  0  0
   58.9330   33.9650   47.8150 C   0  0  0  0  0  0  0  0  0  0  0  0
   59.3670   34.9980   46.9820 C   0  0  0  0  0  0  0  0  0  0  0  0
   59.2560   34.8700   45.5960 C   0  0  0  0  0  0  0  0  0  0  0  0
   58.7160   33.7060   45.0390 C   0  0  0  0  0  0  0  0  0  0  0  0
   58.1060   30.1730   45.5180 C   0  0  0  0  0  0  0  0  0  0  0  0
   59.0920   29.7250   46.3350 N   0  0  0  0  0  0  0  0  0  0  0  0
   60.0726   28.0093   48.4033 H   0  0  0  0  0  0  0  0  0  0  0  0
   60.5379   26.7964   47.1627 H   0  0  0  0  0  0  0  0  0  0  0  0
   61.3048   28.4207   47.1627 H   0  0  0  0  0  0  0  0  0  0  0  0
   58.6224   26.3808   45.8586 H   0  0  0  0  0  0  0  0  0  0  0  0
   56.7611   27.2628   44.3876 H   0  0  0  0  0  0  0  0  0  0  0  0
   54.3808   29.4146   44.0566 H   0  0  0  0  0  0  0  0  0  0  0  0
   54.8696   30.5501   42.7534 H   0  0  0  0  0  0  0  0  0  0  0  0
   55.4874   28.8634   42.7534 H   0  0  0  0  0  0  0  0  0  0  0  0
   58.0427   31.9935   47.9260 H   0  0  0  0  0  0  0  0  0  0  0  0
   59.0177   34.0680   48.9069 H   0  0  0  0  0  0  0  0  0  0  0  0
   59.7962   35.9124   47.4174 H   0  0  0  0  0  0  0  0  0  0  0  0
   59.5939   35.6863   44.9407 H   0  0  0  0  0  0  0  0  0  0  0  0
   58.6252   33.6135   43.9467 H   0  0  0  0  0  0  0  0  0  0  0  0
  1  2  1  0
  2  3  2  0
  3  4  1  0
  4  5  2  0
  5  6  1  0
  6  7  1  0
  6  8  2  0
  8  9  1  0
  9 10  1  0
 10 11  2  0
 11 12  1  0
 12 13  2  0
 13 14  1  0
 14 15  2  0
  9 16  1  0
 16 17  2  0
 17  2  1  0
 16  5  1  0
 15 10  1  0
  1 18  1  0
  1 19  1  0
  1 20  1  0
  3 21  1  0
  4 22  1  0
  7 23  1  0
  7 24  1  0
  7 25  1  0
 11 26  1  0
 12 27  1  0
 13 28  1  0
 14 29  1  0
 15 30  1  0
M  END
>  <UniqueID>  (1) 
1

>  <SMILES>  (1) 
Cc1ccc2c(C)nn(-c3ccccc3)c2n1

>  <Energy>  (1) 
75.10895917859334

>  <Genealogy>  (1) 
Cc1ccc2c(C)nn(-c3ccccc3)c2n1 (3D coordinates assigned)
Cc1ccc2c(C)nn(-c3ccccc3)c2n1 (optimized conformer: 75.10895917859334 kcal/mol)

>  <smiles>  (1) 
Cc1ccc2c(C)nn(-c3ccccc3)c2n1

>  <score_type>  (1) 
oracle

>  <origin>  (1) 
adg

>  <m_score__min__energy>  (1) 
-6.7999999999999998

>  <m_primary>  (1) 
energy

$$$$
1:0
     RDKit          3D

 43 46  0  0  0  0  0  0  0  0999 V2000
   54.6390   27.0830   46.7640 H   0  0  0  0  0  0  0  0  0  0  0  0
   55.2980   26.6570   46.0760 N   0  0  0  0  0  0  0  0  0  0  0  0
   56.7090   26.7730   46.2430 C   0  0  0  0  0  0  0  0  0  0  0  0
   57.3750   25.7690   46.6080 O   0  0  0  0  0  0  0  0  0  0  0  0
   57.3790   28.0570   45.9570 C   0  0  0  0  0  0  0  0  0  0  0  0
   58.7110   28.3640   46.3730 C   0  0  0  0  0  0  0  0  0  0  0  0
   59.4740   27.4730   47.2220 N   0  0  0  0  0  0  0  0  0  0  0  0
   60.3990   27.2670   46.7760 H   0  0  0  0  0  0  0  0  0  0  0  0
   59.0070   26.5460   47.3300 H   0  0  0  0  0  0  0  0  0  0  0  0
   59.6870   28.0820   48.5110 C   0  0  0  0  0  0  0  0  0  0  0  0
   58.8910   29.1670   48.9270 C   0  0  0  0  0  0  0  0  0  0  0  0
   58.1197   29.5683   48.2532 H   0  0  0  0  0  0  0  0  0  0  0  0
   59.0740   29.7370   50.1890 C   0  0  0  0  0  0  0  0  0  0  0  0
   58.4467   30.5832   50.5059 H   0  0  0  0  0  0  0  0  0  0  0  0
   60.0540   29.2330   51.0500 C   0  0  0  0  0  0  0  0  0  0  0  0
   60.1966   29.6849   52.0427 H   0  0  0  0  0  0  0  0  0  0  0  0
   60.8550   28.1540   50.6520 C   0  0  0  0  0  0  0  0  0  0  0  0
   61.8520   27.6340   51.5390 N   0  0  0  0  0  0  0  0  0  0  0  0
   62.8660   27.7380   51.3170 H   0  0  0  0  0  0  0  0  0  0  0  0
   61.5830   27.1670   52.4350 H   0  0  0  0  0  0  0  0  0  0  0  0
   60.6720   27.5830   49.3860 C   0  0  0  0  0  0  0  0  0  0  0  0
   61.3026   26.7380   49.0724 H   0  0  0  0  0  0  0  0  0  0  0  0
   59.2700   29.6240   46.0360 C   0  0  0  0  0  0  0  0  0  0  0  0
   60.2951   29.8674   46.3521 H   0  0  0  0  0  0  0  0  0  0  0  0
   58.5220   30.5690   45.2980 C   0  0  0  0  0  0  0  0  0  0  0  0
   58.9750   31.7530   44.9860 N   0  0  0  0  0  0  0  0  0  0  0  0
   59.1280   32.8900   45.8510 C   0  0  0  0  0  0  0  0  0  0  0  0
   59.1100   32.7530   47.2520 C   0  0  0  0  0  0  0  0  0  0  0  0
   58.9416   31.7648   47.7048 H   0  0  0  0  0  0  0  0  0  0  0  0
   59.3060   33.8720   48.0700 C   0  0  0  0  0  0  0  0  0  0  0  0
   59.2719   33.7652   49.1643 H   0  0  0  0  0  0  0  0  0  0  0  0
   59.5450   35.1250   47.4980 C   0  0  0  0  0  0  0  0  0  0  0  0
   59.6897   36.0052   48.1417 H   0  0  0  0  0  0  0  0  0  0  0  0
   59.6000   35.2590   46.1070 C   0  0  0  0  0  0  0  0  0  0  0  0
   59.7952   36.2435   45.6569 H   0  0  0  0  0  0  0  0  0  0  0  0
   59.4070   34.1420   45.2880 C   0  0  0  0  0  0  0  0  0  0  0  0
   59.4747   34.2472   44.1951 H   0  0  0  0  0  0  0  0  0  0  0  0
   57.2540   30.2270   44.9620 N   0  0  0  0  0  0  0  0  0  0  0  0
   56.2920   30.9030   44.3090 C   0  0  0  0  0  0  0  0  0  0  0  0
   56.3997   31.9242   43.9145 H   0  0  0  0  0  0  0  0  0  0  0  0
   55.1740   30.1500   44.2060 N   0  0  0  0  0  0  0  0  0  0  0  0
   55.4200   28.9870   44.7990 N   0  0  0  0  0  0  0  0  0  0  0  0
   56.6860   29.0510   45.2560 C   0  0  0  0  0  0  0  0  0  0  0  0
  1  2  1  0
  2  3  1  0
  3  4  2  0
  3  5  1  0
  5  6  1  0
  6  7  1  0
  7  8  1  0
  7  9  1  0
  7 10  1  0
 10 11  2  0
 11 12  1  0
 11 13  1  0
 13 14  1  0
 13 15  2  0
 15 16  1  0
 15 17  1  0
 17 18  1  0
 18 19  1  0
 18 20  1  0
 17 21  2  0
 21 22  1  0
  6 23  2  0
 23 24  1  0
 23 25  1  0
 25 26  2  0
 26 27  1  0
 27 28  2  0
 28 29  1  0
 28 30  1  0
 30 31  1  0
 30 32  2  0
 32 33  1  0
 32 34  1  0
 34 35  1  0
 34 36  2  0
 36 37  1  0
 25 38  1  0
 38 39  1  0
 39 40  1  0
 39 41  2  0
 41 42  1  0
 42 43  1  0
 43  5  2  0
 21 10  1  0
 36 27  1  0
 43 38  1  0
M  CHG  3   2  -1   7   1  42  -1
M  END
>  <UniqueID>  (2) 
2

>  <SMILES>  (2) 
[NH-]C(=O)c1c([NH2+]c2cccc(N)c2)c/c(=N\c2ccccc2)n2cn[n-]c12

>  <Energy>  (2) 
105.45021958543035

>  <Genealogy>  (2) 
[NH-]C(=O)c1c([NH2+]c2cccc(N)c2)cc(=Nc2ccccc2)n2cn[n-]c12 (protonated)
[NH-]C(=O)c1c([NH2+]c2cccc(N)c2)c/c(=N\c2ccccc2)n2cn[n-]c12 (cis-trans isomerization)
[NH-]C(=O)c1c([NH2+]c2cccc(N)c2)c/c(=N\c2ccccc2)n2cn[n-]c12 (3D coordinates assigned)
[NH-]C(=O)c1c([NH2+]c2cccc(N)c2)c/c(=N\c2ccccc2)n2cn[n-]c12 (optimized conformer: 105.45021958543035 kcal/mol)

>  <smiles>  (2) 
NC(=O)c1c(Nc2cccc(N)c2)cc(=Nc2ccccc2)n2cn[nH]c12

>  <score_type>  (2) 
oracle

>  <origin>  (2) 
adg

>  <m_score__min__energy>  (2) 
-10.779999999999999

>  <m_primary>  (2) 
energy

$$$$
2:0
     RDKit          3D

 45 48  0  0  0  0  0  0  0  0999 V2000
   56.9310   21.2380   44.4280 C   0  0  0  0  0  0  0  0  0  0  0  0
   57.7620   20.7580   45.6130 C   0  0  0  0  0  0  0  0  0  0  0  0
   57.7680   21.7220   46.6210 O   0  0  0  0  0  0  0  0  0  0  0  0
   57.7490   23.0750   46.4000 C   0  0  0  0  0  0  0  0  0  0  0  0
   58.7130   23.7280   45.6160 C   0  0  0  0  0  0  0  0  0  0  0  0
   58.5810   25.0850   45.4740 C   0  0  0  0  0  0  0  0  0  0  0  0
   57.5790   25.8340   46.0440 C   0  0  0  0  0  0  0  0  0  0  0  0
   57.5140   27.2690   45.8220 C   0  0  0  0  0  0  0  0  0  0  0  0
   58.2540   28.2220   46.5230 C   0  0  0  0  0  0  0  0  0  0  0  0
   57.9190   29.4880   46.0670 C   0  0  0  0  0  0  0  0  0  0  0  0
   58.3130   30.7290   46.4030 N   0  0  0  0  0  0  0  0  0  0  0  0
   57.7750   31.7820   45.7730 C   0  0  0  0  0  0  0  0  0  0  0  0
   58.1390   33.1030   46.1040 N   0  0  0  0  0  0  0  0  0  0  0  0
   57.9260   34.1540   45.0940 C   0  0  0  0  0  0  0  0  0  0  0  0
   59.2130   34.9250   44.8750 C   0  0  0  0  0  0  0  0  0  0  0  0
   59.8370   35.2540   46.0670 O   0  0  0  0  0  0  0  0  0  0  0  0
   60.0550   34.1950   46.9210 C   0  0  0  0  0  0  0  0  0  0  0  0
   58.7330   33.5230   47.3550 C   0  0  0  0  0  0  0  0  0  0  0  0
   56.8430   31.5940   44.8050 N   0  0  0  0  0  0  0  0  0  0  0  0
   56.4410   30.3590   44.4610 C   0  0  0  0  0  0  0  0  0  0  0  0
   55.5690   30.1120   43.5510 N   0  0  0  0  0  0  0  0  0  0  0  0
   56.9900   29.2880   45.1050 N   0  0  0  0  0  0  0  0  0  0  0  0
   56.7650   27.9820   44.9740 N   0  0  0  0  0  0  0  0  0  0  0  0
   56.6340   25.1980   46.8100 C   0  0  0  0  0  0  0  0  0  0  0  0
   56.7570   23.8340   46.9610 C   0  0  0  0  0  0  0  0  0  0  0  0
   56.0333   21.7565   44.7958 H   0  0  0  0  0  0  0  0  0  0  0  0
   57.5293   21.9296   43.8167 H   0  0  0  0  0  0  0  0  0  0  0  0
   56.6309   20.3741   43.8167 H   0  0  0  0  0  0  0  0  0  0  0  0
   57.3303   19.8253   46.0051 H   0  0  0  0  0  0  0  0  0  0  0  0
   58.7952   20.5830   45.2785 H   0  0  0  0  0  0  0  0  0  0  0  0
   59.5360   23.1765   45.1379 H   0  0  0  0  0  0  0  0  0  0  0  0
   59.3284   25.6109   44.8617 H   0  0  0  0  0  0  0  0  0  0  0  0
   58.9876   28.0034   47.3130 H   0  0  0  0  0  0  0  0  0  0  0  0
   59.0190   30.8430   47.1360 H   0  0  0  0  0  0  0  0  0  0  0  0
   57.6117   33.6916   44.1467 H   0  0  0  0  0  0  0  0  0  0  0  0
   57.1453   34.8438   45.4471 H   0  0  0  0  0  0  0  0  0  0  0  0
   59.8980   34.3073   44.2757 H   0  0  0  0  0  0  0  0  0  0  0  0
   58.9605   35.8620   44.3571 H   0  0  0  0  0  0  0  0  0  0  0  0
   60.6819   33.4494   46.4101 H   0  0  0  0  0  0  0  0  0  0  0  0
   60.5531   34.5811   47.8226 H   0  0  0  0  0  0  0  0  0  0  0  0
   58.9272   32.6589   48.0074 H   0  0  0  0  0  0  0  0  0  0  0  0
   58.0817   34.1945   47.9336 H   0  0  0  0  0  0  0  0  0  0  0  0
   55.3630   29.1640   43.1860 H   0  0  0  0  0  0  0  0  0  0  0  0
   55.8121   25.7546   47.2839 H   0  0  0  0  0  0  0  0  0  0  0  0
   56.0048   23.3181   47.5759 H   0  0  0  0  0  0  0  0  0  0  0  0
  1  2  1  0
  2  3  1  0
  3  4  1  0
  4  5  2  0
  5  6  1  0
  6  7  2  0
  7  8  1  0
  8  9  1  0
  9 10  2  0
 10 11  1  0
 11 12  1  0
 12 13  1  0
 13 14  1  0
 14 15  1  0
 15 16  1  0
 16 17  1  0
 17 18  1  0
 12 19  2  0
 19 20  1  0
 20 21  2  3
 20 22  1  0
 22 23  1  0
  7 24  1  0
 24 25  2  0
 25  4  1  0
 23  8  2  0
 22 10  1  0
 18 13  1  0
  1 26  1  0
  1 27  1  0
  1 28  1  0
  2 29  1  0
  2 30  1  0
  5 31  1  0
  6 32  1  0
  9 33  1  0
 11 34  1  0
 14 35  1  0
 14 36  1  0
 15 37  1  0
 15 38  1  0
 17 39  1  0
 17 40  1  0
 18 41  1  0
 18 42  1  0
 21 43  1  0
 24 44  1  0
 25 45  1  0
M  END
>  <smiles>  (3) 
CCOc1ccc(-c2cc3[nH]c(N4CCOCC4)nc(=N)n3n2)cc1

>  <score_type>  (3) 
oracle

>  <origin>  (3) 
adg

>  <m_score__min__energy>  (3) 
-7

>  <m_primary>  (3) 
energy

$$$$
3:0
     RDKit          3D

 40 43  0  0  0  0  0  0  0  0999 V2000
   56.2670   30.1520   42.6130 C   0  0  0  0  0  0  0  0  0  0  0  0
   56.9980   30.0340   43.9120 C   0  0  0  0  0  0  0  0  0  0  0  0
   57.5830   31.1580   44.4990 C   0  0  0  0  0  0  0  0  0  0  0  0
   58.2840   31.0360   45.7070 C   0  0  0  0  0  0  0  0  0  0  0  0
   58.9200   32.2460   46.2740 C   0  0  0  0  0  0  0  0  0  0  0  0
   58.1810   33.4320   46.4140 C   0  0  0  0  0  0  0  0  0  0  0  0
   58.7870   34.5830   46.9290 C   0  0  0  0  0  0  0  0  0  0  0  0
   60.1350   34.5590   47.2980 C   0  0  0  0  0  0  0  0  0  0  0  0
   60.8800   33.3860   47.1500 C   0  0  0  0  0  0  0  0  0  0  0  0
   60.2780   32.2330   46.6350 C   0  0  0  0  0  0  0  0  0  0  0  0
   58.3720   29.7650   46.3290 C   0  0  0  0  0  0  0  0  0  0  0  0
   58.9920   29.5820   47.5810 C   0  0  0  0  0  0  0  0  0  0  0  0
   59.0490   28.3160   48.1630 C   0  0  0  0  0  0  0  0  0  0  0  0
   58.4930   27.2150   47.5160 C   0  0  0  0  0  0  0  0  0  0  0  0
   57.8590   27.3630   46.2720 C   0  0  0  0  0  0  0  0  0  0  0  0
   57.2780   26.1700   45.6080 C   0  0  0  0  0  0  0  0  0  0  0  0
   56.2390   25.4510   46.2270 C   0  0  0  0  0  0  0  0  0  0  0  0
   55.6950   24.3210   45.6060 C   0  0  0  0  0  0  0  0  0  0  0  0
   56.1840   23.8980   44.3680 C   0  0  0  0  0  0  0  0  0  0  0  0
   55.6550   22.8030   43.7680 F   0  0  0  0  0  0  0  0  0  0  0  0
   57.2210   24.6000   43.7490 C   0  0  0  0  0  0  0  0  0  0  0  0
   57.7700   25.7300   44.3650 C   0  0  0  0  0  0  0  0  0  0  0  0
   57.7850   28.6460   45.6840 C   0  0  0  0  0  0  0  0  0  0  0  0
   57.1190   28.8210   44.5090 N   0  0  0  0  0  0  0  0  0  0  0  0
   55.1983   30.3245   42.8080 H   0  0  0  0  0  0  0  0  0  0  0  0
   56.6756   30.9958   42.0377 H   0  0  0  0  0  0  0  0  0  0  0  0
   56.3893   29.2225   42.0377 H   0  0  0  0  0  0  0  0  0  0  0  0
   57.4936   32.1407   44.0128 H   0  0  0  0  0  0  0  0  0  0  0  0
   57.1219   33.4560   46.1177 H   0  0  0  0  0  0  0  0  0  0  0  0
   58.2022   35.5076   47.0436 H   0  0  0  0  0  0  0  0  0  0  0  0
   60.6097   35.4640   47.7051 H   0  0  0  0  0  0  0  0  0  0  0  0
   61.9413   33.3693   47.4389 H   0  0  0  0  0  0  0  0  0  0  0  0
   60.8693   31.3136   46.5123 H   0  0  0  0  0  0  0  0  0  0  0  0
   59.4340   30.4436   48.1028 H   0  0  0  0  0  0  0  0  0  0  0  0
   59.5367   28.1859   49.1404 H   0  0  0  0  0  0  0  0  0  0  0  0
   58.5511   26.2210   47.9836 H   0  0  0  0  0  0  0  0  0  0  0  0
   55.8526   25.7785   47.2034 H   0  0  0  0  0  0  0  0  0  0  0  0
   54.8808   23.7650   46.0938 H   0  0  0  0  0  0  0  0  0  0  0  0
   57.6068   24.2637   42.7753 H   0  0  0  0  0  0  0  0  0  0  0  0
   58.5896   26.2767   43.8757 H   0  0  0  0  0  0  0  0  0  0  0  0
  1  2  1  0
  2  3  2  0
  3  4  1  0
  4  5  1  0
  5  6  2  0
  6  7  1  0
  7  8  2  0
  8  9  1  0
  9 10  2  0
  4 11  2  0
 11 12  1  0
 12 13  2  0
 13 14  1  0
 14 15  2  0
 15 16  1  0
 16 17  2  0
 17 18  1  0
 18 19  2  0
 19 20  1  0
 19 21  1  0
 21 22  2  0
 15 23  1  0
 23 24  2  0
 24  2  1  0
 10  5  1  0
 23 11  1  0
 22 16  1  0
  1 25  1  0
  1 26  1  0
  1 27  1  0
  3 28  1  0
  6 29  1  0
  7 30  1  0
  8 31  1  0
  9 32  1  0
 10 33  1  0
 12 34  1  0
 13 35  1  0
 14 36  1  0
 17 37  1  0
 18 38  1  0
 21 39  1  0
 22 40  1  0
M  END
>  <UniqueID>  (4) 
3

>  <SMILES>  (4) 
Cc1cc(-c2ccccc2)c2cccc(-c3ccc(F)cc3)c2n1

>  <Energy>  (4) 
62.1650474938406

>  <Genealogy>  (4) 
Cc1cc(-c2ccccc2)c2cccc(-c3ccc(F)cc3)c2n1 (3D coordinates assigned)
Cc1cc(-c2ccccc2)c2cccc(-c3ccc(F)cc3)c2n1 (optimized conformer: 62.1650474938406 kcal/mol)

>  <smiles>  (4) 
Cc1cc(-c2ccccc2)c2cccc(-c3ccc(F)cc3)c2n1

>  <score_type>  (4) 
oracle

>  <origin>  (4) 
adg

>  <m_score__min__energy>  (4) 
-8.1300000000000008

>  <m_primary>  (4) 
energy

$$$$
4:0
     RDKit          3D

 20 22  0  0  0  0  0  0  0  0999 V2000
   57.4410   32.3420   41.0170 Cl  0  0  0  0  0  0  0  0  0  0  0  0
   57.2490   31.4820   42.5340 C   0  0  0  0  0  0  0  0  0  0  0  0
   56.6430   30.2270   42.6240 C   0  0  0  0  0  0  0  0  0  0  0  0
   56.6410   29.7200   44.2430 S   0  0  0  0  0  0  0  0  0  0  0  0
   57.4080   31.0950   44.8150 C   0  0  0  0  0  0  0  0  0  0  0  0
   57.7460   31.3790   46.0950 N   0  0  0  0  0  0  0  0  0  0  0  0
   58.3710   32.5610   46.3620 C   0  0  0  0  0  0  0  0  0  0  0  0
   58.7330   32.8880   47.6730 C   0  0  0  0  0  0  0  0  0  0  0  0
   59.3750   34.1020   47.9400 C   0  0  0  0  0  0  0  0  0  0  0  0
   59.6560   34.9940   46.9000 C   0  0  0  0  0  0  0  0  0  0  0  0
   59.3000   34.6820   45.5840 C   0  0  0  0  0  0  0  0  0  0  0  0
   58.6570   33.4690   45.2990 C   0  0  0  0  0  0  0  0  0  0  0  0
   58.3000   33.1460   44.0170 N   0  0  0  0  0  0  0  0  0  0  0  0
   57.6770   31.9620   43.7770 C   0  0  0  0  0  0  0  0  0  0  0  0
   56.2316   29.6568   41.7781 H   0  0  0  0  0  0  0  0  0  0  0  0
   58.5128   32.1903   48.4944 H   0  0  0  0  0  0  0  0  0  0  0  0
   59.6598   34.3559   48.9717 H   0  0  0  0  0  0  0  0  0  0  0  0
   60.1602   35.9469   47.1185 H   0  0  0  0  0  0  0  0  0  0  0  0
   59.5247   35.3889   44.7717 H   0  0  0  0  0  0  0  0  0  0  0  0
   58.5040   33.8030   43.2290 H   0  0  0  0  0  0  0  0  0  0  0  0
  1  2  1  0
  2  3  2  0
  3  4  1  0
  4  5  1  0
  5  6  2  0
  6  7  1  0
  7  8  2  0
  8  9  1  0
  9 10  2  0
 10 11  1  0
 11 12  2  0
 12 13  1  0
 13 14  2  0
 14  2  1  0
 14  5  1  0
 12  7  1  0
  3 15  1  0
  8 16  1  0
  9 17  1  0
 10 18  1  0
 11 19  1  0
 13 20  1  0
M  CHG  1  13   1
M  END
>  <UniqueID>  (5) 
4

>  <SMILES>  (5) 
Clc1csc2nc3ccccc3[nH+]c12

>  <Energy>  (5) 
59.185122599203325

>  <Genealogy>  (5) 
Clc1csc2nc3ccccc3[nH+]c12 (protonated)
Clc1csc2nc3ccccc3[nH+]c12 (3D coordinates assigned)
Clc1csc2nc3ccccc3[nH+]c12 (optimized conformer: 59.185122599203325 kcal/mol)

>  <smiles>  (5) 
Clc1csc2nc3ccccc3nc12

>  <score_type>  (5) 
oracle

>  <origin>  (5) 
adg

>  <m_score__min__energy>  (5) 
-5.1799999999999997

>  <m_primary>  (5) 
energy

$$$$
5:0
     RDKit          3D

 42 44  0  0  0  0  0  0  0  0999 V2000
   59.8000   33.7810   51.4670 C   0  0  0  0  0  0  0  0  0  0  0  0
   60.3250   32.9910   50.3110 C   0  0  0  0  0  0  0  0  0  0  0  0
   59.7450   31.4820   49.8490 S   0  0  0  0  0  0  0  0  0  0  0  0
   60.8160   31.2550   48.5760 C   0  0  0  0  0  0  0  0  0  0  0  0
   60.9030   30.0260   47.8370 N   0  0  0  0  0  0  0  0  0  0  0  0
   60.2880   28.7950   48.2420 C   0  0  0  0  0  0  0  0  0  0  0  0
   60.1100   28.5550   49.4660 O   0  0  0  0  0  0  0  0  0  0  0  0
   59.9630   27.7220   47.2420 C   0  0  0  0  0  0  0  0  0  0  0  0
   60.4200   28.1400   45.5150 S   0  0  0  0  0  0  0  0  0  0  0  0
   59.3360   29.5750   45.3560 C   0  0  0  0  0  0  0  0  0  0  0  0
   59.8550   30.7830   45.6910 N   0  0  0  0  0  0  0  0  0  0  0  0
   59.1230   31.9170   45.6260 C   0  0  0  0  0  0  0  0  0  0  0  0
   59.6920   33.1400   46.0020 C   0  0  0  0  0  0  0  0  0  0  0  0
   58.9220   34.3060   45.9770 C   0  0  0  0  0  0  0  0  0  0  0  0
   57.5850   34.2540   45.5740 C   0  0  0  0  0  0  0  0  0  0  0  0
   57.0110   33.0360   45.1930 C   0  0  0  0  0  0  0  0  0  0  0  0
   57.7810   31.8560   45.2170 C   0  0  0  0  0  0  0  0  0  0  0  0
   57.2530   30.6040   44.8520 C   0  0  0  0  0  0  0  0  0  0  0  0
   56.0460   30.5190   44.4910 O   0  0  0  0  0  0  0  0  0  0  0  0
   58.0460   29.4810   44.8890 N   0  0  0  0  0  0  0  0  0  0  0  0
   57.4870   28.1780   44.4900 C   0  0  0  0  0  0  0  0  0  0  0  0
   61.6820   32.3570   48.5120 C   0  0  0  0  0  0  0  0  0  0  0  0
   62.8300   32.4410   47.6420 C   0  0  0  0  0  0  0  0  0  0  0  0
   63.7500   32.5030   46.9430 N   0  0  0  0  0  0  0  0  0  0  0  0
   61.3880   33.3450   49.4750 C   0  0  0  0  0  0  0  0  0  0  0  0
   62.2170   34.5830   49.6750 C   0  0  0  0  0  0  0  0  0  0  0  0
   60.1150   33.3070   52.4083 H   0  0  0  0  0  0  0  0  0  0  0  0
   60.1974   34.8057   51.4215 H   0  0  0  0  0  0  0  0  0  0  0  0
   58.7014   33.8115   51.4215 H   0  0  0  0  0  0  0  0  0  0  0  0
   61.4920   30.0220   46.9740 H   0  0  0  0  0  0  0  0  0  0  0  0
   60.5023   26.8075   47.5298 H   0  0  0  0  0  0  0  0  0  0  0  0
   58.8704   27.5955   47.2580 H   0  0  0  0  0  0  0  0  0  0  0  0
   60.7450   33.1830   46.3170 H   0  0  0  0  0  0  0  0  0  0  0  0
   59.3690   35.2659   46.2749 H   0  0  0  0  0  0  0  0  0  0  0  0
   56.9817   35.1736   45.5562 H   0  0  0  0  0  0  0  0  0  0  0  0
   55.9587   32.9996   44.8747 H   0  0  0  0  0  0  0  0  0  0  0  0
   57.2371   27.5955   45.3890 H   0  0  0  0  0  0  0  0  0  0  0  0
   56.5778   28.3368   43.8915 H   0  0  0  0  0  0  0  0  0  0  0  0
   58.2286   27.6286   43.8915 H   0  0  0  0  0  0  0  0  0  0  0  0
   62.3424   34.7703   50.7517 H   0  0  0  0  0  0  0  0  0  0  0  0
   63.2039   34.4426   49.2098 H   0  0  0  0  0  0  0  0  0  0  0  0
   61.7113   35.4420   49.2098 H   0  0  0  0  0  0  0  0  0  0  0  0
  1  2  1  0
  2  3  1  0
  3  4  1  0
  4  5  1  0
  5  6  1  0
  6  7  2  0
  6  8  1  0
  8  9  1  0
  9 10  1  0
 10 11  2  0
 11 12  1  0
 12 13  2  0
 13 14  1  0
 14 15  2  0
 15 16  1  0
 16 17  2  0
 17 18  1  0
 18 19  2  0
 18 20  1  0
 20 21  1  0
  4 22  2  0
 22 23  1  0
 23 24  3  0
 22 25  1  0
 25 26  1  0
 25  2  2  0
 20 10  1  0
 17 12  1  0
  1 27  1  0
  1 28  1  0
  1 29  1  0
  5 30  1  0
  8 31  1  0
  8 32  1  0
 13 33  1  0
 14 34  1  0
 15 35  1  0
 16 36  1  0
 21 37  1  0
 21 38  1  0
 21 39  1  0
 26 40  1  0
 26 41  1  0
 26 42  1  0
M  END
>  <UniqueID>  (6) 
5

>  <SMILES>  (6) 
Cc1sc(NC(=O)CSc2nc3ccccc3c(=O)n2C)c(C#N)c1C

>  <Energy>  (6) 
74.14141555244478

>  <Genealogy>  (6) 
Cc1sc(NC(=O)CSc2nc3ccccc3c(=O)n2C)c(C#N)c1C (3D coordinates assigned)
Cc1sc(NC(=O)CSc2nc3ccccc3c(=O)n2C)c(C#N)c1C (optimized conformer: 74.14141555244478 kcal/mol)

>  <smiles>  (6) 
Cc1sc(NC(=O)CSc2nc3ccccc3c(=O)n2C)c(C#N)c1C

>  <score_type>  (6) 
oracle

>  <origin>  (6) 
adg

>  <m_score__min__energy>  (6) 
-8.5299999999999994

>  <m_primary>  (6) 
energy

$$$$
6:0
     RDKit          3D

 31 31  0  0  0  0  0  0  0  0999 V2000
   58.0550   29.8840   43.0920 H   0  0  0  0  0  0  0  0  0  0  0  0
   58.1860   29.0800   43.7450 N   0  0  0  0  0  0  0  0  0  0  0  0
   57.4240   28.8560   44.7700 C   0  0  0  0  0  0  0  0  0  0  0  0
   57.4790   27.5710   45.5120 C   0  0  0  0  0  0  0  0  0  0  0  0
   56.3180   27.0200   45.9650 N   0  0  0  0  0  0  0  0  0  0  0  0
   56.2930   25.8480   46.6560 C   0  0  0  0  0  0  0  0  0  0  0  0
   55.3341   25.4341   47.0012 H   0  0  0  0  0  0  0  0  0  0  0  0
   57.4820   25.1710   46.9270 C   0  0  0  0  0  0  0  0  0  0  0  0
   57.4673   24.2200   47.4796 H   0  0  0  0  0  0  0  0  0  0  0  0
   58.6900   25.7140   46.4890 C   0  0  0  0  0  0  0  0  0  0  0  0
   59.6361   25.1945   46.7010 H   0  0  0  0  0  0  0  0  0  0  0  0
   58.6970   26.9180   45.7810 C   0  0  0  0  0  0  0  0  0  0  0  0
   59.6468   27.3527   45.4362 H   0  0  0  0  0  0  0  0  0  0  0  0
   56.4820   29.8600   45.1670 N   0  0  0  0  0  0  0  0  0  0  0  0
   55.8770   29.7010   46.0030 H   0  0  0  0  0  0  0  0  0  0  0  0
   56.3830   31.0350   44.4480 O   0  0  0  0  0  0  0  0  0  0  0  0
   57.3960   31.9980   44.4500 C   0  0  0  0  0  0  0  0  0  0  0  0
   58.3850   31.8920   43.6750 O   0  0  0  0  0  0  0  0  0  0  0  0
   57.2960   33.1700   45.3760 C   0  0  0  0  0  0  0  0  0  0  0  0
   56.2402   33.4688   45.4541 H   0  0  0  0  0  0  0  0  0  0  0  0
   57.7023   32.8614   46.3505 H   0  0  0  0  0  0  0  0  0  0  0  0
   58.1160   34.3780   44.8890 C   0  0  0  0  0  0  0  0  0  0  0  0
   58.2870   34.2672   43.8080 H   0  0  0  0  0  0  0  0  0  0  0  0
   57.5341   35.2785   45.1347 H   0  0  0  0  0  0  0  0  0  0  0  0
   59.4820   34.5260   45.5830 C   0  0  0  0  0  0  0  0  0  0  0  0
   59.9985   33.5554   45.5485 H   0  0  0  0  0  0  0  0  0  0  0  0
   60.0376   35.3095   45.0468 H   0  0  0  0  0  0  0  0  0  0  0  0
   59.3720   34.9660   47.0430 C   0  0  0  0  0  0  0  0  0  0  0  0
   59.5858   34.1107   47.7008 H   0  0  0  0  0  0  0  0  0  0  0  0
   60.0968   35.7698   47.2393 H   0  0  0  0  0  0  0  0  0  0  0  0
   58.3542   35.3341   47.2393 H   0  0  0  0  0  0  0  0  0  0  0  0
  1  2  1  0
  2  3  2  0
  3  4  1  0
  4  5  2  0
  5  6  1  0
  6  7  1  0
  6  8  2  0
  8  9  1  0
  8 10  1  0
 10 11  1  0
 10 12  2  0
 12 13  1  0
  3 14  1  0
 14 15  1  0
 14 16  1  0
 16 17  1  0
 17 18  2  0
 17 19  1  0
 19 20  1  0
 19 21  1  0
 19 22  1  0
 22 23  1  0
 22 24  1  0
 22 25  1  0
 25 26  1  0
 25 27  1  0
 25 28  1  0
 28 29  1  0
 28 30  1  0
 28 31  1  0
 12  4  1  0
M  END
>  <UniqueID>  (7) 
6

>  <SMILES>  (7) 
[H]/N=C(/NOC(=O)CCCC)c1ccccn1

>  <Energy>  (7) 
24.431134180853903

>  <Genealogy>  (7) 
[H]/N=C(/NOC(=O)CCCC)c1ccccn1 (cis-trans isomerization)
[H]/N=C(/NOC(=O)CCCC)c1ccccn1 (3D coordinates assigned)
[H]/N=C(/NOC(=O)CCCC)c1ccccn1 (optimized conformer: 24.431134180853903 kcal/mol)

>  <smiles>  (7) 
CCCCC(=O)ONC(=N)c1ccccn1

>  <score_type>  (7) 
oracle

>  <origin>  (7) 
adg

>  <m_score__min__energy>  (7) 
-6.1799999999999997

>  <m_primary>  (7) 
energy

$$$$
7:0
     RDKit          3D

 47 49  0  0  0  0  0  0  0  0999 V2000
   59.1010   27.8630   44.3530 C   0  0  0  0  0  0  0  0  0  0  0  0
   57.8010   28.0700   43.5820 C   0  0  0  0  0  0  0  0  0  0  0  0
   56.8020   28.7800   44.4120 N   0  0  0  0  0  0  0  0  0  0  0  0
   55.9270   29.7320   43.6870 C   0  0  0  0  0  0  0  0  0  0  0  0
   56.6310   30.4970   42.5630 C   0  0  0  0  0  0  0  0  0  0  0  0
   57.2610   29.2380   45.7480 C   0  0  0  0  0  0  0  0  0  0  0  0
   57.7710   30.6670   45.7720 C   0  0  0  0  0  0  0  0  0  0  0  0
   57.0440   31.7060   45.2800 N   0  0  0  0  0  0  0  0  0  0  0  0
   57.8860   32.7430   45.3970 C   0  0  0  0  0  0  0  0  0  0  0  0
   57.6620   34.0110   44.9730 N   0  0  0  0  0  0  0  0  0  0  0  0
   58.6580   34.9380   45.1030 C   0  0  0  0  0  0  0  0  0  0  0  0
   59.9130   34.5730   45.6470 C   0  0  0  0  0  0  0  0  0  0  0  0
   60.1310   33.2490   46.0720 C   0  0  0  0  0  0  0  0  0  0  0  0
   59.0730   32.3520   45.9330 C   0  0  0  0  0  0  0  0  0  0  0  0
   59.0130   31.0370   46.2040 N   0  0  0  0  0  0  0  0  0  0  0  0
   60.1040   30.1810   46.6840 C   0  0  0  0  0  0  0  0  0  0  0  0
   59.9860   29.9920   48.1610 C   0  0  0  0  0  0  0  0  0  0  0  0
   59.1950   29.1260   48.6210 O   0  0  0  0  0  0  0  0  0  0  0  0
   60.8440   30.7450   49.0290 N   0  0  0  0  0  0  0  0  0  0  0  0
   61.7090   31.8280   48.6610 C   0  0  0  0  0  0  0  0  0  0  0  0
   62.9040   31.6130   47.9490 C   0  0  0  0  0  0  0  0  0  0  0  0
   63.7320   32.6910   47.6240 C   0  0  0  0  0  0  0  0  0  0  0  0
   63.3880   33.9860   48.0190 C   0  0  0  0  0  0  0  0  0  0  0  0
   62.2150   34.2060   48.7430 C   0  0  0  0  0  0  0  0  0  0  0  0
   61.3770   33.1330   49.0710 C   0  0  0  0  0  0  0  0  0  0  0  0
   59.8980   33.4430   49.9720 Cl  0  0  0  0  0  0  0  0  0  0  0  0
   58.8958   27.8957   45.4332 H   0  0  0  0  0  0  0  0  0  0  0  0
   59.5310   26.8851   44.0909 H   0  0  0  0  0  0  0  0  0  0  0  0
   59.8135   28.6590   44.0909 H   0  0  0  0  0  0  0  0  0  0  0  0
   58.0080   28.6647   42.6801 H   0  0  0  0  0  0  0  0  0  0  0  0
   57.3943   27.0854   43.3080 H   0  0  0  0  0  0  0  0  0  0  0  0
   55.0904   29.1676   43.2493 H   0  0  0  0  0  0  0  0  0  0  0  0
   55.5962   30.4811   44.4215 H   0  0  0  0  0  0  0  0  0  0  0  0
   57.3152   31.2404   42.9980 H   0  0  0  0  0  0  0  0  0  0  0  0
   57.2027   29.7919   41.9417 H   0  0  0  0  0  0  0  0  0  0  0  0
   55.8809   31.0083   41.9417 H   0  0  0  0  0  0  0  0  0  0  0  0
   56.4164   29.1609   46.4485 H   0  0  0  0  0  0  0  0  0  0  0  0
   58.1074   28.5945   46.0302 H   0  0  0  0  0  0  0  0  0  0  0  0
   58.4831   35.9756   44.7825 H   0  0  0  0  0  0  0  0  0  0  0  0
   60.7145   35.3210   45.7372 H   0  0  0  0  0  0  0  0  0  0  0  0
   61.0962   32.9351   46.4962 H   0  0  0  0  0  0  0  0  0  0  0  0
   60.0471   29.2024   46.1849 H   0  0  0  0  0  0  0  0  0  0  0  0
   61.0681   30.6583   46.4547 H   0  0  0  0  0  0  0  0  0  0  0  0
   63.1870   30.5937   47.6475 H   0  0  0  0  0  0  0  0  0  0  0  0
   64.6577   32.5191   47.0552 H   0  0  0  0  0  0  0  0  0  0  0  0
   64.0413   34.8321   47.7596 H   0  0  0  0  0  0  0  0  0  0  0  0
   61.9479   35.2258   49.0570 H   0  0  0  0  0  0  0  0  0  0  0  0
  1  2  1  0
  2  3  1  0
  3  4  1  0
  4  5  1  0
  3  6  1  0
  6  7  1  0
  7  8  2  0
  8  9  1  0
  9 10  2  0
 10 11  1  0
 11 12  2  0
 12 13  1  0
 13 14  2  0
 14 15  1  0
 15 16  1  0
 16 17  1  0
 17 18  2  0
 17 19  1  0
 19 20  1  0
 20 21  2  0
 21 22  1  0
 22 23  2  0
 23 24  1  0
 24 25  2  0
 25 26  1  0
 15  7  1  0
 25 20  1  0
 14  9  1  0
  1 27  1  0
  1 28  1  0
  1 29  1  0
  2 30  1  0
  2 31  1  0
  4 32  1  0
  4 33  1  0
  5 34  1  0
  5 35  1  0
  5 36  1  0
  6 37  1  0
  6 38  1  0
 11 39  1  0
 12 40  1  0
 13 41  1  0
 16 42  1  0
 16 43  1  0
 21 44  1  0
 22 45  1  0
 23 46  1  0
 24 47  1  0
M  CHG  1  19  -1
M  END
>  <UniqueID>  (8) 
7

>  <SMILES>  (8) 
CCN(CC)Cc1nc2ncccc2n1CC(=O)[N-]c1ccccc1Cl

>  <Energy>  (8) 
95.9464257601793

>  <Genealogy>  (8) 
CCN(CC)Cc1nc2ncccc2n1CC(=O)[N-]c1ccccc1Cl (protonated)
CCN(CC)Cc1nc2ncccc2n1CC(=O)[N-]c1ccccc1Cl (3D coordinates assigned)
CCN(CC)Cc1nc2ncccc2n1CC(=O)[N-]c1ccccc1Cl (optimized conformer: 95.9464257601793 kcal/mol)

>  <smiles>  (8) 
CCN(CC)Cc1nc2ncccc2n1CC(=O)Nc1ccccc1Cl

>  <score_type>  (8) 
oracle

>  <origin>  (8) 
adg

>  <m_score__min__energy>  (8) 
-9.3100000000000005

>  <m_primary>  (8) 
energy

$$$$
8:0
     RDKit          3D

 28 29  0  0  0  0  0  0  0  0999 V2000
   58.8560   34.6260   45.4290 C   0  0  0  0  0  0  0  0  0  0  0  0
   58.4420   33.2150   45.1810 C   0  0  0  0  0  0  0  0  0  0  0  0
   58.6730   32.1470   46.0270 C   0  0  0  0  0  0  0  0  0  0  0  0
   58.0980   31.0720   45.4680 N   0  0  0  0  0  0  0  0  0  0  0  0
   57.5270   31.5010   44.3320 C   0  0  0  0  0  0  0  0  0  0  0  0
   57.7170   32.8190   44.1100 N   0  0  0  0  0  0  0  0  0  0  0  0
   56.8400   30.5600   43.3880 C   0  0  0  0  0  0  0  0  0  0  0  0
   56.2840   29.3520   44.1660 C   0  0  0  0  0  0  0  0  0  0  0  0
   57.2950   28.7840   45.0780 N   0  0  0  0  0  0  0  0  0  0  0  0
   57.5910   27.3450   45.0260 C   0  0  0  0  0  0  0  0  0  0  0  0
   56.8720   26.5860   46.1520 C   0  0  0  0  0  0  0  0  0  0  0  0
   55.4180   26.6260   46.0070 N   0  0  0  0  0  0  0  0  0  0  0  0
   58.0540   29.7060   45.8920 C   0  0  0  0  0  0  0  0  0  0  0  0
   58.8470   29.2250   47.2480 S   0  0  0  0  0  0  0  0  0  0  0  0
   58.9092   34.8074   46.5126 H   0  0  0  0  0  0  0  0  0  0  0  0
   59.8439   34.8028   44.9787 H   0  0  0  0  0  0  0  0  0  0  0  0
   58.1203   35.3085   44.9787 H   0  0  0  0  0  0  0  0  0  0  0  0
   59.2241   32.1735   46.9786 H   0  0  0  0  0  0  0  0  0  0  0  0
   56.0124   31.0843   42.8879 H   0  0  0  0  0  0  0  0  0  0  0  0
   57.5629   30.2068   42.6379 H   0  0  0  0  0  0  0  0  0  0  0  0
   55.4134   29.6763   44.7550 H   0  0  0  0  0  0  0  0  0  0  0  0
   55.9991   28.5759   43.4404 H   0  0  0  0  0  0  0  0  0  0  0  0
   57.2593   26.9458   44.0562 H   0  0  0  0  0  0  0  0  0  0  0  0
   58.6752   27.2088   45.1527 H   0  0  0  0  0  0  0  0  0  0  0  0
   57.2003   25.5363   46.1369 H   0  0  0  0  0  0  0  0  0  0  0  0
   57.1290   27.0734   47.1041 H   0  0  0  0  0  0  0  0  0  0  0  0
   55.1510   27.4640   45.4400 H   0  0  0  0  0  0  0  0  0  0  0  0
   54.9820   26.7220   46.9530 H   0  0  0  0  0  0  0  0  0  0  0  0
  1  2  1  0
  2  3  2  0
  3  4  1  0
  4  5  1  0
  5  6  2  0
  5  7  1  0
  7  8  1  0
  8  9  1  0
  9 10  1  0
 10 11  1  0
 11 12  1  0
  9 13  1  0
 13 14  2  0
  6  2  1  0
 13  4  1  0
  1 15  1  0
  1 16  1  0
  1 17  1  0
  3 18  1  0
  7 19  1  0
  7 20  1  0
  8 21  1  0
  8 22  1  0
 10 23  1  0
 10 24  1  0
 11 25  1  0
 11 26  1  0
 12 27  1  0
 12 28  1  0
M  END
>  <UniqueID>  (9) 
8

>  <SMILES>  (9) 
Cc1cn2c(n1)CCN(CCN)C2=S

>  <Energy>  (9) 
55.30102610315218

>  <Genealogy>  (9) 
Cc1cn2c(n1)CCN(CCN)C2=S (3D coordinates assigned)
Cc1cn2c(n1)CCN(CCN)C2=S (nonaromatic ring conformer: 55.30102610315218 kcal/mol)

>  <smiles>  (9) 
Cc1cn2c(n1)CCN(CCN)C2=S

>  <score_type>  (9) 
oracle

>  <origin>  (9) 
adg

>  <m_score__min__energy>  (9) 
-6.1399999999999997

>  <m_primary>  (9) 
energy

$$$$
9:0
     RDKit          3D

 35 36  0  0  0  0  0  0  0  0999 V2000
   60.9700   34.2250   48.6950 C   0  0  0  0  0  0  0  0  0  0  0  0
   60.2240   34.7810   47.6180 O   0  0  0  0  0  0  0  0  0  0  0  0
   59.3420   34.0510   46.8070 C   0  0  0  0  0  0  0  0  0  0  0  0
   58.7810   34.5830   45.6310 C   0  0  0  0  0  0  0  0  0  0  0  0
   57.9070   33.8140   44.8550 C   0  0  0  0  0  0  0  0  0  0  0  0
   57.5780   32.5010   45.2450 C   0  0  0  0  0  0  0  0  0  0  0  0
   56.7030   31.6880   44.5050 O   0  0  0  0  0  0  0  0  0  0  0  0
   57.0750   30.4880   43.8250 C   0  0  0  0  0  0  0  0  0  0  0  0
   56.7180   29.2720   44.6370 C   0  0  0  0  0  0  0  0  0  0  0  0
   55.5030   29.0340   44.8780 O   0  0  0  0  0  0  0  0  0  0  0  0
   57.7360   28.3940   45.1560 N   0  0  0  0  0  0  0  0  0  0  0  0
   57.3650   27.0410   45.5810 C   0  0  0  0  0  0  0  0  0  0  0  0
   58.5830   26.1160   45.5030 C   0  0  0  0  0  0  0  0  0  0  0  0
   59.6820   26.6700   46.2010 O   0  0  0  0  0  0  0  0  0  0  0  0
   60.0990   27.8610   45.5630 C   0  0  0  0  0  0  0  0  0  0  0  0
   59.0100   28.9340   45.6470 C   0  0  0  0  0  0  0  0  0  0  0  0
   58.1390   31.9770   46.4140 C   0  0  0  0  0  0  0  0  0  0  0  0
   59.0130   32.7450   47.1900 C   0  0  0  0  0  0  0  0  0  0  0  0
   60.5329   34.5507   49.6504 H   0  0  0  0  0  0  0  0  0  0  0  0
   60.9401   33.1271   48.6335 H   0  0  0  0  0  0  0  0  0  0  0  0
   62.0135   34.5674   48.6335 H   0  0  0  0  0  0  0  0  0  0  0  0
   59.0309   35.6083   45.3205 H   0  0  0  0  0  0  0  0  0  0  0  0
   57.4747   34.2367   43.9360 H   0  0  0  0  0  0  0  0  0  0  0  0
   56.5478   30.4434   42.8606 H   0  0  0  0  0  0  0  0  0  0  0  0
   58.1640   30.4974   43.6703 H   0  0  0  0  0  0  0  0  0  0  0  0
   56.9971   27.0725   46.6172 H   0  0  0  0  0  0  0  0  0  0  0  0
   56.5764   26.6571   44.9171 H   0  0  0  0  0  0  0  0  0  0  0  0
   58.3262   25.1437   45.9487 H   0  0  0  0  0  0  0  0  0  0  0  0
   58.8635   25.9918   44.4466 H   0  0  0  0  0  0  0  0  0  0  0  0
   61.0102   28.2330   46.0542 H   0  0  0  0  0  0  0  0  0  0  0  0
   60.2968   27.6422   44.5033 H   0  0  0  0  0  0  0  0  0  0  0  0
   58.8919   29.2524   46.6933 H   0  0  0  0  0  0  0  0  0  0  0  0
   59.3013   29.7943   45.0265 H   0  0  0  0  0  0  0  0  0  0  0  0
   57.8906   30.9518   46.7259 H   0  0  0  0  0  0  0  0  0  0  0  0
   59.4451   32.3200   48.1079 H   0  0  0  0  0  0  0  0  0  0  0  0
  1  2  1  0
  2  3  1  0
  3  4  2  0
  4  5  1  0
  5  6  2  0
  6  7  1  0
  7  8  1  0
  8  9  1  0
  9 10  2  0
  9 11  1  0
 11 12  1  0
 12 13  1  0
 13 14  1  0
 14 15  1  0
 15 16  1  0
  6 17  1  0
 17 18  2  0
 18  3  1  0
 16 11  1  0
  1 19  1  0
  1 20  1  0
  1 21  1  0
  4 22  1  0
  5 23  1  0
  8 24  1  0
  8 25  1  0
 12 26  1  0
 12 27  1  0
 13 28  1  0
 13 29  1  0
 15 30  1  0
 15 31  1  0
 16 32  1  0
 16 33  1  0
 17 34  1  0
 18 35  1  0
M  END
>  <UniqueID>  (10) 
9

>  <SMILES>  (10) 
COc1ccc(OCC(=O)N2CCOCC2)cc1

>  <Energy>  (10) 
35.755842202883066

>  <Genealogy>  (10) 
COc1ccc(OCC(=O)N2CCOCC2)cc1 (3D coordinates assigned)
COc1ccc(OCC(=O)N2CCOCC2)cc1 (nonaromatic ring conformer: 35.755842202883066 kcal/mol)

>  <smiles>  (10) 
COc1ccc(OCC(=O)N2CCOCC2)cc1

>  <score_type>  (10) 
oracle

>  <origin>  (10) 
adg

>  <m_score__min__energy>  (10) 
-5.9299999999999997

>  <m_primary>  (10) 
energy

$$$$
10:0
     RDKit          3D

 49 51  0  0  0  0  0  0  0  0999 V2000
   59.5640   34.9450   48.2020 O   0  0  0  0  0  0  0  0  0  0  0  0
   60.1450   34.0300   47.5570 C   0  0  0  0  0  0  0  0  0  0  0  0
   59.3450   33.1140   46.7100 C   0  0  0  0  0  0  0  0  0  0  0  0
   58.1220   33.5400   46.1650 C   0  0  0  0  0  0  0  0  0  0  0  0
   57.3580   32.6750   45.3770 C   0  0  0  0  0  0  0  0  0  0  0  0
   57.8010   31.3700   45.1280 C   0  0  0  0  0  0  0  0  0  0  0  0
   56.8150   30.2860   44.1470 S   0  0  0  0  0  0  0  0  0  0  0  0
   55.3690   30.5940   44.4180 O   0  0  0  0  0  0  0  0  0  0  0  0
   57.0870   30.5260   42.6870 O   0  0  0  0  0  0  0  0  0  0  0  0
   57.1600   28.6190   44.5590 N   0  0  0  0  0  0  0  0  0  0  0  0
   58.2570   28.1250   43.6980 C   0  0  0  0  0  0  0  0  0  0  0  0
   58.0870   26.6560   43.2650 C   0  0  0  0  0  0  0  0  0  0  0  0
   58.1130   25.6080   44.4000 C   0  0  0  0  0  0  0  0  0  0  0  0
   58.5810   26.1440   45.7590 C   0  0  0  0  0  0  0  0  0  0  0  0
   57.5460   27.0150   46.5190 C   0  0  0  0  0  0  0  0  0  0  0  0
   57.3800   28.4700   46.0220 C   0  0  0  0  0  0  0  0  0  0  0  0
   59.0110   30.9340   45.6820 C   0  0  0  0  0  0  0  0  0  0  0  0
   59.7760   31.7970   46.4710 C   0  0  0  0  0  0  0  0  0  0  0  0
   61.5690   33.8760   47.6840 N   0  0  0  0  0  0  0  0  0  0  0  0
   62.1900   34.0570   49.0000 C   0  0  0  0  0  0  0  0  0  0  0  0
   63.6830   33.7290   48.9320 C   0  0  0  0  0  0  0  0  0  0  0  0
   63.8780   32.6120   48.0910 O   0  0  0  0  0  0  0  0  0  0  0  0
   63.6890   32.9810   46.7340 C   0  0  0  0  0  0  0  0  0  0  0  0
   62.4170   33.8280   46.4860 C   0  0  0  0  0  0  0  0  0  0  0  0
   57.7634   34.5615   46.3600 H   0  0  0  0  0  0  0  0  0  0  0  0
   56.4047   33.0206   44.9505 H   0  0  0  0  0  0  0  0  0  0  0  0
   56.2980   28.0780   44.3120 H   0  0  0  0  0  0  0  0  0  0  0  0
   58.2991   28.7513   42.7947 H   0  0  0  0  0  0  0  0  0  0  0  0
   59.1825   28.1820   44.2898 H   0  0  0  0  0  0  0  0  0  0  0  0
   57.1205   26.5674   42.7472 H   0  0  0  0  0  0  0  0  0  0  0  0
   58.9586   26.4304   42.6330 H   0  0  0  0  0  0  0  0  0  0  0  0
   57.0949   25.2095   44.5214 H   0  0  0  0  0  0  0  0  0  0  0  0
   58.8449   24.8438   44.0995 H   0  0  0  0  0  0  0  0  0  0  0  0
   58.8336   25.2831   46.3954 H   0  0  0  0  0  0  0  0  0  0  0  0
   59.4370   26.8020   45.5486 H   0  0  0  0  0  0  0  0  0  0  0  0
   56.5672   26.5195   46.4387 H   0  0  0  0  0  0  0  0  0  0  0  0
   57.9296   27.0975   47.5466 H   0  0  0  0  0  0  0  0  0  0  0  0
   56.5169   28.9108   46.5424 H   0  0  0  0  0  0  0  0  0  0  0  0
   58.3314   28.9772   46.2404 H   0  0  0  0  0  0  0  0  0  0  0  0
   59.3607   29.9079   45.4953 H   0  0  0  0  0  0  0  0  0  0  0  0
   60.7216   31.4438   46.9081 H   0  0  0  0  0  0  0  0  0  0  0  0
   62.0621   35.1013   49.3211 H   0  0  0  0  0  0  0  0  0  0  0  0
   61.7072   33.3797   49.7198 H   0  0  0  0  0  0  0  0  0  0  0  0
   64.2309   34.5931   48.5280 H   0  0  0  0  0  0  0  0  0  0  0  0
   64.0560   33.4998   49.9411 H   0  0  0  0  0  0  0  0  0  0  0  0
   64.5628   33.5648   46.4088 H   0  0  0  0  0  0  0  0  0  0  0  0
   63.5682   32.0485   46.1632 H   0  0  0  0  0  0  0  0  0  0  0  0
   62.7148   34.8519   46.2159 H   0  0  0  0  0  0  0  0  0  0  0  0
   61.8426   33.3634   45.6710 H   0  0  0  0  0  0  0  0  0  0  0  0
  1  2  2  0
  2  3  1  0
  3  4  2  0
  4  5  1  0
  5  6  2  0
  6  7  1  0
  7  8  2  0
  7  9  2  0
  7 10  1  0
 10 11  1  0
 11 12  1  0
 12 13  1  0
 13 14  1  0
 14 15  1  0
 15 16  1  0
  6 17  1  0
 17 18  2  0
  2 19  1  0
 19 20  1  0
 20 21  1  0
 21 22  1  0
 22 23  1  0
 23 24  1  0
 18  3  1  0
 24 19  1  0
 16 10  1  0
  4 25  1  0
  5 26  1  0
 10 27  1  0
 11 28  1  0
 11 29  1  0
 12 30  1  0
 12 31  1  0
 13 32  1  0
 13 33  1  0
 14 34  1  0
 14 35  1  0
 15 36  1  0
 15 37  1  0
 16 38  1  0
 16 39  1  0
 17 40  1  0
 18 41  1  0
 20 42  1  0
 20 43  1  0
 21 44  1  0
 21 45  1  0
 23 46  1  0
 23 47  1  0
 24 48  1  0
 24 49  1  0
M  CHG  1  10   1
M  END
>  <UniqueID>  (11) 
10

>  <SMILES>  (11) 
O=C(c1ccc(S(=O)(=O)[NH+]2CCCCCC2)cc1)N1CCOCC1

>  <Energy>  (11) 
72.22364394909218

>  <Genealogy>  (11) 
O=C(c1ccc(S(=O)(=O)[NH+]2CCCCCC2)cc1)N1CCOCC1 (protonated)
O=C(c1ccc(S(=O)(=O)[NH+]2CCCCCC2)cc1)N1CCOCC1 (3D coordinates assigned)
O=C(c1ccc(S(=O)(=O)[NH+]2CCCCCC2)cc1)N1CCOCC1 (nonaromatic ring conformer: 72.22364394909218 kcal/mol)

>  <smiles>  (11) 
O=C(c1ccc(S(=O)(=O)N2CCCCCC2)cc1)N1CCOCC1

>  <score_type>  (11) 
oracle

>  <origin>  (11) 
adg

>  <m_score__min__energy>  (11) 
-5.25

>  <m_primary>  (11) 
energy

$$$$
11:0
     RDKit          3D

 34 35  0  0  1  0  0  0  0  0999 V2000
   56.2140   22.4670   47.9810 C   0  0  0  0  0  0  0  0  0  0  0  0
   56.1470   23.5380   47.4440 C   0  0  0  0  0  0  0  0  0  0  0  0
   56.0700   24.7870   46.7920 C   0  0  0  0  0  0  0  0  0  0  0  0
   55.3550   25.4670   46.1260 N   0  0  0  0  0  0  0  0  0  0  0  0
   55.5330   26.6430   45.6300 N   0  0  0  0  0  0  0  0  0  0  0  0
   56.6790   27.2270   45.8760 C   0  0  0  0  0  0  0  0  0  0  0  0
   57.2080   28.3770   45.5550 N   0  0  0  0  0  0  0  0  0  0  0  0
   56.4830   29.2610   44.6890 C   0  0  0  0  0  0  0  0  0  0  0  0
   55.2430   29.2950   44.8460 O   0  0  0  0  0  0  0  0  0  0  0  0
   57.2500   30.0320   43.7110 C   0  0  0  0  0  0  0  0  0  0  0  0
   57.9720   31.1440   44.1930 N   0  0  0  0  0  0  0  0  0  0  0  0
   57.7640   32.3810   43.3850 C   0  0  0  0  0  0  0  0  0  0  0  0
   58.3080   33.5950   44.1170 C   0  0  0  0  0  0  0  0  0  0  0  0
   57.8510   34.0500   45.3990 C   0  0  0  0  0  0  0  0  0  0  0  0
   58.4030   33.4770   46.7180 C   0  0  0  0  0  0  0  0  0  0  0  0
   58.1050   31.9420   46.7930 C   0  0  0  0  0  0  0  0  0  0  0  0
   58.0120   31.5290   45.4670 C   0  0  0  0  0  0  0  0  0  0  0  0
   57.5860   25.9780   46.9110 S   0  0  0  0  0  0  0  0  0  0  0  0
   56.2754   21.4852   48.4733 H   0  0  0  0  0  0  0  0  0  0  0  0
   54.7770   27.1310   45.0390 H   0  0  0  0  0  0  0  0  0  0  0  0
   57.9711   29.3471   43.2410 H   0  0  0  0  0  0  0  0  0  0  0  0
   56.4978   30.4550   43.0289 H   0  0  0  0  0  0  0  0  0  0  0  0
   58.2853   32.2758   42.4221 H   0  0  0  0  0  0  0  0  0  0  0  0
   56.6853   32.5200   43.2204 H   0  0  0  0  0  0  0  0  0  0  0  0
   59.3852   33.4077   44.2378 H   0  0  0  0  0  0  0  0  0  0  0  0
   57.9334   34.4032   43.4717 H   0  0  0  0  0  0  0  0  0  0  0  0
   58.0472   35.1320   45.4285 H   0  0  0  0  0  0  0  0  0  0  0  0
   56.8110   33.6918   45.4115 H   0  0  0  0  0  0  0  0  0  0  0  0
   59.4899   33.6409   46.7612 H   0  0  0  0  0  0  0  0  0  0  0  0
   57.9187   33.9836   47.5658 H   0  0  0  0  0  0  0  0  0  0  0  0
   58.9222   31.4139   47.3062 H   0  0  0  0  0  0  0  0  0  0  0  0
   57.1868   31.7260   47.3589 H   0  0  0  0  0  0  0  0  0  0  0  0
   57.5946   30.5622   45.7848 H   0  0  0  0  0  0  0  0  0  0  0  0
   57.7660   32.5574   45.1639 H   0  0  0  0  0  0  0  0  0  0  0  0
  1  2  3  0
  2  3  1  0
  3  4  2  0
  4  5  1  0
  5  6  1  0
  6  7  2  0
  7  8  1  0
  8  9  2  0
  8 10  1  0
 10 11  1  0
 11 12  1  0
 12 13  1  0
 13 14  1  0
 14 15  1  0
 15 16  1  0
 16 17  1  0
  6 18  1  0
 18  3  1  0
 17 11  1  0
  1 19  1  0
  5 20  1  0
 10 21  1  0
 10 22  1  0
 12 23  1  0
 12 24  1  0
 13 25  1  0
 13 26  1  0
 14 27  1  0
 14 28  1  0
 15 29  1  0
 15 30  1  0
 16 31  1  0
 16 32  1  0
 17 33  1  0
 17 34  1  0
M  END
>  <smiles>  (12) 
C#Cc1n[nH]c(=NC(=O)CN2CCCCCC2)s1

>  <score_type>  (12) 
oracle

>  <origin>  (12) 
adg

>  <m_score__min__energy>  (12) 
-5.2199999999999998

>  <m_primary>  (12) 
energy

$$$$
12:0
     RDKit          3D

 46 47  0  0  0  0  0  0  0  0999 V2000
   58.4040   28.8150   46.5950 C   0  0  0  0  0  0  0  0  0  0  0  0
   57.7030   28.5080   45.2730 C   0  0  0  0  0  0  0  0  0  0  0  0
   58.1710   29.4200   44.1270 C   0  0  0  0  0  0  0  0  0  0  0  0
   57.1480   30.8760   43.9340 S   0  0  0  0  0  0  0  0  0  0  0  0
   56.9970   31.1860   42.4690 O   0  0  0  0  0  0  0  0  0  0  0  0
   55.7900   30.5580   44.4960 O   0  0  0  0  0  0  0  0  0  0  0  0
   57.8710   32.2240   44.7880 N   0  0  0  0  0  0  0  0  0  0  0  0
   58.5230   33.1530   43.8520 C   0  0  0  0  0  0  0  0  0  0  0  0
   59.3630   34.1990   44.6130 C   0  0  0  0  0  0  0  0  0  0  0  0
   58.9790   34.3190   46.1060 C   0  0  0  0  0  0  0  0  0  0  0  0
   59.7550   33.3300   46.9500 C   0  0  0  0  0  0  0  0  0  0  0  0
   60.0230   33.5860   48.1570 O   0  0  0  0  0  0  0  0  0  0  0  0
   60.1550   32.0750   46.3810 N   0  0  0  0  0  0  0  0  0  0  0  0
   60.8080   31.0300   47.1670 C   0  0  0  0  0  0  0  0  0  0  0  0
   61.9900   31.5950   47.9080 C   0  0  0  0  0  0  0  0  0  0  0  0
   62.2310   31.2410   49.2460 C   0  0  0  0  0  0  0  0  0  0  0  0
   63.3200   31.7870   49.9320 C   0  0  0  0  0  0  0  0  0  0  0  0
   64.1730   32.6910   49.2900 C   0  0  0  0  0  0  0  0  0  0  0  0
   65.5370   33.3760   50.1540 Cl  0  0  0  0  0  0  0  0  0  0  0  0
   63.9350   33.0500   47.9600 C   0  0  0  0  0  0  0  0  0  0  0  0
   62.8470   32.5060   47.2700 C   0  0  0  0  0  0  0  0  0  0  0  0
   57.4510   34.1920   46.2840 C   0  0  0  0  0  0  0  0  0  0  0  0
   56.8640   32.9340   45.6000 C   0  0  0  0  0  0  0  0  0  0  0  0
   57.7501   28.5286   47.4319 H   0  0  0  0  0  0  0  0  0  0  0  0
   59.3437   28.2460   46.6525 H   0  0  0  0  0  0  0  0  0  0  0  0
   58.6230   29.8914   46.6525 H   0  0  0  0  0  0  0  0  0  0  0  0
   57.9112   27.4633   44.9987 H   0  0  0  0  0  0  0  0  0  0  0  0
   56.6270   28.6838   45.4190 H   0  0  0  0  0  0  0  0  0  0  0  0
   59.2029   29.7407   44.3327 H   0  0  0  0  0  0  0  0  0  0  0  0
   58.1007   28.8410   43.1944 H   0  0  0  0  0  0  0  0  0  0  0  0
   59.1803   32.5837   43.1783 H   0  0  0  0  0  0  0  0  0  0  0  0
   57.7454   33.6767   43.2766 H   0  0  0  0  0  0  0  0  0  0  0  0
   60.4228   33.9119   44.5465 H   0  0  0  0  0  0  0  0  0  0  0  0
   59.1697   35.1761   44.1461 H   0  0  0  0  0  0  0  0  0  0  0  0
   59.2608   35.3194   46.4663 H   0  0  0  0  0  0  0  0  0  0  0  0
   59.9330   31.8780   45.3790 H   0  0  0  0  0  0  0  0  0  0  0  0
   60.0894   30.6178   47.8906 H   0  0  0  0  0  0  0  0  0  0  0  0
   61.1566   30.2373   46.4887 H   0  0  0  0  0  0  0  0  0  0  0  0
   61.5612   30.5324   49.7552 H   0  0  0  0  0  0  0  0  0  0  0  0
   63.5065   31.5052   50.9788 H   0  0  0  0  0  0  0  0  0  0  0  0
   64.6048   33.7617   47.4553 H   0  0  0  0  0  0  0  0  0  0  0  0
   62.6621   32.7927   46.2242 H   0  0  0  0  0  0  0  0  0  0  0  0
   57.2265   34.1428   47.3597 H   0  0  0  0  0  0  0  0  0  0  0  0
   56.9906   35.0701   45.8076 H   0  0  0  0  0  0  0  0  0  0  0  0
   56.4881   32.2509   46.3759 H   0  0  0  0  0  0  0  0  0  0  0  0
   56.0551   33.2590   44.9291 H   0  0  0  0  0  0  0  0  0  0  0  0
  1  2  1  0
  2  3  1  0
  3  4  1  0
  4  5  2  0
  4  6  2  0
  4  7  1  0
  7  8  1  0
  8  9  1  0
  9 10  1  0
 10 11  1  0
 11 12  2  0
 11 13  1  0
 13 14  1  0
 14 15  1  0
 15 16  2  0
 16 17  1  0
 17 18  2  0
 18 19  1  0
 18 20  1  0
 20 21  2  0
 10 22  1  0
 22 23  1  0
 23  7  1  0
 21 15  1  0
  1 24  1  0
  1 25  1  0
  1 26  1  0
  2 27  1  0
  2 28  1  0
  3 29  1  0
  3 30  1  0
  8 31  1  0
  8 32  1  0
  9 33  1  0
  9 34  1  0
 10 35  1  0
 13 36  1  0
 14 37  1  0
 14 38  1  0
 16 39  1  0
 17 40  1  0
 20 41  1  0
 21 42  1  0
 22 43  1  0
 22 44  1  0
 23 45  1  0
 23 46  1  0
M  END
>  <UniqueID>  (13) 
11

>  <SMILES>  (13) 
CCCS(=O)(=O)N1CCC(C(=O)NCc2ccc(Cl)cc2)CC1

>  <Energy>  (13) 
40.02804537974997

>  <Genealogy>  (13) 
CCCS(=O)(=O)N1CCC(C(=O)NCc2ccc(Cl)cc2)CC1 (3D coordinates assigned)
CCCS(=O)(=O)N1CCC(C(=O)NCc2ccc(Cl)cc2)CC1 (nonaromatic ring conformer: 40.02804537974997 kcal/mol)

>  <smiles>  (13) 
CCCS(=O)(=O)N1CCC(C(=O)NCc2ccc(Cl)cc2)CC1

>  <score_type>  (13) 
oracle

>  <origin>  (13) 
adg

>  <m_score__min__energy>  (13) 
-8.1600000000000001

>  <m_primary>  (13) 
energy

$$$$
13:0
     RDKit          3D

 43 44  0  0  0  0  0  0  0  0999 V2000
   56.6360   30.7120   43.2820 C   0  0  0  0  0  0  0  0  0  0  0  0
   55.4950   29.7290   43.5180 C   0  0  0  0  0  0  0  0  0  0  0  0
   55.5180   29.2370   44.8590 O   0  0  0  0  0  0  0  0  0  0  0  0
   56.6560   28.7900   45.5530 C   0  0  0  0  0  0  0  0  0  0  0  0
   57.7590   29.6280   45.8160 C   0  0  0  0  0  0  0  0  0  0  0  0
   58.8790   29.1450   46.5150 C   0  0  0  0  0  0  0  0  0  0  0  0
   60.0350   30.0310   46.7890 C   0  0  0  0  0  0  0  0  0  0  0  0
   61.0270   29.5980   47.4370 O   0  0  0  0  0  0  0  0  0  0  0  0
   60.0320   31.3820   46.3190 N   0  0  0  0  0  0  0  0  0  0  0  0
   59.1010   32.3920   46.8050 C   0  0  0  0  0  0  0  0  0  0  0  0
   59.6160   33.7970   46.4750 C   0  0  0  0  0  0  0  0  0  0  0  0
   60.5890   34.3490   47.5280 C   0  0  0  0  0  0  0  0  0  0  0  0
   61.7850   33.5160   47.6320 N   0  0  0  0  0  0  0  0  0  0  0  0
   62.0310   32.5640   48.5520 C   0  0  0  0  0  0  0  0  0  0  0  0
   63.2510   31.9900   48.2600 C   0  0  0  0  0  0  0  0  0  0  0  0
   63.7530   32.5860   47.1610 N   0  0  0  0  0  0  0  0  0  0  0  0
   62.8430   33.5080   46.7970 C   0  0  0  0  0  0  0  0  0  0  0  0
   58.8840   27.8130   46.9550 C   0  0  0  0  0  0  0  0  0  0  0  0
   57.7950   26.9780   46.7020 C   0  0  0  0  0  0  0  0  0  0  0  0
   56.6750   27.4600   46.0000 C   0  0  0  0  0  0  0  0  0  0  0  0
   55.5620   26.6490   45.7270 O   0  0  0  0  0  0  0  0  0  0  0  0
   55.6020   25.2290   45.6310 C   0  0  0  0  0  0  0  0  0  0  0  0
   57.0321   31.0532   44.2498 H   0  0  0  0  0  0  0  0  0  0  0  0
   57.4358   30.2156   42.7129 H   0  0  0  0  0  0  0  0  0  0  0  0
   56.2634   31.5765   42.7129 H   0  0  0  0  0  0  0  0  0  0  0  0
   54.5370   30.2384   43.3372 H   0  0  0  0  0  0  0  0  0  0  0  0
   55.6133   28.8798   42.8289 H   0  0  0  0  0  0  0  0  0  0  0  0
   57.7430   30.6721   45.4701 H   0  0  0  0  0  0  0  0  0  0  0  0
   58.1222   32.2430   46.3258 H   0  0  0  0  0  0  0  0  0  0  0  0
   59.0066   32.2941   47.8966 H   0  0  0  0  0  0  0  0  0  0  0  0
   60.1344   33.7603   45.5055 H   0  0  0  0  0  0  0  0  0  0  0  0
   58.7442   34.4674   46.4530 H   0  0  0  0  0  0  0  0  0  0  0  0
   60.8860   35.3688   47.2421 H   0  0  0  0  0  0  0  0  0  0  0  0
   60.0809   34.3515   48.5036 H   0  0  0  0  0  0  0  0  0  0  0  0
   61.3734   32.2914   49.3906 H   0  0  0  0  0  0  0  0  0  0  0  0
   63.7330   31.1814   48.8290 H   0  0  0  0  0  0  0  0  0  0  0  0
   64.6570   32.3700   46.6860 H   0  0  0  0  0  0  0  0  0  0  0  0
   62.9493   34.1722   45.9267 H   0  0  0  0  0  0  0  0  0  0  0  0
   59.7538   27.4234   47.5042 H   0  0  0  0  0  0  0  0  0  0  0  0
   57.8123   25.9359   47.0538 H   0  0  0  0  0  0  0  0  0  0  0  0
   55.6143   24.7934   46.6410 H   0  0  0  0  0  0  0  0  0  0  0  0
   54.7135   24.8730   45.0889 H   0  0  0  0  0  0  0  0  0  0  0  0
   56.5091   24.9236   45.0889 H   0  0  0  0  0  0  0  0  0  0  0  0
  1  2  1  0
  2  3  1  0
  3  4  1  0
  4  5  2  0
  5  6  1  0
  6  7  1  0
  7  8  2  0
  7  9  1  0
  9 10  1  0
 10 11  1  0
 11 12  1  0
 12 13  1  0
 13 14  1  0
 14 15  2  0
 15 16  1  0
 16 17  2  0
  6 18  2  0
 18 19  1  0
 19 20  2  0
 20 21  1  0
 21 22  1  0
 20  4  1  0
 17 13  1  0
  1 23  1  0
  1 24  1  0
  1 25  1  0
  2 26  1  0
  2 27  1  0
  5 28  1  0
 10 29  1  0
 10 30  1  0
 11 31  1  0
 11 32  1  0
 12 33  1  0
 12 34  1  0
 14 35  1  0
 15 36  1  0
 16 37  1  0
 17 38  1  0
 18 39  1  0
 19 40  1  0
 22 41  1  0
 22 42  1  0
 22 43  1  0
M  CHG  2   9  -1  16   1
M  END
>  <UniqueID>  (14) 
12

>  <SMILES>  (14) 
CCOc1cc(C(=O)[N-]CCCn2cc[nH+]c2)ccc1OC

>  <Energy>  (14) 
63.48756028785699

>  <Genealogy>  (14) 
CCOc1cc(C(=O)[N-]CCCn2cc[nH+]c2)ccc1OC (protonated)
CCOc1cc(C(=O)[N-]CCCn2cc[nH+]c2)ccc1OC (3D coordinates assigned)
CCOc1cc(C(=O)[N-]CCCn2cc[nH+]c2)ccc1OC (optimized conformer: 63.48756028785699 kcal/mol)

>  <smiles>  (14) 
CCOc1cc(C(=O)NCCCn2ccnc2)ccc1OC

>  <score_type>  (14) 
oracle

>  <origin>  (14) 
adg

>  <m_score__min__energy>  (14) 
-6.5499999999999998

>  <m_primary>  (14) 
energy

$$$$
14:0
     RDKit          3D

 43 45  0  0  0  0  0  0  0  0999 V2000
   61.0590   30.6800   50.6270 C   0  0  0  0  0  0  0  0  0  0  0  0
   60.5900   30.4520   49.2280 C   0  0  0  0  0  0  0  0  0  0  0  0
   59.3490   29.8450   48.9890 C   0  0  0  0  0  0  0  0  0  0  0  0
   58.8920   29.6820   47.6810 C   0  0  0  0  0  0  0  0  0  0  0  0
   59.6620   30.1310   46.5980 C   0  0  0  0  0  0  0  0  0  0  0  0
   59.1510   30.0190   45.2610 N   0  0  0  0  0  0  0  0  0  0  0  0
   59.3920   28.7790   44.4910 C   0  0  1  0  0  0  0  0  0  0  0  0
   60.2540   27.7930   45.3080 C   0  0  0  0  0  0  0  0  0  0  0  0
   58.0520   28.1770   44.0080 C   0  0  0  0  0  0  0  0  0  0  0  0
   57.6300   26.9920   44.8180 C   0  0  0  0  0  0  0  0  0  0  0  0
   57.7820   25.6580   44.4600 C   0  0  0  0  0  0  0  0  0  0  0  0
   57.3840   24.7720   45.4660 C   0  0  0  0  0  0  0  0  0  0  0  0
   56.9450   25.4030   46.6210 C   0  0  0  0  0  0  0  0  0  0  0  0
   57.0310   27.0660   46.3860 S   0  0  0  0  0  0  0  0  0  0  0  0
   58.1140   31.2970   44.6730 S   0  0  0  0  0  0  0  0  0  0  0  0
   58.2770   31.4790   43.1860 O   0  0  0  0  0  0  0  0  0  0  0  0
   56.6820   30.9600   44.9630 O   0  0  0  0  0  0  0  0  0  0  0  0
   58.5340   32.8050   45.4570 C   0  0  0  0  0  0  0  0  0  0  0  0
   59.1200   33.9050   44.8510 C   0  0  0  0  0  0  0  0  0  0  0  0
   59.2800   34.9840   45.7240 C   0  0  0  0  0  0  0  0  0  0  0  0
   58.8230   34.7340   47.0080 C   0  0  0  0  0  0  0  0  0  0  0  0
   58.2080   33.1690   47.0600 S   0  0  0  0  0  0  0  0  0  0  0  0
   60.9050   30.7340   46.8330 C   0  0  0  0  0  0  0  0  0  0  0  0
   61.3630   30.9020   48.1420 C   0  0  0  0  0  0  0  0  0  0  0  0
   60.3002   30.3111   51.3328 H   0  0  0  0  0  0  0  0  0  0  0  0
   62.0038   30.1407   50.7895 H   0  0  0  0  0  0  0  0  0  0  0  0
   61.2185   31.7562   50.7895 H   0  0  0  0  0  0  0  0  0  0  0  0
   58.7354   29.4972   49.8331 H   0  0  0  0  0  0  0  0  0  0  0  0
   57.9213   29.1981   47.4978 H   0  0  0  0  0  0  0  0  0  0  0  0
   59.9707   29.0123   43.5851 H   0  0  0  0  0  0  0  0  0  0  0  0
   60.0975   27.9720   46.3820 H   0  0  0  0  0  0  0  0  0  0  0  0
   59.9632   26.7610   45.0621 H   0  0  0  0  0  0  0  0  0  0  0  0
   61.3156   27.9433   45.0621 H   0  0  0  0  0  0  0  0  0  0  0  0
   57.2721   28.9493   44.0804 H   0  0  0  0  0  0  0  0  0  0  0  0
   58.1925   27.8393   42.9706 H   0  0  0  0  0  0  0  0  0  0  0  0
   58.1750   25.3324   43.4855 H   0  0  0  0  0  0  0  0  0  0  0  0
   57.4160   23.6783   45.3524 H   0  0  0  0  0  0  0  0  0  0  0  0
   56.5990   24.9003   47.5362 H   0  0  0  0  0  0  0  0  0  0  0  0
   59.4266   33.9263   43.7948 H   0  0  0  0  0  0  0  0  0  0  0  0
   59.7269   35.9422   45.4205 H   0  0  0  0  0  0  0  0  0  0  0  0
   58.8567   35.4398   47.8511 H   0  0  0  0  0  0  0  0  0  0  0  0
   61.5198   31.0749   45.9870 H   0  0  0  0  0  0  0  0  0  0  0  0
   62.3326   31.3884   48.3245 H   0  0  0  0  0  0  0  0  0  0  0  0
  1  2  1  0
  2  3  2  0
  3  4  1  0
  4  5  2  0
  5  6  1  0
  6  7  1  0
  7  8  1  0
  7  9  1  0
  9 10  1  0
 10 11  2  0
 11 12  1  0
 12 13  2  0
 13 14  1  0
  6 15  1  0
 15 16  2  0
 15 17  2  0
 15 18  1  0
 18 19  2  0
 19 20  1  0
 20 21  2  0
 21 22  1  0
  5 23  1  0
 23 24  2  0
 24  2  1  0
 14 10  1  0
 22 18  1  0
  1 25  1  0
  1 26  1  0
  1 27  1  0
  3 28  1  0
  4 29  1  0
  7 30  1  6
  8 31  1  0
  8 32  1  0
  8 33  1  0
  9 34  1  0
  9 35  1  0
 11 36  1  0
 12 37  1  0
 13 38  1  0
 19 39  1  0
 20 40  1  0
 21 41  1  0
 23 42  1  0
 24 43  1  0
M  END
>  <UniqueID>  (15) 
13

>  <SMILES>  (15) 
Cc1ccc(N([C@@H](C)Cc2cccs2)S(=O)(=O)c2cccs2)cc1

>  <Energy>  (15) 
100.55916764262544

>  <Genealogy>  (15) 
Cc1ccc(N([C@@H](C)Cc2cccs2)S(=O)(=O)c2cccs2)cc1 (chirality)
Cc1ccc(N([C@@H](C)Cc2cccs2)S(=O)(=O)c2cccs2)cc1 (3D coordinates assigned)
Cc1ccc(N([C@@H](C)Cc2cccs2)S(=O)(=O)c2cccs2)cc1 (optimized conformer: 100.55916764262544 kcal/mol)

>  <smiles>  (15) 
Cc1ccc(N(C(C)Cc2cccs2)S(=O)(=O)c2cccs2)cc1

>  <score_type>  (15) 
oracle

>  <origin>  (15) 
adg

>  <m_score__min__energy>  (15) 
-8.1199999999999992

>  <m_primary>  (15) 
energy

$$$$
15:0
     RDKit          3D

 40 43  0  0  0  0  0  0  0  0999 V2000
   62.6180   33.8460   45.9220 O   0  0  0  0  0  0  0  0  0  0  0  0
   62.0210   33.8540   47.0320 C   0  0  0  0  0  0  0  0  0  0  0  0
   62.6880   33.4040   48.2480 C   0  0  0  0  0  0  0  0  0  0  0  0
   63.9590   32.9950   48.3800 N   0  0  0  0  0  0  0  0  0  0  0  0
   64.0250   32.6420   49.6880 C   0  0  0  0  0  0  0  0  0  0  0  0
   65.2300   32.0970   50.3630 C   0  0  0  0  0  0  0  0  0  0  0  0
   65.1770   30.9010   51.1040 C   0  0  0  0  0  0  0  0  0  0  0  0
   66.3250   30.4050   51.7310 C   0  0  0  0  0  0  0  0  0  0  0  0
   67.5350   31.0940   51.6270 C   0  0  0  0  0  0  0  0  0  0  0  0
   67.6010   32.2800   50.8950 C   0  0  0  0  0  0  0  0  0  0  0  0
   66.4570   32.7810   50.2650 C   0  0  0  0  0  0  0  0  0  0  0  0
   62.8370   32.8230   50.3170 N   0  0  0  0  0  0  0  0  0  0  0  0
   62.0260   33.3190   49.4010 N   0  0  0  0  0  0  0  0  0  0  0  0
   60.5920   33.5570   49.5490 C   0  0  0  0  0  0  0  0  0  0  0  0
   60.1080   34.5770   48.4930 C   0  0  0  0  0  0  0  0  0  0  0  0
   60.6480   34.2810   47.1480 N   0  0  0  0  0  0  0  0  0  0  0  0
   59.8650   34.6270   45.9570 C   0  0  0  0  0  0  0  0  0  0  0  0
   59.0870   33.4310   45.4780 C   0  0  0  0  0  0  0  0  0  0  0  0
   58.5000   33.4280   44.2020 C   0  0  0  0  0  0  0  0  0  0  0  0
   57.7500   32.3280   43.7730 C   0  0  0  0  0  0  0  0  0  0  0  0
   57.5740   31.2270   44.6180 C   0  0  0  0  0  0  0  0  0  0  0  0
   56.6290   29.8500   44.0800 Cl  0  0  0  0  0  0  0  0  0  0  0  0
   58.1480   31.2280   45.8930 C   0  0  0  0  0  0  0  0  0  0  0  0
   58.9000   32.3250   46.3230 C   0  0  0  0  0  0  0  0  0  0  0  0
   64.6910   32.9470   47.6380 H   0  0  0  0  0  0  0  0  0  0  0  0
   64.2270   30.3532   51.1904 H   0  0  0  0  0  0  0  0  0  0  0  0
   66.2743   29.4696   52.3076 H   0  0  0  0  0  0  0  0  0  0  0  0
   68.4358   30.7020   52.1219 H   0  0  0  0  0  0  0  0  0  0  0  0
   68.5546   32.8221   50.8132 H   0  0  0  0  0  0  0  0  0  0  0  0
   66.5163   33.7161   49.6888 H   0  0  0  0  0  0  0  0  0  0  0  0
   60.0505   32.6091   49.4135 H   0  0  0  0  0  0  0  0  0  0  0  0
   60.3971   33.9607   50.5535 H   0  0  0  0  0  0  0  0  0  0  0  0
   59.0093   34.5480   48.4488 H   0  0  0  0  0  0  0  0  0  0  0  0
   60.4682   35.5724   48.7921 H   0  0  0  0  0  0  0  0  0  0  0  0
   59.1658   35.4389   46.2056 H   0  0  0  0  0  0  0  0  0  0  0  0
   60.5503   34.9509   45.1598 H   0  0  0  0  0  0  0  0  0  0  0  0
   58.6307   34.2945   43.5371 H   0  0  0  0  0  0  0  0  0  0  0  0
   57.2981   32.3286   42.7701 H   0  0  0  0  0  0  0  0  0  0  0  0
   58.0075   30.3638   46.5589 H   0  0  0  0  0  0  0  0  0  0  0  0
   59.3474   32.3220   47.3279 H   0  0  0  0  0  0  0  0  0  0  0  0
  1  2  2  0
  2  3  1  0
  3  4  2  0
  4  5  1  0
  5  6  1  0
  6  7  2  0
  7  8  1  0
  8  9  2  0
  9 10  1  0
 10 11  2  0
  5 12  2  0
 12 13  1  0
 13 14  1  0
 14 15  1  0
 15 16  1  0
 16 17  1  0
 17 18  1  0
 18 19  2  0
 19 20  1  0
 20 21  2  0
 21 22  1  0
 21 23  1  0
 23 24  2  0
 16  2  1  0
 24 18  1  0
 13  3  1  0
 11  6  1  0
  4 25  1  0
  7 26  1  0
  8 27  1  0
  9 28  1  0
 10 29  1  0
 11 30  1  0
 14 31  1  0
 14 32  1  0
 15 33  1  0
 15 34  1  0
 17 35  1  0
 17 36  1  0
 19 37  1  0
 20 38  1  0
 23 39  1  0
 24 40  1  0
M  CHG  1   4   1
M  END
>  <UniqueID>  (16) 
14

>  <SMILES>  (16) 
O=C1c2[nH+]c(-c3ccccc3)nn2CCN1Cc1ccc(Cl)cc1

>  <Energy>  (16) 
80.9002287137953

>  <Genealogy>  (16) 
O=C1c2[nH+]c(-c3ccccc3)nn2CCN1Cc1ccc(Cl)cc1 (protonated)
O=C1c2[nH+]c(-c3ccccc3)nn2CCN1Cc1ccc(Cl)cc1 (3D coordinates assigned)
O=C1c2[nH+]c(-c3ccccc3)nn2CCN1Cc1ccc(Cl)cc1 (nonaromatic ring conformer: 80.9002287137953 kcal/mol)

>  <smiles>  (16) 
O=C1c2nc(-c3ccccc3)nn2CCN1Cc1ccc(Cl)cc1

>  <score_type>  (16) 
oracle

>  <origin>  (16) 
adg

>  <m_score__min__energy>  (16) 
-7.0300000000000002

>  <m_primary>  (16) 
energy

$$$$
16:0
     RDKit          3D

 39 40  0  0  0  0  0  0  0  0999 V2000
   57.0050   30.9220   42.6240 C   0  0  0  0  0  0  0  0  0  0  0  0
   56.5100   31.0570   43.9510 O   0  0  0  0  0  0  0  0  0  0  0  0
   56.2010   29.9580   44.7540 C   0  0  0  0  0  0  0  0  0  0  0  0
   55.1520   29.2880   44.5440 O   0  0  0  0  0  0  0  0  0  0  0  0
   57.0840   29.6130   45.8280 N   0  0  0  0  0  0  0  0  0  0  0  0
   58.5340   29.8460   45.8700 C   0  0  2  0  0  0  0  0  0  0  0  0
   58.8350   31.1860   45.3290 N   0  0  0  0  0  0  0  0  0  0  0  0
   59.2480   32.3370   46.1020 C   0  0  0  0  0  0  0  0  0  0  0  0
   60.5540   32.4730   46.6200 C   0  0  0  0  0  0  0  0  0  0  0  0
   60.9010   33.5960   47.3760 C   0  0  0  0  0  0  0  0  0  0  0  0
   59.9590   34.5950   47.6240 C   0  0  0  0  0  0  0  0  0  0  0  0
   58.6640   34.4730   47.1180 C   0  0  0  0  0  0  0  0  0  0  0  0
   58.3100   33.3520   46.3610 C   0  0  0  0  0  0  0  0  0  0  0  0
   59.2150   28.7530   45.0520 C   0  0  0  0  0  0  0  0  0  0  0  0
   60.3990   28.9560   44.6630 O   0  0  0  0  0  0  0  0  0  0  0  0
   58.5800   27.4530   44.7020 C   0  0  0  0  0  0  0  0  0  0  0  0
   58.1930   26.5200   45.6830 C   0  0  0  0  0  0  0  0  0  0  0  0
   57.6140   25.3020   45.3150 C   0  0  0  0  0  0  0  0  0  0  0  0
   57.4040   25.0030   43.9660 C   0  0  0  0  0  0  0  0  0  0  0  0
   56.6800   23.4730   43.5070 Cl  0  0  0  0  0  0  0  0  0  0  0  0
   57.7680   25.9280   42.9840 C   0  0  0  0  0  0  0  0  0  0  0  0
   58.3480   27.1470   43.3480 C   0  0  0  0  0  0  0  0  0  0  0  0
   59.0110   29.7310   47.3430 C   0  0  0  0  0  0  0  0  0  0  0  0
   58.5230   30.7810   48.1000 F   0  0  0  0  0  0  0  0  0  0  0  0
   60.3910   29.7490   47.4180 F   0  0  0  0  0  0  0  0  0  0  0  0
   58.5580   28.5470   47.9010 F   0  0  0  0  0  0  0  0  0  0  0  0
   58.0658   30.6327   42.6560 H   0  0  0  0  0  0  0  0  0  0  0  0
   56.4296   30.1480   42.0950 H   0  0  0  0  0  0  0  0  0  0  0  0
   56.9023   31.8810   42.0950 H   0  0  0  0  0  0  0  0  0  0  0  0
   58.7490   31.3220   44.2950 H   0  0  0  0  0  0  0  0  0  0  0  0
   61.3029   31.6906   46.4275 H   0  0  0  0  0  0  0  0  0  0  0  0
   61.9207   33.6927   47.7771 H   0  0  0  0  0  0  0  0  0  0  0  0
   60.2368   35.4782   48.2180 H   0  0  0  0  0  0  0  0  0  0  0  0
   57.9209   35.2598   47.3150 H   0  0  0  0  0  0  0  0  0  0  0  0
   57.2879   33.2633   45.9643 H   0  0  0  0  0  0  0  0  0  0  0  0
   58.3475   26.7513   46.7472 H   0  0  0  0  0  0  0  0  0  0  0  0
   57.3229   24.5769   46.0893 H   0  0  0  0  0  0  0  0  0  0  0  0
   57.5979   25.6966   41.9222 H   0  0  0  0  0  0  0  0  0  0  0  0
   58.6253   27.8730   42.5695 H   0  0  0  0  0  0  0  0  0  0  0  0
  1  2  1  0
  2  3  1  0
  3  4  2  0
  3  5  1  0
  6  5  1  1
  6  7  1  0
  7  8  1  0
  8  9  2  0
  9 10  1  0
 10 11  2  0
 11 12  1  0
 12 13  2  0
  6 14  1  0
 14 15  2  0
 14 16  1  0
 16 17  2  0
 17 18  1  0
 18 19  2  0
 19 20  1  0
 19 21  1  0
 21 22  2  0
  6 23  1  0
 23 24  1  0
 23 25  1  0
 23 26  1  0
 13  8  1  0
 22 16  1  0
  1 27  1  0
  1 28  1  0
  1 29  1  0
  7 30  1  0
  9 31  1  0
 10 32  1  0
 11 33  1  0
 12 34  1  0
 13 35  1  0
 17 36  1  0
 18 37  1  0
 21 38  1  0
 22 39  1  0
M  CHG  1   5  -1
M  END
>  <UniqueID>  (17) 
15

>  <SMILES>  (17) 
COC(=O)[N-][C@](Nc1ccccc1)(C(=O)c1ccc(Cl)cc1)C(F)(F)F

>  <Energy>  (17) 
43.24993701752393

>  <Genealogy>  (17) 
COC(=O)[N-]C(Nc1ccccc1)(C(=O)c1ccc(Cl)cc1)C(F)(F)F (protonated)
COC(=O)[N-][C@](Nc1ccccc1)(C(=O)c1ccc(Cl)cc1)C(F)(F)F (chirality)
COC(=O)[N-][C@](Nc1ccccc1)(C(=O)c1ccc(Cl)cc1)C(F)(F)F (3D coordinates assigned)
COC(=O)[N-][C@](Nc1ccccc1)(C(=O)c1ccc(Cl)cc1)C(F)(F)F (optimized conformer: 43.24993701752393 kcal/mol)

>  <smiles>  (17) 
COC(=O)NC(Nc1ccccc1)(C(=O)c1ccc(Cl)cc1)C(F)(F)F

>  <score_type>  (17) 
oracle

>  <origin>  (17) 
adg

>  <m_score__min__energy>  (17) 
-8.4900000000000002

>  <m_primary>  (17) 
energy

$$$$
17:0
     RDKit          3D

 30 32  0  0  0  0  0  0  0  0999 V2000
   64.9930   32.3940   49.7300 C   0  0  0  0  0  0  0  0  0  0  0  0
   63.6980   32.9220   49.2110 C   0  0  0  0  0  0  0  0  0  0  0  0
   63.3780   33.0800   47.8640 C   0  0  0  0  0  0  0  0  0  0  0  0
   62.0930   33.5740   47.8830 C   0  0  0  0  0  0  0  0  0  0  0  0
   61.2080   33.9380   46.8780 C   0  0  0  0  0  0  0  0  0  0  0  0
   61.5430   33.8350   45.6660 O   0  0  0  0  0  0  0  0  0  0  0  0
   59.9650   34.4080   47.2420 N   0  0  0  0  0  0  0  0  0  0  0  0
   58.9700   34.7780   46.2220 C   0  0  0  0  0  0  0  0  0  0  0  0
   58.4590   33.5470   45.5220 C   0  0  0  0  0  0  0  0  0  0  0  0
   58.5020   33.4560   44.1230 C   0  0  0  0  0  0  0  0  0  0  0  0
   57.9950   32.3240   43.4820 C   0  0  0  0  0  0  0  0  0  0  0  0
   57.4410   31.2950   44.2450 C   0  0  0  0  0  0  0  0  0  0  0  0
   57.3970   31.4010   45.6000 N   0  0  0  0  0  0  0  0  0  0  0  0
   57.8850   32.4930   46.2490 C   0  0  0  0  0  0  0  0  0  0  0  0
   59.6220   34.4950   48.5750 C   0  0  0  0  0  0  0  0  0  0  0  0
   60.5070   34.1330   49.5530 N   0  0  0  0  0  0  0  0  0  0  0  0
   61.7260   33.6780   49.1870 C   0  0  0  0  0  0  0  0  0  0  0  0
   62.6890   33.2860   49.9830 O   0  0  0  0  0  0  0  0  0  0  0  0
   64.9772   32.4004   50.8299 H   0  0  0  0  0  0  0  0  0  0  0  0
   65.1393   31.3644   49.3714 H   0  0  0  0  0  0  0  0  0  0  0  0
   65.8175   33.0278   49.3714 H   0  0  0  0  0  0  0  0  0  0  0  0
   64.0065   32.8608   46.9883 H   0  0  0  0  0  0  0  0  0  0  0  0
   58.1290   35.2959   46.7062 H   0  0  0  0  0  0  0  0  0  0  0  0
   59.4440   35.4402   45.4825 H   0  0  0  0  0  0  0  0  0  0  0  0
   58.9349   34.2760   43.5312 H   0  0  0  0  0  0  0  0  0  0  0  0
   58.0319   32.2439   42.3855 H   0  0  0  0  0  0  0  0  0  0  0  0
   57.0399   30.3982   43.7502 H   0  0  0  0  0  0  0  0  0  0  0  0
   57.8294   32.5496   47.3461 H   0  0  0  0  0  0  0  0  0  0  0  0
   58.6231   34.8605   48.8554 H   0  0  0  0  0  0  0  0  0  0  0  0
   60.2440   34.2010   50.5610 H   0  0  0  0  0  0  0  0  0  0  0  0
  1  2  1  0
  2  3  2  0
  3  4  1  0
  4  5  1  0
  5  6  2  0
  5  7  1  0
  7  8  1  0
  8  9  1  0
  9 10  2  0
 10 11  1  0
 11 12  2  0
 12 13  1  0
 13 14  2  0
  7 15  1  0
 15 16  2  0
 16 17  1  0
 17 18  1  0
 18  2  1  0
 17  4  2  0
 14  9  1  0
  1 19  1  0
  1 20  1  0
  1 21  1  0
  3 22  1  0
  8 23  1  0
  8 24  1  0
 10 25  1  0
 11 26  1  0
 12 27  1  0
 14 28  1  0
 15 29  1  0
 16 30  1  0
M  CHG  1  16   1
M  END
>  <UniqueID>  (18) 
16

>  <SMILES>  (18) 
Cc1cc2c(=O)n(Cc3cccnc3)c[nH+]c2o1

>  <Energy>  (18) 
68.6458590054126

>  <Genealogy>  (18) 
Cc1cc2c(=O)n(Cc3cccnc3)c[nH+]c2o1 (protonated)
Cc1cc2c(=O)n(Cc3cccnc3)c[nH+]c2o1 (3D coordinates assigned)
Cc1cc2c(=O)n(Cc3cccnc3)c[nH+]c2o1 (optimized conformer: 68.6458590054126 kcal/mol)

>  <smiles>  (18) 
Cc1cc2c(=O)n(Cc3cccnc3)cnc2o1

>  <score_type>  (18) 
oracle

>  <origin>  (18) 
adg

>  <m_score__min__energy>  (18) 
-4.9100000000000001

>  <m_primary>  (18) 
energy

$$$$
18:0
     RDKit          3D

 37 39  0  0  0  0  0  0  0  0999 V2000
   64.9170   33.0740   50.2370 C   0  0  0  0  0  0  0  0  0  0  0  0
   64.4650   32.7040   48.9390 O   0  0  0  0  0  0  0  0  0  0  0  0
   63.3090   33.2120   48.3280 C   0  0  0  0  0  0  0  0  0  0  0  0
   63.1690   33.2920   46.9290 C   0  0  0  0  0  0  0  0  0  0  0  0
   61.9960   33.8050   46.3660 C   0  0  0  0  0  0  0  0  0  0  0  0
   60.9440   34.2400   47.1880 C   0  0  0  0  0  0  0  0  0  0  0  0
   59.6820   34.7930   46.5790 C   0  0  0  0  0  0  0  0  0  0  0  0
   58.8730   33.7030   45.9120 C   0  0  0  0  0  0  0  0  0  0  0  0
   58.8330   33.6490   44.5470 N   0  0  0  0  0  0  0  0  0  0  0  0
   58.1450   32.6720   43.8930 C   0  0  0  0  0  0  0  0  0  0  0  0
   58.1070   32.6250   42.4900 C   0  0  0  0  0  0  0  0  0  0  0  0
   57.3940   31.6110   41.8430 C   0  0  0  0  0  0  0  0  0  0  0  0
   56.7180   30.6410   42.5900 C   0  0  0  0  0  0  0  0  0  0  0  0
   56.7510   30.6790   43.9870 C   0  0  0  0  0  0  0  0  0  0  0  0
   57.4620   31.6930   44.6400 C   0  0  0  0  0  0  0  0  0  0  0  0
   57.5050   31.7390   45.9940 N   0  0  0  0  0  0  0  0  0  0  0  0
   58.1870   32.7110   46.6570 C   0  0  0  0  0  0  0  0  0  0  0  0
   58.1950   32.6810   48.1570 C   0  0  0  0  0  0  0  0  0  0  0  0
   61.0910   34.1670   48.5830 C   0  0  0  0  0  0  0  0  0  0  0  0
   62.2630   33.6540   49.1440 C   0  0  0  0  0  0  0  0  0  0  0  0
   64.3016   32.5703   50.9970 H   0  0  0  0  0  0  0  0  0  0  0  0
   65.9683   32.7739   50.3586 H   0  0  0  0  0  0  0  0  0  0  0  0
   64.8304   34.1638   50.3586 H   0  0  0  0  0  0  0  0  0  0  0  0
   63.9856   32.9496   46.2763 H   0  0  0  0  0  0  0  0  0  0  0  0
   61.8969   33.8681   45.2723 H   0  0  0  0  0  0  0  0  0  0  0  0
   59.0751   35.2569   47.3705 H   0  0  0  0  0  0  0  0  0  0  0  0
   59.9597   35.5362   45.8171 H   0  0  0  0  0  0  0  0  0  0  0  0
   59.3430   34.3730   43.9900 H   0  0  0  0  0  0  0  0  0  0  0  0
   58.6383   33.3862   41.8998 H   0  0  0  0  0  0  0  0  0  0  0  0
   57.3647   31.5762   40.7439 H   0  0  0  0  0  0  0  0  0  0  0  0
   56.1584   29.8453   42.0764 H   0  0  0  0  0  0  0  0  0  0  0  0
   56.2195   29.9139   44.5719 H   0  0  0  0  0  0  0  0  0  0  0  0
   57.9298   33.6755   48.5450 H   0  0  0  0  0  0  0  0  0  0  0  0
   57.4627   31.9413   48.5129 H   0  0  0  0  0  0  0  0  0  0  0  0
   59.1984   32.4041   48.5129 H   0  0  0  0  0  0  0  0  0  0  0  0
   60.2786   34.5158   49.2375 H   0  0  0  0  0  0  0  0  0  0  0  0
   62.3640   33.5972   50.2379 H   0  0  0  0  0  0  0  0  0  0  0  0
  1  2  1  0
  2  3  1  0
  3  4  2  0
  4  5  1  0
  5  6  2  0
  6  7  1  0
  7  8  1  0
  8  9  2  0
  9 10  1  0
 10 11  2  0
 11 12  1  0
 12 13  2  0
 13 14  1  0
 14 15  2  0
 15 16  1  0
 16 17  2  0
 17 18  1  0
  6 19  1  0
 19 20  2  0
 20  3  1  0
 17  8  1  0
 15 10  1  0
  1 21  1  0
  1 22  1  0
  1 23  1  0
  4 24  1  0
  5 25  1  0
  7 26  1  0
  7 27  1  0
  9 28  1  0
 11 29  1  0
 12 30  1  0
 13 31  1  0
 14 32  1  0
 18 33  1  0
 18 34  1  0
 18 35  1  0
 19 36  1  0
 20 37  1  0
M  CHG  1   9   1
M  END
>  <UniqueID>  (19) 
17

>  <SMILES>  (19) 
COc1ccc(Cc2[nH+]c3ccccc3nc2C)cc1

>  <Energy>  (19) 
41.49343019005487

>  <Genealogy>  (19) 
COc1ccc(Cc2[nH+]c3ccccc3nc2C)cc1 (protonated)
COc1ccc(Cc2[nH+]c3ccccc3nc2C)cc1 (3D coordinates assigned)
COc1ccc(Cc2[nH+]c3ccccc3nc2C)cc1 (optimized conformer: 41.49343019005487 kcal/mol)

>  <smiles>  (19) 
COc1ccc(Cc2nc3ccccc3nc2C)cc1

>  <score_type>  (19) 
oracle

>  <origin>  (19) 
adg

>  <m_score__min__energy>  (19) 
-5.6799999999999997

>  <m_primary>  (19) 
energy

$$$$
19:0
     RDKit          3D

 56 58  0  0  0  0  0  0  0  0999 V2000
   62.3320   33.4140   47.4400 C   0  0  0  0  0  0  0  0  0  0  0  0
   61.6970   33.1060   48.7910 C   0  0  0  0  0  0  0  0  0  0  0  0
   60.2360   33.2910   48.7380 N   0  0  0  0  0  0  0  0  0  0  0  0
   59.7080   34.5580   48.2090 C   0  0  0  0  0  0  0  0  0  0  0  0
   59.0380   34.3300   46.8880 C   0  0  0  0  0  0  0  0  0  0  0  0
   59.6580   34.5810   45.6540 C   0  0  0  0  0  0  0  0  0  0  0  0
   58.8370   34.3350   44.5620 C   0  0  0  0  0  0  0  0  0  0  0  0
   57.3450   33.8190   45.1360 S   0  0  0  0  0  0  0  0  0  0  0  0
   57.7200   33.8990   46.7720 C   0  0  0  0  0  0  0  0  0  0  0  0
   59.3080   32.2890   49.2290 C   0  0  0  0  0  0  0  0  0  0  0  0
   58.5040   31.7470   48.4220 O   0  0  0  0  0  0  0  0  0  0  0  0
   59.2080   31.9230   50.6950 C   0  0  0  0  0  0  0  0  0  0  0  0
   58.9760   30.4210   50.9430 C   0  0  0  0  0  0  0  0  0  0  0  0
   59.8110   29.4370   50.0820 C   0  0  0  0  0  0  0  0  0  0  0  0
   59.5130   29.3630   48.6230 N   0  0  0  0  0  0  0  0  0  0  0  0
   60.6700   29.7110   47.7710 C   0  0  0  0  0  0  0  0  0  0  0  0
   60.1960   30.0600   46.3510 C   0  0  0  0  0  0  0  0  0  0  0  0
   58.9890   29.3000   46.0010 N   0  0  0  0  0  0  0  0  0  0  0  0
   58.0980   29.7960   44.9850 C   0  0  0  0  0  0  0  0  0  0  0  0
   58.5140   30.8350   44.1360 C   0  0  0  0  0  0  0  0  0  0  0  0
   57.6640   31.3160   43.1370 C   0  0  0  0  0  0  0  0  0  0  0  0
   56.3910   30.7620   42.9750 C   0  0  0  0  0  0  0  0  0  0  0  0
   55.9660   29.7290   43.8150 C   0  0  0  0  0  0  0  0  0  0  0  0
   56.8130   29.2430   44.8170 C   0  0  0  0  0  0  0  0  0  0  0  0
   56.3680   28.2610   45.6390 F   0  0  0  0  0  0  0  0  0  0  0  0
   58.7220   28.0090   46.6500 C   0  0  0  0  0  0  0  0  0  0  0  0
   58.8930   28.0900   48.1870 C   0  0  0  0  0  0  0  0  0  0  0  0
   63.3118   33.8893   47.5952 H   0  0  0  0  0  0  0  0  0  0  0  0
   62.4632   32.4794   46.8749 H   0  0  0  0  0  0  0  0  0  0  0  0
   61.6793   34.0956   46.8749 H   0  0  0  0  0  0  0  0  0  0  0  0
   61.9187   32.0638   49.0642 H   0  0  0  0  0  0  0  0  0  0  0  0
   62.1123   33.7956   49.5407 H   0  0  0  0  0  0  0  0  0  0  0  0
   58.9777   34.9720   48.9198 H   0  0  0  0  0  0  0  0  0  0  0  0
   60.5407   35.2634   48.0713 H   0  0  0  0  0  0  0  0  0  0  0  0
   60.6943   34.9381   45.5612 H   0  0  0  0  0  0  0  0  0  0  0  0
   59.1151   34.4568   43.5047 H   0  0  0  0  0  0  0  0  0  0  0  0
   57.0434   33.6540   47.6040 H   0  0  0  0  0  0  0  0  0  0  0  0
   60.1450   32.2163   51.1910 H   0  0  0  0  0  0  0  0  0  0  0  0
   58.3346   32.4547   51.1005 H   0  0  0  0  0  0  0  0  0  0  0  0
   59.2060   30.2179   51.9993 H   0  0  0  0  0  0  0  0  0  0  0  0
   57.9293   30.2386   50.6583 H   0  0  0  0  0  0  0  0  0  0  0  0
   60.8675   29.7250   50.1867 H   0  0  0  0  0  0  0  0  0  0  0  0
   59.5494   28.4409   50.4685 H   0  0  0  0  0  0  0  0  0  0  0  0
   58.7940   30.1110   48.4670 H   0  0  0  0  0  0  0  0  0  0  0  0
   61.1923   30.5773   48.2032 H   0  0  0  0  0  0  0  0  0  0  0  0
   61.3516   28.8491   47.7208 H   0  0  0  0  0  0  0  0  0  0  0  0
   59.9719   31.1357   46.3001 H   0  0  0  0  0  0  0  0  0  0  0  0
   60.9940   29.8003   45.6398 H   0  0  0  0  0  0  0  0  0  0  0  0
   59.5157   31.2728   44.2586 H   0  0  0  0  0  0  0  0  0  0  0  0
   57.9968   32.1311   42.4776 H   0  0  0  0  0  0  0  0  0  0  0  0
   55.7235   31.1391   42.1862 H   0  0  0  0  0  0  0  0  0  0  0  0
   54.9625   29.2967   43.6880 H   0  0  0  0  0  0  0  0  0  0  0  0
   57.6902   27.7031   46.4225 H   0  0  0  0  0  0  0  0  0  0  0  0
   59.4465   27.2768   46.2641 H   0  0  0  0  0  0  0  0  0  0  0  0
   57.9026   28.0009   48.6572 H   0  0  0  0  0  0  0  0  0  0  0  0
   59.5611   27.2712   48.4924 H   0  0  0  0  0  0  0  0  0  0  0  0
  1  2  1  0
  2  3  1  0
  3  4  1  0
  4  5  1  0
  5  6  1  0
  6  7  2  0
  7  8  1  0
  8  9  1  0
  3 10  1  0
 10 11  2  0
 10 12  1  0
 12 13  1  0
 13 14  1  0
 14 15  1  0
 15 16  1  0
 16 17  1  0
 17 18  1  0
 18 19  1  0
 19 20  2  0
 20 21  1  0
 21 22  2  0
 22 23  1  0
 23 24  2  0
 24 25  1  0
 18 26  1  0
 26 27  1  0
  9  5  2  0
 27 15  1  0
 24 19  1  0
  1 28  1  0
  1 29  1  0
  1 30  1  0
  2 31  1  0
  2 32  1  0
  4 33  1  0
  4 34  1  0
  6 35  1  0
  7 36  1  0
  9 37  1  0
 12 38  1  0
 12 39  1  0
 13 40  1  0
 13 41  1  0
 14 42  1  0
 14 43  1  0
 15 44  1  0
 16 45  1  0
 16 46  1  0
 17 47  1  0
 17 48  1  0
 20 49  1  0
 21 50  1  0
 22 51  1  0
 23 52  1  0
 26 53  1  0
 26 54  1  0
 27 55  1  0
 27 56  1  0
M  CHG  1  15   1
M  END
>  <UniqueID>  (20) 
18

>  <SMILES>  (20) 
CCN(Cc1ccsc1)C(=O)CCC[NH+]1CCN(c2ccccc2F)CC1

>  <Energy>  (20) 
92.92558558066744

>  <Genealogy>  (20) 
CCN(Cc1ccsc1)C(=O)CCC[NH+]1CCN(c2ccccc2F)CC1 (protonated)
CCN(Cc1ccsc1)C(=O)CCC[NH+]1CCN(c2ccccc2F)CC1 (3D coordinates assigned)
CCN(Cc1ccsc1)C(=O)CCC[NH+]1CCN(c2ccccc2F)CC1 (nonaromatic ring conformer: 92.92558558066744 kcal/mol)

>  <smiles>  (20) 
CCN(Cc1ccsc1)C(=O)CCCN1CCN(c2ccccc2F)CC1

>  <score_type>  (20) 
oracle

>  <origin>  (20) 
adg

>  <m_score__min__energy>  (20) 
-6.6699999999999999

>  <m_primary>  (20) 
energy

$$$$
20:0
     RDKit          3D

 35 38  0  0  0  0  0  0  0  0999 V2000
   63.8060   34.3330   50.3030 F   0  0  0  0  0  0  0  0  0  0  0  0
   62.8340   34.1190   49.3840 C   0  0  0  0  0  0  0  0  0  0  0  0
   61.4900   34.1860   49.7570 C   0  0  0  0  0  0  0  0  0  0  0  0
   60.4850   33.9660   48.8110 C   0  0  0  0  0  0  0  0  0  0  0  0
   60.8170   33.6730   47.4720 C   0  0  0  0  0  0  0  0  0  0  0  0
   59.7670   33.4360   46.4530 C   0  0  0  0  0  0  0  0  0  0  0  0
   59.0300   34.3930   45.7710 C   0  0  0  0  0  0  0  0  0  0  0  0
   58.1950   33.6710   44.9450 C   0  0  0  0  0  0  0  0  0  0  0  0
   58.4330   32.3550   45.1370 N   0  0  0  0  0  0  0  0  0  0  0  0
   57.7950   31.2390   44.4890 C   0  0  0  0  0  0  0  0  0  0  0  0
   57.2480   31.3410   43.2010 C   0  0  0  0  0  0  0  0  0  0  0  0
   56.6460   30.2160   42.6410 C   0  0  0  0  0  0  0  0  0  0  0  0
   56.5950   29.0490   43.3350 N   0  0  0  0  0  0  0  0  0  0  0  0
   57.1290   28.9580   44.5860 C   0  0  0  0  0  0  0  0  0  0  0  0
   57.0730   27.7230   45.3160 N   0  0  0  0  0  0  0  0  0  0  0  0
   58.1290   27.0340   45.7940 C   0  0  0  0  0  0  0  0  0  0  0  0
   57.6590   25.9080   46.4340 C   0  0  0  0  0  0  0  0  0  0  0  0
   56.2860   25.9760   46.3040 C   0  0  0  0  0  0  0  0  0  0  0  0
   55.9520   27.0890   45.6210 N   0  0  0  0  0  0  0  0  0  0  0  0
   57.7200   30.0490   45.1440 N   0  0  0  0  0  0  0  0  0  0  0  0
   59.3830   32.2090   46.0480 N   0  0  0  0  0  0  0  0  0  0  0  0
   62.1750   33.6090   47.1090 C   0  0  0  0  0  0  0  0  0  0  0  0
   63.1770   33.8300   48.0600 C   0  0  0  0  0  0  0  0  0  0  0  0
   61.2213   34.4128   50.7993 H   0  0  0  0  0  0  0  0  0  0  0  0
   59.4286   34.0217   49.1127 H   0  0  0  0  0  0  0  0  0  0  0  0
   59.0970   35.4867   45.8678 H   0  0  0  0  0  0  0  0  0  0  0  0
   57.4585   34.0953   44.2467 H   0  0  0  0  0  0  0  0  0  0  0  0
   57.2934   32.2891   42.6450 H   0  0  0  0  0  0  0  0  0  0  0  0
   56.2101   30.2729   41.6326 H   0  0  0  0  0  0  0  0  0  0  0  0
   56.1390   28.2210   42.8910 H   0  0  0  0  0  0  0  0  0  0  0  0
   59.1856   27.3219   45.6906 H   0  0  0  0  0  0  0  0  0  0  0  0
   58.2477   25.1271   46.9375 H   0  0  0  0  0  0  0  0  0  0  0  0
   55.5741   25.2355   46.6975 H   0  0  0  0  0  0  0  0  0  0  0  0
   62.4512   33.3832   46.0684 H   0  0  0  0  0  0  0  0  0  0  0  0
   64.2355   33.7763   47.7657 H   0  0  0  0  0  0  0  0  0  0  0  0
  1  2  1  0
  2  3  2  0
  3  4  1  0
  4  5  2  0
  5  6  1  0
  6  7  1  0
  7  8  2  0
  8  9  1  0
  9 10  1  0
 10 11  2  0
 11 12  1  0
 12 13  2  0
 13 14  1  0
 14 15  1  0
 15 16  1  0
 16 17  2  0
 17 18  1  0
 18 19  2  0
 14 20  2  0
  9 21  1  0
  5 22  1  0
 22 23  2  0
 23  2  1  0
 21  6  2  0
 20 10  1  0
 19 15  1  0
  3 24  1  0
  4 25  1  0
  7 26  1  0
  8 27  1  0
 11 28  1  0
 12 29  1  0
 13 30  1  0
 16 31  1  0
 17 32  1  0
 18 33  1  0
 22 34  1  0
 23 35  1  0
M  CHG  1  13   1
M  END
>  <UniqueID>  (21) 
19

>  <SMILES>  (21) 
Fc1ccc(-c2ccn(-c3cc[nH+]c(-n4cccn4)n3)n2)cc1

>  <Energy>  (21) 
102.34562582676588

>  <Genealogy>  (21) 
Fc1ccc(-c2ccn(-c3cc[nH+]c(-n4cccn4)n3)n2)cc1 (protonated)
Fc1ccc(-c2ccn(-c3cc[nH+]c(-n4cccn4)n3)n2)cc1 (3D coordinates assigned)
Fc1ccc(-c2ccn(-c3cc[nH+]c(-n4cccn4)n3)n2)cc1 (optimized conformer: 102.34562582676588 kcal/mol)

>  <smiles>  (21) 
Fc1ccc(-c2ccn(-c3ccnc(-n4cccn4)n3)n2)cc1

>  <score_type>  (21) 
oracle

>  <origin>  (21) 
adg

>  <m_score__min__energy>  (21) 
-6.2400000000000002

>  <m_primary>  (21) 
energy

$$$$
21:0
     RDKit          3D

 21 21  0  0  0  0  0  0  0  0999 V2000
   53.1320   28.0160   53.1180 C   0  0  0  0  0  0  0  0  0  0  0  0
   52.9820   29.4030   52.5790 C   0  0  0  0  0  0  0  0  0  0  0  0
   51.8030   29.8920   52.1340 N   0  0  0  0  0  0  0  0  0  0  0  0
   52.1070   31.1490   51.7510 C   0  0  0  0  0  0  0  0  0  0  0  0
   51.1590   32.0620   51.1930 N   0  0  0  0  0  0  0  0  0  0  0  0
   51.1290   32.2600   49.9610 O   0  0  0  0  0  0  0  0  0  0  0  0
   50.2710   32.7250   52.0070 O   0  0  0  0  0  0  0  0  0  0  0  0
   53.4420   31.4110   51.9620 C   0  0  0  0  0  0  0  0  0  0  0  0
   53.9880   30.3070   52.4980 N   0  0  0  0  0  0  0  0  0  0  0  0
   55.4000   30.1170   52.8290 C   0  0  0  0  0  0  0  0  0  0  0  0
   56.2860   30.7190   51.7380 C   0  0  0  0  0  0  0  0  0  0  0  0
   57.3700   29.8730   51.4700 O   0  0  0  0  0  0  0  0  0  0  0  0
   53.1286   28.0476   54.2175 H   0  0  0  0  0  0  0  0  0  0  0  0
   52.2959   27.3936   52.7664 H   0  0  0  0  0  0  0  0  0  0  0  0
   54.0818   27.5867   52.7664 H   0  0  0  0  0  0  0  0  0  0  0  0
   53.9652   32.3513   51.7337 H   0  0  0  0  0  0  0  0  0  0  0  0
   55.6178   30.6112   53.7873 H   0  0  0  0  0  0  0  0  0  0  0  0
   55.6080   29.0395   52.9051 H   0  0  0  0  0  0  0  0  0  0  0  0
   55.6932   30.8508   50.8208 H   0  0  0  0  0  0  0  0  0  0  0  0
   56.6677   31.6912   52.0831 H   0  0  0  0  0  0  0  0  0  0  0  0
   57.3760   29.7190   50.4890 H   0  0  0  0  0  0  0  0  0  0  0  0
  1  2  1  0
  2  3  2  0
  3  4  1  0
  4  5  1  0
  5  6  2  0
  5  7  1  0
  4  8  2  0
  8  9  1  0
  9 10  1  0
 10 11  1  0
 11 12  1  0
  9  2  1  0
  1 13  1  0
  1 14  1  0
  1 15  1  0
  8 16  1  0
 10 17  1  0
 10 18  1  0
 11 19  1  0
 11 20  1  0
 12 21  1  0
M  CHG  2   5   1   7  -1
M  END
>  <UniqueID>  (22) 
20

>  <SMILES>  (22) 
Cc1nc([N+](=O)[O-])cn1CCO

>  <Energy>  (22) 
43.748016531033635

>  <Genealogy>  (22) 
Cc1nc([N+](=O)[O-])cn1CCO (3D coordinates assigned)
Cc1nc([N+](=O)[O-])cn1CCO (optimized conformer: 43.748016531033635 kcal/mol)

>  <smiles>  (22) 
Cc1nc([N+](=O)[O-])cn1CCO

>  <score_type>  (22) 
oracle

>  <origin>  (22) 
adg

>  <m_score__min__energy>  (22) 
-5.8300000000000001

>  <m_primary>  (22) 
energy

$$$$
22:0
     RDKit          3D

 53 55  0  0  0  0  0  0  0  0999 V2000
   60.7180   28.7380   44.8600 C   0  0  0  0  0  0  0  0  0  0  0  0
   59.9950   29.0350   46.1700 C   0  0  0  0  0  0  0  0  0  0  0  0
   58.9650   27.9760   46.4630 C   0  0  0  0  0  0  0  0  0  0  0  0
   57.7530   27.7980   45.8130 C   0  0  0  0  0  0  0  0  0  0  0  0
   57.1280   28.6860   44.7640 C   0  0  0  0  0  0  0  0  0  0  0  0
   56.8410   30.0360   45.2760 N   0  0  0  0  0  0  0  0  0  0  0  0
   57.0350   31.0680   44.2500 C   0  0  0  0  0  0  0  0  0  0  0  0
   57.8020   32.2200   44.8360 C   0  0  0  0  0  0  0  0  0  0  0  0
   57.3440   33.5330   44.6690 C   0  0  0  0  0  0  0  0  0  0  0  0
   58.0410   34.5840   45.2660 C   0  0  0  0  0  0  0  0  0  0  0  0
   59.1530   34.3320   46.0050 N   0  0  0  0  0  0  0  0  0  0  0  0
   59.6320   33.0700   46.1870 C   0  0  0  0  0  0  0  0  0  0  0  0
   60.8010   32.8630   47.0030 N   0  0  0  0  0  0  0  0  0  0  0  0
   61.8640   33.8730   47.0950 C   0  0  0  0  0  0  0  0  0  0  0  0
   63.2390   33.2270   46.8690 C   0  0  0  0  0  0  0  0  0  0  0  0
   63.3650   31.8180   47.4890 C   0  0  0  0  0  0  0  0  0  0  0  0
   62.2550   31.5130   48.5030 C   0  0  0  0  0  0  0  0  0  0  0  0
   60.8760   31.6590   47.8450 C   0  0  0  0  0  0  0  0  0  0  0  0
   58.9430   31.9860   45.6150 C   0  0  0  0  0  0  0  0  0  0  0  0
   57.2290   26.6370   46.3640 C   0  0  0  0  0  0  0  0  0  0  0  0
   55.9310   25.9840   46.0140 C   0  0  0  0  0  0  0  0  0  0  0  0
   58.0810   26.1490   47.2880 N   0  0  0  0  0  0  0  0  0  0  0  0
   59.1280   26.9570   47.3370 N   0  0  0  0  0  0  0  0  0  0  0  0
   60.2620   26.7440   48.2300 C   0  0  0  0  0  0  0  0  0  0  0  0
   61.7156   28.3282   45.0765 H   0  0  0  0  0  0  0  0  0  0  0  0
   60.1386   28.0050   44.2794 H   0  0  0  0  0  0  0  0  0  0  0  0
   60.8212   29.6666   44.2794 H   0  0  0  0  0  0  0  0  0  0  0  0
   60.7287   29.0613   46.9892 H   0  0  0  0  0  0  0  0  0  0  0  0
   59.4870   30.0065   46.0805 H   0  0  0  0  0  0  0  0  0  0  0  0
   57.8200   28.7698   43.9130 H   0  0  0  0  0  0  0  0  0  0  0  0
   56.1737   28.2302   44.4613 H   0  0  0  0  0  0  0  0  0  0  0  0
   55.8500   30.0780   45.6110 H   0  0  0  0  0  0  0  0  0  0  0  0
   57.5985   30.6441   43.4057 H   0  0  0  0  0  0  0  0  0  0  0  0
   56.0553   31.4220   43.8966 H   0  0  0  0  0  0  0  0  0  0  0  0
   56.4422   33.7340   44.0721 H   0  0  0  0  0  0  0  0  0  0  0  0
   57.6896   35.6185   45.1381 H   0  0  0  0  0  0  0  0  0  0  0  0
   61.6967   34.6457   46.3302 H   0  0  0  0  0  0  0  0  0  0  0  0
   61.8423   34.3228   48.0986 H   0  0  0  0  0  0  0  0  0  0  0  0
   63.4131   33.1480   45.7857 H   0  0  0  0  0  0  0  0  0  0  0  0
   63.9836   33.8673   47.3646 H   0  0  0  0  0  0  0  0  0  0  0  0
   63.3173   31.0730   46.6811 H   0  0  0  0  0  0  0  0  0  0  0  0
   64.3242   31.7771   48.0259 H   0  0  0  0  0  0  0  0  0  0  0  0
   62.3737   30.4835   48.8719 H   0  0  0  0  0  0  0  0  0  0  0  0
   62.3292   32.2243   49.3388 H   0  0  0  0  0  0  0  0  0  0  0  0
   60.6833   30.7743   47.2204 H   0  0  0  0  0  0  0  0  0  0  0  0
   60.1231   31.7497   48.6418 H   0  0  0  0  0  0  0  0  0  0  0  0
   59.2984   30.9579   45.7785 H   0  0  0  0  0  0  0  0  0  0  0  0
   55.3956   25.7146   46.9364 H   0  0  0  0  0  0  0  0  0  0  0  0
   55.3174   26.6807   45.4240 H   0  0  0  0  0  0  0  0  0  0  0  0
   56.1247   25.0760   45.4240 H   0  0  0  0  0  0  0  0  0  0  0  0
   59.9231   26.8076   49.2746 H   0  0  0  0  0  0  0  0  0  0  0  0
   60.6931   25.7492   48.0443 H   0  0  0  0  0  0  0  0  0  0  0  0
   61.0247   27.5146   48.0443 H   0  0  0  0  0  0  0  0  0  0  0  0
  1  2  1  0
  2  3  1  0
  3  4  2  0
  4  5  1  0
  5  6  1  0
  6  7  1  0
  7  8  1  0
  8  9  2  0
  9 10  1  0
 10 11  2  0
 11 12  1  0
 12 13  1  0
 13 14  1  0
 14 15  1  0
 15 16  1  0
 16 17  1  0
 17 18  1  0
 12 19  2  0
  4 20  1  0
 20 21  1  0
 20 22  2  0
 22 23  1  0
 23 24  1  0
 23  3  1  0
 19  8  1  0
 18 13  1  0
  1 25  1  0
  1 26  1  0
  1 27  1  0
  2 28  1  0
  2 29  1  0
  5 30  1  0
  5 31  1  0
  6 32  1  0
  7 33  1  0
  7 34  1  0
  9 35  1  0
 10 36  1  0
 14 37  1  0
 14 38  1  0
 15 39  1  0
 15 40  1  0
 16 41  1  0
 16 42  1  0
 17 43  1  0
 17 44  1  0
 18 45  1  0
 18 46  1  0
 19 47  1  0
 21 48  1  0
 21 49  1  0
 21 50  1  0
 24 51  1  0
 24 52  1  0
 24 53  1  0
M  END
>  <UniqueID>  (23) 
21

>  <SMILES>  (23) 
CCc1c(CNCc2ccnc(N3CCCCC3)c2)c(C)nn1C

>  <Energy>  (23) 
81.07342325610007

>  <Genealogy>  (23) 
CCc1c(CNCc2ccnc(N3CCCCC3)c2)c(C)nn1C (3D coordinates assigned)
CCc1c(CNCc2ccnc(N3CCCCC3)c2)c(C)nn1C (nonaromatic ring conformer: 81.07342325610007 kcal/mol)

>  <smiles>  (23) 
CCc1c(CNCc2ccnc(N3CCCCC3)c2)c(C)nn1C

>  <score_type>  (23) 
oracle

>  <origin>  (23) 
adg

>  <m_score__min__energy>  (23) 
-8.2899999999999991

>  <m_primary>  (23) 
energy

$$$$
23:0
     RDKit          3D

 45 48  0  0  0  0  0  0  0  0999 V2000
   56.6450   31.4740   51.8130 C   0  0  0  0  0  0  0  0  0  0  0  0
   57.3950   31.9830   50.7140 O   0  0  0  0  0  0  0  0  0  0  0  0
   58.7860   31.8640   50.5810 C   0  0  0  0  0  0  0  0  0  0  0  0
   59.3700   30.6220   50.8210 C   0  0  0  0  0  0  0  0  0  0  0  0
   60.7420   30.4450   50.6630 C   0  0  0  0  0  0  0  0  0  0  0  0
   61.5640   31.5020   50.2510 C   0  0  0  0  0  0  0  0  0  0  0  0
   60.9950   32.7920   50.0470 C   0  0  0  0  0  0  0  0  0  0  0  0
   59.6040   32.9480   50.2210 C   0  0  0  0  0  0  0  0  0  0  0  0
   61.7930   34.0740   49.8440 C   0  0  0  0  0  0  0  0  0  0  0  0
   62.9820   33.9670   48.9830 N   0  0  0  0  0  0  0  0  0  0  0  0
   62.7450   33.3960   47.3370 S   0  0  0  0  0  0  0  0  0  0  0  0
   63.3520   32.0290   47.1770 O   0  0  0  0  0  0  0  0  0  0  0  0
   63.4730   34.3110   46.3930 O   0  0  0  0  0  0  0  0  0  0  0  0
   61.0260   33.3200   46.8750 C   0  0  0  0  0  0  0  0  0  0  0  0
   60.3830   34.5280   46.5590 C   0  0  0  0  0  0  0  0  0  0  0  0
   59.0580   34.5470   46.1290 C   0  0  0  0  0  0  0  0  0  0  0  0
   58.3420   33.3590   46.0090 C   0  0  0  0  0  0  0  0  0  0  0  0
   58.9480   32.1360   46.3210 C   0  0  0  0  0  0  0  0  0  0  0  0
   58.2170   30.9460   46.1870 C   0  0  0  0  0  0  0  0  0  0  0  0
   58.8100   29.7190   46.4780 C   0  0  0  0  0  0  0  0  0  0  0  0
   60.1360   29.6680   46.9050 C   0  0  0  0  0  0  0  0  0  0  0  0
   60.8780   30.8430   47.0460 C   0  0  0  0  0  0  0  0  0  0  0  0
   60.3020   32.1000   46.7610 C   0  0  0  0  0  0  0  0  0  0  0  0
   64.2430   33.5850   49.6480 C   0  0  0  0  0  0  0  0  0  0  0  0
   64.0860   32.4270   50.6380 C   0  0  0  0  0  0  0  0  0  0  0  0
   63.2550   31.0420   49.8240 S   0  0  0  0  0  0  0  0  0  0  0  0
   57.1140   31.7923   52.7557 H   0  0  0  0  0  0  0  0  0  0  0  0
   55.6166   31.8615   51.7659 H   0  0  0  0  0  0  0  0  0  0  0  0
   56.6253   30.3752   51.7659 H   0  0  0  0  0  0  0  0  0  0  0  0
   58.7429   29.7755   51.1375 H   0  0  0  0  0  0  0  0  0  0  0  0
   61.1875   29.4597   50.8648 H   0  0  0  0  0  0  0  0  0  0  0  0
   59.1503   33.9389   50.0717 H   0  0  0  0  0  0  0  0  0  0  0  0
   61.1207   34.8212   49.3972 H   0  0  0  0  0  0  0  0  0  0  0  0
   62.1727   34.3465   50.8398 H   0  0  0  0  0  0  0  0  0  0  0  0
   60.9348   35.4750   46.6526 H   0  0  0  0  0  0  0  0  0  0  0  0
   58.5755   35.5045   45.8833 H   0  0  0  0  0  0  0  0  0  0  0  0
   57.2965   33.3813   45.6678 H   0  0  0  0  0  0  0  0  0  0  0  0
   57.1703   30.9817   45.8505 H   0  0  0  0  0  0  0  0  0  0  0  0
   58.2312   28.7898   46.3707 H   0  0  0  0  0  0  0  0  0  0  0  0
   60.6006   28.6971   47.1321 H   0  0  0  0  0  0  0  0  0  0  0  0
   61.9236   30.7883   47.3831 H   0  0  0  0  0  0  0  0  0  0  0  0
   64.9673   33.2868   48.8757 H   0  0  0  0  0  0  0  0  0  0  0  0
   64.5824   34.4587   50.2237 H   0  0  0  0  0  0  0  0  0  0  0  0
   65.0788   32.1052   50.9855 H   0  0  0  0  0  0  0  0  0  0  0  0
   63.4853   32.7597   51.4973 H   0  0  0  0  0  0  0  0  0  0  0  0
  1  2  1  0
  2  3  1  0
  3  4  2  0
  4  5  1  0
  5  6  2  0
  6  7  1  0
  7  8  2  0
  7  9  1  0
  9 10  1  0
 10 11  1  0
 11 12  2  0
 11 13  2  0
 11 14  1  0
 14 15  2  0
 15 16  1  0
 16 17  2  0
 17 18  1  0
 18 19  2  0
 19 20  1  0
 20 21  2  0
 21 22  1  0
 22 23  2  0
 10 24  1  0
 24 25  1  0
 25 26  1  0
  8  3  1  0
 23 14  1  0
 26  6  1  0
 23 18  1  0
  1 27  1  0
  1 28  1  0
  1 29  1  0
  4 30  1  0
  5 31  1  0
  8 32  1  0
  9 33  1  0
  9 34  1  0
 15 35  1  0
 16 36  1  0
 17 37  1  0
 19 38  1  0
 20 39  1  0
 21 40  1  0
 22 41  1  0
 24 42  1  0
 24 43  1  0
 25 44  1  0
 25 45  1  0
M  END
>  <UniqueID>  (24) 
22

>  <SMILES>  (24) 
COc1ccc2c(c1)CN(S(=O)(=O)c1cccc3ccccc13)CCS2

>  <Energy>  (24) 
74.32507579295311

>  <Genealogy>  (24) 
COc1ccc2c(c1)CN(S(=O)(=O)c1cccc3ccccc13)CCS2 (3D coordinates assigned)
COc1ccc2c(c1)CN(S(=O)(=O)c1cccc3ccccc13)CCS2 (nonaromatic ring conformer: 74.32507579295311 kcal/mol)

>  <smiles>  (24) 
COc1ccc2c(c1)CN(S(=O)(=O)c1cccc3ccccc13)CCS2

>  <score_type>  (24) 
oracle

>  <origin>  (24) 
adg

>  <m_score__min__energy>  (24) 
-7.5300000000000002

>  <m_primary>  (24) 
energy

$$$$
24:0
     RDKit          3D

 49 51  0  0  0  0  0  0  0  0999 V2000
   56.7650   29.6210   52.7990 C   0  0  0  0  0  0  0  0  0  0  0  0
   57.7780   29.3680   51.8310 O   0  0  0  0  0  0  0  0  0  0  0  0
   58.1510   30.2680   50.8220 C   0  0  0  0  0  0  0  0  0  0  0  0
   58.5690   29.7520   49.5910 C   0  0  0  0  0  0  0  0  0  0  0  0
   58.9510   30.6060   48.5540 C   0  0  0  0  0  0  0  0  0  0  0  0
   58.9280   32.0000   48.7320 C   0  0  0  0  0  0  0  0  0  0  0  0
   59.3170   32.8840   47.6620 N   0  0  0  0  0  0  0  0  0  0  0  0
   58.3730   33.8770   47.1330 C   0  0  0  0  0  0  0  0  0  0  0  0
   57.9130   33.5190   45.7330 C   0  0  0  0  0  0  0  0  0  0  0  0
   57.0080   34.1640   45.2210 O   0  0  0  0  0  0  0  0  0  0  0  0
   58.5610   32.4700   44.9590 N   0  0  0  0  0  0  0  0  0  0  0  0
   58.4300   32.6880   43.5060 C   0  0  0  0  0  0  0  0  0  0  0  0
   57.4250   31.6770   42.9580 C   0  0  0  0  0  0  0  0  0  0  0  0
   57.0010   30.8220   44.1370 C   0  0  0  0  0  0  0  0  0  0  0  0
   57.9890   31.1460   45.2440 C   0  0  0  0  0  0  0  0  0  0  0  0
   60.9250   32.8050   46.9910 S   0  0  0  0  0  0  0  0  0  0  0  0
   61.1470   31.4530   46.3730 O   0  0  0  0  0  0  0  0  0  0  0  0
   61.0790   33.8350   45.9070 O   0  0  0  0  0  0  0  0  0  0  0  0
   62.1250   33.0980   48.2470 C   0  0  0  0  0  0  0  0  0  0  0  0
   61.8040   33.9130   49.3440 C   0  0  0  0  0  0  0  0  0  0  0  0
   62.7480   34.1430   50.3490 C   0  0  0  0  0  0  0  0  0  0  0  0
   64.0180   33.5650   50.2630 C   0  0  0  0  0  0  0  0  0  0  0  0
   64.3460   32.7590   49.1690 C   0  0  0  0  0  0  0  0  0  0  0  0
   63.4040   32.5280   48.1620 C   0  0  0  0  0  0  0  0  0  0  0  0
   58.4990   32.5180   49.9660 C   0  0  0  0  0  0  0  0  0  0  0  0
   58.1160   31.6630   51.0030 C   0  0  0  0  0  0  0  0  0  0  0  0
   57.1882   29.5153   53.8088 H   0  0  0  0  0  0  0  0  0  0  0  0
   56.3797   30.6430   52.6680 H   0  0  0  0  0  0  0  0  0  0  0  0
   55.9445   28.9002   52.6680 H   0  0  0  0  0  0  0  0  0  0  0  0
   58.5971   28.6630   49.4381 H   0  0  0  0  0  0  0  0  0  0  0  0
   59.2724   30.1843   47.5903 H   0  0  0  0  0  0  0  0  0  0  0  0
   57.4963   33.9246   47.7956 H   0  0  0  0  0  0  0  0  0  0  0  0
   58.8852   34.8495   47.0889 H   0  0  0  0  0  0  0  0  0  0  0  0
   59.5800   32.4540   45.2060 H   0  0  0  0  0  0  0  0  0  0  0  0
   58.0716   33.7101   43.3141 H   0  0  0  0  0  0  0  0  0  0  0  0
   59.4051   32.5579   43.0139 H   0  0  0  0  0  0  0  0  0  0  0  0
   56.5547   32.1971   42.5313 H   0  0  0  0  0  0  0  0  0  0  0  0
   57.8667   31.0657   42.1572 H   0  0  0  0  0  0  0  0  0  0  0  0
   55.9769   31.0758   44.4483 H   0  0  0  0  0  0  0  0  0  0  0  0
   57.0019   29.7507   43.8876 H   0  0  0  0  0  0  0  0  0  0  0  0
   57.4719   31.1623   46.2147 H   0  0  0  0  0  0  0  0  0  0  0  0
   58.7820   30.3849   45.2876 H   0  0  0  0  0  0  0  0  0  0  0  0
   60.8067   34.3720   49.4130 H   0  0  0  0  0  0  0  0  0  0  0  0
   62.4912   34.7796   51.2086 H   0  0  0  0  0  0  0  0  0  0  0  0
   64.7590   33.7444   51.0560 H   0  0  0  0  0  0  0  0  0  0  0  0
   65.3461   32.3061   49.1003 H   0  0  0  0  0  0  0  0  0  0  0  0
   63.6667   31.8971   47.3000 H   0  0  0  0  0  0  0  0  0  0  0  0
   58.4643   33.6070   50.1171 H   0  0  0  0  0  0  0  0  0  0  0  0
   57.7858   32.0823   51.9648 H   0  0  0  0  0  0  0  0  0  0  0  0
  1  2  1  0
  2  3  1  0
  3  4  2  0
  4  5  1  0
  5  6  2  0
  6  7  1  0
  7  8  1  0
  8  9  1  0
  9 10  2  0
  9 11  1  0
 11 12  1  0
 12 13  1  0
 13 14  1  0
 14 15  1  0
  7 16  1  0
 16 17  2  0
 16 18  2  0
 16 19  1  0
 19 20  2  0
 20 21  1  0
 21 22  2  0
 22 23  1  0
 23 24  2  0
  6 25  1  0
 25 26  2  0
 26  3  1  0
 15 11  1  0
 24 19  1  0
  1 27  1  0
  1 28  1  0
  1 29  1  0
  4 30  1  0
  5 31  1  0
  8 32  1  0
  8 33  1  0
 11 34  1  0
 12 35  1  0
 12 36  1  0
 13 37  1  0
 13 38  1  0
 14 39  1  0
 14 40  1  0
 15 41  1  0
 15 42  1  0
 20 43  1  0
 21 44  1  0
 22 45  1  0
 23 46  1  0
 24 47  1  0
 25 48  1  0
 26 49  1  0
M  CHG  1  11   1
M  END
>  <UniqueID>  (25) 
23

>  <SMILES>  (25) 
COc1ccc(N(CC(=O)[NH+]2CCCC2)S(=O)(=O)c2ccccc2)cc1

>  <Energy>  (25) 
58.76550864915583

>  <Genealogy>  (25) 
COc1ccc(N(CC(=O)[NH+]2CCCC2)S(=O)(=O)c2ccccc2)cc1 (protonated)
COc1ccc(N(CC(=O)[NH+]2CCCC2)S(=O)(=O)c2ccccc2)cc1 (3D coordinates assigned)
COc1ccc(N(CC(=O)[NH+]2CCCC2)S(=O)(=O)c2ccccc2)cc1 (nonaromatic ring conformer: 58.76550864915583 kcal/mol)

>  <smiles>  (25) 
COc1ccc(N(CC(=O)N2CCCC2)S(=O)(=O)c2ccccc2)cc1

>  <score_type>  (25) 
oracle

>  <origin>  (25) 
adg

>  <m_score__min__energy>  (25) 
-6.7800000000000002

>  <m_primary>  (25) 
energy

$$$$
25:0
     RDKit          3D

 33 35  0  0  0  0  0  0  0  0999 V2000
   57.0520   30.2270   43.3910 C   0  0  0  0  0  0  0  0  0  0  0  0
   56.4850   30.9930   44.4490 O   0  0  0  0  0  0  0  0  0  0  0  0
   57.2030   31.9010   45.2410 C   0  0  0  0  0  0  0  0  0  0  0  0
   58.1340   31.3960   46.1560 C   0  0  0  0  0  0  0  0  0  0  0  0
   58.8750   32.2590   46.9680 C   0  0  0  0  0  0  0  0  0  0  0  0
   58.6980   33.6520   46.8680 C   0  0  0  0  0  0  0  0  0  0  0  0
   59.4200   34.5570   47.6620 O   0  0  0  0  0  0  0  0  0  0  0  0
   60.3430   34.1830   48.6470 C   0  0  0  0  0  0  0  0  0  0  0  0
   59.9300   34.1970   49.9840 C   0  0  0  0  0  0  0  0  0  0  0  0
   60.8040   33.8050   51.0010 C   0  0  0  0  0  0  0  0  0  0  0  0
   62.1040   33.4020   50.6930 C   0  0  0  0  0  0  0  0  0  0  0  0
   62.5460   33.4070   49.3630 C   0  0  0  0  0  0  0  0  0  0  0  0
   63.8570   33.0260   49.0420 C   0  0  0  0  0  0  0  0  0  0  0  0
   64.2830   33.0570   47.7520 N   0  0  0  0  0  0  0  0  0  0  0  0
   63.4660   33.4600   46.7420 C   0  0  0  0  0  0  0  0  0  0  0  0
   62.1510   33.8460   47.0070 C   0  0  0  0  0  0  0  0  0  0  0  0
   61.6680   33.8100   48.3270 C   0  0  0  0  0  0  0  0  0  0  0  0
   57.7620   34.1580   45.9600 C   0  0  0  0  0  0  0  0  0  0  0  0
   57.0200   33.2940   45.1490 C   0  0  0  0  0  0  0  0  0  0  0  0
   57.6564   29.4104   43.8127 H   0  0  0  0  0  0  0  0  0  0  0  0
   56.2469   29.8051   42.7715 H   0  0  0  0  0  0  0  0  0  0  0  0
   57.6907   30.8738   42.7715 H   0  0  0  0  0  0  0  0  0  0  0  0
   58.2839   30.3093   46.2368 H   0  0  0  0  0  0  0  0  0  0  0  0
   59.5988   31.8485   47.6875 H   0  0  0  0  0  0  0  0  0  0  0  0
   58.9090   34.5193   50.2362 H   0  0  0  0  0  0  0  0  0  0  0  0
   60.4663   33.8141   52.0478 H   0  0  0  0  0  0  0  0  0  0  0  0
   62.7834   33.0797   51.4959 H   0  0  0  0  0  0  0  0  0  0  0  0
   64.5433   32.7007   49.8378 H   0  0  0  0  0  0  0  0  0  0  0  0
   65.2630   32.7720   47.5320 H   0  0  0  0  0  0  0  0  0  0  0  0
   63.8441   33.4819   45.7093 H   0  0  0  0  0  0  0  0  0  0  0  0
   61.4960   34.1766   46.1874 H   0  0  0  0  0  0  0  0  0  0  0  0
   57.6085   35.2445   45.8834 H   0  0  0  0  0  0  0  0  0  0  0  0
   56.2900   33.7044   44.4358 H   0  0  0  0  0  0  0  0  0  0  0  0
  1  2  1  0
  2  3  1  0
  3  4  2  0
  4  5  1  0
  5  6  2  0
  6  7  1  0
  7  8  1  0
  8  9  2  0
  9 10  1  0
 10 11  2  0
 11 12  1  0
 12 13  2  0
 13 14  1  0
 14 15  2  0
 15 16  1  0
 16 17  2  0
  6 18  1  0
 18 19  2  0
 19  3  1  0
 17  8  1  0
 17 12  1  0
  1 20  1  0
  1 21  1  0
  1 22  1  0
  4 23  1  0
  5 24  1  0
  9 25  1  0
 10 26  1  0
 11 27  1  0
 13 28  1  0
 14 29  1  0
 15 30  1  0
 16 31  1  0
 18 32  1  0
 19 33  1  0
M  CHG  1  14   1
M  END
>  <UniqueID>  (26) 
24

>  <SMILES>  (26) 
COc1ccc(Oc2cccc3c[nH+]ccc23)cc1

>  <Energy>  (26) 
47.165934716797906

>  <Genealogy>  (26) 
COc1ccc(Oc2cccc3c[nH+]ccc23)cc1 (protonated)
COc1ccc(Oc2cccc3c[nH+]ccc23)cc1 (3D coordinates assigned)
COc1ccc(Oc2cccc3c[nH+]ccc23)cc1 (optimized conformer: 47.165934716797906 kcal/mol)

>  <smiles>  (26) 
COc1ccc(Oc2cccc3cnccc23)cc1

>  <score_type>  (26) 
oracle

>  <origin>  (26) 
adg

>  <m_score__min__energy>  (26) 
-5.5599999999999996

>  <m_primary>  (26) 
energy

$$$$
26:0
     RDKit          3D

 51 55  0  0  0  0  0  0  0  0999 V2000
   56.2730   20.2650   42.9540 O   0  0  0  0  0  0  0  0  0  0  0  0
   56.6040   21.3990   43.3930 C   0  0  0  0  0  0  0  0  0  0  0  0
   57.8270   21.5710   44.0460 C   0  0  0  0  0  0  0  0  0  0  0  0
   58.1730   22.8350   44.5300 C   0  0  0  0  0  0  0  0  0  0  0  0
   57.2970   23.9190   44.3640 C   0  0  0  0  0  0  0  0  0  0  0  0
   57.6490   25.2630   44.8840 C   0  0  0  0  0  0  0  0  0  0  0  0
   58.1940   25.4120   46.1660 C   0  0  0  0  0  0  0  0  0  0  0  0
   58.5280   26.6830   46.6260 C   0  0  0  0  0  0  0  0  0  0  0  0
   58.3040   27.7980   45.8030 C   0  0  0  0  0  0  0  0  0  0  0  0
   58.6340   29.1410   46.2330 N   0  0  0  0  0  0  0  0  0  0  0  0
   59.5170   29.3510   47.3930 C   0  0  0  0  0  0  0  0  0  0  0  0
   59.0150   30.5300   48.2340 C   0  0  0  0  0  0  0  0  0  0  0  0
   58.7890   31.8210   47.4000 C   0  0  0  0  0  0  0  0  0  0  0  0
   59.7020   32.9010   47.8130 N   0  0  0  0  0  0  0  0  0  0  0  0
   59.3220   34.0310   48.6740 C   0  0  0  0  0  0  0  0  0  0  0  0
   60.6330   34.5910   49.2700 C   0  0  0  0  0  0  0  0  0  0  0  0
   61.6830   33.7550   48.6340 C   0  0  0  0  0  0  0  0  0  0  0  0
   63.0680   33.8630   48.7840 C   0  0  0  0  0  0  0  0  0  0  0  0
   63.8900   32.9610   48.0920 C   0  0  0  0  0  0  0  0  0  0  0  0
   63.3160   31.9720   47.2680 C   0  0  0  0  0  0  0  0  0  0  0  0
   64.1160   31.1080   46.5960 F   0  0  0  0  0  0  0  0  0  0  0  0
   61.9210   31.8870   47.1300 C   0  0  0  0  0  0  0  0  0  0  0  0
   61.1210   32.7940   47.8380 C   0  0  0  0  0  0  0  0  0  0  0  0
   58.8990   31.5930   45.8780 C   0  0  0  0  0  0  0  0  0  0  0  0
   58.1830   30.3090   45.4500 C   0  0  0  0  0  0  0  0  0  0  0  0
   57.7690   27.5940   44.5670 N   0  0  0  0  0  0  0  0  0  0  0  0
   57.4560   26.3770   44.1170 N   0  0  0  0  0  0  0  0  0  0  0  0
   56.0790   23.6970   43.6950 C   0  0  0  0  0  0  0  0  0  0  0  0
   55.7660   22.4560   43.2310 N   0  0  0  0  0  0  0  0  0  0  0  0
   58.5108   20.7195   44.1778 H   0  0  0  0  0  0  0  0  0  0  0  0
   59.1351   22.9812   45.0429 H   0  0  0  0  0  0  0  0  0  0  0  0
   58.3569   24.5312   46.8045 H   0  0  0  0  0  0  0  0  0  0  0  0
   58.9644   26.8126   47.6274 H   0  0  0  0  0  0  0  0  0  0  0  0
   59.5266   28.4415   48.0116 H   0  0  0  0  0  0  0  0  0  0  0  0
   60.5332   29.5726   47.0350 H   0  0  0  0  0  0  0  0  0  0  0  0
   58.0617   30.2448   48.7029 H   0  0  0  0  0  0  0  0  0  0  0  0
   59.7908   30.7538   48.9811 H   0  0  0  0  0  0  0  0  0  0  0  0
   57.7530   32.1254   47.6096 H   0  0  0  0  0  0  0  0  0  0  0  0
   58.8130   34.8055   48.0814 H   0  0  0  0  0  0  0  0  0  0  0  0
   58.6302   33.7109   49.4671 H   0  0  0  0  0  0  0  0  0  0  0  0
   60.7626   35.6518   49.0094 H   0  0  0  0  0  0  0  0  0  0  0  0
   60.6578   34.5501   50.3690 H   0  0  0  0  0  0  0  0  0  0  0  0
   63.5044   34.6385   49.4307 H   0  0  0  0  0  0  0  0  0  0  0  0
   64.9835   33.0257   48.1926 H   0  0  0  0  0  0  0  0  0  0  0  0
   61.4661   31.1249   46.4802 H   0  0  0  0  0  0  0  0  0  0  0  0
   58.4444   32.4472   45.3548 H   0  0  0  0  0  0  0  0  0  0  0  0
   59.9638   31.4971   45.6193 H   0  0  0  0  0  0  0  0  0  0  0  0
   57.1007   30.4393   45.5968 H   0  0  0  0  0  0  0  0  0  0  0  0
   58.4196   30.1227   44.3920 H   0  0  0  0  0  0  0  0  0  0  0  0
   57.0370   26.2950   43.1630 H   0  0  0  0  0  0  0  0  0  0  0  0
   55.3764   24.5302   43.5463 H   0  0  0  0  0  0  0  0  0  0  0  0
  1  2  2  0
  2  3  1  0
  3  4  2  0
  4  5  1  0
  5  6  1  0
  6  7  2  0
  7  8  1  0
  8  9  2  0
  9 10  1  0
 10 11  1  0
 11 12  1  0
 12 13  1  0
 13 14  1  0
 14 15  1  0
 15 16  1  0
 16 17  1  0
 17 18  2  0
 18 19  1  0
 19 20  2  0
 20 21  1  0
 20 22  1  0
 22 23  2  0
 13 24  1  0
 24 25  1  0
  9 26  1  0
 26 27  2  0
  5 28  2  0
 28 29  1  0
 29  2  1  0
 27  6  1  0
 25 10  1  0
 23 14  1  0
 23 17  1  0
  3 30  1  0
  4 31  1  0
  7 32  1  0
  8 33  1  0
 11 34  1  0
 11 35  1  0
 12 36  1  0
 12 37  1  0
 13 38  1  0
 15 39  1  0
 15 40  1  0
 16 41  1  0
 16 42  1  0
 18 43  1  0
 19 44  1  0
 22 45  1  0
 24 46  1  0
 24 47  1  0
 25 48  1  0
 25 49  1  0
 27 50  1  0
 28 51  1  0
M  CHG  2  27   1  29  -1
M  END
>  <UniqueID>  (27) 
25

>  <SMILES>  (27) 
O=c1ccc(-c2ccc(N3CCC(N4CCc5ccc(F)cc54)CC3)n[nH+]2)c[n-]1

>  <Energy>  (27) 
81.4211750865691

>  <Genealogy>  (27) 
O=c1ccc(-c2ccc(N3CCC(N4CCc5ccc(F)cc54)CC3)n[nH+]2)c[n-]1 (protonated)
O=c1ccc(-c2ccc(N3CCC(N4CCc5ccc(F)cc54)CC3)n[nH+]2)c[n-]1 (3D coordinates assigned)
O=c1ccc(-c2ccc(N3CCC(N4CCc5ccc(F)cc54)CC3)n[nH+]2)c[n-]1 (nonaromatic ring conformer: 81.4211750865691 kcal/mol)

>  <smiles>  (27) 
O=c1ccc(-c2ccc(N3CCC(N4CCc5ccc(F)cc54)CC3)nn2)c[nH]1

>  <score_type>  (27) 
oracle

>  <origin>  (27) 
adg

>  <m_score__min__energy>  (27) 
-9.0299999999999994

>  <m_primary>  (27) 
energy

$$$$
27:0
     RDKit          3D

 39 41  0  0  0  0  0  0  0  0999 V2000
   65.8480   32.7470   50.1300 C   0  0  0  0  0  0  0  0  0  0  0  0
   64.5190   33.0850   49.5360 C   0  0  0  0  0  0  0  0  0  0  0  0
   63.5950   33.8510   50.2480 C   0  0  0  0  0  0  0  0  0  0  0  0
   62.3720   34.1620   49.6600 C   0  0  0  0  0  0  0  0  0  0  0  0
   62.0930   33.7000   48.3680 C   0  0  0  0  0  0  0  0  0  0  0  0
   60.8390   34.0100   47.7320 N   0  0  0  0  0  0  0  0  0  0  0  0
   59.5700   33.6590   48.3790 C   0  0  0  0  0  0  0  0  0  0  0  0
   58.7300   32.8090   47.4250 C   0  0  0  0  0  0  0  0  0  0  0  0
   58.6900   33.3990   46.0750 N   0  0  0  0  0  0  0  0  0  0  0  0
   57.7130   32.9250   45.1310 C   0  0  0  0  0  0  0  0  0  0  0  0
   57.0150   33.7580   44.4900 O   0  0  0  0  0  0  0  0  0  0  0  0
   57.5100   31.4790   44.8940 C   0  0  0  0  0  0  0  0  0  0  0  0
   58.5700   30.5690   45.0310 C   0  0  0  0  0  0  0  0  0  0  0  0
   58.3630   29.2110   44.7880 C   0  0  0  0  0  0  0  0  0  0  0  0
   57.0970   28.7720   44.3960 C   0  0  0  0  0  0  0  0  0  0  0  0
   56.0820   29.6640   44.2500 N   0  0  0  0  0  0  0  0  0  0  0  0
   56.2580   30.9930   44.4810 C   0  0  0  0  0  0  0  0  0  0  0  0
   59.4130   34.6470   45.7930 C   0  0  0  0  0  0  0  0  0  0  0  0
   60.8310   34.5890   46.3790 C   0  0  0  0  0  0  0  0  0  0  0  0
   63.0380   32.9660   47.7110 N   0  0  0  0  0  0  0  0  0  0  0  0
   64.2100   32.6720   48.2780 N   0  0  0  0  0  0  0  0  0  0  0  0
   65.7746   32.7657   51.2274 H   0  0  0  0  0  0  0  0  0  0  0  0
   66.1525   31.7428   49.7999 H   0  0  0  0  0  0  0  0  0  0  0  0
   66.5952   33.4837   49.7999 H   0  0  0  0  0  0  0  0  0  0  0  0
   63.8304   34.2051   51.2625 H   0  0  0  0  0  0  0  0  0  0  0  0
   61.6315   34.7653   50.2056 H   0  0  0  0  0  0  0  0  0  0  0  0
   59.7721   33.0883   49.2974 H   0  0  0  0  0  0  0  0  0  0  0  0
   59.0207   34.5779   48.6320 H   0  0  0  0  0  0  0  0  0  0  0  0
   59.1678   31.8018   47.3629 H   0  0  0  0  0  0  0  0  0  0  0  0
   57.7022   32.7637   47.8143 H   0  0  0  0  0  0  0  0  0  0  0  0
   59.5659   30.9274   45.3306 H   0  0  0  0  0  0  0  0  0  0  0  0
   59.1887   28.4935   44.9040 H   0  0  0  0  0  0  0  0  0  0  0  0
   56.9208   27.7031   44.2051 H   0  0  0  0  0  0  0  0  0  0  0  0
   55.4175   31.6893   44.3440 H   0  0  0  0  0  0  0  0  0  0  0  0
   59.4765   34.7909   44.7043 H   0  0  0  0  0  0  0  0  0  0  0  0
   58.8706   35.4854   46.2544 H   0  0  0  0  0  0  0  0  0  0  0  0
   61.4624   33.9713   45.7234 H   0  0  0  0  0  0  0  0  0  0  0  0
   61.2167   35.6171   46.4443 H   0  0  0  0  0  0  0  0  0  0  0  0
   62.8640   32.6410   46.7340 H   0  0  0  0  0  0  0  0  0  0  0  0
  1  2  1  0
  2  3  2  0
  3  4  1  0
  4  5  2  0
  5  6  1  0
  6  7  1  0
  7  8  1  0
  8  9  1  0
  9 10  1  0
 10 11  2  0
 10 12  1  0
 12 13  2  0
 13 14  1  0
 14 15  2  0
 15 16  1  0
 16 17  2  0
  9 18  1  0
 18 19  1  0
  5 20  1  0
 20 21  2  0
 21  2  1  0
 19  6  1  0
 17 12  1  0
  1 22  1  0
  1 23  1  0
  1 24  1  0
  3 25  1  0
  4 26  1  0
  7 27  1  0
  7 28  1  0
  8 29  1  0
  8 30  1  0
 13 31  1  0
 14 32  1  0
 15 33  1  0
 17 34  1  0
 18 35  1  0
 18 36  1  0
 19 37  1  0
 19 38  1  0
 20 39  1  0
M  CHG  1  20   1
M  END
>  <UniqueID>  (28) 
26

>  <SMILES>  (28) 
Cc1ccc(N2CCN(C(=O)c3cccnc3)CC2)[nH+]n1

>  <Energy>  (28) 
49.55807817998464

>  <Genealogy>  (28) 
Cc1ccc(N2CCN(C(=O)c3cccnc3)CC2)[nH+]n1 (protonated)
Cc1ccc(N2CCN(C(=O)c3cccnc3)CC2)[nH+]n1 (3D coordinates assigned)
Cc1ccc(N2CCN(C(=O)c3cccnc3)CC2)[nH+]n1 (nonaromatic ring conformer: 49.55807817998464 kcal/mol)

>  <smiles>  (28) 
Cc1ccc(N2CCN(C(=O)c3cccnc3)CC2)nn1

>  <score_type>  (28) 
oracle

>  <origin>  (28) 
adg

>  <m_score__min__energy>  (28) 
-6.3300000000000001

>  <m_primary>  (28) 
energy

$$$$
28:0
     RDKit          3D

 42 45  0  0  0  0  0  0  0  0999 V2000
   53.7850   24.0540   44.8170 C   0  0  0  0  0  0  0  0  0  0  0  0
   55.2210   23.7290   44.5570 C   0  0  0  0  0  0  0  0  0  0  0  0
   55.6190   22.5790   43.9770 N   0  0  0  0  0  0  0  0  0  0  0  0
   56.9420   22.5960   43.9270 N   0  0  0  0  0  0  0  0  0  0  0  0
   57.7480   21.4880   43.4330 C   0  0  0  0  0  0  0  0  0  0  0  0
   57.4140   23.7260   44.4830 C   0  0  0  0  0  0  0  0  0  0  0  0
   56.3370   24.4950   44.8770 C   0  0  0  0  0  0  0  0  0  0  0  0
   56.4100   25.8040   45.5530 C   0  0  0  0  0  0  0  0  0  0  0  0
   55.5020   26.1170   46.3700 O   0  0  0  0  0  0  0  0  0  0  0  0
   57.5010   26.7150   45.3200 N   0  0  0  0  0  0  0  0  0  0  0  0
   58.2250   26.6810   44.0410 C   0  0  0  0  0  0  0  0  0  0  0  0
   57.7620   27.8480   43.1540 C   0  0  0  0  0  0  0  0  0  0  0  0
   57.6510   29.0700   43.9510 N   0  0  0  0  0  0  0  0  0  0  0  0
   57.5400   30.3330   43.5160 C   0  0  0  0  0  0  0  0  0  0  0  0
   57.3770   31.1360   44.6280 C   0  0  0  0  0  0  0  0  0  0  0  0
   57.2970   32.6280   44.6210 C   0  0  0  0  0  0  0  0  0  0  0  0
   58.1480   33.1750   45.6710 N   0  0  0  0  0  0  0  0  0  0  0  0
   59.2790   33.8790   45.5060 C   0  0  0  0  0  0  0  0  0  0  0  0
   59.7700   34.2940   46.6880 N   0  0  0  0  0  0  0  0  0  0  0  0
   58.8650   33.8040   47.5670 C   0  0  0  0  0  0  0  0  0  0  0  0
   57.8690   33.1290   46.9590 N   0  0  0  0  0  0  0  0  0  0  0  0
   57.3930   30.3880   45.7550 N   0  0  0  0  0  0  0  0  0  0  0  0
   57.5360   29.1300   45.2920 C   0  0  0  0  0  0  0  0  0  0  0  0
   57.6590   27.9140   46.1560 C   0  0  0  0  0  0  0  0  0  0  0  0
   53.6087   24.0939   45.9021 H   0  0  0  0  0  0  0  0  0  0  0  0
   53.5431   25.0296   44.3701 H   0  0  0  0  0  0  0  0  0  0  0  0
   53.1466   23.2776   44.3701 H   0  0  0  0  0  0  0  0  0  0  0  0
   58.1578   20.9246   44.2843 H   0  0  0  0  0  0  0  0  0  0  0  0
   57.1211   20.8229   42.8208 H   0  0  0  0  0  0  0  0  0  0  0  0
   58.5738   21.8796   42.8208 H   0  0  0  0  0  0  0  0  0  0  0  0
   58.4747   23.9917   44.6031 H   0  0  0  0  0  0  0  0  0  0  0  0
   59.3050   26.7707   44.2294 H   0  0  0  0  0  0  0  0  0  0  0  0
   58.0177   25.7294   43.5296 H   0  0  0  0  0  0  0  0  0  0  0  0
   58.4932   28.0046   42.3473 H   0  0  0  0  0  0  0  0  0  0  0  0
   56.7784   27.6067   42.7248 H   0  0  0  0  0  0  0  0  0  0  0  0
   57.5726   30.6676   42.4686 H   0  0  0  0  0  0  0  0  0  0  0  0
   57.6332   33.0068   43.6445 H   0  0  0  0  0  0  0  0  0  0  0  0
   56.2564   32.9360   44.8007 H   0  0  0  0  0  0  0  0  0  0  0  0
   59.7438   34.0892   44.5314 H   0  0  0  0  0  0  0  0  0  0  0  0
   58.9344   33.9412   48.6562 H   0  0  0  0  0  0  0  0  0  0  0  0
   58.6487   27.9012   46.6360 H   0  0  0  0  0  0  0  0  0  0  0  0
   56.8810   27.9302   46.9334 H   0  0  0  0  0  0  0  0  0  0  0  0
  1  2  1  0
  2  3  2  0
  3  4  1  0
  4  5  1  0
  4  6  1  0
  6  7  2  0
  7  8  1  0
  8  9  2  0
  8 10  1  0
 10 11  1  0
 11 12  1  0
 12 13  1  0
 13 14  1  0
 14 15  2  0
 15 16  1  0
 16 17  1  0
 17 18  1  0
 18 19  2  0
 19 20  1  0
 20 21  2  0
 15 22  1  0
 22 23  2  0
 23 24  1  0
  7  2  1  0
 24 10  1  0
 23 13  1  0
 21 17  1  0
  1 25  1  0
  1 26  1  0
  1 27  1  0
  5 28  1  0
  5 29  1  0
  5 30  1  0
  6 31  1  0
 11 32  1  0
 11 33  1  0
 12 34  1  0
 12 35  1  0
 14 36  1  0
 16 37  1  0
 16 38  1  0
 18 39  1  0
 20 40  1  0
 24 41  1  0
 24 42  1  0
M  END
>  <UniqueID>  (29) 
27

>  <SMILES>  (29) 
Cc1nn(C)cc1C(=O)N1CCn2cc(Cn3cncn3)nc2C1

>  <Energy>  (29) 
139.08145825646938

>  <Genealogy>  (29) 
Cc1nn(C)cc1C(=O)N1CCn2cc(Cn3cncn3)nc2C1 (3D coordinates assigned)
Cc1nn(C)cc1C(=O)N1CCn2cc(Cn3cncn3)nc2C1 (nonaromatic ring conformer: 139.08145825646938 kcal/mol)

>  <smiles>  (29) 
Cc1nn(C)cc1C(=O)N1CCn2cc(Cn3cncn3)nc2C1

>  <score_type>  (29) 
oracle

>  <origin>  (29) 
adg

>  <m_score__min__energy>  (29) 
-7.4199999999999999

>  <m_primary>  (29) 
energy

$$$$
29:0
     RDKit          3D

 50 53  0  0  0  0  0  0  0  0999 V2000
   59.4526   31.7262   45.9638 H   0  0  0  0  0  0  0  0  0  0  0  0
   59.3590   30.6430   46.1310 C   0  0  0  0  0  0  0  0  0  0  0  0
   60.0380   30.1160   47.1750 C   0  0  0  0  0  0  0  0  0  0  0  0
   59.7550   28.6940   47.5560 C   0  0  2  0  0  0  0  0  0  0  0  0
   60.6680   27.5730   47.0300 C   0  0  0  0  0  0  0  0  0  0  0  0
   61.1095   27.0309   47.8792 H   0  0  0  0  0  0  0  0  0  0  0  0
   60.0772   26.8761   46.4173 H   0  0  0  0  0  0  0  0  0  0  0  0
   61.4700   28.0105   46.4173 H   0  0  0  0  0  0  0  0  0  0  0  0
   58.5230   28.1910   47.8840 O   0  0  0  0  0  0  0  0  0  0  0  0
   59.1930   28.7630   49.0130 C   0  0  1  0  0  0  0  0  0  0  0  0
   60.5920   28.7830   49.6710 C   0  0  0  0  0  0  0  0  0  0  0  0
   61.1298   27.8618   49.4023 H   0  0  0  0  0  0  0  0  0  0  0  0
   60.4670   28.8499   50.7618 H   0  0  0  0  0  0  0  0  0  0  0  0
   61.3520   29.9200   49.2240 O   0  0  0  0  0  0  0  0  0  0  0  0
   60.5690   30.8420   48.4340 C   0  0  1  0  0  0  0  0  0  0  0  0
   61.4530   32.0840   48.1450 C   0  0  0  0  0  0  0  0  0  0  0  0
   62.3004   32.0697   48.8463 H   0  0  0  0  0  0  0  0  0  0  0  0
   61.7556   32.0058   47.0903 H   0  0  0  0  0  0  0  0  0  0  0  0
   60.7380   33.4440   48.2870 C   0  0  0  0  0  0  0  0  0  0  0  0
   60.2426   33.4790   49.2685 H   0  0  0  0  0  0  0  0  0  0  0  0
   61.5010   34.2297   48.1845 H   0  0  0  0  0  0  0  0  0  0  0  0
   59.7030   33.6780   47.2180 C   0  0  0  0  0  0  0  0  0  0  0  0
   60.0710   34.2120   45.9720 C   0  0  0  0  0  0  0  0  0  0  0  0
   61.1235   34.4623   45.7732 H   0  0  0  0  0  0  0  0  0  0  0  0
   59.1060   34.4270   44.9830 C   0  0  0  0  0  0  0  0  0  0  0  0
   59.4037   34.8256   44.0020 H   0  0  0  0  0  0  0  0  0  0  0  0
   57.7650   34.1360   45.2400 C   0  0  0  0  0  0  0  0  0  0  0  0
   57.0072   34.3008   44.4599 H   0  0  0  0  0  0  0  0  0  0  0  0
   57.3850   33.6350   46.4890 C   0  0  0  0  0  0  0  0  0  0  0  0
   56.3260   33.4217   46.6963 H   0  0  0  0  0  0  0  0  0  0  0  0
   58.3490   33.4050   47.4740 C   0  0  0  0  0  0  0  0  0  0  0  0
   58.0463   33.0084   48.4543 H   0  0  0  0  0  0  0  0  0  0  0  0
   59.4370   31.2330   49.2040 O   0  0  0  0  0  0  0  0  0  0  0  0
   58.5260   30.1340   49.3740 C   0  0  2  0  0  0  0  0  0  0  0  0
   57.6767   30.3022   48.6954 H   0  0  0  0  0  0  0  0  0  0  0  0
   58.0950   30.0790   50.7200 O   0  0  0  0  0  0  0  0  0  0  0  0
   58.0070   31.3800   51.2600 C   0  0  0  0  0  0  0  0  0  0  0  0
   58.0109   31.3221   52.3585 H   0  0  0  0  0  0  0  0  0  0  0  0
   58.8668   31.9766   50.9212 H   0  0  0  0  0  0  0  0  0  0  0  0
   57.0747   31.8553   50.9212 H   0  0  0  0  0  0  0  0  0  0  0  0
   58.4870   29.8720   45.1800 C   0  0  0  0  0  0  0  0  0  0  0  0
   58.9122   29.9342   44.1674 H   0  0  0  0  0  0  0  0  0  0  0  0
   58.4424   28.8232   45.5086 H   0  0  0  0  0  0  0  0  0  0  0  0
   57.1690   30.4070   45.1680 O   0  0  0  0  0  0  0  0  0  0  0  0
   56.1660   29.8920   44.3410 C   0  0  0  0  0  0  0  0  0  0  0  0
   55.1480   29.3340   44.8340 O   0  0  0  0  0  0  0  0  0  0  0  0
   56.2700   30.0530   42.8630 C   0  0  0  0  0  0  0  0  0  0  0  0
   56.8536   30.9565   42.6328 H   0  0  0  0  0  0  0  0  0  0  0  0
   56.7710   29.1733   42.4327 H   0  0  0  0  0  0  0  0  0  0  0  0
   55.2621   30.1480   42.4327 H   0  0  0  0  0  0  0  0  0  0  0  0
  1  2  1  0
  2  3  2  0
  3  4  1  0
  4  5  1  1
  5  6  1  0
  5  7  1  0
  5  8  1  0
  4  9  1  0
 10  9  1  1
 10 11  1  0
 11 12  1  0
 11 13  1  0
 11 14  1  0
 14 15  1  0
 15 16  1  6
 16 17  1  0
 16 18  1  0
 16 19  1  0
 19 20  1  0
 19 21  1  0
 19 22  1  0
 22 23  2  0
 23 24  1  0
 23 25  1  0
 25 26  1  0
 25 27  2  0
 27 28  1  0
 27 29  1  0
 29 30  1  0
 29 31  2  0
 31 32  1  0
 15 33  1  0
 33 34  1  0
 34 35  1  6
 34 36  1  0
 36 37  1  0
 37 38  1  0
 37 39  1  0
 37 40  1  0
  2 41  1  0
 41 42  1  0
 41 43  1  0
 41 44  1  0
 44 45  1  0
 45 46  2  0
 45 47  1  0
 47 48  1  0
 47 49  1  0
 47 50  1  0
 15  3  1  0
 31 22  1  0
 10  4  1  0
 34 10  1  0
M  END
>  <UniqueID>  (30) 
28

>  <SMILES>  (30) 
CO[C@H]1O[C@@]2(CCc3ccccc3)OCC13OC3(C)/C2=C/COC(C)=O

>  <Energy>  (30) 
472.69812943688055

>  <Genealogy>  (30) 
CO[C@H]1O[C@@]2(CCc3ccccc3)OCC13OC3(C)C2=CCOC(C)=O (chirality)
CO[C@H]1O[C@@]2(CCc3ccccc3)OCC13OC3(C)/C2=C/COC(C)=O (cis-trans isomerization)
CO[C@H]1O[C@@]2(CCc3ccccc3)OCC13OC3(C)/C2=C/COC(C)=O (3D coordinates assigned)
CO[C@H]1O[C@@]2(CCc3ccccc3)OCC13OC3(C)/C2=C/COC(C)=O (nonaromatic ring conformer: 472.69812943688055 kcal/mol)

>  <smiles>  (30) 
COC1OC2(CCc3ccccc3)OCC13OC3(C)C2=CCOC(C)=O

>  <score_type>  (30) 
oracle

>  <origin>  (30) 
adg

>  <m_score__min__energy>  (30) 
-7.9000000000000004

>  <m_primary>  (30) 
energy

$$$$
30:0
     RDKit          3D

 57 60  0  0  0  0  0  0  0  0999 V2000
   57.0590   31.1080   43.3790 C   0  0  0  0  0  0  0  0  0  0  0  0
   56.2380   29.7280   44.2420 S   0  0  0  0  0  0  0  0  0  0  0  0
   57.4500   28.4380   43.7640 C   0  0  0  0  0  0  0  0  0  0  0  0
   58.2940   27.9270   44.9480 C   0  0  0  0  0  0  0  0  0  0  0  0
   57.6090   28.0080   46.3330 C   0  0  2  0  0  0  0  0  0  0  0  0
   58.4630   28.7210   47.2920 N   0  0  0  0  0  0  0  0  0  0  0  0
   58.8780   30.0760   47.0990 C   0  0  0  0  0  0  0  0  0  0  0  0
   58.4470   30.7400   46.1180 O   0  0  0  0  0  0  0  0  0  0  0  0
   59.7700   30.6510   48.0090 O   0  0  0  0  0  0  0  0  0  0  0  0
   59.3690   31.5500   49.0420 C   0  0  0  0  0  0  0  0  0  0  0  0
   59.6830   33.0050   48.6560 C   0  0  0  0  0  0  0  0  0  0  0  0
   59.0070   33.3820   47.3630 C   0  0  0  0  0  0  0  0  0  0  0  0
   57.6360   33.4570   47.1010 C   0  0  0  0  0  0  0  0  0  0  0  0
   57.2130   33.8450   45.8180 C   0  0  0  0  0  0  0  0  0  0  0  0
   58.1580   34.1610   44.8220 C   0  0  0  0  0  0  0  0  0  0  0  0
   59.5330   34.0920   45.1010 C   0  0  0  0  0  0  0  0  0  0  0  0
   59.9290   33.6980   46.3800 C   0  0  0  0  0  0  0  0  0  0  0  0
   61.2550   33.5750   46.9460 C   0  0  0  0  0  0  0  0  0  0  0  0
   62.4990   33.8210   46.3640 C   0  0  0  0  0  0  0  0  0  0  0  0
   63.6470   33.6680   47.1610 C   0  0  0  0  0  0  0  0  0  0  0  0
   63.5290   33.2870   48.5120 C   0  0  0  0  0  0  0  0  0  0  0  0
   62.2650   33.0520   49.0770 C   0  0  0  0  0  0  0  0  0  0  0  0
   61.1310   33.1880   48.2680 C   0  0  0  0  0  0  0  0  0  0  0  0
   57.1920   26.6560   46.8550 C   0  0  0  0  0  0  0  0  0  0  0  0
   57.9010   26.0510   47.7050 O   0  0  0  0  0  0  0  0  0  0  0  0
   55.9880   26.0550   46.3600 N   0  0  0  0  0  0  0  0  0  0  0  0
   55.8920   25.0530   45.3380 C   0  0  0  0  0  0  0  0  0  0  0  0
   56.9930   24.7110   44.5270 C   0  0  0  0  0  0  0  0  0  0  0  0
   56.8680   23.7110   43.5580 C   0  0  0  0  0  0  0  0  0  0  0  0
   55.6550   23.0370   43.3980 C   0  0  0  0  0  0  0  0  0  0  0  0
   54.5650   23.3570   44.2120 C   0  0  0  0  0  0  0  0  0  0  0  0
   54.6850   24.3570   45.1840 C   0  0  0  0  0  0  0  0  0  0  0  0
   53.6200   24.6590   45.9690 F   0  0  0  0  0  0  0  0  0  0  0  0
   57.4752   31.8075   44.1189 H   0  0  0  0  0  0  0  0  0  0  0  0
   57.8705   30.7154   42.7487 H   0  0  0  0  0  0  0  0  0  0  0  0
   56.3267   31.6338   42.7487 H   0  0  0  0  0  0  0  0  0  0  0  0
   56.9025   27.5871   43.3324 H   0  0  0  0  0  0  0  0  0  0  0  0
   58.1434   28.8935   43.0417 H   0  0  0  0  0  0  0  0  0  0  0  0
   58.5471   26.8740   44.7553 H   0  0  0  0  0  0  0  0  0  0  0  0
   59.1711   28.5885   45.0037 H   0  0  0  0  0  0  0  0  0  0  0  0
   56.6805   28.5835   46.2039 H   0  0  0  0  0  0  0  0  0  0  0  0
   58.8920   28.1950   48.0860 H   0  0  0  0  0  0  0  0  0  0  0  0
   58.2866   31.4472   49.2086 H   0  0  0  0  0  0  0  0  0  0  0  0
   59.9242   31.3020   49.9586 H   0  0  0  0  0  0  0  0  0  0  0  0
   59.3718   33.5895   49.5344 H   0  0  0  0  0  0  0  0  0  0  0  0
   56.9019   33.2169   47.8842 H   0  0  0  0  0  0  0  0  0  0  0  0
   56.1383   33.9022   45.5903 H   0  0  0  0  0  0  0  0  0  0  0  0
   57.8173   34.4633   43.8207 H   0  0  0  0  0  0  0  0  0  0  0  0
   60.2782   34.3420   44.3315 H   0  0  0  0  0  0  0  0  0  0  0  0
   62.5793   34.1263   45.3103 H   0  0  0  0  0  0  0  0  0  0  0  0
   64.6421   33.8467   46.7276 H   0  0  0  0  0  0  0  0  0  0  0  0
   64.4328   33.1728   49.1285 H   0  0  0  0  0  0  0  0  0  0  0  0
   62.1680   32.7666   50.1349 H   0  0  0  0  0  0  0  0  0  0  0  0
   57.9529   25.2322   44.6568 H   0  0  0  0  0  0  0  0  0  0  0  0
   57.7267   23.4544   42.9202 H   0  0  0  0  0  0  0  0  0  0  0  0
   55.5577   22.2543   42.6312 H   0  0  0  0  0  0  0  0  0  0  0  0
   53.6116   22.8224   44.0887 H   0  0  0  0  0  0  0  0  0  0  0  0
  1  2  1  0
  2  3  1  0
  3  4  1  0
  4  5  1  0
  5  6  1  0
  6  7  1  0
  7  8  2  0
  7  9  1  0
  9 10  1  0
 10 11  1  0
 11 12  1  0
 12 13  2  0
 13 14  1  0
 14 15  2  0
 15 16  1  0
 16 17  2  0
 17 18  1  0
 18 19  2  0
 19 20  1  0
 20 21  2  0
 21 22  1  0
 22 23  2  0
  5 24  1  0
 24 25  2  0
 24 26  1  0
 26 27  1  0
 27 28  2  0
 28 29  1  0
 29 30  2  0
 30 31  1  0
 31 32  2  0
 32 33  1  0
 23 11  1  0
 32 27  1  0
 17 12  1  0
 23 18  1  0
  1 34  1  0
  1 35  1  0
  1 36  1  0
  3 37  1  0
  3 38  1  0
  4 39  1  0
  4 40  1  0
  5 41  1  6
  6 42  1  0
 10 43  1  0
 10 44  1  0
 11 45  1  0
 13 46  1  0
 14 47  1  0
 15 48  1  0
 16 49  1  0
 19 50  1  0
 20 51  1  0
 21 52  1  0
 22 53  1  0
 28 54  1  0
 29 55  1  0
 30 56  1  0
 31 57  1  0
M  CHG  1  26  -1
M  END
>  <UniqueID>  (31) 
29

>  <SMILES>  (31) 
CSCC[C@H](NC(=O)OCC1c2ccccc2-c2ccccc21)C(=O)[N-]c1ccccc1F

>  <Energy>  (31) 
78.393547587191

>  <Genealogy>  (31) 
CSCCC(NC(=O)OCC1c2ccccc2-c2ccccc21)C(=O)[N-]c1ccccc1F (protonated)
CSCC[C@H](NC(=O)OCC1c2ccccc2-c2ccccc21)C(=O)[N-]c1ccccc1F (chirality)
CSCC[C@H](NC(=O)OCC1c2ccccc2-c2ccccc21)C(=O)[N-]c1ccccc1F (3D coordinates assigned)
CSCC[C@H](NC(=O)OCC1c2ccccc2-c2ccccc21)C(=O)[N-]c1ccccc1F (nonaromatic ring conformer: 78.393547587191 kcal/mol)

>  <smiles>  (31) 
CSCCC(NC(=O)OCC1c2ccccc2-c2ccccc21)C(=O)Nc1ccccc1F

>  <score_type>  (31) 
oracle

>  <origin>  (31) 
adg

>  <m_score__min__energy>  (31) 
-11.539999999999999

>  <m_primary>  (31) 
energy

$$$$
31:0
     RDKit          3D

 48 50  0  0  0  0  0  0  0  0999 V2000
   60.7820   28.5600   44.8760 C   0  0  0  0  0  0  0  0  0  0  0  0
   60.3970   28.0070   46.2470 C   0  0  0  0  0  0  0  0  0  0  0  0
   60.3550   29.0980   47.3270 C   0  0  0  0  0  0  0  0  0  0  0  0
   59.5930   30.3070   46.8640 C   0  0  0  0  0  0  0  0  0  0  0  0
   60.0470   31.5490   47.1960 N   0  0  0  0  0  0  0  0  0  0  0  0
   59.3650   32.6250   46.7440 C   0  0  0  0  0  0  0  0  0  0  0  0
   58.2490   32.5200   45.9680 C   0  0  0  0  0  0  0  0  0  0  0  0
   57.8700   33.8400   45.7400 C   0  0  0  0  0  0  0  0  0  0  0  0
   58.7470   34.6620   46.3670 N   0  0  0  0  0  0  0  0  0  0  0  0
   59.6570   33.9130   46.9740 N   0  0  0  0  0  0  0  0  0  0  0  0
   60.7580   34.4330   47.7730 C   0  0  0  0  0  0  0  0  0  0  0  0
   57.7730   31.2450   45.6080 C   0  0  0  0  0  0  0  0  0  0  0  0
   56.6370   30.9910   44.8170 O   0  0  0  0  0  0  0  0  0  0  0  0
   56.5940   30.3900   43.5260 C   0  0  0  0  0  0  0  0  0  0  0  0
   57.0890   28.9470   43.5810 C   0  0  0  0  0  0  0  0  0  0  0  0
   56.9730   28.4580   44.9140 O   0  0  0  0  0  0  0  0  0  0  0  0
   57.2540   27.1400   45.3010 C   0  0  0  0  0  0  0  0  0  0  0  0
   57.0390   26.6740   46.6120 C   0  0  0  0  0  0  0  0  0  0  0  0
   57.3370   25.3500   46.9490 C   0  0  0  0  0  0  0  0  0  0  0  0
   57.8530   24.4690   45.9800 C   0  0  0  0  0  0  0  0  0  0  0  0
   58.1660   23.1310   46.2680 O   0  0  0  0  0  0  0  0  0  0  0  0
   58.4140   22.1350   45.2810 C   0  0  0  0  0  0  0  0  0  0  0  0
   58.0630   24.9360   44.6770 C   0  0  0  0  0  0  0  0  0  0  0  0
   57.7670   26.2590   44.3410 C   0  0  0  0  0  0  0  0  0  0  0  0
   58.4750   30.1660   46.0770 N   0  0  0  0  0  0  0  0  0  0  0  0
   61.4062   29.4566   45.0044 H   0  0  0  0  0  0  0  0  0  0  0  0
   61.3456   27.7976   44.3182 H   0  0  0  0  0  0  0  0  0  0  0  0
   59.8714   28.8240   44.3182 H   0  0  0  0  0  0  0  0  0  0  0  0
   59.4022   27.5433   46.1743 H   0  0  0  0  0  0  0  0  0  0  0  0
   61.1628   27.2738   46.5402 H   0  0  0  0  0  0  0  0  0  0  0  0
   59.8678   28.6918   48.2257 H   0  0  0  0  0  0  0  0  0  0  0  0
   61.3884   29.4058   47.5448 H   0  0  0  0  0  0  0  0  0  0  0  0
   57.0011   34.1632   45.1480 H   0  0  0  0  0  0  0  0  0  0  0  0
   60.5207   34.3209   48.8412 H   0  0  0  0  0  0  0  0  0  0  0  0
   61.6760   33.8733   47.5406 H   0  0  0  0  0  0  0  0  0  0  0  0
   60.9089   35.4975   47.5406 H   0  0  0  0  0  0  0  0  0  0  0  0
   55.5576   30.4016   43.1575 H   0  0  0  0  0  0  0  0  0  0  0  0
   57.2480   30.9607   42.8503 H   0  0  0  0  0  0  0  0  0  0  0  0
   56.4815   28.3246   42.9075 H   0  0  0  0  0  0  0  0  0  0  0  0
   58.1419   28.9072   43.2651 H   0  0  0  0  0  0  0  0  0  0  0  0
   56.6345   27.3550   47.3752 H   0  0  0  0  0  0  0  0  0  0  0  0
   57.1674   24.9952   47.9763 H   0  0  0  0  0  0  0  0  0  0  0  0
   58.6515   21.1810   45.7744 H   0  0  0  0  0  0  0  0  0  0  0  0
   57.5195   22.0103   44.6531 H   0  0  0  0  0  0  0  0  0  0  0  0
   59.2626   22.4443   44.6531 H   0  0  0  0  0  0  0  0  0  0  0  0
   58.4644   24.2555   43.9116 H   0  0  0  0  0  0  0  0  0  0  0  0
   57.9383   26.6120   43.3133 H   0  0  0  0  0  0  0  0  0  0  0  0
   58.1460   29.2090   45.8210 H   0  0  0  0  0  0  0  0  0  0  0  0
  1  2  1  0
  2  3  1  0
  3  4  1  0
  4  5  2  0
  5  6  1  0
  6  7  2  0
  7  8  1  0
  8  9  2  0
  9 10  1  0
 10 11  1  0
  7 12  1  0
 12 13  1  0
 13 14  1  0
 14 15  1  0
 15 16  1  0
 16 17  1  0
 17 18  2  0
 18 19  1  0
 19 20  2  0
 20 21  1  0
 21 22  1  0
 20 23  1  0
 23 24  2  0
 12 25  2  0
 25  4  1  0
 10  6  1  0
 24 17  1  0
  1 26  1  0
  1 27  1  0
  1 28  1  0
  2 29  1  0
  2 30  1  0
  3 31  1  0
  3 32  1  0
  8 33  1  0
 11 34  1  0
 11 35  1  0
 11 36  1  0
 14 37  1  0
 14 38  1  0
 15 39  1  0
 15 40  1  0
 18 41  1  0
 19 42  1  0
 22 43  1  0
 22 44  1  0
 22 45  1  0
 23 46  1  0
 24 47  1  0
 25 48  1  0
M  CHG  1  25   1
M  END
>  <UniqueID>  (32) 
30

>  <SMILES>  (32) 
CCCc1nc2c(cnn2C)c(OCCOc2ccc(OC)cc2)[nH+]1

>  <Energy>  (32) 
85.51153161952831

>  <Genealogy>  (32) 
CCCc1nc2c(cnn2C)c(OCCOc2ccc(OC)cc2)[nH+]1 (protonated)
CCCc1nc2c(cnn2C)c(OCCOc2ccc(OC)cc2)[nH+]1 (3D coordinates assigned)
CCCc1nc2c(cnn2C)c(OCCOc2ccc(OC)cc2)[nH+]1 (optimized conformer: 85.51153161952831 kcal/mol)

>  <smiles>  (32) 
CCCc1nc(OCCOc2ccc(OC)cc2)c2cnn(C)c2n1

>  <score_type>  (32) 
oracle

>  <origin>  (32) 
adg

>  <m_score__min__energy>  (32) 
-4.6600000000000001

>  <m_primary>  (32) 
energy

$$$$
32:0
     RDKit          3D

 24 27  0  0  0  0  0  0  0  0999 V2000
   57.8210   27.8470   43.4440 C   0  0  0  0  0  0  0  0  0  0  0  0
   57.0140   28.9820   43.5670 C   0  0  0  0  0  0  0  0  0  0  0  0
   57.4400   30.0420   44.3710 C   0  0  0  0  0  0  0  0  0  0  0  0
   58.6690   29.9410   45.0510 C   0  0  0  0  0  0  0  0  0  0  0  0
   59.4480   28.7880   44.9010 C   0  0  0  0  0  0  0  0  0  0  0  0
   59.0090   27.7750   44.1060 N   0  0  0  0  0  0  0  0  0  0  0  0
   59.0520   31.0680   45.9010 C   0  0  0  0  0  0  0  0  0  0  0  0
   60.1970   31.2360   46.6200 N   0  0  0  0  0  0  0  0  0  0  0  0
   60.0620   32.4890   47.1050 C   0  0  0  0  0  0  0  0  0  0  0  0
   60.9510   33.2890   47.8330 C   0  0  0  0  0  0  0  0  0  0  0  0
   60.4220   34.5840   48.0140 C   0  0  0  0  0  0  0  0  0  0  0  0
   58.9090   34.6400   47.2390 S   0  0  0  0  0  0  0  0  0  0  0  0
   58.9300   33.0690   46.7340 N   0  0  0  0  0  0  0  0  0  0  0  0
   58.2620   32.1940   45.9790 C   0  0  0  0  0  0  0  0  0  0  0  0
   57.0530   32.4200   45.1300 C   0  0  0  0  0  0  0  0  0  0  0  0
   56.6290   31.1910   44.5070 O   0  0  0  0  0  0  0  0  0  0  0  0
   57.4952   27.0091   42.8102 H   0  0  0  0  0  0  0  0  0  0  0  0
   56.0526   29.0398   43.0356 H   0  0  0  0  0  0  0  0  0  0  0  0
   60.4118   28.7011   45.4240 H   0  0  0  0  0  0  0  0  0  0  0  0
   61.0100   30.5900   46.7220 H   0  0  0  0  0  0  0  0  0  0  0  0
   61.9278   32.9537   48.2118 H   0  0  0  0  0  0  0  0  0  0  0  0
   60.9022   35.4101   48.5590 H   0  0  0  0  0  0  0  0  0  0  0  0
   56.2373   32.8057   45.7592 H   0  0  0  0  0  0  0  0  0  0  0  0
   57.3050   33.1460   44.3430 H   0  0  0  0  0  0  0  0  0  0  0  0
  1  2  2  0
  2  3  1  0
  3  4  2  0
  4  5  1  0
  5  6  2  0
  4  7  1  0
  7  8  1  0
  8  9  2  0
  9 10  1  0
 10 11  2  0
 11 12  1  0
 12 13  1  0
 13 14  1  0
 14 15  1  0
 15 16  1  0
  6  1  1  0
 14  7  2  0
 16  3  1  0
 13  9  1  0
  1 17  1  0
  2 18  1  0
  5 19  1  0
  8 20  1  0
 10 21  1  0
 11 22  1  0
 15 23  1  0
 15 24  1  0
M  CHG  1   8   1
M  END
>  <UniqueID>  (33) 
31

>  <SMILES>  (33) 
c1cc2c(cn1)-c1[nH+]c3ccsn3c1CO2

>  <Energy>  (33) 
123.27208970751204

>  <Genealogy>  (33) 
c1cc2c(cn1)-c1[nH+]c3ccsn3c1CO2 (protonated)
c1cc2c(cn1)-c1[nH+]c3ccsn3c1CO2 (3D coordinates assigned)
c1cc2c(cn1)-c1[nH+]c3ccsn3c1CO2 (nonaromatic ring conformer: 123.27208970751204 kcal/mol)

>  <smiles>  (33) 
c1cc2c(cn1)-c1nc3ccsn3c1CO2

>  <score_type>  (33) 
oracle

>  <origin>  (33) 
adg

>  <m_score__min__energy>  (33) 
-4.4299999999999997

>  <m_primary>  (33) 
energy

$$$$
33:0
     RDKit          3D

 37 38  0  0  0  0  0  0  0  0999 V2000
   64.6920   33.0630   49.4900 C   0  0  0  0  0  0  0  0  0  0  0  0
   63.9510   32.8350   48.1790 C   0  0  0  0  0  0  0  0  0  0  0  0
   62.6220   33.4430   48.2360 N   0  0  0  0  0  0  0  0  0  0  0  0
   61.9420   33.7950   49.3460 C   0  0  0  0  0  0  0  0  0  0  0  0
   60.7530   34.3880   48.9620 C   0  0  0  0  0  0  0  0  0  0  0  0
   60.7080   34.4240   47.6140 N   0  0  0  0  0  0  0  0  0  0  0  0
   59.6020   34.9040   46.7890 C   0  0  0  0  0  0  0  0  0  0  0  0
   58.7410   33.7510   46.3750 C   0  0  0  0  0  0  0  0  0  0  0  0
   57.4900   33.8950   46.3370 O   0  0  0  0  0  0  0  0  0  0  0  0
   59.3450   32.4940   46.0330 N   0  0  0  0  0  0  0  0  0  0  0  0
   58.6190   31.2580   45.9120 C   0  0  0  0  0  0  0  0  0  0  0  0
   58.8430   30.1890   46.7940 C   0  0  0  0  0  0  0  0  0  0  0  0
   58.1450   28.9880   46.6400 C   0  0  0  0  0  0  0  0  0  0  0  0
   57.2200   28.8300   45.5900 C   0  0  0  0  0  0  0  0  0  0  0  0
   56.4970   27.6400   45.4050 O   0  0  0  0  0  0  0  0  0  0  0  0
   57.0250   26.3350   45.6150 C   0  0  0  0  0  0  0  0  0  0  0  0
   57.0150   29.8920   44.6970 C   0  0  0  0  0  0  0  0  0  0  0  0
   55.8770   29.7300   43.3670 Cl  0  0  0  0  0  0  0  0  0  0  0  0
   57.7160   31.0920   44.8530 C   0  0  0  0  0  0  0  0  0  0  0  0
   61.8520   33.8410   47.2040 C   0  0  0  0  0  0  0  0  0  0  0  0
   62.1650   33.6830   45.9930 O   0  0  0  0  0  0  0  0  0  0  0  0
   64.0172   32.8554   50.3335 H   0  0  0  0  0  0  0  0  0  0  0  0
   65.5611   32.3907   49.5417 H   0  0  0  0  0  0  0  0  0  0  0  0
   65.0329   34.1076   49.5417 H   0  0  0  0  0  0  0  0  0  0  0  0
   64.5225   33.2879   47.3554 H   0  0  0  0  0  0  0  0  0  0  0  0
   63.8432   31.7531   48.0118 H   0  0  0  0  0  0  0  0  0  0  0  0
   62.2765   33.6371   50.3820 H   0  0  0  0  0  0  0  0  0  0  0  0
   59.9750   34.7666   49.6413 H   0  0  0  0  0  0  0  0  0  0  0  0
   58.9997   35.6207   47.3666 H   0  0  0  0  0  0  0  0  0  0  0  0
   60.0050   35.3970   45.8921 H   0  0  0  0  0  0  0  0  0  0  0  0
   60.3630   32.4910   45.7920 H   0  0  0  0  0  0  0  0  0  0  0  0
   59.5718   30.2972   47.6107 H   0  0  0  0  0  0  0  0  0  0  0  0
   58.3193   28.1607   47.3437 H   0  0  0  0  0  0  0  0  0  0  0  0
   57.1036   26.1407   46.6948 H   0  0  0  0  0  0  0  0  0  0  0  0
   56.3571   25.5910   45.1562 H   0  0  0  0  0  0  0  0  0  0  0  0
   58.0223   26.2648   45.1562 H   0  0  0  0  0  0  0  0  0  0  0  0
   57.5573   31.9129   44.1382 H   0  0  0  0  0  0  0  0  0  0  0  0
  1  2  1  0
  2  3  1  0
  3  4  1  0
  4  5  2  0
  5  6  1  0
  6  7  1  0
  7  8  1  0
  8  9  2  0
  8 10  1  0
 10 11  1  0
 11 12  2  0
 12 13  1  0
 13 14  2  0
 14 15  1  0
 15 16  1  0
 14 17  1  0
 17 18  1  0
 17 19  2  0
  6 20  1  0
 20 21  2  0
 20  3  1  0
 19 11  1  0
  1 22  1  0
  1 23  1  0
  1 24  1  0
  2 25  1  0
  2 26  1  0
  4 27  1  0
  5 28  1  0
  7 29  1  0
  7 30  1  0
 10 31  1  0
 12 32  1  0
 13 33  1  0
 16 34  1  0
 16 35  1  0
 16 36  1  0
 19 37  1  0
M  END
>  <UniqueID>  (34) 
32

>  <SMILES>  (34) 
CCn1ccn(CC(=O)Nc2ccc(OC)c(Cl)c2)c1=O

>  <Energy>  (34) 
66.76493937974631

>  <Genealogy>  (34) 
CCn1ccn(CC(=O)Nc2ccc(OC)c(Cl)c2)c1=O (3D coordinates assigned)
CCn1ccn(CC(=O)Nc2ccc(OC)c(Cl)c2)c1=O (optimized conformer: 66.76493937974631 kcal/mol)

>  <smiles>  (34) 
CCn1ccn(CC(=O)Nc2ccc(OC)c(Cl)c2)c1=O

>  <score_type>  (34) 
oracle

>  <origin>  (34) 
adg

>  <m_score__min__energy>  (34) 
-6.3799999999999999

>  <m_primary>  (34) 
energy

$$$$
34:0
     RDKit          3D

 41 44  0  0  0  0  0  0  0  0999 V2000
   55.1530   25.8780   46.0200 O   0  0  0  0  0  0  0  0  0  0  0  0
   56.0890   26.7180   45.9680 C   0  0  0  0  0  0  0  0  0  0  0  0
   57.3790   26.4630   46.6920 C   0  0  0  0  0  0  0  0  0  0  0  0
   58.5630   27.0880   45.9390 C   0  0  0  0  0  0  0  0  0  0  0  0
   58.2810   28.5100   45.5120 C   0  0  0  0  0  0  0  0  0  0  0  0
   59.3320   29.4250   45.3590 C   0  0  0  0  0  0  0  0  0  0  0  0
   59.0810   30.7120   44.8760 C   0  0  0  0  0  0  0  0  0  0  0  0
   57.7750   31.1000   44.5270 C   0  0  0  0  0  0  0  0  0  0  0  0
   57.5230   32.4160   43.9930 N   0  0  0  0  0  0  0  0  0  0  0  0
   57.0370   33.3060   45.0580 C   0  0  0  0  0  0  0  0  0  0  0  0
   58.1260   33.5620   46.0680 C   0  0  0  0  0  0  0  0  0  0  0  0
   59.2270   34.3700   45.7320 C   0  0  0  0  0  0  0  0  0  0  0  0
   60.2530   34.5860   46.6570 C   0  0  0  0  0  0  0  0  0  0  0  0
   60.1900   33.9880   47.9180 C   0  0  0  0  0  0  0  0  0  0  0  0
   59.1190   33.1460   48.2430 C   0  0  0  0  0  0  0  0  0  0  0  0
   58.0840   32.9400   47.3270 C   0  0  0  0  0  0  0  0  0  0  0  0
   59.1030   32.5170   49.4930 O   0  0  0  0  0  0  0  0  0  0  0  0
   60.2680   32.4940   50.3210 C   0  0  0  0  0  0  0  0  0  0  0  0
   61.0080   33.8360   50.2360 C   0  0  0  0  0  0  0  0  0  0  0  0
   61.1910   34.2130   48.8690 O   0  0  0  0  0  0  0  0  0  0  0  0
   56.7270   30.1710   44.6510 C   0  0  0  0  0  0  0  0  0  0  0  0
   56.9750   28.8860   45.1450 C   0  0  0  0  0  0  0  0  0  0  0  0
   55.8970   27.9570   45.2820 N   0  0  0  0  0  0  0  0  0  0  0  0
   57.3200   26.9025   47.6987 H   0  0  0  0  0  0  0  0  0  0  0  0
   57.5373   25.3763   46.7559 H   0  0  0  0  0  0  0  0  0  0  0  0
   59.4438   27.0840   46.5979 H   0  0  0  0  0  0  0  0  0  0  0  0
   58.7392   26.4915   45.0317 H   0  0  0  0  0  0  0  0  0  0  0  0
   60.3586   29.1286   45.6203 H   0  0  0  0  0  0  0  0  0  0  0  0
   59.9104   31.4264   44.7680 H   0  0  0  0  0  0  0  0  0  0  0  0
   56.8090   32.3570   43.2300 H   0  0  0  0  0  0  0  0  0  0  0  0
   58.4050   32.8050   43.5820 H   0  0  0  0  0  0  0  0  0  0  0  0
   56.7216   34.2622   44.6151 H   0  0  0  0  0  0  0  0  0  0  0  0
   56.1873   32.8248   45.5644 H   0  0  0  0  0  0  0  0  0  0  0  0
   59.2812   34.8344   44.7363 H   0  0  0  0  0  0  0  0  0  0  0  0
   61.1080   35.2255   46.3924 H   0  0  0  0  0  0  0  0  0  0  0  0
   57.2364   32.2908   47.5917 H   0  0  0  0  0  0  0  0  0  0  0  0
   59.9688   32.3099   51.3634 H   0  0  0  0  0  0  0  0  0  0  0  0
   60.9378   31.6933   49.9744 H   0  0  0  0  0  0  0  0  0  0  0  0
   60.4185   34.6092   50.7504 H   0  0  0  0  0  0  0  0  0  0  0  0
   61.9929   33.7339   50.7152 H   0  0  0  0  0  0  0  0  0  0  0  0
   55.7059   30.4564   44.3578 H   0  0  0  0  0  0  0  0  0  0  0  0
  1  2  2  0
  2  3  1  0
  3  4  1  0
  4  5  1  0
  5  6  2  0
  6  7  1  0
  7  8  2  0
  8  9  1  0
  9 10  1  0
 10 11  1  0
 11 12  2  0
 12 13  1  0
 13 14  2  0
 14 15  1  0
 15 16  2  0
 15 17  1  0
 17 18  1  0
 18 19  1  0
 19 20  1  0
  8 21  1  0
 21 22  2  0
 22 23  1  0
 23  2  1  0
 22  5  1  0
 16 11  1  0
 20 14  1  0
  3 24  1  0
  3 25  1  0
  4 26  1  0
  4 27  1  0
  6 28  1  0
  7 29  1  0
  9 30  1  0
  9 31  1  0
 10 32  1  0
 10 33  1  0
 12 34  1  0
 13 35  1  0
 16 36  1  0
 18 37  1  0
 18 38  1  0
 19 39  1  0
 19 40  1  0
 21 41  1  0
M  CHG  2   9   1  23  -1
M  END
>  <UniqueID>  (35) 
33

>  <SMILES>  (35) 
O=C1CCc2ccc([NH2+]Cc3ccc4c(c3)OCCO4)cc2[N-]1

>  <Energy>  (35) 
45.305701879936805

>  <Genealogy>  (35) 
O=C1CCc2ccc([NH2+]Cc3ccc4c(c3)OCCO4)cc2[N-]1 (protonated)
O=C1CCc2ccc([NH2+]Cc3ccc4c(c3)OCCO4)cc2[N-]1 (3D coordinates assigned)
O=C1CCc2ccc([NH2+]Cc3ccc4c(c3)OCCO4)cc2[N-]1 (nonaromatic ring conformer: 45.305701879936805 kcal/mol)

>  <smiles>  (35) 
O=C1CCc2ccc(NCc3ccc4c(c3)OCCO4)cc2N1

>  <score_type>  (35) 
oracle

>  <origin>  (35) 
adg

>  <m_score__min__energy>  (35) 
-8.3100000000000005

>  <m_primary>  (35) 
energy

$$$$
35:0
     RDKit          3D

 53 57  0  0  0  0  0  0  0  0999 V2000
   57.3420   31.2150   42.8310 O   0  0  0  0  0  0  0  0  0  0  0  0
   57.2490   30.8450   44.2850 S   0  0  0  0  0  0  0  0  0  0  0  0
   55.8600   31.1690   44.7600 O   0  0  0  0  0  0  0  0  0  0  0  0
   57.5330   29.1120   44.4690 C   0  0  0  0  0  0  0  0  0  0  0  0
   57.8440   28.3230   43.3540 C   0  0  0  0  0  0  0  0  0  0  0  0
   58.0790   26.9530   43.5020 C   0  0  0  0  0  0  0  0  0  0  0  0
   58.0040   26.3500   44.7710 C   0  0  0  0  0  0  0  0  0  0  0  0
   58.2500   24.9020   44.9540 C   0  0  0  0  0  0  0  0  0  0  0  0
   58.9080   24.2790   45.9990 C   0  0  0  0  0  0  0  0  0  0  0  0
   58.9010   22.9560   45.7620 N   0  0  0  0  0  0  0  0  0  0  0  0
   58.2450   22.8140   44.5900 C   0  0  0  0  0  0  0  0  0  0  0  0
   57.9680   21.5130   43.8840 C   0  0  0  0  0  0  0  0  0  0  0  0
   56.7330   20.7530   44.3430 C   0  0  0  0  0  0  0  0  0  0  0  0
   56.7260   21.4790   43.0060 C   0  0  0  0  0  0  0  0  0  0  0  0
   57.8570   23.9750   44.1100 O   0  0  0  0  0  0  0  0  0  0  0  0
   57.6880   27.1470   45.8840 C   0  0  0  0  0  0  0  0  0  0  0  0
   57.4520   28.5160   45.7330 C   0  0  0  0  0  0  0  0  0  0  0  0
   58.4040   31.7830   45.1980 N   0  0  0  0  0  0  0  0  0  0  0  0
   58.1180   31.6840   46.6470 C   0  0  0  0  0  0  0  0  0  0  0  0
   58.7840   32.8100   47.4660 C   0  0  0  0  0  0  0  0  0  0  0  0
   59.8760   33.4340   46.7080 N   0  0  0  0  0  0  0  0  0  0  0  0
   61.1900   33.5590   47.2850 C   0  0  0  0  0  0  0  0  0  0  0  0
   62.3130   33.6890   46.4490 C   0  0  0  0  0  0  0  0  0  0  0  0
   63.5900   33.8260   46.9980 C   0  0  0  0  0  0  0  0  0  0  0  0
   63.7600   33.8360   48.3850 C   0  0  0  0  0  0  0  0  0  0  0  0
   62.6510   33.7080   49.2240 C   0  0  0  0  0  0  0  0  0  0  0  0
   61.3680   33.5710   48.6810 C   0  0  0  0  0  0  0  0  0  0  0  0
   60.3110   33.4210   49.5170 F   0  0  0  0  0  0  0  0  0  0  0  0
   59.6240   33.8970   45.3370 C   0  0  0  0  0  0  0  0  0  0  0  0
   58.4060   33.1820   44.7420 C   0  0  0  0  0  0  0  0  0  0  0  0
   57.9036   28.7839   42.3570 H   0  0  0  0  0  0  0  0  0  0  0  0
   58.3242   26.3423   42.6205 H   0  0  0  0  0  0  0  0  0  0  0  0
   59.3576   24.7781   46.8701 H   0  0  0  0  0  0  0  0  0  0  0  0
   59.3190   22.2160   46.3680 H   0  0  0  0  0  0  0  0  0  0  0  0
   59.0294   21.2617   43.7418 H   0  0  0  0  0  0  0  0  0  0  0  0
   56.7430   19.6534   44.3717 H   0  0  0  0  0  0  0  0  0  0  0  0
   56.0979   20.7707   45.2410 H   0  0  0  0  0  0  0  0  0  0  0  0
   56.7310   20.9044   42.0680 H   0  0  0  0  0  0  0  0  0  0  0  0
   56.0839   22.2390   42.5369 H   0  0  0  0  0  0  0  0  0  0  0  0
   57.6259   26.6896   46.8825 H   0  0  0  0  0  0  0  0  0  0  0  0
   57.2013   29.1283   46.6118 H   0  0  0  0  0  0  0  0  0  0  0  0
   57.0294   31.7384   46.7950 H   0  0  0  0  0  0  0  0  0  0  0  0
   58.5305   30.7279   47.0016 H   0  0  0  0  0  0  0  0  0  0  0  0
   58.0303   33.5742   47.7069 H   0  0  0  0  0  0  0  0  0  0  0  0
   59.1992   32.3758   48.3874 H   0  0  0  0  0  0  0  0  0  0  0  0
   62.1852   33.6828   45.3565 H   0  0  0  0  0  0  0  0  0  0  0  0
   64.4637   33.9262   46.3372 H   0  0  0  0  0  0  0  0  0  0  0  0
   64.7664   33.9446   48.8155 H   0  0  0  0  0  0  0  0  0  0  0  0
   62.7861   33.7149   50.3156 H   0  0  0  0  0  0  0  0  0  0  0  0
   59.4364   34.9808   45.3501 H   0  0  0  0  0  0  0  0  0  0  0  0
   60.5052   33.6711   44.7186 H   0  0  0  0  0  0  0  0  0  0  0  0
   57.4848   33.6809   45.0774 H   0  0  0  0  0  0  0  0  0  0  0  0
   58.4542   33.2156   43.6436 H   0  0  0  0  0  0  0  0  0  0  0  0
  1  2  2  0
  2  3  2  0
  2  4  1  0
  4  5  2  0
  5  6  1  0
  6  7  2  0
  7  8  1  0
  8  9  2  0
  9 10  1  0
 10 11  2  0
 11 12  1  0
 12 13  1  0
 13 14  1  0
 11 15  1  0
  7 16  1  0
 16 17  2  0
  2 18  1  0
 18 19  1  0
 19 20  1  0
 20 21  1  0
 21 22  1  0
 22 23  2  0
 23 24  1  0
 24 25  2  0
 25 26  1  0
 26 27  2  0
 27 28  1  0
 21 29  1  0
 29 30  1  0
 17  4  1  0
 30 18  1  0
 15  8  1  0
 27 22  1  0
 14 12  1  0
  5 31  1  0
  6 32  1  0
  9 33  1  0
 10 34  1  0
 12 35  1  0
 13 36  1  0
 13 37  1  0
 14 38  1  0
 14 39  1  0
 16 40  1  0
 17 41  1  0
 19 42  1  0
 19 43  1  0
 20 44  1  0
 20 45  1  0
 23 46  1  0
 24 47  1  0
 25 48  1  0
 26 49  1  0
 29 50  1  0
 29 51  1  0
 30 52  1  0
 30 53  1  0
M  CHG  1  10   1
M  END
>  <UniqueID>  (36) 
34

>  <SMILES>  (36) 
O=S(=O)(c1ccc(-c2c[nH+]c(C3CC3)o2)cc1)N1CCN(c2ccccc2F)CC1

>  <Energy>  (36) 
362.70290896500046

>  <Genealogy>  (36) 
O=S(=O)(c1ccc(-c2c[nH+]c(C3CC3)o2)cc1)N1CCN(c2ccccc2F)CC1 (protonated)
O=S(=O)(c1ccc(-c2c[nH+]c(C3CC3)o2)cc1)N1CCN(c2ccccc2F)CC1 (3D coordinates assigned)
O=S(=O)(c1ccc(-c2c[nH+]c(C3CC3)o2)cc1)N1CCN(c2ccccc2F)CC1 (nonaromatic ring conformer: 362.70290896500046 kcal/mol)

>  <smiles>  (36) 
O=S(=O)(c1ccc(-c2cnc(C3CC3)o2)cc1)N1CCN(c2ccccc2F)CC1

>  <score_type>  (36) 
oracle

>  <origin>  (36) 
adg

>  <m_score__min__energy>  (36) 
-7.7699999999999996

>  <m_primary>  (36) 
energy

$$$$
36:0
     RDKit          3D

 40 42  0  0  0  0  0  0  0  0999 V2000
   56.2370   29.7360   42.9960 C   0  0  0  0  0  0  0  0  0  0  0  0
   57.2030   30.0830   44.0780 C   0  0  0  0  0  0  0  0  0  0  0  0
   58.3880   29.4260   44.3460 C   0  0  0  0  0  0  0  0  0  0  0  0
   58.8790   30.0630   45.4680 C   0  0  0  0  0  0  0  0  0  0  0  0
   60.1900   29.7680   46.1280 C   0  0  0  0  0  0  0  0  0  0  0  0
   58.0160   31.0410   45.8290 N   0  0  0  0  0  0  0  0  0  0  0  0
   58.1500   31.9630   46.9630 C   0  0  0  0  0  0  0  0  0  0  0  0
   58.4150   33.4400   46.5390 C   0  0  2  0  0  0  0  0  0  0  0  0
   58.1440   33.7890   45.0780 C   0  0  0  0  0  0  0  0  0  0  0  0
   58.9080   35.0830   44.8650 C   0  0  0  0  0  0  0  0  0  0  0  0
   59.7870   35.2520   46.1060 C   0  0  0  0  0  0  0  0  0  0  0  0
   59.7430   33.9940   46.8790 N   0  0  0  0  0  0  0  0  0  0  0  0
   60.8770   33.1140   46.5070 C   0  0  0  0  0  0  0  0  0  0  0  0
   61.9950   33.2350   47.4980 C   0  0  0  0  0  0  0  0  0  0  0  0
   61.8970   33.8910   48.6740 N   0  0  0  0  0  0  0  0  0  0  0  0
   63.0450   33.8390   49.3990 C   0  0  0  0  0  0  0  0  0  0  0  0
   64.0780   33.1260   48.8000 C   0  0  0  0  0  0  0  0  0  0  0  0
   63.5210   32.5500   47.3190 S   0  0  0  0  0  0  0  0  0  0  0  0
   56.9920   31.0510   44.9910 N   0  0  0  0  0  0  0  0  0  0  0  0
   55.2914   29.3963   43.4437 H   0  0  0  0  0  0  0  0  0  0  0  0
   56.0499   30.6231   42.3731 H   0  0  0  0  0  0  0  0  0  0  0  0
   56.6572   28.9326   42.3731 H   0  0  0  0  0  0  0  0  0  0  0  0
   58.8371   28.5880   43.7927 H   0  0  0  0  0  0  0  0  0  0  0  0
   60.0650   29.7961   47.2205 H   0  0  0  0  0  0  0  0  0  0  0  0
   60.5369   28.7693   45.8242 H   0  0  0  0  0  0  0  0  0  0  0  0
   60.9313   30.5218   45.8242 H   0  0  0  0  0  0  0  0  0  0  0  0
   57.2196   31.9310   47.5490 H   0  0  0  0  0  0  0  0  0  0  0  0
   59.0229   31.6331   47.5454 H   0  0  0  0  0  0  0  0  0  0  0  0
   57.6511   33.9170   47.1706 H   0  0  0  0  0  0  0  0  0  0  0  0
   58.5186   32.9988   44.4107 H   0  0  0  0  0  0  0  0  0  0  0  0
   57.0710   33.8882   44.8572 H   0  0  0  0  0  0  0  0  0  0  0  0
   59.5300   35.0170   43.9602 H   0  0  0  0  0  0  0  0  0  0  0  0
   58.2296   35.9379   44.7277 H   0  0  0  0  0  0  0  0  0  0  0  0
   60.8223   35.4662   45.8024 H   0  0  0  0  0  0  0  0  0  0  0  0
   59.4200   36.0877   46.7200 H   0  0  0  0  0  0  0  0  0  0  0  0
   60.5298   32.0705   46.4813 H   0  0  0  0  0  0  0  0  0  0  0  0
   61.2493   33.4194   45.5180 H   0  0  0  0  0  0  0  0  0  0  0  0
   61.0340   34.3860   48.9960 H   0  0  0  0  0  0  0  0  0  0  0  0
   63.1491   34.3224   50.3816 H   0  0  0  0  0  0  0  0  0  0  0  0
   65.0821   32.9664   49.2198 H   0  0  0  0  0  0  0  0  0  0  0  0
  1  2  1  0
  2  3  1  0
  3  4  2  0
  4  5  1  0
  4  6  1  0
  6  7  1  0
  7  8  1  0
  8  9  1  0
  9 10  1  0
 10 11  1  0
 11 12  1  0
 12 13  1  0
 13 14  1  0
 14 15  2  0
 15 16  1  0
 16 17  2  0
 17 18  1  0
  6 19  1  0
 19  2  2  0
 12  8  1  0
 18 14  1  0
  1 20  1  0
  1 21  1  0
  1 22  1  0
  3 23  1  0
  5 24  1  0
  5 25  1  0
  5 26  1  0
  7 27  1  0
  7 28  1  0
  8 29  1  1
  9 30  1  0
  9 31  1  0
 10 32  1  0
 10 33  1  0
 11 34  1  0
 11 35  1  0
 13 36  1  0
 13 37  1  0
 15 38  1  0
 16 39  1  0
 17 40  1  0
M  CHG  1  15   1
M  END
>  <UniqueID>  (37) 
35

>  <SMILES>  (37) 
Cc1cc(C)n(C[C@@H]2CCCN2Cc2[nH+]ccs2)n1

>  <Energy>  (37) 
107.30009709639243

>  <Genealogy>  (37) 
Cc1cc(C)n(CC2CCCN2Cc2[nH+]ccs2)n1 (protonated)
Cc1cc(C)n(C[C@@H]2CCCN2Cc2[nH+]ccs2)n1 (chirality)
Cc1cc(C)n(C[C@@H]2CCCN2Cc2[nH+]ccs2)n1 (3D coordinates assigned)
Cc1cc(C)n(C[C@@H]2CCCN2Cc2[nH+]ccs2)n1 (nonaromatic ring conformer: 107.30009709639243 kcal/mol)

>  <smiles>  (37) 
Cc1cc(C)n(CC2CCCN2Cc2nccs2)n1

>  <score_type>  (37) 
oracle

>  <origin>  (37) 
adg

>  <m_score__min__energy>  (37) 
-5.8600000000000003

>  <m_primary>  (37) 
energy

$$$$
37:0
     RDKit          3D

107112  0  0  0  0  0  0  0  0999 V2000
   58.1940   30.3150   44.4390 C   0  0  0  0  0  0  0  0  0  0  0  0
   57.8190   31.2270   45.4550 O   0  0  0  0  0  0  0  0  0  0  0  0
   58.7340   31.1750   46.5490 C   0  0  1  0  0  0  0  0  0  0  0  0
   60.0060   30.4520   46.0910 C   0  0  0  0  0  0  0  0  0  0  0  0
   61.0540   30.3400   47.2190 C   0  0  0  0  0  0  0  0  0  0  0  0
   61.4540   31.7340   47.8440 C   0  0  1  0  0  0  0  0  0  0  0  0
   62.3470   32.4670   46.7860 C   0  0  0  0  0  0  0  0  0  0  0  0
   60.1490   32.5340   48.1990 C   0  0  1  0  0  0  0  0  0  0  0  0
   60.4180   33.8620   48.9670 C   0  0  0  0  0  0  0  0  0  0  0  0
   61.8810   34.1110   49.3500 C   0  0  0  0  0  0  0  0  0  0  0  0
   62.6610   32.8960   49.9780 C   0  0  2  0  0  0  0  0  0  0  0  0
   64.1770   33.2380   49.7970 C   0  0  0  0  0  0  0  0  0  0  0  0
   62.2930   31.5500   49.2030 C   0  0  1  0  0  0  0  0  0  0  0  0
   61.5850   30.6470   50.2500 C   0  0  1  0  0  0  0  0  0  0  0  0
   62.4300   29.5730   50.5980 O   0  0  0  0  0  0  0  0  0  0  0  0
   61.3260   31.5110   51.4510 C   0  0  0  0  0  0  0  0  0  0  0  0
   60.2940   31.3260   52.3290 C   0  0  0  0  0  0  0  0  0  0  0  0
   59.2500   30.2530   52.0280 C   0  0  0  0  0  0  0  0  0  0  0  0
   58.2270   29.8880   53.1590 C   0  0  2  0  0  0  0  0  0  0  0  0
   58.7160   28.6170   53.8920 C   0  0  0  0  0  0  0  0  0  0  0  0
   56.9040   29.5790   52.4760 C   0  0  0  0  0  0  0  0  0  0  0  0
   56.3310   28.4840   52.6990 O   0  0  0  0  0  0  0  0  0  0  0  0
   56.2820   30.5360   51.6690 O   0  0  0  0  0  0  0  0  0  0  0  0
   55.0470   31.1720   51.9940 C   0  0  0  0  0  0  0  0  0  0  0  0
   54.3500   30.4700   53.1860 C   0  0  0  0  0  0  0  0  0  0  0  0
   52.8950   30.1340   52.9980 N   0  0  0  0  0  0  0  0  0  0  0  0
   52.7040   28.6640   53.1130 C   0  0  0  0  0  0  0  0  0  0  0  0
   52.5000   30.5350   51.5990 C   0  0  0  0  0  0  0  0  0  0  0  0
   51.9840   31.9840   51.5050 C   0  0  0  0  0  0  0  0  0  0  0  0
   50.7480   32.2100   52.3900 C   0  0  0  0  0  0  0  0  0  0  0  0
   50.6610   31.2080   53.5510 C   0  0  0  0  0  0  0  0  0  0  0  0
   52.0650   30.8290   54.0440 C   0  0  0  0  0  0  0  0  0  0  0  0
   58.0210   31.0070   54.2230 C   0  0  0  0  0  0  0  0  0  0  0  0
   58.5240   32.3710   53.7420 C   0  0  0  0  0  0  0  0  0  0  0  0
   60.0410   32.3440   53.4290 C   0  0  1  0  0  0  0  0  0  0  0  0
   60.8280   31.9710   54.7230 C   0  0  0  0  0  0  0  0  0  0  0  0
   60.4320   33.7570   52.9250 C   0  0  0  0  0  0  0  0  0  0  0  0
   61.8880   33.8310   52.4240 C   0  0  0  0  0  0  0  0  0  0  0  0
   62.3490   32.6060   51.5290 C   0  0  2  0  0  0  0  0  0  0  0  0
   63.5720   31.9620   52.2610 C   0  0  0  0  0  0  0  0  0  0  0  0
   59.0370   32.6200   47.0700 C   0  0  0  0  0  0  0  0  0  0  0  0
   57.7250   33.1580   47.7130 C   0  0  0  0  0  0  0  0  0  0  0  0
   59.3960   33.5650   45.8850 C   0  0  0  0  0  0  0  0  0  0  0  0
   58.5741   29.3905   44.8982 H   0  0  0  0  0  0  0  0  0  0  0  0
   57.3189   30.0814   43.8147 H   0  0  0  0  0  0  0  0  0  0  0  0
   58.9803   30.7645   43.8147 H   0  0  0  0  0  0  0  0  0  0  0  0
   58.2960   30.6157   47.3889 H   0  0  0  0  0  0  0  0  0  0  0  0
   59.7365   29.4393   45.7566 H   0  0  0  0  0  0  0  0  0  0  0  0
   60.4516   31.0391   45.2744 H   0  0  0  0  0  0  0  0  0  0  0  0
   60.6408   29.7057   48.0171 H   0  0  0  0  0  0  0  0  0  0  0  0
   61.9640   29.9099   46.7753 H   0  0  0  0  0  0  0  0  0  0  0  0
   63.0974   33.0829   47.3032 H   0  0  0  0  0  0  0  0  0  0  0  0
   62.8552   31.7221   46.1559 H   0  0  0  0  0  0  0  0  0  0  0  0
   61.7155   33.1106   46.1559 H   0  0  0  0  0  0  0  0  0  0  0  0
   59.6513   31.8797   48.9298 H   0  0  0  0  0  0  0  0  0  0  0  0
   60.0864   34.6959   48.3309 H   0  0  0  0  0  0  0  0  0  0  0  0
   59.8642   33.7837   49.9142 H   0  0  0  0  0  0  0  0  0  0  0  0
   62.4170   34.4172   48.4396 H   0  0  0  0  0  0  0  0  0  0  0  0
   61.8482   34.8750   50.1407 H   0  0  0  0  0  0  0  0  0  0  0  0
   64.6493   33.3445   50.7847 H   0  0  0  0  0  0  0  0  0  0  0  0
   64.6714   32.4288   49.2395 H   0  0  0  0  0  0  0  0  0  0  0  0
   64.2761   34.1811   49.2395 H   0  0  0  0  0  0  0  0  0  0  0  0
   63.2126   31.0867   48.8162 H   0  0  0  0  0  0  0  0  0  0  0  0
   60.6480   30.2277   49.8547 H   0  0  0  0  0  0  0  0  0  0  0  0
   61.8810   28.7470   50.5690 H   0  0  0  0  0  0  0  0  0  0  0  0
   58.6692   30.5955   51.1588 H   0  0  0  0  0  0  0  0  0  0  0  0
   59.8346   29.3335   51.8771 H   0  0  0  0  0  0  0  0  0  0  0  0
   58.6554   28.7744   54.9790 H   0  0  0  0  0  0  0  0  0  0  0  0
   58.0819   27.7638   53.6092 H   0  0  0  0  0  0  0  0  0  0  0  0
   59.7584   28.4088   53.6092 H   0  0  0  0  0  0  0  0  0  0  0  0
   55.2433   32.2210   52.2607 H   0  0  0  0  0  0  0  0  0  0  0  0
   54.3837   31.1110   51.1186 H   0  0  0  0  0  0  0  0  0  0  0  0
   54.8886   29.5317   53.3850 H   0  0  0  0  0  0  0  0  0  0  0  0
   54.3815   31.1932   54.0142 H   0  0  0  0  0  0  0  0  0  0  0  0
   52.6672   28.3810   54.1753 H   0  0  0  0  0  0  0  0  0  0  0  0
   51.7611   28.3774   52.6244 H   0  0  0  0  0  0  0  0  0  0  0  0
   53.5424   28.1460   52.6244 H   0  0  0  0  0  0  0  0  0  0  0  0
   53.3788   30.4338   50.9452 H   0  0  0  0  0  0  0  0  0  0  0  0
   51.6765   29.8744   51.2901 H   0  0  0  0  0  0  0  0  0  0  0  0
   52.7828   32.6678   51.8282 H   0  0  0  0  0  0  0  0  0  0  0  0
   51.6959   32.1766   50.4610 H   0  0  0  0  0  0  0  0  0  0  0  0
   50.7936   33.2275   52.8055 H   0  0  0  0  0  0  0  0  0  0  0  0
   49.8572   32.0682   51.7604 H   0  0  0  0  0  0  0  0  0  0  0  0
   50.0974   31.6624   54.3792 H   0  0  0  0  0  0  0  0  0  0  0  0
   50.1518   30.2992   53.1978 H   0  0  0  0  0  0  0  0  0  0  0  0
   52.5871   31.7473   54.3509 H   0  0  0  0  0  0  0  0  0  0  0  0
   51.9382   30.1256   54.8802 H   0  0  0  0  0  0  0  0  0  0  0  0
   56.9473   31.0862   54.4488 H   0  0  0  0  0  0  0  0  0  0  0  0
   58.6019   30.7315   55.1156 H   0  0  0  0  0  0  0  0  0  0  0  0
   57.9767   32.6515   52.8300 H   0  0  0  0  0  0  0  0  0  0  0  0
   58.3524   33.1027   54.5452 H   0  0  0  0  0  0  0  0  0  0  0  0
   60.2355   32.2518   55.6063 H   0  0  0  0  0  0  0  0  0  0  0  0
   61.0171   30.8875   54.7377 H   0  0  0  0  0  0  0  0  0  0  0  0
   61.7864   32.5107   54.7377 H   0  0  0  0  0  0  0  0  0  0  0  0
   59.7613   34.0332   52.0980 H   0  0  0  0  0  0  0  0  0  0  0  0
   60.3386   34.4492   53.7748 H   0  0  0  0  0  0  0  0  0  0  0  0
   61.9984   34.7496   51.8290 H   0  0  0  0  0  0  0  0  0  0  0  0
   62.5242   33.8143   53.3212 H   0  0  0  0  0  0  0  0  0  0  0  0
   63.4292   32.0372   53.3491 H   0  0  0  0  0  0  0  0  0  0  0  0
   63.6550   30.9033   51.9744 H   0  0  0  0  0  0  0  0  0  0  0  0
   64.4919   32.4927   51.9744 H   0  0  0  0  0  0  0  0  0  0  0  0
   57.8123   33.1222   48.8089 H   0  0  0  0  0  0  0  0  0  0  0  0
   57.5586   34.1969   47.3922 H   0  0  0  0  0  0  0  0  0  0  0  0
   56.8771   32.5350   47.3922 H   0  0  0  0  0  0  0  0  0  0  0  0
   59.7607   34.5250   46.2791 H   0  0  0  0  0  0  0  0  0  0  0  0
   60.1800   33.0997   45.2695 H   0  0  0  0  0  0  0  0  0  0  0  0
   58.5008   33.7376   45.2695 H   0  0  0  0  0  0  0  0  0  0  0  0
  1  2  1  0
  2  3  1  0
  3  4  1  0
  4  5  1  0
  5  6  1  0
  6  7  1  6
  6  8  1  0
  8  9  1  0
  9 10  1  0
 10 11  1  0
 11 12  1  1
 11 13  1  0
 13 14  1  0
 14 15  1  0
 14 16  1  0
 16 17  2  0
 17 18  1  0
 18 19  1  0
 19 20  1  1
 19 21  1  0
 21 22  2  0
 21 23  1  0
 23 24  1  0
 24 25  1  0
 25 26  1  0
 26 27  1  0
 26 28  1  0
 28 29  1  0
 29 30  1  0
 30 31  1  0
 31 32  1  0
 19 33  1  0
 33 34  1  0
 34 35  1  0
 35 36  1  1
 35 37  1  0
 37 38  1  0
 38 39  1  0
 39 40  1  1
  8 41  1  0
 41 42  1  0
 41 43  1  0
 41  3  1  0
 13  6  1  0
 39 16  1  0
 39 11  1  0
 35 17  1  0
 32 26  1  0
  1 44  1  0
  1 45  1  0
  1 46  1  0
  3 47  1  1
  4 48  1  0
  4 49  1  0
  5 50  1  0
  5 51  1  0
  7 52  1  0
  7 53  1  0
  7 54  1  0
  8 55  1  1
  9 56  1  0
  9 57  1  0
 10 58  1  0
 10 59  1  0
 12 60  1  0
 12 61  1  0
 12 62  1  0
 13 63  1  6
 14 64  1  6
 15 65  1  0
 18 66  1  0
 18 67  1  0
 20 68  1  0
 20 69  1  0
 20 70  1  0
 24 71  1  0
 24 72  1  0
 25 73  1  0
 25 74  1  0
 27 75  1  0
 27 76  1  0
 27 77  1  0
 28 78  1  0
 28 79  1  0
 29 80  1  0
 29 81  1  0
 30 82  1  0
 30 83  1  0
 31 84  1  0
 31 85  1  0
 32 86  1  0
 32 87  1  0
 33 88  1  0
 33 89  1  0
 34 90  1  0
 34 91  1  0
 36 92  1  0
 36 93  1  0
 36 94  1  0
 37 95  1  0
 37 96  1  0
 38 97  1  0
 38 98  1  0
 40 99  1  0
 40100  1  0
 40101  1  0
 42102  1  0
 42103  1  0
 42104  1  0
 43105  1  0
 43106  1  0
 43107  1  0
M  CHG  1  26   1
M  END
>  <UniqueID>  (38) 
36

>  <SMILES>  (38) 
CO[C@H]1CC[C@@]2(C)C(CCC3(C)C2C(O)C2=C4CC(C)(C(=O)OCC[N+]5(C)CCCCC5)CCC4(C)CCC23C)C1(C)C

>  <Energy>  (38) 
200.65358340037412

>  <Genealogy>  (38) 
CO[C@H]1CC[C@@]2(C)C(CCC3(C)C2C(O)C2=C4CC(C)(C(=O)OCC[N+]5(C)CCCCC5)CCC4(C)CCC23C)C1(C)C (chirality)
CO[C@H]1CC[C@@]2(C)C(CCC3(C)C2C(O)C2=C4CC(C)(C(=O)OCC[N+]5(C)CCCCC5)CCC4(C)CCC23C)C1(C)C (3D coordinates assigned)
CO[C@H]1CC[C@@]2(C)C(CCC3(C)C2C(O)C2=C4CC(C)(C(=O)OCC[N+]5(C)CCCCC5)CCC4(C)CCC23C)C1(C)C (nonaromatic ring conformer: 200.65358340037412 kcal/mol)

>  <smiles>  (38) 
COC1CCC2(C)C(CCC3(C)C2C(O)C2=C4CC(C)(C(=O)OCC[N+]5(C)CCCCC5)CCC4(C)CCC23C)C1(C)C

>  <score_type>  (38) 
oracle

>  <origin>  (38) 
adg

>  <m_score__min__energy>  (38) 
-8.25

>  <m_primary>  (38) 
energy

$$$$
38:0
     RDKit          3D

 36 38  0  0  0  0  0  0  0  0999 V2000
   56.2590   30.8080   42.7330 F   0  0  0  0  0  0  0  0  0  0  0  0
   57.0160   30.2880   43.7300 C   0  0  0  0  0  0  0  0  0  0  0  0
   58.3620   30.6460   43.8440 C   0  0  0  0  0  0  0  0  0  0  0  0
   59.1490   30.1080   44.8670 C   0  0  0  0  0  0  0  0  0  0  0  0
   58.5920   29.1960   45.7800 C   0  0  0  0  0  0  0  0  0  0  0  0
   59.4440   28.5650   46.8480 C   0  0  0  0  0  0  0  0  0  0  0  0
   60.6080   29.4110   47.1590 N   0  0  0  0  0  0  0  0  0  0  0  0
   60.2250   30.7150   47.7270 C   0  0  0  0  0  0  0  0  0  0  0  0
   61.1900   31.8040   47.3090 C   0  0  0  0  0  0  0  0  0  0  0  0
   62.5670   31.6110   47.5170 C   0  0  0  0  0  0  0  0  0  0  0  0
   63.4520   32.6030   47.2400 N   0  0  0  0  0  0  0  0  0  0  0  0
   63.0510   33.8030   46.7510 C   0  0  0  0  0  0  0  0  0  0  0  0
   61.7000   34.0410   46.5060 C   0  0  0  0  0  0  0  0  0  0  0  0
   60.7550   33.0360   46.7610 C   0  0  0  0  0  0  0  0  0  0  0  0
   59.3690   33.2970   46.4820 N   0  0  0  0  0  0  0  0  0  0  0  0
   58.8400   33.6310   45.2940 C   0  0  0  0  0  0  0  0  0  0  0  0
   57.4740   33.7080   45.4440 C   0  0  0  0  0  0  0  0  0  0  0  0
   57.1410   33.3990   46.7130 N   0  0  0  0  0  0  0  0  0  0  0  0
   58.3210   33.1480   47.3170 C   0  0  0  0  0  0  0  0  0  0  0  0
   57.2350   28.8520   45.6690 C   0  0  0  0  0  0  0  0  0  0  0  0
   56.4520   29.3930   44.6450 C   0  0  0  0  0  0  0  0  0  0  0  0
   55.1460   29.0430   44.5370 F   0  0  0  0  0  0  0  0  0  0  0  0
   58.8038   31.3533   43.1267 H   0  0  0  0  0  0  0  0  0  0  0  0
   60.2059   30.3991   44.9574 H   0  0  0  0  0  0  0  0  0  0  0  0
   58.8411   28.4330   47.7585 H   0  0  0  0  0  0  0  0  0  0  0  0
   59.8041   27.5924   46.4815 H   0  0  0  0  0  0  0  0  0  0  0  0
   61.1700   28.9110   47.8870 H   0  0  0  0  0  0  0  0  0  0  0  0
   59.2161   30.9763   47.3751 H   0  0  0  0  0  0  0  0  0  0  0  0
   60.2471   30.6350   48.8239 H   0  0  0  0  0  0  0  0  0  0  0  0
   62.9303   30.6488   47.9072 H   0  0  0  0  0  0  0  0  0  0  0  0
   63.7931   34.5891   46.5476 H   0  0  0  0  0  0  0  0  0  0  0  0
   61.3749   35.0157   46.1131 H   0  0  0  0  0  0  0  0  0  0  0  0
   59.3998   33.8114   44.3644 H   0  0  0  0  0  0  0  0  0  0  0  0
   56.7630   33.9800   44.6499 H   0  0  0  0  0  0  0  0  0  0  0  0
   58.4173   32.8546   48.3728 H   0  0  0  0  0  0  0  0  0  0  0  0
   56.7862   28.1538   46.3909 H   0  0  0  0  0  0  0  0  0  0  0  0
  1  2  1  0
  2  3  2  0
  3  4  1  0
  4  5  2  0
  5  6  1  0
  6  7  1  0
  7  8  1  0
  8  9  1  0
  9 10  2  0
 10 11  1  0
 11 12  2  0
 12 13  1  0
 13 14  2  0
 14 15  1  0
 15 16  1  0
 16 17  2  0
 17 18  1  0
 18 19  2  0
  5 20  1  0
 20 21  2  0
 21 22  1  0
 21  2  1  0
 14  9  1  0
 19 15  1  0
  3 23  1  0
  4 24  1  0
  6 25  1  0
  6 26  1  0
  7 27  1  0
  8 28  1  0
  8 29  1  0
 10 30  1  0
 12 31  1  0
 13 32  1  0
 16 33  1  0
 17 34  1  0
 19 35  1  0
 20 36  1  0
M  END
>  <UniqueID>  (39) 
37

>  <SMILES>  (39) 
Fc1ccc(CNCc2cnccc2-n2ccnc2)cc1F

>  <Energy>  (39) 
71.6080363681143

>  <Genealogy>  (39) 
Fc1ccc(CNCc2cnccc2-n2ccnc2)cc1F (3D coordinates assigned)
Fc1ccc(CNCc2cnccc2-n2ccnc2)cc1F (optimized conformer: 71.6080363681143 kcal/mol)

>  <smiles>  (39) 
Fc1ccc(CNCc2cnccc2-n2ccnc2)cc1F

>  <score_type>  (39) 
oracle

>  <origin>  (39) 
adg

>  <m_score__min__energy>  (39) 
-6.3200000000000003

>  <m_primary>  (39) 
energy

$$$$
39:0
     RDKit          3D

 57 59  0  0  0  0  0  0  0  0999 V2000
   59.2460   35.0220   44.8830 C   0  0  0  0  0  0  0  0  0  0  0  0
   58.8420   33.7480   44.1320 C   0  0  0  0  0  0  0  0  0  0  0  0
   58.1040   32.7760   44.9830 N   0  0  0  0  0  0  0  0  0  0  0  0
   57.3850   31.7260   44.2020 C   0  0  0  0  0  0  0  0  0  0  0  0
   57.7580   31.6340   42.7110 C   0  0  0  0  0  0  0  0  0  0  0  0
   57.2610   33.3950   46.0420 C   0  0  0  0  0  0  0  0  0  0  0  0
   57.8510   33.3390   47.4640 C   0  0  0  0  0  0  0  0  0  0  0  0
   59.3090   33.0900   47.3880 N   0  0  0  0  0  0  0  0  0  0  0  0
   60.0760   34.2510   47.8920 C   0  0  0  0  0  0  0  0  0  0  0  0
   61.4920   33.8390   48.1930 C   0  0  0  0  0  0  0  0  0  0  0  0
   61.9420   33.8010   49.5240 C   0  0  0  0  0  0  0  0  0  0  0  0
   63.2620   33.4390   49.8100 C   0  0  0  0  0  0  0  0  0  0  0  0
   64.1410   33.1130   48.7730 C   0  0  0  0  0  0  0  0  0  0  0  0
   65.4210   32.7640   49.0540 F   0  0  0  0  0  0  0  0  0  0  0  0
   63.7000   33.1500   47.4470 C   0  0  0  0  0  0  0  0  0  0  0  0
   62.3810   33.5110   47.1560 C   0  0  0  0  0  0  0  0  0  0  0  0
   59.6840   31.8560   48.1100 C   0  0  0  0  0  0  0  0  0  0  0  0
   59.6130   30.6750   47.1790 C   0  0  0  0  0  0  0  0  0  0  0  0
   60.7410   30.3150   46.4210 C   0  0  0  0  0  0  0  0  0  0  0  0
   60.6770   29.2420   45.5260 C   0  0  0  0  0  0  0  0  0  0  0  0
   59.4870   28.5270   45.3810 C   0  0  0  0  0  0  0  0  0  0  0  0
   58.3660   28.8630   46.1530 C   0  0  0  0  0  0  0  0  0  0  0  0
   58.4220   29.9430   47.0380 C   0  0  0  0  0  0  0  0  0  0  0  0
   57.1980   28.1060   46.0200 O   0  0  0  0  0  0  0  0  0  0  0  0
   57.2050   26.8510   45.3360 C   0  0  0  0  0  0  0  0  0  0  0  0
   58.1220   26.9200   44.1080 C   0  0  0  0  0  0  0  0  0  0  0  0
   59.3910   27.4730   44.4670 O   0  0  0  0  0  0  0  0  0  0  0  0
   59.1891   34.8424   45.9667 H   0  0  0  0  0  0  0  0  0  0  0  0
   60.2755   35.2974   44.6106 H   0  0  0  0  0  0  0  0  0  0  0  0
   58.5633   35.8403   44.6106 H   0  0  0  0  0  0  0  0  0  0  0  0
   58.1991   34.0302   43.2852 H   0  0  0  0  0  0  0  0  0  0  0  0
   59.7683   33.2557   43.8009 H   0  0  0  0  0  0  0  0  0  0  0  0
   58.8410   32.2510   45.5120 H   0  0  0  0  0  0  0  0  0  0  0  0
   57.6008   30.7521   44.6656 H   0  0  0  0  0  0  0  0  0  0  0  0
   56.3215   32.0057   44.2296 H   0  0  0  0  0  0  0  0  0  0  0  0
   58.8219   31.3716   42.6147 H   0  0  0  0  0  0  0  0  0  0  0  0
   57.1442   30.8603   42.2265 H   0  0  0  0  0  0  0  0  0  0  0  0
   57.5744   32.6044   42.2265 H   0  0  0  0  0  0  0  0  0  0  0  0
   57.1054   34.4517   45.7792 H   0  0  0  0  0  0  0  0  0  0  0  0
   56.3304   32.8093   46.0736 H   0  0  0  0  0  0  0  0  0  0  0  0
   57.6693   34.2968   47.9736 H   0  0  0  0  0  0  0  0  0  0  0  0
   57.3705   32.5252   48.0269 H   0  0  0  0  0  0  0  0  0  0  0  0
   60.0812   35.0434   47.1291 H   0  0  0  0  0  0  0  0  0  0  0  0
   59.6042   34.6240   48.8130 H   0  0  0  0  0  0  0  0  0  0  0  0
   61.2538   34.0568   50.3431 H   0  0  0  0  0  0  0  0  0  0  0  0
   63.6095   33.4107   50.8533 H   0  0  0  0  0  0  0  0  0  0  0  0
   64.3920   32.8946   46.6310 H   0  0  0  0  0  0  0  0  0  0  0  0
   62.0381   33.5383   46.1112 H   0  0  0  0  0  0  0  0  0  0  0  0
   60.7097   31.9560   48.4945 H   0  0  0  0  0  0  0  0  0  0  0  0
   58.9866   31.7000   48.9462 H   0  0  0  0  0  0  0  0  0  0  0  0
   61.6783   30.8798   46.5323 H   0  0  0  0  0  0  0  0  0  0  0  0
   61.5631   28.9621   44.9373 H   0  0  0  0  0  0  0  0  0  0  0  0
   57.5335   30.2201   47.6243 H   0  0  0  0  0  0  0  0  0  0  0  0
   57.5692   26.0681   46.0175 H   0  0  0  0  0  0  0  0  0  0  0  0
   56.1820   26.6170   45.0064 H   0  0  0  0  0  0  0  0  0  0  0  0
   58.2683   25.9063   43.7068 H   0  0  0  0  0  0  0  0  0  0  0  0
   57.6540   27.5622   43.3474 H   0  0  0  0  0  0  0  0  0  0  0  0
  1  2  1  0
  2  3  1  0
  3  4  1  0
  4  5  1  0
  3  6  1  0
  6  7  1  0
  7  8  1  0
  8  9  1  0
  9 10  1  0
 10 11  2  0
 11 12  1  0
 12 13  2  0
 13 14  1  0
 13 15  1  0
 15 16  2  0
  8 17  1  0
 17 18  1  0
 18 19  2  0
 19 20  1  0
 20 21  2  0
 21 22  1  0
 22 23  2  0
 22 24  1  0
 24 25  1  0
 25 26  1  0
 26 27  1  0
 16 10  1  0
 23 18  1  0
 27 21  1  0
  1 28  1  0
  1 29  1  0
  1 30  1  0
  2 31  1  0
  2 32  1  0
  3 33  1  0
  4 34  1  0
  4 35  1  0
  5 36  1  0
  5 37  1  0
  5 38  1  0
  6 39  1  0
  6 40  1  0
  7 41  1  0
  7 42  1  0
  9 43  1  0
  9 44  1  0
 11 45  1  0
 12 46  1  0
 15 47  1  0
 16 48  1  0
 17 49  1  0
 17 50  1  0
 19 51  1  0
 20 52  1  0
 23 53  1  0
 25 54  1  0
 25 55  1  0
 26 56  1  0
 26 57  1  0
M  CHG  1   3   1
M  END
>  <UniqueID>  (40) 
38

>  <SMILES>  (40) 
CC[NH+](CC)CCN(Cc1ccc(F)cc1)Cc1ccc2c(c1)OCCO2

>  <Energy>  (40) 
66.39832013960542

>  <Genealogy>  (40) 
CC[NH+](CC)CCN(Cc1ccc(F)cc1)Cc1ccc2c(c1)OCCO2 (protonated)
CC[NH+](CC)CCN(Cc1ccc(F)cc1)Cc1ccc2c(c1)OCCO2 (3D coordinates assigned)
CC[NH+](CC)CCN(Cc1ccc(F)cc1)Cc1ccc2c(c1)OCCO2 (nonaromatic ring conformer: 66.39832013960542 kcal/mol)

>  <smiles>  (40) 
CCN(CC)CCN(Cc1ccc(F)cc1)Cc1ccc2c(c1)OCCO2

>  <score_type>  (40) 
oracle

>  <origin>  (40) 
adg

>  <m_score__min__energy>  (40) 
-5.4100000000000001

>  <m_primary>  (40) 
energy

$$$$
40:0
     RDKit          3D

 33 35  0  0  0  0  0  0  0  0999 V2000
   58.1740   31.2340   50.7600 C   0  0  0  0  0  0  0  0  0  0  0  0
   58.8810   31.0960   49.4160 C   0  0  0  0  0  0  0  0  0  0  0  0
   59.1870   32.4160   48.8640 N   0  0  0  0  0  0  0  0  0  0  0  0
   59.6630   33.4760   49.5610 C   0  0  0  0  0  0  0  0  0  0  0  0
   59.7820   34.5890   48.7350 C   0  0  0  0  0  0  0  0  0  0  0  0
   59.3440   34.1700   47.4960 C   0  0  0  0  0  0  0  0  0  0  0  0
   59.2350   34.8670   46.2980 C   0  0  0  0  0  0  0  0  0  0  0  0
   58.7340   34.1800   45.1800 C   0  0  0  0  0  0  0  0  0  0  0  0
   58.3410   32.8180   45.2770 C   0  0  0  0  0  0  0  0  0  0  0  0
   57.8350   32.1160   44.1240 N   0  0  0  0  0  0  0  0  0  0  0  0
   58.1350   32.4690   42.7440 C   0  0  0  0  0  0  0  0  0  0  0  0
   57.2070   31.6040   41.8720 C   0  0  0  0  0  0  0  0  0  0  0  0
   56.6040   30.5280   42.7840 C   0  0  0  0  0  0  0  0  0  0  0  0
   56.9980   30.9710   44.1360 C   0  0  0  0  0  0  0  0  0  0  0  0
   56.6850   30.3500   45.1870 O   0  0  0  0  0  0  0  0  0  0  0  0
   58.4800   32.1430   46.5130 C   0  0  0  0  0  0  0  0  0  0  0  0
   58.9860   32.8530   47.6040 C   0  0  0  0  0  0  0  0  0  0  0  0
   58.9011   31.0921   51.5731 H   0  0  0  0  0  0  0  0  0  0  0  0
   57.7275   32.2362   50.8382 H   0  0  0  0  0  0  0  0  0  0  0  0
   57.3834   30.4732   50.8382 H   0  0  0  0  0  0  0  0  0  0  0  0
   59.8170   30.5350   49.5545 H   0  0  0  0  0  0  0  0  0  0  0  0
   58.2202   30.5612   48.7179 H   0  0  0  0  0  0  0  0  0  0  0  0
   59.9195   33.4588   50.6305 H   0  0  0  0  0  0  0  0  0  0  0  0
   60.1473   35.5892   49.0109 H   0  0  0  0  0  0  0  0  0  0  0  0
   59.5319   35.9238   46.2279 H   0  0  0  0  0  0  0  0  0  0  0  0
   58.6447   34.7033   44.2166 H   0  0  0  0  0  0  0  0  0  0  0  0
   57.9359   33.5369   42.5709 H   0  0  0  0  0  0  0  0  0  0  0  0
   59.1937   32.2910   42.5042 H   0  0  0  0  0  0  0  0  0  0  0  0
   56.4075   32.2247   41.4412 H   0  0  0  0  0  0  0  0  0  0  0  0
   57.7648   31.1458   41.0420 H   0  0  0  0  0  0  0  0  0  0  0  0
   55.5091   30.4943   42.6836 H   0  0  0  0  0  0  0  0  0  0  0  0
   56.9545   29.5134   42.5437 H   0  0  0  0  0  0  0  0  0  0  0  0
   58.1964   31.0848   46.6120 H   0  0  0  0  0  0  0  0  0  0  0  0
  1  2  1  0
  2  3  1  0
  3  4  1  0
  4  5  2  0
  5  6  1  0
  6  7  2  0
  7  8  1  0
  8  9  2  0
  9 10  1  0
 10 11  1  0
 11 12  1  0
 12 13  1  0
 13 14  1  0
 14 15  2  0
  9 16  1  0
 16 17  2  0
 17  3  1  0
 17  6  1  0
 14 10  1  0
  1 18  1  0
  1 19  1  0
  1 20  1  0
  2 21  1  0
  2 22  1  0
  4 23  1  0
  5 24  1  0
  7 25  1  0
  8 26  1  0
 11 27  1  0
 11 28  1  0
 12 29  1  0
 12 30  1  0
 13 31  1  0
 13 32  1  0
 16 33  1  0
M  END
>  <UniqueID>  (41) 
39

>  <SMILES>  (41) 
CCn1ccc2ccc(N3CCCC3=O)cc21

>  <Energy>  (41) 
74.12029578792436

>  <Genealogy>  (41) 
CCn1ccc2ccc(N3CCCC3=O)cc21 (3D coordinates assigned)
CCn1ccc2ccc(N3CCCC3=O)cc21 (nonaromatic ring conformer: 74.12029578792436 kcal/mol)

>  <smiles>  (41) 
CCn1ccc2ccc(N3CCCC3=O)cc21

>  <score_type>  (41) 
oracle

>  <origin>  (41) 
adg

>  <m_score__min__energy>  (41) 
-6.7800000000000002

>  <m_primary>  (41) 
energy

$$$$
41:0
     RDKit          3D

 46 49  0  0  0  0  0  0  0  0999 V2000
   64.0327   33.2726   46.2455 H   0  0  0  0  0  0  0  0  0  0  0  0
   63.1880   33.5040   46.9110 C   0  0  0  0  0  0  0  0  0  0  0  0
   61.9220   33.7450   46.3700 C   0  0  0  0  0  0  0  0  0  0  0  0
   61.7738   33.6901   45.2814 H   0  0  0  0  0  0  0  0  0  0  0  0
   60.8370   34.0570   47.2070 C   0  0  0  0  0  0  0  0  0  0  0  0
   59.4930   34.3270   46.6380 C   0  0  0  0  0  0  0  0  0  0  0  0
   59.3120   35.3600   45.9410 O   0  0  0  0  0  0  0  0  0  0  0  0
   58.3660   33.4820   46.9210 N   0  0  0  0  0  0  0  0  0  0  0  0
   58.0010   32.4500   46.2160 C   0  0  0  0  0  0  0  0  0  0  0  0
   58.3820   31.1910   46.5010 N   0  0  0  0  0  0  0  0  0  0  0  0
   57.8570   30.2940   45.6070 C   0  0  0  0  0  0  0  0  0  0  0  0
   58.1680   28.8560   45.7040 C   0  0  0  0  0  0  0  0  0  0  0  0
   57.0290   27.6580   46.0260 S   0  0  0  0  0  0  0  0  0  0  0  0
   58.1670   26.4120   45.9910 C   0  0  0  0  0  0  0  0  0  0  0  0
   57.8870   25.0170   46.2230 N   0  0  0  0  0  0  0  0  0  0  0  0
   58.7610   24.0110   45.6040 C   0  0  0  0  0  0  0  0  0  0  0  0
   58.9730   24.3099   44.5668 H   0  0  0  0  0  0  0  0  0  0  0  0
   59.6904   23.9511   46.1894 H   0  0  0  0  0  0  0  0  0  0  0  0
   58.1030   22.6300   45.6000 C   0  0  0  0  0  0  0  0  0  0  0  0
   57.2815   22.6227   44.8685 H   0  0  0  0  0  0  0  0  0  0  0  0
   58.8584   21.8773   45.3302 H   0  0  0  0  0  0  0  0  0  0  0  0
   57.5900   22.3230   46.8760 O   0  0  0  0  0  0  0  0  0  0  0  0
   56.4970   23.1750   47.1490 C   0  0  0  0  0  0  0  0  0  0  0  0
   55.7735   23.1071   46.3232 H   0  0  0  0  0  0  0  0  0  0  0  0
   56.0345   22.8577   48.0953 H   0  0  0  0  0  0  0  0  0  0  0  0
   56.9550   24.6310   47.2950 C   0  0  0  0  0  0  0  0  0  0  0  0
   56.0736   25.2880   47.2552 H   0  0  0  0  0  0  0  0  0  0  0  0
   57.4777   24.7319   48.2576 H   0  0  0  0  0  0  0  0  0  0  0  0
   59.4090   26.8870   45.7510 N   0  0  0  0  0  0  0  0  0  0  0  0
   59.4220   28.2380   45.5880 C   0  0  0  0  0  0  0  0  0  0  0  0
   60.7030   28.9610   45.3130 C   0  0  0  0  0  0  0  0  0  0  0  0
   61.1829   29.2318   46.2650 H   0  0  0  0  0  0  0  0  0  0  0  0
   61.3753   28.3092   44.7359 H   0  0  0  0  0  0  0  0  0  0  0  0
   60.4924   29.8735   44.7359 H   0  0  0  0  0  0  0  0  0  0  0  0
   57.0520   30.7900   44.6250 N   0  0  0  0  0  0  0  0  0  0  0  0
   56.9990   32.4290   44.8860 S   0  0  0  0  0  0  0  0  0  0  0  0
   61.0350   34.0860   48.5970 C   0  0  0  0  0  0  0  0  0  0  0  0
   60.1884   34.3020   49.2653 H   0  0  0  0  0  0  0  0  0  0  0  0
   62.3020   33.8420   49.1370 C   0  0  0  0  0  0  0  0  0  0  0  0
   62.4459   33.8754   50.2270 H   0  0  0  0  0  0  0  0  0  0  0  0
   63.3870   33.5560   48.3030 C   0  0  0  0  0  0  0  0  0  0  0  0
   64.6400   33.3310   48.8930 O   0  0  0  0  0  0  0  0  0  0  0  0
   64.8930   32.3430   49.8870 C   0  0  0  0  0  0  0  0  0  0  0  0
   64.7786   32.7899   50.8856 H   0  0  0  0  0  0  0  0  0  0  0  0
   64.1778   31.5152   49.7716 H   0  0  0  0  0  0  0  0  0  0  0  0
   65.9180   31.9608   49.7716 H   0  0  0  0  0  0  0  0  0  0  0  0
  1  2  1  0
  2  3  2  0
  3  4  1  0
  3  5  1  0
  5  6  1  0
  6  7  2  0
  6  8  1  0
  8  9  2  0
  9 10  1  0
 10 11  1  0
 11 12  1  0
 12 13  1  0
 13 14  1  0
 14 15  1  0
 15 16  1  0
 16 17  1  0
 16 18  1  0
 16 19  1  0
 19 20  1  0
 19 21  1  0
 19 22  1  0
 22 23  1  0
 23 24  1  0
 23 25  1  0
 23 26  1  0
 26 27  1  0
 26 28  1  0
 14 29  2  0
 29 30  1  0
 30 31  1  0
 31 32  1  0
 31 33  1  0
 31 34  1  0
 11 35  2  0
 35 36  1  0
  5 37  2  0
 37 38  1  0
 37 39  1  0
 39 40  1  0
 39 41  2  0
 41 42  1  0
 42 43  1  0
 43 44  1  0
 43 45  1  0
 43 46  1  0
 41  2  1  0
 36  9  1  0
 30 12  2  0
 26 15  1  0
M  CHG  1  10  -1
M  END
>  <UniqueID>  (42) 
40

>  <SMILES>  (42) 
COc1ccc(C(=O)/N=c2/[n-]c(-c3sc(N4CCOCC4)nc3C)ns2)cc1

>  <Energy>  (42) 
126.36378776087514

>  <Genealogy>  (42) 
COc1ccc(C(=O)N=c2[n-]c(-c3sc(N4CCOCC4)nc3C)ns2)cc1 (protonated)
COc1ccc(C(=O)/N=c2/[n-]c(-c3sc(N4CCOCC4)nc3C)ns2)cc1 (cis-trans isomerization)
COc1ccc(C(=O)/N=c2/[n-]c(-c3sc(N4CCOCC4)nc3C)ns2)cc1 (3D coordinates assigned)
COc1ccc(C(=O)/N=c2/[n-]c(-c3sc(N4CCOCC4)nc3C)ns2)cc1 (nonaromatic ring conformer: 126.36378776087514 kcal/mol)

>  <smiles>  (42) 
COc1ccc(C(=O)N=c2[nH]c(-c3sc(N4CCOCC4)nc3C)ns2)cc1

>  <score_type>  (42) 
oracle

>  <origin>  (42) 
adg

>  <m_score__min__energy>  (42) 
-9.3699999999999992

>  <m_primary>  (42) 
energy

$$$$
42:0
     RDKit          3D

 41 42  0  0  0  0  0  0  0  0999 V2000
   58.0100   29.4980   44.9530 C   0  0  0  0  0  0  0  0  0  0  0  0
   56.9400   30.5100   44.9020 N   0  0  0  0  0  0  0  0  0  0  0  0
   55.9180   30.0900   43.9290 C   0  0  0  0  0  0  0  0  0  0  0  0
   57.4820   31.8360   44.5300 C   0  0  0  0  0  0  0  0  0  0  0  0
   57.0210   32.9110   45.5240 C   0  0  0  0  0  0  0  0  0  0  0  0
   57.2200   34.2590   44.9680 N   0  0  0  0  0  0  0  0  0  0  0  0
   58.5870   34.7650   45.1800 C   0  0  0  0  0  0  0  0  0  0  0  0
   58.9410   34.6640   46.6640 C   0  0  0  0  0  0  0  0  0  0  0  0
   60.1360   33.7800   46.8650 C   0  0  0  0  0  0  0  0  0  0  0  0
   61.4700   34.1460   46.7200 C   0  0  0  0  0  0  0  0  0  0  0  0
   62.2760   33.1140   47.0640 N   0  0  0  0  0  0  0  0  0  0  0  0
   63.7360   33.1310   47.0850 C   0  0  0  0  0  0  0  0  0  0  0  0
   61.4670   32.1080   47.4490 C   0  0  0  0  0  0  0  0  0  0  0  0
   61.8310   30.8470   47.9290 C   0  0  0  0  0  0  0  0  0  0  0  0
   60.8020   29.9610   48.2990 C   0  0  0  0  0  0  0  0  0  0  0  0
   59.4480   30.3490   48.1890 C   0  0  0  0  0  0  0  0  0  0  0  0
   58.4690   29.4860   48.5530 F   0  0  0  0  0  0  0  0  0  0  0  0
   59.1110   31.6260   47.7060 C   0  0  0  0  0  0  0  0  0  0  0  0
   60.1500   32.4810   47.3420 C   0  0  0  0  0  0  0  0  0  0  0  0
   58.2502   29.2709   46.0022 H   0  0  0  0  0  0  0  0  0  0  0  0
   57.6721   28.5813   44.4475 H   0  0  0  0  0  0  0  0  0  0  0  0
   58.9064   29.8864   44.4475 H   0  0  0  0  0  0  0  0  0  0  0  0
   55.0295   29.7249   44.4650 H   0  0  0  0  0  0  0  0  0  0  0  0
   55.6390   30.9464   43.2975 H   0  0  0  0  0  0  0  0  0  0  0  0
   56.3218   29.2849   43.2975 H   0  0  0  0  0  0  0  0  0  0  0  0
   58.5810   31.7901   44.5323 H   0  0  0  0  0  0  0  0  0  0  0  0
   57.1122   32.0999   43.5282 H   0  0  0  0  0  0  0  0  0  0  0  0
   55.9528   32.7654   45.7424 H   0  0  0  0  0  0  0  0  0  0  0  0
   57.6169   32.8183   46.4439 H   0  0  0  0  0  0  0  0  0  0  0  0
   56.5510   34.9010   45.4530 H   0  0  0  0  0  0  0  0  0  0  0  0
   59.2962   34.1641   44.5917 H   0  0  0  0  0  0  0  0  0  0  0  0
   58.6440   35.8156   44.8592 H   0  0  0  0  0  0  0  0  0  0  0  0
   59.1661   35.6689   47.0507 H   0  0  0  0  0  0  0  0  0  0  0  0
   58.0857   34.2304   47.2029 H   0  0  0  0  0  0  0  0  0  0  0  0
   61.8193   35.1307   46.3759 H   0  0  0  0  0  0  0  0  0  0  0  0
   64.0877   33.1351   48.1273 H   0  0  0  0  0  0  0  0  0  0  0  0
   64.1205   32.2373   46.5718 H   0  0  0  0  0  0  0  0  0  0  0  0
   64.0996   34.0334   46.5718 H   0  0  0  0  0  0  0  0  0  0  0  0
   62.8884   30.5561   48.0149 H   0  0  0  0  0  0  0  0  0  0  0  0
   61.0538   28.9590   48.6766 H   0  0  0  0  0  0  0  0  0  0  0  0
   58.0605   31.9403   47.6182 H   0  0  0  0  0  0  0  0  0  0  0  0
  1  2  1  0
  2  3  1  0
  2  4  1  0
  4  5  1  0
  5  6  1  0
  6  7  1  0
  7  8  1  0
  8  9  1  0
  9 10  2  0
 10 11  1  0
 11 12  1  0
 11 13  1  0
 13 14  2  0
 14 15  1  0
 15 16  2  0
 16 17  1  0
 16 18  1  0
 18 19  2  0
 19  9  1  0
 19 13  1  0
  1 20  1  0
  1 21  1  0
  1 22  1  0
  3 23  1  0
  3 24  1  0
  3 25  1  0
  4 26  1  0
  4 27  1  0
  5 28  1  0
  5 29  1  0
  6 30  1  0
  7 31  1  0
  7 32  1  0
  8 33  1  0
  8 34  1  0
 10 35  1  0
 12 36  1  0
 12 37  1  0
 12 38  1  0
 14 39  1  0
 15 40  1  0
 18 41  1  0
M  END
>  <UniqueID>  (43) 
41

>  <SMILES>  (43) 
CN(C)CCNCCc1cn(C)c2ccc(F)cc12

>  <Energy>  (43) 
69.70821456240935

>  <Genealogy>  (43) 
CN(C)CCNCCc1cn(C)c2ccc(F)cc12 (3D coordinates assigned)
CN(C)CCNCCc1cn(C)c2ccc(F)cc12 (optimized conformer: 69.70821456240935 kcal/mol)

>  <smiles>  (43) 
CN(C)CCNCCc1cn(C)c2ccc(F)cc12

>  <score_type>  (43) 
oracle

>  <origin>  (43) 
adg

>  <m_score__min__energy>  (43) 
-5.9800000000000004

>  <m_primary>  (43) 
energy

$$$$
43:0
     RDKit          3D

 36 38  0  0  0  0  0  0  0  0999 V2000
   59.2820   34.9640   47.0650 C   0  0  0  0  0  0  0  0  0  0  0  0
   60.0910   34.2060   46.0190 C   0  0  0  0  0  0  0  0  0  0  0  0
   60.1980   32.7530   46.3830 C   0  0  0  0  0  0  0  0  0  0  0  0
   61.1720   32.1420   47.1710 C   0  0  0  0  0  0  0  0  0  0  0  0
   62.3660   32.8100   47.7700 C   0  0  0  0  0  0  0  0  0  0  0  0
   60.8980   30.8610   47.3280 O   0  0  0  0  0  0  0  0  0  0  0  0
   59.7790   30.6080   46.6870 C   0  0  0  0  0  0  0  0  0  0  0  0
   59.3010   31.7460   46.0910 C   0  0  0  0  0  0  0  0  0  0  0  0
   58.1130   31.7590   45.3630 C   0  0  0  0  0  0  0  0  0  0  0  0
   57.3920   30.5470   45.2340 C   0  0  0  0  0  0  0  0  0  0  0  0
   56.1890   30.4720   44.5170 O   0  0  0  0  0  0  0  0  0  0  0  0
   56.0200   29.7470   43.3030 C   0  0  0  0  0  0  0  0  0  0  0  0
   57.8870   29.3680   45.8430 C   0  0  0  0  0  0  0  0  0  0  0  0
   57.2080   28.2300   45.7200 O   0  0  0  0  0  0  0  0  0  0  0  0
   57.6110   27.0840   46.2660 C   0  0  0  0  0  0  0  0  0  0  0  0
   56.7890   25.8510   46.0800 C   0  0  0  0  0  0  0  0  0  0  0  0
   58.7970   27.0350   47.0110 C   0  0  0  0  0  0  0  0  0  0  0  0
   59.5500   28.1980   47.1730 C   0  0  0  0  0  0  0  0  0  0  0  0
   60.6190   28.1630   47.8420 O   0  0  0  0  0  0  0  0  0  0  0  0
   59.1000   29.3890   46.5840 C   0  0  0  0  0  0  0  0  0  0  0  0
   59.6068   34.6597   48.0710 H   0  0  0  0  0  0  0  0  0  0  0  0
   59.4418   36.0451   46.9395 H   0  0  0  0  0  0  0  0  0  0  0  0
   58.2136   34.7343   46.9395 H   0  0  0  0  0  0  0  0  0  0  0  0
   59.5945   34.2981   45.0418 H   0  0  0  0  0  0  0  0  0  0  0  0
   61.1028   34.6354   45.9743 H   0  0  0  0  0  0  0  0  0  0  0  0
   62.2961   32.7709   48.8671 H   0  0  0  0  0  0  0  0  0  0  0  0
   63.2791   32.2917   47.4420 H   0  0  0  0  0  0  0  0  0  0  0  0
   62.4021   33.8594   47.4420 H   0  0  0  0  0  0  0  0  0  0  0  0
   57.7447   32.6866   44.9005 H   0  0  0  0  0  0  0  0  0  0  0  0
   55.7758   28.6993   43.5326 H   0  0  0  0  0  0  0  0  0  0  0  0
   55.2021   30.1947   42.7194 H   0  0  0  0  0  0  0  0  0  0  0  0
   56.9515   29.7869   42.7194 H   0  0  0  0  0  0  0  0  0  0  0  0
   56.5156   25.4408   47.0634 H   0  0  0  0  0  0  0  0  0  0  0  0
   55.8757   26.1002   45.5198 H   0  0  0  0  0  0  0  0  0  0  0  0
   57.3703   25.1038   45.5198 H   0  0  0  0  0  0  0  0  0  0  0  0
   59.1306   26.0894   47.4633 H   0  0  0  0  0  0  0  0  0  0  0  0
  1  2  1  0
  2  3  1  0
  3  4  2  0
  4  5  1  0
  4  6  1  0
  6  7  1  0
  7  8  2  0
  8  9  1  0
  9 10  2  0
 10 11  1  0
 11 12  1  0
 10 13  1  0
 13 14  1  0
 14 15  1  0
 15 16  1  0
 15 17  2  0
 17 18  1  0
 18 19  2  0
 18 20  1  0
  8  3  1  0
 20 13  2  0
 20  7  1  0
  1 21  1  0
  1 22  1  0
  1 23  1  0
  2 24  1  0
  2 25  1  0
  5 26  1  0
  5 27  1  0
  5 28  1  0
  9 29  1  0
 12 30  1  0
 12 31  1  0
 12 32  1  0
 16 33  1  0
 16 34  1  0
 16 35  1  0
 17 36  1  0
M  END
>  <UniqueID>  (44) 
42

>  <SMILES>  (44) 
CCc1c(C)oc2c1cc(OC)c1oc(C)cc(=O)c12

>  <Energy>  (44) 
69.77057445569892

>  <Genealogy>  (44) 
CCc1c(C)oc2c1cc(OC)c1oc(C)cc(=O)c12 (3D coordinates assigned)
CCc1c(C)oc2c1cc(OC)c1oc(C)cc(=O)c12 (optimized conformer: 69.77057445569892 kcal/mol)

>  <smiles>  (44) 
CCc1c(C)oc2c1cc(OC)c1oc(C)cc(=O)c12

>  <score_type>  (44) 
oracle

>  <origin>  (44) 
adg

>  <m_score__min__energy>  (44) 
-6.3300000000000001

>  <m_primary>  (44) 
energy

$$$$
44:0
     RDKit          3D

 41 43  0  0  0  0  0  0  0  0999 V2000
   58.1260   32.4450   42.8350 C   0  0  0  0  0  0  0  0  0  0  0  0
   58.2610   32.9090   44.2600 C   0  0  0  0  0  0  0  0  0  0  0  0
   58.9700   34.0960   44.5180 C   0  0  0  0  0  0  0  0  0  0  0  0
   59.0620   34.6010   45.8170 C   0  0  0  0  0  0  0  0  0  0  0  0
   59.7430   35.7500   46.0500 F   0  0  0  0  0  0  0  0  0  0  0  0
   58.4420   33.9330   46.8720 C   0  0  0  0  0  0  0  0  0  0  0  0
   57.7500   32.7440   46.6350 C   0  0  0  0  0  0  0  0  0  0  0  0
   57.6830   32.2000   45.3460 C   0  0  0  0  0  0  0  0  0  0  0  0
   57.0250   30.9660   45.1990 O   0  0  0  0  0  0  0  0  0  0  0  0
   57.6530   29.7570   44.8660 C   0  0  0  0  0  0  0  0  0  0  0  0
   57.1710   29.0540   43.8030 N   0  0  0  0  0  0  0  0  0  0  0  0
   57.7650   27.9150   43.3610 C   0  0  0  0  0  0  0  0  0  0  0  0
   58.8980   27.4240   44.0040 C   0  0  0  0  0  0  0  0  0  0  0  0
   59.3930   28.0910   45.1210 C   0  0  0  0  0  0  0  0  0  0  0  0
   58.7580   29.2530   45.6010 C   0  0  0  0  0  0  0  0  0  0  0  0
   59.2500   29.9100   46.8840 C   0  0  0  0  0  0  0  0  0  0  0  0
   60.6800   30.4530   46.7270 C   0  0  0  0  0  0  0  0  0  0  0  0
   61.1370   31.2010   47.9990 C   0  0  0  0  0  0  0  0  0  0  0  0
   60.3450   30.8440   49.1910 N   0  0  0  0  0  0  0  0  0  0  0  0
   60.0920   29.4000   49.2490 C   0  0  0  0  0  0  0  0  0  0  0  0
   59.1550   28.9640   48.1070 C   0  0  0  0  0  0  0  0  0  0  0  0
   57.8187   31.3889   42.8208 H   0  0  0  0  0  0  0  0  0  0  0  0
   57.3679   33.0544   42.3212 H   0  0  0  0  0  0  0  0  0  0  0  0
   59.0927   32.5525   42.3212 H   0  0  0  0  0  0  0  0  0  0  0  0
   59.4564   34.6314   43.6893 H   0  0  0  0  0  0  0  0  0  0  0  0
   58.4981   34.3429   47.8912 H   0  0  0  0  0  0  0  0  0  0  0  0
   57.2520   32.2287   47.4695 H   0  0  0  0  0  0  0  0  0  0  0  0
   56.3370   29.4180   43.2870 H   0  0  0  0  0  0  0  0  0  0  0  0
   57.3502   27.3800   42.4940 H   0  0  0  0  0  0  0  0  0  0  0  0
   59.3976   26.5171   43.6327 H   0  0  0  0  0  0  0  0  0  0  0  0
   60.2877   27.7073   45.6332 H   0  0  0  0  0  0  0  0  0  0  0  0
   58.5774   30.7592   47.0750 H   0  0  0  0  0  0  0  0  0  0  0  0
   61.3643   29.6124   46.5399 H   0  0  0  0  0  0  0  0  0  0  0  0
   60.6934   31.1595   45.8840 H   0  0  0  0  0  0  0  0  0  0  0  0
   62.1915   30.9541   48.1915 H   0  0  0  0  0  0  0  0  0  0  0  0
   60.9946   32.2767   47.8183 H   0  0  0  0  0  0  0  0  0  0  0  0
   60.8960   31.1140   50.0390 H   0  0  0  0  0  0  0  0  0  0  0  0
   61.0472   28.8623   49.1573 H   0  0  0  0  0  0  0  0  0  0  0  0
   59.6113   29.1640   50.2098 H   0  0  0  0  0  0  0  0  0  0  0  0
   59.4298   27.9468   47.7911 H   0  0  0  0  0  0  0  0  0  0  0  0
   58.1220   28.9988   48.4835 H   0  0  0  0  0  0  0  0  0  0  0  0
  1  2  1  0
  2  3  2  0
  3  4  1  0
  4  5  1  0
  4  6  2  0
  6  7  1  0
  7  8  2  0
  8  9  1  0
  9 10  1  0
 10 11  2  0
 11 12  1  0
 12 13  2  0
 13 14  1  0
 14 15  2  0
 15 16  1  0
 16 17  1  0
 17 18  1  0
 18 19  1  0
 19 20  1  0
 20 21  1  0
  8  2  1  0
 15 10  1  0
 21 16  1  0
  1 22  1  0
  1 23  1  0
  1 24  1  0
  3 25  1  0
  6 26  1  0
  7 27  1  0
 11 28  1  0
 12 29  1  0
 13 30  1  0
 14 31  1  0
 16 32  1  0
 17 33  1  0
 17 34  1  0
 18 35  1  0
 18 36  1  0
 19 37  1  0
 20 38  1  0
 20 39  1  0
 21 40  1  0
 21 41  1  0
M  CHG  1  11   1
M  END
>  <UniqueID>  (45) 
43

>  <SMILES>  (45) 
Cc1cc(F)ccc1Oc1[nH+]cccc1C1CCNCC1

>  <Energy>  (45) 
58.570622646161056

>  <Genealogy>  (45) 
Cc1cc(F)ccc1Oc1[nH+]cccc1C1CCNCC1 (protonated)
Cc1cc(F)ccc1Oc1[nH+]cccc1C1CCNCC1 (3D coordinates assigned)
Cc1cc(F)ccc1Oc1[nH+]cccc1C1CCNCC1 (nonaromatic ring conformer: 58.570622646161056 kcal/mol)

>  <smiles>  (45) 
Cc1cc(F)ccc1Oc1ncccc1C1CCNCC1

>  <score_type>  (45) 
oracle

>  <origin>  (45) 
adg

>  <m_score__min__energy>  (45) 
-5.4900000000000002

>  <m_primary>  (45) 
energy

$$$$
45:0
     RDKit          3D

 56 59  0  0  0  0  0  0  0  0999 V2000
   61.1040   30.7680   49.3890 C   0  0  0  0  0  0  0  0  0  0  0  0
   60.8050   32.0260   48.6830 N   0  0  0  0  0  0  0  0  0  0  0  0
   60.8060   33.1710   49.6310 C   0  0  0  0  0  0  0  0  0  0  0  0
   61.2450   34.5010   48.9800 C   0  0  0  0  0  0  0  0  0  0  0  0
   60.8440   34.5930   47.5630 N   0  0  0  0  0  0  0  0  0  0  0  0
   59.3860   34.7900   47.4040 C   0  0  0  0  0  0  0  0  0  0  0  0
   58.8410   33.8280   46.3840 C   0  0  0  0  0  0  0  0  0  0  0  0
   58.5860   34.2460   45.0690 C   0  0  0  0  0  0  0  0  0  0  0  0
   58.0560   33.3510   44.1370 C   0  0  0  0  0  0  0  0  0  0  0  0
   57.7830   32.0310   44.5060 C   0  0  0  0  0  0  0  0  0  0  0  0
   58.0550   31.5920   45.8140 C   0  0  0  0  0  0  0  0  0  0  0  0
   57.7660   30.2530   46.2430 N   0  0  0  0  0  0  0  0  0  0  0  0
   58.4610   29.5100   47.2550 C   0  0  0  0  0  0  0  0  0  0  0  0
   58.5290   29.9550   48.4320 O   0  0  0  0  0  0  0  0  0  0  0  0
   59.0520   28.1910   46.9280 C   0  0  0  0  0  0  0  0  0  0  0  0
   60.3470   27.8580   47.3670 C   0  0  0  0  0  0  0  0  0  0  0  0
   60.9010   26.6140   47.0550 C   0  0  0  0  0  0  0  0  0  0  0  0
   60.1750   25.6870   46.3070 C   0  0  0  0  0  0  0  0  0  0  0  0
   58.8770   25.9930   45.8700 C   0  0  0  0  0  0  0  0  0  0  0  0
   58.1080   25.0200   45.0620 C   0  0  0  0  0  0  0  0  0  0  0  0
   57.7820   23.7720   45.6230 C   0  0  0  0  0  0  0  0  0  0  0  0
   57.0470   22.8360   44.8910 C   0  0  0  0  0  0  0  0  0  0  0  0
   56.6330   23.1330   43.5910 C   0  0  0  0  0  0  0  0  0  0  0  0
   55.9210   22.2230   42.8820 F   0  0  0  0  0  0  0  0  0  0  0  0
   56.9610   24.3630   43.0170 C   0  0  0  0  0  0  0  0  0  0  0  0
   57.6970   25.3090   43.7410 C   0  0  0  0  0  0  0  0  0  0  0  0
   58.1390   26.8130   42.9370 Cl  0  0  0  0  0  0  0  0  0  0  0  0
   58.3250   27.2480   46.1750 C   0  0  0  0  0  0  0  0  0  0  0  0
   58.5630   32.5010   46.7510 C   0  0  0  0  0  0  0  0  0  0  0  0
   61.3750   33.4710   46.7450 C   0  0  0  0  0  0  0  0  0  0  0  0
   61.7580   32.2280   47.5750 C   0  0  0  0  0  0  0  0  0  0  0  0
   61.0635   30.9384   50.4750 H   0  0  0  0  0  0  0  0  0  0  0  0
   60.3621   30.0055   49.1096 H   0  0  0  0  0  0  0  0  0  0  0  0
   62.1097   30.4208   49.1096 H   0  0  0  0  0  0  0  0  0  0  0  0
   59.8460   31.9230   48.2750 H   0  0  0  0  0  0  0  0  0  0  0  0
   59.7882   33.2960   50.0289 H   0  0  0  0  0  0  0  0  0  0  0  0
   61.5341   32.9390   50.4223 H   0  0  0  0  0  0  0  0  0  0  0  0
   60.7845   35.3335   49.5322 H   0  0  0  0  0  0  0  0  0  0  0  0
   62.3432   34.5483   49.0215 H   0  0  0  0  0  0  0  0  0  0  0  0
   58.8883   34.6167   48.3695 H   0  0  0  0  0  0  0  0  0  0  0  0
   59.1974   35.8191   47.0642 H   0  0  0  0  0  0  0  0  0  0  0  0
   58.8043   35.2822   44.7712 H   0  0  0  0  0  0  0  0  0  0  0  0
   57.8528   33.6861   43.1092 H   0  0  0  0  0  0  0  0  0  0  0  0
   57.3542   31.3336   43.7713 H   0  0  0  0  0  0  0  0  0  0  0  0
   60.9264   28.5815   47.9593 H   0  0  0  0  0  0  0  0  0  0  0  0
   61.9149   26.3642   47.4009 H   0  0  0  0  0  0  0  0  0  0  0  0
   60.6215   24.7128   46.0588 H   0  0  0  0  0  0  0  0  0  0  0  0
   58.1081   23.5312   46.6456 H   0  0  0  0  0  0  0  0  0  0  0  0
   56.7942   21.8639   45.3394 H   0  0  0  0  0  0  0  0  0  0  0  0
   56.6393   24.5901   41.9899 H   0  0  0  0  0  0  0  0  0  0  0  0
   57.3135   27.4974   45.8219 H   0  0  0  0  0  0  0  0  0  0  0  0
   58.7460   32.1722   47.7846 H   0  0  0  0  0  0  0  0  0  0  0  0
   60.6057   33.1783   46.0153 H   0  0  0  0  0  0  0  0  0  0  0  0
   62.2949   33.8317   46.2615 H   0  0  0  0  0  0  0  0  0  0  0  0
   61.7473   31.3417   46.9236 H   0  0  0  0  0  0  0  0  0  0  0  0
   62.7626   32.3803   47.9964 H   0  0  0  0  0  0  0  0  0  0  0  0
  1  2  1  0
  2  3  1  0
  3  4  1  0
  4  5  1  0
  5  6  1  0
  6  7  1  0
  7  8  2  0
  8  9  1  0
  9 10  2  0
 10 11  1  0
 11 12  1  0
 12 13  1  0
 13 14  2  0
 13 15  1  0
 15 16  2  0
 16 17  1  0
 17 18  2  0
 18 19  1  0
 19 20  1  0
 20 21  2  0
 21 22  1  0
 22 23  2  0
 23 24  1  0
 23 25  1  0
 25 26  2  0
 26 27  1  0
 19 28  2  0
 11 29  2  0
  5 30  1  0
 30 31  1  0
 31  2  1  0
 29  7  1  0
 28 15  1  0
 26 20  1  0
  1 32  1  0
  1 33  1  0
  1 34  1  0
  2 35  1  0
  3 36  1  0
  3 37  1  0
  4 38  1  0
  4 39  1  0
  6 40  1  0
  6 41  1  0
  8 42  1  0
  9 43  1  0
 10 44  1  0
 16 45  1  0
 17 46  1  0
 18 47  1  0
 21 48  1  0
 22 49  1  0
 25 50  1  0
 28 51  1  0
 29 52  1  0
 30 53  1  0
 30 54  1  0
 31 55  1  0
 31 56  1  0
M  CHG  2   2   1  12  -1
M  END
>  <UniqueID>  (46) 
44

>  <SMILES>  (46) 
C[NH+]1CCN(Cc2cccc([N-]C(=O)c3cccc(-c4ccc(F)cc4Cl)c3)c2)CC1

>  <Energy>  (46) 
83.2781115777811

>  <Genealogy>  (46) 
C[NH+]1CCN(Cc2cccc([N-]C(=O)c3cccc(-c4ccc(F)cc4Cl)c3)c2)CC1 (protonated)
C[NH+]1CCN(Cc2cccc([N-]C(=O)c3cccc(-c4ccc(F)cc4Cl)c3)c2)CC1 (3D coordinates assigned)
C[NH+]1CCN(Cc2cccc([N-]C(=O)c3cccc(-c4ccc(F)cc4Cl)c3)c2)CC1 (nonaromatic ring conformer: 83.2781115777811 kcal/mol)

>  <smiles>  (46) 
CN1CCN(Cc2cccc(NC(=O)c3cccc(-c4ccc(F)cc4Cl)c3)c2)CC1

>  <score_type>  (46) 
oracle

>  <origin>  (46) 
adg

>  <m_score__min__energy>  (46) 
-9.2699999999999996

>  <m_primary>  (46) 
energy

$$$$
46:0
     RDKit          3D

 51 53  0  0  0  0  0  0  0  0999 V2000
   63.7620   33.6080   47.3420 C   0  0  0  0  0  0  0  0  0  0  0  0
   63.8010   32.8070   48.5180 O   0  0  0  0  0  0  0  0  0  0  0  0
   62.8610   31.8140   48.8300 C   0  0  0  0  0  0  0  0  0  0  0  0
   62.8450   31.3010   50.1310 C   0  0  0  0  0  0  0  0  0  0  0  0
   61.9270   30.3150   50.4910 C   0  0  0  0  0  0  0  0  0  0  0  0
   61.0110   29.8300   49.5540 C   0  0  0  0  0  0  0  0  0  0  0  0
   61.0070   30.3280   48.2390 C   0  0  0  0  0  0  0  0  0  0  0  0
   60.0520   29.8340   47.2730 N   0  0  0  0  0  0  0  0  0  0  0  0
   59.0020   28.8990   47.7030 C   0  0  0  0  0  0  0  0  0  0  0  0
   57.8750   28.8370   46.6720 C   0  0  0  0  0  0  0  0  0  0  0  0
   58.4280   28.5020   45.3470 N   0  0  0  0  0  0  0  0  0  0  0  0
   57.4120   28.2360   44.3030 C   0  0  0  0  0  0  0  0  0  0  0  0
   56.3340   29.3440   44.1500 C   0  0  1  0  0  0  0  0  0  0  0  0
   55.4120   29.3250   45.2120 O   0  0  0  0  0  0  0  0  0  0  0  0
   56.9680   30.7370   44.0010 C   0  0  0  0  0  0  0  0  0  0  0  0
   56.7340   31.5100   45.1620 O   0  0  0  0  0  0  0  0  0  0  0  0
   57.2430   32.8140   44.9810 C   0  0  0  0  0  0  0  0  0  0  0  0
   58.0790   33.1710   46.1670 C   0  0  0  0  0  0  0  0  0  0  0  0
   59.0280   34.1720   46.2180 C   0  0  0  0  0  0  0  0  0  0  0  0
   59.5510   34.1200   47.4930 C   0  0  0  0  0  0  0  0  0  0  0  0
   58.8870   33.0960   48.1400 C   0  0  0  0  0  0  0  0  0  0  0  0
   58.0170   32.5490   47.3230 O   0  0  0  0  0  0  0  0  0  0  0  0
   59.5700   29.3380   44.8960 C   0  0  0  0  0  0  0  0  0  0  0  0
   59.9990   30.4030   45.9190 C   0  0  0  0  0  0  0  0  0  0  0  0
   61.9370   31.3240   47.8860 C   0  0  0  0  0  0  0  0  0  0  0  0
   63.7103   34.6702   47.6234 H   0  0  0  0  0  0  0  0  0  0  0  0
   64.6699   33.4301   46.7469 H   0  0  0  0  0  0  0  0  0  0  0  0
   62.8757   33.3428   46.7469 H   0  0  0  0  0  0  0  0  0  0  0  0
   63.5616   31.6780   50.8755 H   0  0  0  0  0  0  0  0  0  0  0  0
   61.9240   29.9175   51.5167 H   0  0  0  0  0  0  0  0  0  0  0  0
   60.2886   29.0539   49.8468 H   0  0  0  0  0  0  0  0  0  0  0  0
   59.4384   27.8962   47.8211 H   0  0  0  0  0  0  0  0  0  0  0  0
   58.5865   29.2507   48.6589 H   0  0  0  0  0  0  0  0  0  0  0  0
   57.1492   28.0661   46.9703 H   0  0  0  0  0  0  0  0  0  0  0  0
   57.3759   29.8159   46.6203 H   0  0  0  0  0  0  0  0  0  0  0  0
   57.9311   28.1274   43.3393 H   0  0  0  0  0  0  0  0  0  0  0  0
   56.8794   27.3246   44.6124 H   0  0  0  0  0  0  0  0  0  0  0  0
   55.7824   29.1248   43.2239 H   0  0  0  0  0  0  0  0  0  0  0  0
   55.8570   29.7230   46.0040 H   0  0  0  0  0  0  0  0  0  0  0  0
   58.0521   30.6279   43.8502 H   0  0  0  0  0  0  0  0  0  0  0  0
   56.5162   31.2449   43.1362 H   0  0  0  0  0  0  0  0  0  0  0  0
   57.8590   32.8478   44.0703 H   0  0  0  0  0  0  0  0  0  0  0  0
   56.4135   33.5291   44.8783 H   0  0  0  0  0  0  0  0  0  0  0  0
   59.3082   34.8654   45.4113 H   0  0  0  0  0  0  0  0  0  0  0  0
   60.3386   34.7644   47.9108 H   0  0  0  0  0  0  0  0  0  0  0  0
   59.0607   32.7861   49.1811 H   0  0  0  0  0  0  0  0  0  0  0  0
   60.4281   28.6778   44.7015 H   0  0  0  0  0  0  0  0  0  0  0  0
   59.2394   29.8737   43.9939 H   0  0  0  0  0  0  0  0  0  0  0  0
   60.9952   30.7828   45.6481 H   0  0  0  0  0  0  0  0  0  0  0  0
   59.2621   31.2196   45.9081 H   0  0  0  0  0  0  0  0  0  0  0  0
   61.9424   31.7243   46.8614 H   0  0  0  0  0  0  0  0  0  0  0  0
  1  2  1  0
  2  3  1  0
  3  4  2  0
  4  5  1  0
  5  6  2  0
  6  7  1  0
  7  8  1  0
  8  9  1  0
  9 10  1  0
 10 11  1  0
 11 12  1  0
 12 13  1  0
 13 14  1  0
 13 15  1  0
 15 16  1  0
 16 17  1  0
 17 18  1  0
 18 19  2  0
 19 20  1  0
 20 21  2  0
 21 22  1  0
 11 23  1  0
 23 24  1  0
  7 25  2  0
 25  3  1  0
 24  8  1  0
 22 18  1  0
  1 26  1  0
  1 27  1  0
  1 28  1  0
  4 29  1  0
  5 30  1  0
  6 31  1  0
  9 32  1  0
  9 33  1  0
 10 34  1  0
 10 35  1  0
 12 36  1  0
 12 37  1  0
 13 38  1  6
 14 39  1  0
 15 40  1  0
 15 41  1  0
 17 42  1  0
 17 43  1  0
 19 44  1  0
 20 45  1  0
 21 46  1  0
 23 47  1  0
 23 48  1  0
 24 49  1  0
 24 50  1  0
 25 51  1  0
M  END
>  <UniqueID>  (47) 
45

>  <SMILES>  (47) 
COc1cccc(N2CCN(C[C@@H](O)COCc3ccco3)CC2)c1

>  <Energy>  (47) 
89.67200891919728

>  <Genealogy>  (47) 
COc1cccc(N2CCN(C[C@@H](O)COCc3ccco3)CC2)c1 (chirality)
COc1cccc(N2CCN(C[C@@H](O)COCc3ccco3)CC2)c1 (3D coordinates assigned)
COc1cccc(N2CCN(C[C@@H](O)COCc3ccco3)CC2)c1 (nonaromatic ring conformer: 89.67200891919728 kcal/mol)

>  <smiles>  (47) 
COc1cccc(N2CCN(CC(O)COCc3ccco3)CC2)c1

>  <score_type>  (47) 
oracle

>  <origin>  (47) 
adg

>  <m_score__min__energy>  (47) 
-7.71

>  <m_primary>  (47) 
energy

$$$$
47:0
     RDKit          3D

 43 45  0  0  0  0  0  0  0  0999 V2000
   59.2960   34.9720   47.2770 C   0  0  0  0  0  0  0  0  0  0  0  0
   59.3600   35.0310   45.4580 S   0  0  0  0  0  0  0  0  0  0  0  0
   57.7470   34.2050   45.2260 C   0  0  0  0  0  0  0  0  0  0  0  0
   57.5460   33.0920   46.2590 C   0  0  0  0  0  0  0  0  0  0  0  0
   58.3450   31.8970   45.9320 N   0  0  0  0  0  0  0  0  0  0  0  0
   57.8780   30.9510   44.9460 C   0  0  0  0  0  0  0  0  0  0  0  0
   57.1060   31.3690   43.8460 C   0  0  0  0  0  0  0  0  0  0  0  0
   56.6650   30.4380   42.8990 C   0  0  0  0  0  0  0  0  0  0  0  0
   56.9850   29.0860   43.0410 C   0  0  0  0  0  0  0  0  0  0  0  0
   57.7490   28.6590   44.1310 C   0  0  0  0  0  0  0  0  0  0  0  0
   58.1530   26.9610   44.3090 Cl  0  0  0  0  0  0  0  0  0  0  0  0
   58.1940   29.5870   45.0800 C   0  0  0  0  0  0  0  0  0  0  0  0
   59.5480   31.5940   46.6700 C   0  0  0  0  0  0  0  0  0  0  0  0
   59.5950   30.4690   47.4350 N   0  0  0  0  0  0  0  0  0  0  0  0
   60.7050   30.1180   48.1360 C   0  0  0  0  0  0  0  0  0  0  0  0
   60.6940   28.9090   48.9180 N   0  0  0  0  0  0  0  0  0  0  0  0
   60.9910   28.7490   50.2220 C   0  0  0  0  0  0  0  0  0  0  0  0
   60.8400   27.4170   50.5350 C   0  0  0  0  0  0  0  0  0  0  0  0
   60.4490   26.7380   49.4390 N   0  0  0  0  0  0  0  0  0  0  0  0
   60.3700   27.6760   48.4740 C   0  0  0  0  0  0  0  0  0  0  0  0
   61.8360   30.9420   48.0670 C   0  0  0  0  0  0  0  0  0  0  0  0
   61.7830   32.0990   47.2840 C   0  0  0  0  0  0  0  0  0  0  0  0
   62.9990   32.9700   47.1460 C   0  0  0  0  0  0  0  0  0  0  0  0
   60.6500   32.3930   46.5870 N   0  0  0  0  0  0  0  0  0  0  0  0
   60.0448   35.6623   47.6928 H   0  0  0  0  0  0  0  0  0  0  0  0
   58.2935   35.2694   47.6185 H   0  0  0  0  0  0  0  0  0  0  0  0
   59.5110   33.9487   47.6185 H   0  0  0  0  0  0  0  0  0  0  0  0
   56.9433   34.9479   45.3368 H   0  0  0  0  0  0  0  0  0  0  0  0
   57.7236   33.7584   44.2210 H   0  0  0  0  0  0  0  0  0  0  0  0
   57.8494   33.4644   47.2486 H   0  0  0  0  0  0  0  0  0  0  0  0
   56.4836   32.8070   46.2552 H   0  0  0  0  0  0  0  0  0  0  0  0
   56.8482   32.4321   43.7302 H   0  0  0  0  0  0  0  0  0  0  0  0
   56.0644   30.7720   42.0401 H   0  0  0  0  0  0  0  0  0  0  0  0
   56.6358   28.3570   42.2950 H   0  0  0  0  0  0  0  0  0  0  0  0
   58.7949   29.2471   45.9364 H   0  0  0  0  0  0  0  0  0  0  0  0
   61.3004   29.5443   50.9161 H   0  0  0  0  0  0  0  0  0  0  0  0
   61.0121   26.9749   51.5274 H   0  0  0  0  0  0  0  0  0  0  0  0
   60.0736   27.4600   47.4369 H   0  0  0  0  0  0  0  0  0  0  0  0
   62.7509   30.6828   48.6200 H   0  0  0  0  0  0  0  0  0  0  0  0
   63.3733   33.2381   48.1450 H   0  0  0  0  0  0  0  0  0  0  0  0
   63.7801   32.4247   46.5960 H   0  0  0  0  0  0  0  0  0  0  0  0
   62.7341   33.8850   46.5960 H   0  0  0  0  0  0  0  0  0  0  0  0
   60.6460   33.2270   45.9590 H   0  0  0  0  0  0  0  0  0  0  0  0
  1  2  1  0
  2  3  1  0
  3  4  1  0
  4  5  1  0
  5  6  1  0
  6  7  2  0
  7  8  1  0
  8  9  2  0
  9 10  1  0
 10 11  1  0
 10 12  2  0
  5 13  1  0
 13 14  2  0
 14 15  1  0
 15 16  1  0
 16 17  1  0
 17 18  2  0
 18 19  1  0
 19 20  2  0
 15 21  2  0
 21 22  1  0
 22 23  1  0
 22 24  2  0
 12  6  1  0
 24 13  1  0
 20 16  1  0
  1 25  1  0
  1 26  1  0
  1 27  1  0
  3 28  1  0
  3 29  1  0
  4 30  1  0
  4 31  1  0
  7 32  1  0
  8 33  1  0
  9 34  1  0
 12 35  1  0
 17 36  1  0
 18 37  1  0
 20 38  1  0
 21 39  1  0
 23 40  1  0
 23 41  1  0
 23 42  1  0
 24 43  1  0
M  CHG  1  24   1
M  END
>  <UniqueID>  (48) 
46

>  <SMILES>  (48) 
CSCCN(c1cccc(Cl)c1)c1nc(-n2ccnc2)cc(C)[nH+]1

>  <Energy>  (48) 
76.54874660653205

>  <Genealogy>  (48) 
CSCCN(c1cccc(Cl)c1)c1nc(-n2ccnc2)cc(C)[nH+]1 (protonated)
CSCCN(c1cccc(Cl)c1)c1nc(-n2ccnc2)cc(C)[nH+]1 (3D coordinates assigned)
CSCCN(c1cccc(Cl)c1)c1nc(-n2ccnc2)cc(C)[nH+]1 (optimized conformer: 76.54874660653205 kcal/mol)

>  <smiles>  (48) 
CSCCN(c1cccc(Cl)c1)c1nc(C)cc(-n2ccnc2)n1

>  <score_type>  (48) 
oracle

>  <origin>  (48) 
adg

>  <m_score__min__energy>  (48) 
-5.6699999999999999

>  <m_primary>  (48) 
energy

$$$$
48:0
     RDKit          3D

 35 37  0  0  0  0  0  0  0  0999 V2000
   57.0370   33.6470   44.9100 C   0  0  0  0  0  0  0  0  0  0  0  0
   57.6470   32.3240   45.2430 C   0  0  0  0  0  0  0  0  0  0  0  0
   58.9980   32.2380   45.6040 C   0  0  0  0  0  0  0  0  0  0  0  0
   59.5510   30.9930   45.9100 C   0  0  0  0  0  0  0  0  0  0  0  0
   58.7540   29.8430   45.8560 C   0  0  0  0  0  0  0  0  0  0  0  0
   59.2810   28.5820   46.1520 C   0  0  0  0  0  0  0  0  0  0  0  0
   58.4640   27.4500   46.0950 C   0  0  0  0  0  0  0  0  0  0  0  0
   57.1050   27.5610   45.7510 C   0  0  0  0  0  0  0  0  0  0  0  0
   56.2670   26.3370   45.7170 C   0  0  0  0  0  0  0  0  0  0  0  0
   55.0400   26.4260   45.9970 O   0  0  0  0  0  0  0  0  0  0  0  0
   56.8210   25.0060   45.3750 C   0  0  0  0  0  0  0  0  0  0  0  0
   56.8630   24.6290   44.0220 C   0  0  0  0  0  0  0  0  0  0  0  0
   57.3450   23.3740   43.6480 C   0  0  0  0  0  0  0  0  0  0  0  0
   57.7960   22.4810   44.6190 C   0  0  0  0  0  0  0  0  0  0  0  0
   57.7840   22.8470   45.9660 C   0  0  0  0  0  0  0  0  0  0  0  0
   57.3210   24.1140   46.3600 C   0  0  0  0  0  0  0  0  0  0  0  0
   57.3650   24.4790   47.8220 C   0  0  0  0  0  0  0  0  0  0  0  0
   56.5770   28.8320   45.4300 C   0  0  0  0  0  0  0  0  0  0  0  0
   55.2490   28.9700   45.0350 O   0  0  0  0  0  0  0  0  0  0  0  0
   57.3960   29.9690   45.4920 C   0  0  0  0  0  0  0  0  0  0  0  0
   56.8870   31.1950   45.1960 N   0  0  0  0  0  0  0  0  0  0  0  0
   56.7906   34.1815   45.8393 H   0  0  0  0  0  0  0  0  0  0  0  0
   57.7513   34.2427   44.3228 H   0  0  0  0  0  0  0  0  0  0  0  0
   56.1201   33.4906   44.3228 H   0  0  0  0  0  0  0  0  0  0  0  0
   59.6188   33.1451   45.6461 H   0  0  0  0  0  0  0  0  0  0  0  0
   60.6111   30.9157   46.1931 H   0  0  0  0  0  0  0  0  0  0  0  0
   60.3405   28.4811   46.4302 H   0  0  0  0  0  0  0  0  0  0  0  0
   58.8886   26.4609   46.3217 H   0  0  0  0  0  0  0  0  0  0  0  0
   56.5125   25.3300   43.2501 H   0  0  0  0  0  0  0  0  0  0  0  0
   57.3691   23.0890   42.5858 H   0  0  0  0  0  0  0  0  0  0  0  0
   58.1618   21.4867   44.3232 H   0  0  0  0  0  0  0  0  0  0  0  0
   58.1405   22.1367   46.7265 H   0  0  0  0  0  0  0  0  0  0  0  0
   57.2553   23.5692   48.4305 H   0  0  0  0  0  0  0  0  0  0  0  0
   58.3276   24.9596   48.0511 H   0  0  0  0  0  0  0  0  0  0  0  0
   56.5442   25.1745   48.0511 H   0  0  0  0  0  0  0  0  0  0  0  0
  1  2  1  0
  2  3  2  0
  3  4  1  0
  4  5  2  0
  5  6  1  0
  6  7  2  0
  7  8  1  0
  8  9  1  0
  9 10  2  0
  9 11  1  0
 11 12  2  0
 12 13  1  0
 13 14  2  0
 14 15  1  0
 15 16  2  0
 16 17  1  0
  8 18  2  0
 18 19  1  0
 18 20  1  0
 20 21  2  0
 21  2  1  0
 20  5  1  0
 16 11  1  0
  1 22  1  0
  1 23  1  0
  1 24  1  0
  3 25  1  0
  4 26  1  0
  6 27  1  0
  7 28  1  0
 12 29  1  0
 13 30  1  0
 14 31  1  0
 15 32  1  0
 17 33  1  0
 17 34  1  0
 17 35  1  0
M  CHG  1  19  -1
M  END
>  <UniqueID>  (49) 
47

>  <SMILES>  (49) 
Cc1ccc2ccc(C(=O)c3ccccc3C)c([O-])c2n1

>  <Energy>  (49) 
49.66690175464368

>  <Genealogy>  (49) 
Cc1ccc2ccc(C(=O)c3ccccc3C)c([O-])c2n1 (protonated)
Cc1ccc2ccc(C(=O)c3ccccc3C)c([O-])c2n1 (3D coordinates assigned)
Cc1ccc2ccc(C(=O)c3ccccc3C)c([O-])c2n1 (optimized conformer: 49.66690175464368 kcal/mol)

>  <smiles>  (49) 
Cc1ccc2ccc(C(=O)c3ccccc3C)c(O)c2n1

>  <score_type>  (49) 
oracle

>  <origin>  (49) 
adg

>  <m_score__min__energy>  (49) 
-11.9

>  <m_primary>  (49) 
energy

$$$$
