0:0
     RDKit          3D

 52 54  0  0  0  0  0  0  0  0999 V2000
   58.7220   32.4050   49.4860 C   0  0  0  0  0  0  0  0  0  0  0  0
   58.5210   33.0930   48.1710 C   0  0  0  0  0  0  0  0  0  0  0  0
   57.4110   33.1000   47.3980 N   0  0  0  0  0  0  0  0  0  0  0  0
   57.6320   33.8200   46.3140 N   0  0  0  0  0  0  0  0  0  0  0  0
   56.6910   34.0840   45.2130 C   0  0  0  0  0  0  0  0  0  0  0  0
   58.8910   34.3120   46.3350 C   0  0  0  0  0  0  0  0  0  0  0  0
   59.4860   35.1680   45.2760 C   0  0  0  0  0  0  0  0  0  0  0  0
   59.4550   33.8510   47.5130 C   0  0  0  0  0  0  0  0  0  0  0  0
   60.8550   34.1900   47.8970 C   0  0  0  0  0  0  0  0  0  0  0  0
   61.7800   33.9400   46.8140 N   0  0  0  0  0  0  0  0  0  0  0  0
   63.0490   33.5850   47.3580 C   0  0  0  0  0  0  0  0  0  0  0  0
   63.0090   32.5720   48.4740 C   0  0  0  0  0  0  0  0  0  0  0  0
   62.9220   31.2200   47.8630 C   0  0  0  0  0  0  0  0  0  0  0  0
   61.5880   30.8040   47.4940 N   0  0  0  0  0  0  0  0  0  0  0  0
   60.9050   30.9980   46.3790 N   0  0  0  0  0  0  0  0  0  0  0  0
   59.6970   30.4280   46.4940 C   0  0  0  0  0  0  0  0  0  0  0  0
   58.5890   30.3740   45.5430 C   0  0  0  0  0  0  0  0  0  0  0  0
   58.4730   31.2870   44.4910 C   0  0  0  0  0  0  0  0  0  0  0  0
   57.4410   31.2450   43.5870 C   0  0  0  0  0  0  0  0  0  0  0  0
   56.4690   30.2770   43.6970 C   0  0  0  0  0  0  0  0  0  0  0  0
   56.5480   29.3460   44.7290 C   0  0  0  0  0  0  0  0  0  0  0  0
   57.5950   29.3890   45.6490 C   0  0  0  0  0  0  0  0  0  0  0  0
   59.5930   29.8320   47.7550 C   0  0  0  0  0  0  0  0  0  0  0  0
   60.8050   30.0910   48.3570 C   0  0  0  0  0  0  0  0  0  0  0  0
   61.1930   29.6530   49.7350 C   0  0  0  0  0  0  0  0  0  0  0  0
   58.5158   33.1106   50.3043 H   0  0  0  0  0  0  0  0  0  0  0  0
   58.0368   31.5477   49.5598 H   0  0  0  0  0  0  0  0  0  0  0  0
   59.7610   32.0514   49.5598 H   0  0  0  0  0  0  0  0  0  0  0  0
   55.7099   34.3593   45.6273 H   0  0  0  0  0  0  0  0  0  0  0  0
   57.0726   34.9098   44.5945 H   0  0  0  0  0  0  0  0  0  0  0  0
   56.5874   33.1802   44.5945 H   0  0  0  0  0  0  0  0  0  0  0  0
   60.0546   35.9861   45.7422 H   0  0  0  0  0  0  0  0  0  0  0  0
   60.1594   34.5632   44.6509 H   0  0  0  0  0  0  0  0  0  0  0  0
   58.6844   35.5884   44.6509 H   0  0  0  0  0  0  0  0  0  0  0  0
   60.9027   35.2549   48.1684 H   0  0  0  0  0  0  0  0  0  0  0  0
   61.1417   33.5543   48.7477 H   0  0  0  0  0  0  0  0  0  0  0  0
   61.4170   33.0870   46.2930 H   0  0  0  0  0  0  0  0  0  0  0  0
   63.6640   33.1715   46.5451 H   0  0  0  0  0  0  0  0  0  0  0  0
   63.4612   34.5058   47.7965 H   0  0  0  0  0  0  0  0  0  0  0  0
   63.9229   32.6492   49.0814 H   0  0  0  0  0  0  0  0  0  0  0  0
   62.1412   32.7541   49.1249 H   0  0  0  0  0  0  0  0  0  0  0  0
   63.5449   31.2140   46.9564 H   0  0  0  0  0  0  0  0  0  0  0  0
   63.2648   30.5114   48.6314 H   0  0  0  0  0  0  0  0  0  0  0  0
   59.2385   32.0696   44.3834 H   0  0  0  0  0  0  0  0  0  0  0  0
   57.3909   31.9850   42.7747 H   0  0  0  0  0  0  0  0  0  0  0  0
   55.6383   30.2393   42.9769 H   0  0  0  0  0  0  0  0  0  0  0  0
   55.7759   28.5678   44.8197 H   0  0  0  0  0  0  0  0  0  0  0  0
   57.6420   28.6482   46.4608 H   0  0  0  0  0  0  0  0  0  0  0  0
   58.7371   29.2810   48.1719 H   0  0  0  0  0  0  0  0  0  0  0  0
   60.6550   30.2603   50.4778 H   0  0  0  0  0  0  0  0  0  0  0  0
   60.9322   28.5929   49.8698 H   0  0  0  0  0  0  0  0  0  0  0  0
   62.2768   29.7840   49.8698 H   0  0  0  0  0  0  0  0  0  0  0  0
  1  2  1  0
  2  3  2  0
  3  4  1  0
  4  5  1  0
  4  6  1  0
  6  7  1  0
  6  8  2  0
  8  9  1  0
  9 10  1  0
 10 11  1  0
 11 12  1  0
 12 13  1  0
 13 14  1  0
 14 15  1  0
 15 16  2  0
 16 17  1  0
 17 18  2  0
 18 19  1  0
 19 20  2  0
 20 21  1  0
 21 22  2  0
 16 23  1  0
 23 24  2  0
 24 25  1  0
  8  2  1  0
 24 14  1  0
 22 17  1  0
  1 26  1  0
  1 27  1  0
  1 28  1  0
  5 29  1  0
  5 30  1  0
  5 31  1  0
  7 32  1  0
  7 33  1  0
  7 34  1  0
  9 35  1  0
  9 36  1  0
 10 37  1  0
 11 38  1  0
 11 39  1  0
 12 40  1  0
 12 41  1  0
 13 42  1  0
 13 43  1  0
 18 44  1  0
 19 45  1  0
 20 46  1  0
 21 47  1  0
 22 48  1  0
 23 49  1  0
 25 50  1  0
 25 51  1  0
 25 52  1  0
M  END
>  <smiles>  (1) 
Cc1nn(C)c(C)c1CNCCCn1nc(-c2ccccc2)cc1C

>  <score_type>  (1) 
oracle

>  <origin>  (1) 
adg

>  <m_score__min__energy>  (1) 
-7.7199999999999998

>  <m_primary>  (1) 
energy

$$$$
1:0
     RDKit          3D

 31 32  0  0  1  0  0  0  0  0999 V2000
   59.9410   28.5960   49.0540 C   0  0  0  0  0  0  0  0  0  0  0  0
   59.7070   28.9150   47.7990 C   0  0  0  0  0  0  0  0  0  0  0  0
   59.3740   27.9400   46.7300 C   0  0  0  0  0  0  0  0  0  0  0  0
   58.1960   28.2910   45.9970 N   0  0  0  0  0  0  0  0  0  0  0  0
   57.0410   27.5860   46.0330 C   0  0  0  0  0  0  0  0  0  0  0  0
   56.8270   26.5120   46.7170 N   0  0  0  0  0  0  0  0  0  0  0  0
   56.8580   25.1770   46.1510 C   0  0  0  0  0  0  0  0  0  0  0  0
   55.4670   24.9790   45.5420 C   0  0  0  0  0  0  0  0  0  0  0  0
   54.6190   25.9790   45.9550 O   0  0  0  0  0  0  0  0  0  0  0  0
   56.1220   28.1730   45.2360 N   0  0  0  0  0  0  0  0  0  0  0  0
   56.6760   29.2660   44.6780 C   0  0  0  0  0  0  0  0  0  0  0  0
   56.1500   30.1840   43.8040 C   0  0  0  0  0  0  0  0  0  0  0  0
   56.9910   31.2160   43.4040 C   0  0  0  0  0  0  0  0  0  0  0  0
   58.2970   31.3150   43.8650 C   0  0  0  0  0  0  0  0  0  0  0  0
   58.7850   30.3610   44.7500 C   0  0  0  0  0  0  0  0  0  0  0  0
   57.9680   29.3230   45.1630 C   0  0  0  0  0  0  0  0  0  0  0  0
   60.1816   29.3815   49.7855 H   0  0  0  0  0  0  0  0  0  0  0  0
   59.8961   27.5438   49.3716 H   0  0  0  0  0  0  0  0  0  0  0  0
   59.7619   29.9783   47.5226 H   0  0  0  0  0  0  0  0  0  0  0  0
   60.2198   27.8869   46.0287 H   0  0  0  0  0  0  0  0  0  0  0  0
   59.1812   26.9726   47.2169 H   0  0  0  0  0  0  0  0  0  0  0  0
   57.6348   25.1026   45.3757 H   0  0  0  0  0  0  0  0  0  0  0  0
   57.0946   24.4114   46.9046 H   0  0  0  0  0  0  0  0  0  0  0  0
   55.5449   24.9992   44.4449 H   0  0  0  0  0  0  0  0  0  0  0  0
   55.0658   24.0098   45.8733 H   0  0  0  0  0  0  0  0  0  0  0  0
   54.9660   26.3410   46.8070 H   0  0  0  0  0  0  0  0  0  0  0  0
   55.1430   27.8610   45.0610 H   0  0  0  0  0  0  0  0  0  0  0  0
   55.1154   30.1071   43.4385 H   0  0  0  0  0  0  0  0  0  0  0  0
   56.6117   31.9746   42.7035 H   0  0  0  0  0  0  0  0  0  0  0  0
   58.9407   32.1425   43.5321 H   0  0  0  0  0  0  0  0  0  0  0  0
   59.8181   30.4307   45.1213 H   0  0  0  0  0  0  0  0  0  0  0  0
  1  2  2  0
  2  3  1  0
  3  4  1  0
  4  5  1  0
  5  6  2  0
  6  7  1  0
  7  8  1  0
  8  9  1  0
  5 10  1  0
 10 11  1  0
 11 12  2  0
 12 13  1  0
 13 14  2  0
 14 15  1  0
 15 16  2  0
 16  4  1  0
 16 11  1  0
  1 17  1  0
  1 18  1  0
  2 19  1  0
  3 20  1  0
  3 21  1  0
  7 22  1  0
  7 23  1  0
  8 24  1  0
  8 25  1  0
  9 26  1  0
 10 27  1  0
 12 28  1  0
 13 29  1  0
 14 30  1  0
 15 31  1  0
M  END
>  <smiles>  (2) 
C=CCn1c(=NCCO)[nH]c2ccccc21

>  <score_type>  (2) 
oracle

>  <origin>  (2) 
adg

>  <m_score__min__energy>  (2) 
-6.2999999999999998

>  <m_primary>  (2) 
energy

$$$$
2:0
     RDKit          3D

 69 71  0  0  0  0  0  0  0  0999 V2000
   57.7290   32.2580   43.5490 C   0  0  0  0  0  0  0  0  0  0  0  0
   57.5900   31.6970   44.9720 C   0  0  0  0  0  0  0  0  0  0  0  0
   56.8980   30.4530   44.8960 N   0  0  0  0  0  0  0  0  0  0  0  0
   56.0130   30.4690   43.7610 C   0  0  0  0  0  0  0  0  0  0  0  0
   56.3170   29.4290   42.7230 C   0  0  0  0  0  0  0  0  0  0  0  0
   57.7380   29.3020   44.9660 C   0  0  0  0  0  0  0  0  0  0  0  0
   59.1950   29.6570   44.8690 C   0  0  0  0  0  0  0  0  0  0  0  0
   59.9770   28.8890   45.8980 C   0  0  0  0  0  0  0  0  0  0  0  0
   60.5610   29.7490   46.9800 C   0  0  0  0  0  0  0  0  0  0  0  0
   59.8930   30.9530   47.1300 O   0  0  0  0  0  0  0  0  0  0  0  0
   58.9450   30.8730   48.1780 C   0  0  0  0  0  0  0  0  0  0  0  0
   59.7660   30.5110   49.4070 C   0  0  0  0  0  0  0  0  0  0  0  0
   59.0300   30.3960   50.5560 O   0  0  0  0  0  0  0  0  0  0  0  0
   59.2030   31.4350   51.4710 C   0  0  0  0  0  0  0  0  0  0  0  0
   58.6340   32.6960   50.8930 C   0  0  0  0  0  0  0  0  0  0  0  0
   59.6080   33.7110   50.5540 N   0  0  0  0  0  0  0  0  0  0  0  0
   60.4760   33.6730   49.4580 C   0  0  0  0  0  0  0  0  0  0  0  0
   60.1620   33.9310   48.1500 C   0  0  0  0  0  0  0  0  0  0  0  0
   58.8500   34.2120   47.8410 C   0  0  0  0  0  0  0  0  0  0  0  0
   58.4180   34.4710   46.5560 C   0  0  0  0  0  0  0  0  0  0  0  0
   59.3660   34.4400   45.5580 C   0  0  0  0  0  0  0  0  0  0  0  0
   60.6940   34.1560   45.8620 C   0  0  0  0  0  0  0  0  0  0  0  0
   61.1140   33.8980   47.1550 C   0  0  0  0  0  0  0  0  0  0  0  0
   62.4230   33.6080   47.4020 N   0  0  0  0  0  0  0  0  0  0  0  0
   63.4280   33.5870   46.3830 C   0  0  0  0  0  0  0  0  0  0  0  0
   62.7600   33.3430   48.7000 C   0  0  0  0  0  0  0  0  0  0  0  0
   64.0590   33.0230   49.0550 C   0  0  0  0  0  0  0  0  0  0  0  0
   64.4280   32.7410   50.3630 C   0  0  0  0  0  0  0  0  0  0  0  0
   63.4920   32.7700   51.3670 C   0  0  0  0  0  0  0  0  0  0  0  0
   62.1970   33.0870   51.0180 C   0  0  0  0  0  0  0  0  0  0  0  0
   61.8200   33.3710   49.7140 C   0  0  0  0  0  0  0  0  0  0  0  0
   57.9933   33.3246   43.5995 H   0  0  0  0  0  0  0  0  0  0  0  0
   58.5184   31.7096   43.0142 H   0  0  0  0  0  0  0  0  0  0  0  0
   56.7749   32.1416   43.0142 H   0  0  0  0  0  0  0  0  0  0  0  0
   58.5871   31.5420   45.4100 H   0  0  0  0  0  0  0  0  0  0  0  0
   57.0329   32.4030   45.6055 H   0  0  0  0  0  0  0  0  0  0  0  0
   54.9871   30.3048   44.1224 H   0  0  0  0  0  0  0  0  0  0  0  0
   56.1449   31.4464   43.2740 H   0  0  0  0  0  0  0  0  0  0  0  0
   56.5926   28.4862   43.2182 H   0  0  0  0  0  0  0  0  0  0  0  0
   55.4286   29.2672   42.0949 H   0  0  0  0  0  0  0  0  0  0  0  0
   57.1527   29.7712   42.0949 H   0  0  0  0  0  0  0  0  0  0  0  0
   57.5606   28.7915   45.9241 H   0  0  0  0  0  0  0  0  0  0  0  0
   57.4912   28.6510   44.1144 H   0  0  0  0  0  0  0  0  0  0  0  0
   59.5662   29.4041   43.8649 H   0  0  0  0  0  0  0  0  0  0  0  0
   59.3185   30.7350   45.0498 H   0  0  0  0  0  0  0  0  0  0  0  0
   59.3065   28.1522   46.3644 H   0  0  0  0  0  0  0  0  0  0  0  0
   60.8207   28.4171   45.3731 H   0  0  0  0  0  0  0  0  0  0  0  0
   60.5110   29.1988   47.9312 H   0  0  0  0  0  0  0  0  0  0  0  0
   61.5981   29.9798   46.6951 H   0  0  0  0  0  0  0  0  0  0  0  0
   58.4389   31.8394   48.3192 H   0  0  0  0  0  0  0  0  0  0  0  0
   58.1540   30.1370   47.9715 H   0  0  0  0  0  0  0  0  0  0  0  0
   60.2648   29.5489   49.2183 H   0  0  0  0  0  0  0  0  0  0  0  0
   60.4781   31.3340   49.5670 H   0  0  0  0  0  0  0  0  0  0  0  0
   58.6816   31.1912   52.4084 H   0  0  0  0  0  0  0  0  0  0  0  0
   60.2745   31.5723   51.6783 H   0  0  0  0  0  0  0  0  0  0  0  0
   58.0835   32.4330   49.9777 H   0  0  0  0  0  0  0  0  0  0  0  0
   57.9979   33.1322   51.6773 H   0  0  0  0  0  0  0  0  0  0  0  0
   59.6660   34.5450   51.1870 H   0  0  0  0  0  0  0  0  0  0  0  0
   58.1117   34.2310   48.6562 H   0  0  0  0  0  0  0  0  0  0  0  0
   57.3627   34.6925   46.3387 H   0  0  0  0  0  0  0  0  0  0  0  0
   59.0727   34.6404   44.5169 H   0  0  0  0  0  0  0  0  0  0  0  0
   61.4337   34.1360   45.0481 H   0  0  0  0  0  0  0  0  0  0  0  0
   64.4236   33.5662   46.8503 H   0  0  0  0  0  0  0  0  0  0  0  0
   63.2976   32.6914   45.7578 H   0  0  0  0  0  0  0  0  0  0  0  0
   63.3351   34.4873   45.7578 H   0  0  0  0  0  0  0  0  0  0  0  0
   64.8289   32.9909   48.2700 H   0  0  0  0  0  0  0  0  0  0  0  0
   65.4741   32.4934   50.5960 H   0  0  0  0  0  0  0  0  0  0  0  0
   63.7651   32.5488   52.4094 H   0  0  0  0  0  0  0  0  0  0  0  0
   61.4306   33.1160   51.8065 H   0  0  0  0  0  0  0  0  0  0  0  0
  1  2  1  0
  2  3  1  0
  3  4  1  0
  4  5  1  0
  3  6  1  0
  6  7  1  0
  7  8  1  0
  8  9  1  0
  9 10  1  0
 10 11  1  0
 11 12  1  0
 12 13  1  0
 13 14  1  0
 14 15  1  0
 15 16  1  0
 16 17  1  0
 17 18  2  0
 18 19  1  0
 19 20  2  0
 20 21  1  0
 21 22  2  0
 22 23  1  0
 23 24  2  0
 24 25  1  0
 24 26  1  0
 26 27  2  0
 27 28  1  0
 28 29  2  0
 29 30  1  0
 30 31  2  0
 31 17  1  0
 23 18  1  0
 31 26  1  0
  1 32  1  0
  1 33  1  0
  1 34  1  0
  2 35  1  0
  2 36  1  0
  4 37  1  0
  4 38  1  0
  5 39  1  0
  5 40  1  0
  5 41  1  0
  6 42  1  0
  6 43  1  0
  7 44  1  0
  7 45  1  0
  8 46  1  0
  8 47  1  0
  9 48  1  0
  9 49  1  0
 11 50  1  0
 11 51  1  0
 12 52  1  0
 12 53  1  0
 14 54  1  0
 14 55  1  0
 15 56  1  0
 15 57  1  0
 16 58  1  0
 19 59  1  0
 20 60  1  0
 21 61  1  0
 22 62  1  0
 25 63  1  0
 25 64  1  0
 25 65  1  0
 27 66  1  0
 28 67  1  0
 29 68  1  0
 30 69  1  0
M  CHG  1  24   1
M  END
>  <smiles>  (3) 
CCN(CC)CCCCOCCOCCNc1c2ccccc2[n+](C)c2ccccc12

>  <score_type>  (3) 
oracle

>  <origin>  (3) 
adg

>  <m_score__min__energy>  (3) 
-5.5999999999999996

>  <m_primary>  (3) 
energy

$$$$
3:0
     RDKit          3D

 40 42  0  0  0  0  0  0  0  0999 V2000
   56.0210   29.6930   43.0260 C   0  0  0  0  0  0  0  0  0  0  0  0
   56.9040   29.3860   44.1600 C   0  0  0  0  0  0  0  0  0  0  0  0
   57.0330   28.1810   44.7200 N   0  0  0  0  0  0  0  0  0  0  0  0
   57.8790   28.1980   45.7110 N   0  0  0  0  0  0  0  0  0  0  0  0
   58.2180   27.0120   46.4880 C   0  0  0  0  0  0  0  0  0  0  0  0
   58.3580   29.4630   45.8490 C   0  0  0  0  0  0  0  0  0  0  0  0
   59.3400   29.9030   46.8540 C   0  0  0  0  0  0  0  0  0  0  0  0
   60.5850   30.4030   46.4800 C   0  0  0  0  0  0  0  0  0  0  0  0
   61.5160   30.8320   47.3980 C   0  0  0  0  0  0  0  0  0  0  0  0
   61.2400   30.7790   48.7410 C   0  0  0  0  0  0  0  0  0  0  0  0
   60.0060   30.2840   49.1430 C   0  0  0  0  0  0  0  0  0  0  0  0
   59.0720   29.8540   48.2110 C   0  0  0  0  0  0  0  0  0  0  0  0
   57.7440   30.2230   44.8660 C   0  0  0  0  0  0  0  0  0  0  0  0
   57.9330   31.6590   44.5950 C   0  0  0  0  0  0  0  0  0  0  0  0
   56.7470   32.4440   44.8860 N   0  0  0  0  0  0  0  0  0  0  0  0
   57.0520   33.8030   45.2050 C   0  0  0  0  0  0  0  0  0  0  0  0
   58.2340   33.9360   46.1360 C   0  0  0  0  0  0  0  0  0  0  0  0
   59.3860   34.5010   45.8230 C   0  0  0  0  0  0  0  0  0  0  0  0
   60.3960   34.5720   46.7470 C   0  0  0  0  0  0  0  0  0  0  0  0
   59.6890   33.7570   48.2540 S   0  0  0  0  0  0  0  0  0  0  0  0
   58.1000   33.4150   47.4520 C   0  0  0  0  0  0  0  0  0  0  0  0
   55.0449   30.0324   43.4028 H   0  0  0  0  0  0  0  0  0  0  0  0
   56.4736   30.4865   42.4132 H   0  0  0  0  0  0  0  0  0  0  0  0
   55.8837   28.7899   42.4132 H   0  0  0  0  0  0  0  0  0  0  0  0
   58.1513   27.2452   47.5609 H   0  0  0  0  0  0  0  0  0  0  0  0
   57.5157   26.2011   46.2447 H   0  0  0  0  0  0  0  0  0  0  0  0
   59.2428   26.6948   46.2447 H   0  0  0  0  0  0  0  0  0  0  0  0
   60.8336   30.4570   45.4098 H   0  0  0  0  0  0  0  0  0  0  0  0
   62.4862   31.2193   47.0535 H   0  0  0  0  0  0  0  0  0  0  0  0
   61.9783   31.1203   49.4816 H   0  0  0  0  0  0  0  0  0  0  0  0
   59.7657   30.2321   50.2152 H   0  0  0  0  0  0  0  0  0  0  0  0
   58.1019   29.4675   48.5567 H   0  0  0  0  0  0  0  0  0  0  0  0
   58.7613   32.0287   45.2172 H   0  0  0  0  0  0  0  0  0  0  0  0
   58.1500   31.7693   43.5223 H   0  0  0  0  0  0  0  0  0  0  0  0
   56.1540   31.9810   45.6200 H   0  0  0  0  0  0  0  0  0  0  0  0
   57.2774   34.3406   44.2722 H   0  0  0  0  0  0  0  0  0  0  0  0
   56.1767   34.2263   45.7194 H   0  0  0  0  0  0  0  0  0  0  0  0
   59.5357   34.9167   44.8157 H   0  0  0  0  0  0  0  0  0  0  0  0
   61.3966   35.0118   46.6226 H   0  0  0  0  0  0  0  0  0  0  0  0
   57.2234   32.9138   47.8882 H   0  0  0  0  0  0  0  0  0  0  0  0
  1  2  1  0
  2  3  2  0
  3  4  1  0
  4  5  1  0
  4  6  1  0
  6  7  1  0
  7  8  2  0
  8  9  1  0
  9 10  2  0
 10 11  1  0
 11 12  2  0
  6 13  2  0
 13 14  1  0
 14 15  1  0
 15 16  1  0
 16 17  1  0
 17 18  1  0
 18 19  2  0
 19 20  1  0
 20 21  1  0
 13  2  1  0
 21 17  2  0
 12  7  1  0
  1 22  1  0
  1 23  1  0
  1 24  1  0
  5 25  1  0
  5 26  1  0
  5 27  1  0
  8 28  1  0
  9 29  1  0
 10 30  1  0
 11 31  1  0
 12 32  1  0
 14 33  1  0
 14 34  1  0
 15 35  1  0
 16 36  1  0
 16 37  1  0
 18 38  1  0
 19 39  1  0
 21 40  1  0
M  END
>  <smiles>  (4) 
Cc1nn(C)c(-c2ccccc2)c1CNCc1ccsc1

>  <score_type>  (4) 
oracle

>  <origin>  (4) 
adg

>  <m_score__min__energy>  (4) 
-6.6600000000000001

>  <m_primary>  (4) 
energy

$$$$
4:0
     RDKit          3D

 46 48  0  0  0  0  0  0  0  0999 V2000
   63.3130   33.8960   46.3410 C   0  0  0  0  0  0  0  0  0  0  0  0
   63.6290   33.5510   47.7830 C   0  0  0  0  0  0  0  0  0  0  0  0
   63.6620   32.1090   47.8850 N   0  0  0  0  0  0  0  0  0  0  0  0
   63.2340   31.6250   49.1760 C   0  0  0  0  0  0  0  0  0  0  0  0
   61.8300   32.0140   49.5220 C   0  0  0  0  0  0  0  0  0  0  0  0
   60.8070   31.1490   48.7910 C   0  0  0  0  0  0  0  0  0  0  0  0
   61.0730   31.0550   47.3770 N   0  0  0  0  0  0  0  0  0  0  0  0
   59.9730   30.9580   46.4990 C   0  0  0  0  0  0  0  0  0  0  0  0
   59.3680   32.1080   45.9960 C   0  0  0  0  0  0  0  0  0  0  0  0
   59.9000   33.3030   46.4110 C   0  0  0  0  0  0  0  0  0  0  0  0
   59.3760   34.4960   45.9810 C   0  0  0  0  0  0  0  0  0  0  0  0
   58.3040   34.4730   45.1220 C   0  0  0  0  0  0  0  0  0  0  0  0
   57.7740   33.2530   44.7090 C   0  0  0  0  0  0  0  0  0  0  0  0
   58.2870   32.0440   45.1300 C   0  0  0  0  0  0  0  0  0  0  0  0
   57.7620   30.8510   44.7260 N   0  0  0  0  0  0  0  0  0  0  0  0
   56.6570   30.8590   43.8190 C   0  0  0  0  0  0  0  0  0  0  0  0
   58.3450   29.7500   45.2120 C   0  0  0  0  0  0  0  0  0  0  0  0
   57.8630   28.5080   44.8570 C   0  0  0  0  0  0  0  0  0  0  0  0
   58.4440   27.3380   45.3500 C   0  0  0  0  0  0  0  0  0  0  0  0
   57.7650   25.6330   44.8470 Br  0  0  0  0  0  0  0  0  0  0  0  0
   59.5150   27.3730   46.2090 C   0  0  0  0  0  0  0  0  0  0  0  0
   60.0050   28.6100   46.5720 C   0  0  0  0  0  0  0  0  0  0  0  0
   59.4240   29.7640   46.0780 C   0  0  0  0  0  0  0  0  0  0  0  0
   62.5703   34.7069   46.3123 H   0  0  0  0  0  0  0  0  0  0  0  0
   64.2320   34.2224   45.8322 H   0  0  0  0  0  0  0  0  0  0  0  0
   62.9074   33.0091   45.8322 H   0  0  0  0  0  0  0  0  0  0  0  0
   64.6062   33.9704   48.0645 H   0  0  0  0  0  0  0  0  0  0  0  0
   62.8692   33.9710   48.4585 H   0  0  0  0  0  0  0  0  0  0  0  0
   64.5480   31.6890   47.5830 H   0  0  0  0  0  0  0  0  0  0  0  0
   63.3017   30.5271   49.1766 H   0  0  0  0  0  0  0  0  0  0  0  0
   63.8925   32.0829   49.9288 H   0  0  0  0  0  0  0  0  0  0  0  0
   61.6850   31.8978   50.6062 H   0  0  0  0  0  0  0  0  0  0  0  0
   61.6781   33.0588   49.2131 H   0  0  0  0  0  0  0  0  0  0  0  0
   60.8284   30.1372   49.2220 H   0  0  0  0  0  0  0  0  0  0  0  0
   59.8210   31.6207   48.9149 H   0  0  0  0  0  0  0  0  0  0  0  0
   62.0610   31.0600   47.0200 H   0  0  0  0  0  0  0  0  0  0  0  0
   60.7589   33.3045   47.0983 H   0  0  0  0  0  0  0  0  0  0  0  0
   59.8054   35.4513   46.3172 H   0  0  0  0  0  0  0  0  0  0  0  0
   57.8656   35.4153   44.7615 H   0  0  0  0  0  0  0  0  0  0  0  0
   56.9149   33.2538   44.0220 H   0  0  0  0  0  0  0  0  0  0  0  0
   55.7156   30.8658   44.3880 H   0  0  0  0  0  0  0  0  0  0  0  0
   56.7091   31.7568   43.1856 H   0  0  0  0  0  0  0  0  0  0  0  0
   56.6961   29.9605   43.1856 H   0  0  0  0  0  0  0  0  0  0  0  0
   57.0047   28.4375   44.1726 H   0  0  0  0  0  0  0  0  0  0  0  0
   59.9663   26.4467   46.5941 H   0  0  0  0  0  0  0  0  0  0  0  0
   60.8622   28.6793   47.2579 H   0  0  0  0  0  0  0  0  0  0  0  0
  1  2  1  0
  2  3  1  0
  3  4  1  0
  4  5  1  0
  5  6  1  0
  6  7  1  0
  7  8  1  0
  8  9  2  0
  9 10  1  0
 10 11  2  0
 11 12  1  0
 12 13  2  0
 13 14  1  0
 14 15  2  0
 15 16  1  0
 15 17  1  0
 17 18  2  0
 18 19  1  0
 19 20  1  0
 19 21  2  0
 21 22  1  0
 22 23  2  0
 23  8  1  0
 14  9  1  0
 23 17  1  0
  1 24  1  0
  1 25  1  0
  1 26  1  0
  2 27  1  0
  2 28  1  0
  3 29  1  0
  4 30  1  0
  4 31  1  0
  5 32  1  0
  5 33  1  0
  6 34  1  0
  6 35  1  0
  7 36  1  0
 10 37  1  0
 11 38  1  0
 12 39  1  0
 13 40  1  0
 16 41  1  0
 16 42  1  0
 16 43  1  0
 18 44  1  0
 21 45  1  0
 22 46  1  0
M  CHG  1  15   1
M  END
>  <smiles>  (5) 
CCNCCCNc1c2ccccc2[n+](C)c2cc(Br)ccc12

>  <score_type>  (5) 
oracle

>  <origin>  (5) 
adg

>  <m_score__min__energy>  (5) 
-6.1699999999999999

>  <m_primary>  (5) 
energy

$$$$
5:0
     RDKit          3D

 54 55  0  0  0  0  0  0  0  0999 V2000
   57.3290   21.1440   45.2250 C   0  0  0  0  0  0  0  0  0  0  0  0
   55.9370   21.5860   44.8890 C   0  0  0  0  0  0  0  0  0  0  0  0
   55.8600   22.5800   43.8910 N   0  0  0  0  0  0  0  0  0  0  0  0
   56.4190   22.3350   42.6250 C   0  0  0  0  0  0  0  0  0  0  0  0
   54.9790   23.6670   44.0660 C   0  0  0  0  0  0  0  0  0  0  0  0
   54.4010   23.8130   45.4340 C   0  0  0  0  0  0  0  0  0  0  0  0
   55.3210   24.2290   46.3830 O   0  0  0  0  0  0  0  0  0  0  0  0
   56.3920   24.9320   45.9070 C   0  0  0  0  0  0  0  0  0  0  0  0
   56.4880   26.3450   46.4520 C   0  0  0  0  0  0  0  0  0  0  0  0
   55.7940   27.2620   45.6650 O   0  0  0  0  0  0  0  0  0  0  0  0
   56.7310   28.0400   45.0610 N   0  0  0  0  0  0  0  0  0  0  0  0
   56.3990   29.3560   44.6620 C   0  0  0  0  0  0  0  0  0  0  0  0
   55.2340   29.7910   44.8760 O   0  0  0  0  0  0  0  0  0  0  0  0
   57.4450   30.2010   43.9910 C   0  0  0  0  0  0  0  0  0  0  0  0
   58.4160   30.7240   44.9780 C   0  0  0  0  0  0  0  0  0  0  0  0
   59.3460   29.8160   45.4980 C   0  0  0  0  0  0  0  0  0  0  0  0
   59.3230   28.4960   45.0720 O   0  0  0  0  0  0  0  0  0  0  0  0
   59.9800   27.4370   45.7470 C   0  0  0  0  0  0  0  0  0  0  0  0
   60.2920   30.2340   46.4400 C   0  0  0  0  0  0  0  0  0  0  0  0
   60.3310   31.5510   46.8760 C   0  0  0  0  0  0  0  0  0  0  0  0
   59.4030   32.4300   46.3490 C   0  0  0  0  0  0  0  0  0  0  0  0
   59.4470   33.7460   46.7980 C   0  0  0  0  0  0  0  0  0  0  0  0
   58.5190   34.6260   46.2760 C   0  0  0  0  0  0  0  0  0  0  0  0
   57.5680   34.2480   45.3440 C   0  0  0  0  0  0  0  0  0  0  0  0
   57.5460   32.9340   44.9150 C   0  0  0  0  0  0  0  0  0  0  0  0
   58.4560   32.0280   45.4130 C   0  0  0  0  0  0  0  0  0  0  0  0
   57.4480   21.1062   46.3179 H   0  0  0  0  0  0  0  0  0  0  0  0
   57.5086   20.1446   44.8019 H   0  0  0  0  0  0  0  0  0  0  0  0
   58.0522   21.8567   44.8019 H   0  0  0  0  0  0  0  0  0  0  0  0
   55.3727   20.7077   44.5424 H   0  0  0  0  0  0  0  0  0  0  0  0
   55.5225   22.0321   45.8051 H   0  0  0  0  0  0  0  0  0  0  0  0
   57.4205   21.8961   42.7451 H   0  0  0  0  0  0  0  0  0  0  0  0
   55.7765   21.6360   42.0695 H   0  0  0  0  0  0  0  0  0  0  0  0
   56.4976   23.2812   42.0695 H   0  0  0  0  0  0  0  0  0  0  0  0
   55.5290   24.5900   43.8304 H   0  0  0  0  0  0  0  0  0  0  0  0
   54.1268   23.4750   43.3975 H   0  0  0  0  0  0  0  0  0  0  0  0
   53.5875   24.5521   45.3908 H   0  0  0  0  0  0  0  0  0  0  0  0
   54.0464   22.8184   45.7424 H   0  0  0  0  0  0  0  0  0  0  0  0
   57.3105   24.3918   46.1800 H   0  0  0  0  0  0  0  0  0  0  0  0
   56.2614   25.0167   44.8181 H   0  0  0  0  0  0  0  0  0  0  0  0
   56.0681   26.3617   47.4686 H   0  0  0  0  0  0  0  0  0  0  0  0
   57.5490   26.6352   46.4517 H   0  0  0  0  0  0  0  0  0  0  0  0
   57.7070   27.7140   44.8710 H   0  0  0  0  0  0  0  0  0  0  0  0
   57.9798   29.5899   43.2490 H   0  0  0  0  0  0  0  0  0  0  0  0
   56.9482   31.0522   43.5024 H   0  0  0  0  0  0  0  0  0  0  0  0
   59.8896   27.5827   46.8335 H   0  0  0  0  0  0  0  0  0  0  0  0
   59.5170   26.4797   45.4657 H   0  0  0  0  0  0  0  0  0  0  0  0
   61.0434   27.4267   45.4657 H   0  0  0  0  0  0  0  0  0  0  0  0
   61.0152   29.5085   46.8408 H   0  0  0  0  0  0  0  0  0  0  0  0
   61.0744   31.8840   47.6152 H   0  0  0  0  0  0  0  0  0  0  0  0
   60.1912   34.0728   47.5392 H   0  0  0  0  0  0  0  0  0  0  0  0
   58.5365   35.6721   46.6156 H   0  0  0  0  0  0  0  0  0  0  0  0
   56.8445   34.9783   44.9527 H   0  0  0  0  0  0  0  0  0  0  0  0
   56.7998   32.6112   44.1740 H   0  0  0  0  0  0  0  0  0  0  0  0
  1  2  1  0
  2  3  1  0
  3  4  1  0
  3  5  1  0
  5  6  1  0
  6  7  1  0
  7  8  1  0
  8  9  1  0
  9 10  1  0
 10 11  1  0
 11 12  1  0
 12 13  2  0
 12 14  1  0
 14 15  1  0
 15 16  2  0
 16 17  1  0
 17 18  1  0
 16 19  1  0
 19 20  2  0
 20 21  1  0
 21 22  2  0
 22 23  1  0
 23 24  2  0
 24 25  1  0
 25 26  2  0
 26 15  1  0
 26 21  1  0
  1 27  1  0
  1 28  1  0
  1 29  1  0
  2 30  1  0
  2 31  1  0
  4 32  1  0
  4 33  1  0
  4 34  1  0
  5 35  1  0
  5 36  1  0
  6 37  1  0
  6 38  1  0
  8 39  1  0
  8 40  1  0
  9 41  1  0
  9 42  1  0
 11 43  1  0
 14 44  1  0
 14 45  1  0
 18 46  1  0
 18 47  1  0
 18 48  1  0
 19 49  1  0
 20 50  1  0
 22 51  1  0
 23 52  1  0
 24 53  1  0
 25 54  1  0
M  END
>  <smiles>  (6) 
CCN(C)CCOCCONC(=O)Cc1c(OC)ccc2ccccc12

>  <score_type>  (6) 
oracle

>  <origin>  (6) 
adg

>  <m_score__min__energy>  (6) 
-7.2199999999999998

>  <m_primary>  (6) 
energy

$$$$
7:0
     RDKit          3D

 55 57  0  0  0  0  0  0  0  0999 V2000
   57.8390   26.5660   44.3840 C   0  0  0  0  0  0  0  0  0  0  0  0
   58.8420   27.6230   44.0860 C   0  0  0  0  0  0  0  0  0  0  0  0
   59.7540   27.9190   45.1730 N   0  0  0  0  0  3  0  0  0  0  0  0
   59.2350   27.4350   46.4190 C   0  0  0  0  0  0  0  0  0  0  0  0
   59.9390   28.0460   47.6050 C   0  0  0  0  0  0  0  0  0  0  0  0
   59.8810   29.4920   47.4820 N   0  0  0  0  0  0  0  0  0  0  0  0
   60.2380   30.1470   48.7000 C   0  0  0  0  0  0  0  0  0  0  0  0
   61.3120   31.2000   48.4950 C   0  0  0  0  0  0  0  0  0  0  0  0
   60.8060   32.3190   47.8800 O   0  0  0  0  0  0  0  0  0  0  0  0
   61.0230   33.5080   48.5320 C   0  0  0  0  0  0  0  0  0  0  0  0
   59.6750   34.2290   48.5730 C   0  0  0  0  0  0  0  0  0  0  0  0
   59.3170   34.7000   47.2510 N   0  0  0  0  0  0  0  0  0  0  0  0
   58.8100   33.8670   46.2220 C   0  0  0  0  0  0  0  0  0  0  0  0
   58.9790   34.2370   44.8940 C   0  0  0  0  0  0  0  0  0  0  0  0
   58.5160   33.4860   43.8400 C   0  0  0  0  0  0  0  0  0  0  0  0
   57.8460   32.3080   44.0890 C   0  0  0  0  0  0  0  0  0  0  0  0
   57.3930   31.5760   43.0120 C   0  0  0  0  0  0  0  0  0  0  0  0
   57.6080   32.0330   41.6000 C   0  0  0  0  0  0  0  0  0  0  0  0
   56.7280   30.4020   43.2830 C   0  0  0  0  0  0  0  0  0  0  0  0
   56.5660   30.0470   44.6060 C   0  0  0  0  0  0  0  0  0  0  0  0
   55.9510   28.9620   44.8660 O   0  0  0  0  0  0  0  0  0  0  0  0
   57.0190   30.7810   45.5950 O   0  0  0  0  0  0  0  0  0  0  0  0
   57.6710   31.9270   45.4020 C   0  0  0  0  0  0  0  0  0  0  0  0
   58.1400   32.6850   46.4530 C   0  0  0  0  0  0  0  0  0  0  0  0
   60.6210   29.9250   46.3380 C   0  0  0  0  0  0  0  0  0  0  0  0
   60.0020   29.3320   45.1180 C   0  0  0  0  0  0  0  0  0  0  0  0
   57.7348   26.4562   45.4735 H   0  0  0  0  0  0  0  0  0  0  0  0
   56.8687   26.8483   43.9494 H   0  0  0  0  0  0  0  0  0  0  0  0
   58.1717   25.6118   43.9494 H   0  0  0  0  0  0  0  0  0  0  0  0
   59.4363   27.2964   43.2199 H   0  0  0  0  0  0  0  0  0  0  0  0
   58.2733   28.5458   43.8988 H   0  0  0  0  0  0  0  0  0  0  0  0
   58.1646   27.6817   46.4767 H   0  0  0  0  0  0  0  0  0  0  0  0
   59.3975   26.3476   46.4531 H   0  0  0  0  0  0  0  0  0  0  0  0
   59.4405   27.7325   48.5341 H   0  0  0  0  0  0  0  0  0  0  0  0
   60.9868   27.7124   47.6337 H   0  0  0  0  0  0  0  0  0  0  0  0
   59.3426   30.6315   49.1166 H   0  0  0  0  0  0  0  0  0  0  0  0
   60.6393   29.3863   49.3858 H   0  0  0  0  0  0  0  0  0  0  0  0
   61.7248   31.4854   49.4738 H   0  0  0  0  0  0  0  0  0  0  0  0
   62.0950   30.7748   47.8500 H   0  0  0  0  0  0  0  0  0  0  0  0
   61.3860   33.3212   49.5535 H   0  0  0  0  0  0  0  0  0  0  0  0
   61.7837   34.1128   48.0167 H   0  0  0  0  0  0  0  0  0  0  0  0
   58.9022   33.5335   48.9321 H   0  0  0  0  0  0  0  0  0  0  0  0
   59.7506   35.0912   49.2519 H   0  0  0  0  0  0  0  0  0  0  0  0
   59.4450   35.7250   47.0540 H   0  0  0  0  0  0  0  0  0  0  0  0
   59.5087   35.1759   44.6753 H   0  0  0  0  0  0  0  0  0  0  0  0
   58.6791   33.8228   42.8056 H   0  0  0  0  0  0  0  0  0  0  0  0
   58.0763   33.0283   41.6040 H   0  0  0  0  0  0  0  0  0  0  0  0
   58.2654   31.3206   41.0801 H   0  0  0  0  0  0  0  0  0  0  0  0
   56.6400   32.0853   41.0801 H   0  0  0  0  0  0  0  0  0  0  0  0
   56.3390   29.7684   42.4723 H   0  0  0  0  0  0  0  0  0  0  0  0
   57.9781   32.3434   47.4860 H   0  0  0  0  0  0  0  0  0  0  0  0
   60.5922   31.0226   46.2719 H   0  0  0  0  0  0  0  0  0  0  0  0
   61.6685   29.6003   46.4234 H   0  0  0  0  0  0  0  0  0  0  0  0
   59.0405   29.8380   44.9462 H   0  0  0  0  0  0  0  0  0  0  0  0
   60.7322   29.4783   44.3084 H   0  0  0  0  0  0  0  0  0  0  0  0
  1  2  1  0
  2  3  1  0
  3  4  1  0
  4  5  1  0
  5  6  1  0
  6  7  1  0
  7  8  1  0
  8  9  1  0
  9 10  1  0
 10 11  1  0
 11 12  1  0
 12 13  1  0
 13 14  2  0
 14 15  1  0
 15 16  2  0
 16 17  1  0
 17 18  1  0
 17 19  2  0
 19 20  1  0
 20 21  2  0
 20 22  1  0
 22 23  1  0
 23 24  2  0
  6 25  1  0
 25 26  1  0
 26  3  1  0
 24 13  1  0
 23 16  1  0
  1 27  1  0
  1 28  1  0
  1 29  1  0
  2 30  1  0
  2 31  1  0
  4 32  1  0
  4 33  1  0
  5 34  1  0
  5 35  1  0
  7 36  1  0
  7 37  1  0
  8 38  1  0
  8 39  1  0
 10 40  1  0
 10 41  1  0
 11 42  1  0
 11 43  1  0
 12 44  1  0
 14 45  1  0
 15 46  1  0
 18 47  1  0
 18 48  1  0
 18 49  1  0
 19 50  1  0
 24 51  1  0
 25 52  1  0
 25 53  1  0
 26 54  1  0
 26 55  1  0
M  CHG  1   3   1
M  RAD  1   3   2
M  END
>  <smiles>  (7) 
CC[N+]1CCN(CCOCCNc2ccc3c(C)cc(=O)oc3c2)CC1

>  <score_type>  (7) 
oracle

>  <origin>  (7) 
adg

>  <m_score__min__energy>  (7) 
-6.6299999999999999

>  <m_primary>  (7) 
energy

$$$$
8:0
     RDKit          3D

 53 55  0  0  0  0  0  0  0  0999 V2000
   63.3250   33.7980   46.6110 C   0  0  0  0  0  0  0  0  0  0  0  0
   63.3780   32.3980   47.1380 C   0  0  0  0  0  0  0  0  0  0  0  0
   62.7770   32.2360   48.4480 N   0  0  0  0  0  0  0  0  0  0  0  0
   63.0750   33.3100   49.3560 C   0  0  0  0  0  0  0  0  0  0  0  0
   61.8040   34.0450   49.7640 C   0  0  0  0  0  0  0  0  0  0  0  0
   61.2490   33.4640   51.3780 S   0  0  0  0  0  0  0  0  0  0  0  0
   60.6290   31.7780   51.3320 C   0  0  0  0  0  0  0  0  0  0  0  0
   59.1240   31.6910   51.1580 C   0  0  0  0  0  0  0  0  0  0  0  0
   58.7540   32.2500   49.7820 C   0  0  0  0  0  0  0  0  0  0  0  0
   59.7280   31.9230   48.7920 N   0  0  0  0  0  0  0  0  0  0  0  0
   59.3130   31.8040   47.4410 C   0  0  0  0  0  0  0  0  0  0  0  0
   59.2880   32.9180   46.6190 C   0  0  0  0  0  0  0  0  0  0  0  0
   59.6730   34.1100   47.1800 C   0  0  0  0  0  0  0  0  0  0  0  0
   59.6780   35.2820   46.4540 C   0  0  0  0  0  0  0  0  0  0  0  0
   59.2810   35.2050   45.1380 C   0  0  0  0  0  0  0  0  0  0  0  0
   58.8960   34.0060   44.5770 C   0  0  0  0  0  0  0  0  0  0  0  0
   58.8860   32.8150   45.3020 C   0  0  0  0  0  0  0  0  0  0  0  0
   58.5000   31.6490   44.7390 N   0  0  0  0  0  0  0  0  0  0  0  0
   58.1090   31.5630   43.3670 C   0  0  0  0  0  0  0  0  0  0  0  0
   58.5230   30.5560   45.5460 C   0  0  0  0  0  0  0  0  0  0  0  0
   58.1390   29.3090   45.0790 C   0  0  0  0  0  0  0  0  0  0  0  0
   58.1500   28.1810   45.8860 C   0  0  0  0  0  0  0  0  0  0  0  0
   57.6560   26.6020   45.2570 Cl  0  0  0  0  0  0  0  0  0  0  0  0
   58.5490   28.2650   47.2020 C   0  0  0  0  0  0  0  0  0  0  0  0
   58.9370   29.5010   47.6940 C   0  0  0  0  0  0  0  0  0  0  0  0
   58.9170   30.6140   46.8660 C   0  0  0  0  0  0  0  0  0  0  0  0
   63.2982   34.5058   47.4526 H   0  0  0  0  0  0  0  0  0  0  0  0
   64.2164   33.9925   45.9966 H   0  0  0  0  0  0  0  0  0  0  0  0
   62.4214   33.9245   45.9966 H   0  0  0  0  0  0  0  0  0  0  0  0
   62.8482   31.7424   46.4312 H   0  0  0  0  0  0  0  0  0  0  0  0
   64.4417   32.1380   47.2423 H   0  0  0  0  0  0  0  0  0  0  0  0
   63.1800   31.3430   48.8360 H   0  0  0  0  0  0  0  0  0  0  0  0
   63.5574   32.8984   50.2548 H   0  0  0  0  0  0  0  0  0  0  0  0
   63.7458   34.0210   48.8516 H   0  0  0  0  0  0  0  0  0  0  0  0
   62.0079   35.1247   49.8155 H   0  0  0  0  0  0  0  0  0  0  0  0
   61.0183   33.8496   49.0194 H   0  0  0  0  0  0  0  0  0  0  0  0
   61.1075   31.2539   50.4916 H   0  0  0  0  0  0  0  0  0  0  0  0
   60.8697   31.3182   52.3019 H   0  0  0  0  0  0  0  0  0  0  0  0
   58.8036   30.6411   51.2290 H   0  0  0  0  0  0  0  0  0  0  0  0
   58.6223   32.2728   51.9453 H   0  0  0  0  0  0  0  0  0  0  0  0
   57.7837   31.8306   49.4776 H   0  0  0  0  0  0  0  0  0  0  0  0
   58.7064   33.3460   49.8624 H   0  0  0  0  0  0  0  0  0  0  0  0
   60.7460   31.7630   48.9970 H   0  0  0  0  0  0  0  0  0  0  0  0
   59.9852   34.1307   48.2346 H   0  0  0  0  0  0  0  0  0  0  0  0
   59.9856   36.2364   46.9062 H   0  0  0  0  0  0  0  0  0  0  0  0
   59.2708   36.1169   44.5229 H   0  0  0  0  0  0  0  0  0  0  0  0
   58.5862   33.9883   43.5217 H   0  0  0  0  0  0  0  0  0  0  0  0
   57.0364   31.3271   43.3055 H   0  0  0  0  0  0  0  0  0  0  0  0
   58.3019   32.5250   42.8698 H   0  0  0  0  0  0  0  0  0  0  0  0
   58.6878   30.7707   42.8698 H   0  0  0  0  0  0  0  0  0  0  0  0
   57.8144   29.2104   44.0326 H   0  0  0  0  0  0  0  0  0  0  0  0
   58.5593   27.3733   47.8460 H   0  0  0  0  0  0  0  0  0  0  0  0
   59.2607   29.5996   48.7406 H   0  0  0  0  0  0  0  0  0  0  0  0
  1  2  1  0
  2  3  1  0
  3  4  1  0
  4  5  1  0
  5  6  1  0
  6  7  1  0
  7  8  1  0
  8  9  1  0
  9 10  1  0
 10 11  1  0
 11 12  2  0
 12 13  1  0
 13 14  2  0
 14 15  1  0
 15 16  2  0
 16 17  1  0
 17 18  2  0
 18 19  1  0
 18 20  1  0
 20 21  2  0
 21 22  1  0
 22 23  1  0
 22 24  2  0
 24 25  1  0
 25 26  2  0
 26 11  1  0
 17 12  1  0
 26 20  1  0
  1 27  1  0
  1 28  1  0
  1 29  1  0
  2 30  1  0
  2 31  1  0
  3 32  1  0
  4 33  1  0
  4 34  1  0
  5 35  1  0
  5 36  1  0
  7 37  1  0
  7 38  1  0
  8 39  1  0
  8 40  1  0
  9 41  1  0
  9 42  1  0
 10 43  1  0
 13 44  1  0
 14 45  1  0
 15 46  1  0
 16 47  1  0
 19 48  1  0
 19 49  1  0
 19 50  1  0
 21 51  1  0
 24 52  1  0
 25 53  1  0
M  CHG  1  18   1
M  END
>  <smiles>  (8) 
CCNCCSCCCNc1c2ccccc2[n+](C)c2cc(Cl)ccc12

>  <score_type>  (8) 
oracle

>  <origin>  (8) 
adg

>  <m_score__min__energy>  (8) 
-6.1399999999999997

>  <m_primary>  (8) 
energy

$$$$
9:0
     RDKit          3D

 50 51  0  0  0  0  0  0  0  0999 V2000
   61.5600   33.5940   46.7420 C   0  0  0  0  0  0  0  0  0  0  0  0
   61.2090   34.1990   48.0950 C   0  0  0  0  0  0  0  0  0  0  0  0
   59.7290   34.3290   48.2200 C   0  0  0  0  0  0  0  0  0  0  0  0
   59.0360   34.6740   46.9460 C   0  0  0  0  0  0  0  0  0  0  0  0
   57.8100   33.8280   46.7420 C   0  0  0  0  0  0  0  0  0  0  0  0
   58.1560   32.3920   46.4860 C   0  0  0  0  0  0  0  0  0  0  0  0
   57.7540   31.9020   45.1500 C   0  0  0  0  0  0  0  0  0  0  0  0
   57.9310   32.5990   44.0180 N   0  0  0  0  0  0  0  0  0  0  0  0
   57.4510   31.9110   42.9780 N   0  0  0  0  0  0  0  0  0  0  0  0
   57.4370   32.2820   41.5760 C   0  0  0  0  0  0  0  0  0  0  0  0
   56.9790   30.7790   43.4980 C   0  0  0  0  0  0  0  0  0  0  0  0
   56.2760   29.5940   42.5920 S   0  0  0  0  0  0  0  0  0  0  0  0
   57.1550   30.7490   44.8420 N   0  0  0  0  0  0  0  0  0  0  0  0
   56.7520   29.6740   45.6260 N   0  0  0  0  0  0  0  0  0  0  0  0
   57.6350   28.5570   45.8450 C   0  0  0  0  0  0  0  0  0  0  0  0
   59.0570   28.9640   46.0720 C   0  0  0  0  0  0  0  0  0  0  0  0
   59.4080   28.6070   47.4540 N   0  0  0  0  0  0  0  0  0  0  0  0
   59.8030   29.6450   48.3740 C   0  0  0  0  0  0  0  0  0  0  0  0
   61.1010   30.1170   48.4220 C   0  0  0  0  0  0  0  0  0  0  0  0
   61.4270   31.1350   49.3270 C   0  0  0  0  0  0  0  0  0  0  0  0
   60.4630   31.6740   50.1750 C   0  0  0  0  0  0  0  0  0  0  0  0
   59.1510   31.1950   50.1240 C   0  0  0  0  0  0  0  0  0  0  0  0
   57.8060   31.9300   51.2830 Br  0  0  0  0  0  0  0  0  0  0  0  0
   58.8550   30.1890   49.2210 C   0  0  0  0  0  0  0  0  0  0  0  0
   62.1068   32.6515   46.8925 H   0  0  0  0  0  0  0  0  0  0  0  0
   60.6365   33.3961   46.1782 H   0  0  0  0  0  0  0  0  0  0  0  0
   62.1902   34.2975   46.1782 H   0  0  0  0  0  0  0  0  0  0  0  0
   61.5875   33.5471   48.8961 H   0  0  0  0  0  0  0  0  0  0  0  0
   61.6700   35.1942   48.1791 H   0  0  0  0  0  0  0  0  0  0  0  0
   59.3280   33.3709   48.5823 H   0  0  0  0  0  0  0  0  0  0  0  0
   59.5424   35.1599   48.9163 H   0  0  0  0  0  0  0  0  0  0  0  0
   58.7394   35.7328   46.9753 H   0  0  0  0  0  0  0  0  0  0  0  0
   59.7291   34.4857   46.1129 H   0  0  0  0  0  0  0  0  0  0  0  0
   57.1834   33.8871   47.6441 H   0  0  0  0  0  0  0  0  0  0  0  0
   57.2750   34.2113   45.8607 H   0  0  0  0  0  0  0  0  0  0  0  0
   59.2457   32.2769   46.5824 H   0  0  0  0  0  0  0  0  0  0  0  0
   57.5984   31.7956   47.2231 H   0  0  0  0  0  0  0  0  0  0  0  0
   57.3957   33.3776   41.4870 H   0  0  0  0  0  0  0  0  0  0  0  0
   58.3499   31.9088   41.0888 H   0  0  0  0  0  0  0  0  0  0  0  0
   56.5549   31.8410   41.0888 H   0  0  0  0  0  0  0  0  0  0  0  0
   55.7920   29.7230   46.0420 H   0  0  0  0  0  0  0  0  0  0  0  0
   57.2849   28.0028   46.7284 H   0  0  0  0  0  0  0  0  0  0  0  0
   57.6134   27.9404   44.9343 H   0  0  0  0  0  0  0  0  0  0  0  0
   59.7156   28.4330   45.3689 H   0  0  0  0  0  0  0  0  0  0  0  0
   59.1792   30.0451   45.9101 H   0  0  0  0  0  0  0  0  0  0  0  0
   59.3790   27.6180   47.7890 H   0  0  0  0  0  0  0  0  0  0  0  0
   61.8699   29.6976   47.7565 H   0  0  0  0  0  0  0  0  0  0  0  0
   62.4588   31.5140   49.3685 H   0  0  0  0  0  0  0  0  0  0  0  0
   60.7327   32.4728   50.8815 H   0  0  0  0  0  0  0  0  0  0  0  0
   57.8245   29.8069   49.1752 H   0  0  0  0  0  0  0  0  0  0  0  0
  1  2  1  0
  2  3  1  0
  3  4  1  0
  4  5  1  0
  5  6  1  0
  6  7  1  0
  7  8  2  0
  8  9  1  0
  9 10  1  0
  9 11  1  0
 11 12  2  0
 11 13  1  0
 13 14  1  0
 14 15  1  0
 15 16  1  0
 16 17  1  0
 17 18  1  0
 18 19  2  0
 19 20  1  0
 20 21  2  0
 21 22  1  0
 22 23  1  0
 22 24  2  0
 13  7  1  0
 24 18  1  0
  1 25  1  0
  1 26  1  0
  1 27  1  0
  2 28  1  0
  2 29  1  0
  3 30  1  0
  3 31  1  0
  4 32  1  0
  4 33  1  0
  5 34  1  0
  5 35  1  0
  6 36  1  0
  6 37  1  0
 10 38  1  0
 10 39  1  0
 10 40  1  0
 14 41  1  0
 15 42  1  0
 15 43  1  0
 16 44  1  0
 16 45  1  0
 17 46  1  0
 19 47  1  0
 20 48  1  0
 21 49  1  0
 24 50  1  0
M  END
>  <smiles>  (9) 
CCCCCCc1nn(C)c(=S)n1NCCNc1cccc(Br)c1

>  <score_type>  (9) 
oracle

>  <origin>  (9) 
adg

>  <m_score__min__energy>  (9) 
-7.0899999999999999

>  <m_primary>  (9) 
energy

$$$$
10:0
     RDKit          3D

 38 40  0  0  0  0  0  0  0  0999 V2000
   57.0230   21.5030   43.2330 C   0  0  0  0  0  0  0  0  0  0  0  0
   56.0440   22.4430   42.7750 N   0  0  0  0  0  0  0  0  0  0  0  0
   55.8040   23.4490   43.7980 C   0  0  0  0  0  0  0  0  0  0  0  0
   56.9630   24.4210   43.7520 C   0  0  0  0  0  0  0  0  0  0  0  0
   57.3030   24.8160   45.1730 C   0  0  0  0  0  0  0  0  0  0  0  0
   56.4810   25.8790   45.6240 O   0  0  0  0  0  0  0  0  0  0  0  0
   57.1070   27.0920   45.8800 C   0  0  0  0  0  0  0  0  0  0  0  0
   58.0870   27.1830   46.8510 C   0  0  0  0  0  0  0  0  0  0  0  0
   58.6920   28.4000   47.0850 C   0  0  0  0  0  0  0  0  0  0  0  0
   58.3720   29.5520   46.3960 C   0  0  0  0  0  0  0  0  0  0  0  0
   57.3950   29.4480   45.4330 C   0  0  0  0  0  0  0  0  0  0  0  0
   56.8030   28.2570   45.2040 C   0  0  0  0  0  0  0  0  0  0  0  0
   56.9080   30.8770   44.4860 S   0  0  0  0  0  0  0  0  0  0  0  0
   57.9170   32.2130   45.0940 C   0  0  0  0  0  0  0  0  0  0  0  0
   57.7890   33.4500   44.5760 C   0  0  0  0  0  0  0  0  0  0  0  0
   58.5230   34.5520   44.9760 C   0  0  0  0  0  0  0  0  0  0  0  0
   59.4460   34.3360   45.9850 C   0  0  0  0  0  0  0  0  0  0  0  0
   59.5760   33.0700   46.5160 C   0  0  0  0  0  0  0  0  0  0  0  0
   58.8300   31.9870   46.0960 C   0  0  0  0  0  0  0  0  0  0  0  0
   59.0550   30.7500   46.7150 N   0  0  0  0  0  0  0  0  0  0  0  0
   57.0344   21.4920   44.3329 H   0  0  0  0  0  0  0  0  0  0  0  0
   56.7711   20.4997   42.8589 H   0  0  0  0  0  0  0  0  0  0  0  0
   58.0152   21.7954   42.8589 H   0  0  0  0  0  0  0  0  0  0  0  0
   56.2530   22.8560   41.8610 H   0  0  0  0  0  0  0  0  0  0  0  0
   54.8611   23.9771   43.5931 H   0  0  0  0  0  0  0  0  0  0  0  0
   55.7245   22.9837   44.7915 H   0  0  0  0  0  0  0  0  0  0  0  0
   57.8332   23.9414   43.2801 H   0  0  0  0  0  0  0  0  0  0  0  0
   56.6912   25.3102   43.1643 H   0  0  0  0  0  0  0  0  0  0  0  0
   57.1572   23.9466   45.8310 H   0  0  0  0  0  0  0  0  0  0  0  0
   58.3499   25.1527   45.1981 H   0  0  0  0  0  0  0  0  0  0  0  0
   58.3807   26.2951   47.4301 H   0  0  0  0  0  0  0  0  0  0  0  0
   59.4698   28.4553   47.8609 H   0  0  0  0  0  0  0  0  0  0  0  0
   56.0261   28.2113   44.4266 H   0  0  0  0  0  0  0  0  0  0  0  0
   57.0469   33.5941   43.7769 H   0  0  0  0  0  0  0  0  0  0  0  0
   58.3816   35.5425   44.5190 H   0  0  0  0  0  0  0  0  0  0  0  0
   60.0675   35.1633   46.3582 H   0  0  0  0  0  0  0  0  0  0  0  0
   60.3136   32.9148   47.3171 H   0  0  0  0  0  0  0  0  0  0  0  0
   59.7750   30.6950   47.4660 H   0  0  0  0  0  0  0  0  0  0  0  0
  1  2  1  0
  2  3  1  0
  3  4  1  0
  4  5  1  0
  5  6  1  0
  6  7  1  0
  7  8  2  0
  8  9  1  0
  9 10  2  0
 10 11  1  0
 11 12  2  0
 11 13  1  0
 13 14  1  0
 14 15  2  0
 15 16  1  0
 16 17  2  0
 17 18  1  0
 18 19  2  0
 19 20  1  0
 12  7  1  0
 19 14  1  0
 20 10  1  0
  1 21  1  0
  1 22  1  0
  1 23  1  0
  2 24  1  0
  3 25  1  0
  3 26  1  0
  4 27  1  0
  4 28  1  0
  5 29  1  0
  5 30  1  0
  8 31  1  0
  9 32  1  0
 12 33  1  0
 15 34  1  0
 16 35  1  0
 17 36  1  0
 18 37  1  0
 20 38  1  0
M  END
>  <smiles>  (10) 
CNCCCOc1ccc2c(c1)Sc1ccccc1N2

>  <score_type>  (10) 
oracle

>  <origin>  (10) 
adg

>  <m_score__min__energy>  (10) 
-7.6399999999999997

>  <m_primary>  (10) 
energy

$$$$
11:0
     RDKit          3D

 51 53  0  0  0  0  0  0  0  0999 V2000
   56.3010   29.7690   43.7720 C   0  0  0  0  0  0  0  0  0  0  0  0
   57.5250   29.7000   44.6940 C   0  0  0  0  0  0  0  0  0  0  0  0
   57.3930   30.6130   45.7140 O   0  0  0  0  0  0  0  0  0  0  0  0
   57.0270   31.8380   45.3110 N   0  0  0  0  0  0  0  0  0  0  0  0
   58.1340   32.5930   44.7990 C   0  0  0  0  0  0  0  0  0  0  0  0
   57.9930   34.0540   45.2020 C   0  0  0  0  0  0  0  0  0  0  0  0
   58.0870   34.2230   46.6990 C   0  0  0  0  0  0  0  0  0  0  0  0
   58.6550   33.0270   47.3360 N   0  0  0  0  0  0  0  0  0  0  0  0
   59.5510   33.1200   48.4400 C   0  0  0  0  0  0  0  0  0  0  0  0
   60.8310   33.5640   48.2590 C   0  0  0  0  0  0  0  0  0  0  0  0
   61.7710   33.6900   49.2590 C   0  0  0  0  0  0  0  0  0  0  0  0
   61.3630   33.3380   50.5180 N   0  0  0  0  0  0  0  0  0  0  0  0
   62.3520   33.4890   51.5550 C   0  0  0  0  0  0  0  0  0  0  0  0
   60.1100   32.8980   50.7200 C   0  0  0  0  0  0  0  0  0  0  0  0
   59.7090   32.5410   51.9890 C   0  0  0  0  0  0  0  0  0  0  0  0
   58.4200   32.0850   52.2040 C   0  0  0  0  0  0  0  0  0  0  0  0
   57.4900   31.9640   51.1950 C   0  0  0  0  0  0  0  0  0  0  0  0
   57.8860   32.3190   49.9280 C   0  0  0  0  0  0  0  0  0  0  0  0
   59.1710   32.7730   49.7170 C   0  0  0  0  0  0  0  0  0  0  0  0
   63.1490   34.1720   48.9910 C   0  0  0  0  0  0  0  0  0  0  0  0
   63.6490   33.8060   47.6380 C   0  0  0  0  0  0  0  0  0  0  0  0
   62.6020   33.2200   46.7190 C   0  0  0  0  0  0  0  0  0  0  0  0
   61.2890   33.9570   46.8800 C   0  0  0  0  0  0  0  0  0  0  0  0
   55.3861   29.8206   44.3805 H   0  0  0  0  0  0  0  0  0  0  0  0
   56.3702   30.6647   43.1372 H   0  0  0  0  0  0  0  0  0  0  0  0
   56.2691   28.8712   43.1372 H   0  0  0  0  0  0  0  0  0  0  0  0
   57.6060   28.6882   45.1180 H   0  0  0  0  0  0  0  0  0  0  0  0
   58.4300   29.9327   44.1136 H   0  0  0  0  0  0  0  0  0  0  0  0
   56.4290   32.3590   45.9740 H   0  0  0  0  0  0  0  0  0  0  0  0
   59.0717   32.1900   45.2093 H   0  0  0  0  0  0  0  0  0  0  0  0
   58.1472   32.5189   43.7016 H   0  0  0  0  0  0  0  0  0  0  0  0
   58.7952   34.6361   44.7249 H   0  0  0  0  0  0  0  0  0  0  0  0
   57.0052   34.4101   44.8744 H   0  0  0  0  0  0  0  0  0  0  0  0
   58.7294   35.0875   46.9225 H   0  0  0  0  0  0  0  0  0  0  0  0
   57.0729   34.3794   47.0954 H   0  0  0  0  0  0  0  0  0  0  0  0
   58.4190   32.0600   47.0000 H   0  0  0  0  0  0  0  0  0  0  0  0
   61.8658   33.4148   52.5389 H   0  0  0  0  0  0  0  0  0  0  0  0
   63.1081   32.6959   51.4588 H   0  0  0  0  0  0  0  0  0  0  0  0
   62.8370   34.4716   51.4588 H   0  0  0  0  0  0  0  0  0  0  0  0
   60.4129   32.6184   52.8307 H   0  0  0  0  0  0  0  0  0  0  0  0
   58.1249   31.8067   53.2265 H   0  0  0  0  0  0  0  0  0  0  0  0
   56.4721   31.5982   51.3953 H   0  0  0  0  0  0  0  0  0  0  0  0
   57.1818   32.2415   49.0865 H   0  0  0  0  0  0  0  0  0  0  0  0
   63.1591   35.2682   49.0820 H   0  0  0  0  0  0  0  0  0  0  0  0
   63.8112   33.6885   49.7243 H   0  0  0  0  0  0  0  0  0  0  0  0
   64.0528   34.7129   47.1643 H   0  0  0  0  0  0  0  0  0  0  0  0
   64.4075   33.0233   47.7865 H   0  0  0  0  0  0  0  0  0  0  0  0
   62.9429   33.3095   45.6770 H   0  0  0  0  0  0  0  0  0  0  0  0
   62.4518   32.1613   46.9770 H   0  0  0  0  0  0  0  0  0  0  0  0
   61.4377   35.0447   46.8104 H   0  0  0  0  0  0  0  0  0  0  0  0
   60.5578   33.7045   46.0980 H   0  0  0  0  0  0  0  0  0  0  0  0
  1  2  1  0
  2  3  1  0
  3  4  1  0
  4  5  1  0
  5  6  1  0
  6  7  1  0
  7  8  1  0
  8  9  1  0
  9 10  2  0
 10 11  1  0
 11 12  2  0
 12 13  1  0
 12 14  1  0
 14 15  2  0
 15 16  1  0
 16 17  2  0
 17 18  1  0
 18 19  2  0
 11 20  1  0
 20 21  1  0
 21 22  1  0
 22 23  1  0
 19  9  1  0
 23 10  1  0
 19 14  1  0
  1 24  1  0
  1 25  1  0
  1 26  1  0
  2 27  1  0
  2 28  1  0
  4 29  1  0
  5 30  1  0
  5 31  1  0
  6 32  1  0
  6 33  1  0
  7 34  1  0
  7 35  1  0
  8 36  1  0
 13 37  1  0
 13 38  1  0
 13 39  1  0
 15 40  1  0
 16 41  1  0
 17 42  1  0
 18 43  1  0
 20 44  1  0
 20 45  1  0
 21 46  1  0
 21 47  1  0
 22 48  1  0
 22 49  1  0
 23 50  1  0
 23 51  1  0
M  CHG  1  12   1
M  END
>  <smiles>  (11) 
CCONCCCNc1c2c([n+](C)c3ccccc13)CCCC2

>  <score_type>  (11) 
oracle

>  <origin>  (11) 
adg

>  <m_score__min__energy>  (11) 
-6.6600000000000001

>  <m_primary>  (11) 
energy

$$$$
12:0
     RDKit          3D

 31 32  0  0  0  0  0  0  0  0999 V2000
   57.6260   31.9550   41.8950 C   0  0  0  0  0  0  0  0  0  0  0  0
   58.0170   31.8220   43.3430 C   0  0  0  0  0  0  0  0  0  0  0  0
   57.2420   30.8260   44.0420 N   0  0  0  0  0  0  0  0  0  0  0  0
   55.9140   30.8620   44.1960 N   0  0  0  0  0  0  0  0  0  0  0  0
   55.5870   29.7670   44.8970 N   0  0  0  0  0  0  0  0  0  0  0  0
   56.6440   29.0540   45.1850 N   0  0  0  0  0  0  0  0  0  0  0  0
   57.6940   29.7070   44.6550 C   0  0  0  0  0  0  0  0  0  0  0  0
   59.4290   29.2720   44.6870 S   0  0  0  0  0  0  0  0  0  0  0  0
   59.9900   29.3280   46.4240 C   0  0  0  0  0  0  0  0  0  0  0  0
   58.9130   29.7910   47.3410 C   0  0  0  0  0  0  0  0  0  0  0  0
   59.0480   31.1380   47.6330 O   0  0  0  0  0  0  0  0  0  0  0  0
   58.9900   32.2590   46.8960 C   0  0  0  0  0  0  0  0  0  0  0  0
   57.7140   32.7630   46.5920 C   0  0  0  0  0  0  0  0  0  0  0  0
   57.5150   33.8850   45.8560 C   0  0  0  0  0  0  0  0  0  0  0  0
   58.5800   34.5990   45.3600 C   0  0  0  0  0  0  0  0  0  0  0  0
   59.8410   34.1420   45.6330 C   0  0  0  0  0  0  0  0  0  0  0  0
   60.0370   32.9920   46.3880 C   0  0  0  0  0  0  0  0  0  0  0  0
   56.5866   32.3086   41.8269 H   0  0  0  0  0  0  0  0  0  0  0  0
   58.2921   32.6771   41.4002 H   0  0  0  0  0  0  0  0  0  0  0  0
   57.7136   30.9765   41.4002 H   0  0  0  0  0  0  0  0  0  0  0  0
   59.0793   31.5416   43.3959 H   0  0  0  0  0  0  0  0  0  0  0  0
   57.8261   32.7907   43.8280 H   0  0  0  0  0  0  0  0  0  0  0  0
   60.3066   28.3194   46.7280 H   0  0  0  0  0  0  0  0  0  0  0  0
   60.8239   30.0424   46.4898 H   0  0  0  0  0  0  0  0  0  0  0  0
   57.9372   29.6239   46.8615 H   0  0  0  0  0  0  0  0  0  0  0  0
   58.9866   29.2222   48.2797 H   0  0  0  0  0  0  0  0  0  0  0  0
   56.8339   32.2215   46.9691 H   0  0  0  0  0  0  0  0  0  0  0  0
   56.4895   34.2275   45.6537 H   0  0  0  0  0  0  0  0  0  0  0  0
   58.4236   35.5092   44.7624 H   0  0  0  0  0  0  0  0  0  0  0  0
   60.7121   34.6932   45.2491 H   0  0  0  0  0  0  0  0  0  0  0  0
   61.0655   32.6562   46.5863 H   0  0  0  0  0  0  0  0  0  0  0  0
  1  2  1  0
  2  3  1  0
  3  4  1  0
  4  5  2  0
  5  6  1  0
  6  7  2  0
  7  8  1  0
  8  9  1  0
  9 10  1  0
 10 11  1  0
 11 12  1  0
 12 13  2  0
 13 14  1  0
 14 15  2  0
 15 16  1  0
 16 17  2  0
  7  3  1  0
 17 12  1  0
  1 18  1  0
  1 19  1  0
  1 20  1  0
  2 21  1  0
  2 22  1  0
  9 23  1  0
  9 24  1  0
 10 25  1  0
 10 26  1  0
 13 27  1  0
 14 28  1  0
 15 29  1  0
 16 30  1  0
 17 31  1  0
M  END
>  <smiles>  (12) 
CCn1nnnc1SCCOc1ccccc1

>  <score_type>  (12) 
oracle

>  <origin>  (12) 
adg

>  <m_score__min__energy>  (12) 
-6.5099999999999998

>  <m_primary>  (12) 
energy

$$$$
13:0
     RDKit          3D

 31 32  0  0  0  0  0  0  0  0999 V2000
   58.1430   27.0930   42.9860 C   0  0  0  0  0  0  0  0  0  0  0  0
   58.1720   26.6820   44.4300 C   0  0  0  0  0  0  0  0  0  0  0  0
   56.9910   27.5320   45.4690 S   0  0  0  0  0  0  0  0  0  0  0  0
   56.9030   29.2830   45.1960 C   0  0  0  0  0  0  0  0  0  0  0  0
   55.9800   30.0080   44.5240 N   0  0  0  0  0  0  0  0  0  0  0  0
   56.2940   31.2910   44.5740 N   0  0  0  0  0  0  0  0  0  0  0  0
   57.4410   31.4290   45.2900 C   0  0  0  0  0  0  0  0  0  0  0  0
   58.1680   32.6470   45.6170 C   0  0  0  0  0  0  0  0  0  0  0  0
   58.5660   33.4480   44.5410 C   0  0  0  0  0  0  0  0  0  0  0  0
   59.2670   34.6310   44.7690 C   0  0  0  0  0  0  0  0  0  0  0  0
   59.5910   35.0530   46.0440 C   0  0  0  0  0  0  0  0  0  0  0  0
   59.1900   34.2510   47.0940 C   0  0  0  0  0  0  0  0  0  0  0  0
   59.5050   34.6610   48.3460 F   0  0  0  0  0  0  0  0  0  0  0  0
   58.4880   33.0640   46.8670 C   0  0  0  0  0  0  0  0  0  0  0  0
   57.7840   30.1830   45.6520 N   0  0  0  0  0  0  0  0  0  0  0  0
   58.9620   29.8800   46.4390 C   0  0  0  0  0  0  0  0  0  0  0  0
   60.1020   29.3660   45.5580 C   0  0  0  0  0  0  0  0  0  0  0  0
   58.0657   28.1882   42.9180 H   0  0  0  0  0  0  0  0  0  0  0  0
   59.0669   26.7592   42.4911 H   0  0  0  0  0  0  0  0  0  0  0  0
   57.2751   26.6327   42.4911 H   0  0  0  0  0  0  0  0  0  0  0  0
   57.9629   25.6034   44.4841 H   0  0  0  0  0  0  0  0  0  0  0  0
   59.1696   26.9474   44.8099 H   0  0  0  0  0  0  0  0  0  0  0  0
   58.3249   33.1432   43.5119 H   0  0  0  0  0  0  0  0  0  0  0  0
   59.5709   35.2462   43.9092 H   0  0  0  0  0  0  0  0  0  0  0  0
   60.1447   35.9879   46.2153 H   0  0  0  0  0  0  0  0  0  0  0  0
   58.1860   32.4497   47.7281 H   0  0  0  0  0  0  0  0  0  0  0  0
   59.2923   30.7932   46.9558 H   0  0  0  0  0  0  0  0  0  0  0  0
   58.7025   29.0946   47.1642 H   0  0  0  0  0  0  0  0  0  0  0  0
   60.9198   28.9973   46.1946 H   0  0  0  0  0  0  0  0  0  0  0  0
   59.7338   28.5468   44.9229 H   0  0  0  0  0  0  0  0  0  0  0  0
   60.4722   30.1843   44.9229 H   0  0  0  0  0  0  0  0  0  0  0  0
  1  2  1  0
  2  3  1  0
  3  4  1  0
  4  5  2  0
  5  6  1  0
  6  7  2  0
  7  8  1  0
  8  9  2  0
  9 10  1  0
 10 11  2  0
 11 12  1  0
 12 13  1  0
 12 14  2  0
  7 15  1  0
 15 16  1  0
 16 17  1  0
 15  4  1  0
 14  8  1  0
  1 18  1  0
  1 19  1  0
  1 20  1  0
  2 21  1  0
  2 22  1  0
  9 23  1  0
 10 24  1  0
 11 25  1  0
 14 26  1  0
 16 27  1  0
 16 28  1  0
 17 29  1  0
 17 30  1  0
 17 31  1  0
M  END
>  <smiles>  (13) 
CCSc1nnc(-c2cccc(F)c2)n1CC

>  <score_type>  (13) 
oracle

>  <origin>  (13) 
adg

>  <m_score__min__energy>  (13) 
-6.7599999999999998

>  <m_primary>  (13) 
energy

$$$$
14:0
     RDKit          3D

 50 54  0  0  0  0  0  0  0  0999 V2000
   57.4240   24.8210   47.5040 C   0  0  0  0  0  0  0  0  0  0  0  0
   58.1460   26.1240   47.2770 C   0  0  0  0  0  0  0  0  0  0  0  0
   58.6510   26.9230   48.1920 O   0  0  0  0  0  0  0  0  0  0  0  0
   59.2090   27.9720   47.6170 C   0  0  0  0  0  0  0  0  0  0  0  0
   59.8790   29.0930   48.2670 C   0  0  0  0  0  0  0  0  0  0  0  0
   59.7160   29.4070   49.5980 C   0  0  0  0  0  0  0  0  0  0  0  0
   60.3500   30.4660   50.2120 C   0  0  0  0  0  0  0  0  0  0  0  0
   61.2020   31.2670   49.4510 C   0  0  0  0  0  0  0  0  0  0  0  0
   61.8420   32.3340   50.0600 C   0  0  0  0  0  0  0  0  0  0  0  0
   62.6860   33.1250   49.3050 C   0  0  0  0  0  0  0  0  0  0  0  0
   62.8860   32.8580   47.9680 C   0  0  0  0  0  0  0  0  0  0  0  0
   62.2460   31.8000   47.3800 C   0  0  0  0  0  0  0  0  0  0  0  0
   61.3950   30.9810   48.0940 C   0  0  0  0  0  0  0  0  0  0  0  0
   60.7310   29.9070   47.5370 C   0  0  0  0  0  0  0  0  0  0  0  0
   59.0600   27.8480   46.2730 N   0  0  0  0  0  0  0  0  0  0  0  0
   58.3980   26.7000   46.0370 C   0  0  0  0  0  0  0  0  0  0  0  0
   57.9750   26.0830   44.7710 C   0  0  0  0  0  0  0  0  0  0  0  0
   57.7730   27.2790   43.4290 S   0  0  0  0  0  0  0  0  0  0  0  0
   57.4550   28.9140   44.1130 C   0  0  0  0  0  0  0  0  0  0  0  0
   56.1850   29.3650   44.2860 N   0  0  0  0  0  0  0  0  0  0  0  0
   56.2880   30.5970   44.8020 N   0  0  0  0  0  0  0  0  0  0  0  0
   57.6160   30.8840   44.9400 C   0  0  0  0  0  0  0  0  0  0  0  0
   58.1060   32.1510   45.4730 C   0  0  0  0  0  0  0  0  0  0  0  0
   58.3560   33.1880   44.5660 C   0  0  0  0  0  0  0  0  0  0  0  0
   58.8220   34.4190   44.9960 C   0  0  0  0  0  0  0  0  0  0  0  0
   59.0370   34.6120   46.3320 C   0  0  0  0  0  0  0  0  0  0  0  0
   59.4980   35.8350   46.7290 F   0  0  0  0  0  0  0  0  0  0  0  0
   58.7990   33.6120   47.2300 C   0  0  0  0  0  0  0  0  0  0  0  0
   58.3300   32.3660   46.8180 C   0  0  0  0  0  0  0  0  0  0  0  0
   58.3380   29.8400   44.5120 N   0  0  0  0  0  0  0  0  0  0  0  0
   59.7680   29.7180   44.4800 C   0  0  0  0  0  0  0  0  0  0  0  0
   57.3240   24.6406   48.5845 H   0  0  0  0  0  0  0  0  0  0  0  0
   56.4248   24.8709   47.0466 H   0  0  0  0  0  0  0  0  0  0  0  0
   57.9961   24.0003   47.0466 H   0  0  0  0  0  0  0  0  0  0  0  0
   59.0446   28.7798   50.2029 H   0  0  0  0  0  0  0  0  0  0  0  0
   60.1876   30.6751   51.2797 H   0  0  0  0  0  0  0  0  0  0  0  0
   61.6808   32.5478   51.1269 H   0  0  0  0  0  0  0  0  0  0  0  0
   63.2026   33.9749   49.7748 H   0  0  0  0  0  0  0  0  0  0  0  0
   63.5588   33.4939   47.3740 H   0  0  0  0  0  0  0  0  0  0  0  0
   62.4143   31.5977   46.3119 H   0  0  0  0  0  0  0  0  0  0  0  0
   60.8842   29.6879   46.4700 H   0  0  0  0  0  0  0  0  0  0  0  0
   58.7337   25.3453   44.4708 H   0  0  0  0  0  0  0  0  0  0  0  0
   56.9935   25.6180   44.9455 H   0  0  0  0  0  0  0  0  0  0  0  0
   58.1791   33.0219   43.4931 H   0  0  0  0  0  0  0  0  0  0  0  0
   59.0157   35.2271   44.2753 H   0  0  0  0  0  0  0  0  0  0  0  0
   58.9809   33.7931   48.2996 H   0  0  0  0  0  0  0  0  0  0  0  0
   58.1417   31.5682   47.5515 H   0  0  0  0  0  0  0  0  0  0  0  0
   60.1563   29.6849   45.5087 H   0  0  0  0  0  0  0  0  0  0  0  0
   60.0454   28.7929   43.9534 H   0  0  0  0  0  0  0  0  0  0  0  0
   60.1981   30.5827   43.9534 H   0  0  0  0  0  0  0  0  0  0  0  0
  1  2  1  0
  2  3  1  0
  3  4  1  0
  4  5  1  0
  5  6  2  0
  6  7  1  0
  7  8  2  0
  8  9  1  0
  9 10  2  0
 10 11  1  0
 11 12  2  0
 12 13  1  0
 13 14  2  0
  4 15  2  0
 15 16  1  0
 16 17  1  0
 17 18  1  0
 18 19  1  0
 19 20  2  0
 20 21  1  0
 21 22  2  0
 22 23  1  0
 23 24  2  0
 24 25  1  0
 25 26  2  0
 26 27  1  0
 26 28  1  0
 28 29  2  0
 22 30  1  0
 30 31  1  0
 16  2  2  0
 30 19  1  0
 14  5  1  0
 29 23  1  0
 13  8  1  0
  1 32  1  0
  1 33  1  0
  1 34  1  0
  6 35  1  0
  7 36  1  0
  9 37  1  0
 10 38  1  0
 11 39  1  0
 12 40  1  0
 14 41  1  0
 17 42  1  0
 17 43  1  0
 24 44  1  0
 25 45  1  0
 28 46  1  0
 29 47  1  0
 31 48  1  0
 31 49  1  0
 31 50  1  0
M  END
>  <smiles>  (14) 
Cc1oc(-c2ccc3ccccc3c2)nc1CSc1nnc(-c2ccc(F)cc2)n1C

>  <score_type>  (14) 
oracle

>  <origin>  (14) 
adg

>  <m_score__min__energy>  (14) 
-9.2200000000000006

>  <m_primary>  (14) 
energy

$$$$
15:0
     RDKit          3D

 55 57  0  0  1  0  0  0  0  0999 V2000
   55.0220   25.0570   45.6510 C   0  0  0  0  0  0  0  0  0  0  0  0
   55.2470   26.3470   46.0550 O   0  0  0  0  0  0  0  0  0  0  0  0
   56.5760   26.6140   46.3320 C   0  0  0  0  0  0  0  0  0  0  0  0
   57.5010   26.3230   45.1900 C   0  0  0  0  0  0  0  0  0  0  0  0
   58.9060   26.7250   45.3900 C   0  0  0  0  0  0  0  0  0  0  0  0
   59.1220   28.0020   45.8840 N   0  0  0  0  0  0  0  0  0  0  0  0
   59.7030   28.2920   47.1200 C   0  0  0  0  0  0  0  0  0  0  0  0
   58.6650   29.0450   47.9680 C   0  0  0  0  0  0  0  0  0  0  0  0
   58.8980   30.5270   47.8410 C   0  0  0  0  0  0  0  0  0  0  0  0
   59.4480   30.9270   46.5090 C   0  0  2  0  0  0  0  0  0  0  0  0
   59.4800   32.3550   46.3080 N   0  0  0  0  0  0  0  0  0  0  0  0
   60.3370   33.3350   46.7250 C   0  0  0  0  0  0  0  0  0  0  0  0
   61.5620   33.3480   47.5430 C   0  0  0  0  0  0  0  0  0  0  0  0
   61.5360   33.5750   48.9010 C   0  0  0  0  0  0  0  0  0  0  0  0
   62.7370   33.5800   49.5790 C   0  0  0  0  0  0  0  0  0  0  0  0
   63.9420   33.3680   48.9450 C   0  0  0  0  0  0  0  0  0  0  0  0
   65.1190   33.3770   49.6230 F   0  0  0  0  0  0  0  0  0  0  0  0
   63.9500   33.1450   47.5960 C   0  0  0  0  0  0  0  0  0  0  0  0
   62.7660   33.1310   46.8740 C   0  0  0  0  0  0  0  0  0  0  0  0
   59.5670   34.2700   46.0720 C   0  0  0  0  0  0  0  0  0  0  0  0
   59.6580   35.7390   45.9050 C   0  0  0  0  0  0  0  0  0  0  0  0
   58.7410   33.2560   45.6820 N   0  0  0  0  0  0  0  0  0  0  0  0
   57.5310   33.2020   44.8930 C   0  0  0  0  0  0  0  0  0  0  0  0
   58.7330   30.2830   45.3530 C   0  0  0  0  0  0  0  0  0  0  0  0
   59.4440   29.0200   44.9110 C   0  0  0  0  0  0  0  0  0  0  0  0
   54.9093   24.4106   46.5339 H   0  0  0  0  0  0  0  0  0  0  0  0
   54.1033   25.0168   45.0474 H   0  0  0  0  0  0  0  0  0  0  0  0
   55.8729   24.7081   45.0474 H   0  0  0  0  0  0  0  0  0  0  0  0
   56.6692   27.6789   46.5914 H   0  0  0  0  0  0  0  0  0  0  0  0
   56.8704   25.9522   47.1599 H   0  0  0  0  0  0  0  0  0  0  0  0
   57.4820   25.2385   45.0069 H   0  0  0  0  0  0  0  0  0  0  0  0
   57.1336   26.9231   44.3445 H   0  0  0  0  0  0  0  0  0  0  0  0
   59.3596   26.0132   46.0954 H   0  0  0  0  0  0  0  0  0  0  0  0
   59.3540   26.7231   44.3853 H   0  0  0  0  0  0  0  0  0  0  0  0
   59.9913   27.3584   47.6252 H   0  0  0  0  0  0  0  0  0  0  0  0
   60.6042   28.9078   46.9835 H   0  0  0  0  0  0  0  0  0  0  0  0
   57.6532   28.8005   47.6124 H   0  0  0  0  0  0  0  0  0  0  0  0
   58.7638   28.7458   49.0219 H   0  0  0  0  0  0  0  0  0  0  0  0
   57.9398   31.0454   47.9931 H   0  0  0  0  0  0  0  0  0  0  0  0
   59.6448   30.8057   48.5990 H   0  0  0  0  0  0  0  0  0  0  0  0
   60.4832   30.5558   46.5308 H   0  0  0  0  0  0  0  0  0  0  0  0
   60.5864   33.7471   49.4288 H   0  0  0  0  0  0  0  0  0  0  0  0
   62.7329   33.7596   50.6642 H   0  0  0  0  0  0  0  0  0  0  0  0
   64.9054   32.9749   47.0781 H   0  0  0  0  0  0  0  0  0  0  0  0
   62.7766   32.9512   45.7888 H   0  0  0  0  0  0  0  0  0  0  0  0
   59.6878   36.2193   46.8941 H   0  0  0  0  0  0  0  0  0  0  0  0
   60.5733   35.9888   45.3484 H   0  0  0  0  0  0  0  0  0  0  0  0
   58.7805   36.0998   45.3484 H   0  0  0  0  0  0  0  0  0  0  0  0
   56.6586   33.1631   45.5618 H   0  0  0  0  0  0  0  0  0  0  0  0
   57.4668   34.0982   44.2584 H   0  0  0  0  0  0  0  0  0  0  0  0
   57.5469   32.3037   44.2584 H   0  0  0  0  0  0  0  0  0  0  0  0
   57.7075   30.0299   45.6601 H   0  0  0  0  0  0  0  0  0  0  0  0
   58.7193   30.9907   44.5110 H   0  0  0  0  0  0  0  0  0  0  0  0
   59.0930   28.7162   43.9138 H   0  0  0  0  0  0  0  0  0  0  0  0
   60.5307   29.1784   44.8479 H   0  0  0  0  0  0  0  0  0  0  0  0
  1  2  1  0
  2  3  1  0
  3  4  1  0
  4  5  1  0
  5  6  1  0
  6  7  1  0
  7  8  1  0
  8  9  1  0
  9 10  1  0
 10 11  1  0
 11 12  1  0
 12 13  1  0
 13 14  2  0
 14 15  1  0
 15 16  2  0
 16 17  1  0
 16 18  1  0
 18 19  2  0
 12 20  2  0
 20 21  1  0
 20 22  1  0
 22 23  1  0
 10 24  1  0
 24 25  1  0
 25  6  1  0
 22 11  1  0
 19 13  1  0
  1 26  1  0
  1 27  1  0
  1 28  1  0
  3 29  1  0
  3 30  1  0
  4 31  1  0
  4 32  1  0
  5 33  1  0
  5 34  1  0
  7 35  1  0
  7 36  1  0
  8 37  1  0
  8 38  1  0
  9 39  1  0
  9 40  1  0
 10 41  1  1
 14 42  1  0
 15 43  1  0
 18 44  1  0
 19 45  1  0
 21 46  1  0
 21 47  1  0
 21 48  1  0
 23 49  1  0
 23 50  1  0
 23 51  1  0
 24 52  1  0
 24 53  1  0
 25 54  1  0
 25 55  1  0
M  END
>  <smiles>  (15) 
COCCCN1CCCC(n2c(-c3ccc(F)cc3)c(C)n2C)CC1

>  <score_type>  (15) 
oracle

>  <origin>  (15) 
adg

>  <m_score__min__energy>  (15) 
-5.6100000000000003

>  <m_primary>  (15) 
energy

$$$$
16:0
     RDKit          3D

 57 60  0  0  0  0  0  0  0  0999 V2000
   55.5130   30.1030   44.0960 C   0  0  0  0  0  0  0  0  0  0  0  0
   56.6850   29.8590   44.9180 N   0  0  0  0  0  0  0  0  0  0  0  0
   57.5660   30.9770   44.7990 C   0  0  0  0  0  0  0  0  0  0  0  0
   58.9860   30.5450   44.9470 C   0  0  0  0  0  0  0  0  0  0  0  0
   59.1170   29.4310   45.8310 N   0  0  0  0  0  0  0  0  0  0  0  0
   58.5570   29.5900   47.1310 C   0  0  0  0  0  0  0  0  0  0  0  0
   59.5910   29.7070   48.2440 C   0  0  0  0  0  0  0  0  0  0  0  0
   58.9250   30.2730   49.4710 C   0  0  0  0  0  0  0  0  0  0  0  0
   59.2090   31.6650   49.7440 N   0  0  0  0  0  0  0  0  0  0  0  0
   60.2420   32.2740   48.9370 C   0  0  0  0  0  0  0  0  0  0  0  0
   61.5780   32.1590   49.2390 C   0  0  0  0  0  0  0  0  0  0  0  0
   61.9550   31.5140   50.3980 C   0  0  0  0  0  0  0  0  0  0  0  0
   63.2900   31.4080   50.7220 C   0  0  0  0  0  0  0  0  0  0  0  0
   64.2250   31.9550   49.8760 C   0  0  0  0  0  0  0  0  0  0  0  0
   63.8230   32.6030   48.7130 C   0  0  0  0  0  0  0  0  0  0  0  0
   62.4800   32.7200   48.3670 C   0  0  0  0  0  0  0  0  0  0  0  0
   62.1030   33.3780   47.2310 N   0  0  0  0  0  0  0  0  0  0  0  0
   63.1220   33.9220   46.3750 C   0  0  0  0  0  0  0  0  0  0  0  0
   60.7840   33.4610   46.9890 C   0  0  0  0  0  0  0  0  0  0  0  0
   60.3360   34.1270   45.8550 C   0  0  0  0  0  0  0  0  0  0  0  0
   58.9850   34.2300   45.5910 C   0  0  0  0  0  0  0  0  0  0  0  0
   58.0330   33.7000   46.4060 C   0  0  0  0  0  0  0  0  0  0  0  0
   56.6610   33.8420   46.0710 N   0  0  0  0  0  0  0  0  0  0  0  0
   58.4580   33.0270   47.5530 C   0  0  0  0  0  0  0  0  0  0  0  0
   59.8120   32.9300   47.8050 C   0  0  0  0  0  0  0  0  0  0  0  0
   58.5250   28.2650   45.2110 C   0  0  0  0  0  0  0  0  0  0  0  0
   57.2210   28.5950   44.5240 C   0  0  0  0  0  0  0  0  0  0  0  0
   54.6424   30.2843   44.7434 H   0  0  0  0  0  0  0  0  0  0  0  0
   55.6875   30.9841   43.4610 H   0  0  0  0  0  0  0  0  0  0  0  0
   55.3214   29.2255   43.4610 H   0  0  0  0  0  0  0  0  0  0  0  0
   57.4303   31.4405   43.8107 H   0  0  0  0  0  0  0  0  0  0  0  0
   57.3307   31.6999   45.5940 H   0  0  0  0  0  0  0  0  0  0  0  0
   59.3758   30.2615   43.9582 H   0  0  0  0  0  0  0  0  0  0  0  0
   59.5541   31.3852   45.3728 H   0  0  0  0  0  0  0  0  0  0  0  0
   57.9425   30.5023   47.1331 H   0  0  0  0  0  0  0  0  0  0  0  0
   57.9708   28.6823   47.3369 H   0  0  0  0  0  0  0  0  0  0  0  0
   60.0019   28.7125   48.4724 H   0  0  0  0  0  0  0  0  0  0  0  0
   60.4090   30.3695   47.9247 H   0  0  0  0  0  0  0  0  0  0  0  0
   57.8373   30.1665   49.3466 H   0  0  0  0  0  0  0  0  0  0  0  0
   59.3294   29.7079   50.3237 H   0  0  0  0  0  0  0  0  0  0  0  0
   58.7220   32.2330   50.4700 H   0  0  0  0  0  0  0  0  0  0  0  0
   61.1911   31.0847   51.0629 H   0  0  0  0  0  0  0  0  0  0  0  0
   63.6025   30.8939   51.6429 H   0  0  0  0  0  0  0  0  0  0  0  0
   65.2950   31.8800   50.1197 H   0  0  0  0  0  0  0  0  0  0  0  0
   64.5866   33.0344   48.0491 H   0  0  0  0  0  0  0  0  0  0  0  0
   63.9266   34.3515   46.9899 H   0  0  0  0  0  0  0  0  0  0  0  0
   63.5325   33.1230   45.7401 H   0  0  0  0  0  0  0  0  0  0  0  0
   62.6865   34.7076   45.7401 H   0  0  0  0  0  0  0  0  0  0  0  0
   61.0633   34.5756   45.1623 H   0  0  0  0  0  0  0  0  0  0  0  0
   58.6646   34.7629   44.6836 H   0  0  0  0  0  0  0  0  0  0  0  0
   55.9310   33.9180   46.8220 H   0  0  0  0  0  0  0  0  0  0  0  0
   56.3260   33.8760   45.0630 H   0  0  0  0  0  0  0  0  0  0  0  0
   57.7269   32.5818   48.2439 H   0  0  0  0  0  0  0  0  0  0  0  0
   59.2276   27.8625   44.4665 H   0  0  0  0  0  0  0  0  0  0  0  0
   58.3182   27.5267   45.9998 H   0  0  0  0  0  0  0  0  0  0  0  0
   57.3917   28.6103   43.4374 H   0  0  0  0  0  0  0  0  0  0  0  0
   56.4923   27.8242   44.8153 H   0  0  0  0  0  0  0  0  0  0  0  0
  1  2  1  0
  2  3  1  0
  3  4  1  0
  4  5  1  0
  5  6  1  0
  6  7  1  0
  7  8  1  0
  8  9  1  0
  9 10  1  0
 10 11  1  0
 11 12  2  0
 12 13  1  0
 13 14  2  0
 14 15  1  0
 15 16  2  0
 16 17  1  0
 17 18  1  0
 17 19  2  0
 19 20  1  0
 20 21  2  0
 21 22  1  0
 22 23  1  0
 22 24  2  0
 24 25  1  0
  5 26  1  0
 26 27  1  0
 27  2  1  0
 25 10  2  0
 16 11  1  0
 25 19  1  0
  1 28  1  0
  1 29  1  0
  1 30  1  0
  3 31  1  0
  3 32  1  0
  4 33  1  0
  4 34  1  0
  6 35  1  0
  6 36  1  0
  7 37  1  0
  7 38  1  0
  8 39  1  0
  8 40  1  0
  9 41  1  0
 12 42  1  0
 13 43  1  0
 14 44  1  0
 15 45  1  0
 18 46  1  0
 18 47  1  0
 18 48  1  0
 20 49  1  0
 21 50  1  0
 23 51  1  0
 23 52  1  0
 24 53  1  0
 26 54  1  0
 26 55  1  0
 27 56  1  0
 27 57  1  0
M  CHG  1  17   1
M  END
>  <smiles>  (16) 
CN1CCN(CCCNc2c3ccccc3[n+](C)c3ccc(N)cc23)CC1

>  <score_type>  (16) 
oracle

>  <origin>  (16) 
adg

>  <m_score__min__energy>  (16) 
-6.7300000000000004

>  <m_primary>  (16) 
energy

$$$$
17:0
     RDKit          3D

 70 74  0  0  0  0  0  0  0  0999 V2000
   57.7970   26.3850   44.8640 C   0  0  0  0  0  0  0  0  0  0  0  0
   57.6130   26.0510   46.3510 C   0  0  0  0  0  0  0  0  0  0  0  0
   57.9270   27.2480   47.0640 N   0  0  0  0  0  0  0  0  0  0  0  0
   59.3710   27.5080   47.0910 C   0  0  0  0  0  0  0  0  0  0  0  0
   59.5830   28.9850   47.0920 C   0  0  0  0  0  0  0  0  0  0  0  0
   58.3530   29.7970   47.1260 N   0  0  0  0  0  0  0  0  0  0  0  0
   58.4780   31.1500   46.7940 C   0  0  0  0  0  0  0  0  0  0  0  0
   58.2370   31.4630   45.4450 C   0  0  0  0  0  0  0  0  0  0  0  0
   57.7480   30.5020   44.5840 C   0  0  0  0  0  0  0  0  0  0  0  0
   57.4590   30.7280   43.2580 C   0  0  0  0  0  0  0  0  0  0  0  0
   57.6700   31.9930   42.7650 C   0  0  0  0  0  0  0  0  0  0  0  0
   58.1560   32.9650   43.6130 C   0  0  0  0  0  0  0  0  0  0  0  0
   58.4430   32.7230   44.9500 C   0  0  0  0  0  0  0  0  0  0  0  0
   58.8950   33.7380   45.7550 N   0  0  0  0  0  0  0  0  0  0  0  0
   59.0790   34.9950   45.1080 C   0  0  0  0  0  0  0  0  0  0  0  0
   59.1250   33.4580   47.0440 C   0  0  0  0  0  0  0  0  0  0  0  0
   59.5690   34.4910   47.8400 C   0  0  0  0  0  0  0  0  0  0  0  0
   59.8090   34.2510   49.1730 C   0  0  0  0  0  0  0  0  0  0  0  0
   59.5980   32.9880   49.6790 C   0  0  0  0  0  0  0  0  0  0  0  0
   59.1510   31.9200   48.9190 C   0  0  0  0  0  0  0  0  0  0  0  0
   58.8970   30.7110   49.5900 N   0  0  0  0  0  0  0  0  0  0  0  0
   59.2390   30.5670   51.0240 C   0  0  0  0  0  0  0  0  0  0  0  0
   59.9680   29.2900   51.2770 C   0  0  0  0  0  0  0  0  0  0  0  0
   61.4000   29.5280   51.6640 C   0  0  0  0  0  0  0  0  0  0  0  0
   61.9800   30.6570   50.9630 N   0  0  0  0  0  0  0  0  0  0  0  0
   62.4040   31.7660   51.6260 C   0  0  0  0  0  0  0  0  0  0  0  0
   62.9580   32.8400   50.9420 C   0  0  0  0  0  0  0  0  0  0  0  0
   63.0820   32.7880   49.5690 C   0  0  0  0  0  0  0  0  0  0  0  0
   63.6260   33.8270   48.8340 C   0  0  0  0  0  0  0  0  0  0  0  0
   63.7330   33.7400   47.4700 C   0  0  0  0  0  0  0  0  0  0  0  0
   63.3060   32.6140   46.7590 C   0  0  0  0  0  0  0  0  0  0  0  0
   62.7660   31.5880   47.5230 C   0  0  0  0  0  0  0  0  0  0  0  0
   62.6540   31.6670   48.8950 C   0  0  0  0  0  0  0  0  0  0  0  0
   62.1070   30.6170   49.6090 C   0  0  0  0  0  0  0  0  0  0  0  0
   58.9210   32.1710   47.5850 C   0  0  0  0  0  0  0  0  0  0  0  0
   58.3257   27.3447   44.7664 H   0  0  0  0  0  0  0  0  0  0  0  0
   58.3852   25.5914   44.3800 H   0  0  0  0  0  0  0  0  0  0  0  0
   56.8119   26.4582   44.3800 H   0  0  0  0  0  0  0  0  0  0  0  0
   56.5740   25.7491   46.5494 H   0  0  0  0  0  0  0  0  0  0  0  0
   58.2593   25.2162   46.6599 H   0  0  0  0  0  0  0  0  0  0  0  0
   57.5130   28.0520   46.5200 H   0  0  0  0  0  0  0  0  0  0  0  0
   59.8108   27.0688   47.9986 H   0  0  0  0  0  0  0  0  0  0  0  0
   59.8530   27.0573   46.2109 H   0  0  0  0  0  0  0  0  0  0  0  0
   60.1844   29.2416   47.9766 H   0  0  0  0  0  0  0  0  0  0  0  0
   60.0784   29.2223   46.1390 H   0  0  0  0  0  0  0  0  0  0  0  0
   57.4160   29.3440   47.3580 H   0  0  0  0  0  0  0  0  0  0  0  0
   57.5785   29.4911   44.9831 H   0  0  0  0  0  0  0  0  0  0  0  0
   57.0724   29.9238   42.6148 H   0  0  0  0  0  0  0  0  0  0  0  0
   57.4548   32.2261   41.7117 H   0  0  0  0  0  0  0  0  0  0  0  0
   58.3237   33.9760   43.2134 H   0  0  0  0  0  0  0  0  0  0  0  0
   59.1945   35.7840   45.8657 H   0  0  0  0  0  0  0  0  0  0  0  0
   59.9809   34.9554   44.4795 H   0  0  0  0  0  0  0  0  0  0  0  0
   58.2036   35.2155   44.4795 H   0  0  0  0  0  0  0  0  0  0  0  0
   59.7293   35.4932   47.4158 H   0  0  0  0  0  0  0  0  0  0  0  0
   60.1658   35.0596   49.8279 H   0  0  0  0  0  0  0  0  0  0  0  0
   59.7957   32.8176   50.7476 H   0  0  0  0  0  0  0  0  0  0  0  0
   58.4450   29.8560   49.2410 H   0  0  0  0  0  0  0  0  0  0  0  0
   59.8762   31.4106   51.3278 H   0  0  0  0  0  0  0  0  0  0  0  0
   58.3059   30.5578   51.6064 H   0  0  0  0  0  0  0  0  0  0  0  0
   59.4648   28.7490   52.0920 H   0  0  0  0  0  0  0  0  0  0  0  0
   59.9600   28.7034   50.3465 H   0  0  0  0  0  0  0  0  0  0  0  0
   61.4464   29.7218   52.7458 H   0  0  0  0  0  0  0  0  0  0  0  0
   61.9755   28.6312   51.3910 H   0  0  0  0  0  0  0  0  0  0  0  0
   62.3066   31.8130   52.7207 H   0  0  0  0  0  0  0  0  0  0  0  0
   63.2969   33.7295   51.4932 H   0  0  0  0  0  0  0  0  0  0  0  0
   63.9765   34.7329   49.3502 H   0  0  0  0  0  0  0  0  0  0  0  0
   64.1694   34.5843   46.9162 H   0  0  0  0  0  0  0  0  0  0  0  0
   63.3924   32.5455   45.6645 H   0  0  0  0  0  0  0  0  0  0  0  0
   62.4144   30.6781   47.0147 H   0  0  0  0  0  0  0  0  0  0  0  0
   61.7646   29.7234   49.0666 H   0  0  0  0  0  0  0  0  0  0  0  0
  1  2  1  0
  2  3  1  0
  3  4  1  0
  4  5  1  0
  5  6  1  0
  6  7  1  0
  7  8  2  0
  8  9  1  0
  9 10  2  0
 10 11  1  0
 11 12  2  0
 12 13  1  0
 13 14  2  0
 14 15  1  0
 14 16  1  0
 16 17  2  0
 17 18  1  0
 18 19  2  0
 19 20  1  0
 20 21  1  0
 21 22  1  0
 22 23  1  0
 23 24  1  0
 24 25  1  0
 25 26  2  0
 26 27  1  0
 27 28  2  0
 28 29  1  0
 29 30  2  0
 30 31  1  0
 31 32  2  0
 32 33  1  0
 33 34  2  0
 20 35  2  0
 35  7  1  0
 13  8  1  0
 35 16  1  0
 34 25  1  0
 33 28  1  0
  1 36  1  0
  1 37  1  0
  1 38  1  0
  2 39  1  0
  2 40  1  0
  3 41  1  0
  4 42  1  0
  4 43  1  0
  5 44  1  0
  5 45  1  0
  6 46  1  0
  9 47  1  0
 10 48  1  0
 11 49  1  0
 12 50  1  0
 15 51  1  0
 15 52  1  0
 15 53  1  0
 17 54  1  0
 18 55  1  0
 19 56  1  0
 21 57  1  0
 22 58  1  0
 22 59  1  0
 23 60  1  0
 23 61  1  0
 24 62  1  0
 24 63  1  0
 26 64  1  0
 27 65  1  0
 29 66  1  0
 30 67  1  0
 31 68  1  0
 32 69  1  0
 34 70  1  0
M  CHG  2  14   1  25   1
M  END
>  <smiles>  (17) 
CCNCCNc1c2ccccc2[n+](C)c2cccc(NCCC[n+]3ccc4ccccc4c3)c12

>  <score_type>  (17) 
oracle

>  <origin>  (17) 
adg

>  <m_score__min__energy>  (17) 
-5.7300000000000004

>  <m_primary>  (17) 
energy

$$$$
