0:0
     RDKit          3D

 39 42  0  0  1  0  0  0  0  0999 V2000
   55.5250   30.0860   43.7520 C   0  0  0  0  0  0  0  0  0  0  0  0
   56.5510   29.6530   44.7410 C   0  0  0  0  0  0  0  0  0  0  0  0
   57.4050   30.5650   45.2380 N   0  0  0  0  0  0  0  0  0  0  0  0
   58.3710   30.2460   46.1470 C   0  0  0  0  0  0  0  0  0  0  0  0
   59.2750   31.2540   46.6600 C   0  0  0  0  0  0  0  0  0  0  0  0
   58.9220   32.5190   47.0340 C   0  0  0  0  0  0  0  0  0  0  0  0
   59.7580   33.4750   47.5160 C   0  0  0  0  0  0  0  0  0  0  0  0
   61.1170   33.1730   47.6560 C   0  0  0  0  0  0  0  0  0  0  0  0
   62.0990   33.9200   48.0920 N   0  0  0  0  0  0  0  0  0  0  0  0
   63.2410   33.6980   48.2220 C   0  0  0  0  0  0  0  0  0  0  0  0
   63.2670   31.8740   47.5950 S   0  0  0  0  0  0  0  0  0  0  0  0
   61.5250   31.8930   47.2870 C   0  0  0  0  0  0  0  0  0  0  0  0
   60.6220   30.9250   46.7890 C   0  0  0  0  0  0  0  0  0  0  0  0
   58.4170   28.9240   46.5270 C   0  0  0  0  0  0  0  0  0  0  0  0
   57.5240   28.0080   46.0000 C   0  0  0  0  0  0  0  0  0  0  0  0
   57.5760   26.7890   46.3590 N   0  0  0  0  0  0  0  0  0  0  0  0
   56.6590   25.7870   45.9360 C   0  0  0  0  0  0  0  0  0  0  0  0
   55.4090   25.9210   46.0180 O   0  0  0  0  0  0  0  0  0  0  0  0
   57.2700   24.5580   45.3840 C   0  0  0  0  0  0  0  0  0  0  0  0
   58.5070   24.1120   45.7980 C   0  0  0  0  0  0  0  0  0  0  0  0
   59.0250   22.9580   45.2460 C   0  0  0  0  0  0  0  0  0  0  0  0
   58.3240   22.2520   44.2930 C   0  0  0  0  0  0  0  0  0  0  0  0
   57.0930   22.6920   43.8800 C   0  0  0  0  0  0  0  0  0  0  0  0
   56.5520   23.8460   44.4170 C   0  0  0  0  0  0  0  0  0  0  0  0
   56.5820   28.3590   45.1020 N   0  0  0  0  0  0  0  0  0  0  0  0
   54.6379   30.4604   44.2840 H   0  0  0  0  0  0  0  0  0  0  0  0
   55.9389   30.8862   43.1208 H   0  0  0  0  0  0  0  0  0  0  0  0
   55.2404   29.2312   43.1208 H   0  0  0  0  0  0  0  0  0  0  0  0
   57.8603   32.7894   46.9357 H   0  0  0  0  0  0  0  0  0  0  0  0
   59.3737   34.4683   47.7912 H   0  0  0  0  0  0  0  0  0  0  0  0
   64.0557   34.3382   48.5913 H   0  0  0  0  0  0  0  0  0  0  0  0
   60.9796   29.9238   46.5068 H   0  0  0  0  0  0  0  0  0  0  0  0
   59.1707   28.5926   47.2564 H   0  0  0  0  0  0  0  0  0  0  0  0
   59.0739   24.6688   46.5586 H   0  0  0  0  0  0  0  0  0  0  0  0
   60.0117   22.5968   45.5716 H   0  0  0  0  0  0  0  0  0  0  0  0
   58.7523   21.3345   43.8631 H   0  0  0  0  0  0  0  0  0  0  0  0
   56.5344   22.1260   43.1200 H   0  0  0  0  0  0  0  0  0  0  0  0
   55.5649   24.2013   44.0864 H   0  0  0  0  0  0  0  0  0  0  0  0
   55.9120   27.6770   44.7050 H   0  0  0  0  0  0  0  0  0  0  0  0
  1  2  1  0
  2  3  2  0
  3  4  1  0
  4  5  1  0
  5  6  2  0
  6  7  1  0
  7  8  2  0
  8  9  1  0
  9 10  2  0
 10 11  1  0
 11 12  1  0
 12 13  2  0
  4 14  2  0
 14 15  1  0
 15 16  2  0
 16 17  1  0
 17 18  2  0
 17 19  1  0
 19 20  2  0
 20 21  1  0
 21 22  2  0
 22 23  1  0
 23 24  2  0
 15 25  1  0
 25  2  1  0
 13  5  1  0
 24 19  1  0
 12  8  1  0
  1 26  1  0
  1 27  1  0
  1 28  1  0
  6 29  1  0
  7 30  1  0
 10 31  1  0
 13 32  1  0
 14 33  1  0
 20 34  1  0
 21 35  1  0
 22 36  1  0
 23 37  1  0
 24 38  1  0
 25 39  1  0
M  END
>  <smiles>  (1) 
Cc1nc(-c2ccc3ncsc3c2)cc(=NC(=O)c2ccccc2)[nH]1

>  <score_type>  (1) 
oracle

>  <origin>  (1) 
adg

>  <m_score__min__energy>  (1) 
-8.8300000000000001

>  <m_primary>  (1) 
energy

$$$$
1:0
     RDKit          3D

 20 21  0  0  0  0  0  0  0  0999 V2000
   61.6790   33.0930   47.1010 C   0  0  0  0  0  0  0  0  0  0  0  0
   60.5400   32.0790   47.0860 C   0  0  0  0  0  0  0  0  0  0  0  0
   59.4030   32.6260   46.2840 C   0  0  0  0  0  0  0  0  0  0  0  0
   59.4180   33.9860   46.0500 C   0  0  0  0  0  0  0  0  0  0  0  0
   58.4130   34.5900   45.3200 C   0  0  0  0  0  0  0  0  0  0  0  0
   57.4110   33.7670   44.8450 C   0  0  0  0  0  0  0  0  0  0  0  0
   57.4330   32.3970   45.1020 C   0  0  0  0  0  0  0  0  0  0  0  0
   56.5700   31.4060   44.7420 N   0  0  0  0  0  0  0  0  0  0  0  0
   57.0530   30.2850   45.2410 N   0  0  0  0  0  0  0  0  0  0  0  0
   58.1980   30.5070   45.9120 C   0  0  0  0  0  0  0  0  0  0  0  0
   58.4220   31.8300   45.8170 N   0  0  0  0  0  0  0  0  0  0  0  0
   61.9452   33.3300   48.1417 H   0  0  0  0  0  0  0  0  0  0  0  0
   62.5539   32.6694   46.5861 H   0  0  0  0  0  0  0  0  0  0  0  0
   61.3595   34.0110   46.5861 H   0  0  0  0  0  0  0  0  0  0  0  0
   60.8903   31.1394   46.6338 H   0  0  0  0  0  0  0  0  0  0  0  0
   60.2053   31.8851   48.1157 H   0  0  0  0  0  0  0  0  0  0  0  0
   60.2408   34.5968   46.4499 H   0  0  0  0  0  0  0  0  0  0  0  0
   58.4109   35.6729   45.1266 H   0  0  0  0  0  0  0  0  0  0  0  0
   56.5865   34.1971   44.2575 H   0  0  0  0  0  0  0  0  0  0  0  0
   58.8205   29.7625   46.4298 H   0  0  0  0  0  0  0  0  0  0  0  0
  1  2  1  0
  2  3  1  0
  3  4  2  0
  4  5  1  0
  5  6  2  0
  6  7  1  0
  7  8  2  0
  8  9  1  0
  9 10  2  0
 10 11  1  0
 11  3  1  0
 11  7  1  0
  1 12  1  0
  1 13  1  0
  1 14  1  0
  2 15  1  0
  2 16  1  0
  4 17  1  0
  5 18  1  0
  6 19  1  0
 10 20  1  0
M  END
>  <smiles>  (2) 
CCc1cccc2nncn12

>  <score_type>  (2) 
oracle

>  <origin>  (2) 
adg

>  <m_score__min__energy>  (2) 
-5.1299999999999999

>  <m_primary>  (2) 
energy

$$$$
2:0
     RDKit          3D

 26 28  0  0  0  0  0  0  0  0999 V2000
   55.3800   30.2630   44.4030 O   0  0  0  0  0  0  0  0  0  0  0  0
   56.6070   30.0700   44.6450 C   0  0  0  0  0  0  0  0  0  0  0  0
   57.1310   28.7570   44.4920 C   0  0  0  0  0  0  0  0  0  0  0  0
   57.0450   27.8980   45.6010 C   0  0  0  0  0  0  0  0  0  0  0  0
   57.5370   26.6090   45.5520 C   0  0  0  0  0  0  0  0  0  0  0  0
   58.1370   26.0960   44.4200 C   0  0  0  0  0  0  0  0  0  0  0  0
   58.2280   26.9290   43.3260 C   0  0  0  0  0  0  0  0  0  0  0  0
   57.7300   28.2250   43.3810 C   0  0  0  0  0  0  0  0  0  0  0  0
   57.3490   31.2650   45.0610 C   0  0  0  0  0  0  0  0  0  0  0  0
   57.7860   31.7560   46.0000 N   0  0  0  0  0  0  0  0  0  0  0  0
   58.4360   32.9050   46.1400 C   0  0  0  0  0  0  0  0  0  0  0  0
   58.9670   33.4930   47.3040 C   0  0  0  0  0  0  0  0  0  0  0  0
   59.5980   34.6910   47.1970 C   0  0  0  0  0  0  0  0  0  0  0  0
   59.7740   35.4050   46.0330 C   0  0  0  0  0  0  0  0  0  0  0  0
   59.2480   34.8240   44.8730 C   0  0  0  0  0  0  0  0  0  0  0  0
   58.6010   33.5920   44.9960 C   0  0  0  0  0  0  0  0  0  0  0  0
   57.8120   32.5570   43.7490 S   0  0  0  0  0  0  0  0  0  0  0  0
   56.5758   28.2603   46.5276 H   0  0  0  0  0  0  0  0  0  0  0  0
   57.4480   25.9707   46.4434 H   0  0  0  0  0  0  0  0  0  0  0  0
   58.5256   25.0673   44.3922 H   0  0  0  0  0  0  0  0  0  0  0  0
   58.6990   26.5647   42.4011 H   0  0  0  0  0  0  0  0  0  0  0  0
   57.8216   28.8569   42.4853 H   0  0  0  0  0  0  0  0  0  0  0  0
   58.8728   32.9928   48.2792 H   0  0  0  0  0  0  0  0  0  0  0  0
   60.0038   35.1290   48.1209 H   0  0  0  0  0  0  0  0  0  0  0  0
   60.2961   36.3730   46.0156 H   0  0  0  0  0  0  0  0  0  0  0  0
   59.3411   35.3215   43.8963 H   0  0  0  0  0  0  0  0  0  0  0  0
  1  2  2  0
  2  3  1  0
  3  4  2  0
  4  5  1  0
  5  6  2  0
  6  7  1  0
  7  8  2  0
  2  9  1  0
  9 10  2  0
 10 11  1  0
 11 12  2  0
 12 13  1  0
 13 14  2  0
 14 15  1  0
 15 16  2  0
 16 17  1  0
  8  3  1  0
 17  9  1  0
 16 11  1  0
  4 18  1  0
  5 19  1  0
  6 20  1  0
  7 21  1  0
  8 22  1  0
 12 23  1  0
 13 24  1  0
 14 25  1  0
 15 26  1  0
M  END
>  <smiles>  (3) 
O=C(c1ccccc1)c1nc2ccccc2s1

>  <score_type>  (3) 
oracle

>  <origin>  (3) 
adg

>  <m_score__min__energy>  (3) 
-7.2400000000000002

>  <m_primary>  (3) 
energy

$$$$
3:0
     RDKit          3D

 47 47  0  0  0  0  0  0  0  0999 V2000
   63.1460   33.1240   47.4600 C   0  0  0  0  0  0  0  0  0  0  0  0
   62.6350   31.6910   47.2920 C   0  0  0  0  0  0  0  0  0  0  0  0
   61.5920   31.4400   48.3420 C   0  0  0  0  0  0  0  0  0  0  0  0
   60.2420   31.5250   47.9020 N   0  0  0  0  0  0  0  0  0  0  0  0
   59.2500   30.4780   48.1840 C   0  0  0  0  0  0  0  0  0  0  0  0
   59.3840   29.3400   47.1970 C   0  0  0  0  0  0  0  0  0  0  0  0
   58.0100   29.0360   46.6950 C   0  0  0  0  0  0  0  0  0  0  0  0
   57.8690   29.0000   45.2130 C   0  0  0  0  0  0  0  0  0  0  0  0
   59.0180   29.6730   44.4940 C   0  0  0  0  0  0  0  0  0  0  0  0
   57.6400   27.6020   44.7080 C   0  0  0  0  0  0  0  0  0  0  0  0
   56.6690   29.8740   44.9080 C   0  0  0  0  0  0  0  0  0  0  0  0
   55.4480   29.1240   44.7250 N   0  0  0  0  0  0  0  0  0  0  0  0
   56.7250   31.1020   44.8240 O   0  0  0  0  0  0  0  0  0  0  0  0
   59.7030   32.6400   47.1570 C   0  0  0  0  0  0  0  0  0  0  0  0
   59.2990   32.3550   45.8940 N   0  0  0  0  0  0  0  0  0  0  0  0
   58.7830   33.2900   45.0630 C   0  0  0  0  0  0  0  0  0  0  0  0
   58.6890   34.5890   45.5850 C   0  0  0  0  0  0  0  0  0  0  0  0
   59.0950   34.8980   46.8610 C   0  0  0  0  0  0  0  0  0  0  0  0
   59.6210   33.9060   47.6880 C   0  0  0  0  0  0  0  0  0  0  0  0
   60.0440   34.2220   49.0700 C   0  0  0  0  0  0  0  0  0  0  0  0
   63.2302   33.3601   48.5311 H   0  0  0  0  0  0  0  0  0  0  0  0
   64.1335   33.2192   46.9848 H   0  0  0  0  0  0  0  0  0  0  0  0
   62.4416   33.8226   46.9848 H   0  0  0  0  0  0  0  0  0  0  0  0
   62.1940   31.5676   46.2918 H   0  0  0  0  0  0  0  0  0  0  0  0
   63.4640   30.9763   47.4008 H   0  0  0  0  0  0  0  0  0  0  0  0
   61.7535   30.4290   48.7442 H   0  0  0  0  0  0  0  0  0  0  0  0
   61.7162   32.2406   49.0860 H   0  0  0  0  0  0  0  0  0  0  0  0
   59.4088   30.0941   49.2025 H   0  0  0  0  0  0  0  0  0  0  0  0
   58.2423   30.9098   48.0936 H   0  0  0  0  0  0  0  0  0  0  0  0
   60.0344   29.6386   46.3616 H   0  0  0  0  0  0  0  0  0  0  0  0
   59.8331   28.4563   47.6739 H   0  0  0  0  0  0  0  0  0  0  0  0
   57.7139   28.0525   47.0888 H   0  0  0  0  0  0  0  0  0  0  0  0
   57.3693   29.8600   47.0422 H   0  0  0  0  0  0  0  0  0  0  0  0
   59.7216   30.0851   45.2323 H   0  0  0  0  0  0  0  0  0  0  0  0
   59.5377   28.9366   43.8635 H   0  0  0  0  0  0  0  0  0  0  0  0
   58.6299   30.4865   43.8635 H   0  0  0  0  0  0  0  0  0  0  0  0
   57.5279   26.9175   45.5618 H   0  0  0  0  0  0  0  0  0  0  0  0
   56.7260   27.5782   44.0964 H   0  0  0  0  0  0  0  0  0  0  0  0
   58.4986   27.2878   44.0964 H   0  0  0  0  0  0  0  0  0  0  0  0
   54.7710   28.9640   45.5070 H   0  0  0  0  0  0  0  0  0  0  0  0
   55.2170   28.7090   43.7700 H   0  0  0  0  0  0  0  0  0  0  0  0
   58.4572   33.0466   44.0409 H   0  0  0  0  0  0  0  0  0  0  0  0
   58.2761   35.3875   44.9510 H   0  0  0  0  0  0  0  0  0  0  0  0
   59.0049   35.9300   47.2308 H   0  0  0  0  0  0  0  0  0  0  0  0
   59.3727   33.7205   49.7826 H   0  0  0  0  0  0  0  0  0  0  0  0
   61.0744   33.8707   49.2275 H   0  0  0  0  0  0  0  0  0  0  0  0
   59.9994   35.3098   49.2275 H   0  0  0  0  0  0  0  0  0  0  0  0
  1  2  1  0
  2  3  1  0
  3  4  1  0
  4  5  1  0
  5  6  1  0
  6  7  1  0
  7  8  1  0
  8  9  1  0
  8 10  1  0
  8 11  1  0
 11 12  1  0
 11 13  2  0
  4 14  1  0
 14 15  2  0
 15 16  1  0
 16 17  2  0
 17 18  1  0
 18 19  2  0
 19 20  1  0
 19 14  1  0
  1 21  1  0
  1 22  1  0
  1 23  1  0
  2 24  1  0
  2 25  1  0
  3 26  1  0
  3 27  1  0
  5 28  1  0
  5 29  1  0
  6 30  1  0
  6 31  1  0
  7 32  1  0
  7 33  1  0
  9 34  1  0
  9 35  1  0
  9 36  1  0
 10 37  1  0
 10 38  1  0
 10 39  1  0
 12 40  1  0
 12 41  1  0
 16 42  1  0
 17 43  1  0
 18 44  1  0
 20 45  1  0
 20 46  1  0
 20 47  1  0
M  END
>  <smiles>  (4) 
CCCN(CCCC(C)(C)C(N)=O)c1ncccc1C

>  <score_type>  (4) 
oracle

>  <origin>  (4) 
adg

>  <m_score__min__energy>  (4) 
-7.2800000000000002

>  <m_primary>  (4) 
energy

$$$$
4:0
     RDKit          3D

 46 47  0  0  0  0  0  0  0  0999 V2000
   53.7460   24.4440   45.2890 C   0  0  0  0  0  0  0  0  0  0  0  0
   54.4460   25.6240   45.6610 O   0  0  0  0  0  0  0  0  0  0  0  0
   55.8020   25.5680   46.0240 C   0  0  0  0  0  0  0  0  0  0  0  0
   56.3200   24.3350   46.4340 C   0  0  0  0  0  0  0  0  0  0  0  0
   57.6350   24.1900   46.8080 C   0  0  0  0  0  0  0  0  0  0  0  0
   58.4520   25.3210   46.7670 C   0  0  0  0  0  0  0  0  0  0  0  0
   57.9290   26.5420   46.3580 C   0  0  0  0  0  0  0  0  0  0  0  0
   56.6150   26.6890   45.9840 C   0  0  0  0  0  0  0  0  0  0  0  0
   56.0700   27.9310   45.5490 N   0  0  0  0  0  0  0  0  0  0  0  0
   56.7390   28.7650   44.5930 C   0  0  0  0  0  0  0  0  0  0  0  0
   58.1570   28.2450   44.0210 S   0  0  0  0  0  0  0  0  0  0  0  0
   56.1630   29.9940   44.1790 N   0  0  0  0  0  0  0  0  0  0  0  0
   56.7630   30.8920   43.2380 C   0  0  0  0  0  0  0  0  0  0  0  0
   57.7420   31.8780   43.8650 C   0  0  0  0  0  0  0  0  0  0  0  0
   57.5960   31.7700   45.3460 C   0  0  0  0  0  0  0  0  0  0  0  0
   57.6770   32.9640   46.1050 N   0  0  0  0  0  0  0  0  0  0  0  0
   58.8150   33.0870   46.9700 C   0  0  0  0  0  0  0  0  0  0  0  0
   58.9320   34.5630   47.3240 C   0  0  0  0  0  0  0  0  0  0  0  0
   59.6240   35.2080   46.1230 C   0  0  0  0  0  0  0  0  0  0  0  0
   59.0130   34.5820   44.8820 C   0  0  0  0  0  0  0  0  0  0  0  0
   57.5920   34.1450   45.2540 C   0  0  0  0  0  0  0  0  0  0  0  0
   53.4270   23.9062   46.1940 H   0  0  0  0  0  0  0  0  0  0  0  0
   52.8622   24.7146   44.6926 H   0  0  0  0  0  0  0  0  0  0  0  0
   54.4071   23.7981   44.6926 H   0  0  0  0  0  0  0  0  0  0  0  0
   55.6571   23.4575   46.4578 H   0  0  0  0  0  0  0  0  0  0  0  0
   58.0302   23.2149   47.1289 H   0  0  0  0  0  0  0  0  0  0  0  0
   59.5100   25.2459   47.0585 H   0  0  0  0  0  0  0  0  0  0  0  0
   58.5898   27.4210   46.3328 H   0  0  0  0  0  0  0  0  0  0  0  0
   55.1470   28.2000   45.9730 H   0  0  0  0  0  0  0  0  0  0  0  0
   55.2250   30.2720   44.5890 H   0  0  0  0  0  0  0  0  0  0  0  0
   57.3035   30.2969   42.4872 H   0  0  0  0  0  0  0  0  0  0  0  0
   55.9482   31.4860   42.7984 H   0  0  0  0  0  0  0  0  0  0  0  0
   58.7710   31.6259   43.5691 H   0  0  0  0  0  0  0  0  0  0  0  0
   57.5307   32.9034   43.5274 H   0  0  0  0  0  0  0  0  0  0  0  0
   56.6131   31.3190   45.5471 H   0  0  0  0  0  0  0  0  0  0  0  0
   58.4642   31.1764   45.6683 H   0  0  0  0  0  0  0  0  0  0  0  0
   58.6663   32.4885   47.8809 H   0  0  0  0  0  0  0  0  0  0  0  0
   59.7291   32.7223   46.4787 H   0  0  0  0  0  0  0  0  0  0  0  0
   57.9357   35.0032   47.4778 H   0  0  0  0  0  0  0  0  0  0  0  0
   59.4945   34.7195   48.2563 H   0  0  0  0  0  0  0  0  0  0  0  0
   59.4516   36.2944   46.1241 H   0  0  0  0  0  0  0  0  0  0  0  0
   60.7111   35.0431   46.1561 H   0  0  0  0  0  0  0  0  0  0  0  0
   58.9803   35.3176   44.0648 H   0  0  0  0  0  0  0  0  0  0  0  0
   59.6107   33.7242   44.5401 H   0  0  0  0  0  0  0  0  0  0  0  0
   57.0845   34.9566   45.7959 H   0  0  0  0  0  0  0  0  0  0  0  0
   57.0197   33.9123   44.3439 H   0  0  0  0  0  0  0  0  0  0  0  0
  1  2  1  0
  2  3  1  0
  3  4  2  0
  4  5  1  0
  5  6  2  0
  6  7  1  0
  7  8  2  0
  8  9  1  0
  9 10  1  0
 10 11  2  0
 10 12  1  0
 12 13  1  0
 13 14  1  0
 14 15  1  0
 15 16  1  0
 16 17  1  0
 17 18  1  0
 18 19  1  0
 19 20  1  0
 20 21  1  0
  8  3  1  0
 21 16  1  0
  1 22  1  0
  1 23  1  0
  1 24  1  0
  4 25  1  0
  5 26  1  0
  6 27  1  0
  7 28  1  0
  9 29  1  0
 12 30  1  0
 13 31  1  0
 13 32  1  0
 14 33  1  0
 14 34  1  0
 15 35  1  0
 15 36  1  0
 17 37  1  0
 17 38  1  0
 18 39  1  0
 18 40  1  0
 19 41  1  0
 19 42  1  0
 20 43  1  0
 20 44  1  0
 21 45  1  0
 21 46  1  0
M  END
>  <smiles>  (5) 
COc1ccccc1NC(=S)NCCCN1CCCCC1

>  <score_type>  (5) 
oracle

>  <origin>  (5) 
adg

>  <m_score__min__energy>  (5) 
-8.3000000000000007

>  <m_primary>  (5) 
energy

$$$$
5:0
     RDKit          3D

 40 42  0  0  1  0  0  0  0  0999 V2000
   57.1930   32.4120   40.7520 C   0  0  0  0  0  0  0  0  0  0  0  0
   58.1270   32.3450   41.9610 C   0  0  0  0  0  0  0  0  0  0  0  0
   57.4040   31.7000   43.0970 C   0  0  0  0  0  0  0  0  0  0  0  0
   57.6600   32.4300   44.3060 N   0  0  0  0  0  0  0  0  0  0  0  0
   57.4970   33.7300   44.6040 C   0  0  0  0  0  0  0  0  0  0  0  0
   57.8770   33.9690   45.8870 N   0  0  0  0  0  0  0  0  0  0  0  0
   58.2900   32.8140   46.4240 C   0  0  0  0  0  0  0  0  0  0  0  0
   58.7810   32.4030   47.6470 C   0  0  0  0  0  0  0  0  0  0  0  0
   58.9050   33.2970   48.5600 N   0  0  0  0  0  0  0  0  0  0  0  0
   59.6740   34.5140   48.3900 C   0  0  0  0  0  0  0  0  0  0  0  0
   61.0930   34.0610   48.2220 C   0  0  0  0  0  0  0  0  0  0  0  0
   61.9200   33.8320   49.3120 C   0  0  0  0  0  0  0  0  0  0  0  0
   63.2260   33.4150   49.1370 C   0  0  0  0  0  0  0  0  0  0  0  0
   63.7380   33.2160   47.8510 C   0  0  0  0  0  0  0  0  0  0  0  0
   62.9160   33.4430   46.7430 C   0  0  0  0  0  0  0  0  0  0  0  0
   61.6000   33.8640   46.9330 C   0  0  0  0  0  0  0  0  0  0  0  0
   59.1120   31.1110   47.8590 N   0  0  0  0  0  0  0  0  0  0  0  0
   58.9740   30.1840   46.8840 C   0  0  0  0  0  0  0  0  0  0  0  0
   59.3440   28.7620   47.1310 C   0  0  0  0  0  0  0  0  0  0  0  0
   58.5000   30.5840   45.7060 N   0  0  0  0  0  0  0  0  0  0  0  0
   58.1490   31.8650   45.4310 C   0  0  0  0  0  0  0  0  0  0  0  0
   56.1512   32.4867   41.0972 H   0  0  0  0  0  0  0  0  0  0  0  0
   57.4422   33.2946   40.1446 H   0  0  0  0  0  0  0  0  0  0  0  0
   57.3137   31.5029   40.1446 H   0  0  0  0  0  0  0  0  0  0  0  0
   59.0181   31.7523   41.7066 H   0  0  0  0  0  0  0  0  0  0  0  0
   58.4391   33.3603   42.2469 H   0  0  0  0  0  0  0  0  0  0  0  0
   56.3235   31.7002   42.8908 H   0  0  0  0  0  0  0  0  0  0  0  0
   57.7559   30.6644   43.2136 H   0  0  0  0  0  0  0  0  0  0  0  0
   57.1116   34.4912   43.9097 H   0  0  0  0  0  0  0  0  0  0  0  0
   59.3360   35.0627   47.4986 H   0  0  0  0  0  0  0  0  0  0  0  0
   59.5584   35.1966   49.2448 H   0  0  0  0  0  0  0  0  0  0  0  0
   61.5310   33.9844   50.3296 H   0  0  0  0  0  0  0  0  0  0  0  0
   63.8661   33.2387   50.0140 H   0  0  0  0  0  0  0  0  0  0  0  0
   64.7775   32.8840   47.7125 H   0  0  0  0  0  0  0  0  0  0  0  0
   63.3056   33.2902   45.7257 H   0  0  0  0  0  0  0  0  0  0  0  0
   60.9542   34.0429   46.0607 H   0  0  0  0  0  0  0  0  0  0  0  0
   59.4870   30.7930   48.7880 H   0  0  0  0  0  0  0  0  0  0  0  0
   59.3918   28.5784   48.2145 H   0  0  0  0  0  0  0  0  0  0  0  0
   58.5875   28.1027   46.6804 H   0  0  0  0  0  0  0  0  0  0  0  0
   60.3259   28.5550   46.6804 H   0  0  0  0  0  0  0  0  0  0  0  0
  1  2  1  0
  2  3  1  0
  3  4  1  0
  4  5  1  0
  5  6  2  0
  6  7  1  0
  7  8  1  0
  8  9  2  0
  9 10  1  0
 10 11  1  0
 11 12  2  0
 12 13  1  0
 13 14  2  0
 14 15  1  0
 15 16  2  0
  8 17  1  0
 17 18  1  0
 18 19  1  0
 18 20  2  0
 20 21  1  0
 21  4  1  0
 21  7  2  0
 16 11  1  0
  1 22  1  0
  1 23  1  0
  1 24  1  0
  2 25  1  0
  2 26  1  0
  3 27  1  0
  3 28  1  0
  5 29  1  0
 10 30  1  0
 10 31  1  0
 12 32  1  0
 13 33  1  0
 14 34  1  0
 15 35  1  0
 16 36  1  0
 17 37  1  0
 19 38  1  0
 19 39  1  0
 19 40  1  0
M  END
>  <smiles>  (6) 
CCCn1cnc2c(=NCc3ccccc3)[nH]c(C)nc21

>  <score_type>  (6) 
oracle

>  <origin>  (6) 
adg

>  <m_score__min__energy>  (6) 
-6.7300000000000004

>  <m_primary>  (6) 
energy

$$$$
6:0
     RDKit          3D

 34 36  0  0  0  0  0  0  0  0999 V2000
   54.9300   29.7090   43.4970 N   0  0  0  0  0  0  0  0  0  0  0  0
   55.9980   29.9400   44.1830 C   0  0  0  0  0  0  0  0  0  0  0  0
   56.3510   31.2110   44.4730 N   0  0  0  0  0  0  0  0  0  0  0  0
   57.4720   31.4530   45.1920 C   0  0  0  0  0  0  0  0  0  0  0  0
   57.8470   33.1740   45.5280 S   0  0  0  0  0  0  0  0  0  0  0  0
   58.3930   33.2980   47.2570 C   0  0  0  0  0  0  0  0  0  0  0  0
   59.7990   32.8140   47.3360 C   0  0  0  0  0  0  0  0  0  0  0  0
   60.1600   31.5910   47.8460 C   0  0  0  0  0  0  0  0  0  0  0  0
   61.5240   31.2800   47.8470 C   0  0  0  0  0  0  0  0  0  0  0  0
   62.4740   32.1470   47.3620 C   0  0  0  0  0  0  0  0  0  0  0  0
   62.1060   33.3940   46.8400 C   0  0  0  0  0  0  0  0  0  0  0  0
   63.0070   34.2670   46.3550 F   0  0  0  0  0  0  0  0  0  0  0  0
   60.7640   33.7000   46.8410 C   0  0  0  0  0  0  0  0  0  0  0  0
   58.2370   30.4410   45.6200 N   0  0  0  0  0  0  0  0  0  0  0  0
   57.8630   29.1670   45.3180 C   0  0  0  0  0  0  0  0  0  0  0  0
   58.7270   28.1040   45.8200 C   0  0  0  0  0  0  0  0  0  0  0  0
   59.9500   28.3540   46.4240 C   0  0  0  0  0  0  0  0  0  0  0  0
   60.7660   27.3470   46.8950 C   0  0  0  0  0  0  0  0  0  0  0  0
   60.3590   26.0230   46.7650 C   0  0  0  0  0  0  0  0  0  0  0  0
   59.1430   25.7840   46.1640 C   0  0  0  0  0  0  0  0  0  0  0  0
   58.3830   26.7970   45.7220 N   0  0  0  0  0  0  0  0  0  0  0  0
   56.7660   28.9240   44.6150 N   0  0  0  0  0  0  0  0  0  0  0  0
   54.9190   29.1370   42.6290 H   0  0  0  0  0  0  0  0  0  0  0  0
   58.3402   34.3450   47.5901 H   0  0  0  0  0  0  0  0  0  0  0  0
   57.7446   32.6901   47.9051 H   0  0  0  0  0  0  0  0  0  0  0  0
   59.4100   30.8873   48.2363 H   0  0  0  0  0  0  0  0  0  0  0  0
   61.8472   30.3087   48.2496 H   0  0  0  0  0  0  0  0  0  0  0  0
   63.5353   31.8585   47.3840 H   0  0  0  0  0  0  0  0  0  0  0  0
   60.4391   34.6715   46.4402 H   0  0  0  0  0  0  0  0  0  0  0  0
   60.2824   29.3970   46.5317 H   0  0  0  0  0  0  0  0  0  0  0  0
   61.7290   27.5882   47.3687 H   0  0  0  0  0  0  0  0  0  0  0  0
   60.9863   25.1961   47.1294 H   0  0  0  0  0  0  0  0  0  0  0  0
   58.7905   24.7488   46.0449 H   0  0  0  0  0  0  0  0  0  0  0  0
   56.4580   27.9610   44.3690 H   0  0  0  0  0  0  0  0  0  0  0  0
  1  2  2  3
  2  3  1  0
  3  4  2  0
  4  5  1  0
  5  6  1  0
  6  7  1  0
  7  8  2  0
  8  9  1  0
  9 10  2  0
 10 11  1  0
 11 12  1  0
 11 13  2  0
  4 14  1  0
 14 15  2  0
 15 16  1  0
 16 17  2  0
 17 18  1  0
 18 19  2  0
 19 20  1  0
 20 21  2  0
 15 22  1  0
 22  2  1  0
 13  7  1  0
 21 16  1  0
  1 23  1  0
  6 24  1  0
  6 25  1  0
  8 26  1  0
  9 27  1  0
 10 28  1  0
 13 29  1  0
 17 30  1  0
 18 31  1  0
 19 32  1  0
 20 33  1  0
 22 34  1  0
M  END
>  <smiles>  (7) 
N=c1nc(SCc2cccc(F)c2)nc(-c2ccccn2)[nH]1

>  <score_type>  (7) 
oracle

>  <origin>  (7) 
adg

>  <m_score__min__energy>  (7) 
-7.8600000000000003

>  <m_primary>  (7) 
energy

$$$$
7:0
     RDKit          3D

 38 40  0  0  0  0  0  0  0  0999 V2000
   59.7000   33.8400   50.2800 C   0  0  0  0  0  0  0  0  0  0  0  0
   60.3990   34.1500   49.1020 O   0  0  0  0  0  0  0  0  0  0  0  0
   59.8130   33.8210   47.9020 C   0  0  0  0  0  0  0  0  0  0  0  0
   59.1570   34.7220   47.0940 C   0  0  0  0  0  0  0  0  0  0  0  0
   58.5880   34.3410   45.9000 C   0  0  0  0  0  0  0  0  0  0  0  0
   58.6400   33.0200   45.4390 C   0  0  0  0  0  0  0  0  0  0  0  0
   58.0410   32.6810   44.2060 N   0  0  0  0  0  0  0  0  0  0  0  0
   57.2950   31.4980   43.9720 C   0  0  0  0  0  0  0  0  0  0  0  0
   56.5470   30.9470   44.8660 N   0  0  0  0  0  0  0  0  0  0  0  0
   55.8970   29.7650   44.3910 C   0  0  0  0  0  0  0  0  0  0  0  0
   56.3580   29.6150   42.9630 C   0  0  0  0  0  0  0  0  0  0  0  0
   57.2280   30.7330   42.7750 N   0  0  0  0  0  0  0  0  0  0  0  0
   59.2990   32.1310   46.2570 C   0  0  0  0  0  0  0  0  0  0  0  0
   59.8770   32.5140   47.4680 C   0  0  0  0  0  0  0  0  0  0  0  0
   60.7190   31.3070   48.4850 S   0  0  0  0  0  0  0  0  0  0  0  0
   62.3570   31.8200   48.9330 C   0  0  0  0  0  0  0  0  0  0  0  0
   63.1020   32.7230   48.2090 C   0  0  0  0  0  0  0  0  0  0  0  0
   64.3720   33.0800   48.6110 C   0  0  0  0  0  0  0  0  0  0  0  0
   64.9560   32.5570   49.7470 C   0  0  0  0  0  0  0  0  0  0  0  0
   66.5720   33.0090   50.2600 Cl  0  0  0  0  0  0  0  0  0  0  0  0
   64.2100   31.6390   50.4900 C   0  0  0  0  0  0  0  0  0  0  0  0
   62.9350   31.2930   50.0680 C   0  0  0  0  0  0  0  0  0  0  0  0
   60.3127   34.1117   51.1522 H   0  0  0  0  0  0  0  0  0  0  0  0
   58.7558   34.4038   50.3052 H   0  0  0  0  0  0  0  0  0  0  0  0
   59.4840   32.7617   50.3052 H   0  0  0  0  0  0  0  0  0  0  0  0
   59.0857   35.7731   47.4106 H   0  0  0  0  0  0  0  0  0  0  0  0
   58.0761   35.0986   45.2884 H   0  0  0  0  0  0  0  0  0  0  0  0
   58.1500   33.3460   43.3940 H   0  0  0  0  0  0  0  0  0  0  0  0
   56.1975   28.8916   44.9883 H   0  0  0  0  0  0  0  0  0  0  0  0
   54.8019   29.8360   44.4670 H   0  0  0  0  0  0  0  0  0  0  0  0
   56.8988   28.6676   42.8217 H   0  0  0  0  0  0  0  0  0  0  0  0
   55.5259   29.5935   42.2438 H   0  0  0  0  0  0  0  0  0  0  0  0
   57.7540   30.9720   41.8820 H   0  0  0  0  0  0  0  0  0  0  0  0
   59.3729   31.0789   45.9445 H   0  0  0  0  0  0  0  0  0  0  0  0
   62.6780   33.1666   47.2960 H   0  0  0  0  0  0  0  0  0  0  0  0
   64.9376   33.8047   48.0070 H   0  0  0  0  0  0  0  0  0  0  0  0
   64.6309   31.1936   51.4035 H   0  0  0  0  0  0  0  0  0  0  0  0
   62.3612   30.5679   50.6638 H   0  0  0  0  0  0  0  0  0  0  0  0
  1  2  1  0
  2  3  1  0
  3  4  2  0
  4  5  1  0
  5  6  2  0
  6  7  1  0
  7  8  1  0
  8  9  2  0
  9 10  1  0
 10 11  1  0
 11 12  1  0
  6 13  1  0
 13 14  2  0
 14 15  1  0
 15 16  1  0
 16 17  2  0
 17 18  1  0
 18 19  2  0
 19 20  1  0
 19 21  1  0
 21 22  2  0
 14  3  1  0
 22 16  1  0
 12  8  1  0
  1 23  1  0
  1 24  1  0
  1 25  1  0
  4 26  1  0
  5 27  1  0
  7 28  1  0
 10 29  1  0
 10 30  1  0
 11 31  1  0
 11 32  1  0
 12 33  1  0
 13 34  1  0
 17 35  1  0
 18 36  1  0
 21 37  1  0
 22 38  1  0
M  END
>  <smiles>  (8) 
COc1ccc(NC2=NCCN2)cc1Sc1ccc(Cl)cc1

>  <score_type>  (8) 
oracle

>  <origin>  (8) 
adg

>  <m_score__min__energy>  (8) 
-7.2199999999999998

>  <m_primary>  (8) 
energy

$$$$
8:0
     RDKit          3D

 41 43  0  0  0  0  0  0  0  0999 V2000
   61.1110   30.2290   48.6780 C   0  0  0  0  0  0  0  0  0  0  0  0
   60.8030   29.4560   47.5330 O   0  0  0  0  0  0  0  0  0  0  0  0
   59.6650   29.6640   46.7710 C   0  0  0  0  0  0  0  0  0  0  0  0
   58.8200   28.6130   46.3970 C   0  0  0  0  0  0  0  0  0  0  0  0
   57.7110   28.9240   45.6370 C   0  0  0  0  0  0  0  0  0  0  0  0
   57.4040   30.2080   45.2340 C   0  0  0  0  0  0  0  0  0  0  0  0
   56.2790   30.4900   44.4680 O   0  0  0  0  0  0  0  0  0  0  0  0
   56.2520   30.0210   43.1320 C   0  0  0  0  0  0  0  0  0  0  0  0
   58.2560   31.2240   45.6180 C   0  0  0  0  0  0  0  0  0  0  0  0
   57.8750   32.8390   45.1150 S   0  0  0  0  0  0  0  0  0  0  0  0
   56.7040   33.3970   45.8990 O   0  0  0  0  0  0  0  0  0  0  0  0
   57.4550   32.8010   43.6830 O   0  0  0  0  0  0  0  0  0  0  0  0
   59.2120   33.8680   45.3610 N   0  0  0  0  0  0  0  0  0  0  0  0
   60.0210   33.8730   46.5260 C   0  0  0  0  0  0  0  0  0  0  0  0
   59.5710   34.2450   47.7740 C   0  0  0  0  0  0  0  0  0  0  0  0
   60.3880   34.2370   48.8890 C   0  0  0  0  0  0  0  0  0  0  0  0
   61.7050   33.8470   48.7740 C   0  0  0  0  0  0  0  0  0  0  0  0
   62.6800   33.7480   49.6500 O   0  0  0  0  0  0  0  0  0  0  0  0
   63.7810   33.3240   49.0570 C   0  0  0  0  0  0  0  0  0  0  0  0
   65.1180   33.0740   49.6810 C   0  0  0  0  0  0  0  0  0  0  0  0
   63.5270   33.1260   47.7040 C   0  0  0  0  0  0  0  0  0  0  0  0
   62.1930   33.4640   47.5310 C   0  0  0  0  0  0  0  0  0  0  0  0
   61.3550   33.4780   46.4110 C   0  0  0  0  0  0  0  0  0  0  0  0
   59.3960   30.9680   46.3890 C   0  0  0  0  0  0  0  0  0  0  0  0
   60.8803   29.6499   49.5843 H   0  0  0  0  0  0  0  0  0  0  0  0
   62.1804   30.4865   48.6698 H   0  0  0  0  0  0  0  0  0  0  0  0
   60.5117   31.1514   48.6698 H   0  0  0  0  0  0  0  0  0  0  0  0
   59.0322   27.5765   46.6980 H   0  0  0  0  0  0  0  0  0  0  0  0
   57.0376   28.1075   45.3372 H   0  0  0  0  0  0  0  0  0  0  0  0
   56.1888   28.9228   43.1301 H   0  0  0  0  0  0  0  0  0  0  0  0
   55.3765   30.4396   42.6141 H   0  0  0  0  0  0  0  0  0  0  0  0
   57.1698   30.3363   42.6141 H   0  0  0  0  0  0  0  0  0  0  0  0
   59.4770   34.5570   44.6090 H   0  0  0  0  0  0  0  0  0  0  0  0
   58.5231   34.5599   47.8872 H   0  0  0  0  0  0  0  0  0  0  0  0
   59.9875   34.5416   49.8672 H   0  0  0  0  0  0  0  0  0  0  0  0
   65.0205   33.0922   50.7765 H   0  0  0  0  0  0  0  0  0  0  0  0
   65.4930   32.0902   49.3626 H   0  0  0  0  0  0  0  0  0  0  0  0
   65.8232   33.8558   49.3626 H   0  0  0  0  0  0  0  0  0  0  0  0
   64.2326   32.7764   46.9360 H   0  0  0  0  0  0  0  0  0  0  0  0
   61.7509   33.1749   45.4305 H   0  0  0  0  0  0  0  0  0  0  0  0
   60.0664   31.7879   46.6863 H   0  0  0  0  0  0  0  0  0  0  0  0
  1  2  1  0
  2  3  1  0
  3  4  2  0
  4  5  1  0
  5  6  2  0
  6  7  1  0
  7  8  1  0
  6  9  1  0
  9 10  1  0
 10 11  2  0
 10 12  2  0
 10 13  1  0
 13 14  1  0
 14 15  2  0
 15 16  1  0
 16 17  2  0
 17 18  1  0
 18 19  1  0
 19 20  1  0
 19 21  2  0
 21 22  1  0
 22 23  2  0
  9 24  2  0
 24  3  1  0
 23 14  1  0
 22 17  1  0
  1 25  1  0
  1 26  1  0
  1 27  1  0
  4 28  1  0
  5 29  1  0
  8 30  1  0
  8 31  1  0
  8 32  1  0
 13 33  1  0
 15 34  1  0
 16 35  1  0
 20 36  1  0
 20 37  1  0
 20 38  1  0
 21 39  1  0
 23 40  1  0
 24 41  1  0
M  END
>  <smiles>  (9) 
COc1ccc(OC)c(S(=O)(=O)Nc2ccc3oc(C)cc3c2)c1

>  <score_type>  (9) 
oracle

>  <origin>  (9) 
adg

>  <m_score__min__energy>  (9) 
-7.6500000000000004

>  <m_primary>  (9) 
energy

$$$$
9:0
     RDKit          3D

 31 31  0  0  0  0  0  0  0  0999 V2000
   58.1350   26.7380   42.5190 C   0  0  0  0  0  0  0  0  0  0  0  0
   57.8120   27.4540   43.6830 O   0  0  0  0  0  0  0  0  0  0  0  0
   58.1310   26.6000   44.7510 C   0  0  0  0  0  0  0  0  0  0  0  0
   57.6950   27.3160   46.0200 C   0  0  0  0  0  0  0  0  0  0  0  0
   57.3880   28.6290   45.6910 O   0  0  0  0  0  0  0  0  0  0  0  0
   58.5700   29.3470   45.4610 C   0  0  0  0  0  0  0  0  0  0  0  0
   58.5790   29.9990   44.1970 N   0  0  0  0  0  0  0  0  0  0  0  0
   57.4500   31.2800   44.0680 S   0  0  0  0  0  0  0  0  0  0  0  0
   57.3010   31.7410   42.6570 O   0  0  0  0  0  0  0  0  0  0  0  0
   56.0970   30.8330   44.5410 O   0  0  0  0  0  0  0  0  0  0  0  0
   58.0390   32.5690   45.1120 C   0  0  0  0  0  0  0  0  0  0  0  0
   57.9460   32.4360   46.4980 C   0  0  0  0  0  0  0  0  0  0  0  0
   58.4100   33.4510   47.3430 C   0  0  0  0  0  0  0  0  0  0  0  0
   58.9610   34.5880   46.7830 C   0  0  0  0  0  0  0  0  0  0  0  0
   59.0640   34.7410   45.4000 C   0  0  0  0  0  0  0  0  0  0  0  0
   59.6090   35.8650   44.8630 F   0  0  0  0  0  0  0  0  0  0  0  0
   58.5980   33.7220   44.5960 C   0  0  0  0  0  0  0  0  0  0  0  0
   58.5728   25.7674   42.7952 H   0  0  0  0  0  0  0  0  0  0  0  0
   57.2239   26.5735   41.9250 H   0  0  0  0  0  0  0  0  0  0  0  0
   58.8613   27.3122   41.9250 H   0  0  0  0  0  0  0  0  0  0  0  0
   57.5930   25.6460   44.6487 H   0  0  0  0  0  0  0  0  0  0  0  0
   59.2071   26.3729   44.7716 H   0  0  0  0  0  0  0  0  0  0  0  0
   56.8082   26.8203   46.4418 H   0  0  0  0  0  0  0  0  0  0  0  0
   58.5007   27.2893   46.7684 H   0  0  0  0  0  0  0  0  0  0  0  0
   58.6796   30.1062   46.2494 H   0  0  0  0  0  0  0  0  0  0  0  0
   59.4025   28.6281   45.4700 H   0  0  0  0  0  0  0  0  0  0  0  0
   58.6610   29.4200   43.3590 H   0  0  0  0  0  0  0  0  0  0  0  0
   57.5044   31.5259   46.9302 H   0  0  0  0  0  0  0  0  0  0  0  0
   58.3372   33.3453   48.4355 H   0  0  0  0  0  0  0  0  0  0  0  0
   59.3262   35.3896   47.4418 H   0  0  0  0  0  0  0  0  0  0  0  0
   58.6742   33.8314   43.5041 H   0  0  0  0  0  0  0  0  0  0  0  0
  1  2  1  0
  2  3  1  0
  3  4  1  0
  4  5  1  0
  5  6  1  0
  6  7  1  0
  7  8  1  0
  8  9  2  0
  8 10  2  0
  8 11  1  0
 11 12  2  0
 12 13  1  0
 13 14  2  0
 14 15  1  0
 15 16  1  0
 15 17  2  0
 17 11  1  0
  1 18  1  0
  1 19  1  0
  1 20  1  0
  3 21  1  0
  3 22  1  0
  4 23  1  0
  4 24  1  0
  6 25  1  0
  6 26  1  0
  7 27  1  0
 12 28  1  0
 13 29  1  0
 14 30  1  0
 17 31  1  0
M  END
>  <smiles>  (10) 
COCCOCNS(=O)(=O)c1cccc(F)c1

>  <score_type>  (10) 
oracle

>  <origin>  (10) 
adg

>  <m_score__min__energy>  (10) 
-6.71

>  <m_primary>  (10) 
energy

$$$$
10:0
     RDKit          3D

 38 40  0  0  1  0  0  0  0  0999 V2000
   56.9420   21.4250   42.9810 C   0  0  0  0  0  0  0  0  0  0  0  0
   56.5090   22.8550   42.9610 C   0  0  0  0  0  0  0  0  0  0  0  0
   57.1750   23.6640   44.0020 N   0  0  0  0  0  0  0  0  0  0  0  0
   57.4050   24.9110   43.7850 C   0  0  0  0  0  0  0  0  0  0  0  0
   57.6910   25.6310   42.7070 N   0  0  0  0  0  0  0  0  0  0  0  0
   57.8550   26.8960   42.9180 N   0  0  0  0  0  0  0  0  0  0  0  0
   57.8010   27.5300   43.8800 C   0  0  0  0  0  0  0  0  0  0  0  0
   57.9520   28.9320   44.3120 C   0  0  0  0  0  0  0  0  0  0  0  0
   59.0360   29.1730   45.1420 C   0  0  0  0  0  0  0  0  0  0  0  0
   59.2920   30.4380   45.6180 C   0  0  0  0  0  0  0  0  0  0  0  0
   58.4660   31.4850   45.2700 C   0  0  0  0  0  0  0  0  0  0  0  0
   58.7850   32.7950   45.8000 C   0  0  0  0  0  0  0  0  0  0  0  0
   58.9610   33.8410   44.8910 C   0  0  0  0  0  0  0  0  0  0  0  0
   59.2710   35.1260   45.3500 C   0  0  0  0  0  0  0  0  0  0  0  0
   59.3990   35.3430   46.7050 C   0  0  0  0  0  0  0  0  0  0  0  0
   59.2230   34.3020   47.5930 C   0  0  0  0  0  0  0  0  0  0  0  0
   58.9180   33.0310   47.1640 C   0  0  0  0  0  0  0  0  0  0  0  0
   58.7380   31.9830   48.0120 F   0  0  0  0  0  0  0  0  0  0  0  0
   57.4080   31.2090   44.4500 C   0  0  0  0  0  0  0  0  0  0  0  0
   57.1260   29.9440   43.9560 C   0  0  0  0  0  0  0  0  0  0  0  0
   55.9500   29.7560   43.0740 C   0  0  0  0  0  0  0  0  0  0  0  0
   57.3880   26.1870   45.1480 S   0  0  0  0  0  0  0  0  0  0  0  0
   57.0442   21.0874   44.0229 H   0  0  0  0  0  0  0  0  0  0  0  0
   56.1907   20.8072   42.4674 H   0  0  0  0  0  0  0  0  0  0  0  0
   57.9099   21.3277   42.4674 H   0  0  0  0  0  0  0  0  0  0  0  0
   56.7484   23.2820   41.9759 H   0  0  0  0  0  0  0  0  0  0  0  0
   55.4276   22.8788   43.1611 H   0  0  0  0  0  0  0  0  0  0  0  0
   57.7690   25.1580   41.7500 H   0  0  0  0  0  0  0  0  0  0  0  0
   59.6997   28.3422   45.4235 H   0  0  0  0  0  0  0  0  0  0  0  0
   60.1557   30.6139   46.2762 H   0  0  0  0  0  0  0  0  0  0  0  0
   58.8557   33.6541   43.8121 H   0  0  0  0  0  0  0  0  0  0  0  0
   59.4108   35.9528   44.6381 H   0  0  0  0  0  0  0  0  0  0  0  0
   59.6420   36.3484   47.0792 H   0  0  0  0  0  0  0  0  0  0  0  0
   59.3292   34.4930   48.6711 H   0  0  0  0  0  0  0  0  0  0  0  0
   56.7423   32.0372   44.1656 H   0  0  0  0  0  0  0  0  0  0  0  0
   55.0496   29.6121   43.6892 H   0  0  0  0  0  0  0  0  0  0  0  0
   55.8220   30.6451   42.4391 H   0  0  0  0  0  0  0  0  0  0  0  0
   56.1056   28.8713   42.4391 H   0  0  0  0  0  0  0  0  0  0  0  0
  1  2  1  0
  2  3  1  0
  3  4  2  0
  4  5  1  0
  5  6  1  0
  6  7  2  0
  7  8  1  0
  8  9  2  0
  9 10  1  0
 10 11  2  0
 11 12  1  0
 12 13  2  0
 13 14  1  0
 14 15  2  0
 15 16  1  0
 16 17  2  0
 17 18  1  0
 11 19  1  0
 19 20  2  0
 20 21  1  0
  7 22  1  0
 22  4  1  0
 20  8  1  0
 17 12  1  0
  1 23  1  0
  1 24  1  0
  1 25  1  0
  2 26  1  0
  2 27  1  0
  5 28  1  0
  9 29  1  0
 10 30  1  0
 13 31  1  0
 14 32  1  0
 15 33  1  0
 16 34  1  0
 19 35  1  0
 21 36  1  0
 21 37  1  0
 21 38  1  0
M  END
>  <smiles>  (11) 
CCN=c1[nH]nc(-c2ccc(-c3ccccc3F)cc2C)s1

>  <score_type>  (11) 
oracle

>  <origin>  (11) 
adg

>  <m_score__min__energy>  (11) 
-7.5499999999999998

>  <m_primary>  (11) 
energy

$$$$
11:0
     RDKit          3D

 51 55  0  0  0  0  0  0  0  0999 V2000
   57.9140   32.6890   42.7250 O   0  0  0  0  0  0  0  0  0  0  0  0
   57.4030   32.6010   43.8730 C   0  0  0  0  0  0  0  0  0  0  0  0
   57.4800   33.7270   44.8650 C   0  0  0  0  0  0  0  0  0  0  0  0
   58.6930   33.5930   45.6800 N   0  0  0  0  0  0  0  0  0  0  0  0
   59.6670   34.4730   45.5080 N   0  0  0  0  0  0  0  0  0  0  0  0
   60.8150   34.4110   46.2140 C   0  0  0  0  0  0  0  0  0  0  0  0
   60.9460   33.3930   47.1320 C   0  0  0  0  0  0  0  0  0  0  0  0
   61.9930   33.0720   47.9420 C   0  0  0  0  0  0  0  0  0  0  0  0
   63.2270   33.6760   48.1110 C   0  0  0  0  0  0  0  0  0  0  0  0
   64.1350   33.1480   49.0010 C   0  0  0  0  0  0  0  0  0  0  0  0
   63.8040   32.0340   49.7070 C   0  0  0  0  0  0  0  0  0  0  0  0
   62.5550   31.4360   49.5260 C   0  0  0  0  0  0  0  0  0  0  0  0
   61.6190   31.9340   48.6440 C   0  0  0  0  0  0  0  0  0  0  0  0
   60.3710   31.5540   48.2880 N   0  0  0  0  0  0  0  0  0  0  0  0
   59.6690   30.3900   48.7770 C   0  0  0  0  0  0  0  0  0  0  0  0
   60.0480   29.1230   48.1340 C   0  0  0  0  0  0  0  0  0  0  0  0
   59.9460   29.1120   46.7220 C   0  0  0  0  0  0  0  0  0  0  0  0
   60.2370   28.0240   45.9650 C   0  0  0  0  0  0  0  0  0  0  0  0
   60.6560   26.8490   46.5400 C   0  0  0  0  0  0  0  0  0  0  0  0
   60.7630   26.8310   47.9110 C   0  0  0  0  0  0  0  0  0  0  0  0
   60.4600   27.9630   48.6910 C   0  0  0  0  0  0  0  0  0  0  0  0
   60.6650   27.7750   50.4020 Cl  0  0  0  0  0  0  0  0  0  0  0  0
   59.9680   32.4450   47.3620 C   0  0  0  0  0  0  0  0  0  0  0  0
   58.8160   32.5860   46.5830 C   0  0  0  0  0  0  0  0  0  0  0  0
   57.8630   31.7990   46.6760 O   0  0  0  0  0  0  0  0  0  0  0  0
   56.7150   31.3990   44.2800 N   0  0  0  0  0  0  0  0  0  0  0  0
   56.6220   30.2920   43.3330 C   0  0  0  0  0  0  0  0  0  0  0  0
   56.9030   29.0090   44.0590 C   0  0  0  0  0  0  0  0  0  0  0  0
   57.7620   28.0050   43.6420 C   0  0  0  0  0  0  0  0  0  0  0  0
   57.6950   27.0310   44.6270 C   0  0  0  0  0  0  0  0  0  0  0  0
   56.8150   27.4870   45.5720 C   0  0  0  0  0  0  0  0  0  0  0  0
   56.3460   28.6860   45.2100 O   0  0  0  0  0  0  0  0  0  0  0  0
   57.5064   34.6860   44.3268 H   0  0  0  0  0  0  0  0  0  0  0  0
   56.5976   33.6926   45.5209 H   0  0  0  0  0  0  0  0  0  0  0  0
   61.6178   35.1474   46.0617 H   0  0  0  0  0  0  0  0  0  0  0  0
   63.4820   34.5774   47.5345 H   0  0  0  0  0  0  0  0  0  0  0  0
   65.1178   33.6223   49.1395 H   0  0  0  0  0  0  0  0  0  0  0  0
   64.5209   31.6033   50.4216 H   0  0  0  0  0  0  0  0  0  0  0  0
   62.3089   30.5355   50.1078 H   0  0  0  0  0  0  0  0  0  0  0  0
   59.8678   30.2989   49.8551 H   0  0  0  0  0  0  0  0  0  0  0  0
   58.6062   30.5494   48.5421 H   0  0  0  0  0  0  0  0  0  0  0  0
   59.6149   30.0297   46.2140 H   0  0  0  0  0  0  0  0  0  0  0  0
   60.1355   28.0841   44.8713 H   0  0  0  0  0  0  0  0  0  0  0  0
   60.8948   25.9638   45.9323 H   0  0  0  0  0  0  0  0  0  0  0  0
   61.0938   25.9086   48.4108 H   0  0  0  0  0  0  0  0  0  0  0  0
   56.2890   31.3260   45.2510 H   0  0  0  0  0  0  0  0  0  0  0  0
   55.6107   30.2587   42.9015 H   0  0  0  0  0  0  0  0  0  0  0  0
   57.3533   30.4308   42.5231 H   0  0  0  0  0  0  0  0  0  0  0  0
   58.3684   27.9848   42.7245 H   0  0  0  0  0  0  0  0  0  0  0  0
   58.2425   26.0771   44.6456 H   0  0  0  0  0  0  0  0  0  0  0  0
   56.5361   26.9486   46.4898 H   0  0  0  0  0  0  0  0  0  0  0  0
  1  2  2  0
  2  3  1  0
  3  4  1  0
  4  5  1  0
  5  6  2  0
  6  7  1  0
  7  8  1  0
  8  9  2  0
  9 10  1  0
 10 11  2  0
 11 12  1  0
 12 13  2  0
 13 14  1  0
 14 15  1  0
 15 16  1  0
 16 17  2  0
 17 18  1  0
 18 19  2  0
 19 20  1  0
 20 21  2  0
 21 22  1  0
 14 23  1  0
 23 24  1  0
 24 25  2  0
  2 26  1  0
 26 27  1  0
 27 28  1  0
 28 29  2  0
 29 30  1  0
 30 31  2  0
 31 32  1  0
 24  4  1  0
 32 28  1  0
 23  7  2  0
 13  8  1  0
 21 16  1  0
  3 33  1  0
  3 34  1  0
  6 35  1  0
  9 36  1  0
 10 37  1  0
 11 38  1  0
 12 39  1  0
 15 40  1  0
 15 41  1  0
 17 42  1  0
 18 43  1  0
 19 44  1  0
 20 45  1  0
 26 46  1  0
 27 47  1  0
 27 48  1  0
 29 49  1  0
 30 50  1  0
 31 51  1  0
M  END
>  <smiles>  (12) 
O=C(Cn1ncc2c3ccccc3n(Cc3ccccc3Cl)c2c1=O)NCc1ccco1

>  <score_type>  (12) 
oracle

>  <origin>  (12) 
adg

>  <m_score__min__energy>  (12) 
-9.1099999999999994

>  <m_primary>  (12) 
energy

$$$$
12:0
     RDKit          3D

 40 42  0  0  1  0  0  0  0  0999 V2000
   56.2720   29.3410   42.6210 C   0  0  0  0  0  0  0  0  0  0  0  0
   56.8240   30.5210   43.3560 C   0  0  0  0  0  0  0  0  0  0  0  0
   57.5370   31.5040   42.7030 C   0  0  0  0  0  0  0  0  0  0  0  0
   58.0380   32.5860   43.4000 C   0  0  0  0  0  0  0  0  0  0  0  0
   57.8020   32.6460   44.7520 C   0  0  0  0  0  0  0  0  0  0  0  0
   58.2860   33.7280   45.5300 N   0  0  0  0  0  0  0  0  0  0  0  0
   58.8890   34.9050   44.9370 C   0  0  0  0  0  0  0  0  0  0  0  0
   59.8660   35.4220   46.0010 C   0  0  0  0  0  0  0  0  0  0  0  0
   60.5280   34.1670   46.5660 C   0  0  0  0  0  0  0  0  0  0  0  0
   59.5650   33.6610   47.6210 C   0  0  2  0  0  0  0  0  0  0  0  0
   59.6620   34.5850   48.7990 C   0  0  0  0  0  0  0  0  0  0  0  0
   60.5350   33.8630   49.7920 C   0  0  0  0  0  0  0  0  0  0  0  0
   60.4750   32.4600   49.4650 N   0  0  0  0  0  0  0  0  0  0  0  0
   61.7520   31.8140   49.5830 C   0  0  0  0  0  0  0  0  0  0  0  0
   59.9180   32.3140   48.1580 C   0  0  0  0  0  0  0  0  0  0  0  0
   58.1920   33.6900   46.9750 C   0  0  0  0  0  0  0  0  0  0  0  0
   57.1080   31.6690   45.3220 N   0  0  0  0  0  0  0  0  0  0  0  0
   56.6140   30.6200   44.6850 N   0  0  0  0  0  0  0  0  0  0  0  0
   55.9207   28.5901   43.3441 H   0  0  0  0  0  0  0  0  0  0  0  0
   55.4311   29.6631   41.9892 H   0  0  0  0  0  0  0  0  0  0  0  0
   57.0582   28.9020   41.9892 H   0  0  0  0  0  0  0  0  0  0  0  0
   57.7080   31.4259   41.6192 H   0  0  0  0  0  0  0  0  0  0  0  0
   58.6083   33.3753   42.8884 H   0  0  0  0  0  0  0  0  0  0  0  0
   59.4253   34.6422   44.0133 H   0  0  0  0  0  0  0  0  0  0  0  0
   58.1395   35.6606   44.6588 H   0  0  0  0  0  0  0  0  0  0  0  0
   60.6171   36.0855   45.5476 H   0  0  0  0  0  0  0  0  0  0  0  0
   59.3585   36.0100   46.7798 H   0  0  0  0  0  0  0  0  0  0  0  0
   60.6679   33.4141   45.7764 H   0  0  0  0  0  0  0  0  0  0  0  0
   61.5253   34.3753   46.9807 H   0  0  0  0  0  0  0  0  0  0  0  0
   60.1208   35.5402   48.5040 H   0  0  0  0  0  0  0  0  0  0  0  0
   58.6734   34.8255   49.2171 H   0  0  0  0  0  0  0  0  0  0  0  0
   61.5712   34.2244   49.7167 H   0  0  0  0  0  0  0  0  0  0  0  0
   60.1891   34.0412   50.8209 H   0  0  0  0  0  0  0  0  0  0  0  0
   62.0020   31.6875   50.6467 H   0  0  0  0  0  0  0  0  0  0  0  0
   61.7107   30.8284   49.0963 H   0  0  0  0  0  0  0  0  0  0  0  0
   62.5215   32.4312   49.0963 H   0  0  0  0  0  0  0  0  0  0  0  0
   60.6545   31.8355   47.4957 H   0  0  0  0  0  0  0  0  0  0  0  0
   59.0146   31.6886   48.2094 H   0  0  0  0  0  0  0  0  0  0  0  0
   57.6374   32.7882   47.2735 H   0  0  0  0  0  0  0  0  0  0  0  0
   57.6715   34.5989   47.3111 H   0  0  0  0  0  0  0  0  0  0  0  0
  1  2  1  0
  2  3  2  0
  3  4  1  0
  4  5  2  0
  5  6  1  0
  6  7  1  0
  7  8  1  0
  8  9  1  0
 10  9  1  6
 10 11  1  0
 11 12  1  0
 12 13  1  0
 13 14  1  0
 13 15  1  0
 10 16  1  0
  5 17  1  0
 17 18  2  0
 18  2  1  0
 16  6  1  0
 15 10  1  0
  1 19  1  0
  1 20  1  0
  1 21  1  0
  3 22  1  0
  4 23  1  0
  7 24  1  0
  7 25  1  0
  8 26  1  0
  8 27  1  0
  9 28  1  0
  9 29  1  0
 11 30  1  0
 11 31  1  0
 12 32  1  0
 12 33  1  0
 14 34  1  0
 14 35  1  0
 14 36  1  0
 15 37  1  0
 15 38  1  0
 16 39  1  0
 16 40  1  0
M  END
>  <smiles>  (13) 
Cc1ccc(N2CCCC3(CCN(C)C3)C2)nn1

>  <score_type>  (13) 
oracle

>  <origin>  (13) 
adg

>  <m_score__min__energy>  (13) 
-8.0800000000000001

>  <m_primary>  (13) 
energy

$$$$
13:0
     RDKit          3D

 31 33  0  0  0  0  0  0  0  0999 V2000
   59.2570   35.3180   46.7060 O   0  0  0  0  0  0  0  0  0  0  0  0
   58.8300   34.2850   46.1090 C   0  0  0  0  0  0  0  0  0  0  0  0
   58.2610   34.5030   44.8730 C   0  0  0  0  0  0  0  0  0  0  0  0
   57.7650   33.4680   44.1310 C   0  0  0  0  0  0  0  0  0  0  0  0
   57.8660   32.2010   44.6830 C   0  0  0  0  0  0  0  0  0  0  0  0
   57.3730   31.1630   43.9250 C   0  0  0  0  0  0  0  0  0  0  0  0
   57.4470   29.8740   44.4040 C   0  0  0  0  0  0  0  0  0  0  0  0
   58.0230   29.6950   45.6380 C   0  0  0  0  0  0  0  0  0  0  0  0
   58.1160   28.0450   46.2460 Cl  0  0  0  0  0  0  0  0  0  0  0  0
   58.5200   30.7460   46.4020 C   0  0  0  0  0  0  0  0  0  0  0  0
   58.4450   32.0370   45.9240 C   0  0  0  0  0  0  0  0  0  0  0  0
   58.9350   33.0430   46.6640 N   0  0  0  0  0  0  0  0  0  0  0  0
   59.5160   32.9110   47.9620 C   0  0  0  0  0  0  0  0  0  0  0  0
   60.9690   33.1330   48.0450 C   0  0  0  0  0  0  0  0  0  0  0  0
   61.8110   32.5160   47.1080 C   0  0  0  0  0  0  0  0  0  0  0  0
   63.1790   32.6880   47.1290 C   0  0  0  0  0  0  0  0  0  0  0  0
   63.7980   33.4760   48.0720 C   0  0  0  0  0  0  0  0  0  0  0  0
   62.9880   34.0900   49.0020 C   0  0  0  0  0  0  0  0  0  0  0  0
   61.6000   33.9160   48.9810 C   0  0  0  0  0  0  0  0  0  0  0  0
   58.2051   35.5276   44.4768 H   0  0  0  0  0  0  0  0  0  0  0  0
   57.3080   33.6326   43.1440 H   0  0  0  0  0  0  0  0  0  0  0  0
   56.9222   31.3622   42.9416 H   0  0  0  0  0  0  0  0  0  0  0  0
   57.0611   29.0235   43.8228 H   0  0  0  0  0  0  0  0  0  0  0  0
   58.9717   30.5475   47.3851 H   0  0  0  0  0  0  0  0  0  0  0  0
   59.0260   33.6388   48.6255 H   0  0  0  0  0  0  0  0  0  0  0  0
   59.3597   31.8613   48.2512 H   0  0  0  0  0  0  0  0  0  0  0  0
   61.3662   31.8751   46.3325 H   0  0  0  0  0  0  0  0  0  0  0  0
   63.7930   32.1808   46.3702 H   0  0  0  0  0  0  0  0  0  0  0  0
   64.8898   33.6096   48.0828 H   0  0  0  0  0  0  0  0  0  0  0  0
   63.4407   34.7285   49.7749 H   0  0  0  0  0  0  0  0  0  0  0  0
   60.9911   34.4252   49.7425 H   0  0  0  0  0  0  0  0  0  0  0  0
  1  2  2  0
  2  3  1  0
  3  4  2  0
  4  5  1  0
  5  6  2  0
  6  7  1  0
  7  8  2  0
  8  9  1  0
  8 10  1  0
 10 11  2  0
 11 12  1  0
 12 13  1  0
 13 14  1  0
 14 15  2  0
 15 16  1  0
 16 17  2  0
 17 18  1  0
 18 19  2  0
 12  2  1  0
 19 14  1  0
 11  5  1  0
  3 20  1  0
  4 21  1  0
  6 22  1  0
  7 23  1  0
 10 24  1  0
 13 25  1  0
 13 26  1  0
 15 27  1  0
 16 28  1  0
 17 29  1  0
 18 30  1  0
 19 31  1  0
M  END
>  <smiles>  (14) 
O=c1ccc2ccc(Cl)cc2n1Cc1ccccc1

>  <score_type>  (14) 
oracle

>  <origin>  (14) 
adg

>  <m_score__min__energy>  (14) 
-7.2000000000000002

>  <m_primary>  (14) 
energy

$$$$
14:0
     RDKit          3D

 35 37  0  0  0  0  0  0  0  0999 V2000
   58.0800   22.4660   44.6720 C   0  0  0  0  0  0  0  0  0  0  0  0
   58.4200   23.8160   45.0960 N   0  0  0  0  0  0  0  0  0  0  0  0
   57.7780   24.8970   44.6080 C   0  0  0  0  0  0  0  0  0  0  0  0
   58.3460   25.9920   45.2150 C   0  0  0  0  0  0  0  0  0  0  0  0
   57.9360   27.3580   44.9600 C   0  0  0  0  0  0  0  0  0  0  0  0
   57.3880   28.0530   46.0400 C   0  0  0  0  0  0  0  0  0  0  0  0
   56.9930   29.3310   45.8480 N   0  0  0  0  0  0  0  0  0  0  0  0
   57.1060   29.9580   44.6630 C   0  0  0  0  0  0  0  0  0  0  0  0
   56.7190   31.1800   44.5080 N   0  0  0  0  0  0  0  0  0  0  0  0
   57.6260   32.1200   43.8820 C   0  0  0  0  0  0  0  0  0  0  0  0
   58.1250   33.0030   44.9770 C   0  0  0  0  0  0  0  0  0  0  0  0
   57.8210   32.6840   46.3000 C   0  0  0  0  0  0  0  0  0  0  0  0
   58.2770   33.4900   47.3220 C   0  0  0  0  0  0  0  0  0  0  0  0
   59.0380   34.6240   47.0770 C   0  0  0  0  0  0  0  0  0  0  0  0
   59.3350   34.9290   45.7480 C   0  0  0  0  0  0  0  0  0  0  0  0
   58.8880   34.1360   44.7070 C   0  0  0  0  0  0  0  0  0  0  0  0
   57.6380   29.2880   43.6080 N   0  0  0  0  0  0  0  0  0  0  0  0
   58.0460   28.0040   43.7650 C   0  0  0  0  0  0  0  0  0  0  0  0
   59.3430   25.5570   46.0800 C   0  0  0  0  0  0  0  0  0  0  0  0
   59.3290   24.2110   45.9520 N   0  0  0  0  0  0  0  0  0  0  0  0
   57.9205   21.8329   45.5573 H   0  0  0  0  0  0  0  0  0  0  0  0
   57.1603   22.4917   44.0691 H   0  0  0  0  0  0  0  0  0  0  0  0
   58.9022   22.0530   44.0691 H   0  0  0  0  0  0  0  0  0  0  0  0
   56.9618   24.9016   43.8706 H   0  0  0  0  0  0  0  0  0  0  0  0
   57.2804   27.5719   47.0233 H   0  0  0  0  0  0  0  0  0  0  0  0
   58.4639   31.5860   43.4101 H   0  0  0  0  0  0  0  0  0  0  0  0
   57.1236   32.7004   43.0942 H   0  0  0  0  0  0  0  0  0  0  0  0
   57.2191   31.7919   46.5279 H   0  0  0  0  0  0  0  0  0  0  0  0
   58.0303   33.2263   48.3610 H   0  0  0  0  0  0  0  0  0  0  0  0
   59.3944   35.2598   47.9008 H   0  0  0  0  0  0  0  0  0  0  0  0
   59.9386   35.8207   45.5233 H   0  0  0  0  0  0  0  0  0  0  0  0
   59.1347   34.3997   43.6680 H   0  0  0  0  0  0  0  0  0  0  0  0
   57.7390   29.7610   42.6630 H   0  0  0  0  0  0  0  0  0  0  0  0
   58.4770   27.4701   42.9052 H   0  0  0  0  0  0  0  0  0  0  0  0
   59.9945   26.1680   46.7220 H   0  0  0  0  0  0  0  0  0  0  0  0
  1  2  1  0
  2  3  1  0
  3  4  2  0
  4  5  1  0
  5  6  1  0
  6  7  2  0
  7  8  1  0
  8  9  2  3
  9 10  1  0
 10 11  1  0
 11 12  2  0
 12 13  1  0
 13 14  2  0
 14 15  1  0
 15 16  2  0
  8 17  1  0
 17 18  1  0
  4 19  1  0
 19 20  2  0
 20  2  1  0
 18  5  2  0
 16 11  1  0
  1 21  1  0
  1 22  1  0
  1 23  1  0
  3 24  1  0
  6 25  1  0
 10 26  1  0
 10 27  1  0
 12 28  1  0
 13 29  1  0
 14 30  1  0
 15 31  1  0
 16 32  1  0
 17 33  1  0
 18 34  1  0
 19 35  1  0
M  END
>  <smiles>  (15) 
Cn1cc(-c2cnc(=NCc3ccccc3)[nH]c2)cn1

>  <score_type>  (15) 
oracle

>  <origin>  (15) 
adg

>  <m_score__min__energy>  (15) 
-7.1500000000000004

>  <m_primary>  (15) 
energy

$$$$
15:0
     RDKit          3D

 26 26  0  0  0  0  0  0  0  0999 V2000
   57.7560   32.2230   41.8620 C   0  0  0  0  0  0  0  0  0  0  0  0
   58.1030   32.3940   43.2830 C   0  0  0  0  0  0  0  0  0  0  0  0
   58.6100   33.4950   43.8560 N   0  0  0  0  0  0  0  0  0  0  0  0
   58.8140   33.3440   45.1420 N   0  0  0  0  0  0  0  0  0  0  0  0
   59.3500   34.3330   46.0540 C   0  0  0  0  0  0  0  0  0  0  0  0
   58.4250   32.0890   45.4360 C   0  0  0  0  0  0  0  0  0  0  0  0
   58.4910   31.5220   46.8010 C   0  0  0  0  0  0  0  0  0  0  0  0
   57.9700   31.4490   44.2900 C   0  0  0  0  0  0  0  0  0  0  0  0
   57.4590   30.0640   44.1730 C   0  0  0  0  0  0  0  0  0  0  0  0
   56.0050   30.0380   43.7700 C   0  0  0  0  0  0  0  0  0  0  0  0
   55.2650   29.4280   44.8530 N   0  0  0  0  0  0  0  0  0  0  0  0
   56.7720   31.7381   41.7806 H   0  0  0  0  0  0  0  0  0  0  0  0
   57.7214   33.2072   41.3720 H   0  0  0  0  0  0  0  0  0  0  0  0
   58.5154   31.5960   41.3720 H   0  0  0  0  0  0  0  0  0  0  0  0
   59.1745   34.0092   47.0905 H   0  0  0  0  0  0  0  0  0  0  0  0
   60.4309   34.4426   45.8821 H   0  0  0  0  0  0  0  0  0  0  0  0
   58.8517   35.2985   45.8821 H   0  0  0  0  0  0  0  0  0  0  0  0
   58.3967   32.3319   47.5394 H   0  0  0  0  0  0  0  0  0  0  0  0
   57.6706   30.8024   46.9392 H   0  0  0  0  0  0  0  0  0  0  0  0
   59.4548   31.0101   46.9392 H   0  0  0  0  0  0  0  0  0  0  0  0
   58.0489   29.5292   43.4141 H   0  0  0  0  0  0  0  0  0  0  0  0
   57.5510   29.5802   45.1566 H   0  0  0  0  0  0  0  0  0  0  0  0
   55.6442   31.0630   43.5990 H   0  0  0  0  0  0  0  0  0  0  0  0
   55.8709   29.4674   42.8392 H   0  0  0  0  0  0  0  0  0  0  0  0
   54.3890   28.9830   44.5410 H   0  0  0  0  0  0  0  0  0  0  0  0
   55.1490   30.0880   45.6660 H   0  0  0  0  0  0  0  0  0  0  0  0
  1  2  1  0
  2  3  2  0
  3  4  1  0
  4  5  1  0
  4  6  1  0
  6  7  1  0
  6  8  2  0
  8  9  1  0
  9 10  1  0
 10 11  1  0
  8  2  1  0
  1 12  1  0
  1 13  1  0
  1 14  1  0
  5 15  1  0
  5 16  1  0
  5 17  1  0
  7 18  1  0
  7 19  1  0
  7 20  1  0
  9 21  1  0
  9 22  1  0
 10 23  1  0
 10 24  1  0
 11 25  1  0
 11 26  1  0
M  END
>  <smiles>  (16) 
Cc1nn(C)c(C)c1CCN

>  <score_type>  (16) 
oracle

>  <origin>  (16) 
adg

>  <m_score__min__energy>  (16) 
-5.8099999999999996

>  <m_primary>  (16) 
energy

$$$$
16:0
     RDKit          3D

 35 36  0  0  0  0  0  0  0  0999 V2000
   56.6900   24.7880   46.7960 C   0  0  0  0  0  0  0  0  0  0  0  0
   57.2650   26.0630   46.3590 C   0  0  0  0  0  0  0  0  0  0  0  0
   56.7090   27.0730   45.6620 C   0  0  0  0  0  0  0  0  0  0  0  0
   57.4200   28.1640   45.3640 C   0  0  0  0  0  0  0  0  0  0  0  0
   56.9340   29.3280   44.6150 C   0  0  0  0  0  0  0  0  0  0  0  0
   55.8020   29.8300   44.8760 O   0  0  0  0  0  0  0  0  0  0  0  0
   57.6760   29.9480   43.5830 N   0  0  0  0  0  0  0  0  0  0  0  0
   57.0580   31.0970   42.9310 C   0  0  0  0  0  0  0  0  0  0  0  0
   57.6850   32.3230   43.5700 C   0  0  0  0  0  0  0  0  0  0  0  0
   57.0240   32.6700   44.8710 C   0  0  0  0  0  0  0  0  0  0  0  0
   57.9920   33.4280   45.6980 C   0  0  0  0  0  0  0  0  0  0  0  0
   58.7330   34.4730   45.1380 C   0  0  0  0  0  0  0  0  0  0  0  0
   59.6390   35.1930   45.8850 C   0  0  0  0  0  0  0  0  0  0  0  0
   59.8600   34.9220   47.2090 C   0  0  0  0  0  0  0  0  0  0  0  0
   59.1390   33.8930   47.7810 C   0  0  0  0  0  0  0  0  0  0  0  0
   58.2300   33.1730   47.0290 C   0  0  0  0  0  0  0  0  0  0  0  0
   58.7600   28.1590   45.8300 C   0  0  0  0  0  0  0  0  0  0  0  0
   58.9830   26.5950   46.6880 S   0  0  0  0  0  0  0  0  0  0  0  0
   56.6733   24.7509   47.8952 H   0  0  0  0  0  0  0  0  0  0  0  0
   55.6638   24.6972   46.4104 H   0  0  0  0  0  0  0  0  0  0  0  0
   57.3013   23.9588   46.4104 H   0  0  0  0  0  0  0  0  0  0  0  0
   55.6612   26.9987   45.3357 H   0  0  0  0  0  0  0  0  0  0  0  0
   58.6150   29.5790   43.3220 H   0  0  0  0  0  0  0  0  0  0  0  0
   57.2639   31.0807   41.8506 H   0  0  0  0  0  0  0  0  0  0  0  0
   55.9648   31.0917   43.0530 H   0  0  0  0  0  0  0  0  0  0  0  0
   58.7510   32.1234   43.7539 H   0  0  0  0  0  0  0  0  0  0  0  0
   57.5557   33.1720   42.8826 H   0  0  0  0  0  0  0  0  0  0  0  0
   56.1330   33.2868   44.6824 H   0  0  0  0  0  0  0  0  0  0  0  0
   56.7146   31.7535   45.3948 H   0  0  0  0  0  0  0  0  0  0  0  0
   58.5893   34.7258   44.0771 H   0  0  0  0  0  0  0  0  0  0  0  0
   60.2004   36.0080   45.4049 H   0  0  0  0  0  0  0  0  0  0  0  0
   60.5862   35.5035   47.7959 H   0  0  0  0  0  0  0  0  0  0  0  0
   59.2889   33.6446   48.8420 H   0  0  0  0  0  0  0  0  0  0  0  0
   57.6719   32.3599   47.5163 H   0  0  0  0  0  0  0  0  0  0  0  0
   59.5105   28.9516   45.6939 H   0  0  0  0  0  0  0  0  0  0  0  0
  1  2  1  0
  2  3  2  0
  3  4  1  0
  4  5  1  0
  5  6  2  0
  5  7  1  0
  7  8  1  0
  8  9  1  0
  9 10  1  0
 10 11  1  0
 11 12  2  0
 12 13  1  0
 13 14  2  0
 14 15  1  0
 15 16  2  0
  4 17  2  0
 17 18  1  0
 18  2  1  0
 16 11  1  0
  1 19  1  0
  1 20  1  0
  1 21  1  0
  3 22  1  0
  7 23  1  0
  8 24  1  0
  8 25  1  0
  9 26  1  0
  9 27  1  0
 10 28  1  0
 10 29  1  0
 12 30  1  0
 13 31  1  0
 14 32  1  0
 15 33  1  0
 16 34  1  0
 17 35  1  0
M  END
>  <smiles>  (17) 
Cc1cc(C(=O)NCCCc2ccccc2)cs1

>  <score_type>  (17) 
oracle

>  <origin>  (17) 
adg

>  <m_score__min__energy>  (17) 
-7.3700000000000001

>  <m_primary>  (17) 
energy

$$$$
17:0
     RDKit          3D

 32 34  0  0  1  0  0  0  0  0999 V2000
   60.1260   29.8770   46.0600 C   0  0  0  0  0  0  0  0  0  0  0  0
   59.0750   28.8650   45.8500 C   0  0  0  0  0  0  0  0  0  0  0  0
   59.3390   27.6460   46.0160 N   0  0  0  0  0  0  0  0  0  0  0  0
   58.4230   26.5750   45.8490 C   0  0  1  0  0  0  0  0  0  0  0  0
   58.3370   25.8810   47.2260 C   0  0  0  0  0  0  0  0  0  0  0  0
   57.0480   26.8860   45.3520 C   0  0  0  0  0  0  0  0  0  0  0  0
   56.8230   28.3360   45.1830 C   0  0  0  0  0  0  0  0  0  0  0  0
   55.6970   28.9650   44.7770 N   0  0  0  0  0  0  0  0  0  0  0  0
   55.9380   30.2650   44.7610 N   0  0  0  0  0  0  0  0  0  0  0  0
   57.2180   30.5240   45.1540 C   0  0  0  0  0  0  0  0  0  0  0  0
   57.7440   31.8680   45.2140 C   0  0  0  0  0  0  0  0  0  0  0  0
   58.1510   32.6340   44.1790 C   0  0  0  0  0  0  0  0  0  0  0  0
   58.6290   33.9360   44.3230 C   0  0  0  0  0  0  0  0  0  0  0  0
   58.6920   34.4710   45.5920 C   0  0  0  0  0  0  0  0  0  0  0  0
   58.2860   33.7240   46.6820 C   0  0  0  0  0  0  0  0  0  0  0  0
   57.8190   32.4410   46.4930 C   0  0  0  0  0  0  0  0  0  0  0  0
   57.7720   29.3020   45.4160 C   0  0  0  0  0  0  0  0  0  0  0  0
   60.2810   30.0262   47.1388 H   0  0  0  0  0  0  0  0  0  0  0  0
   61.0636   29.5330   45.5990 H   0  0  0  0  0  0  0  0  0  0  0  0
   59.8177   30.8269   45.5990 H   0  0  0  0  0  0  0  0  0  0  0  0
   58.8214   25.9554   45.0321 H   0  0  0  0  0  0  0  0  0  0  0  0
   58.4303   26.6339   48.0225 H   0  0  0  0  0  0  0  0  0  0  0  0
   57.3684   25.3679   47.3181 H   0  0  0  0  0  0  0  0  0  0  0  0
   59.1511   25.1469   47.3181 H   0  0  0  0  0  0  0  0  0  0  0  0
   56.9035   26.3908   44.3804 H   0  0  0  0  0  0  0  0  0  0  0  0
   56.3307   26.5213   46.1020 H   0  0  0  0  0  0  0  0  0  0  0  0
   54.7700   28.5660   44.5090 H   0  0  0  0  0  0  0  0  0  0  0  0
   58.1028   32.2073   43.1663 H   0  0  0  0  0  0  0  0  0  0  0  0
   58.9473   34.5207   43.4473 H   0  0  0  0  0  0  0  0  0  0  0  0
   59.0663   35.4950   45.7376 H   0  0  0  0  0  0  0  0  0  0  0  0
   58.3353   34.1511   47.6945 H   0  0  0  0  0  0  0  0  0  0  0  0
   57.4976   31.8525   47.3650 H   0  0  0  0  0  0  0  0  0  0  0  0
  1  2  1  0
  2  3  2  0
  3  4  1  0
  4  5  1  0
  4  6  1  0
  6  7  1  0
  7  8  1  0
  8  9  1  0
  9 10  2  0
 10 11  1  0
 11 12  2  0
 12 13  1  0
 13 14  2  0
 14 15  1  0
 15 16  2  0
 10 17  1  0
 17  2  1  0
 17  7  2  0
 16 11  1  0
  1 18  1  0
  1 19  1  0
  1 20  1  0
  4 21  1  6
  5 22  1  0
  5 23  1  0
  5 24  1  0
  6 25  1  0
  6 26  1  0
  8 27  1  0
 12 28  1  0
 13 29  1  0
 14 30  1  0
 15 31  1  0
 16 32  1  0
M  END
>  <smiles>  (18) 
CC1=NC(C)Cc2[nH]nc(-c3ccccc3)c21

>  <score_type>  (18) 
oracle

>  <origin>  (18) 
adg

>  <m_score__min__energy>  (18) 
-7.6900000000000004

>  <m_primary>  (18) 
energy

$$$$
18:0
     RDKit          3D

 35 37  0  0  1  0  0  0  0  0999 V2000
   60.0570   30.6960   50.5670 C   0  0  0  0  0  0  0  0  0  0  0  0
   60.5390   29.2900   50.3070 C   0  0  0  0  0  0  0  0  0  0  0  0
   60.8390   29.1850   48.8980 N   0  0  0  0  0  0  0  0  0  0  0  0
   59.7640   29.1920   47.9670 C   0  0  0  0  0  0  0  0  0  0  0  0
   58.5520   29.2870   48.3570 O   0  0  0  0  0  0  0  0  0  0  0  0
   60.0520   29.0880   46.5680 N   0  0  0  0  0  0  0  0  0  0  0  0
   58.9570   29.0940   45.6140 C   0  0  2  0  0  0  0  0  0  0  0  0
   58.2760   30.3870   45.5390 C   0  0  0  0  0  0  0  0  0  0  0  0
   58.9080   31.4130   46.2250 C   0  0  0  0  0  0  0  0  0  0  0  0
   58.3630   32.6860   46.2310 C   0  0  0  0  0  0  0  0  0  0  0  0
   57.1770   32.9250   45.5420 C   0  0  0  0  0  0  0  0  0  0  0  0
   56.5650   31.9070   44.8720 N   0  0  0  0  0  0  0  0  0  0  0  0
   57.1040   30.6680   44.8720 C   0  0  0  0  0  0  0  0  0  0  0  0
   56.2960   29.6780   44.0860 C   0  0  0  0  0  0  0  0  0  0  0  0
   55.9040   28.5900   44.8890 O   0  0  0  0  0  0  0  0  0  0  0  0
   56.7250   27.6990   45.6180 C   0  0  0  0  0  0  0  0  0  0  0  0
   56.2460   26.5330   46.0690 C   0  0  0  0  0  0  0  0  0  0  0  0
   57.0400   25.6920   46.7640 C   0  0  0  0  0  0  0  0  0  0  0  0
   58.6760   26.5440   46.8490 S   0  0  0  0  0  0  0  0  0  0  0  0
   58.0540   27.9930   45.8940 C   0  0  0  0  0  0  0  0  0  0  0  0
   59.9978   30.8686   51.6518 H   0  0  0  0  0  0  0  0  0  0  0  0
   60.7605   31.4134   50.1194 H   0  0  0  0  0  0  0  0  0  0  0  0
   59.0613   30.8309   50.1194 H   0  0  0  0  0  0  0  0  0  0  0  0
   61.4437   29.0880   50.8992 H   0  0  0  0  0  0  0  0  0  0  0  0
   59.7693   28.5584   50.5938 H   0  0  0  0  0  0  0  0  0  0  0  0
   61.8200   29.1060   48.5690 H   0  0  0  0  0  0  0  0  0  0  0  0
   61.0240   29.0060   46.1940 H   0  0  0  0  0  0  0  0  0  0  0  0
   59.3770   28.9419   44.6088 H   0  0  0  0  0  0  0  0  0  0  0  0
   59.8451   31.2151   46.7660 H   0  0  0  0  0  0  0  0  0  0  0  0
   58.8626   33.5010   46.7752 H   0  0  0  0  0  0  0  0  0  0  0  0
   56.7348   33.9322   45.5381 H   0  0  0  0  0  0  0  0  0  0  0  0
   55.3974   30.1778   43.6951 H   0  0  0  0  0  0  0  0  0  0  0  0
   56.9170   29.2971   43.2618 H   0  0  0  0  0  0  0  0  0  0  0  0
   55.1991   26.2590   45.8718 H   0  0  0  0  0  0  0  0  0  0  0  0
   56.7714   24.7129   47.1874 H   0  0  0  0  0  0  0  0  0  0  0  0
  1  2  1  0
  2  3  1  0
  3  4  1  0
  4  5  2  0
  4  6  1  0
  6  7  1  0
  7  8  1  0
  8  9  2  0
  9 10  1  0
 10 11  2  0
 11 12  1  0
 12 13  2  0
 13 14  1  0
 14 15  1  0
 15 16  1  0
 16 17  1  0
 17 18  2  0
 18 19  1  0
 19 20  1  0
 20  7  1  0
 13  8  1  0
 20 16  2  0
  1 21  1  0
  1 22  1  0
  1 23  1  0
  2 24  1  0
  2 25  1  0
  3 26  1  0
  6 27  1  0
  7 28  1  6
  9 29  1  0
 10 30  1  0
 11 31  1  0
 14 32  1  0
 14 33  1  0
 17 34  1  0
 18 35  1  0
M  END
>  <smiles>  (19) 
CCNC(=O)NC1c2cccnc2COc2ccsc21

>  <score_type>  (19) 
oracle

>  <origin>  (19) 
adg

>  <m_score__min__energy>  (19) 
-6.21

>  <m_primary>  (19) 
energy

$$$$
19:0
     RDKit          3D

 37 39  0  0  0  0  0  0  0  0999 V2000
   56.5990   29.7020   42.6200 C   0  0  0  0  0  0  0  0  0  0  0  0
   55.6040   30.0790   43.7150 C   0  0  0  0  0  0  0  0  0  0  0  0
   56.2340   30.1020   44.9780 O   0  0  0  0  0  0  0  0  0  0  0  0
   57.0360   29.0280   45.3280 C   0  0  0  0  0  0  0  0  0  0  0  0
   56.5530   27.8050   45.5600 N   0  0  0  0  0  0  0  0  0  0  0  0
   57.2800   26.7360   45.9010 C   0  0  0  0  0  0  0  0  0  0  0  0
   56.6710   25.4330   46.1350 C   0  0  0  0  0  0  0  0  0  0  0  0
   57.4910   24.3820   46.5000 C   0  0  0  0  0  0  0  0  0  0  0  0
   56.9690   23.1280   46.7330 C   0  0  0  0  0  0  0  0  0  0  0  0
   55.6140   22.9730   46.5870 C   0  0  0  0  0  0  0  0  0  0  0  0
   54.7830   24.0140   46.2220 C   0  0  0  0  0  0  0  0  0  0  0  0
   55.3590   25.2120   46.0100 N   0  0  0  0  0  0  0  0  0  0  0  0
   58.6140   26.9080   46.0190 N   0  0  0  0  0  0  0  0  0  0  0  0
   59.1870   28.1260   45.8010 C   0  0  0  0  0  0  0  0  0  0  0  0
   58.3950   29.2230   45.4450 C   0  0  0  0  0  0  0  0  0  0  0  0
   59.0400   30.4110   45.2420 O   0  0  0  0  0  0  0  0  0  0  0  0
   58.5050   31.6700   45.3670 C   0  0  0  0  0  0  0  0  0  0  0  0
   58.3140   32.1460   46.6630 C   0  0  0  0  0  0  0  0  0  0  0  0
   57.7790   33.4070   46.8710 C   0  0  0  0  0  0  0  0  0  0  0  0
   57.4310   34.2000   45.7830 C   0  0  0  0  0  0  0  0  0  0  0  0
   57.6110   33.7470   44.4910 C   0  0  0  0  0  0  0  0  0  0  0  0
   58.1470   32.4870   44.3290 C   0  0  0  0  0  0  0  0  0  0  0  0
   57.5335   29.3479   43.0798 H   0  0  0  0  0  0  0  0  0  0  0  0
   56.1720   28.9033   41.9957 H   0  0  0  0  0  0  0  0  0  0  0  0
   56.8084   30.5831   41.9957 H   0  0  0  0  0  0  0  0  0  0  0  0
   55.1911   31.0756   43.4997 H   0  0  0  0  0  0  0  0  0  0  0  0
   54.8005   29.3281   43.7352 H   0  0  0  0  0  0  0  0  0  0  0  0
   58.5732   24.5484   46.6058 H   0  0  0  0  0  0  0  0  0  0  0  0
   57.6131   22.2853   47.0244 H   0  0  0  0  0  0  0  0  0  0  0  0
   55.1724   21.9818   46.7675 H   0  0  0  0  0  0  0  0  0  0  0  0
   53.6982   23.8704   46.1095 H   0  0  0  0  0  0  0  0  0  0  0  0
   60.2754   28.2464   45.9054 H   0  0  0  0  0  0  0  0  0  0  0  0
   58.5889   31.5184   47.5235 H   0  0  0  0  0  0  0  0  0  0  0  0
   57.6298   33.7802   47.8949 H   0  0  0  0  0  0  0  0  0  0  0  0
   57.0071   35.2006   45.9537 H   0  0  0  0  0  0  0  0  0  0  0  0
   57.3374   34.3673   43.6247 H   0  0  0  0  0  0  0  0  0  0  0  0
   58.2958   32.1162   43.3041 H   0  0  0  0  0  0  0  0  0  0  0  0
  1  2  1  0
  2  3  1  0
  3  4  1  0
  4  5  2  0
  5  6  1  0
  6  7  1  0
  7  8  2  0
  8  9  1  0
  9 10  2  0
 10 11  1  0
 11 12  2  0
  6 13  2  0
 13 14  1  0
 14 15  2  0
 15 16  1  0
 16 17  1  0
 17 18  2  0
 18 19  1  0
 19 20  2  0
 20 21  1  0
 21 22  2  0
 15  4  1  0
 22 17  1  0
 12  7  1  0
  1 23  1  0
  1 24  1  0
  1 25  1  0
  2 26  1  0
  2 27  1  0
  8 28  1  0
  9 29  1  0
 10 30  1  0
 11 31  1  0
 14 32  1  0
 18 33  1  0
 19 34  1  0
 20 35  1  0
 21 36  1  0
 22 37  1  0
M  END
>  <smiles>  (20) 
CCOc1nc(-c2ccccn2)ncc1Oc1ccccc1

>  <score_type>  (20) 
oracle

>  <origin>  (20) 
adg

>  <m_score__min__energy>  (20) 
-6.7199999999999998

>  <m_primary>  (20) 
energy

$$$$
20:0
     RDKit          3D

 44 45  0  0  1  0  0  0  0  0999 V2000
   57.0250   21.4370   43.0750 C   0  0  0  0  0  0  0  0  0  0  0  0
   56.5900   22.8860   43.0100 C   0  0  0  0  0  0  0  0  0  0  0  0
   55.6610   23.2460   44.0270 N   0  0  0  0  0  0  0  0  0  0  0  0
   56.1610   23.9030   45.1750 C   0  0  2  0  0  0  0  0  0  0  0  0
   55.3660   25.0420   45.6230 C   0  0  0  0  0  0  0  0  0  0  0  0
   54.7420   25.9400   45.9890 N   0  0  0  0  0  0  0  0  0  0  0  0
   57.6070   24.3020   45.1220 C   0  0  0  0  0  0  0  0  0  0  0  0
   57.7650   25.7580   44.8620 C   0  0  0  0  0  0  0  0  0  0  0  0
   57.9070   26.6910   45.8750 C   0  0  0  0  0  0  0  0  0  0  0  0
   58.0520   28.0370   45.5720 C   0  0  0  0  0  0  0  0  0  0  0  0
   58.0550   28.4480   44.2550 C   0  0  0  0  0  0  0  0  0  0  0  0
   58.2010   29.8300   43.8850 N   0  0  0  0  0  0  0  0  0  0  0  0
   57.1780   30.7900   44.2280 C   0  0  0  0  0  0  0  0  0  0  0  0
   56.1380   30.4540   44.8520 O   0  0  0  0  0  0  0  0  0  0  0  0
   57.4330   32.1940   43.7960 C   0  0  0  0  0  0  0  0  0  0  0  0
   58.0310   32.9200   44.9480 C   0  0  0  0  0  0  0  0  0  0  0  0
   57.8110   32.3500   46.2060 C   0  0  0  0  0  0  0  0  0  0  0  0
   58.3260   32.9550   47.3100 C   0  0  0  0  0  0  0  0  0  0  0  0
   59.0470   34.1060   47.1570 C   0  0  0  0  0  0  0  0  0  0  0  0
   59.2780   34.6840   45.9240 C   0  0  0  0  0  0  0  0  0  0  0  0
   58.7640   34.0860   44.8000 C   0  0  0  0  0  0  0  0  0  0  0  0
   57.9130   27.5200   43.2270 C   0  0  0  0  0  0  0  0  0  0  0  0
   57.7680   26.1760   43.5290 C   0  0  0  0  0  0  0  0  0  0  0  0
   57.1175   21.1288   44.1269 H   0  0  0  0  0  0  0  0  0  0  0  0
   56.2765   20.8066   42.5727 H   0  0  0  0  0  0  0  0  0  0  0  0
   57.9970   21.3231   42.5727 H   0  0  0  0  0  0  0  0  0  0  0  0
   57.4816   23.5221   43.1118 H   0  0  0  0  0  0  0  0  0  0  0  0
   56.0838   23.0289   42.0439 H   0  0  0  0  0  0  0  0  0  0  0  0
   54.8230   23.7000   43.6590 H   0  0  0  0  0  0  0  0  0  0  0  0
   56.0711   23.0997   45.9211 H   0  0  0  0  0  0  0  0  0  0  0  0
   58.0800   24.0581   46.0847 H   0  0  0  0  0  0  0  0  0  0  0  0
   58.0853   23.7519   44.2982 H   0  0  0  0  0  0  0  0  0  0  0  0
   57.9048   26.3635   46.9251 H   0  0  0  0  0  0  0  0  0  0  0  0
   58.1643   28.7749   46.3800 H   0  0  0  0  0  0  0  0  0  0  0  0
   59.0530   30.1430   43.3640 H   0  0  0  0  0  0  0  0  0  0  0  0
   58.1297   32.2034   42.9448 H   0  0  0  0  0  0  0  0  0  0  0  0
   56.4959   32.6764   43.4810 H   0  0  0  0  0  0  0  0  0  0  0  0
   57.2277   31.4223   46.3016 H   0  0  0  0  0  0  0  0  0  0  0  0
   58.1649   32.5250   48.3096 H   0  0  0  0  0  0  0  0  0  0  0  0
   59.4604   34.5922   48.0529 H   0  0  0  0  0  0  0  0  0  0  0  0
   59.8655   35.6105   45.8437 H   0  0  0  0  0  0  0  0  0  0  0  0
   58.9305   34.5230   43.8044 H   0  0  0  0  0  0  0  0  0  0  0  0
   57.9159   27.8529   42.1786 H   0  0  0  0  0  0  0  0  0  0  0  0
   57.6554   25.4388   42.7204 H   0  0  0  0  0  0  0  0  0  0  0  0
  1  2  1  0
  2  3  1  0
  3  4  1  0
  4  5  1  0
  5  6  3  0
  4  7  1  0
  7  8  1  0
  8  9  2  0
  9 10  1  0
 10 11  2  0
 11 12  1  0
 12 13  1  0
 13 14  2  0
 13 15  1  0
 15 16  1  0
 16 17  2  0
 17 18  1  0
 18 19  2  0
 19 20  1  0
 20 21  2  0
 11 22  1  0
 22 23  2  0
 23  8  1  0
 21 16  1  0
  1 24  1  0
  1 25  1  0
  1 26  1  0
  2 27  1  0
  2 28  1  0
  3 29  1  0
  4 30  1  1
  7 31  1  0
  7 32  1  0
  9 33  1  0
 10 34  1  0
 12 35  1  0
 15 36  1  0
 15 37  1  0
 17 38  1  0
 18 39  1  0
 19 40  1  0
 20 41  1  0
 21 42  1  0
 22 43  1  0
 23 44  1  0
M  END
>  <smiles>  (21) 
CCNC(C#N)Cc1ccc(NC(=O)Cc2ccccc2)cc1

>  <score_type>  (21) 
oracle

>  <origin>  (21) 
adg

>  <m_score__min__energy>  (21) 
-8.5

>  <m_primary>  (21) 
energy

$$$$
21:0
     RDKit          3D

 25 26  0  0  0  0  0  0  0  0999 V2000
   55.6610   29.2450   44.8760 O   0  0  0  0  0  0  0  0  0  0  0  0
   56.9270   29.4030   44.7640 C   0  0  0  0  0  0  0  0  0  0  0  0
   57.7170   28.2650   44.8840 N   0  0  0  0  0  0  0  0  0  0  0  0
   57.3070   26.9320   45.1170 C   0  0  0  0  0  0  0  0  0  0  0  0
   57.7710   25.8230   44.4760 C   0  0  0  0  0  0  0  0  0  0  0  0
   57.2940   24.5390   44.7850 C   0  0  0  0  0  0  0  0  0  0  0  0
   56.3320   24.3560   45.7550 C   0  0  0  0  0  0  0  0  0  0  0  0
   55.8850   25.4610   46.3760 N   0  0  0  0  0  0  0  0  0  0  0  0
   56.3270   26.6880   46.0960 C   0  0  0  0  0  0  0  0  0  0  0  0
   57.3630   30.7640   44.5260 C   0  0  0  0  0  0  0  0  0  0  0  0
   57.8030   31.5400   45.6140 C   0  0  0  0  0  0  0  0  0  0  0  0
   58.2300   32.8370   45.4600 C   0  0  0  0  0  0  0  0  0  0  0  0
   58.8190   33.8410   46.9800 Br  0  0  0  0  0  0  0  0  0  0  0  0
   58.2490   33.4460   44.2390 C   0  0  0  0  0  0  0  0  0  0  0  0
   57.8240   32.7130   43.1520 C   0  0  0  0  0  0  0  0  0  0  0  0
   57.3910   31.3940   43.3160 C   0  0  0  0  0  0  0  0  0  0  0  0
   56.9960   30.7700   42.1890 F   0  0  0  0  0  0  0  0  0  0  0  0
   58.7680   28.4000   44.7920 H   0  0  0  0  0  0  0  0  0  0  0  0
   58.5389   25.9363   43.6965 H   0  0  0  0  0  0  0  0  0  0  0  0
   57.6934   23.6674   44.2457 H   0  0  0  0  0  0  0  0  0  0  0  0
   55.9495   23.3562   46.0081 H   0  0  0  0  0  0  0  0  0  0  0  0
   55.9095   27.5408   46.6514 H   0  0  0  0  0  0  0  0  0  0  0  0
   57.8053   31.0944   46.6197 H   0  0  0  0  0  0  0  0  0  0  0  0
   58.5914   34.4852   44.1263 H   0  0  0  0  0  0  0  0  0  0  0  0
   57.8255   33.1681   42.1505 H   0  0  0  0  0  0  0  0  0  0  0  0
  1  2  2  0
  2  3  1  0
  3  4  1  0
  4  5  2  0
  5  6  1  0
  6  7  2  0
  7  8  1  0
  8  9  2  0
  2 10  1  0
 10 11  2  0
 11 12  1  0
 12 13  1  0
 12 14  2  0
 14 15  1  0
 15 16  2  0
 16 17  1  0
  9  4  1  0
 16 10  1  0
  3 18  1  0
  5 19  1  0
  6 20  1  0
  7 21  1  0
  9 22  1  0
 11 23  1  0
 14 24  1  0
 15 25  1  0
M  END
>  <smiles>  (22) 
O=C(Nc1cccnc1)c1cc(Br)ccc1F

>  <score_type>  (22) 
oracle

>  <origin>  (22) 
adg

>  <m_score__min__energy>  (22) 
-6.8300000000000001

>  <m_primary>  (22) 
energy

$$$$
22:0
     RDKit          3D

 29 31  0  0  0  0  0  0  0  0999 V2000
   56.9340   29.1370   42.9600 N   0  0  0  0  0  0  0  0  0  0  0  0
   56.4750   29.5230   44.5760 S   0  0  0  0  0  0  0  0  0  0  0  0
   55.3650   30.5540   44.4920 O   0  0  0  0  0  0  0  0  0  0  0  0
   55.9000   28.3100   45.2390 O   0  0  0  0  0  0  0  0  0  0  0  0
   57.8440   30.1710   45.4500 C   0  0  0  0  0  0  0  0  0  0  0  0
   58.7320   29.2420   45.9850 C   0  0  0  0  0  0  0  0  0  0  0  0
   59.8270   29.6930   46.6830 C   0  0  0  0  0  0  0  0  0  0  0  0
   60.0240   31.0470   46.8410 C   0  0  0  0  0  0  0  0  0  0  0  0
   61.2120   31.4530   47.5960 C   0  0  0  0  0  0  0  0  0  0  0  0
   61.8230   31.0720   48.6110 N   0  0  0  0  0  0  0  0  0  0  0  0
   62.8970   31.6320   49.0900 C   0  0  0  0  0  0  0  0  0  0  0  0
   63.6340   31.2500   50.2330 C   0  0  0  0  0  0  0  0  0  0  0  0
   64.7480   31.9700   50.5820 C   0  0  0  0  0  0  0  0  0  0  0  0
   65.2270   33.0580   49.9060 C   0  0  0  0  0  0  0  0  0  0  0  0
   64.4960   33.4380   48.7720 C   0  0  0  0  0  0  0  0  0  0  0  0
   63.3710   32.7110   48.4180 C   0  0  0  0  0  0  0  0  0  0  0  0
   62.2310   32.9160   47.0620 S   0  0  0  0  0  0  0  0  0  0  0  0
   59.1640   31.9870   46.3240 C   0  0  0  0  0  0  0  0  0  0  0  0
   58.0610   31.5200   45.6200 C   0  0  0  0  0  0  0  0  0  0  0  0
   57.9530   29.3010   42.8120 H   0  0  0  0  0  0  0  0  0  0  0  0
   56.6440   28.1880   42.6700 H   0  0  0  0  0  0  0  0  0  0  0  0
   58.5601   28.1638   45.8513 H   0  0  0  0  0  0  0  0  0  0  0  0
   60.5421   28.9763   47.1131 H   0  0  0  0  0  0  0  0  0  0  0  0
   63.3183   30.3857   50.8358 H   0  0  0  0  0  0  0  0  0  0  0  0
   65.3000   31.6466   51.4768 H   0  0  0  0  0  0  0  0  0  0  0  0
   66.1275   33.5997   50.2311 H   0  0  0  0  0  0  0  0  0  0  0  0
   64.8118   34.3031   48.1703 H   0  0  0  0  0  0  0  0  0  0  0  0
   59.3418   33.0637   46.4620 H   0  0  0  0  0  0  0  0  0  0  0  0
   57.3489   32.2403   45.1911 H   0  0  0  0  0  0  0  0  0  0  0  0
  1  2  1  0
  2  3  2  0
  2  4  2  0
  2  5  1  0
  5  6  2  0
  6  7  1  0
  7  8  2  0
  8  9  1  0
  9 10  2  0
 10 11  1  0
 11 12  2  0
 12 13  1  0
 13 14  2  0
 14 15  1  0
 15 16  2  0
 16 17  1  0
  8 18  1  0
 18 19  2  0
 19  5  1  0
 17  9  1  0
 16 11  1  0
  1 20  1  0
  1 21  1  0
  6 22  1  0
  7 23  1  0
 12 24  1  0
 13 25  1  0
 14 26  1  0
 15 27  1  0
 18 28  1  0
 19 29  1  0
M  END
>  <smiles>  (23) 
NS(=O)(=O)c1ccc(-c2nc3ccccc3s2)cc1

>  <score_type>  (23) 
oracle

>  <origin>  (23) 
adg

>  <m_score__min__energy>  (23) 
-7.6600000000000001

>  <m_primary>  (23) 
energy

$$$$
23:0
     RDKit          3D

 54 56  0  0  0  0  0  0  0  0999 V2000
   55.8970   30.0480   43.8290 C   0  0  0  0  0  0  0  0  0  0  0  0
   57.0360   30.7530   43.1730 C   0  0  0  0  0  0  0  0  0  0  0  0
   58.2810   30.8440   43.9610 C   0  0  0  0  0  0  0  0  0  0  0  0
   58.1810   31.0210   45.3780 N   0  0  0  0  0  0  0  0  0  0  0  0
   58.1730   29.9870   46.3760 C   0  0  0  0  0  0  0  0  0  0  0  0
   59.4580   29.2890   46.6300 C   0  0  0  0  0  0  0  0  0  0  0  0
   60.6610   30.1990   46.7830 C   0  0  0  0  0  0  0  0  0  0  0  0
   58.1390   32.3770   45.8740 C   0  0  0  0  0  0  0  0  0  0  0  0
   58.0600   32.6110   47.1270 O   0  0  0  0  0  0  0  0  0  0  0  0
   58.1820   33.5680   45.0050 C   0  0  0  0  0  0  0  0  0  0  0  0
   58.9120   34.9520   45.9680 S   0  0  0  0  0  0  0  0  0  0  0  0
   60.4080   34.2720   46.7180 C   0  0  0  0  0  0  0  0  0  0  0  0
   61.4820   33.7600   46.1280 N   0  0  0  0  0  0  0  0  0  0  0  0
   62.3680   33.3280   47.0850 C   0  0  0  0  0  0  0  0  0  0  0  0
   63.6210   32.7280   47.0270 C   0  0  0  0  0  0  0  0  0  0  0  0
   64.0660   32.5030   48.7550 S   0  0  0  0  0  0  0  0  0  0  0  0
   62.5980   33.2030   49.3930 C   0  0  0  0  0  0  0  0  0  0  0  0
   61.8420   33.5740   48.2580 C   0  0  0  0  0  0  0  0  0  0  0  0
   60.6200   34.1620   48.0530 N   0  0  0  0  0  0  0  0  0  0  0  0
   59.6570   34.5870   49.0410 C   0  0  0  0  0  0  0  0  0  0  0  0
   59.4240   33.5640   50.0660 C   0  0  0  0  0  0  0  0  0  0  0  0
   59.3160   33.7690   51.4100 C   0  0  0  0  0  0  0  0  0  0  0  0
   59.0850   32.7430   52.3210 C   0  0  0  0  0  0  0  0  0  0  0  0
   58.9590   31.4470   51.8030 C   0  0  0  0  0  0  0  0  0  0  0  0
   59.0600   31.1920   50.4530 C   0  0  0  0  0  0  0  0  0  0  0  0
   58.9190   29.8110   49.9000 C   0  0  0  0  0  0  0  0  0  0  0  0
   59.2880   32.2460   49.6170 C   0  0  0  0  0  0  0  0  0  0  0  0
   56.0048   30.1148   44.9217 H   0  0  0  0  0  0  0  0  0  0  0  0
   54.9504   30.5183   43.5246 H   0  0  0  0  0  0  0  0  0  0  0  0
   55.8958   28.9910   43.5246 H   0  0  0  0  0  0  0  0  0  0  0  0
   57.2674   30.2213   42.2383 H   0  0  0  0  0  0  0  0  0  0  0  0
   56.6995   31.7904   43.0294 H   0  0  0  0  0  0  0  0  0  0  0  0
   58.8430   29.9142   43.7887 H   0  0  0  0  0  0  0  0  0  0  0  0
   58.7568   31.7704   43.6068 H   0  0  0  0  0  0  0  0  0  0  0  0
   57.8491   30.4422   47.3236 H   0  0  0  0  0  0  0  0  0  0  0  0
   57.4991   29.2125   45.9811 H   0  0  0  0  0  0  0  0  0  0  0  0
   59.3519   28.7047   47.5559 H   0  0  0  0  0  0  0  0  0  0  0  0
   59.6521   28.6687   45.7426 H   0  0  0  0  0  0  0  0  0  0  0  0
   60.8685   30.3559   47.8518 H   0  0  0  0  0  0  0  0  0  0  0  0
   61.5355   29.7343   46.3041 H   0  0  0  0  0  0  0  0  0  0  0  0
   60.4518   31.1669   46.3041 H   0  0  0  0  0  0  0  0  0  0  0  0
   58.8022   33.3617   44.1202 H   0  0  0  0  0  0  0  0  0  0  0  0
   57.1682   33.8310   44.6689 H   0  0  0  0  0  0  0  0  0  0  0  0
   64.2031   32.4552   46.1344 H   0  0  0  0  0  0  0  0  0  0  0  0
   62.3216   33.3281   50.4503 H   0  0  0  0  0  0  0  0  0  0  0  0
   60.0303   35.4991   49.5297 H   0  0  0  0  0  0  0  0  0  0  0  0
   58.7031   34.7701   48.5248 H   0  0  0  0  0  0  0  0  0  0  0  0
   59.4164   34.7955   51.7924 H   0  0  0  0  0  0  0  0  0  0  0  0
   59.0048   32.9404   53.4002 H   0  0  0  0  0  0  0  0  0  0  0  0
   58.7744   30.6106   52.4932 H   0  0  0  0  0  0  0  0  0  0  0  0
   58.8454   29.0903   50.7278 H   0  0  0  0  0  0  0  0  0  0  0  0
   58.0104   29.7543   49.2826 H   0  0  0  0  0  0  0  0  0  0  0  0
   59.7974   29.5718   49.2826 H   0  0  0  0  0  0  0  0  0  0  0  0
   59.3688   32.0499   48.5376 H   0  0  0  0  0  0  0  0  0  0  0  0
  1  2  1  0
  2  3  1  0
  3  4  1  0
  4  5  1  0
  5  6  1  0
  6  7  1  0
  4  8  1  0
  8  9  2  0
  8 10  1  0
 10 11  1  0
 11 12  1  0
 12 13  2  0
 13 14  1  0
 14 15  2  0
 15 16  1  0
 16 17  1  0
 17 18  2  0
 18 19  1  0
 19 20  1  0
 20 21  1  0
 21 22  2  0
 22 23  1  0
 23 24  2  0
 24 25  1  0
 25 26  1  0
 25 27  2  0
 19 12  1  0
 27 21  1  0
 18 14  1  0
  1 28  1  0
  1 29  1  0
  1 30  1  0
  2 31  1  0
  2 32  1  0
  3 33  1  0
  3 34  1  0
  5 35  1  0
  5 36  1  0
  6 37  1  0
  6 38  1  0
  7 39  1  0
  7 40  1  0
  7 41  1  0
 10 42  1  0
 10 43  1  0
 15 44  1  0
 17 45  1  0
 20 46  1  0
 20 47  1  0
 22 48  1  0
 23 49  1  0
 24 50  1  0
 26 51  1  0
 26 52  1  0
 26 53  1  0
 27 54  1  0
M  END
>  <smiles>  (24) 
CCCN(CCC)C(=O)CSc1nc2cscc2n1Cc1cccc(C)c1

>  <score_type>  (24) 
oracle

>  <origin>  (24) 
adg

>  <m_score__min__energy>  (24) 
-7.6399999999999997

>  <m_primary>  (24) 
energy

$$$$
24:0
     RDKit          3D

 35 37  0  0  0  0  0  0  0  0999 V2000
   60.4150   29.3540   45.1280 C   0  0  0  0  0  0  0  0  0  0  0  0
   59.4830   28.3340   45.7310 C   0  0  0  0  0  0  0  0  0  0  0  0
   59.9330   27.5650   46.7820 C   0  0  0  0  0  0  0  0  0  0  0  0
   59.1440   26.6020   47.3980 C   0  0  0  0  0  0  0  0  0  0  0  0
   57.8770   26.4440   46.9100 C   0  0  0  0  0  0  0  0  0  0  0  0
   57.4280   27.2170   45.8550 C   0  0  0  0  0  0  0  0  0  0  0  0
   58.1940   28.1740   45.2340 C   0  0  0  0  0  0  0  0  0  0  0  0
   57.8040   28.9870   44.1680 N   0  0  0  0  0  0  0  0  0  0  0  0
   56.5470   29.6260   44.0130 C   0  0  0  0  0  0  0  0  0  0  0  0
   55.6170   29.5260   44.8410 O   0  0  0  0  0  0  0  0  0  0  0  0
   56.2920   30.4730   42.7950 C   0  0  0  0  0  0  0  0  0  0  0  0
   57.5520   31.7730   42.6640 S   0  0  0  0  0  0  0  0  0  0  0  0
   58.0640   32.2770   44.3530 C   0  0  0  0  0  0  0  0  0  0  0  0
   58.1040   31.9360   45.4380 N   0  0  0  0  0  0  0  0  0  0  0  0
   58.5510   32.5210   46.5330 C   0  0  0  0  0  0  0  0  0  0  0  0
   58.5970   32.1000   47.8570 C   0  0  0  0  0  0  0  0  0  0  0  0
   59.1200   32.9150   48.8010 C   0  0  0  0  0  0  0  0  0  0  0  0
   59.6360   34.1790   48.5790 C   0  0  0  0  0  0  0  0  0  0  0  0
   59.6030   34.6220   47.2680 C   0  0  0  0  0  0  0  0  0  0  0  0
   59.0630   33.7820   46.2910 C   0  0  0  0  0  0  0  0  0  0  0  0
   58.8610   34.0330   44.4980 S   0  0  0  0  0  0  0  0  0  0  0  0
   60.9215   29.9083   45.9318 H   0  0  0  0  0  0  0  0  0  0  0  0
   61.1648   28.8431   44.5061 H   0  0  0  0  0  0  0  0  0  0  0  0
   59.8387   30.0548   44.5061 H   0  0  0  0  0  0  0  0  0  0  0  0
   60.9587   27.7200   47.1481 H   0  0  0  0  0  0  0  0  0  0  0  0
   59.5198   25.9970   48.2363 H   0  0  0  0  0  0  0  0  0  0  0  0
   57.2087   25.6954   47.3605 H   0  0  0  0  0  0  0  0  0  0  0  0
   56.4016   27.0571   45.4931 H   0  0  0  0  0  0  0  0  0  0  0  0
   58.4900   29.1590   43.3900 H   0  0  0  0  0  0  0  0  0  0  0  0
   56.3287   29.8390   41.8968 H   0  0  0  0  0  0  0  0  0  0  0  0
   55.3002   30.9406   42.8830 H   0  0  0  0  0  0  0  0  0  0  0  0
   58.2099   31.1088   48.1355 H   0  0  0  0  0  0  0  0  0  0  0  0
   59.1365   32.5402   49.8350 H   0  0  0  0  0  0  0  0  0  0  0  0
   60.0469   34.7938   49.3934 H   0  0  0  0  0  0  0  0  0  0  0  0
   59.9939   35.6149   47.0010 H   0  0  0  0  0  0  0  0  0  0  0  0
  1  2  1  0
  2  3  2  0
  3  4  1  0
  4  5  2  0
  5  6  1  0
  6  7  2  0
  7  8  1  0
  8  9  1  0
  9 10  2  0
  9 11  1  0
 11 12  1  0
 12 13  1  0
 13 14  2  0
 14 15  1  0
 15 16  2  0
 16 17  1  0
 17 18  2  0
 18 19  1  0
 19 20  2  0
 20 21  1  0
  7  2  1  0
 21 13  1  0
 20 15  1  0
  1 22  1  0
  1 23  1  0
  1 24  1  0
  3 25  1  0
  4 26  1  0
  5 27  1  0
  6 28  1  0
  8 29  1  0
 11 30  1  0
 11 31  1  0
 16 32  1  0
 17 33  1  0
 18 34  1  0
 19 35  1  0
M  END
>  <smiles>  (25) 
Cc1ccccc1NC(=O)CSc1nc2ccccc2s1

>  <score_type>  (25) 
oracle

>  <origin>  (25) 
adg

>  <m_score__min__energy>  (25) 
-8.3599999999999994

>  <m_primary>  (25) 
energy

$$$$
25:0
     RDKit          3D

 39 40  0  0  0  0  0  0  0  0999 V2000
   65.8180   33.0550   50.0850 C   0  0  0  0  0  0  0  0  0  0  0  0
   64.5320   32.3900   50.0390 N   0  0  0  0  0  0  0  0  0  0  0  0
   64.3420   31.2180   50.8960 C   0  0  0  0  0  0  0  0  0  0  0  0
   63.5200   32.8890   49.1860 C   0  0  0  0  0  0  0  0  0  0  0  0
   63.8130   32.9310   47.8310 C   0  0  0  0  0  0  0  0  0  0  0  0
   62.8740   33.4100   46.9370 C   0  0  0  0  0  0  0  0  0  0  0  0
   61.6460   33.8420   47.4110 C   0  0  0  0  0  0  0  0  0  0  0  0
   60.6730   34.3550   46.3990 C   0  0  0  0  0  0  0  0  0  0  0  0
   59.3820   34.6350   46.9330 N   0  0  0  0  0  0  0  0  0  0  0  0
   58.2630   34.2540   46.1370 C   0  0  0  0  0  0  0  0  0  0  0  0
   58.6330   33.8730   44.7210 C   0  0  0  0  0  0  0  0  0  0  0  0
   57.9180   32.6270   44.3000 C   0  0  0  0  0  0  0  0  0  0  0  0
   57.7600   32.3060   42.9520 C   0  0  0  0  0  0  0  0  0  0  0  0
   57.0840   31.1380   42.6010 C   0  0  0  0  0  0  0  0  0  0  0  0
   56.5760   30.3080   43.5470 C   0  0  0  0  0  0  0  0  0  0  0  0
   56.7280   30.6180   44.8520 N   0  0  0  0  0  0  0  0  0  0  0  0
   57.3770   31.7410   45.2200 C   0  0  0  0  0  0  0  0  0  0  0  0
   61.3690   33.7950   48.7600 C   0  0  0  0  0  0  0  0  0  0  0  0
   62.3230   33.3160   49.6110 N   0  0  0  0  0  0  0  0  0  0  0  0
   66.1143   33.2082   51.1332 H   0  0  0  0  0  0  0  0  0  0  0  0
   66.5707   32.4331   49.5784 H   0  0  0  0  0  0  0  0  0  0  0  0
   65.7456   34.0287   49.5784 H   0  0  0  0  0  0  0  0  0  0  0  0
   64.3916   31.5237   51.9515 H   0  0  0  0  0  0  0  0  0  0  0  0
   63.3593   30.7687   50.6901 H   0  0  0  0  0  0  0  0  0  0  0  0
   65.1324   30.4812   50.6901 H   0  0  0  0  0  0  0  0  0  0  0  0
   64.7916   32.5835   47.4682 H   0  0  0  0  0  0  0  0  0  0  0  0
   63.0993   33.4478   45.8610 H   0  0  0  0  0  0  0  0  0  0  0  0
   61.0782   35.2820   45.9671 H   0  0  0  0  0  0  0  0  0  0  0  0
   60.5439   33.5619   45.6478 H   0  0  0  0  0  0  0  0  0  0  0  0
   59.3070   35.6620   47.1050 H   0  0  0  0  0  0  0  0  0  0  0  0
   57.7741   33.3914   46.6134 H   0  0  0  0  0  0  0  0  0  0  0  0
   57.5976   35.1277   46.0741 H   0  0  0  0  0  0  0  0  0  0  0  0
   58.3563   34.6938   44.0430 H   0  0  0  0  0  0  0  0  0  0  0  0
   59.7166   33.6885   44.6779 H   0  0  0  0  0  0  0  0  0  0  0  0
   58.1650   32.9683   42.1727 H   0  0  0  0  0  0  0  0  0  0  0  0
   56.9602   30.8847   41.5378 H   0  0  0  0  0  0  0  0  0  0  0  0
   56.0450   29.3906   43.2529 H   0  0  0  0  0  0  0  0  0  0  0  0
   57.4816   31.9634   46.2922 H   0  0  0  0  0  0  0  0  0  0  0  0
   60.3968   34.1372   49.1443 H   0  0  0  0  0  0  0  0  0  0  0  0
  1  2  1  0
  2  3  1  0
  2  4  1  0
  4  5  2  0
  5  6  1  0
  6  7  2  0
  7  8  1  0
  8  9  1  0
  9 10  1  0
 10 11  1  0
 11 12  1  0
 12 13  2  0
 13 14  1  0
 14 15  2  0
 15 16  1  0
 16 17  2  0
  7 18  1  0
 18 19  2  0
 19  4  1  0
 17 12  1  0
  1 20  1  0
  1 21  1  0
  1 22  1  0
  3 23  1  0
  3 24  1  0
  3 25  1  0
  5 26  1  0
  6 27  1  0
  8 28  1  0
  8 29  1  0
  9 30  1  0
 10 31  1  0
 10 32  1  0
 11 33  1  0
 11 34  1  0
 13 35  1  0
 14 36  1  0
 15 37  1  0
 17 38  1  0
 18 39  1  0
M  END
>  <smiles>  (26) 
CN(C)c1ccc(CNCCc2cccnc2)cn1

>  <score_type>  (26) 
oracle

>  <origin>  (26) 
adg

>  <m_score__min__energy>  (26) 
-6.3899999999999997

>  <m_primary>  (26) 
energy

$$$$
26:0
     RDKit          3D

 25 26  0  0  0  0  0  0  0  0999 V2000
   58.2860   28.5450   43.8630 C   0  0  0  0  0  0  0  0  0  0  0  0
   57.0590   28.9390   43.5340 C   0  0  0  0  0  0  0  0  0  0  0  0
   56.7220   30.2760   43.0160 C   0  0  0  0  0  0  0  0  0  0  0  0
   57.3800   31.3590   43.7220 N   0  0  0  0  0  0  0  0  0  0  0  0
   57.8940   32.3650   42.9700 C   0  0  0  0  0  0  0  0  0  0  0  0
   57.7560   32.3210   41.3240 S   0  0  0  0  0  0  0  0  0  0  0  0
   58.5130   33.3910   43.5840 N   0  0  0  0  0  0  0  0  0  0  0  0
   58.6520   33.4770   44.9160 C   0  0  0  0  0  0  0  0  0  0  0  0
   59.2900   34.5380   45.5080 C   0  0  0  0  0  0  0  0  0  0  0  0
   59.4430   34.6450   46.8770 C   0  0  0  0  0  0  0  0  0  0  0  0
   58.9170   33.6160   47.6470 C   0  0  0  0  0  0  0  0  0  0  0  0
   58.2680   32.5300   47.0700 C   0  0  0  0  0  0  0  0  0  0  0  0
   58.1340   32.4610   45.6970 C   0  0  0  0  0  0  0  0  0  0  0  0
   57.4980   31.4060   45.0600 C   0  0  0  0  0  0  0  0  0  0  0  0
   57.0190   30.4720   45.7390 O   0  0  0  0  0  0  0  0  0  0  0  0
   58.4531   27.5266   44.2436 H   0  0  0  0  0  0  0  0  0  0  0  0
   59.1337   29.2376   43.7545 H   0  0  0  0  0  0  0  0  0  0  0  0
   56.2390   28.2162   43.6573 H   0  0  0  0  0  0  0  0  0  0  0  0
   57.0166   30.3224   41.9572 H   0  0  0  0  0  0  0  0  0  0  0  0
   55.6396   30.4115   43.1574 H   0  0  0  0  0  0  0  0  0  0  0  0
   58.8930   34.1430   42.9690 H   0  0  0  0  0  0  0  0  0  0  0  0
   59.6956   35.3348   44.8673 H   0  0  0  0  0  0  0  0  0  0  0  0
   59.9564   35.5034   47.3347 H   0  0  0  0  0  0  0  0  0  0  0  0
   59.0163   33.6612   48.7416 H   0  0  0  0  0  0  0  0  0  0  0  0
   57.8626   31.7284   47.7049 H   0  0  0  0  0  0  0  0  0  0  0  0
  1  2  2  0
  2  3  1  0
  3  4  1  0
  4  5  1  0
  5  6  2  0
  5  7  1  0
  7  8  1  0
  8  9  2  0
  9 10  1  0
 10 11  2  0
 11 12  1  0
 12 13  2  0
 13 14  1  0
 14 15  2  0
 14  4  1  0
 13  8  1  0
  1 16  1  0
  1 17  1  0
  2 18  1  0
  3 19  1  0
  3 20  1  0
  7 21  1  0
  9 22  1  0
 10 23  1  0
 11 24  1  0
 12 25  1  0
M  END
>  <smiles>  (27) 
C=CCn1c(=S)[nH]c2ccccc2c1=O

>  <score_type>  (27) 
oracle

>  <origin>  (27) 
adg

>  <m_score__min__energy>  (27) 
-6.0700000000000003

>  <m_primary>  (27) 
energy

$$$$
27:0
     RDKit          3D

 25 27  0  0  0  0  0  0  0  0999 V2000
   55.8880   29.7270   43.4090 Cl  0  0  0  0  0  0  0  0  0  0  0  0
   57.0720   30.5540   44.3910 C   0  0  0  0  0  0  0  0  0  0  0  0
   57.8890   29.8250   45.2290 C   0  0  0  0  0  0  0  0  0  0  0  0
   58.8480   30.4210   46.0360 C   0  0  0  0  0  0  0  0  0  0  0  0
   59.0260   31.8020   46.0290 C   0  0  0  0  0  0  0  0  0  0  0  0
   60.0430   32.3530   46.8940 C   0  0  0  0  0  0  0  0  0  0  0  0
   60.0030   33.2140   47.9540 C   0  0  0  0  0  0  0  0  0  0  0  0
   61.2500   33.4330   48.4470 N   0  0  0  0  0  0  0  0  0  0  0  0
   61.7000   34.1950   49.4730 C   0  0  0  0  0  0  0  0  0  0  0  0
   63.0600   34.2050   49.7250 C   0  0  0  0  0  0  0  0  0  0  0  0
   63.9230   33.4490   48.9420 C   0  0  0  0  0  0  0  0  0  0  0  0
   63.4480   32.6720   47.8930 C   0  0  0  0  0  0  0  0  0  0  0  0
   62.0780   32.7000   47.6850 C   0  0  0  0  0  0  0  0  0  0  0  0
   61.3600   32.0500   46.7510 N   0  0  0  0  0  0  0  0  0  0  0  0
   58.2100   32.5160   45.1940 C   0  0  0  0  0  0  0  0  0  0  0  0
   58.3340   34.2500   45.0950 Cl  0  0  0  0  0  0  0  0  0  0  0  0
   57.2420   31.9170   44.3820 C   0  0  0  0  0  0  0  0  0  0  0  0
   57.7766   28.7312   45.2590 H   0  0  0  0  0  0  0  0  0  0  0  0
   59.4746   29.7953   46.6886 H   0  0  0  0  0  0  0  0  0  0  0  0
   59.0849   33.6687   48.3544 H   0  0  0  0  0  0  0  0  0  0  0  0
   61.0053   34.7874   50.0866 H   0  0  0  0  0  0  0  0  0  0  0  0
   63.4598   34.8142   50.5490 H   0  0  0  0  0  0  0  0  0  0  0  0
   65.0018   33.4659   49.1564 H   0  0  0  0  0  0  0  0  0  0  0  0
   64.1200   32.0696   47.2641 H   0  0  0  0  0  0  0  0  0  0  0  0
   56.6122   32.5417   43.7315 H   0  0  0  0  0  0  0  0  0  0  0  0
  1  2  1  0
  2  3  2  0
  3  4  1  0
  4  5  2  0
  5  6  1  0
  6  7  2  0
  7  8  1  0
  8  9  1  0
  9 10  2  0
 10 11  1  0
 11 12  2  0
 12 13  1  0
 13 14  2  0
  5 15  1  0
 15 16  1  0
 15 17  2  0
 17  2  1  0
 14  6  1  0
 13  8  1  0
  3 18  1  0
  4 19  1  0
  7 20  1  0
  9 21  1  0
 10 22  1  0
 11 23  1  0
 12 24  1  0
 17 25  1  0
M  END
>  <smiles>  (28) 
Clc1ccc(-c2cn3ccccc3n2)c(Cl)c1

>  <score_type>  (28) 
oracle

>  <origin>  (28) 
adg

>  <m_score__min__energy>  (28) 
-6.5199999999999996

>  <m_primary>  (28) 
energy

$$$$
28:0
     RDKit          3D

 21 21  0  0  0  0  0  0  0  0999 V2000
   56.1750   22.1720   42.5870 N   0  0  0  0  0  0  0  0  0  0  0  0
   57.4100   21.5240   43.0120 C   0  0  0  0  0  0  0  0  0  0  0  0
   57.5710   21.8430   44.4830 C   0  0  0  0  0  0  0  0  0  0  0  0
   56.9380   23.1030   44.8670 C   0  0  0  0  0  0  0  0  0  0  0  0
   57.5200   24.3000   44.5110 C   0  0  0  0  0  0  0  0  0  0  0  0
   56.9200   25.4950   44.8740 C   0  0  0  0  0  0  0  0  0  0  0  0
   55.7310   25.4930   45.5970 C   0  0  0  0  0  0  0  0  0  0  0  0
   55.1480   26.7130   45.9510 O   0  0  0  0  0  0  0  0  0  0  0  0
   55.1280   24.2890   45.9660 C   0  0  0  0  0  0  0  0  0  0  0  0
   55.7620   23.1160   45.5820 C   0  0  0  0  0  0  0  0  0  0  0  0
   55.4980   21.4650   42.2280 H   0  0  0  0  0  0  0  0  0  0  0  0
   56.3670   22.8980   41.8620 H   0  0  0  0  0  0  0  0  0  0  0  0
   57.3404   20.4363   42.8633 H   0  0  0  0  0  0  0  0  0  0  0  0
   58.2711   21.8813   42.4282 H   0  0  0  0  0  0  0  0  0  0  0  0
   57.1179   21.0302   45.0695 H   0  0  0  0  0  0  0  0  0  0  0  0
   58.6483   21.9421   44.6821 H   0  0  0  0  0  0  0  0  0  0  0  0
   58.4598   24.3070   43.9393 H   0  0  0  0  0  0  0  0  0  0  0  0
   57.3858   26.4500   44.5893 H   0  0  0  0  0  0  0  0  0  0  0  0
   55.1420   27.4900   45.3060 H   0  0  0  0  0  0  0  0  0  0  0  0
   54.1885   24.2711   46.5379 H   0  0  0  0  0  0  0  0  0  0  0  0
   55.3051   22.1551   45.8610 H   0  0  0  0  0  0  0  0  0  0  0  0
  1  2  1  0
  2  3  1  0
  3  4  1  0
  4  5  2  0
  5  6  1  0
  6  7  2  0
  7  8  1  0
  7  9  1  0
  9 10  2  0
 10  4  1  0
  1 11  1  0
  1 12  1  0
  2 13  1  0
  2 14  1  0
  3 15  1  0
  3 16  1  0
  5 17  1  0
  6 18  1  0
  8 19  1  0
  9 20  1  0
 10 21  1  0
M  END
>  <smiles>  (29) 
NCCc1ccc(O)cc1

>  <score_type>  (29) 
oracle

>  <origin>  (29) 
adg

>  <m_score__min__energy>  (29) 
-5.8799999999999999

>  <m_primary>  (29) 
energy

$$$$
29:0
     RDKit          3D

 21 23  0  0  0  0  0  0  0  0999 V2000
   58.5190   32.7500   41.8530 O   0  0  0  0  0  0  0  0  0  0  0  0
   58.0940   32.3570   42.9690 C   0  0  0  0  0  0  0  0  0  0  0  0
   58.3660   33.0570   44.2200 C   0  0  0  0  0  0  0  0  0  0  0  0
   59.0810   34.2080   44.4890 C   0  0  0  0  0  0  0  0  0  0  0  0
   59.1990   34.6830   45.7830 C   0  0  0  0  0  0  0  0  0  0  0  0
   58.5720   33.9530   46.7750 C   0  0  0  0  0  0  0  0  0  0  0  0
   57.8560   32.8000   46.5150 C   0  0  0  0  0  0  0  0  0  0  0  0
   57.7400   32.3280   45.2110 C   0  0  0  0  0  0  0  0  0  0  0  0
   57.0630   31.1660   44.6470 C   0  0  0  0  0  0  0  0  0  0  0  0
   56.3450   30.1390   44.9470 N   0  0  0  0  0  0  0  0  0  0  0  0
   56.0010   29.3520   43.7950 C   0  0  0  0  0  0  0  0  0  0  0  0
   56.6380   30.0600   42.6380 C   0  0  0  0  0  0  0  0  0  0  0  0
   57.2960   31.2020   43.2450 N   0  0  0  0  0  0  0  0  0  0  0  0
   59.5625   34.7536   43.6641 H   0  0  0  0  0  0  0  0  0  0  0  0
   59.7649   35.5982   46.0115 H   0  0  0  0  0  0  0  0  0  0  0  0
   58.6460   34.3044   47.8147 H   0  0  0  0  0  0  0  0  0  0  0  0
   57.3766   32.2539   47.3408 H   0  0  0  0  0  0  0  0  0  0  0  0
   56.3998   28.3313   43.8908 H   0  0  0  0  0  0  0  0  0  0  0  0
   54.9124   29.2542   43.6712 H   0  0  0  0  0  0  0  0  0  0  0  0
   57.3687   29.4092   42.1355 H   0  0  0  0  0  0  0  0  0  0  0  0
   55.9098   30.3513   41.8668 H   0  0  0  0  0  0  0  0  0  0  0  0
  1  2  2  0
  2  3  1  0
  3  4  2  0
  4  5  1  0
  5  6  2  0
  6  7  1  0
  7  8  2  0
  8  9  1  0
  9 10  2  0
 10 11  1  0
 11 12  1  0
 12 13  1  0
 13  2  1  0
  8  3  1  0
 13  9  1  0
  4 14  1  0
  5 15  1  0
  6 16  1  0
  7 17  1  0
 11 18  1  0
 11 19  1  0
 12 20  1  0
 12 21  1  0
M  END
>  <smiles>  (30) 
O=C1c2ccccc2C2=NCCN12

>  <score_type>  (30) 
oracle

>  <origin>  (30) 
adg

>  <m_score__min__energy>  (30) 
-6.2199999999999998

>  <m_primary>  (30) 
energy

$$$$
30:0
     RDKit          3D

 37 38  0  0  1  0  0  0  0  0999 V2000
   58.5480   23.3230   44.9910 C   0  0  0  0  0  0  0  0  0  0  0  0
   57.1600   23.7640   44.6300 C   0  0  0  0  0  0  0  0  0  0  0  0
   56.6980   23.0740   43.3760 C   0  0  0  0  0  0  0  0  0  0  0  0
   56.9890   25.2450   44.6160 C   0  0  0  0  0  0  0  0  0  0  0  0
   56.6470   25.8270   45.9540 C   0  0  2  0  0  0  0  0  0  0  0  0
   55.5700   26.7100   45.8900 O   0  0  0  0  0  0  0  0  0  0  0  0
   57.8050   26.5690   46.5110 C   0  0  0  0  0  0  0  0  0  0  0  0
   58.5490   26.0060   47.5340 C   0  0  0  0  0  0  0  0  0  0  0  0
   59.6320   26.6570   48.0880 C   0  0  0  0  0  0  0  0  0  0  0  0
   59.9600   27.9070   47.5840 C   0  0  0  0  0  0  0  0  0  0  0  0
   59.2150   28.4770   46.5550 C   0  0  0  0  0  0  0  0  0  0  0  0
   59.6630   30.0720   45.9410 Cl  0  0  0  0  0  0  0  0  0  0  0  0
   58.1330   27.8130   46.0130 C   0  0  0  0  0  0  0  0  0  0  0  0
   57.4000   28.4660   44.9380 C   0  0  0  0  0  0  0  0  0  0  0  0
   57.7160   28.3270   43.6030 C   0  0  0  0  0  0  0  0  0  0  0  0
   56.9830   28.9670   42.6340 C   0  0  0  0  0  0  0  0  0  0  0  0
   55.9130   29.7570   43.0530 C   0  0  0  0  0  0  0  0  0  0  0  0
   55.6040   29.8900   44.3870 C   0  0  0  0  0  0  0  0  0  0  0  0
   56.3500   29.2420   45.3210 N   0  0  0  0  0  0  0  0  0  0  0  0
   58.6494   23.2908   46.0858 H   0  0  0  0  0  0  0  0  0  0  0  0
   58.7341   22.3215   44.5759 H   0  0  0  0  0  0  0  0  0  0  0  0
   59.2781   24.0334   44.5759 H   0  0  0  0  0  0  0  0  0  0  0  0
   56.4859   23.4416   45.4372 H   0  0  0  0  0  0  0  0  0  0  0  0
   56.1043   22.1873   43.6429 H   0  0  0  0  0  0  0  0  0  0  0  0
   56.0796   23.7647   42.7840 H   0  0  0  0  0  0  0  0  0  0  0  0
   57.5722   22.7653   42.7840 H   0  0  0  0  0  0  0  0  0  0  0  0
   57.9292   25.6994   44.2702 H   0  0  0  0  0  0  0  0  0  0  0  0
   56.1443   25.4637   43.9461 H   0  0  0  0  0  0  0  0  0  0  0  0
   56.3774   24.9763   46.5972 H   0  0  0  0  0  0  0  0  0  0  0  0
   55.6340   27.2080   45.0250 H   0  0  0  0  0  0  0  0  0  0  0  0
   58.2691   25.0129   47.9153 H   0  0  0  0  0  0  0  0  0  0  0  0
   60.2152   26.2005   48.9013 H   0  0  0  0  0  0  0  0  0  0  0  0
   60.8181   28.4540   48.0018 H   0  0  0  0  0  0  0  0  0  0  0  0
   58.5671   27.6946   43.3101 H   0  0  0  0  0  0  0  0  0  0  0  0
   57.2306   28.8605   41.5675 H   0  0  0  0  0  0  0  0  0  0  0  0
   55.3047   30.2836   42.3029 H   0  0  0  0  0  0  0  0  0  0  0  0
   54.7562   30.5185   44.6970 H   0  0  0  0  0  0  0  0  0  0  0  0
  1  2  1  0
  2  3  1  0
  2  4  1  0
  4  5  1  0
  5  6  1  0
  5  7  1  0
  7  8  2  0
  8  9  1  0
  9 10  2  0
 10 11  1  0
 11 12  1  0
 11 13  2  0
 13 14  1  0
 14 15  2  0
 15 16  1  0
 16 17  2  0
 17 18  1  0
 18 19  2  0
 13  7  1  0
 19 14  1  0
  1 20  1  0
  1 21  1  0
  1 22  1  0
  2 23  1  0
  3 24  1  0
  3 25  1  0
  3 26  1  0
  4 27  1  0
  4 28  1  0
  5 29  1  1
  6 30  1  0
  8 31  1  0
  9 32  1  0
 10 33  1  0
 15 34  1  0
 16 35  1  0
 17 36  1  0
 18 37  1  0
M  END
>  <smiles>  (31) 
CC(C)CC(O)c1cccc(Cl)c1-c1ccccn1

>  <score_type>  (31) 
oracle

>  <origin>  (31) 
adg

>  <m_score__min__energy>  (31) 
-7.6100000000000003

>  <m_primary>  (31) 
energy

$$$$
31:0
     RDKit          3D

 33 34  0  0  1  0  0  0  0  0999 V2000
   56.3870   29.4220   42.6180 C   0  0  0  0  0  0  0  0  0  0  0  0
   57.0130   30.7300   42.9790 C   0  0  0  0  0  0  0  0  0  0  0  0
   57.3960   31.7260   42.1020 C   0  0  0  0  0  0  0  0  0  0  0  0
   57.9140   32.7330   42.8360 N   0  0  0  0  0  0  0  0  0  0  0  0
   57.8690   32.4040   44.1280 N   0  0  0  0  0  0  0  0  0  0  0  0
   58.3310   33.2300   45.1920 C   0  0  0  0  0  0  0  0  0  0  0  0
   59.1540   34.3170   44.8740 C   0  0  0  0  0  0  0  0  0  0  0  0
   59.6450   35.1660   45.8420 C   0  0  0  0  0  0  0  0  0  0  0  0
   59.3010   34.9140   47.1410 C   0  0  0  0  0  0  0  0  0  0  0  0
   58.4880   33.8460   47.4970 C   0  0  0  0  0  0  0  0  0  0  0  0
   58.0080   33.0110   46.5150 C   0  0  0  0  0  0  0  0  0  0  0  0
   57.3210   31.1800   44.2580 C   0  0  0  0  0  0  0  0  0  0  0  0
   57.0760   30.4320   45.4440 N   0  0  0  0  0  0  0  0  0  0  0  0
   58.0820   29.7970   45.9470 C   0  0  0  0  0  0  0  0  0  0  0  0
   58.7990   28.7870   45.2470 N   0  0  0  0  0  0  0  0  0  0  0  0
   58.1640   27.6060   44.6910 C   0  0  0  0  0  0  0  0  0  0  0  0
   60.2350   28.9950   45.1070 C   0  0  0  0  0  0  0  0  0  0  0  0
   56.1252   28.8751   43.5358 H   0  0  0  0  0  0  0  0  0  0  0  0
   55.4773   29.6018   42.0262 H   0  0  0  0  0  0  0  0  0  0  0  0
   57.0976   28.8263   42.0262 H   0  0  0  0  0  0  0  0  0  0  0  0
   57.2970   31.7027   41.0067 H   0  0  0  0  0  0  0  0  0  0  0  0
   59.4162   34.4986   43.8213 H   0  0  0  0  0  0  0  0  0  0  0  0
   60.2910   36.0166   45.5788 H   0  0  0  0  0  0  0  0  0  0  0  0
   59.6808   35.5793   47.9303 H   0  0  0  0  0  0  0  0  0  0  0  0
   58.2309   33.6698   48.5519 H   0  0  0  0  0  0  0  0  0  0  0  0
   57.3622   32.1629   46.7865 H   0  0  0  0  0  0  0  0  0  0  0  0
   58.4007   30.0501   46.9689 H   0  0  0  0  0  0  0  0  0  0  0  0
   57.8155   26.9578   45.5086 H   0  0  0  0  0  0  0  0  0  0  0  0
   57.3066   27.9079   44.0716 H   0  0  0  0  0  0  0  0  0  0  0  0
   58.8887   27.0573   44.0716 H   0  0  0  0  0  0  0  0  0  0  0  0
   60.6948   29.0616   46.1041 H   0  0  0  0  0  0  0  0  0  0  0  0
   60.6757   28.1513   44.5556 H   0  0  0  0  0  0  0  0  0  0  0  0
   60.4182   29.9290   44.5556 H   0  0  0  0  0  0  0  0  0  0  0  0
  1  2  1  0
  2  3  1  0
  3  4  2  0
  4  5  1  0
  5  6  1  0
  6  7  2  0
  7  8  1  0
  8  9  2  0
  9 10  1  0
 10 11  2  0
  5 12  1  0
 12 13  1  0
 13 14  2  0
 14 15  1  0
 15 16  1  0
 15 17  1  0
 12  2  2  0
 11  6  1  0
  1 18  1  0
  1 19  1  0
  1 20  1  0
  3 21  1  0
  7 22  1  0
  8 23  1  0
  9 24  1  0
 10 25  1  0
 11 26  1  0
 14 27  1  0
 16 28  1  0
 16 29  1  0
 16 30  1  0
 17 31  1  0
 17 32  1  0
 17 33  1  0
M  END
>  <smiles>  (32) 
Cc1cnn(-c2ccccc2)c1N=CN(C)C

>  <score_type>  (32) 
oracle

>  <origin>  (32) 
adg

>  <m_score__min__energy>  (32) 
-6.6500000000000004

>  <m_primary>  (32) 
energy

$$$$
32:0
     RDKit          3D

 41 43  0  0  0  0  0  0  0  0999 V2000
   58.4900   32.5570   51.2150 C   0  0  0  0  0  0  0  0  0  0  0  0
   58.9460   33.4500   50.2570 O   0  0  0  0  0  0  0  0  0  0  0  0
   59.4060   33.1810   48.9930 C   0  0  0  0  0  0  0  0  0  0  0  0
   58.6140   32.7350   47.9540 C   0  0  0  0  0  0  0  0  0  0  0  0
   59.1710   32.4930   46.7180 C   0  0  0  0  0  0  0  0  0  0  0  0
   58.3950   32.0180   45.5770 C   0  0  0  0  0  0  0  0  0  0  0  0
   58.3330   32.7680   44.4110 C   0  0  0  0  0  0  0  0  0  0  0  0
   57.6350   32.3960   43.3010 C   0  0  0  0  0  0  0  0  0  0  0  0
   56.9400   31.1990   43.3180 C   0  0  0  0  0  0  0  0  0  0  0  0
   56.9990   30.4540   44.4720 C   0  0  0  0  0  0  0  0  0  0  0  0
   56.3050   29.2740   44.4690 F   0  0  0  0  0  0  0  0  0  0  0  0
   57.7000   30.8260   45.5880 C   0  0  0  0  0  0  0  0  0  0  0  0
   60.5320   32.6900   46.4870 C   0  0  0  0  0  0  0  0  0  0  0  0
   61.3400   33.1430   47.5370 C   0  0  0  0  0  0  0  0  0  0  0  0
   60.7730   33.3800   48.7660 C   0  0  0  0  0  0  0  0  0  0  0  0
   61.4590   33.8560   49.9920 C   0  0  0  0  0  0  0  0  0  0  0  0
   62.7650   33.1350   50.2470 C   0  0  0  0  0  0  0  0  0  0  0  0
   63.7920   33.5170   49.3040 N   0  0  0  0  0  0  0  0  0  0  0  0
   65.0750   33.2490   49.9300 C   0  0  0  0  0  0  0  0  0  0  0  0
   63.7350   32.7530   48.0860 C   0  0  0  0  0  0  0  0  0  0  0  0
   62.7490   33.2860   47.0850 C   0  0  0  0  0  0  0  0  0  0  0  0
   58.6953   32.9590   52.2181 H   0  0  0  0  0  0  0  0  0  0  0  0
   57.4066   32.4103   51.0934 H   0  0  0  0  0  0  0  0  0  0  0  0
   59.0064   31.5934   51.0934 H   0  0  0  0  0  0  0  0  0  0  0  0
   57.5378   32.5729   48.1134 H   0  0  0  0  0  0  0  0  0  0  0  0
   58.8809   33.7214   44.3808 H   0  0  0  0  0  0  0  0  0  0  0  0
   57.6241   33.0363   42.4066 H   0  0  0  0  0  0  0  0  0  0  0  0
   56.3645   30.8581   42.4447 H   0  0  0  0  0  0  0  0  0  0  0  0
   57.7089   30.1835   46.4808 H   0  0  0  0  0  0  0  0  0  0  0  0
   60.9643   32.4925   45.4950 H   0  0  0  0  0  0  0  0  0  0  0  0
   61.6655   34.9311   49.8850 H   0  0  0  0  0  0  0  0  0  0  0  0
   60.7948   33.6526   50.8449 H   0  0  0  0  0  0  0  0  0  0  0  0
   63.1100   33.3755   51.2634 H   0  0  0  0  0  0  0  0  0  0  0  0
   62.5838   32.0562   50.1309 H   0  0  0  0  0  0  0  0  0  0  0  0
   64.9613   33.2727   51.0239 H   0  0  0  0  0  0  0  0  0  0  0  0
   65.4340   32.2565   49.6201 H   0  0  0  0  0  0  0  0  0  0  0  0
   65.8013   34.0148   49.6201 H   0  0  0  0  0  0  0  0  0  0  0  0
   64.7341   32.7577   47.6259 H   0  0  0  0  0  0  0  0  0  0  0  0
   63.4028   31.7399   48.3569 H   0  0  0  0  0  0  0  0  0  0  0  0
   62.9586   34.3528   46.9179 H   0  0  0  0  0  0  0  0  0  0  0  0
   62.8631   32.7000   46.1611 H   0  0  0  0  0  0  0  0  0  0  0  0
  1  2  1  0
  2  3  1  0
  3  4  2  0
  4  5  1  0
  5  6  1  0
  6  7  2  0
  7  8  1  0
  8  9  2  0
  9 10  1  0
 10 11  1  0
 10 12  2  0
  5 13  2  0
 13 14  1  0
 14 15  2  0
 15 16  1  0
 16 17  1  0
 17 18  1  0
 18 19  1  0
 18 20  1  0
 20 21  1  0
 15  3  1  0
 12  6  1  0
 21 14  1  0
  1 22  1  0
  1 23  1  0
  1 24  1  0
  4 25  1  0
  7 26  1  0
  8 27  1  0
  9 28  1  0
 12 29  1  0
 13 30  1  0
 16 31  1  0
 16 32  1  0
 17 33  1  0
 17 34  1  0
 19 35  1  0
 19 36  1  0
 19 37  1  0
 20 38  1  0
 20 39  1  0
 21 40  1  0
 21 41  1  0
M  END
>  <smiles>  (33) 
COc1cc(-c2cccc(F)c2)cc2c1CCN(C)CC2

>  <score_type>  (33) 
oracle

>  <origin>  (33) 
adg

>  <m_score__min__energy>  (33) 
-5.0999999999999996

>  <m_primary>  (33) 
energy

$$$$
34:0
     RDKit          3D

 15 15  0  0  0  0  0  0  0  0999 V2000
   56.0810   30.3850   43.2120 O   0  0  0  0  0  0  0  0  0  0  0  0
   56.3310   29.7020   44.2530 C   0  0  0  0  0  0  0  0  0  0  0  0
   55.2360   29.0990   44.8570 O   0  0  0  0  0  0  0  0  0  0  0  0
   57.6860   29.5590   44.7840 C   0  0  0  0  0  0  0  0  0  0  0  0
   58.2330   28.2880   44.7960 C   0  0  0  0  0  0  0  0  0  0  0  0
   59.5250   28.0980   45.2930 C   0  0  0  0  0  0  0  0  0  0  0  0
   60.2540   29.1800   45.7730 C   0  0  0  0  0  0  0  0  0  0  0  0
   59.6900   30.4490   45.7550 C   0  0  0  0  0  0  0  0  0  0  0  0
   58.4080   30.6500   45.2640 C   0  0  0  0  0  0  0  0  0  0  0  0
   57.6210   32.3810   45.2310 Br  0  0  0  0  0  0  0  0  0  0  0  0
   55.1410   28.0720   44.8920 H   0  0  0  0  0  0  0  0  0  0  0  0
   57.6545   27.4328   44.4167 H   0  0  0  0  0  0  0  0  0  0  0  0
   59.9661   27.0904   45.3045 H   0  0  0  0  0  0  0  0  0  0  0  0
   61.2712   29.0320   46.1646 H   0  0  0  0  0  0  0  0  0  0  0  0
   60.2668   31.3053   46.1347 H   0  0  0  0  0  0  0  0  0  0  0  0
  1  2  2  0
  2  3  1  0
  2  4  1  0
  4  5  2  0
  5  6  1  0
  6  7  2  0
  7  8  1  0
  8  9  2  0
  9 10  1  0
  9  4  1  0
  3 11  1  0
  5 12  1  0
  6 13  1  0
  7 14  1  0
  8 15  1  0
M  END
>  <smiles>  (34) 
O=C(O)c1ccccc1Br

>  <score_type>  (34) 
oracle

>  <origin>  (34) 
adg

>  <m_score__min__energy>  (34) 
-5.7999999999999998

>  <m_primary>  (34) 
energy

$$$$
35:0
     RDKit          3D

 44 46  0  0  1  0  0  0  0  0999 V2000
   57.6560   34.1520   45.9030 C   0  0  0  0  0  0  0  0  0  0  0  0
   59.3980   34.3660   45.9140 S   0  0  0  0  0  0  0  0  0  0  0  0
   59.9610   34.2160   44.5320 O   0  0  0  0  0  0  0  0  0  0  0  0
   59.6970   35.7930   46.3490 O   0  0  0  0  0  0  0  0  0  0  0  0
   60.2330   33.3130   46.9580 N   0  0  0  0  0  0  0  0  0  0  0  0
   59.7130   33.3610   48.3480 C   0  0  0  0  0  0  0  0  0  0  0  0
   60.7160   33.4000   49.4310 C   0  0  0  0  0  0  0  0  0  0  0  0
   62.1070   32.8340   49.2290 C   0  0  2  0  0  0  0  0  0  0  0  0
   63.1540   33.9190   48.9440 C   0  0  0  0  0  0  0  0  0  0  0  0
   63.7810   33.8760   47.5550 C   0  0  0  0  0  0  0  0  0  0  0  0
   62.7420   33.8490   46.4050 C   0  0  0  0  0  0  0  0  0  0  0  0
   61.5530   33.5030   47.1250 C   0  0  2  0  0  0  0  0  0  0  0  0
   61.9650   32.2550   47.8650 C   0  0  2  0  0  0  0  0  0  0  0  0
   61.0490   31.1100   47.8110 C   0  0  0  0  0  0  0  0  0  0  0  0
   60.8080   30.3310   48.7710 O   0  0  0  0  0  0  0  0  0  0  0  0
   60.3730   30.8460   46.5870 N   0  0  0  0  0  0  0  0  0  0  0  0
   59.4610   29.7420   46.4580 C   0  0  0  0  0  0  0  0  0  0  0  0
   59.7560   28.5020   46.9900 C   0  0  0  0  0  0  0  0  0  0  0  0
   58.8720   27.4500   46.8590 C   0  0  0  0  0  0  0  0  0  0  0  0
   57.6840   27.6580   46.1850 C   0  0  0  0  0  0  0  0  0  0  0  0
   56.4570   26.2360   45.9900 Br  0  0  0  0  0  0  0  0  0  0  0  0
   57.3950   28.8910   45.6580 C   0  0  0  0  0  0  0  0  0  0  0  0
   55.8970   29.2120   44.7900 Cl  0  0  0  0  0  0  0  0  0  0  0  0
   58.2670   29.9750   45.7740 C   0  0  0  0  0  0  0  0  0  0  0  0
   57.2856   34.1065   46.9378 H   0  0  0  0  0  0  0  0  0  0  0  0
   57.1858   34.9991   45.3822 H   0  0  0  0  0  0  0  0  0  0  0  0
   57.4048   33.2162   45.3822 H   0  0  0  0  0  0  0  0  0  0  0  0
   59.0889   34.2622   48.4393 H   0  0  0  0  0  0  0  0  0  0  0  0
   59.1740   32.4123   48.4876 H   0  0  0  0  0  0  0  0  0  0  0  0
   60.8455   34.4590   49.6990 H   0  0  0  0  0  0  0  0  0  0  0  0
   60.2862   32.7213   50.1824 H   0  0  0  0  0  0  0  0  0  0  0  0
   62.4018   32.2182   50.0915 H   0  0  0  0  0  0  0  0  0  0  0  0
   62.6692   34.8987   49.0670 H   0  0  0  0  0  0  0  0  0  0  0  0
   63.9760   33.7396   49.6526 H   0  0  0  0  0  0  0  0  0  0  0  0
   64.4134   34.7675   47.4313 H   0  0  0  0  0  0  0  0  0  0  0  0
   64.3576   32.9414   47.4904 H   0  0  0  0  0  0  0  0  0  0  0  0
   62.6497   34.8318   45.9197 H   0  0  0  0  0  0  0  0  0  0  0  0
   62.9916   33.1632   45.5819 H   0  0  0  0  0  0  0  0  0  0  0  0
   61.3753   34.5700   47.3249 H   0  0  0  0  0  0  0  0  0  0  0  0
   62.8541   31.7716   47.4339 H   0  0  0  0  0  0  0  0  0  0  0  0
   60.5340   31.4600   45.7560 H   0  0  0  0  0  0  0  0  0  0  0  0
   60.7058   28.3511   47.5239 H   0  0  0  0  0  0  0  0  0  0  0  0
   59.1092   26.4634   47.2837 H   0  0  0  0  0  0  0  0  0  0  0  0
   58.0258   30.9604   45.3489 H   0  0  0  0  0  0  0  0  0  0  0  0
  1  2  1  0
  2  3  2  0
  2  4  2  0
  2  5  1  0
  5  6  1  0
  6  7  1  0
  7  8  1  0
  8  9  1  0
  9 10  1  0
 10 11  1  0
 11 12  1  0
 12 13  1  0
 13 14  1  0
 14 15  2  0
 14 16  1  0
 16 17  1  0
 17 18  2  0
 18 19  1  0
 19 20  2  0
 20 21  1  0
 20 22  1  0
 22 23  1  0
 22 24  2  0
 12  5  1  0
 24 17  1  0
 13  8  1  0
  1 25  1  0
  1 26  1  0
  1 27  1  0
  6 28  1  0
  6 29  1  0
  7 30  1  0
  7 31  1  0
  8 32  1  1
  9 33  1  0
  9 34  1  0
 10 35  1  0
 10 36  1  0
 11 37  1  0
 11 38  1  0
 12 39  1  1
 13 40  1  6
 16 41  1  0
 18 42  1  0
 19 43  1  0
 24 44  1  0
M  END
>  <smiles>  (35) 
CS(=O)(=O)N1CCC2CCCC1C2C(=O)Nc1ccc(Br)c(Cl)c1

>  <score_type>  (35) 
oracle

>  <origin>  (35) 
adg

>  <m_score__min__energy>  (35) 
-9.1600000000000001

>  <m_primary>  (35) 
energy

$$$$
36:0
     RDKit          3D

 35 37  0  0  1  0  0  0  0  0999 V2000
   61.6640   33.8490   49.9950 C   0  0  0  0  0  0  0  0  0  0  0  0
   60.2950   33.8490   49.7320 O   0  0  0  0  0  0  0  0  0  0  0  0
   59.6810   33.8100   48.5070 C   0  0  0  0  0  0  0  0  0  0  0  0
   60.1990   34.5730   47.4820 C   0  0  0  0  0  0  0  0  0  0  0  0
   59.6630   34.6090   46.2200 C   0  0  0  0  0  0  0  0  0  0  0  0
   58.5480   33.8620   45.9030 C   0  0  0  0  0  0  0  0  0  0  0  0
   58.1280   33.8560   44.5280 C   0  0  0  0  0  0  0  0  0  0  0  0
   57.7900   32.8440   43.7930 C   0  0  0  0  0  0  0  0  0  0  0  0
   57.4880   31.4990   44.1700 C   0  0  0  0  0  0  0  0  0  0  0  0
   56.2980   30.8310   44.1120 C   0  0  0  0  0  0  0  0  0  0  0  0
   56.0880   29.5890   44.5880 N   0  0  0  0  0  0  0  0  0  0  0  0
   54.8640   28.9870   44.4950 O   0  0  0  0  0  0  0  0  0  0  0  0
   57.0970   28.9140   45.1690 C   0  0  0  0  0  0  0  0  0  0  0  0
   56.8960   27.6580   45.6530 C   0  0  0  0  0  0  0  0  0  0  0  0
   57.9880   27.0170   46.2450 C   0  0  0  0  0  0  0  0  0  0  0  0
   59.2150   27.6470   46.3260 C   0  0  0  0  0  0  0  0  0  0  0  0
   60.6620   26.7120   47.1470 Br  0  0  0  0  0  0  0  0  0  0  0  0
   59.3720   28.9200   45.8220 C   0  0  0  0  0  0  0  0  0  0  0  0
   58.3090   29.5670   45.2370 C   0  0  0  0  0  0  0  0  0  0  0  0
   58.5110   30.8030   44.7630 N   0  0  0  0  0  0  0  0  0  0  0  0
   58.0250   33.0940   46.9190 C   0  0  0  0  0  0  0  0  0  0  0  0
   58.5690   33.0570   48.2050 C   0  0  0  0  0  0  0  0  0  0  0  0
   62.0241   32.8119   50.0642 H   0  0  0  0  0  0  0  0  0  0  0  0
   62.1935   34.3675   49.1822 H   0  0  0  0  0  0  0  0  0  0  0  0
   61.8546   34.3675   50.9462 H   0  0  0  0  0  0  0  0  0  0  0  0
   61.0894   35.1854   47.6873 H   0  0  0  0  0  0  0  0  0  0  0  0
   60.1287   35.2422   45.4505 H   0  0  0  0  0  0  0  0  0  0  0  0
   58.0885   34.8389   44.0358 H   0  0  0  0  0  0  0  0  0  0  0  0
   57.7257   33.0517   42.7147 H   0  0  0  0  0  0  0  0  0  0  0  0
   55.4477   31.3461   43.6413 H   0  0  0  0  0  0  0  0  0  0  0  0
   55.9142   27.1673   45.5812 H   0  0  0  0  0  0  0  0  0  0  0  0
   57.8694   26.0013   46.6503 H   0  0  0  0  0  0  0  0  0  0  0  0
   60.3498   29.4196   45.8878 H   0  0  0  0  0  0  0  0  0  0  0  0
   57.1367   32.4805   46.7080 H   0  0  0  0  0  0  0  0  0  0  0  0
   58.1078   32.4248   48.9780 H   0  0  0  0  0  0  0  0  0  0  0  0
  1  2  1  0
  2  3  1  0
  3  4  2  0
  4  5  1  0
  5  6  2  0
  6  7  1  0
  7  8  2  0
  8  9  1  0
  9 10  2  0
 10 11  1  0
 11 12  1  0
 11 13  2  0
 13 14  1  0
 14 15  2  0
 15 16  1  0
 16 17  1  0
 16 18  2  0
 18 19  1  0
 19 20  2  0
  6 21  1  0
 21 22  2  0
 22  3  1  0
 20  9  1  0
 19 13  1  0
  1 23  1  0
  1 24  1  0
  1 25  1  0
  4 26  1  0
  5 27  1  0
  7 28  1  0
  8 29  1  0
 10 30  1  0
 14 31  1  0
 15 32  1  0
 18 33  1  0
 21 34  1  0
 22 35  1  0
M  CHG  2  11   1  12  -1
M  END
>  <smiles>  (36) 
COc1ccc(C=Cc2c[n+]([O-])c3ccc(Br)cc3n2)cc1

>  <score_type>  (36) 
oracle

>  <origin>  (36) 
adg

>  <m_score__min__energy>  (36) 
-8.5800000000000001

>  <m_primary>  (36) 
energy

$$$$
37:0
     RDKit          3D

 57 62  0  0  0  0  0  0  0  0999 V2000
   51.5360   20.8220   46.1350 C   0  0  0  0  0  0  0  0  0  0  0  0
   52.5020   21.9750   46.0750 C   0  0  0  0  0  0  0  0  0  0  0  0
   52.1240   23.1770   45.5120 C   0  0  0  0  0  0  0  0  0  0  0  0
   53.0370   24.2350   45.4670 C   0  0  0  0  0  0  0  0  0  0  0  0
   54.2980   24.0310   45.9950 C   0  0  0  0  0  0  0  0  0  0  0  0
   55.3590   24.8700   46.0810 N   0  0  0  0  0  0  0  0  0  0  0  0
   56.3770   24.2190   46.6790 C   0  0  0  0  0  0  0  0  0  0  0  0
   57.7430   24.6900   47.0060 C   0  0  0  0  0  0  0  0  0  0  0  0
   58.0910   25.9310   46.3370 N   0  0  0  0  0  0  0  0  0  0  0  0
   57.7510   26.3790   45.1320 C   0  0  0  0  0  0  0  0  0  0  0  0
   57.0230   25.7670   44.3120 O   0  0  0  0  0  0  0  0  0  0  0  0
   58.3300   27.5940   44.9700 N   0  0  0  0  0  0  0  0  0  0  0  0
   58.2250   28.4570   43.7850 C   0  0  0  0  0  0  0  0  0  0  0  0
   57.5770   29.7280   44.1160 C   0  0  0  0  0  0  0  0  0  0  0  0
   58.1510   30.9780   43.8640 C   0  0  0  0  0  0  0  0  0  0  0  0
   57.3090   31.9460   44.2820 N   0  0  0  0  0  0  0  0  0  0  0  0
   57.6090   33.3550   44.1640 C   0  0  0  0  0  0  0  0  0  0  0  0
   58.3460   33.7800   45.4080 C   0  0  0  0  0  0  0  0  0  0  0  0
   58.1530   33.0880   46.5850 C   0  0  0  0  0  0  0  0  0  0  0  0
   58.8060   33.4350   47.7610 C   0  0  0  0  0  0  0  0  0  0  0  0
   59.6790   34.5240   47.7220 C   0  0  0  0  0  0  0  0  0  0  0  0
   59.8730   35.2140   46.5510 C   0  0  0  0  0  0  0  0  0  0  0  0
   59.2170   34.8650   45.3690 C   0  0  0  0  0  0  0  0  0  0  0  0
   56.2510   31.3340   44.7770 N   0  0  0  0  0  0  0  0  0  0  0  0
   56.3890   30.0010   44.6880 N   0  0  0  0  0  0  0  0  0  0  0  0
   59.0370   27.9220   46.0650 C   0  0  0  0  0  0  0  0  0  0  0  0
   59.8070   29.0060   46.4430 C   0  0  0  0  0  0  0  0  0  0  0  0
   60.4300   29.0460   47.6860 C   0  0  0  0  0  0  0  0  0  0  0  0
   60.2810   27.9920   48.5600 C   0  0  0  0  0  0  0  0  0  0  0  0
   59.5130   26.9080   48.1840 C   0  0  0  0  0  0  0  0  0  0  0  0
   58.8860   26.8630   46.9370 C   0  0  0  0  0  0  0  0  0  0  0  0
   55.9190   22.9320   46.9700 C   0  0  0  0  0  0  0  0  0  0  0  0
   54.6390   22.8480   46.5380 N   0  0  0  0  0  0  0  0  0  0  0  0
   53.7750   21.8150   46.5910 C   0  0  0  0  0  0  0  0  0  0  0  0
   51.3273   20.5728   47.1859 H   0  0  0  0  0  0  0  0  0  0  0  0
   50.5990   21.1021   45.6315 H   0  0  0  0  0  0  0  0  0  0  0  0
   51.9759   19.9485   45.6315 H   0  0  0  0  0  0  0  0  0  0  0  0
   51.1112   23.3019   45.1014 H   0  0  0  0  0  0  0  0  0  0  0  0
   52.7595   25.2027   45.0238 H   0  0  0  0  0  0  0  0  0  0  0  0
   57.8087   24.8473   48.0927 H   0  0  0  0  0  0  0  0  0  0  0  0
   58.4481   23.9204   46.6589 H   0  0  0  0  0  0  0  0  0  0  0  0
   59.2341   28.6584   43.3963 H   0  0  0  0  0  0  0  0  0  0  0  0
   57.6162   27.9403   43.0285 H   0  0  0  0  0  0  0  0  0  0  0  0
   59.1335   31.1456   43.3986 H   0  0  0  0  0  0  0  0  0  0  0  0
   58.2386   33.5298   43.2791 H   0  0  0  0  0  0  0  0  0  0  0  0
   56.6812   33.9352   44.0525 H   0  0  0  0  0  0  0  0  0  0  0  0
   57.4598   32.2339   46.5930 H   0  0  0  0  0  0  0  0  0  0  0  0
   58.6410   32.8712   48.6910 H   0  0  0  0  0  0  0  0  0  0  0  0
   60.2136   34.8304   48.6333 H   0  0  0  0  0  0  0  0  0  0  0  0
   60.5664   36.0679   46.5438 H   0  0  0  0  0  0  0  0  0  0  0  0
   59.3828   35.4282   44.4388 H   0  0  0  0  0  0  0  0  0  0  0  0
   59.9291   29.8509   45.7493 H   0  0  0  0  0  0  0  0  0  0  0  0
   61.0396   29.9165   47.9700 H   0  0  0  0  0  0  0  0  0  0  0  0
   60.7681   28.0136   49.5460 H   0  0  0  0  0  0  0  0  0  0  0  0
   59.3928   26.0643   48.8795 H   0  0  0  0  0  0  0  0  0  0  0  0
   56.4936   22.1326   47.4607 H   0  0  0  0  0  0  0  0  0  0  0  0
   54.0784   20.8572   47.0388 H   0  0  0  0  0  0  0  0  0  0  0  0
  1  2  1  0
  2  3  1  0
  3  4  2  0
  4  5  1  0
  5  6  2  0
  6  7  1  0
  7  8  1  0
  8  9  1  0
  9 10  1  0
 10 11  2  0
 10 12  1  0
 12 13  1  0
 13 14  1  0
 14 15  2  0
 15 16  1  0
 16 17  1  0
 17 18  1  0
 18 19  2  0
 19 20  1  0
 20 21  2  0
 21 22  1  0
 22 23  2  0
 16 24  1  0
 24 25  2  0
 12 26  1  0
 26 27  2  0
 27 28  1  0
 28 29  2  0
 29 30  1  0
 30 31  2  0
  7 32  2  0
 32 33  1  0
 33 34  1  0
 34  2  2  0
 33  5  1  0
 31  9  1  0
 25 14  1  0
 31 26  1  0
 23 18  1  0
  1 35  1  0
  1 36  1  0
  1 37  1  0
  3 38  1  0
  4 39  1  0
  8 40  1  0
  8 41  1  0
 13 42  1  0
 13 43  1  0
 15 44  1  0
 17 45  1  0
 17 46  1  0
 19 47  1  0
 20 48  1  0
 21 49  1  0
 22 50  1  0
 23 51  1  0
 27 52  1  0
 28 53  1  0
 29 54  1  0
 30 55  1  0
 32 56  1  0
 34 57  1  0
M  END
>  <smiles>  (37) 
Cc1ccc2nc(Cn3c(=O)n(Cc4cn(Cc5ccccc5)nn4)c4ccccc43)cn2c1

>  <score_type>  (37) 
oracle

>  <origin>  (37) 
adg

>  <m_score__min__energy>  (37) 
-9.5800000000000001

>  <m_primary>  (37) 
energy

$$$$
38:0
     RDKit          3D

 43 47  0  0  1  0  0  0  0  0999 V2000
   58.4960   27.4190   43.1300 C   0  0  0  0  0  0  0  0  0  0  0  0
   58.2890   28.5870   43.8260 O   0  0  0  0  0  0  0  0  0  0  0  0
   57.3130   28.4370   44.8520 C   0  0  2  0  0  0  0  0  0  0  0  0
   56.7570   29.7990   45.1170 C   0  0  0  0  0  0  0  0  0  0  0  0
   55.5140   29.9630   45.1320 O   0  0  0  0  0  0  0  0  0  0  0  0
   57.5420   31.0310   45.3710 C   0  0  0  0  0  0  0  0  0  0  0  0
   56.9200   32.1370   44.8450 C   0  0  0  0  0  0  0  0  0  0  0  0
   57.5410   33.3540   44.8810 C   0  0  0  0  0  0  0  0  0  0  0  0
   58.8090   33.4480   45.4610 C   0  0  0  0  0  0  0  0  0  0  0  0
   59.4200   32.3400   45.9860 C   0  0  0  0  0  0  0  0  0  0  0  0
   58.8090   31.0740   45.9670 C   0  0  0  0  0  0  0  0  0  0  0  0
   59.5080   29.9830   46.5220 C   0  0  0  0  0  0  0  0  0  0  0  0
   60.7630   30.1290   47.0610 C   0  0  0  0  0  0  0  0  0  0  0  0
   61.3630   31.3900   47.0690 C   0  0  0  0  0  0  0  0  0  0  0  0
   62.6410   31.5200   47.6270 C   0  0  0  0  0  0  0  0  0  0  0  0
   63.2790   32.7270   47.6650 C   0  0  0  0  0  0  0  0  0  0  0  0
   62.6320   33.8200   47.1430 C   0  0  0  0  0  0  0  0  0  0  0  0
   61.3520   33.6850   46.5870 C   0  0  0  0  0  0  0  0  0  0  0  0
   60.6990   32.4770   46.5410 C   0  0  0  0  0  0  0  0  0  0  0  0
   58.9920   28.6140   46.7340 C   0  0  0  0  0  0  0  0  0  0  0  0
   59.6110   28.0550   47.8270 C   0  0  0  0  0  0  0  0  0  0  0  0
   59.2570   26.7550   48.2130 C   0  0  0  0  0  0  0  0  0  0  0  0
   58.3110   26.0860   47.4980 C   0  0  0  0  0  0  0  0  0  0  0  0
   57.6540   26.6250   46.3800 C   0  0  0  0  0  0  0  0  0  0  0  0
   56.7140   25.7970   45.7630 N   0  0  0  0  0  0  0  0  0  0  0  0
   55.4880   26.0190   46.0590 O   0  0  0  0  0  0  0  0  0  0  0  0
   56.8920   24.7680   44.8950 O   0  0  0  0  0  0  0  0  0  0  0  0
   58.0190   27.8990   46.0200 C   0  0  0  0  0  0  0  0  0  0  0  0
   58.6428   26.5908   43.8389 H   0  0  0  0  0  0  0  0  0  0  0  0
   57.6210   27.2093   42.4972 H   0  0  0  0  0  0  0  0  0  0  0  0
   59.3898   27.5227   42.4972 H   0  0  0  0  0  0  0  0  0  0  0  0
   56.4862   27.7609   44.5888 H   0  0  0  0  0  0  0  0  0  0  0  0
   55.9210   32.0431   44.3943 H   0  0  0  0  0  0  0  0  0  0  0  0
   57.0510   34.2445   44.4605 H   0  0  0  0  0  0  0  0  0  0  0  0
   59.3212   34.4208   45.4963 H   0  0  0  0  0  0  0  0  0  0  0  0
   61.2905   29.2606   47.4825 H   0  0  0  0  0  0  0  0  0  0  0  0
   63.1407   30.6326   48.0428 H   0  0  0  0  0  0  0  0  0  0  0  0
   64.2841   32.8211   48.1020 H   0  0  0  0  0  0  0  0  0  0  0  0
   63.1200   34.8056   47.1612 H   0  0  0  0  0  0  0  0  0  0  0  0
   60.8545   34.5750   46.1743 H   0  0  0  0  0  0  0  0  0  0  0  0
   60.3708   28.6182   48.3887 H   0  0  0  0  0  0  0  0  0  0  0  0
   59.7371   26.2815   49.0821 H   0  0  0  0  0  0  0  0  0  0  0  0
   58.0465   25.0660   47.8138 H   0  0  0  0  0  0  0  0  0  0  0  0
  1  2  1  0
  2  3  1  0
  3  4  1  0
  4  5  2  0
  4  6  1  0
  6  7  2  0
  7  8  1  0
  8  9  2  0
  9 10  1  0
 10 11  2  0
 11 12  1  0
 12 13  2  0
 13 14  1  0
 14 15  2  0
 15 16  1  0
 16 17  2  0
 17 18  1  0
 18 19  2  0
 12 20  1  0
 20 21  2  0
 21 22  1  0
 22 23  2  0
 23 24  1  0
 24 25  1  0
 25 26  2  0
 25 27  1  0
 24 28  2  0
 28  3  1  0
 11  6  1  0
 19 14  1  0
 28 20  1  0
 19 10  1  0
  1 29  1  0
  1 30  1  0
  1 31  1  0
  3 32  1  6
  7 33  1  0
  8 34  1  0
  9 35  1  0
 13 36  1  0
 15 37  1  0
 16 38  1  0
 17 39  1  0
 18 40  1  0
 21 41  1  0
 22 42  1  0
 23 43  1  0
M  CHG  2  25   1  27  -1
M  END
>  <smiles>  (38) 
COC1C(=O)c2cccc3c2c(cc2ccccc23)-c2cccc([N+](=O)[O-])c21

>  <score_type>  (38) 
oracle

>  <origin>  (38) 
adg

>  <m_score__min__energy>  (38) 
-9.0600000000000005

>  <m_primary>  (38) 
energy

$$$$
39:0
     RDKit          3D

 31 33  0  0  0  0  0  0  0  0999 V2000
   56.0730   28.2400   45.1840 O   0  0  0  0  0  0  0  0  0  0  0  0
   56.6820   29.4450   44.8420 C   0  0  0  0  0  0  0  0  0  0  0  0
   56.6240   29.9890   43.5780 C   0  0  0  0  0  0  0  0  0  0  0  0
   57.2440   31.2020   43.2570 C   0  0  0  0  0  0  0  0  0  0  0  0
   57.9300   31.8580   44.2510 C   0  0  0  0  0  0  0  0  0  0  0  0
   57.9790   31.3000   45.5020 C   0  0  0  0  0  0  0  0  0  0  0  0
   57.3640   30.0930   45.8440 C   0  0  0  0  0  0  0  0  0  0  0  0
   58.6830   31.8340   46.6540 C   0  0  0  0  0  0  0  0  0  0  0  0
   59.3430   30.9700   47.5930 C   0  0  0  0  0  0  0  0  0  0  0  0
   60.2260   29.9610   47.3810 C   0  0  0  0  0  0  0  0  0  0  0  0
   60.7330   29.1500   48.3820 C   0  0  0  0  0  0  0  0  0  0  0  0
   60.3500   29.3430   49.6770 C   0  0  0  0  0  0  0  0  0  0  0  0
   61.0020   28.2720   51.1080 Br  0  0  0  0  0  0  0  0  0  0  0  0
   59.4570   30.3580   49.9400 C   0  0  0  0  0  0  0  0  0  0  0  0
   58.9630   31.1500   48.9470 C   0  0  0  0  0  0  0  0  0  0  0  0
   58.7270   33.1480   46.8840 N   0  0  0  0  0  0  0  0  0  0  0  0
   58.0600   34.1170   45.9700 C   0  0  0  0  0  0  0  0  0  0  0  0
   58.8290   34.1750   44.6680 C   0  0  0  0  0  0  0  0  0  0  0  0
   58.5140   33.0660   43.8620 O   0  0  0  0  0  0  0  0  0  0  0  0
   56.2050   27.4740   44.5130 H   0  0  0  0  0  0  0  0  0  0  0  0
   56.0712   29.4514   42.7935 H   0  0  0  0  0  0  0  0  0  0  0  0
   57.1841   31.6176   42.2403 H   0  0  0  0  0  0  0  0  0  0  0  0
   57.4226   29.6824   46.8628 H   0  0  0  0  0  0  0  0  0  0  0  0
   60.5596   29.7762   46.3492 H   0  0  0  0  0  0  0  0  0  0  0  0
   61.4451   28.3495   48.1329 H   0  0  0  0  0  0  0  0  0  0  0  0
   59.1346   30.5337   50.9769 H   0  0  0  0  0  0  0  0  0  0  0  0
   58.2515   31.9491   49.2025 H   0  0  0  0  0  0  0  0  0  0  0  0
   57.0282   33.7896   45.7747 H   0  0  0  0  0  0  0  0  0  0  0  0
   58.0404   35.1137   46.4350 H   0  0  0  0  0  0  0  0  0  0  0  0
   58.5653   35.0988   44.1323 H   0  0  0  0  0  0  0  0  0  0  0  0
   59.9064   34.1604   44.8893 H   0  0  0  0  0  0  0  0  0  0  0  0
  1  2  1  0
  2  3  2  0
  3  4  1  0
  4  5  2  0
  5  6  1  0
  6  7  2  0
  6  8  1  0
  8  9  1  0
  9 10  2  0
 10 11  1  0
 11 12  2  0
 12 13  1  0
 12 14  1  0
 14 15  2  0
  8 16  2  0
 16 17  1  0
 17 18  1  0
 18 19  1  0
  7  2  1  0
 15  9  1  0
 19  5  1  0
  1 20  1  0
  3 21  1  0
  4 22  1  0
  7 23  1  0
 10 24  1  0
 11 25  1  0
 14 26  1  0
 15 27  1  0
 17 28  1  0
 17 29  1  0
 18 30  1  0
 18 31  1  0
M  END
>  <smiles>  (39) 
Oc1ccc2c(c1)C(c1ccc(Br)cc1)=NCCO2

>  <score_type>  (39) 
oracle

>  <origin>  (39) 
adg

>  <m_score__min__energy>  (39) 
-5.2599999999999998

>  <m_primary>  (39) 
energy

$$$$
40:0
     RDKit          3D

 32 34  0  0  1  0  0  0  0  0999 V2000
   57.4320   32.1260   41.7500 C   0  0  0  0  0  0  0  0  0  0  0  0
   57.8120   31.6580   43.1180 C   0  0  0  0  0  0  0  0  0  0  0  0
   58.0210   32.5460   44.1430 C   0  0  0  0  0  0  0  0  0  0  0  0
   58.3790   32.1440   45.4380 C   0  0  0  0  0  0  0  0  0  0  0  0
   58.5410   33.0210   46.2800 N   0  0  0  0  0  0  0  0  0  0  0  0
   59.5560   33.2890   47.1270 C   0  0  0  0  0  0  0  0  0  0  0  0
   59.2670   33.8360   48.4020 C   0  0  0  0  0  0  0  0  0  0  0  0
   60.2880   34.2230   49.2450 C   0  0  0  0  0  0  0  0  0  0  0  0
   61.6150   34.0860   48.8680 C   0  0  0  0  0  0  0  0  0  0  0  0
   61.9020   33.5490   47.6140 C   0  0  0  0  0  0  0  0  0  0  0  0
   63.7630   33.3960   47.1720 Br  0  0  0  0  0  0  0  0  0  0  0  0
   60.9130   33.1490   46.7410 C   0  0  0  0  0  0  0  0  0  0  0  0
   58.5270   30.8120   45.6940 C   0  0  0  0  0  0  0  0  0  0  0  0
   58.8730   30.3500   46.9280 C   0  0  0  0  0  0  0  0  0  0  0  0
   59.0150   28.9680   47.1470 C   0  0  0  0  0  0  0  0  0  0  0  0
   58.7880   28.1650   46.0730 C   0  0  0  0  0  0  0  0  0  0  0  0
   58.4400   28.5960   44.8220 C   0  0  0  0  0  0  0  0  0  0  0  0
   58.1460   27.3890   43.3860 Br  0  0  0  0  0  0  0  0  0  0  0  0
   58.3090   29.9530   44.6360 C   0  0  0  0  0  0  0  0  0  0  0  0
   57.9650   30.3550   43.3980 N   0  0  0  0  0  0  0  0  0  0  0  0
   56.7406   32.9775   41.8327 H   0  0  0  0  0  0  0  0  0  0  0  0
   58.3351   32.4386   41.2054 H   0  0  0  0  0  0  0  0  0  0  0  0
   56.9407   31.3063   41.2054 H   0  0  0  0  0  0  0  0  0  0  0  0
   57.9025   33.6206   43.9400 H   0  0  0  0  0  0  0  0  0  0  0  0
   58.2210   33.9528   48.7217 H   0  0  0  0  0  0  0  0  0  0  0  0
   60.0457   34.6465   50.2308 H   0  0  0  0  0  0  0  0  0  0  0  0
   62.4253   34.3948   49.5448 H   0  0  0  0  0  0  0  0  0  0  0  0
   61.1730   32.7272   45.7589 H   0  0  0  0  0  0  0  0  0  0  0  0
   59.0413   31.0578   47.7530 H   0  0  0  0  0  0  0  0  0  0  0  0
   59.2935   28.5602   48.1299 H   0  0  0  0  0  0  0  0  0  0  0  0
   58.8928   27.0802   46.2224 H   0  0  0  0  0  0  0  0  0  0  0  0
   57.8080   29.6820   42.6270 H   0  0  0  0  0  0  0  0  0  0  0  0
  1  2  1  0
  2  3  2  0
  3  4  1  0
  4  5  2  0
  5  6  1  0
  6  7  2  0
  7  8  1  0
  8  9  2  0
  9 10  1  0
 10 11  1  0
 10 12  2  0
  4 13  1  0
 13 14  2  0
 14 15  1  0
 15 16  2  0
 16 17  1  0
 17 18  1  0
 17 19  2  0
 19 20  1  0
 20  2  1  0
 12  6  1  0
 19 13  1  0
  1 21  1  0
  1 22  1  0
  1 23  1  0
  3 24  1  0
  7 25  1  0
  8 26  1  0
  9 27  1  0
 12 28  1  0
 14 29  1  0
 15 30  1  0
 16 31  1  0
 20 32  1  0
M  END
>  <smiles>  (40) 
Cc1cc(=Nc2cccc(Br)c2)c2cccc(Br)c2[nH]1

>  <score_type>  (40) 
oracle

>  <origin>  (40) 
adg

>  <m_score__min__energy>  (40) 
-8.2200000000000006

>  <m_primary>  (40) 
energy

$$$$
41:0
     RDKit          3D

 48 49  0  0  1  0  0  0  0  0999 V2000
   60.5670   27.4040   49.1230 C   0  0  0  0  0  0  0  0  0  0  0  0
   59.7450   28.4870   48.4280 C   0  0  1  0  0  0  0  0  0  0  0  0
   59.1630   29.2020   49.4920 O   0  0  0  0  0  0  0  0  0  0  0  0
   60.7240   29.4220   47.7910 C   0  0  0  0  0  0  0  0  0  0  0  0
   60.0370   30.4310   46.9200 C   0  0  0  0  0  0  0  0  0  0  0  0
   58.7190   29.9480   46.3870 C   0  0  0  0  0  0  0  0  0  0  0  0
   58.7230   28.4450   46.1080 C   0  0  1  0  0  0  0  0  0  0  0  0
   59.9610   28.0630   45.3570 C   0  0  0  0  0  0  0  0  0  0  0  0
   58.7170   27.9030   47.5370 C   0  0  1  0  0  0  0  0  0  0  0  0
   58.6840   26.4060   47.4930 C   0  0  0  0  0  0  0  0  0  0  0  0
   57.2710   26.0690   47.0560 C   0  0  0  0  0  0  0  0  0  0  0  0
   56.9400   26.6690   45.7440 C   0  0  1  0  0  0  0  0  0  0  0  0
   57.3520   25.6520   44.6810 C   0  0  0  0  0  0  0  0  0  0  0  0
   55.5360   26.7210   45.6730 O   0  0  0  0  0  0  0  0  0  0  0  0
   57.4470   28.0430   45.4580 C   0  0  2  0  0  0  0  0  0  0  0  0
   57.4060   28.1150   43.9670 C   0  0  0  0  0  0  0  0  0  0  0  0
   57.0010   29.4010   43.3500 C   0  0  0  0  0  0  0  0  0  0  0  0
   56.0310   30.0290   44.3110 C   0  0  0  0  0  0  0  0  0  0  0  0
   56.2240   31.2460   44.6090 O   0  0  0  0  0  0  0  0  0  0  0  0
   54.9520   29.3590   44.8390 O   0  0  0  0  0  0  0  0  0  0  0  0
   60.4790   27.5199   50.2133 H   0  0  0  0  0  0  0  0  0  0  0  0
   60.1917   26.4129   48.8282 H   0  0  0  0  0  0  0  0  0  0  0  0
   61.6225   27.4989   48.8282 H   0  0  0  0  0  0  0  0  0  0  0  0
   59.8720   29.5980   50.0750 H   0  0  0  0  0  0  0  0  0  0  0  0
   61.4263   28.8394   47.1768 H   0  0  0  0  0  0  0  0  0  0  0  0
   61.2546   29.9612   48.5896 H   0  0  0  0  0  0  0  0  0  0  0  0
   60.6942   30.6648   46.0695 H   0  0  0  0  0  0  0  0  0  0  0  0
   59.8355   31.3170   47.5401 H   0  0  0  0  0  0  0  0  0  0  0  0
   58.4991   30.4813   45.4504 H   0  0  0  0  0  0  0  0  0  0  0  0
   57.9532   30.1469   47.1512 H   0  0  0  0  0  0  0  0  0  0  0  0
   60.7611   27.8161   46.0704 H   0  0  0  0  0  0  0  0  0  0  0  0
   59.7508   27.1879   44.7245 H   0  0  0  0  0  0  0  0  0  0  0  0
   60.2804   28.9044   44.7245 H   0  0  0  0  0  0  0  0  0  0  0  0
   57.7953   28.2440   48.0311 H   0  0  0  0  0  0  0  0  0  0  0  0
   59.4170   26.0222   46.7681 H   0  0  0  0  0  0  0  0  0  0  0  0
   58.9408   25.9537   48.4623 H   0  0  0  0  0  0  0  0  0  0  0  0
   57.1731   24.9759   46.9818 H   0  0  0  0  0  0  0  0  0  0  0  0
   56.5764   26.4801   47.8033 H   0  0  0  0  0  0  0  0  0  0  0  0
   57.7218   24.7391   45.1708 H   0  0  0  0  0  0  0  0  0  0  0  0
   56.4830   25.4051   44.0534 H   0  0  0  0  0  0  0  0  0  0  0  0
   58.1478   26.0795   44.0534 H   0  0  0  0  0  0  0  0  0  0  0  0
   55.1900   27.6310   45.5890 H   0  0  0  0  0  0  0  0  0  0  0  0
   56.8197   28.8130   45.9308 H   0  0  0  0  0  0  0  0  0  0  0  0
   58.4149   27.8773   43.5987 H   0  0  0  0  0  0  0  0  0  0  0  0
   56.6167   27.4062   43.6760 H   0  0  0  0  0  0  0  0  0  0  0  0
   57.8770   30.0514   43.2102 H   0  0  0  0  0  0  0  0  0  0  0  0
   56.5483   29.2496   42.3590 H   0  0  0  0  0  0  0  0  0  0  0  0
   54.7730   28.4210   44.5000 H   0  0  0  0  0  0  0  0  0  0  0  0
  1  2  1  0
  2  3  1  1
  2  4  1  0
  4  5  1  0
  5  6  1  0
  6  7  1  0
  7  8  1  6
  7  9  1  0
  9 10  1  0
 10 11  1  0
 11 12  1  0
 12 13  1  0
 12 14  1  1
 12 15  1  0
 15 16  1  0
 16 17  1  0
 17 18  1  0
 18 19  2  0
 18 20  1  0
  9  2  1  0
 15  7  1  0
  1 21  1  0
  1 22  1  0
  1 23  1  0
  3 24  1  0
  4 25  1  0
  4 26  1  0
  5 27  1  0
  5 28  1  0
  6 29  1  0
  6 30  1  0
  8 31  1  0
  8 32  1  0
  8 33  1  0
  9 34  1  1
 10 35  1  0
 10 36  1  0
 11 37  1  0
 11 38  1  0
 13 39  1  0
 13 40  1  0
 13 41  1  0
 14 42  1  0
 15 43  1  1
 16 44  1  0
 16 45  1  0
 17 46  1  0
 17 47  1  0
 20 48  1  0
M  END
>  <smiles>  (41) 
CC1(O)CCCC2(C)C1CCC(C)(O)C2CCC(=O)O

>  <score_type>  (41) 
oracle

>  <origin>  (41) 
adg

>  <m_score__min__energy>  (41) 
-8.9499999999999993

>  <m_primary>  (41) 
energy

$$$$
42:0
     RDKit          3D

 43 45  0  0  0  0  0  0  0  0999 V2000
   56.6890   31.2880   45.1690 O   0  0  0  0  0  0  0  0  0  0  0  0
   57.7090   31.2440   44.4720 C   0  0  0  0  0  0  0  0  0  0  0  0
   58.3150   32.5400   44.0550 C   0  0  0  0  0  0  0  0  0  0  0  0
   58.7600   33.3440   45.1970 C   0  0  0  0  0  0  0  0  0  0  0  0
   58.7180   32.8990   46.5140 C   0  0  0  0  0  0  0  0  0  0  0  0
   59.1500   33.6930   47.5540 C   0  0  0  0  0  0  0  0  0  0  0  0
   59.6380   34.9630   47.2940 C   0  0  0  0  0  0  0  0  0  0  0  0
   59.6900   35.4280   46.0020 C   0  0  0  0  0  0  0  0  0  0  0  0
   59.2530   34.6210   44.9540 C   0  0  0  0  0  0  0  0  0  0  0  0
   58.3000   30.0280   44.0720 N   0  0  0  0  0  0  0  0  0  0  0  0
   57.8510   28.7330   44.3830 C   0  0  0  0  0  0  0  0  0  0  0  0
   58.2670   27.6780   43.5610 C   0  0  0  0  0  0  0  0  0  0  0  0
   57.8690   26.3840   43.8010 C   0  0  0  0  0  0  0  0  0  0  0  0
   57.0460   26.0480   44.8530 C   0  0  0  0  0  0  0  0  0  0  0  0
   56.6640   24.7000   45.0610 N   0  0  0  0  0  0  0  0  0  0  0  0
   55.4090   24.3260   45.6220 C   0  0  0  0  0  0  0  0  0  0  0  0
   54.5370   25.1600   45.9800 O   0  0  0  0  0  0  0  0  0  0  0  0
   55.1660   22.8490   45.7730 C   0  0  0  0  0  0  0  0  0  0  0  0
   55.8810   22.1680   44.6580 C   0  0  0  0  0  0  0  0  0  0  0  0
   56.5720   20.9790   44.7480 C   0  0  0  0  0  0  0  0  0  0  0  0
   57.0640   20.7360   43.4840 C   0  0  0  0  0  0  0  0  0  0  0  0
   56.6360   21.7980   42.7170 C   0  0  0  0  0  0  0  0  0  0  0  0
   55.9320   22.6430   43.4320 O   0  0  0  0  0  0  0  0  0  0  0  0
   56.6290   27.0730   45.6710 C   0  0  0  0  0  0  0  0  0  0  0  0
   57.0350   28.3870   45.4230 C   0  0  0  0  0  0  0  0  0  0  0  0
   59.1817   32.3330   43.4100 H   0  0  0  0  0  0  0  0  0  0  0  0
   57.5428   33.1143   43.5222 H   0  0  0  0  0  0  0  0  0  0  0  0
   58.3318   31.8919   46.7300 H   0  0  0  0  0  0  0  0  0  0  0  0
   59.1075   33.3194   48.5877 H   0  0  0  0  0  0  0  0  0  0  0  0
   59.9839   35.5994   48.1219 H   0  0  0  0  0  0  0  0  0  0  0  0
   60.0765   36.4369   45.7954 H   0  0  0  0  0  0  0  0  0  0  0  0
   59.2985   34.9986   43.9219 H   0  0  0  0  0  0  0  0  0  0  0  0
   59.1760   30.1220   43.4740 H   0  0  0  0  0  0  0  0  0  0  0  0
   58.9258   27.8891   42.7057 H   0  0  0  0  0  0  0  0  0  0  0  0
   58.2207   25.5880   43.1282 H   0  0  0  0  0  0  0  0  0  0  0  0
   57.3700   23.9620   44.7730 H   0  0  0  0  0  0  0  0  0  0  0  0
   55.5568   22.4998   46.7401 H   0  0  0  0  0  0  0  0  0  0  0  0
   54.0895   22.6254   45.7404 H   0  0  0  0  0  0  0  0  0  0  0  0
   56.7035   20.3536   45.6433 H   0  0  0  0  0  0  0  0  0  0  0  0
   57.6692   19.8776   43.1570 H   0  0  0  0  0  0  0  0  0  0  0  0
   56.8558   21.9209   41.6462 H   0  0  0  0  0  0  0  0  0  0  0  0
   55.9716   26.8566   46.5260 H   0  0  0  0  0  0  0  0  0  0  0  0
   56.6808   29.1807   46.0972 H   0  0  0  0  0  0  0  0  0  0  0  0
  1  2  2  0
  2  3  1  0
  3  4  1  0
  4  5  2  0
  5  6  1  0
  6  7  2  0
  7  8  1  0
  8  9  2  0
  2 10  1  0
 10 11  1  0
 11 12  2  0
 12 13  1  0
 13 14  2  0
 14 15  1  0
 15 16  1  0
 16 17  2  0
 16 18  1  0
 18 19  1  0
 19 20  2  0
 20 21  1  0
 21 22  2  0
 22 23  1  0
 14 24  1  0
 24 25  2  0
  9  4  1  0
 25 11  1  0
 23 19  1  0
  3 26  1  0
  3 27  1  0
  5 28  1  0
  6 29  1  0
  7 30  1  0
  8 31  1  0
  9 32  1  0
 10 33  1  0
 12 34  1  0
 13 35  1  0
 15 36  1  0
 18 37  1  0
 18 38  1  0
 20 39  1  0
 21 40  1  0
 22 41  1  0
 24 42  1  0
 25 43  1  0
M  END
>  <smiles>  (42) 
O=C(Cc1ccccc1)Nc1ccc(NC(=O)Cc2ccco2)cc1

>  <score_type>  (42) 
oracle

>  <origin>  (42) 
adg

>  <m_score__min__energy>  (42) 
-8.9299999999999997

>  <m_primary>  (42) 
energy

$$$$
43:0
     RDKit          3D

 26 27  0  0  0  0  0  0  0  0999 V2000
   60.0050   34.4880   45.9480 C   0  0  0  0  0  0  0  0  0  0  0  0
   60.8550   33.4390   46.5930 C   0  0  0  0  0  0  0  0  0  0  0  0
   62.1560   33.7520   46.9310 C   0  0  0  0  0  0  0  0  0  0  0  0
   62.9330   32.7720   47.5270 C   0  0  0  0  0  0  0  0  0  0  0  0
   62.4560   31.5020   47.7940 C   0  0  0  0  0  0  0  0  0  0  0  0
   61.1530   31.2060   47.4490 C   0  0  0  0  0  0  0  0  0  0  0  0
   60.3490   32.1780   46.8460 C   0  0  0  0  0  0  0  0  0  0  0  0
   58.9940   31.8340   46.5010 N   0  0  0  0  0  0  0  0  0  0  0  0
   58.8610   30.7060   45.6220 C   0  0  0  0  0  0  0  0  0  0  0  0
   59.9270   30.1430   45.2510 O   0  0  0  0  0  0  0  0  0  0  0  0
   57.5480   30.2600   45.2010 C   0  0  0  0  0  0  0  0  0  0  0  0
   56.5800   30.9560   44.4940 C   0  0  0  0  0  0  0  0  0  0  0  0
   55.5490   30.1170   44.3520 N   0  0  0  0  0  0  0  0  0  0  0  0
   55.8100   28.9530   44.9200 N   0  0  0  0  0  0  0  0  0  0  0  0
   57.0510   28.9930   45.4660 C   0  0  0  0  0  0  0  0  0  0  0  0
   59.5153   35.0924   46.7257 H   0  0  0  0  0  0  0  0  0  0  0  0
   60.6352   35.1368   45.3220 H   0  0  0  0  0  0  0  0  0  0  0  0
   59.2396   34.0060   45.3220 H   0  0  0  0  0  0  0  0  0  0  0  0
   62.5653   34.7535   46.7323 H   0  0  0  0  0  0  0  0  0  0  0  0
   63.9711   33.0140   47.7987 H   0  0  0  0  0  0  0  0  0  0  0  0
   63.0989   30.7466   48.2694 H   0  0  0  0  0  0  0  0  0  0  0  0
   60.7463   30.2037   47.6488 H   0  0  0  0  0  0  0  0  0  0  0  0
   58.1750   32.3410   46.8440 H   0  0  0  0  0  0  0  0  0  0  0  0
   56.6467   31.9899   44.1244 H   0  0  0  0  0  0  0  0  0  0  0  0
   55.1520   28.1250   44.9430 H   0  0  0  0  0  0  0  0  0  0  0  0
   57.5604   28.1835   46.0094 H   0  0  0  0  0  0  0  0  0  0  0  0
  1  2  1  0
  2  3  2  0
  3  4  1  0
  4  5  2  0
  5  6  1  0
  6  7  2  0
  7  8  1  0
  8  9  1  0
  9 10  2  0
  9 11  1  0
 11 12  1  0
 12 13  2  0
 13 14  1  0
 14 15  1  0
  7  2  1  0
 15 11  2  0
  1 16  1  0
  1 17  1  0
  1 18  1  0
  3 19  1  0
  4 20  1  0
  5 21  1  0
  6 22  1  0
  8 23  1  0
 12 24  1  0
 14 25  1  0
 15 26  1  0
M  END
>  <smiles>  (43) 
Cc1ccccc1NC(=O)c1cn[nH]c1

>  <score_type>  (43) 
oracle

>  <origin>  (43) 
adg

>  <m_score__min__energy>  (43) 
-6

>  <m_primary>  (43) 
energy

$$$$
44:0
     RDKit          3D

 40 43  0  0  0  0  0  0  0  0999 V2000
   57.7640   32.3220   42.5380 C   0  0  0  0  0  0  0  0  0  0  0  0
   57.8480   31.7550   43.9040 C   0  0  0  0  0  0  0  0  0  0  0  0
   58.0070   30.4110   44.2000 C   0  0  0  0  0  0  0  0  0  0  0  0
   58.1480   29.1470   43.7480 N   0  0  0  0  0  0  0  0  0  0  0  0
   58.2580   28.3110   44.8230 C   0  0  0  0  0  0  0  0  0  0  0  0
   58.4180   26.9460   44.9530 C   0  0  0  0  0  0  0  0  0  0  0  0
   58.5080   26.3100   46.1770 C   0  0  0  0  0  0  0  0  0  0  0  0
   58.4340   27.0750   47.3470 C   0  0  0  0  0  0  0  0  0  0  0  0
   58.2740   28.4380   47.2220 C   0  0  0  0  0  0  0  0  0  0  0  0
   58.1880   29.0480   45.9880 C   0  0  0  0  0  0  0  0  0  0  0  0
   58.0300   30.3590   45.5840 C   0  0  0  0  0  0  0  0  0  0  0  0
   57.8940   31.5830   46.0660 N   0  0  0  0  0  0  0  0  0  0  0  0
   57.7820   32.4420   45.0380 N   0  0  0  0  0  0  0  0  0  0  0  0
   57.6190   33.8600   45.2590 C   0  0  0  0  0  0  0  0  0  0  0  0
   58.8170   34.6650   44.8720 C   0  0  0  0  0  0  0  0  0  0  0  0
   59.6790   34.7630   46.0390 N   0  0  0  0  0  0  0  0  0  0  0  0
   58.9000   34.5930   47.2340 C   0  0  0  0  0  0  0  0  0  0  0  0
   59.7520   33.7980   48.1980 C   0  0  0  0  0  0  0  0  0  0  0  0
   61.1140   33.8050   47.5420 C   0  0  0  0  0  0  0  0  0  0  0  0
   60.7680   33.8430   46.0480 C   0  0  0  0  0  0  0  0  0  0  0  0
   57.6031   33.4083   42.6012 H   0  0  0  0  0  0  0  0  0  0  0  0
   58.7017   32.1210   41.9992 H   0  0  0  0  0  0  0  0  0  0  0  0
   56.9248   31.8577   41.9992 H   0  0  0  0  0  0  0  0  0  0  0  0
   58.1670   28.8730   42.7380 H   0  0  0  0  0  0  0  0  0  0  0  0
   58.4766   26.3358   44.0397 H   0  0  0  0  0  0  0  0  0  0  0  0
   58.6359   25.2188   46.2309 H   0  0  0  0  0  0  0  0  0  0  0  0
   58.5016   26.6017   48.3377 H   0  0  0  0  0  0  0  0  0  0  0  0
   58.2133   29.0557   48.1302 H   0  0  0  0  0  0  0  0  0  0  0  0
   56.7596   34.2081   44.6672 H   0  0  0  0  0  0  0  0  0  0  0  0
   57.4675   34.0039   46.3390 H   0  0  0  0  0  0  0  0  0  0  0  0
   59.3534   34.1674   44.0506 H   0  0  0  0  0  0  0  0  0  0  0  0
   58.5149   35.6661   44.5308 H   0  0  0  0  0  0  0  0  0  0  0  0
   58.6513   35.5731   47.6672 H   0  0  0  0  0  0  0  0  0  0  0  0
   57.9546   34.0731   47.0197 H   0  0  0  0  0  0  0  0  0  0  0  0
   59.7871   34.2822   49.1851 H   0  0  0  0  0  0  0  0  0  0  0  0
   59.3660   32.7841   48.3798 H   0  0  0  0  0  0  0  0  0  0  0  0
   61.6924   34.6926   47.8380 H   0  0  0  0  0  0  0  0  0  0  0  0
   61.7388   32.9447   47.8238 H   0  0  0  0  0  0  0  0  0  0  0  0
   61.6127   34.2124   45.4479 H   0  0  0  0  0  0  0  0  0  0  0  0
   60.5321   32.8601   45.6142 H   0  0  0  0  0  0  0  0  0  0  0  0
  1  2  1  0
  2  3  2  0
  3  4  1  0
  4  5  1  0
  5  6  2  0
  6  7  1  0
  7  8  2  0
  8  9  1  0
  9 10  2  0
 10 11  1  0
 11 12  2  0
 12 13  1  0
 13 14  1  0
 14 15  1  0
 15 16  1  0
 16 17  1  0
 17 18  1  0
 18 19  1  0
 19 20  1  0
 13  2  1  0
 20 16  1  0
 11  3  1  0
 10  5  1  0
  1 21  1  0
  1 22  1  0
  1 23  1  0
  4 24  1  0
  6 25  1  0
  7 26  1  0
  8 27  1  0
  9 28  1  0
 14 29  1  0
 14 30  1  0
 15 31  1  0
 15 32  1  0
 17 33  1  0
 17 34  1  0
 18 35  1  0
 18 36  1  0
 19 37  1  0
 19 38  1  0
 20 39  1  0
 20 40  1  0
M  END
>  <smiles>  (44) 
Cc1c2[nH]c3ccccc3c2nn1CCN1CCCC1

>  <score_type>  (44) 
oracle

>  <origin>  (44) 
adg

>  <m_score__min__energy>  (44) 
-7.4400000000000004

>  <m_primary>  (44) 
energy

$$$$
45:0
     RDKit          3D

 44 46  0  0  1  0  0  0  0  0999 V2000
   57.7700   31.9790   43.2980 C   0  0  0  0  0  0  0  0  0  0  0  0
   57.4690   33.2320   43.8870 O   0  0  0  0  0  0  0  0  0  0  0  0
   58.0650   33.5300   45.1010 C   0  0  0  0  0  0  0  0  0  0  0  0
   59.0160   34.5360   45.1390 C   0  0  0  0  0  0  0  0  0  0  0  0
   59.6430   34.8690   46.3480 C   0  0  0  0  0  0  0  0  0  0  0  0
   59.2910   34.1670   47.5240 C   0  0  0  0  0  0  0  0  0  0  0  0
   59.8870   34.6570   48.7090 N   0  0  0  0  0  0  0  0  0  0  0  0
   60.2590   33.8360   49.6160 C   0  0  0  0  0  0  0  0  0  0  0  0
   61.6530   33.6010   49.7370 N   0  0  0  0  0  0  0  0  0  0  0  0
   62.5220   33.1140   48.3350 S   0  0  0  0  0  0  0  0  0  0  0  0
   62.2470   33.8360   47.0800 O   0  0  0  0  0  0  0  0  0  0  0  0
   63.8760   32.5840   48.4920 O   0  0  0  0  0  0  0  0  0  0  0  0
   61.5920   31.6130   47.9690 C   0  0  0  0  0  0  0  0  0  0  0  0
   61.4980   30.7420   49.0290 C   0  0  0  0  0  0  0  0  0  0  0  0
   60.7680   29.5970   48.8330 C   0  0  0  0  0  0  0  0  0  0  0  0
   60.1910   29.3940   47.6210 C   0  0  0  0  0  0  0  0  0  0  0  0
   59.1740   27.7850   47.3820 Br  0  0  0  0  0  0  0  0  0  0  0  0
   60.2660   30.2410   46.5440 C   0  0  0  0  0  0  0  0  0  0  0  0
   61.0120   31.4090   46.7450 C   0  0  0  0  0  0  0  0  0  0  0  0
   59.3020   33.1830   50.5500 C   0  0  0  0  0  0  0  0  0  0  0  0
   59.0400   33.8920   51.7020 C   0  0  0  0  0  0  0  0  0  0  0  0
   58.1430   33.2950   52.5920 C   0  0  0  0  0  0  0  0  0  0  0  0
   57.5610   32.0730   52.3270 C   0  0  0  0  0  0  0  0  0  0  0  0
   57.8560   31.4030   51.1560 C   0  0  0  0  0  0  0  0  0  0  0  0
   58.7380   31.9630   50.2560 C   0  0  0  0  0  0  0  0  0  0  0  0
   58.3380   33.1670   47.4630 C   0  0  0  0  0  0  0  0  0  0  0  0
   57.7260   32.8470   46.2590 C   0  0  0  0  0  0  0  0  0  0  0  0
   57.9486   31.2355   44.0888 H   0  0  0  0  0  0  0  0  0  0  0  0
   56.9242   31.6546   42.6740 H   0  0  0  0  0  0  0  0  0  0  0  0
   58.6708   32.0741   42.6740 H   0  0  0  0  0  0  0  0  0  0  0  0
   59.2803   35.0756   44.2176 H   0  0  0  0  0  0  0  0  0  0  0  0
   60.3996   35.6667   46.3814 H   0  0  0  0  0  0  0  0  0  0  0  0
   62.1170   33.6970   50.6970 H   0  0  0  0  0  0  0  0  0  0  0  0
   61.9865   30.9539   49.9915 H   0  0  0  0  0  0  0  0  0  0  0  0
   60.6527   28.8592   49.6407 H   0  0  0  0  0  0  0  0  0  0  0  0
   59.7729   30.0174   45.5865 H   0  0  0  0  0  0  0  0  0  0  0  0
   61.1296   32.1466   45.9375 H   0  0  0  0  0  0  0  0  0  0  0  0
   59.5073   34.8662   51.9081 H   0  0  0  0  0  0  0  0  0  0  0  0
   57.8944   33.8139   53.5295 H   0  0  0  0  0  0  0  0  0  0  0  0
   56.8600   31.6309   53.0503 H   0  0  0  0  0  0  0  0  0  0  0  0
   57.3906   30.4294   50.9427 H   0  0  0  0  0  0  0  0  0  0  0  0
   58.9864   31.4432   49.3190 H   0  0  0  0  0  0  0  0  0  0  0  0
   58.0624   32.6202   48.3768 H   0  0  0  0  0  0  0  0  0  0  0  0
   56.9697   32.0490   46.2234 H   0  0  0  0  0  0  0  0  0  0  0  0
  1  2  1  0
  2  3  1  0
  3  4  2  0
  4  5  1  0
  5  6  2  0
  6  7  1  0
  7  8  2  0
  8  9  1  0
  9 10  1  0
 10 11  2  0
 10 12  2  0
 10 13  1  0
 13 14  2  0
 14 15  1  0
 15 16  2  0
 16 17  1  0
 16 18  1  0
 18 19  2  0
  8 20  1  0
 20 21  2  0
 21 22  1  0
 22 23  2  0
 23 24  1  0
 24 25  2  0
  6 26  1  0
 26 27  2  0
 27  3  1  0
 19 13  1  0
 25 20  1  0
  1 28  1  0
  1 29  1  0
  1 30  1  0
  4 31  1  0
  5 32  1  0
  9 33  1  0
 14 34  1  0
 15 35  1  0
 18 36  1  0
 19 37  1  0
 21 38  1  0
 22 39  1  0
 23 40  1  0
 24 41  1  0
 25 42  1  0
 26 43  1  0
 27 44  1  0
M  END
>  <smiles>  (45) 
COc1ccc(N=C(NS(=O)(=O)c2ccc(Br)cc2)c2ccccc2)cc1

>  <score_type>  (45) 
oracle

>  <origin>  (45) 
adg

>  <m_score__min__energy>  (45) 
-8.6300000000000008

>  <m_primary>  (45) 
energy

$$$$
46:0
     RDKit          3D

 24 25  0  0  0  0  0  0  0  0999 V2000
   55.6800   28.8560   44.8680 N   0  0  0  0  0  0  0  0  0  0  0  0
   56.3600   29.9570   44.2440 C   0  0  0  0  0  0  0  0  0  0  0  0
   56.3620   30.0930   42.8530 C   0  0  0  0  0  0  0  0  0  0  0  0
   57.0240   31.1670   42.2570 C   0  0  0  0  0  0  0  0  0  0  0  0
   57.6920   32.1190   43.0210 C   0  0  0  0  0  0  0  0  0  0  0  0
   57.6770   31.9640   44.4040 C   0  0  0  0  0  0  0  0  0  0  0  0
   58.3490   32.9190   45.2710 C   0  0  0  0  0  0  0  0  0  0  0  0
   58.5110   32.7420   46.6300 C   0  0  0  0  0  0  0  0  0  0  0  0
   59.1670   33.7070   47.4030 C   0  0  0  0  0  0  0  0  0  0  0  0
   59.6500   34.8390   46.7770 C   0  0  0  0  0  0  0  0  0  0  0  0
   59.5050   35.0480   45.4120 C   0  0  0  0  0  0  0  0  0  0  0  0
   58.8480   34.0750   44.6560 C   0  0  0  0  0  0  0  0  0  0  0  0
   57.0230   30.9030   44.9960 C   0  0  0  0  0  0  0  0  0  0  0  0
   54.7850   28.9710   45.3910 H   0  0  0  0  0  0  0  0  0  0  0  0
   56.1620   27.9200   44.7530 H   0  0  0  0  0  0  0  0  0  0  0  0
   55.8413   29.3528   42.2276 H   0  0  0  0  0  0  0  0  0  0  0  0
   57.0177   31.2630   41.1612 H   0  0  0  0  0  0  0  0  0  0  0  0
   58.2136   32.9644   42.5485 H   0  0  0  0  0  0  0  0  0  0  0  0
   58.1205   31.8330   47.1108 H   0  0  0  0  0  0  0  0  0  0  0  0
   59.2951   33.5665   48.4865 H   0  0  0  0  0  0  0  0  0  0  0  0
   60.1668   35.6004   47.3796 H   0  0  0  0  0  0  0  0  0  0  0  0
   59.8985   35.9589   44.9372 H   0  0  0  0  0  0  0  0  0  0  0  0
   58.7216   34.2167   43.5725 H   0  0  0  0  0  0  0  0  0  0  0  0
   57.0309   30.8101   46.0920 H   0  0  0  0  0  0  0  0  0  0  0  0
  1  2  1  0
  2  3  2  0
  3  4  1  0
  4  5  2  0
  5  6  1  0
  6  7  1  0
  7  8  2  0
  8  9  1  0
  9 10  2  0
 10 11  1  0
 11 12  2  0
  6 13  2  0
 13  2  1  0
 12  7  1  0
  1 14  1  0
  1 15  1  0
  3 16  1  0
  4 17  1  0
  5 18  1  0
  8 19  1  0
  9 20  1  0
 10 21  1  0
 11 22  1  0
 12 23  1  0
 13 24  1  0
M  END
>  <smiles>  (46) 
Nc1cccc(-c2ccccc2)c1

>  <score_type>  (46) 
oracle

>  <origin>  (46) 
adg

>  <m_score__min__energy>  (46) 
-7.0700000000000003

>  <m_primary>  (46) 
energy

$$$$
47:0
     RDKit          3D

 54 56  0  0  0  0  0  0  0  0999 V2000
   56.5140   22.3030   43.6410 C   0  0  0  0  0  0  0  0  0  0  0  0
   56.4660   21.9340   45.0220 N   0  0  0  0  0  0  0  0  0  0  0  0
   55.1420   21.9980   45.5790 C   0  0  0  0  0  0  0  0  0  0  0  0
   57.6060   22.8170   45.9760 S   0  0  0  0  0  0  0  0  0  0  0  0
   57.3290   22.5070   47.4190 O   0  0  0  0  0  0  0  0  0  0  0  0
   59.0040   22.3980   45.6720 O   0  0  0  0  0  0  0  0  0  0  0  0
   57.4420   24.5360   45.7300 C   0  0  0  0  0  0  0  0  0  0  0  0
   56.3090   25.2450   46.0700 C   0  0  0  0  0  0  0  0  0  0  0  0
   56.3050   26.6020   45.8260 C   0  0  0  0  0  0  0  0  0  0  0  0
   57.3700   27.2760   45.2630 C   0  0  0  0  0  0  0  0  0  0  0  0
   57.3630   28.7110   45.0060 C   0  0  0  0  0  0  0  0  0  0  0  0
   56.3210   29.3690   44.3880 C   0  0  0  0  0  0  0  0  0  0  0  0
   56.4330   30.7480   44.2000 C   0  0  0  0  0  0  0  0  0  0  0  0
   57.5280   31.4660   44.5990 C   0  0  0  0  0  0  0  0  0  0  0  0
   57.6730   32.9330   44.4120 C   0  0  0  0  0  0  0  0  0  0  0  0
   58.4030   33.4710   45.5100 N   0  0  0  0  0  0  0  0  0  0  0  0
   57.6460   33.7740   46.6650 C   0  0  0  0  0  0  0  0  0  0  0  0
   58.2260   33.1290   47.9010 C   0  0  0  0  0  0  0  0  0  0  0  0
   59.5650   33.8050   48.1600 C   0  0  0  0  0  0  0  0  0  0  0  0
   60.5500   33.2450   47.1850 C   0  0  0  0  0  0  0  0  0  0  0  0
   60.7500   34.0580   45.9440 C   0  0  0  0  0  0  0  0  0  0  0  0
   59.4740   34.3440   45.2010 C   0  0  0  0  0  0  0  0  0  0  0  0
   58.5540   30.7830   45.2130 C   0  0  0  0  0  0  0  0  0  0  0  0
   58.4680   29.4330   45.4100 C   0  0  0  0  0  0  0  0  0  0  0  0
   58.5090   26.5480   44.9240 C   0  0  0  0  0  0  0  0  0  0  0  0
   58.5250   25.2010   45.1610 C   0  0  0  0  0  0  0  0  0  0  0  0
   56.6555   23.3906   43.5568 H   0  0  0  0  0  0  0  0  0  0  0  0
   57.3524   21.7852   43.1520 H   0  0  0  0  0  0  0  0  0  0  0  0
   55.5711   22.0169   43.1520 H   0  0  0  0  0  0  0  0  0  0  0  0
   55.2057   21.9949   46.6772 H   0  0  0  0  0  0  0  0  0  0  0  0
   54.6471   22.9211   45.2430 H   0  0  0  0  0  0  0  0  0  0  0  0
   54.5603   21.1269   45.2430 H   0  0  0  0  0  0  0  0  0  0  0  0
   55.4387   24.7452   46.5202 H   0  0  0  0  0  0  0  0  0  0  0  0
   55.4066   27.1774   46.0939 H   0  0  0  0  0  0  0  0  0  0  0  0
   55.4268   28.8231   44.0526 H   0  0  0  0  0  0  0  0  0  0  0  0
   55.6049   31.2808   43.7097 H   0  0  0  0  0  0  0  0  0  0  0  0
   58.2143   33.1336   43.4757 H   0  0  0  0  0  0  0  0  0  0  0  0
   56.6788   33.4011   44.3620 H   0  0  0  0  0  0  0  0  0  0  0  0
   57.6324   34.8649   46.8057 H   0  0  0  0  0  0  0  0  0  0  0  0
   56.6288   33.3813   46.5198 H   0  0  0  0  0  0  0  0  0  0  0  0
   57.5533   33.2794   48.7583 H   0  0  0  0  0  0  0  0  0  0  0  0
   58.3507   32.0452   47.7602 H   0  0  0  0  0  0  0  0  0  0  0  0
   59.4708   34.8914   48.0159 H   0  0  0  0  0  0  0  0  0  0  0  0
   59.8968   33.6220   49.1927 H   0  0  0  0  0  0  0  0  0  0  0  0
   61.5209   33.1570   47.6945 H   0  0  0  0  0  0  0  0  0  0  0  0
   60.1383   32.2798   46.8550 H   0  0  0  0  0  0  0  0  0  0  0  0
   61.2107   35.0162   46.2262 H   0  0  0  0  0  0  0  0  0  0  0  0
   61.3905   33.4687   45.2713 H   0  0  0  0  0  0  0  0  0  0  0  0
   59.1600   35.3705   45.4412 H   0  0  0  0  0  0  0  0  0  0  0  0
   59.6960   34.1990   44.1334 H   0  0  0  0  0  0  0  0  0  0  0  0
   59.4493   31.3277   45.5474 H   0  0  0  0  0  0  0  0  0  0  0  0
   59.3002   28.9089   45.9028 H   0  0  0  0  0  0  0  0  0  0  0  0
   59.3795   27.0477   44.4739 H   0  0  0  0  0  0  0  0  0  0  0  0
   59.4226   24.6243   44.8934 H   0  0  0  0  0  0  0  0  0  0  0  0
  1  2  1  0
  2  3  1  0
  2  4  1  0
  4  5  2  0
  4  6  2  0
  4  7  1  0
  7  8  2  0
  8  9  1  0
  9 10  2  0
 10 11  1  0
 11 12  2  0
 12 13  1  0
 13 14  2  0
 14 15  1  0
 15 16  1  0
 16 17  1  0
 17 18  1  0
 18 19  1  0
 19 20  1  0
 20 21  1  0
 21 22  1  0
 14 23  1  0
 23 24  2  0
 10 25  1  0
 25 26  2  0
 26  7  1  0
 24 11  1  0
 22 16  1  0
  1 27  1  0
  1 28  1  0
  1 29  1  0
  3 30  1  0
  3 31  1  0
  3 32  1  0
  8 33  1  0
  9 34  1  0
 12 35  1  0
 13 36  1  0
 15 37  1  0
 15 38  1  0
 17 39  1  0
 17 40  1  0
 18 41  1  0
 18 42  1  0
 19 43  1  0
 19 44  1  0
 20 45  1  0
 20 46  1  0
 21 47  1  0
 21 48  1  0
 22 49  1  0
 22 50  1  0
 23 51  1  0
 24 52  1  0
 25 53  1  0
 26 54  1  0
M  END
>  <smiles>  (47) 
CN(C)S(=O)(=O)c1ccc(-c2ccc(CN3CCCCCC3)cc2)cc1

>  <score_type>  (47) 
oracle

>  <origin>  (47) 
adg

>  <m_score__min__energy>  (47) 
-6.5700000000000003

>  <m_primary>  (47) 
energy

$$$$
