0:0
     RDKit          3D

 42 44  0  0  0  0  0  0  0  0999 V2000
   60.3270   33.6290   50.0150 C   0  0  0  0  0  0  0  0  0  0  0  0
   59.9310   34.2520   48.7980 O   0  0  0  0  0  0  0  0  0  0  0  0
   59.3820   33.5710   47.7020 C   0  0  0  0  0  0  0  0  0  0  0  0
   59.9630   32.3630   47.3110 C   0  0  0  0  0  0  0  0  0  0  0  0
   59.4530   31.6450   46.2260 C   0  0  0  0  0  0  0  0  0  0  0  0
   58.3430   32.1230   45.5010 C   0  0  0  0  0  0  0  0  0  0  0  0
   57.7960   31.3170   44.3210 C   0  0  2  0  0  0  0  0  0  0  0  0
   57.9810   32.0620   42.9930 C   0  0  0  0  0  0  0  0  0  0  0  0
   56.3720   31.0060   44.4950 N   0  0  0  0  0  0  0  0  0  0  0  0
   56.2430   29.5920   44.5580 C   0  0  0  0  0  0  0  0  0  0  0  0
   55.1440   29.0120   44.7600 O   0  0  0  0  0  0  0  0  0  0  0  0
   57.4690   28.9060   44.3920 N   0  0  0  0  0  0  0  0  0  0  0  0
   57.7430   27.5150   44.7560 C   0  0  0  0  0  0  0  0  0  0  0  0
   57.5140   27.2700   46.2270 C   0  0  0  0  0  0  0  0  0  0  0  0
   56.4280   26.7480   46.6040 O   0  0  0  0  0  0  0  0  0  0  0  0
   58.5390   27.6320   47.2440 C   0  0  0  0  0  0  0  0  0  0  0  0
   59.5490   26.7240   47.6270 C   0  0  0  0  0  0  0  0  0  0  0  0
   60.5020   27.0830   48.5840 C   0  0  0  0  0  0  0  0  0  0  0  0
   60.4650   28.3500   49.1710 C   0  0  0  0  0  0  0  0  0  0  0  0
   61.3920   28.6930   50.0990 F   0  0  0  0  0  0  0  0  0  0  0  0
   59.4720   29.2610   48.8020 C   0  0  0  0  0  0  0  0  0  0  0  0
   59.4340   30.4900   49.3720 F   0  0  0  0  0  0  0  0  0  0  0  0
   58.5160   28.9060   47.8450 C   0  0  0  0  0  0  0  0  0  0  0  0
   58.4270   29.9480   44.2670 C   0  0  0  0  0  0  0  0  0  0  0  0
   59.6610   29.7290   44.1250 O   0  0  0  0  0  0  0  0  0  0  0  0
   57.7610   33.3450   45.9010 C   0  0  0  0  0  0  0  0  0  0  0  0
   58.2740   34.0590   46.9870 C   0  0  0  0  0  0  0  0  0  0  0  0
   59.9533   34.2169   50.8664 H   0  0  0  0  0  0  0  0  0  0  0  0
   59.9089   32.6125   50.0596 H   0  0  0  0  0  0  0  0  0  0  0  0
   61.4248   33.5761   50.0596 H   0  0  0  0  0  0  0  0  0  0  0  0
   60.8309   31.9726   47.8626 H   0  0  0  0  0  0  0  0  0  0  0  0
   59.9239   30.6947   45.9341 H   0  0  0  0  0  0  0  0  0  0  0  0
   58.2416   33.1115   43.1946 H   0  0  0  0  0  0  0  0  0  0  0  0
   58.7887   31.5879   42.4160 H   0  0  0  0  0  0  0  0  0  0  0  0
   57.0454   32.0208   42.4160 H   0  0  0  0  0  0  0  0  0  0  0  0
   57.0784   26.8570   44.1769 H   0  0  0  0  0  0  0  0  0  0  0  0
   58.7989   27.3026   44.5323 H   0  0  0  0  0  0  0  0  0  0  0  0
   59.5865   25.7249   47.1683 H   0  0  0  0  0  0  0  0  0  0  0  0
   61.2834   26.3659   48.8758 H   0  0  0  0  0  0  0  0  0  0  0  0
   57.7380   29.6290   47.5586 H   0  0  0  0  0  0  0  0  0  0  0  0
   56.8937   33.7398   45.3515 H   0  0  0  0  0  0  0  0  0  0  0  0
   57.8077   35.0097   47.2847 H   0  0  0  0  0  0  0  0  0  0  0  0
  1  2  1  0
  2  3  1  0
  3  4  2  0
  4  5  1  0
  5  6  2  0
  6  7  1  0
  7  8  1  6
  7  9  1  0
  9 10  1  0
 10 11  2  0
 10 12  1  0
 12 13  1  0
 13 14  1  0
 14 15  2  0
 14 16  1  0
 16 17  2  0
 17 18  1  0
 18 19  2  0
 19 20  1  0
 19 21  1  0
 21 22  1  0
 21 23  2  0
 12 24  1  0
 24 25  2  0
  6 26  1  0
 26 27  2  0
 27  3  1  0
 24  7  1  0
 23 16  1  0
  1 28  1  0
  1 29  1  0
  1 30  1  0
  4 31  1  0
  5 32  1  0
  8 33  1  0
  8 34  1  0
  8 35  1  0
 13 36  1  0
 13 37  1  0
 17 38  1  0
 18 39  1  0
 23 40  1  0
 26 41  1  0
 27 42  1  0
M  CHG  1   9  -1
M  END
>  <UniqueID>  (1) 
1

>  <SMILES>  (1) 
COc1ccc([C@]2(C)[N-]C(=O)N(CC(=O)c3ccc(F)c(F)c3)C2=O)cc1

>  <Energy>  (1) 
65.74583687639132

>  <Genealogy>  (1) 
COc1ccc(C2(C)[N-]C(=O)N(CC(=O)c3ccc(F)c(F)c3)C2=O)cc1 (protonated)
COc1ccc([C@]2(C)[N-]C(=O)N(CC(=O)c3ccc(F)c(F)c3)C2=O)cc1 (chirality)
COc1ccc([C@]2(C)[N-]C(=O)N(CC(=O)c3ccc(F)c(F)c3)C2=O)cc1 (3D coordinates assigned)
COc1ccc([C@]2(C)[N-]C(=O)N(CC(=O)c3ccc(F)c(F)c3)C2=O)cc1 (nonaromatic ring conformer: 65.74583687639132 kcal/mol)

>  <smiles>  (1) 
COc1ccc(C2(C)NC(=O)N(CC(=O)c3ccc(F)c(F)c3)C2=O)cc1

>  <score_type>  (1) 
oracle

>  <origin>  (1) 
adg

>  <m_score__min__energy>  (1) 
-9.4299999999999997

>  <m_primary>  (1) 
energy

$$$$
1:0
     RDKit          3D

 38 40  0  0  1  0  0  0  0  0999 V2000
   57.0660   21.1440   43.0270 C   0  0  0  0  0  0  0  0  0  0  0  0
   55.9580   21.9620   43.3840 O   0  0  0  0  0  0  0  0  0  0  0  0
   56.2240   23.1460   44.1000 C   0  0  0  0  0  0  0  0  0  0  0  0
   55.2510   23.7310   44.8970 C   0  0  0  0  0  0  0  0  0  0  0  0
   55.5120   24.9100   45.6100 C   0  0  0  0  0  0  0  0  0  0  0  0
   56.7430   25.5110   45.5320 C   0  0  0  0  0  0  0  0  0  0  0  0
   57.1140   26.7030   46.1810 N   0  0  0  0  0  0  0  0  0  0  0  0
   57.0190   28.0180   45.7050 C   0  0  0  0  0  0  0  0  0  0  0  0
   58.1220   28.8690   45.8910 C   0  0  0  0  0  0  0  0  0  0  0  0
   58.1050   30.1630   45.4330 C   0  0  0  0  0  0  0  0  0  0  0  0
   59.1000   30.9250   45.5950 N   0  0  0  0  0  0  0  0  0  0  0  0
   59.0890   32.2700   46.0440 C   0  0  0  0  0  0  0  0  0  0  0  0
   59.3320   32.6340   47.3540 C   0  0  0  0  0  0  0  0  0  0  0  0
   59.3140   33.9680   47.6900 C   0  0  0  0  0  0  0  0  0  0  0  0
   59.0540   34.9530   46.7390 C   0  0  0  0  0  0  0  0  0  0  0  0
   58.8110   34.6040   45.4330 C   0  0  0  0  0  0  0  0  0  0  0  0
   58.8340   33.2590   45.1210 C   0  0  0  0  0  0  0  0  0  0  0  0
   57.0240   30.6690   44.7860 N   0  0  0  0  0  0  0  0  0  0  0  0
   55.9520   29.8330   44.6070 C   0  0  0  0  0  0  0  0  0  0  0  0
   55.9830   28.5560   45.0640 N   0  0  0  0  0  0  0  0  0  0  0  0
   57.6880   24.9000   44.7300 C   0  0  0  0  0  0  0  0  0  0  0  0
   57.4590   23.7470   44.0220 C   0  0  0  0  0  0  0  0  0  0  0  0
   57.5609   20.7786   43.9389 H   0  0  0  0  0  0  0  0  0  0  0  0
   56.7134   20.2879   42.4330 H   0  0  0  0  0  0  0  0  0  0  0  0
   57.7803   21.7330   42.4330 H   0  0  0  0  0  0  0  0  0  0  0  0
   54.2585   23.2625   44.9709 H   0  0  0  0  0  0  0  0  0  0  0  0
   54.7248   25.3558   46.2358 H   0  0  0  0  0  0  0  0  0  0  0  0
   57.5170   26.5770   47.1620 H   0  0  0  0  0  0  0  0  0  0  0  0
   59.0141   28.4917   46.4124 H   0  0  0  0  0  0  0  0  0  0  0  0
   59.5368   31.8688   48.1172 H   0  0  0  0  0  0  0  0  0  0  0  0
   59.5090   34.2634   48.7315 H   0  0  0  0  0  0  0  0  0  0  0  0
   59.0434   36.0124   47.0350 H   0  0  0  0  0  0  0  0  0  0  0  0
   58.6062   35.3656   44.6661 H   0  0  0  0  0  0  0  0  0  0  0  0
   58.6382   32.9622   44.0800 H   0  0  0  0  0  0  0  0  0  0  0  0
   55.0560   30.2022   44.0865 H   0  0  0  0  0  0  0  0  0  0  0  0
   55.1400   27.9890   44.8770 H   0  0  0  0  0  0  0  0  0  0  0  0
   58.6820   25.3651   44.6547 H   0  0  0  0  0  0  0  0  0  0  0  0
   58.2532   23.3087   43.3998 H   0  0  0  0  0  0  0  0  0  0  0  0
  1  2  1  0
  2  3  1  0
  3  4  2  0
  4  5  1  0
  5  6  2  0
  6  7  1  0
  7  8  1  0
  8  9  2  0
  9 10  1  0
 10 11  2  0
 11 12  1  0
 12 13  2  0
 13 14  1  0
 14 15  2  0
 15 16  1  0
 16 17  2  0
 10 18  1  0
 18 19  2  0
 19 20  1  0
  6 21  1  0
 21 22  2  0
 22  3  1  0
 20  8  1  0
 17 12  1  0
  1 23  1  0
  1 24  1  0
  1 25  1  0
  4 26  1  0
  5 27  1  0
  7 28  1  0
  9 29  1  0
 13 30  1  0
 14 31  1  0
 15 32  1  0
 16 33  1  0
 17 34  1  0
 19 35  1  0
 20 36  1  0
 21 37  1  0
 22 38  1  0
M  END
>  <smiles>  (2) 
COc1ccc(Nc2cc(=Nc3ccccc3)nc[nH]2)cc1

>  <score_type>  (2) 
oracle

>  <origin>  (2) 
adg

>  <m_score__min__energy>  (2) 
-7.8600000000000003

>  <m_primary>  (2) 
energy

$$$$
2:0
     RDKit          3D

 42 44  0  0  0  0  0  0  0  0999 V2000
   55.2710   30.1170   45.6100 H   0  0  0  0  0  0  0  0  0  0  0  0
   55.1370   29.3750   44.9630 O   0  0  0  0  0  0  0  0  0  0  0  0
   56.3450   28.6610   44.9130 C   0  0  0  0  0  0  0  0  0  0  0  0
   56.6062   28.4686   43.8619 H   0  0  0  0  0  0  0  0  0  0  0  0
   56.1980   27.4450   45.5940 O   0  0  0  0  0  0  0  0  0  0  0  0
   56.2830   26.7290   44.9130 H   0  0  0  0  0  0  0  0  0  0  0  0
   57.4400   29.4620   45.5580 C   0  0  0  0  0  0  0  0  0  0  0  0
   57.3740   30.8170   45.5450 N   0  0  0  0  0  0  0  0  0  0  0  0
   58.3350   31.6080   46.0970 C   0  0  0  0  0  0  0  0  0  0  0  0
   59.4640   31.0110   46.7070 C   0  0  0  0  0  0  0  0  0  0  0  0
   60.5730   31.8530   46.9320 C   0  0  0  0  0  0  0  0  0  0  0  0
   61.7200   31.3590   47.0890 O   0  0  0  0  0  0  0  0  0  0  0  0
   60.4340   33.2140   46.8690 N   0  0  0  0  0  0  0  0  0  0  0  0
   61.5810   34.0820   47.1870 C   0  0  0  0  0  0  0  0  0  0  0  0
   61.6880   34.1630   48.2788 H   0  0  0  0  0  0  0  0  0  0  0  0
   62.4977   33.6494   46.7598 H   0  0  0  0  0  0  0  0  0  0  0  0
   61.4138   35.0818   46.7598 H   0  0  0  0  0  0  0  0  0  0  0  0
   59.2700   33.7680   46.4040 C   0  0  0  0  0  0  0  0  0  0  0  0
   59.1730   35.0250   46.3000 O   0  0  0  0  0  0  0  0  0  0  0  0
   58.2270   32.9710   46.0130 N   0  0  0  0  0  0  0  0  0  0  0  0
   57.0190   33.5760   45.4200 C   0  0  0  0  0  0  0  0  0  0  0  0
   56.3461   33.9130   46.2223 H   0  0  0  0  0  0  0  0  0  0  0  0
   57.3073   34.4361   44.7978 H   0  0  0  0  0  0  0  0  0  0  0  0
   56.5029   32.8300   44.7978 H   0  0  0  0  0  0  0  0  0  0  0  0
   59.4450   29.5930   46.9160 C   0  0  0  0  0  0  0  0  0  0  0  0
   60.1450   28.9470   47.8150 N   0  0  0  0  0  0  0  0  0  0  0  0
   60.0240   28.8900   49.2690 C   0  0  0  0  0  0  0  0  0  0  0  0
   59.1590   28.2687   49.5442 H   0  0  0  0  0  0  0  0  0  0  0  0
   60.9336   28.4496   49.7035 H   0  0  0  0  0  0  0  0  0  0  0  0
   59.8310   30.2850   49.7920 C   0  0  0  0  0  0  0  0  0  0  0  0
   58.5400   30.7810   50.0350 C   0  0  0  0  0  0  0  0  0  0  0  0
   57.6651   30.1348   49.8707 H   0  0  0  0  0  0  0  0  0  0  0  0
   58.3620   32.0930   50.4850 C   0  0  0  0  0  0  0  0  0  0  0  0
   57.3489   32.4728   50.6835 H   0  0  0  0  0  0  0  0  0  0  0  0
   59.4700   32.9230   50.6830 C   0  0  0  0  0  0  0  0  0  0  0  0
   59.3283   33.9535   51.0409 H   0  0  0  0  0  0  0  0  0  0  0  0
   60.7580   32.4430   50.4260 C   0  0  0  0  0  0  0  0  0  0  0  0
   62.1470   33.4880   50.6620 Cl  0  0  0  0  0  0  0  0  0  0  0  0
   60.9380   31.1300   49.9760 C   0  0  0  0  0  0  0  0  0  0  0  0
   61.9515   30.7578   49.7653 H   0  0  0  0  0  0  0  0  0  0  0  0
   58.4790   28.8340   46.2460 C   0  0  0  0  0  0  0  0  0  0  0  0
   58.5390   27.7358   46.2618 H   0  0  0  0  0  0  0  0  0  0  0  0
  1  2  1  0
  2  3  1  0
  3  4  1  0
  3  5  1  0
  5  6  1  0
  3  7  1  0
  7  8  1  0
  8  9  1  0
  9 10  2  0
 10 11  1  0
 11 12  2  0
 11 13  1  0
 13 14  1  0
 14 15  1  0
 14 16  1  0
 14 17  1  0
 13 18  1  0
 18 19  2  0
 18 20  1  0
 20 21  1  0
 21 22  1  0
 21 23  1  0
 21 24  1  0
 10 25  1  0
 25 26  2  0
 26 27  1  0
 27 28  1  0
 27 29  1  0
 27 30  1  0
 30 31  2  0
 31 32  1  0
 31 33  1  0
 33 34  1  0
 33 35  2  0
 35 36  1  0
 35 37  1  0
 37 38  1  0
 37 39  2  0
 39 40  1  0
 25 41  1  0
 41 42  1  0
 41  7  2  0
 20  9  1  0
 39 30  1  0
M  CHG  1   8  -1
M  END
>  <UniqueID>  (3) 
2

>  <SMILES>  (3) 
Cn1c(=O)c2/c(=N\Cc3cccc(Cl)c3)cc(C(O)O)[n-]c2n(C)c1=O

>  <Energy>  (3) 
76.83320769227058

>  <Genealogy>  (3) 
Cn1c(=O)c2c(=NCc3cccc(Cl)c3)cc(C(O)O)[n-]c2n(C)c1=O (protonated)
Cn1c(=O)c2/c(=N\Cc3cccc(Cl)c3)cc(C(O)O)[n-]c2n(C)c1=O (cis-trans isomerization)
Cn1c(=O)c2/c(=N\Cc3cccc(Cl)c3)cc(C(O)O)[n-]c2n(C)c1=O (3D coordinates assigned)
Cn1c(=O)c2/c(=N\Cc3cccc(Cl)c3)cc(C(O)O)[n-]c2n(C)c1=O (optimized conformer: 76.83320769227058 kcal/mol)

>  <smiles>  (3) 
Cn1c(=O)c2c(=NCc3cccc(Cl)c3)cc(C(O)O)[nH]c2n(C)c1=O

>  <score_type>  (3) 
oracle

>  <origin>  (3) 
adg

>  <m_score__min__energy>  (3) 
-8.9700000000000006

>  <m_primary>  (3) 
energy

$$$$
3:0
     RDKit          3D

 39 41  0  0  0  0  0  0  0  0999 V2000
   62.7690   31.6070   48.6380 C   0  0  0  0  0  0  0  0  0  0  0  0
   61.8920   30.4980   48.8060 O   0  0  0  0  0  0  0  0  0  0  0  0
   60.7900   30.2260   47.9810 C   0  0  0  0  0  0  0  0  0  0  0  0
   60.7770   30.5620   46.6150 C   0  0  0  0  0  0  0  0  0  0  0  0
   59.6520   30.2720   45.8450 C   0  0  0  0  0  0  0  0  0  0  0  0
   58.5380   29.6610   46.4320 C   0  0  0  0  0  0  0  0  0  0  0  0
   57.3390   29.3350   45.6370 C   0  0  0  0  0  0  0  0  0  0  0  0
   56.9100   28.1520   45.6370 O   0  0  0  0  0  0  0  0  0  0  0  0
   56.6270   30.3250   44.8830 N   0  0  0  0  0  0  0  0  0  0  0  0
   57.1720   31.5870   44.3820 C   0  0  0  0  0  0  0  0  0  0  0  0
   56.7110   32.7800   45.2280 C   0  0  0  0  0  0  0  0  0  0  0  0
   57.8740   33.5860   45.7270 C   0  0  0  0  0  0  0  0  0  0  0  0
   58.6150   34.5110   44.9980 C   0  0  0  0  0  0  0  0  0  0  0  0
   59.6310   34.9970   45.7460 N   0  0  0  0  0  0  0  0  0  0  0  0
   59.5440   34.3810   46.9370 C   0  0  0  0  0  0  0  0  0  0  0  0
   60.3870   34.5420   48.0370 C   0  0  0  0  0  0  0  0  0  0  0  0
   60.1190   33.7770   49.1870 C   0  0  0  0  0  0  0  0  0  0  0  0
   59.0310   32.8760   49.2120 C   0  0  0  0  0  0  0  0  0  0  0  0
   58.1990   32.7320   48.0860 C   0  0  0  0  0  0  0  0  0  0  0  0
   58.4860   33.5080   46.9630 C   0  0  0  0  0  0  0  0  0  0  0  0
   58.5960   29.3220   47.7900 C   0  0  0  0  0  0  0  0  0  0  0  0
   59.7020   29.6140   48.5260 N   0  0  0  0  0  0  0  0  0  0  0  0
   63.0708   31.9886   49.6246 H   0  0  0  0  0  0  0  0  0  0  0  0
   63.6614   31.2875   48.0798 H   0  0  0  0  0  0  0  0  0  0  0  0
   62.2524   32.4017   48.0798 H   0  0  0  0  0  0  0  0  0  0  0  0
   61.6497   31.0508   46.1572 H   0  0  0  0  0  0  0  0  0  0  0  0
   59.6396   30.5237   44.7743 H   0  0  0  0  0  0  0  0  0  0  0  0
   58.2705   31.5357   44.4069 H   0  0  0  0  0  0  0  0  0  0  0  0
   56.8072   31.7340   43.3547 H   0  0  0  0  0  0  0  0  0  0  0  0
   56.0668   33.4258   44.6132 H   0  0  0  0  0  0  0  0  0  0  0  0
   56.1623   32.3923   46.0990 H   0  0  0  0  0  0  0  0  0  0  0  0
   58.4039   34.8054   43.9594 H   0  0  0  0  0  0  0  0  0  0  0  0
   60.3450   35.6990   45.4500 H   0  0  0  0  0  0  0  0  0  0  0  0
   61.2334   35.2440   48.0062 H   0  0  0  0  0  0  0  0  0  0  0  0
   60.7616   33.8812   50.0737 H   0  0  0  0  0  0  0  0  0  0  0  0
   58.8329   32.2833   50.1173 H   0  0  0  0  0  0  0  0  0  0  0  0
   57.3511   32.0312   48.0914 H   0  0  0  0  0  0  0  0  0  0  0  0
   57.7418   28.8165   48.2641 H   0  0  0  0  0  0  0  0  0  0  0  0
   59.7140   29.3600   49.5390 H   0  0  0  0  0  0  0  0  0  0  0  0
  1  2  1  0
  2  3  1  0
  3  4  2  0
  4  5  1  0
  5  6  2  0
  6  7  1  0
  7  8  2  0
  7  9  1  0
  9 10  1  0
 10 11  1  0
 11 12  1  0
 12 13  2  0
 13 14  1  0
 14 15  1  0
 15 16  2  0
 16 17  1  0
 17 18  2  0
 18 19  1  0
 19 20  2  0
  6 21  1  0
 21 22  2  0
 22  3  1  0
 20 12  1  0
 20 15  1  0
  1 23  1  0
  1 24  1  0
  1 25  1  0
  4 26  1  0
  5 27  1  0
 10 28  1  0
 10 29  1  0
 11 30  1  0
 11 31  1  0
 13 32  1  0
 14 33  1  0
 16 34  1  0
 17 35  1  0
 18 36  1  0
 19 37  1  0
 21 38  1  0
 22 39  1  0
M  CHG  2   9  -1  22   1
M  END
>  <UniqueID>  (4) 
3

>  <SMILES>  (4) 
COc1ccc(C(=O)[N-]CCc2c[nH]c3ccccc23)c[nH+]1

>  <Energy>  (4) 
74.23778569973872

>  <Genealogy>  (4) 
COc1ccc(C(=O)[N-]CCc2c[nH]c3ccccc23)c[nH+]1 (protonated)
COc1ccc(C(=O)[N-]CCc2c[nH]c3ccccc23)c[nH+]1 (3D coordinates assigned)
COc1ccc(C(=O)[N-]CCc2c[nH]c3ccccc23)c[nH+]1 (optimized conformer: 74.23778569973872 kcal/mol)

>  <smiles>  (4) 
COc1ccc(C(=O)NCCc2c[nH]c3ccccc23)cn1

>  <score_type>  (4) 
oracle

>  <origin>  (4) 
adg

>  <m_score__min__energy>  (4) 
-7.29

>  <m_primary>  (4) 
energy

$$$$
4:0
     RDKit          3D

 36 37  0  0  0  0  0  0  0  0999 V2000
   60.5810   34.4890   48.9350 C   0  0  0  0  0  0  0  0  0  0  0  0
   59.9500   34.9470   47.7440 O   0  0  0  0  0  0  0  0  0  0  0  0
   59.2200   34.1270   46.8700 C   0  0  0  0  0  0  0  0  0  0  0  0
   58.8160   34.5550   45.5920 C   0  0  0  0  0  0  0  0  0  0  0  0
   58.0940   33.6990   44.7550 C   0  0  0  0  0  0  0  0  0  0  0  0
   57.7630   32.3990   45.1780 C   0  0  0  0  0  0  0  0  0  0  0  0
   57.0320   31.4780   44.2800 C   0  0  0  0  0  0  0  0  0  0  0  0
   57.0410   31.6720   43.0330 O   0  0  0  0  0  0  0  0  0  0  0  0
   56.2990   30.3730   44.8230 N   0  0  0  0  0  0  0  0  0  0  0  0
   56.5080   28.9870   44.4220 C   0  0  0  0  0  0  0  0  0  0  0  0
   56.7940   28.0910   45.6360 C   0  0  0  0  0  0  0  0  0  0  0  0
   57.2360   26.7510   45.2400 N   0  0  0  0  0  0  0  0  0  0  0  0
   56.1420   25.4950   45.7520 S   0  0  0  0  0  0  0  0  0  0  0  0
   56.4100   25.1810   47.1960 O   0  0  0  0  0  0  0  0  0  0  0  0
   54.7270   25.9870   45.6270 O   0  0  0  0  0  0  0  0  0  0  0  0
   56.3340   24.0140   44.8240 C   0  0  0  0  0  0  0  0  0  0  0  0
   56.2570   23.9070   43.4440 C   0  0  0  0  0  0  0  0  0  0  0  0
   56.4380   22.5990   42.9850 C   0  0  0  0  0  0  0  0  0  0  0  0
   56.6400   21.6750   44.0030 C   0  0  0  0  0  0  0  0  0  0  0  0
   56.5950   22.4880   45.4770 S   0  0  0  0  0  0  0  0  0  0  0  0
   58.1650   31.9780   46.4580 C   0  0  0  0  0  0  0  0  0  0  0  0
   58.8880   32.8360   47.2920 C   0  0  0  0  0  0  0  0  0  0  0  0
   60.0413   34.8807   49.8098 H   0  0  0  0  0  0  0  0  0  0  0  0
   60.5671   33.3893   48.9578 H   0  0  0  0  0  0  0  0  0  0  0  0
   61.6222   34.8430   48.9578 H   0  0  0  0  0  0  0  0  0  0  0  0
   59.0697   35.5690   45.2494 H   0  0  0  0  0  0  0  0  0  0  0  0
   57.7825   34.0447   43.7583 H   0  0  0  0  0  0  0  0  0  0  0  0
   55.6044   28.6215   43.9121 H   0  0  0  0  0  0  0  0  0  0  0  0
   57.3776   28.9479   43.7496 H   0  0  0  0  0  0  0  0  0  0  0  0
   57.5818   28.5590   46.2445 H   0  0  0  0  0  0  0  0  0  0  0  0
   55.8594   27.9847   46.2064 H   0  0  0  0  0  0  0  0  0  0  0  0
   56.0725   24.7633   42.7786 H   0  0  0  0  0  0  0  0  0  0  0  0
   56.4220   22.3271   41.9193 H   0  0  0  0  0  0  0  0  0  0  0  0
   56.8019   20.5953   43.8687 H   0  0  0  0  0  0  0  0  0  0  0  0
   57.9088   30.9663   46.8056 H   0  0  0  0  0  0  0  0  0  0  0  0
   59.1986   32.4922   48.2897 H   0  0  0  0  0  0  0  0  0  0  0  0
  1  2  1  0
  2  3  1  0
  3  4  2  0
  4  5  1  0
  5  6  2  0
  6  7  1  0
  7  8  2  0
  7  9  1  0
  9 10  1  0
 10 11  1  0
 11 12  1  0
 12 13  1  0
 13 14  2  0
 13 15  2  0
 13 16  1  0
 16 17  2  0
 17 18  1  0
 18 19  2  0
 19 20  1  0
  6 21  1  0
 21 22  2  0
 22  3  1  0
 20 16  1  0
  1 23  1  0
  1 24  1  0
  1 25  1  0
  4 26  1  0
  5 27  1  0
 10 28  1  0
 10 29  1  0
 11 30  1  0
 11 31  1  0
 17 32  1  0
 18 33  1  0
 19 34  1  0
 21 35  1  0
 22 36  1  0
M  CHG  2   9  -1  12  -1
M  END
>  <UniqueID>  (5) 
4

>  <SMILES>  (5) 
COc1ccc(C(=O)[N-]CC[N-]S(=O)(=O)c2cccs2)cc1

>  <Energy>  (5) 
57.34592131897859

>  <Genealogy>  (5) 
COc1ccc(C(=O)[N-]CC[N-]S(=O)(=O)c2cccs2)cc1 (protonated)
COc1ccc(C(=O)[N-]CC[N-]S(=O)(=O)c2cccs2)cc1 (3D coordinates assigned)
COc1ccc(C(=O)[N-]CC[N-]S(=O)(=O)c2cccs2)cc1 (optimized conformer: 57.34592131897859 kcal/mol)

>  <smiles>  (5) 
COc1ccc(C(=O)NCCNS(=O)(=O)c2cccs2)cc1

>  <score_type>  (5) 
oracle

>  <origin>  (5) 
adg

>  <m_score__min__energy>  (5) 
-10.359999999999999

>  <m_primary>  (5) 
energy

$$$$
5:0
     RDKit          3D

 27 28  0  0  0  0  0  0  0  0999 V2000
   55.1580   28.9770   44.6200 N   0  0  0  0  0  0  0  0  0  0  0  0
   56.4340   30.0910   44.2770 S   0  0  0  0  0  0  0  0  0  0  0  0
   56.8180   29.9940   42.8290 O   0  0  0  0  0  0  0  0  0  0  0  0
   55.9240   31.4780   44.5490 O   0  0  0  0  0  0  0  0  0  0  0  0
   57.8500   29.7680   45.2910 C   0  0  0  0  0  0  0  0  0  0  0  0
   58.0770   28.4480   45.7180 C   0  0  0  0  0  0  0  0  0  0  0  0
   59.2010   28.1270   46.4790 C   0  0  0  0  0  0  0  0  0  0  0  0
   60.1190   29.1190   46.8200 C   0  0  0  0  0  0  0  0  0  0  0  0
   59.9060   30.4370   46.4150 C   0  0  0  0  0  0  0  0  0  0  0  0
   58.7650   30.7810   45.6740 C   0  0  0  0  0  0  0  0  0  0  0  0
   58.5550   32.5130   45.2200 S   0  0  0  0  0  0  0  0  0  0  0  0
   59.5140   33.1380   46.6040 C   0  0  0  0  0  0  0  0  0  0  0  0
   60.8860   33.3800   46.4570 C   0  0  0  0  0  0  0  0  0  0  0  0
   61.6350   33.8600   47.5360 C   0  0  0  0  0  0  0  0  0  0  0  0
   61.0170   34.0870   48.7700 C   0  0  0  0  0  0  0  0  0  0  0  0
   59.6530   33.8250   48.9280 C   0  0  0  0  0  0  0  0  0  0  0  0
   58.9040   33.3430   47.8480 C   0  0  0  0  0  0  0  0  0  0  0  0
   54.6460   29.3460   45.4530 H   0  0  0  0  0  0  0  0  0  0  0  0
   57.3596   27.6588   45.4487 H   0  0  0  0  0  0  0  0  0  0  0  0
   59.3631   27.0906   46.8102 H   0  0  0  0  0  0  0  0  0  0  0  0
   61.0120   28.8625   47.4088 H   0  0  0  0  0  0  0  0  0  0  0  0
   60.6391   31.2135   46.6789 H   0  0  0  0  0  0  0  0  0  0  0  0
   61.3756   33.1919   45.4901 H   0  0  0  0  0  0  0  0  0  0  0  0
   62.7100   34.0590   47.4142 H   0  0  0  0  0  0  0  0  0  0  0  0
   61.6045   34.4719   49.6166 H   0  0  0  0  0  0  0  0  0  0  0  0
   59.1685   33.9975   49.9004 H   0  0  0  0  0  0  0  0  0  0  0  0
   57.8336   33.1247   47.9767 H   0  0  0  0  0  0  0  0  0  0  0  0
  1  2  1  0
  2  3  2  0
  2  4  2  0
  2  5  1  0
  5  6  2  0
  6  7  1  0
  7  8  2  0
  8  9  1  0
  9 10  2  0
 10 11  1  0
 11 12  1  0
 12 13  2  0
 13 14  1  0
 14 15  2  0
 15 16  1  0
 16 17  2  0
 10  5  1  0
 17 12  1  0
  1 18  1  0
  6 19  1  0
  7 20  1  0
  8 21  1  0
  9 22  1  0
 13 23  1  0
 14 24  1  0
 15 25  1  0
 16 26  1  0
 17 27  1  0
M  CHG  1   1  -1
M  END
>  <UniqueID>  (6) 
5

>  <SMILES>  (6) 
[NH-]S(=O)(=O)c1ccccc1Sc1ccccc1

>  <Energy>  (6) 
26.133948947402843

>  <Genealogy>  (6) 
[NH-]S(=O)(=O)c1ccccc1Sc1ccccc1 (protonated)
[NH-]S(=O)(=O)c1ccccc1Sc1ccccc1 (3D coordinates assigned)
[NH-]S(=O)(=O)c1ccccc1Sc1ccccc1 (optimized conformer: 26.133948947402843 kcal/mol)

>  <smiles>  (6) 
NS(=O)(=O)c1ccccc1Sc1ccccc1

>  <score_type>  (6) 
oracle

>  <origin>  (6) 
adg

>  <m_score__min__energy>  (6) 
-10.039999999999999

>  <m_primary>  (6) 
energy

$$$$
6:0
     RDKit          3D

 42 44  0  0  0  0  0  0  0  0999 V2000
   59.0560   32.9030   50.9820 C   0  0  0  0  0  0  0  0  0  0  0  0
   59.5870   33.6690   49.9060 O   0  0  0  0  0  0  0  0  0  0  0  0
   59.2640   33.4660   48.5560 C   0  0  0  0  0  0  0  0  0  0  0  0
   58.8070   32.2040   48.1640 C   0  0  0  0  0  0  0  0  0  0  0  0
   58.4710   31.9510   46.8320 C   0  0  0  0  0  0  0  0  0  0  0  0
   58.5790   32.9630   45.8630 C   0  0  0  0  0  0  0  0  0  0  0  0
   58.2240   32.6790   44.4520 C   0  0  0  0  0  0  0  0  0  0  0  0
   58.5690   33.4950   43.5530 O   0  0  0  0  0  0  0  0  0  0  0  0
   57.5080   31.4860   44.0890 N   0  0  0  0  0  0  0  0  0  0  0  0
   57.0610   31.2270   42.7210 C   0  0  0  0  0  0  0  0  0  0  0  0
   56.3970   29.8490   42.6270 C   0  0  0  0  0  0  0  0  0  0  0  0
   55.1510   29.7530   43.5110 C   0  0  0  0  0  0  0  0  0  0  0  0
   55.5350   29.5250   44.9010 N   0  0  0  0  0  0  0  0  0  0  0  0
   56.3390   28.5790   45.2780 C   0  0  0  0  0  0  0  0  0  0  0  0
   55.9130   27.3320   45.6190 N   0  0  0  0  0  0  0  0  0  0  0  0
   57.0620   26.7150   45.9290 C   0  0  0  0  0  0  0  0  0  0  0  0
   57.2360   25.4000   46.3520 C   0  0  0  0  0  0  0  0  0  0  0  0
   58.5490   24.9690   46.6220 C   0  0  0  0  0  0  0  0  0  0  0  0
   59.6400   25.8540   46.4610 C   0  0  0  0  0  0  0  0  0  0  0  0
   59.4250   27.1770   46.0310 C   0  0  0  0  0  0  0  0  0  0  0  0
   58.1130   27.5690   45.7730 C   0  0  0  0  0  0  0  0  0  0  0  0
   57.6810   28.7680   45.3580 N   0  0  0  0  0  0  0  0  0  0  0  0
   59.0510   34.2290   46.2550 C   0  0  0  0  0  0  0  0  0  0  0  0
   59.3880   34.4800   47.5880 C   0  0  0  0  0  0  0  0  0  0  0  0
   59.3658   33.3499   51.9382 H   0  0  0  0  0  0  0  0  0  0  0  0
   57.9578   32.8953   50.9196 H   0  0  0  0  0  0  0  0  0  0  0  0
   59.4341   31.8719   50.9196 H   0  0  0  0  0  0  0  0  0  0  0  0
   58.7112   31.4028   48.9116 H   0  0  0  0  0  0  0  0  0  0  0  0
   58.1188   30.9509   46.5390 H   0  0  0  0  0  0  0  0  0  0  0  0
   57.3070   30.7580   44.8090 H   0  0  0  0  0  0  0  0  0  0  0  0
   56.3362   31.9994   42.4243 H   0  0  0  0  0  0  0  0  0  0  0  0
   57.9330   31.2490   42.0508 H   0  0  0  0  0  0  0  0  0  0  0  0
   56.1065   29.6650   41.5821 H   0  0  0  0  0  0  0  0  0  0  0  0
   57.1208   29.0978   42.9761 H   0  0  0  0  0  0  0  0  0  0  0  0
   54.5823   30.6920   43.4405 H   0  0  0  0  0  0  0  0  0  0  0  0
   54.5312   28.9117   43.1674 H   0  0  0  0  0  0  0  0  0  0  0  0
   56.3782   24.7218   46.4711 H   0  0  0  0  0  0  0  0  0  0  0  0
   58.7271   23.9376   46.9602 H   0  0  0  0  0  0  0  0  0  0  0  0
   60.6620   25.5068   46.6729 H   0  0  0  0  0  0  0  0  0  0  0  0
   60.2637   27.8772   45.9031 H   0  0  0  0  0  0  0  0  0  0  0  0
   59.1557   35.0280   45.5062 H   0  0  0  0  0  0  0  0  0  0  0  0
   59.7521   35.4755   47.8821 H   0  0  0  0  0  0  0  0  0  0  0  0
  1  2  1  0
  2  3  1  0
  3  4  2  0
  4  5  1  0
  5  6  2  0
  6  7  1  0
  7  8  2  0
  7  9  1  0
  9 10  1  0
 10 11  1  0
 11 12  1  0
 12 13  1  0
 13 14  2  3
 14 15  1  0
 15 16  1  0
 16 17  2  0
 17 18  1  0
 18 19  2  0
 19 20  1  0
 20 21  2  0
 21 22  1  0
  6 23  1  0
 23 24  2  0
 24  3  1  0
 22 14  1  0
 21 16  1  0
  1 25  1  0
  1 26  1  0
  1 27  1  0
  4 28  1  0
  5 29  1  0
  9 30  1  0
 10 31  1  0
 10 32  1  0
 11 33  1  0
 11 34  1  0
 12 35  1  0
 12 36  1  0
 17 37  1  0
 18 38  1  0
 19 39  1  0
 20 40  1  0
 23 41  1  0
 24 42  1  0
M  CHG  2  15  -1  22  -1
M  END
>  <UniqueID>  (7) 
6

>  <SMILES>  (7) 
COc1ccc(C(=O)NCCCN=c2[n-]c3ccccc3[n-]2)cc1

>  <Energy>  (7) 
74.29603385382069

>  <Genealogy>  (7) 
COc1ccc(C(=O)NCCCN=c2[n-]c3ccccc3[n-]2)cc1 (protonated)
COc1ccc(C(=O)NCCCN=c2[n-]c3ccccc3[n-]2)cc1 (3D coordinates assigned)
COc1ccc(C(=O)NCCCN=c2[n-]c3ccccc3[n-]2)cc1 (optimized conformer: 74.29603385382069 kcal/mol)

>  <smiles>  (7) 
COc1ccc(C(=O)NCCCN=c2[nH]c3ccccc3[nH]2)cc1

>  <score_type>  (7) 
oracle

>  <origin>  (7) 
adg

>  <m_score__min__energy>  (7) 
-10.109999999999999

>  <m_primary>  (7) 
energy

$$$$
7:0
     RDKit          3D

 45 47  0  0  0  0  0  0  0  0999 V2000
   56.8120   28.2450   45.2300 C   0  0  0  0  0  0  0  0  0  0  0  0
   56.1190   29.4220   44.8350 O   0  0  0  0  0  0  0  0  0  0  0  0
   56.7780   30.5730   44.3900 C   0  0  0  0  0  0  0  0  0  0  0  0
   56.8390   30.8440   43.0250 C   0  0  0  0  0  0  0  0  0  0  0  0
   57.5230   31.9870   42.5980 C   0  0  0  0  0  0  0  0  0  0  0  0
   57.5960   32.3170   41.1360 C   0  0  0  0  0  0  0  0  0  0  0  0
   58.0780   32.8250   43.5190 N   0  0  0  0  0  0  0  0  0  0  0  0
   57.9910   32.5570   44.8550 C   0  0  0  0  0  0  0  0  0  0  0  0
   58.6020   33.4280   45.8240 N   0  0  0  0  0  0  0  0  0  0  0  0
   58.1230   33.3910   47.2140 C   0  0  0  0  0  0  0  0  0  0  0  0
   59.0190   34.2240   48.1440 C   0  0  0  0  0  0  0  0  0  0  0  0
   60.4330   34.0590   47.7760 N   0  0  0  0  0  0  0  0  0  0  0  0
   61.4380   33.9210   48.7960 C   0  0  0  0  0  0  0  0  0  0  0  0
   62.5080   34.5820   48.7130 O   0  0  0  0  0  0  0  0  0  0  0  0
   61.2390   33.0670   49.9280 N   0  0  0  0  0  0  0  0  0  0  0  0
   59.9770   32.8070   50.5580 C   0  0  0  0  0  0  0  0  0  0  0  0
   59.5120   33.6920   51.5390 C   0  0  0  0  0  0  0  0  0  0  0  0
   58.2900   33.4590   52.1780 C   0  0  0  0  0  0  0  0  0  0  0  0
   57.5320   32.3310   51.8500 C   0  0  0  0  0  0  0  0  0  0  0  0
   56.3470   32.1060   52.4690 F   0  0  0  0  0  0  0  0  0  0  0  0
   58.0010   31.4290   50.8910 C   0  0  0  0  0  0  0  0  0  0  0  0
   59.2230   31.6590   50.2510 C   0  0  0  0  0  0  0  0  0  0  0  0
   60.8550   34.2170   46.3760 C   0  0  0  0  0  0  0  0  0  0  0  0
   59.6510   34.3830   45.4450 C   0  0  0  0  0  0  0  0  0  0  0  0
   57.3570   31.4290   45.2720 N   0  0  0  0  0  0  0  0  0  0  0  0
   56.8445   28.1898   46.3281 H   0  0  0  0  0  0  0  0  0  0  0  0
   56.2898   27.3616   44.8337 H   0  0  0  0  0  0  0  0  0  0  0  0
   57.8378   28.2730   44.8337 H   0  0  0  0  0  0  0  0  0  0  0  0
   56.3590   30.1728   42.2976 H   0  0  0  0  0  0  0  0  0  0  0  0
   57.8321   33.3842   41.0124 H   0  0  0  0  0  0  0  0  0  0  0  0
   58.3817   31.7103   40.6620 H   0  0  0  0  0  0  0  0  0  0  0  0
   56.6278   32.0983   40.6620 H   0  0  0  0  0  0  0  0  0  0  0  0
   58.6060   33.6650   43.1890 H   0  0  0  0  0  0  0  0  0  0  0  0
   57.0998   33.7933   47.2497 H   0  0  0  0  0  0  0  0  0  0  0  0
   58.1470   32.3465   47.5583 H   0  0  0  0  0  0  0  0  0  0  0  0
   58.7435   35.2854   48.0578 H   0  0  0  0  0  0  0  0  0  0  0  0
   58.8770   33.8797   49.1790 H   0  0  0  0  0  0  0  0  0  0  0  0
   60.1109   34.5746   51.8081 H   0  0  0  0  0  0  0  0  0  0  0  0
   57.9249   34.1639   52.9394 H   0  0  0  0  0  0  0  0  0  0  0  0
   57.4083   30.5372   50.6393 H   0  0  0  0  0  0  0  0  0  0  0  0
   59.5958   30.9409   49.5058 H   0  0  0  0  0  0  0  0  0  0  0  0
   61.4964   35.1069   46.2938 H   0  0  0  0  0  0  0  0  0  0  0  0
   61.4029   33.3118   46.0753 H   0  0  0  0  0  0  0  0  0  0  0  0
   59.2611   35.4081   45.5295 H   0  0  0  0  0  0  0  0  0  0  0  0
   59.9618   34.1925   44.4072 H   0  0  0  0  0  0  0  0  0  0  0  0
  1  2  1  0
  2  3  1  0
  3  4  2  0
  4  5  1  0
  5  6  1  0
  5  7  2  0
  7  8  1  0
  8  9  1  0
  9 10  1  0
 10 11  1  0
 11 12  1  0
 12 13  1  0
 13 14  2  0
 13 15  1  0
 15 16  1  0
 16 17  2  0
 17 18  1  0
 18 19  2  0
 19 20  1  0
 19 21  1  0
 21 22  2  0
 12 23  1  0
 23 24  1  0
  8 25  2  0
 25  3  1  0
 24  9  1  0
 22 16  1  0
  1 26  1  0
  1 27  1  0
  1 28  1  0
  4 29  1  0
  6 30  1  0
  6 31  1  0
  6 32  1  0
  7 33  1  0
 10 34  1  0
 10 35  1  0
 11 36  1  0
 11 37  1  0
 17 38  1  0
 18 39  1  0
 21 40  1  0
 22 41  1  0
 23 42  1  0
 23 43  1  0
 24 44  1  0
 24 45  1  0
M  CHG  2   7   1  15  -1
M  END
>  <UniqueID>  (8) 
7

>  <SMILES>  (8) 
COc1cc(C)[nH+]c(N2CCN(C(=O)[N-]c3ccc(F)cc3)CC2)n1

>  <Energy>  (8) 
51.421789858178016

>  <Genealogy>  (8) 
COc1cc(C)[nH+]c(N2CCN(C(=O)[N-]c3ccc(F)cc3)CC2)n1 (protonated)
COc1cc(C)[nH+]c(N2CCN(C(=O)[N-]c3ccc(F)cc3)CC2)n1 (3D coordinates assigned)
COc1cc(C)[nH+]c(N2CCN(C(=O)[N-]c3ccc(F)cc3)CC2)n1 (nonaromatic ring conformer: 51.421789858178016 kcal/mol)

>  <smiles>  (8) 
COc1cc(C)nc(N2CCN(C(=O)Nc3ccc(F)cc3)CC2)n1

>  <score_type>  (8) 
oracle

>  <origin>  (8) 
adg

>  <m_score__min__energy>  (8) 
-7.1399999999999997

>  <m_primary>  (8) 
energy

$$$$
8:0
     RDKit          3D

 34 34  0  0  0  0  0  0  0  0999 V2000
   62.5720   34.3590   49.7780 C   0  0  0  0  0  0  0  0  0  0  0  0
   61.6010   34.0090   48.6800 C   0  0  0  0  0  0  0  0  0  0  0  0
   60.2240   34.1250   48.9170 C   0  0  0  0  0  0  0  0  0  0  0  0
   59.3010   33.8030   47.9210 C   0  0  0  0  0  0  0  0  0  0  0  0
   59.7300   33.3510   46.6640 C   0  0  0  0  0  0  0  0  0  0  0  0
   58.7260   33.0160   45.6190 C   0  0  0  0  0  0  0  0  0  0  0  0
   58.6970   33.8300   44.1890 S   0  0  0  0  0  0  0  0  0  0  0  0
   57.7080   32.0400   45.8980 N   0  0  0  0  0  0  0  0  0  0  0  0
   57.0090   31.3730   44.9080 O   0  0  0  0  0  0  0  0  0  0  0  0
   57.0550   29.9820   44.7540 C   0  0  0  0  0  0  0  0  0  0  0  0
   56.0910   29.2680   45.1530 O   0  0  0  0  0  0  0  0  0  0  0  0
   58.1930   29.3770   44.1110 N   0  0  0  0  0  0  0  0  0  0  0  0
   57.8950   27.9840   43.7460 C   0  0  0  0  0  0  0  0  0  0  0  0
   59.3720   29.4510   44.9880 C   0  0  0  0  0  0  0  0  0  0  0  0
   61.1120   33.2260   46.4260 C   0  0  0  0  0  0  0  0  0  0  0  0
   62.0510   33.5420   47.4230 C   0  0  0  0  0  0  0  0  0  0  0  0
   63.5210   33.4030   47.1220 C   0  0  0  0  0  0  0  0  0  0  0  0
   62.0974   34.1879   50.7555 H   0  0  0  0  0  0  0  0  0  0  0  0
   63.4683   33.7274   49.6900 H   0  0  0  0  0  0  0  0  0  0  0  0
   62.8591   35.4172   49.6900 H   0  0  0  0  0  0  0  0  0  0  0  0
   59.8676   34.4733   49.8977 H   0  0  0  0  0  0  0  0  0  0  0  0
   58.2247   33.9048   48.1238 H   0  0  0  0  0  0  0  0  0  0  0  0
   57.3600   31.9550   46.8800 H   0  0  0  0  0  0  0  0  0  0  0  0
   58.4050   29.9080   43.2320 H   0  0  0  0  0  0  0  0  0  0  0  0
   57.7668   27.3849   44.6596 H   0  0  0  0  0  0  0  0  0  0  0  0
   56.9693   27.9504   43.1527 H   0  0  0  0  0  0  0  0  0  0  0  0
   58.7259   27.5746   43.1527 H   0  0  0  0  0  0  0  0  0  0  0  0
   59.0488   29.4307   46.0393 H   0  0  0  0  0  0  0  0  0  0  0  0
   60.0306   28.5924   44.7902 H   0  0  0  0  0  0  0  0  0  0  0  0
   59.9181   30.3852   44.7902 H   0  0  0  0  0  0  0  0  0  0  0  0
   61.4625   32.8754   45.4440 H   0  0  0  0  0  0  0  0  0  0  0  0
   64.0849   33.3497   48.0650 H   0  0  0  0  0  0  0  0  0  0  0  0
   63.6910   32.4848   46.5407 H   0  0  0  0  0  0  0  0  0  0  0  0
   63.8601   34.2731   46.5407 H   0  0  0  0  0  0  0  0  0  0  0  0
  1  2  1  0
  2  3  2  0
  3  4  1  0
  4  5  2  0
  5  6  1  0
  6  7  2  0
  6  8  1  0
  8  9  1  0
  9 10  1  0
 10 11  2  0
 10 12  1  0
 12 13  1  0
 12 14  1  0
  5 15  1  0
 15 16  2  0
 16 17  1  0
 16  2  1  0
  1 18  1  0
  1 19  1  0
  1 20  1  0
  3 21  1  0
  4 22  1  0
  8 23  1  0
 12 24  1  0
 13 25  1  0
 13 26  1  0
 13 27  1  0
 14 28  1  0
 14 29  1  0
 14 30  1  0
 15 31  1  0
 17 32  1  0
 17 33  1  0
 17 34  1  0
M  CHG  1  12   1
M  END
>  <UniqueID>  (9) 
8

>  <SMILES>  (9) 
Cc1ccc(C(=S)NOC(=O)[NH+](C)C)cc1C

>  <Energy>  (9) 
40.96903739420975

>  <Genealogy>  (9) 
Cc1ccc(C(=S)NOC(=O)[NH+](C)C)cc1C (protonated)
Cc1ccc(C(=S)NOC(=O)[NH+](C)C)cc1C (3D coordinates assigned)
Cc1ccc(C(=S)NOC(=O)[NH+](C)C)cc1C (optimized conformer: 40.96903739420975 kcal/mol)

>  <smiles>  (9) 
Cc1ccc(C(=S)NOC(=O)N(C)C)cc1C

>  <score_type>  (9) 
oracle

>  <origin>  (9) 
adg

>  <m_score__min__energy>  (9) 
-5.8099999999999996

>  <m_primary>  (9) 
energy

$$$$
9:0
     RDKit          3D

 40 42  0  0  1  0  0  0  0  0999 V2000
   60.4320   28.5870   45.0570 C   0  0  0  0  0  0  0  0  0  0  0  0
   59.0750   27.9370   45.2460 C   0  0  0  0  0  0  0  0  0  0  0  0
   58.6070   28.2590   46.6450 C   0  0  0  0  0  0  0  0  0  0  0  0
   58.7180   29.6920   46.9230 N   0  0  0  0  0  0  0  0  0  0  0  0
   59.3940   30.2540   47.9430 C   0  0  0  0  0  0  0  0  0  0  0  0
   59.2540   31.5990   47.8530 N   0  0  0  0  0  0  0  0  0  0  0  0
   58.4940   31.9060   46.7850 C   0  0  0  0  0  0  0  0  0  0  0  0
   58.0570   33.1100   46.2580 C   0  0  0  0  0  0  0  0  0  0  0  0
   58.3500   34.2320   46.7710 N   0  0  0  0  0  0  0  0  0  0  0  0
   59.5430   34.9940   46.5750 C   0  0  0  0  0  0  0  0  0  0  0  0
   60.7470   34.3400   47.1570 C   0  0  0  0  0  0  0  0  0  0  0  0
   60.9130   34.2020   48.5410 C   0  0  0  0  0  0  0  0  0  0  0  0
   62.0010   33.6090   49.1040 C   0  0  0  0  0  0  0  0  0  0  0  0
   63.0130   33.1060   48.3110 C   0  0  0  0  0  0  0  0  0  0  0  0
   64.1680   32.4730   48.9880 C   0  0  0  0  0  0  0  0  0  0  0  0
   62.8870   33.2210   46.9490 C   0  0  0  0  0  0  0  0  0  0  0  0
   61.7720   33.8280   46.3890 C   0  0  0  0  0  0  0  0  0  0  0  0
   57.2890   33.1020   45.1540 N   0  0  0  0  0  0  0  0  0  0  0  0
   56.9680   31.9250   44.5940 C   0  0  0  0  0  0  0  0  0  0  0  0
   57.3920   30.7350   45.1060 N   0  0  0  0  0  0  0  0  0  0  0  0
   58.1650   30.6930   46.2130 C   0  0  0  0  0  0  0  0  0  0  0  0
   60.8767   28.8000   46.0403 H   0  0  0  0  0  0  0  0  0  0  0  0
   61.0898   27.9062   44.4968 H   0  0  0  0  0  0  0  0  0  0  0  0
   60.3138   29.5263   44.4968 H   0  0  0  0  0  0  0  0  0  0  0  0
   58.3616   28.3367   44.5103 H   0  0  0  0  0  0  0  0  0  0  0  0
   59.1439   26.8486   45.1020 H   0  0  0  0  0  0  0  0  0  0  0  0
   57.5557   27.9532   46.7511 H   0  0  0  0  0  0  0  0  0  0  0  0
   59.2428   27.7151   47.3591 H   0  0  0  0  0  0  0  0  0  0  0  0
   59.9617   29.7147   48.7156 H   0  0  0  0  0  0  0  0  0  0  0  0
   59.7023   35.1259   45.4946 H   0  0  0  0  0  0  0  0  0  0  0  0
   59.4087   35.9576   47.0882 H   0  0  0  0  0  0  0  0  0  0  0  0
   60.1267   34.5914   49.2043 H   0  0  0  0  0  0  0  0  0  0  0  0
   62.0745   33.5299   50.1987 H   0  0  0  0  0  0  0  0  0  0  0  0
   64.0382   32.5441   50.0780 H   0  0  0  0  0  0  0  0  0  0  0  0
   64.2302   31.4147   48.6944 H   0  0  0  0  0  0  0  0  0  0  0  0
   65.0935   32.9900   48.6944 H   0  0  0  0  0  0  0  0  0  0  0  0
   63.6786   32.8276   46.2943 H   0  0  0  0  0  0  0  0  0  0  0  0
   61.7030   33.9036   45.2938 H   0  0  0  0  0  0  0  0  0  0  0  0
   56.9460   33.9910   44.7350 H   0  0  0  0  0  0  0  0  0  0  0  0
   56.3408   31.9207   43.6903 H   0  0  0  0  0  0  0  0  0  0  0  0
  1  2  1  0
  2  3  1  0
  3  4  1  0
  4  5  1  0
  5  6  2  0
  6  7  1  0
  7  8  1  0
  8  9  2  0
  9 10  1  0
 10 11  1  0
 11 12  2  0
 12 13  1  0
 13 14  2  0
 14 15  1  0
 14 16  1  0
 16 17  2  0
  8 18  1  0
 18 19  1  0
 19 20  2  0
 20 21  1  0
 21  4  1  0
 21  7  2  0
 17 11  1  0
  1 22  1  0
  1 23  1  0
  1 24  1  0
  2 25  1  0
  2 26  1  0
  3 27  1  0
  3 28  1  0
  5 29  1  0
 10 30  1  0
 10 31  1  0
 12 32  1  0
 13 33  1  0
 15 34  1  0
 15 35  1  0
 15 36  1  0
 16 37  1  0
 17 38  1  0
 18 39  1  0
 19 40  1  0
M  END
>  <smiles>  (10) 
CCCn1cnc2c(=NCc3ccc(C)cc3)[nH]cnc21

>  <score_type>  (10) 
oracle

>  <origin>  (10) 
adg

>  <m_score__min__energy>  (10) 
-6.8499999999999996

>  <m_primary>  (10) 
energy

$$$$
10:0
     RDKit          3D

 45 48  0  0  0  0  0  0  0  0999 V2000
   63.5351   34.1872   46.9544 H   0  0  0  0  0  0  0  0  0  0  0  0
   62.7700   33.4220   47.1520 C   0  0  0  0  0  0  0  0  0  0  0  0
   63.1370   32.2020   47.7160 C   0  0  0  0  0  0  0  0  0  0  0  0
   64.1920   32.0015   47.9541 H   0  0  0  0  0  0  0  0  0  0  0  0
   62.1660   31.2340   47.9790 C   0  0  0  0  0  0  0  0  0  0  0  0
   62.4637   30.2663   48.4089 H   0  0  0  0  0  0  0  0  0  0  0  0
   60.8090   31.4850   47.6990 C   0  0  0  0  0  0  0  0  0  0  0  0
   59.7690   30.4120   47.9500 C   0  0  0  0  0  0  0  0  0  0  0  0
   60.0971   29.7898   48.7957 H   0  0  0  0  0  0  0  0  0  0  0  0
   58.8129   30.9092   48.1705 H   0  0  0  0  0  0  0  0  0  0  0  0
   59.5750   29.5560   46.7810 N   0  0  0  0  0  0  0  0  0  0  0  0
   58.5340   28.9850   46.2230 C   0  0  0  0  0  0  0  0  0  0  0  0
   57.8090   29.7790   45.3010 C   0  0  0  0  0  0  0  0  0  0  0  0
   56.5620   29.3490   44.8340 C   0  0  0  0  0  0  0  0  0  0  0  0
   56.0560   28.1600   45.2310 N   0  0  0  0  0  0  0  0  0  0  0  0
   56.7400   27.3190   46.0430 C   0  0  0  0  0  0  0  0  0  0  0  0
   56.1610   26.0860   46.3640 C   0  0  0  0  0  0  0  0  0  0  0  0
   55.1492   25.8463   46.0050 H   0  0  0  0  0  0  0  0  0  0  0  0
   56.8590   25.1620   47.1350 C   0  0  0  0  0  0  0  0  0  0  0  0
   56.3918   24.2033   47.4044 H   0  0  0  0  0  0  0  0  0  0  0  0
   58.1490   25.4540   47.5640 C   0  0  0  0  0  0  0  0  0  0  0  0
   58.7112   24.7114   48.1492 H   0  0  0  0  0  0  0  0  0  0  0  0
   58.7360   26.6840   47.2570 C   0  0  0  0  0  0  0  0  0  0  0  0
   59.7670   26.8859   47.5829 H   0  0  0  0  0  0  0  0  0  0  0  0
   58.0300   27.6750   46.5350 C   0  0  0  0  0  0  0  0  0  0  0  0
   55.7550   30.2520   43.9490 C   0  0  0  0  0  0  0  0  0  0  0  0
   54.9533   29.6687   43.4726 H   0  0  0  0  0  0  0  0  0  0  0  0
   55.3268   31.0585   44.5624 H   0  0  0  0  0  0  0  0  0  0  0  0
   56.6400   30.8760   42.8600 C   0  0  0  0  0  0  0  0  0  0  0  0
   56.8233   30.1153   42.0869 H   0  0  0  0  0  0  0  0  0  0  0  0
   56.0974   31.7525   42.4760 H   0  0  0  0  0  0  0  0  0  0  0  0
   58.0110   31.3900   43.3710 C   0  0  0  0  0  0  0  0  0  0  0  0
   58.8021   30.8749   42.8063 H   0  0  0  0  0  0  0  0  0  0  0  0
   58.0102   32.4795   43.2196 H   0  0  0  0  0  0  0  0  0  0  0  0
   58.2660   31.1600   44.8720 C   0  0  0  0  0  0  0  0  0  0  0  0
   59.3430   31.2598   45.0723 H   0  0  0  0  0  0  0  0  0  0  0  0
   57.6945   31.9082   45.4409 H   0  0  0  0  0  0  0  0  0  0  0  0
   60.4420   32.7080   47.0940 C   0  0  0  0  0  0  0  0  0  0  0  0
   59.0940   32.9300   46.7680 O   0  0  0  0  0  0  0  0  0  0  0  0
   58.5520   34.1860   46.3770 C   0  0  0  0  0  0  0  0  0  0  0  0
   58.2994   34.7714   47.2734 H   0  0  0  0  0  0  0  0  0  0  0  0
   59.2934   34.7347   45.7777 H   0  0  0  0  0  0  0  0  0  0  0  0
   57.6441   34.0230   45.7777 H   0  0  0  0  0  0  0  0  0  0  0  0
   61.4340   33.6760   46.8370 C   0  0  0  0  0  0  0  0  0  0  0  0
   61.1532   34.6387   46.3849 H   0  0  0  0  0  0  0  0  0  0  0  0
  1  2  1  0
  2  3  2  0
  3  4  1  0
  3  5  1  0
  5  6  1  0
  5  7  2  0
  7  8  1  0
  8  9  1  0
  8 10  1  0
  8 11  1  0
 11 12  2  0
 12 13  1  0
 13 14  2  0
 14 15  1  0
 15 16  1  0
 16 17  2  0
 17 18  1  0
 17 19  1  0
 19 20  1  0
 19 21  2  0
 21 22  1  0
 21 23  1  0
 23 24  1  0
 23 25  2  0
 14 26  1  0
 26 27  1  0
 26 28  1  0
 26 29  1  0
 29 30  1  0
 29 31  1  0
 29 32  1  0
 32 33  1  0
 32 34  1  0
 32 35  1  0
 35 36  1  0
 35 37  1  0
  7 38  1  0
 38 39  1  0
 39 40  1  0
 40 41  1  0
 40 42  1  0
 40 43  1  0
 38 44  2  0
 44 45  1  0
 44  2  1  0
 25 12  1  0
 35 13  1  0
 25 16  1  0
M  CHG  1  15  -1
M  END
>  <UniqueID>  (11) 
9

>  <SMILES>  (11) 
COc1ccccc1C/N=c1/c2c([n-]c3ccccc13)CCCC2

>  <Energy>  (11) 
74.68506616418601

>  <Genealogy>  (11) 
COc1ccccc1CN=c1c2c([n-]c3ccccc13)CCCC2 (protonated)
COc1ccccc1C/N=c1/c2c([n-]c3ccccc13)CCCC2 (cis-trans isomerization)
COc1ccccc1C/N=c1/c2c([n-]c3ccccc13)CCCC2 (3D coordinates assigned)
COc1ccccc1C/N=c1/c2c([n-]c3ccccc13)CCCC2 (nonaromatic ring conformer: 74.68506616418601 kcal/mol)

>  <smiles>  (11) 
COc1ccccc1CN=c1c2c([nH]c3ccccc13)CCCC2

>  <score_type>  (11) 
oracle

>  <origin>  (11) 
adg

>  <m_score__min__energy>  (11) 
-9.5800000000000001

>  <m_primary>  (11) 
energy

$$$$
11:0
     RDKit          3D

 43 47  0  0  0  0  0  0  0  0999 V2000
   55.5550   24.0610   46.8400 C   0  0  0  0  0  0  0  0  0  0  0  0
   55.8890   25.3280   46.0320 C   0  0  2  0  0  0  0  0  0  0  0  0
   54.7020   25.9680   45.6240 O   0  0  0  0  0  0  0  0  0  0  0  0
   56.7680   25.0190   44.8040 C   0  0  0  0  0  0  0  0  0  0  0  0
   57.6720   26.2330   44.6330 C   0  0  0  0  0  0  0  0  0  0  0  0
   57.6730   26.8940   45.9270 N   0  0  0  0  0  0  0  0  0  0  0  0
   58.4620   28.0590   46.2150 C   0  0  0  0  0  0  0  0  0  0  0  0
   58.0820   29.3060   45.6970 C   0  0  0  0  0  0  0  0  0  0  0  0
   58.8480   30.4670   45.9460 C   0  0  0  0  0  0  0  0  0  0  0  0
   59.9900   30.3550   46.8030 C   0  0  0  0  0  0  0  0  0  0  0  0
   60.3580   29.0960   47.3110 C   0  0  0  0  0  0  0  0  0  0  0  0
   59.6070   27.9600   47.0130 C   0  0  0  0  0  0  0  0  0  0  0  0
   59.9690   26.7690   47.5530 F   0  0  0  0  0  0  0  0  0  0  0  0
   60.7180   31.5130   47.1560 C   0  0  0  0  0  0  0  0  0  0  0  0
   61.7270   31.4430   47.9110 O   0  0  0  0  0  0  0  0  0  0  0  0
   60.2840   32.7460   46.6730 C   0  0  0  0  0  0  0  0  0  0  0  0
   60.8150   34.0280   46.9580 C   0  0  0  0  0  0  0  0  0  0  0  0
   61.8140   34.2020   47.7060 O   0  0  0  0  0  0  0  0  0  0  0  0
   60.1770   35.0830   46.3830 N   0  0  0  0  0  0  0  0  0  0  0  0
   58.9320   34.4150   45.4990 S   0  0  0  0  0  0  0  0  0  0  0  0
   59.1940   32.7970   45.8270 C   0  0  0  0  0  0  0  0  0  0  0  0
   58.5050   31.6960   45.4040 N   0  0  0  0  0  0  0  0  0  0  0  0
   57.3720   31.8570   44.4710 C   0  0  0  0  0  0  0  0  0  0  0  0
   57.7510   32.3600   43.0770 C   0  0  0  0  0  0  0  0  0  0  0  0
   57.3940   30.9050   43.2760 C   0  0  0  0  0  0  0  0  0  0  0  0
   56.7200   26.3200   46.8600 C   0  0  0  0  0  0  0  0  0  0  0  0
   55.6142   24.2856   47.9152 H   0  0  0  0  0  0  0  0  0  0  0  0
   54.5376   23.7250   46.5911 H   0  0  0  0  0  0  0  0  0  0  0  0
   56.2745   23.2671   46.5911 H   0  0  0  0  0  0  0  0  0  0  0  0
   54.2470   26.3130   46.4360 H   0  0  0  0  0  0  0  0  0  0  0  0
   57.3687   24.1143   44.9794 H   0  0  0  0  0  0  0  0  0  0  0  0
   56.1617   24.8326   43.9053 H   0  0  0  0  0  0  0  0  0  0  0  0
   58.6903   25.9199   44.3593 H   0  0  0  0  0  0  0  0  0  0  0  0
   57.3183   26.8988   43.8320 H   0  0  0  0  0  0  0  0  0  0  0  0
   57.1707   29.3815   45.0856 H   0  0  0  0  0  0  0  0  0  0  0  0
   61.2485   29.0068   47.9506 H   0  0  0  0  0  0  0  0  0  0  0  0
   56.6331   32.1464   45.2328 H   0  0  0  0  0  0  0  0  0  0  0  0
   57.0666   33.0232   42.5277 H   0  0  0  0  0  0  0  0  0  0  0  0
   58.6128   32.8966   42.6535 H   0  0  0  0  0  0  0  0  0  0  0  0
   56.4503   30.5111   42.8707 H   0  0  0  0  0  0  0  0  0  0  0  0
   57.8898   29.9480   43.0562 H   0  0  0  0  0  0  0  0  0  0  0  0
   57.2443   25.7980   47.6740 H   0  0  0  0  0  0  0  0  0  0  0  0
   56.0907   27.0905   47.3293 H   0  0  0  0  0  0  0  0  0  0  0  0
  1  2  1  0
  2  3  1  6
  2  4  1  0
  4  5  1  0
  5  6  1  0
  6  7  1  0
  7  8  2  0
  8  9  1  0
  9 10  2  0
 10 11  1  0
 11 12  2  0
 12 13  1  0
 10 14  1  0
 14 15  2  0
 14 16  1  0
 16 17  1  0
 17 18  2  0
 17 19  1  0
 19 20  1  0
 20 21  1  0
 21 22  1  0
 22 23  1  0
 23 24  1  0
 24 25  1  0
  6 26  1  0
 26  2  1  0
 12  7  1  0
 21 16  2  0
 25 23  1  0
 22  9  1  0
  1 27  1  0
  1 28  1  0
  1 29  1  0
  3 30  1  0
  4 31  1  0
  4 32  1  0
  5 33  1  0
  5 34  1  0
  8 35  1  0
 11 36  1  0
 23 37  1  0
 24 38  1  0
 24 39  1  0
 25 40  1  0
 25 41  1  0
 26 42  1  0
 26 43  1  0
M  CHG  1  19  -1
M  END
>  <UniqueID>  (12) 
10

>  <SMILES>  (12) 
C[C@]1(O)CCN(c2cc3c(cc2F)c(=O)c2c(=O)[n-]sc2n3C2CC2)C1

>  <Energy>  (12) 
368.9351537658808

>  <Genealogy>  (12) 
CC1(O)CCN(c2cc3c(cc2F)c(=O)c2c(=O)[n-]sc2n3C2CC2)C1 (protonated)
C[C@]1(O)CCN(c2cc3c(cc2F)c(=O)c2c(=O)[n-]sc2n3C2CC2)C1 (chirality)
C[C@]1(O)CCN(c2cc3c(cc2F)c(=O)c2c(=O)[n-]sc2n3C2CC2)C1 (3D coordinates assigned)
C[C@]1(O)CCN(c2cc3c(cc2F)c(=O)c2c(=O)[n-]sc2n3C2CC2)C1 (nonaromatic ring conformer: 368.9351537658808 kcal/mol)

>  <smiles>  (12) 
CC1(O)CCN(c2cc3c(cc2F)c(=O)c2c(=O)[nH]sc2n3C2CC2)C1

>  <score_type>  (12) 
oracle

>  <origin>  (12) 
adg

>  <m_score__min__energy>  (12) 
-9.6899999999999995

>  <m_primary>  (12) 
energy

$$$$
12:0
     RDKit          3D

 40 43  0  0  0  0  0  0  0  0999 V2000
   63.5280   32.0680   47.3600 C   0  0  0  0  0  0  0  0  0  0  0  0
   63.1520   32.9250   48.4860 N   0  0  0  0  0  0  0  0  0  0  0  0
   61.9470   33.5170   48.7180 C   0  0  0  0  0  0  0  0  0  0  0  0
   60.7710   33.4500   47.8230 C   0  0  0  0  0  0  0  0  0  0  0  0
   60.8410   33.9310   46.5060 C   0  0  0  0  0  0  0  0  0  0  0  0
   59.7170   33.8820   45.6760 C   0  0  0  0  0  0  0  0  0  0  0  0
   58.5080   33.3690   46.1580 C   0  0  0  0  0  0  0  0  0  0  0  0
   57.0650   33.3180   45.0970 S   0  0  0  0  0  0  0  0  0  0  0  0
   57.3020   31.5840   44.7020 C   0  0  0  0  0  0  0  0  0  0  0  0
   58.5300   30.9660   44.9710 C   0  0  0  0  0  0  0  0  0  0  0  0
   58.7120   29.6130   44.6670 C   0  0  0  0  0  0  0  0  0  0  0  0
   57.6710   28.8780   44.0920 C   0  0  0  0  0  0  0  0  0  0  0  0
   56.4460   29.4960   43.8180 C   0  0  0  0  0  0  0  0  0  0  0  0
   56.2620   30.8480   44.1210 C   0  0  0  0  0  0  0  0  0  0  0  0
   58.4280   32.9000   47.4740 C   0  0  0  0  0  0  0  0  0  0  0  0
   59.5500   32.9470   48.3060 C   0  0  0  0  0  0  0  0  0  0  0  0
   61.9700   34.2210   49.9210 C   0  0  0  0  0  0  0  0  0  0  0  0
   63.2470   34.0650   50.4090 C   0  0  0  0  0  0  0  0  0  0  0  0
   63.8350   34.5690   51.5680 C   0  0  0  0  0  0  0  0  0  0  0  0
   65.1830   34.2530   51.8110 C   0  0  0  0  0  0  0  0  0  0  0  0
   65.9050   33.4530   50.9000 C   0  0  0  0  0  0  0  0  0  0  0  0
   65.2860   32.9580   49.7380 C   0  0  0  0  0  0  0  0  0  0  0  0
   63.9420   33.2830   49.5210 C   0  0  0  0  0  0  0  0  0  0  0  0
   63.9426   31.1230   47.7409 H   0  0  0  0  0  0  0  0  0  0  0  0
   62.6395   31.8577   46.7466 H   0  0  0  0  0  0  0  0  0  0  0  0
   64.2844   32.5794   46.7466 H   0  0  0  0  0  0  0  0  0  0  0  0
   61.7848   34.3485   46.1252 H   0  0  0  0  0  0  0  0  0  0  0  0
   59.7835   34.2479   44.6408 H   0  0  0  0  0  0  0  0  0  0  0  0
   59.3504   31.5443   45.4209 H   0  0  0  0  0  0  0  0  0  0  0  0
   59.6753   29.1267   44.8806 H   0  0  0  0  0  0  0  0  0  0  0  0
   57.8151   27.8136   43.8549 H   0  0  0  0  0  0  0  0  0  0  0  0
   55.6277   28.9178   43.3641 H   0  0  0  0  0  0  0  0  0  0  0  0
   55.2997   31.3342   43.9029 H   0  0  0  0  0  0  0  0  0  0  0  0
   57.4795   32.4933   47.8547 H   0  0  0  0  0  0  0  0  0  0  0  0
   59.4775   32.5888   49.3435 H   0  0  0  0  0  0  0  0  0  0  0  0
   61.1434   34.7817   50.3819 H   0  0  0  0  0  0  0  0  0  0  0  0
   63.2628   35.1937   52.2696 H   0  0  0  0  0  0  0  0  0  0  0  0
   65.6782   34.6318   52.7172 H   0  0  0  0  0  0  0  0  0  0  0  0
   66.9601   33.2146   51.1001 H   0  0  0  0  0  0  0  0  0  0  0  0
   65.8412   32.3345   49.0217 H   0  0  0  0  0  0  0  0  0  0  0  0
  1  2  1  0
  2  3  1  0
  3  4  1  0
  4  5  2  0
  5  6  1  0
  6  7  2  0
  7  8  1  0
  8  9  1  0
  9 10  2  0
 10 11  1  0
 11 12  2  0
 12 13  1  0
 13 14  2  0
  7 15  1  0
 15 16  2  0
  3 17  2  0
 17 18  1  0
 18 19  2  0
 19 20  1  0
 20 21  2  0
 21 22  1  0
 22 23  2  0
 23  2  1  0
 16  4  1  0
 23 18  1  0
 14  9  1  0
  1 24  1  0
  1 25  1  0
  1 26  1  0
  5 27  1  0
  6 28  1  0
 10 29  1  0
 11 30  1  0
 12 31  1  0
 13 32  1  0
 14 33  1  0
 15 34  1  0
 16 35  1  0
 17 36  1  0
 19 37  1  0
 20 38  1  0
 21 39  1  0
 22 40  1  0
M  END
>  <UniqueID>  (13) 
11

>  <SMILES>  (13) 
Cn1c(-c2ccc(Sc3ccccc3)cc2)cc2ccccc21

>  <Energy>  (13) 
78.74358980165341

>  <Genealogy>  (13) 
Cn1c(-c2ccc(Sc3ccccc3)cc2)cc2ccccc21 (3D coordinates assigned)
Cn1c(-c2ccc(Sc3ccccc3)cc2)cc2ccccc21 (optimized conformer: 78.74358980165341 kcal/mol)

>  <smiles>  (13) 
Cn1c(-c2ccc(Sc3ccccc3)cc2)cc2ccccc21

>  <score_type>  (13) 
oracle

>  <origin>  (13) 
adg

>  <m_score__min__energy>  (13) 
-8.1999999999999993

>  <m_primary>  (13) 
energy

$$$$
13:0
     RDKit          3D

 64 66  0  0  0  0  0  0  0  0999 V2000
   57.4880   32.2740   41.4630 C   0  0  0  0  0  0  0  0  0  0  0  0
   58.1900   32.1560   42.8230 C   0  0  0  0  0  0  0  0  0  0  0  0
   57.2790   31.9280   43.9740 N   0  0  0  0  0  0  0  0  0  0  0  0
   57.6760   32.6210   45.2200 C   0  0  0  0  0  0  0  0  0  0  0  0
   58.0560   34.0880   44.9950 C   0  0  0  0  0  0  0  0  0  0  0  0
   57.0050   30.2130   44.2720 S   0  0  0  0  0  0  0  0  0  0  0  0
   57.1320   29.4160   43.0020 O   0  0  0  0  0  0  0  0  0  0  0  0
   55.5990   30.0370   44.7780 O   0  0  0  0  0  0  0  0  0  0  0  0
   58.1110   29.5320   45.4770 C   0  0  0  0  0  0  0  0  0  0  0  0
   57.6950   28.4740   46.2960 C   0  0  0  0  0  0  0  0  0  0  0  0
   58.5800   27.9030   47.2160 C   0  0  0  0  0  0  0  0  0  0  0  0
   59.8870   28.3870   47.3370 C   0  0  0  0  0  0  0  0  0  0  0  0
   60.7810   27.7500   48.2600 N   0  0  0  0  0  0  0  0  0  0  0  0
   60.7580   27.9730   49.6720 C   0  0  0  0  0  0  0  0  0  0  0  0
   61.3590   27.1650   50.4300 O   0  0  0  0  0  0  0  0  0  0  0  0
   60.0460   29.1410   50.2360 C   0  0  0  0  0  0  0  0  0  0  0  0
   59.3360   29.0340   51.4460 C   0  0  0  0  0  0  0  0  0  0  0  0
   58.6960   30.1500   51.9890 C   0  0  0  0  0  0  0  0  0  0  0  0
   58.7530   31.3820   51.3340 C   0  0  0  0  0  0  0  0  0  0  0  0
   59.4470   31.5030   50.1230 C   0  0  0  0  0  0  0  0  0  0  0  0
   59.5730   33.0690   49.3220 S   0  0  0  0  0  0  0  0  0  0  0  0
   58.5070   33.1710   48.2650 O   0  0  0  0  0  0  0  0  0  0  0  0
   59.3350   34.1640   50.3240 O   0  0  0  0  0  0  0  0  0  0  0  0
   61.1490   33.2670   48.5870 N   0  0  0  0  0  0  0  0  0  0  0  0
   60.9960   33.9060   47.2620 C   0  0  0  0  0  0  0  0  0  0  0  0
   62.2650   33.8150   46.4000 C   0  0  0  0  0  0  0  0  0  0  0  0
   63.3660   32.8750   46.9250 C   0  0  0  0  0  0  0  0  0  0  0  0
   64.2100   33.4650   48.0680 C   0  0  0  0  0  0  0  0  0  0  0  0
   63.5500   33.4460   49.4710 C   0  0  0  0  0  0  0  0  0  0  0  0
   62.0870   33.9390   49.5270 C   0  0  0  0  0  0  0  0  0  0  0  0
   60.0840   30.3810   49.5750 C   0  0  0  0  0  0  0  0  0  0  0  0
   60.2980   29.4650   46.5320 C   0  0  0  0  0  0  0  0  0  0  0  0
   59.4170   30.0260   45.6040 C   0  0  0  0  0  0  0  0  0  0  0  0
   56.4142   32.4545   41.6191 H   0  0  0  0  0  0  0  0  0  0  0  0
   57.9223   33.1117   40.8977 H   0  0  0  0  0  0  0  0  0  0  0  0
   57.6245   31.3403   40.8977 H   0  0  0  0  0  0  0  0  0  0  0  0
   58.8956   31.3137   42.7724 H   0  0  0  0  0  0  0  0  0  0  0  0
   58.6825   33.1229   43.0034 H   0  0  0  0  0  0  0  0  0  0  0  0
   56.3460   32.3150   43.6930 H   0  0  0  0  0  0  0  0  0  0  0  0
   56.8337   32.5816   45.9264 H   0  0  0  0  0  0  0  0  0  0  0  0
   58.5660   32.1074   45.6125 H   0  0  0  0  0  0  0  0  0  0  0  0
   58.1851   34.5865   45.9670 H   0  0  0  0  0  0  0  0  0  0  0  0
   58.9973   34.1402   44.4282 H   0  0  0  0  0  0  0  0  0  0  0  0
   57.2584   34.5906   44.4282 H   0  0  0  0  0  0  0  0  0  0  0  0
   56.6672   28.0906   46.2149 H   0  0  0  0  0  0  0  0  0  0  0  0
   58.2461   27.0675   47.8489 H   0  0  0  0  0  0  0  0  0  0  0  0
   59.2848   28.0665   51.9668 H   0  0  0  0  0  0  0  0  0  0  0  0
   58.1447   30.0583   52.9365 H   0  0  0  0  0  0  0  0  0  0  0  0
   58.2521   32.2591   51.7697 H   0  0  0  0  0  0  0  0  0  0  0  0
   60.1727   33.4101   46.7269 H   0  0  0  0  0  0  0  0  0  0  0  0
   60.7912   34.9731   47.4336 H   0  0  0  0  0  0  0  0  0  0  0  0
   61.9695   33.4635   45.4005 H   0  0  0  0  0  0  0  0  0  0  0  0
   62.7044   34.8234   46.4079 H   0  0  0  0  0  0  0  0  0  0  0  0
   62.8877   31.9541   47.2898 H   0  0  0  0  0  0  0  0  0  0  0  0
   64.0539   32.6957   46.0855 H   0  0  0  0  0  0  0  0  0  0  0  0
   65.1466   32.8911   48.1274 H   0  0  0  0  0  0  0  0  0  0  0  0
   64.3521   34.5268   47.8182 H   0  0  0  0  0  0  0  0  0  0  0  0
   63.5727   32.4106   49.8417 H   0  0  0  0  0  0  0  0  0  0  0  0
   64.1289   34.1511   50.0855 H   0  0  0  0  0  0  0  0  0  0  0  0
   61.7144   33.7796   50.5496 H   0  0  0  0  0  0  0  0  0  0  0  0
   62.1124   34.9963   49.2246 H   0  0  0  0  0  0  0  0  0  0  0  0
   60.6190   30.4718   48.6181 H   0  0  0  0  0  0  0  0  0  0  0  0
   61.3166   29.8677   46.6335 H   0  0  0  0  0  0  0  0  0  0  0  0
   59.7500   30.8603   44.9692 H   0  0  0  0  0  0  0  0  0  0  0  0
  1  2  1  0
  2  3  1  0
  3  4  1  0
  4  5  1  0
  3  6  1  0
  6  7  2  0
  6  8  2  0
  6  9  1  0
  9 10  2  0
 10 11  1  0
 11 12  2  0
 12 13  1  0
 13 14  1  0
 14 15  2  0
 14 16  1  0
 16 17  2  0
 17 18  1  0
 18 19  2  0
 19 20  1  0
 20 21  1  0
 21 22  2  0
 21 23  2  0
 21 24  1  0
 24 25  1  0
 25 26  1  0
 26 27  1  0
 27 28  1  0
 28 29  1  0
 29 30  1  0
 20 31  2  0
 12 32  1  0
 32 33  2  0
 33  9  1  0
 31 16  1  0
 30 24  1  0
  1 34  1  0
  1 35  1  0
  1 36  1  0
  2 37  1  0
  2 38  1  0
  3 39  1  0
  4 40  1  0
  4 41  1  0
  5 42  1  0
  5 43  1  0
  5 44  1  0
 10 45  1  0
 11 46  1  0
 17 47  1  0
 18 48  1  0
 19 49  1  0
 25 50  1  0
 25 51  1  0
 26 52  1  0
 26 53  1  0
 27 54  1  0
 27 55  1  0
 28 56  1  0
 28 57  1  0
 29 58  1  0
 29 59  1  0
 30 60  1  0
 30 61  1  0
 31 62  1  0
 32 63  1  0
 33 64  1  0
M  CHG  2   3   1  13  -1
M  END
>  <UniqueID>  (14) 
12

>  <SMILES>  (14) 
CC[NH+](CC)S(=O)(=O)c1ccc([N-]C(=O)c2cccc(S(=O)(=O)N3CCCCCC3)c2)cc1

>  <Energy>  (14) 
83.57248111370791

>  <Genealogy>  (14) 
CC[NH+](CC)S(=O)(=O)c1ccc([N-]C(=O)c2cccc(S(=O)(=O)N3CCCCCC3)c2)cc1 (protonated)
CC[NH+](CC)S(=O)(=O)c1ccc([N-]C(=O)c2cccc(S(=O)(=O)N3CCCCCC3)c2)cc1 (3D coordinates assigned)
CC[NH+](CC)S(=O)(=O)c1ccc([N-]C(=O)c2cccc(S(=O)(=O)N3CCCCCC3)c2)cc1 (nonaromatic ring conformer: 83.57248111370791 kcal/mol)

>  <smiles>  (14) 
CCN(CC)S(=O)(=O)c1ccc(NC(=O)c2cccc(S(=O)(=O)N3CCCCCC3)c2)cc1

>  <score_type>  (14) 
oracle

>  <origin>  (14) 
adg

>  <m_score__min__energy>  (14) 
-8.8800000000000008

>  <m_primary>  (14) 
energy

$$$$
14:0
     RDKit          3D

 45 48  0  0  0  0  0  0  0  0999 V2000
   57.7910   21.7210   45.1890 C   0  0  0  0  0  0  0  0  0  0  0  0
   57.5590   22.5560   46.3190 O   0  0  0  0  0  0  0  0  0  0  0  0
   57.7490   23.9460   46.3300 C   0  0  0  0  0  0  0  0  0  0  0  0
   56.7180   24.8440   46.6640 C   0  0  0  0  0  0  0  0  0  0  0  0
   56.9540   26.2220   46.6620 C   0  0  0  0  0  0  0  0  0  0  0  0
   58.2190   26.7280   46.3220 C   0  0  0  0  0  0  0  0  0  0  0  0
   58.4640   28.1870   46.3270 C   0  0  0  0  0  0  0  0  0  0  0  0
   59.4630   28.9120   46.9900 C   0  0  0  0  0  0  0  0  0  0  0  0
   60.5470   28.3620   47.8640 C   0  0  0  0  0  0  0  0  0  0  0  0
   59.3230   30.2300   46.7170 N   0  0  0  0  0  0  0  0  0  0  0  0
   58.2860   30.3700   45.9070 N   0  0  0  0  0  0  0  0  0  0  0  0
   57.7860   31.5150   45.3700 C   0  0  0  0  0  0  0  0  0  0  0  0
   58.3640   32.8370   45.6860 C   0  0  0  0  0  0  0  0  0  0  0  0
   58.7280   33.6840   44.6270 C   0  0  0  0  0  0  0  0  0  0  0  0
   59.3010   34.9300   44.8840 C   0  0  0  0  0  0  0  0  0  0  0  0
   59.5150   35.3440   46.1990 C   0  0  0  0  0  0  0  0  0  0  0  0
   59.1450   34.5180   47.2620 C   0  0  0  0  0  0  0  0  0  0  0  0
   58.5490   33.2680   47.0210 C   0  0  0  0  0  0  0  0  0  0  0  0
   58.1520   32.4070   48.1930 C   0  0  0  0  0  0  0  0  0  0  0  0
   56.6850   31.4030   44.5040 C   0  0  0  0  0  0  0  0  0  0  0  0
   56.1430   30.1280   44.2540 C   0  0  0  0  0  0  0  0  0  0  0  0
   56.6870   29.0190   44.8330 N   0  0  0  0  0  0  0  0  0  0  0  0
   57.7610   29.1650   45.6480 C   0  0  0  0  0  0  0  0  0  0  0  0
   59.2470   25.8300   45.9960 C   0  0  0  0  0  0  0  0  0  0  0  0
   59.0130   24.4510   46.0000 C   0  0  0  0  0  0  0  0  0  0  0  0
   60.0210   23.6010   45.6850 F   0  0  0  0  0  0  0  0  0  0  0  0
   58.0710   20.7131   45.5292 H   0  0  0  0  0  0  0  0  0  0  0  0
   56.8752   21.6620   44.5825 H   0  0  0  0  0  0  0  0  0  0  0  0
   58.6059   22.1429   44.5825 H   0  0  0  0  0  0  0  0  0  0  0  0
   55.7217   24.4597   46.9279 H   0  0  0  0  0  0  0  0  0  0  0  0
   56.1426   26.9151   46.9288 H   0  0  0  0  0  0  0  0  0  0  0  0
   60.2726   28.5012   48.9201 H   0  0  0  0  0  0  0  0  0  0  0  0
   60.6761   27.2894   47.6570 H   0  0  0  0  0  0  0  0  0  0  0  0
   61.4888   28.8913   47.6570 H   0  0  0  0  0  0  0  0  0  0  0  0
   59.9330   31.0040   47.0630 H   0  0  0  0  0  0  0  0  0  0  0  0
   58.5604   33.3633   43.5882 H   0  0  0  0  0  0  0  0  0  0  0  0
   59.5844   35.5869   44.0485 H   0  0  0  0  0  0  0  0  0  0  0  0
   59.9759   36.3226   46.3986 H   0  0  0  0  0  0  0  0  0  0  0  0
   59.3213   34.8480   48.2964 H   0  0  0  0  0  0  0  0  0  0  0  0
   58.3931   32.9298   49.1303 H   0  0  0  0  0  0  0  0  0  0  0  0
   57.0710   32.2076   48.1519 H   0  0  0  0  0  0  0  0  0  0  0  0
   58.7022   31.4554   48.1519 H   0  0  0  0  0  0  0  0  0  0  0  0
   56.2538   32.2967   44.0293 H   0  0  0  0  0  0  0  0  0  0  0  0
   55.2745   30.0252   43.5869 H   0  0  0  0  0  0  0  0  0  0  0  0
   60.2445   26.2136   45.7353 H   0  0  0  0  0  0  0  0  0  0  0  0
  1  2  1  0
  2  3  1  0
  3  4  2  0
  4  5  1  0
  5  6  2  0
  6  7  1  0
  7  8  1  0
  8  9  1  0
  8 10  2  0
 10 11  1  0
 11 12  1  0
 12 13  1  0
 13 14  2  0
 14 15  1  0
 15 16  2  0
 16 17  1  0
 17 18  2  0
 18 19  1  0
 12 20  2  0
 20 21  1  0
 21 22  2  0
 22 23  1  0
  6 24  1  0
 24 25  2  0
 25 26  1  0
 25  3  1  0
 23  7  2  0
 23 11  1  0
 18 13  1  0
  1 27  1  0
  1 28  1  0
  1 29  1  0
  4 30  1  0
  5 31  1  0
  9 32  1  0
  9 33  1  0
  9 34  1  0
 10 35  1  0
 14 36  1  0
 15 37  1  0
 16 38  1  0
 17 39  1  0
 19 40  1  0
 19 41  1  0
 19 42  1  0
 20 43  1  0
 21 44  1  0
 24 45  1  0
M  CHG  1  10   1
M  END
>  <UniqueID>  (15) 
13

>  <SMILES>  (15) 
COc1ccc(-c2c(C)[nH+]n3c(-c4ccccc4C)ccnc23)cc1F

>  <Energy>  (15) 
98.05878754881824

>  <Genealogy>  (15) 
COc1ccc(-c2c(C)[nH+]n3c(-c4ccccc4C)ccnc23)cc1F (protonated)
COc1ccc(-c2c(C)[nH+]n3c(-c4ccccc4C)ccnc23)cc1F (3D coordinates assigned)
COc1ccc(-c2c(C)[nH+]n3c(-c4ccccc4C)ccnc23)cc1F (optimized conformer: 98.05878754881824 kcal/mol)

>  <smiles>  (15) 
COc1ccc(-c2c(C)nn3c(-c4ccccc4C)ccnc23)cc1F

>  <score_type>  (15) 
oracle

>  <origin>  (15) 
adg

>  <m_score__min__energy>  (15) 
-6.7000000000000002

>  <m_primary>  (15) 
energy

$$$$
15:0
     RDKit          3D

 30 32  0  0  0  0  0  0  0  0999 V2000
   57.0600   34.2130   45.2710 C   0  0  0  0  0  0  0  0  0  0  0  0
   58.3160   34.3150   46.1300 C   0  0  0  0  0  0  0  0  0  0  0  0
   59.5730   33.8380   45.3900 C   0  0  0  0  0  0  0  0  0  0  0  0
   60.4240   33.0030   46.2490 N   0  0  0  0  0  0  0  0  0  0  0  0
   61.6150   33.3910   46.6810 N   0  0  0  0  0  0  0  0  0  0  0  0
   62.2310   32.3510   47.2720 C   0  0  0  0  0  0  0  0  0  0  0  0
   61.4090   31.2450   47.2000 C   0  0  0  0  0  0  0  0  0  0  0  0
   60.2700   31.6910   46.5510 C   0  0  0  0  0  0  0  0  0  0  0  0
   59.1350   30.8270   46.1830 C   0  0  0  0  0  0  0  0  0  0  0  0
   58.1730   31.2520   45.2400 C   0  0  0  0  0  0  0  0  0  0  0  0
   57.1180   30.3850   44.9820 C   0  0  0  0  0  0  0  0  0  0  0  0
   56.0300   30.4660   44.1480 C   0  0  0  0  0  0  0  0  0  0  0  0
   55.3020   29.3340   44.3010 N   0  0  0  0  0  0  0  0  0  0  0  0
   55.8920   28.5490   45.2010 N   0  0  0  0  0  0  0  0  0  0  0  0
   56.9970   29.1890   45.6140 C   0  0  0  0  0  0  0  0  0  0  0  0
   57.9300   28.7830   46.5590 C   0  0  0  0  0  0  0  0  0  0  0  0
   58.9760   29.6220   46.8240 N   0  0  0  0  0  0  0  0  0  0  0  0
   56.1758   34.1412   45.9214 H   0  0  0  0  0  0  0  0  0  0  0  0
   56.9764   35.1073   44.6360 H   0  0  0  0  0  0  0  0  0  0  0  0
   57.1218   33.3169   44.6360 H   0  0  0  0  0  0  0  0  0  0  0  0
   58.4574   35.3652   46.4253 H   0  0  0  0  0  0  0  0  0  0  0  0
   58.1762   33.6645   47.0060 H   0  0  0  0  0  0  0  0  0  0  0  0
   59.2683   33.2510   44.5111 H   0  0  0  0  0  0  0  0  0  0  0  0
   60.1520   34.7240   45.0902 H   0  0  0  0  0  0  0  0  0  0  0  0
   62.0290   34.3380   46.5360 H   0  0  0  0  0  0  0  0  0  0  0  0
   63.2276   32.3780   47.7369 H   0  0  0  0  0  0  0  0  0  0  0  0
   61.6136   30.2316   47.5757 H   0  0  0  0  0  0  0  0  0  0  0  0
   58.2552   32.2248   44.7331 H   0  0  0  0  0  0  0  0  0  0  0  0
   55.7917   31.3025   43.4746 H   0  0  0  0  0  0  0  0  0  0  0  0
   57.8305   27.8179   47.0773 H   0  0  0  0  0  0  0  0  0  0  0  0
  1  2  1  0
  2  3  1  0
  3  4  1  0
  4  5  1  0
  5  6  2  0
  6  7  1  0
  7  8  2  0
  8  9  1  0
  9 10  2  0
 10 11  1  0
 11 12  1  0
 12 13  2  0
 13 14  1  0
 14 15  1  0
 15 16  1  0
 16 17  2  0
  8  4  1  0
 17  9  1  0
 15 11  2  0
  1 18  1  0
  1 19  1  0
  1 20  1  0
  2 21  1  0
  2 22  1  0
  3 23  1  0
  3 24  1  0
  5 25  1  0
  6 26  1  0
  7 27  1  0
 10 28  1  0
 12 29  1  0
 16 30  1  0
M  CHG  2   5   1  14  -1
M  END
>  <UniqueID>  (16) 
14

>  <SMILES>  (16) 
CCCn1[nH+]ccc1-c1cc2cn[n-]c2cn1

>  <Energy>  (16) 
102.62193334681436

>  <Genealogy>  (16) 
CCCn1[nH+]ccc1-c1cc2cn[n-]c2cn1 (protonated)
CCCn1[nH+]ccc1-c1cc2cn[n-]c2cn1 (3D coordinates assigned)
CCCn1[nH+]ccc1-c1cc2cn[n-]c2cn1 (optimized conformer: 102.62193334681436 kcal/mol)

>  <smiles>  (16) 
CCCn1nccc1-c1cc2cn[nH]c2cn1

>  <score_type>  (16) 
oracle

>  <origin>  (16) 
adg

>  <m_score__min__energy>  (16) 
-7.2300000000000004

>  <m_primary>  (16) 
energy

$$$$
16:0
     RDKit          3D

 44 45  0  0  0  0  0  0  0  0999 V2000
   55.0906   23.0309   46.3980 H   0  0  0  0  0  0  0  0  0  0  0  0
   54.8870   23.9650   45.8540 C   0  0  0  0  0  0  0  0  0  0  0  0
   53.6170   24.5400   45.9390 O   0  0  0  0  0  0  0  0  0  0  0  0
   52.5380   24.0810   45.1390 C   0  0  0  0  0  0  0  0  0  0  0  0
   51.7214   23.7336   45.7891 H   0  0  0  0  0  0  0  0  0  0  0  0
   52.1766   24.9033   44.5040 H   0  0  0  0  0  0  0  0  0  0  0  0
   52.8798   23.2504   44.5040 H   0  0  0  0  0  0  0  0  0  0  0  0
   55.8660   24.5250   45.1240 C   0  0  0  0  0  0  0  0  0  0  0  0
   56.3270   23.9160   43.8520 C   0  0  0  0  0  0  0  0  0  0  0  0
   57.0940   24.5520   43.0760 O   0  0  0  0  0  0  0  0  0  0  0  0
   55.9020   22.6270   43.5120 O   0  0  0  0  0  0  0  0  0  0  0  0
   56.8050   21.5940   43.1370 C   0  0  0  0  0  0  0  0  0  0  0  0
   57.2177   21.1218   44.0407 H   0  0  0  0  0  0  0  0  0  0  0  0
   56.2716   20.8395   42.5401 H   0  0  0  0  0  0  0  0  0  0  0  0
   57.6240   22.0217   42.5401 H   0  0  0  0  0  0  0  0  0  0  0  0
   56.5240   25.7550   45.6220 C   0  0  0  0  0  0  0  0  0  0  0  0
   56.4840   26.0230   46.8560 O   0  0  0  0  0  0  0  0  0  0  0  0
   57.2080   26.6400   44.7180 N   0  0  0  0  0  0  0  0  0  0  0  0
   57.3470   26.3520   43.7250 H   0  0  0  0  0  0  0  0  0  0  0  0
   57.8640   27.8350   45.1560 C   0  0  0  0  0  0  0  0  0  0  0  0
   59.1330   27.9770   45.7020 C   0  0  0  0  0  0  0  0  0  0  0  0
   60.1070   26.8770   46.0120 C   0  0  0  0  0  0  0  0  0  0  0  0
   60.2029   26.7687   47.1024 H   0  0  0  0  0  0  0  0  0  0  0  0
   59.7434   25.9328   45.5803 H   0  0  0  0  0  0  0  0  0  0  0  0
   61.0882   27.1237   45.5803 H   0  0  0  0  0  0  0  0  0  0  0  0
   59.3250   29.2900   45.9920 N   0  0  0  0  0  0  0  0  0  0  0  0
   60.5390   29.8770   46.5680 C   0  0  0  0  0  0  0  0  0  0  0  0
   60.4758   29.8464   47.6658 H   0  0  0  0  0  0  0  0  0  0  0  0
   61.4169   29.3039   46.2352 H   0  0  0  0  0  0  0  0  0  0  0  0
   60.6350   30.9210   46.2352 H   0  0  0  0  0  0  0  0  0  0  0  0
   58.2310   29.9710   45.6520 N   0  0  0  0  0  0  0  0  0  0  0  0
   58.0500   31.3940   45.7680 C   0  0  0  0  0  0  0  0  0  0  0  0
   58.1610   32.0250   47.0170 C   0  0  0  0  0  0  0  0  0  0  0  0
   58.3787   31.4281   47.9150 H   0  0  0  0  0  0  0  0  0  0  0  0
   57.9960   33.4090   47.1240 C   0  0  0  0  0  0  0  0  0  0  0  0
   58.0777   33.8979   48.1060 H   0  0  0  0  0  0  0  0  0  0  0  0
   57.7270   34.1730   45.9830 C   0  0  0  0  0  0  0  0  0  0  0  0
   57.5943   35.2616   46.0683 H   0  0  0  0  0  0  0  0  0  0  0  0
   57.6270   33.5520   44.7350 C   0  0  0  0  0  0  0  0  0  0  0  0
   57.4181   34.1531   43.8378 H   0  0  0  0  0  0  0  0  0  0  0  0
   57.7920   32.1680   44.6250 C   0  0  0  0  0  0  0  0  0  0  0  0
   57.7195   31.6838   43.6400 H   0  0  0  0  0  0  0  0  0  0  0  0
   57.3260   29.0990   45.1640 C   0  0  0  0  0  0  0  0  0  0  0  0
   56.1780   29.4150   44.7490 O   0  0  0  0  0  0  0  0  0  0  0  0
  1  2  1  0
  2  3  1  0
  3  4  1  0
  4  5  1  0
  4  6  1  0
  4  7  1  0
  2  8  2  0
  8  9  1  0
  9 10  2  0
  9 11  1  0
 11 12  1  0
 12 13  1  0
 12 14  1  0
 12 15  1  0
  8 16  1  0
 16 17  2  0
 16 18  1  0
 18 19  1  0
 18 20  1  0
 20 21  2  0
 21 22  1  0
 22 23  1  0
 22 24  1  0
 22 25  1  0
 21 26  1  0
 26 27  1  0
 27 28  1  0
 27 29  1  0
 27 30  1  0
 26 31  1  0
 31 32  1  0
 32 33  2  0
 33 34  1  0
 33 35  1  0
 35 36  1  0
 35 37  2  0
 37 38  1  0
 37 39  1  0
 39 40  1  0
 39 41  2  0
 41 42  1  0
 31 43  1  0
 43 44  2  0
 43 20  1  0
 41 32  1  0
M  END
>  <UniqueID>  (17) 
15

>  <SMILES>  (17) 
CO/C=C(/C(=O)Nc1c(C)n(C)n(-c2ccccc2)c1=O)C(=O)OC

>  <Energy>  (17) 
88.41177507695302

>  <Genealogy>  (17) 
CO/C=C(/C(=O)Nc1c(C)n(C)n(-c2ccccc2)c1=O)C(=O)OC (cis-trans isomerization)
CO/C=C(/C(=O)Nc1c(C)n(C)n(-c2ccccc2)c1=O)C(=O)OC (3D coordinates assigned)
CO/C=C(/C(=O)Nc1c(C)n(C)n(-c2ccccc2)c1=O)C(=O)OC (optimized conformer: 88.41177507695302 kcal/mol)

>  <smiles>  (17) 
COC=C(C(=O)Nc1c(C)n(C)n(-c2ccccc2)c1=O)C(=O)OC

>  <score_type>  (17) 
oracle

>  <origin>  (17) 
adg

>  <m_score__min__energy>  (17) 
-7.4299999999999997

>  <m_primary>  (17) 
energy

$$$$
17:0
     RDKit          3D

 55 58  0  0  0  0  0  0  0  0999 V2000
   58.8391   35.1223   48.2087 H   0  0  0  0  0  0  0  0  0  0  0  0
   59.3120   34.2440   47.7450 C   0  0  0  0  0  0  0  0  0  0  0  0
   58.7120   33.6880   46.6680 C   0  0  0  0  0  0  0  0  0  0  0  0
   58.8010   32.2110   46.4040 C   0  0  0  0  0  0  0  0  0  0  0  0
   58.6610   31.7380   45.1380 C   0  0  0  0  0  0  0  0  0  0  0  0
   58.3900   32.7280   44.0040 C   0  0  1  0  0  0  0  0  0  0  0  0
   59.3631   33.1680   43.7404 H   0  0  0  0  0  0  0  0  0  0  0  0
   57.8590   32.0970   42.7060 C   0  0  0  0  0  0  0  0  0  0  0  0
   57.1688   31.2768   42.9527 H   0  0  0  0  0  0  0  0  0  0  0  0
   57.3270   32.8597   42.1184 H   0  0  0  0  0  0  0  0  0  0  0  0
   58.7014   31.7031   42.1184 H   0  0  0  0  0  0  0  0  0  0  0  0
   57.3920   33.7850   44.5020 C   0  0  0  0  0  0  0  0  0  0  0  0
   57.1516   34.4743   43.6792 H   0  0  0  0  0  0  0  0  0  0  0  0
   56.4775   33.2812   44.8482 H   0  0  0  0  0  0  0  0  0  0  0  0
   57.9980   34.5760   45.6640 C   0  0  0  0  0  0  0  0  0  0  0  0
   58.7201   35.2998   45.2583 H   0  0  0  0  0  0  0  0  0  0  0  0
   57.1727   35.0768   46.1913 H   0  0  0  0  0  0  0  0  0  0  0  0
   58.6910   30.2270   44.8880 C   0  0  2  0  0  0  0  0  0  0  0  0
   59.0838   30.1478   43.8636 H   0  0  0  0  0  0  0  0  0  0  0  0
   57.2910   29.6050   45.0200 C   0  0  0  0  0  0  0  0  0  0  0  0
   56.5936   30.3370   45.4535 H   0  0  0  0  0  0  0  0  0  0  0  0
   56.9041   29.3061   44.0346 H   0  0  0  0  0  0  0  0  0  0  0  0
   57.4150   28.3960   45.9390 C   0  0  0  0  0  0  0  0  0  0  0  0
   56.9905   28.6249   46.9277 H   0  0  0  0  0  0  0  0  0  0  0  0
   56.8677   27.5314   45.5355 H   0  0  0  0  0  0  0  0  0  0  0  0
   58.8980   28.0990   46.0610 C   0  0  0  0  0  0  0  0  0  0  0  0
   59.1269   27.7056   47.0624 H   0  0  0  0  0  0  0  0  0  0  0  0
   59.2164   27.3415   45.3297 H   0  0  0  0  0  0  0  0  0  0  0  0
   59.6200   29.4290   45.8360 C   0  0  2  0  0  0  0  0  0  0  0  0
   60.6128   29.2967   45.3812 H   0  0  0  0  0  0  0  0  0  0  0  0
   59.9560   30.1550   47.1650 C   0  0  0  0  0  0  0  0  0  0  0  0
   60.0049   29.4098   47.9726 H   0  0  0  0  0  0  0  0  0  0  0  0
   60.9197   30.6687   47.0335 H   0  0  0  0  0  0  0  0  0  0  0  0
   58.9130   31.2060   47.5300 C   0  0  0  0  0  0  0  0  0  0  0  0
   57.9392   30.7187   47.6860 H   0  0  0  0  0  0  0  0  0  0  0  0
   59.2154   31.7201   48.4543 H   0  0  0  0  0  0  0  0  0  0  0  0
   60.5660   33.7360   48.3310 C   0  0  0  0  0  0  0  0  0  0  0  0
   60.6810   33.5370   49.7120 C   0  0  0  0  0  0  0  0  0  0  0  0
   59.8224   33.7427   50.3681 H   0  0  0  0  0  0  0  0  0  0  0  0
   61.8820   33.0780   50.2610 C   0  0  0  0  0  0  0  0  0  0  0  0
   61.9563   32.9145   51.3462 H   0  0  0  0  0  0  0  0  0  0  0  0
   63.0000   32.8220   49.4390 C   0  0  0  0  0  0  0  0  0  0  0  0
   64.2470   32.3430   50.0070 N   0  0  0  0  0  0  0  0  0  0  0  0
   64.2740   31.1320   50.8360 C   0  0  0  0  0  0  0  0  0  0  0  0
   64.2677   31.4151   51.8989 H   0  0  0  0  0  0  0  0  0  0  0  0
   63.3894   30.5167   50.6152 H   0  0  0  0  0  0  0  0  0  0  0  0
   65.1852   30.5567   50.6152 H   0  0  0  0  0  0  0  0  0  0  0  0
   65.5050   33.0600   49.7600 C   0  0  0  0  0  0  0  0  0  0  0  0
   65.9705   33.3253   50.7207 H   0  0  0  0  0  0  0  0  0  0  0  0
   66.1880   32.4155   49.1872 H   0  0  0  0  0  0  0  0  0  0  0  0
   65.2985   33.9761   49.1872 H   0  0  0  0  0  0  0  0  0  0  0  0
   62.8750   33.0490   48.0510 C   0  0  0  0  0  0  0  0  0  0  0  0
   63.7341   32.8625   47.3898 H   0  0  0  0  0  0  0  0  0  0  0  0
   61.6720   33.5080   47.5080 C   0  0  0  0  0  0  0  0  0  0  0  0
   61.5952   33.6910   46.4260 H   0  0  0  0  0  0  0  0  0  0  0  0
  1  2  1  0
  2  3  2  0
  3  4  1  0
  4  5  2  0
  5  6  1  0
  6  7  1  6
  6  8  1  0
  8  9  1  0
  8 10  1  0
  8 11  1  0
  6 12  1  0
 12 13  1  0
 12 14  1  0
 12 15  1  0
 15 16  1  0
 15 17  1  0
  5 18  1  0
 18 19  1  6
 18 20  1  0
 20 21  1  0
 20 22  1  0
 20 23  1  0
 23 24  1  0
 23 25  1  0
 23 26  1  0
 26 27  1  0
 26 28  1  0
 26 29  1  0
 29 30  1  6
 29 31  1  0
 31 32  1  0
 31 33  1  0
 31 34  1  0
 34 35  1  0
 34 36  1  0
  2 37  1  0
 37 38  2  0
 38 39  1  0
 38 40  1  0
 40 41  1  0
 40 42  2  0
 42 43  1  0
 43 44  1  0
 44 45  1  0
 44 46  1  0
 44 47  1  0
 43 48  1  0
 48 49  1  0
 48 50  1  0
 48 51  1  0
 42 52  1  0
 52 53  1  0
 52 54  2  0
 54 55  1  0
 15  3  1  0
 29 18  1  0
 54 37  1  0
 34  4  1  0
M  END
>  <UniqueID>  (18) 
16

>  <SMILES>  (18) 
C[C@H]1CC/C(=C\c2ccc(N(C)C)cc2)C2=C1[C@@H]1CCCC1CC2

>  <Energy>  (18) 
77.30027032191587

>  <Genealogy>  (18) 
C[C@H]1CCC(=Cc2ccc(N(C)C)cc2)C2=C1[C@@H]1CCCC1CC2 (chirality)
C[C@H]1CC/C(=C\c2ccc(N(C)C)cc2)C2=C1[C@@H]1CCCC1CC2 (cis-trans isomerization)
C[C@H]1CC/C(=C\c2ccc(N(C)C)cc2)C2=C1[C@@H]1CCCC1CC2 (3D coordinates assigned)
C[C@H]1CC/C(=C\c2ccc(N(C)C)cc2)C2=C1[C@@H]1CCCC1CC2 (nonaromatic ring conformer: 77.30027032191587 kcal/mol)

>  <smiles>  (18) 
CC1CCC(=Cc2ccc(N(C)C)cc2)C2=C1C1CCCC1CC2

>  <score_type>  (18) 
oracle

>  <origin>  (18) 
adg

>  <m_score__min__energy>  (18) 
-8.8800000000000008

>  <m_primary>  (18) 
energy

$$$$
18:0
     RDKit          3D

 50 51  0  0  0  0  0  0  0  0999 V2000
   55.4230   24.1150   44.9270 C   0  0  0  0  0  0  0  0  0  0  0  0
   54.4010   25.0170   45.6090 C   0  0  0  0  0  0  0  0  0  0  0  0
   54.9970   26.2520   45.9610 O   0  0  0  0  0  0  0  0  0  0  0  0
   56.3980   26.1900   45.7980 C   0  0  0  0  0  0  0  0  0  0  0  0
   56.9870   27.5790   46.0080 C   0  0  0  0  0  0  0  0  0  0  0  0
   56.2200   28.5560   45.2440 N   0  0  0  0  0  0  0  0  0  0  0  0
   56.7930   29.5710   44.4100 C   0  0  0  0  0  0  0  0  0  0  0  0
   56.7710   29.4120   43.1610 O   0  0  0  0  0  0  0  0  0  0  0  0
   57.4310   30.7800   44.9670 C   0  0  0  0  0  0  0  0  0  0  0  0
   58.2900   30.6700   46.0720 C   0  0  0  0  0  0  0  0  0  0  0  0
   58.9180   31.8060   46.5940 C   0  0  0  0  0  0  0  0  0  0  0  0
   58.7020   33.0620   46.0100 C   0  0  0  0  0  0  0  0  0  0  0  0
   59.5030   34.5010   46.6400 S   0  0  0  0  0  0  0  0  0  0  0  0
   58.6190   35.1840   47.6480 O   0  0  0  0  0  0  0  0  0  0  0  0
   59.7380   35.4440   45.4920 O   0  0  0  0  0  0  0  0  0  0  0  0
   61.0290   34.0690   47.3820 N   0  0  0  0  0  0  0  0  0  0  0  0
   61.9550   33.4820   46.3730 C   0  0  0  0  0  0  0  0  0  0  0  0
   63.4380   33.4130   46.8010 C   0  0  0  0  0  0  0  0  0  0  0  0
   63.7070   32.8600   48.2250 C   0  0  0  0  0  0  0  0  0  0  0  0
   63.1940   33.7300   49.3850 C   0  0  0  0  0  0  0  0  0  0  0  0
   61.7140   33.5040   49.7500 C   0  0  0  0  0  0  0  0  0  0  0  0
   60.7640   33.2260   48.5690 C   0  0  0  0  0  0  0  0  0  0  0  0
   57.8630   33.1690   44.8930 C   0  0  0  0  0  0  0  0  0  0  0  0
   57.2370   32.0350   44.3700 C   0  0  0  0  0  0  0  0  0  0  0  0
   56.0168   23.5909   45.6904 H   0  0  0  0  0  0  0  0  0  0  0  0
   54.9006   23.3782   44.2992 H   0  0  0  0  0  0  0  0  0  0  0  0
   56.0892   24.7249   44.2992 H   0  0  0  0  0  0  0  0  0  0  0  0
   53.5625   25.2011   44.9212 H   0  0  0  0  0  0  0  0  0  0  0  0
   54.0367   24.5214   46.5209 H   0  0  0  0  0  0  0  0  0  0  0  0
   56.8241   25.4940   46.5356 H   0  0  0  0  0  0  0  0  0  0  0  0
   56.6375   25.8356   44.7846 H   0  0  0  0  0  0  0  0  0  0  0  0
   56.9462   27.8362   47.0767 H   0  0  0  0  0  0  0  0  0  0  0  0
   58.0327   27.5878   45.6669 H   0  0  0  0  0  0  0  0  0  0  0  0
   58.4701   29.6860   46.5295 H   0  0  0  0  0  0  0  0  0  0  0  0
   59.5832   31.7134   47.4652 H   0  0  0  0  0  0  0  0  0  0  0  0
   61.4520   34.9660   47.7180 H   0  0  0  0  0  0  0  0  0  0  0  0
   61.6160   32.4585   46.1551 H   0  0  0  0  0  0  0  0  0  0  0  0
   61.9203   34.1520   45.5013 H   0  0  0  0  0  0  0  0  0  0  0  0
   63.9662   32.7678   46.0835 H   0  0  0  0  0  0  0  0  0  0  0  0
   63.7929   34.4541   46.8140 H   0  0  0  0  0  0  0  0  0  0  0  0
   63.2240   31.8747   48.3020 H   0  0  0  0  0  0  0  0  0  0  0  0
   64.8012   32.8294   48.3336 H   0  0  0  0  0  0  0  0  0  0  0  0
   63.8040   33.5112   50.2739 H   0  0  0  0  0  0  0  0  0  0  0  0
   63.2770   34.7750   49.0516 H   0  0  0  0  0  0  0  0  0  0  0  0
   61.6631   32.6434   50.4332 H   0  0  0  0  0  0  0  0  0  0  0  0
   61.3691   34.4499   50.1930 H   0  0  0  0  0  0  0  0  0  0  0  0
   60.8722   32.1710   48.2770 H   0  0  0  0  0  0  0  0  0  0  0  0
   59.7463   33.4640   48.9119 H   0  0  0  0  0  0  0  0  0  0  0  0
   57.6964   34.1507   44.4256 H   0  0  0  0  0  0  0  0  0  0  0  0
   56.5889   32.1263   43.4859 H   0  0  0  0  0  0  0  0  0  0  0  0
  1  2  1  0
  2  3  1  0
  3  4  1  0
  4  5  1  0
  5  6  1  0
  6  7  1  0
  7  8  2  0
  7  9  1  0
  9 10  2  0
 10 11  1  0
 11 12  2  0
 12 13  1  0
 13 14  2  0
 13 15  2  0
 13 16  1  0
 16 17  1  0
 17 18  1  0
 18 19  1  0
 19 20  1  0
 20 21  1  0
 21 22  1  0
 12 23  1  0
 23 24  2  0
 24  9  1  0
 22 16  1  0
  1 25  1  0
  1 26  1  0
  1 27  1  0
  2 28  1  0
  2 29  1  0
  4 30  1  0
  4 31  1  0
  5 32  1  0
  5 33  1  0
 10 34  1  0
 11 35  1  0
 16 36  1  0
 17 37  1  0
 17 38  1  0
 18 39  1  0
 18 40  1  0
 19 41  1  0
 19 42  1  0
 20 43  1  0
 20 44  1  0
 21 45  1  0
 21 46  1  0
 22 47  1  0
 22 48  1  0
 23 49  1  0
 24 50  1  0
M  CHG  2   6  -1  16   1
M  END
>  <UniqueID>  (19) 
17

>  <SMILES>  (19) 
CCOCC[N-]C(=O)c1ccc(S(=O)(=O)[NH+]2CCCCCC2)cc1

>  <Energy>  (19) 
61.82964583293789

>  <Genealogy>  (19) 
CCOCC[N-]C(=O)c1ccc(S(=O)(=O)[NH+]2CCCCCC2)cc1 (protonated)
CCOCC[N-]C(=O)c1ccc(S(=O)(=O)[NH+]2CCCCCC2)cc1 (3D coordinates assigned)
CCOCC[N-]C(=O)c1ccc(S(=O)(=O)[NH+]2CCCCCC2)cc1 (nonaromatic ring conformer: 61.82964583293789 kcal/mol)

>  <smiles>  (19) 
CCOCCNC(=O)c1ccc(S(=O)(=O)N2CCCCCC2)cc1

>  <score_type>  (19) 
oracle

>  <origin>  (19) 
adg

>  <m_score__min__energy>  (19) 
-7.21

>  <m_primary>  (19) 
energy

$$$$
19:0
     RDKit          3D

 28 29  0  0  0  0  0  0  0  0999 V2000
   62.6810   33.4590   46.9790 C   0  0  0  0  0  0  0  0  0  0  0  0
   61.3820   33.4810   47.5600 O   0  0  0  0  0  0  0  0  0  0  0  0
   60.2010   33.1430   46.8790 C   0  0  0  0  0  0  0  0  0  0  0  0
   59.3950   34.1810   46.4020 C   0  0  0  0  0  0  0  0  0  0  0  0
   58.2060   33.9020   45.7270 C   0  0  0  0  0  0  0  0  0  0  0  0
   57.8100   32.5780   45.5210 C   0  0  0  0  0  0  0  0  0  0  0  0
   56.6480   32.3180   44.8740 N   0  0  0  0  0  0  0  0  0  0  0  0
   56.2430   31.0660   44.6700 N   0  0  0  0  0  0  0  0  0  0  0  0
   56.9650   30.0300   45.0920 N   0  0  0  0  0  0  0  0  0  0  0  0
   58.1470   30.1970   45.7420 C   0  0  0  0  0  0  0  0  0  0  0  0
   58.8710   28.9560   46.1960 C   0  0  0  0  0  0  0  0  0  0  0  0
   58.0970   27.4850   45.5370 S   0  0  0  0  0  0  0  0  0  0  0  0
   58.1750   27.4430   43.7590 C   0  0  0  0  0  0  0  0  0  0  0  0
   58.7860   26.2680   46.0880 O   0  0  0  0  0  0  0  0  0  0  0  0
   56.6550   27.4640   45.9600 O   0  0  0  0  0  0  0  0  0  0  0  0
   58.6070   31.5120   45.9850 C   0  0  0  0  0  0  0  0  0  0  0  0
   59.8080   31.8070   46.6650 C   0  0  0  0  0  0  0  0  0  0  0  0
   63.4390   33.4462   47.7760 H   0  0  0  0  0  0  0  0  0  0  0  0
   62.7888   32.5589   46.3559 H   0  0  0  0  0  0  0  0  0  0  0  0
   62.8192   34.3549   46.3559 H   0  0  0  0  0  0  0  0  0  0  0  0
   59.7005   35.2258   46.5600 H   0  0  0  0  0  0  0  0  0  0  0  0
   57.5791   34.7263   45.3562 H   0  0  0  0  0  0  0  0  0  0  0  0
   59.9136   29.0004   45.8483 H   0  0  0  0  0  0  0  0  0  0  0  0
   58.8326   28.9100   47.2944 H   0  0  0  0  0  0  0  0  0  0  0  0
   59.1031   26.9433   43.4444 H   0  0  0  0  0  0  0  0  0  0  0  0
   57.3093   26.8891   43.3670 H   0  0  0  0  0  0  0  0  0  0  0  0
   58.1609   28.4707   43.3670 H   0  0  0  0  0  0  0  0  0  0  0  0
   60.4428   30.9867   47.0311 H   0  0  0  0  0  0  0  0  0  0  0  0
  1  2  1  0
  2  3  1  0
  3  4  2  0
  4  5  1  0
  5  6  2  0
  6  7  1  0
  7  8  2  0
  8  9  1  0
  9 10  2  0
 10 11  1  0
 11 12  1  0
 12 13  1  0
 12 14  2  0
 12 15  2  0
 10 16  1  0
 16 17  2  0
 17  3  1  0
 16  6  1  0
  1 18  1  0
  1 19  1  0
  1 20  1  0
  4 21  1  0
  5 22  1  0
 11 23  1  0
 11 24  1  0
 13 25  1  0
 13 26  1  0
 13 27  1  0
 17 28  1  0
M  END
>  <UniqueID>  (20) 
18

>  <SMILES>  (20) 
COc1ccc2nnnc(CS(C)(=O)=O)c2c1

>  <Energy>  (20) 
25.615664140423473

>  <Genealogy>  (20) 
COc1ccc2nnnc(CS(C)(=O)=O)c2c1 (3D coordinates assigned)
COc1ccc2nnnc(CS(C)(=O)=O)c2c1 (optimized conformer: 25.615664140423473 kcal/mol)

>  <smiles>  (20) 
COc1ccc2nnnc(CS(C)(=O)=O)c2c1

>  <score_type>  (20) 
oracle

>  <origin>  (20) 
adg

>  <m_score__min__energy>  (20) 
-6.8899999999999997

>  <m_primary>  (20) 
energy

$$$$
20:0
     RDKit          3D

 26 27  0  0  0  0  0  0  0  0999 V2000
   62.6200   33.5470   46.7700 C   0  0  0  0  0  0  0  0  0  0  0  0
   61.3560   34.1690   46.8300 O   0  0  0  0  0  0  0  0  0  0  0  0
   60.7730   33.9230   48.0920 C   0  0  0  0  0  0  0  0  0  0  0  0
   59.2570   34.0730   47.9900 C   0  0  0  0  0  0  0  0  0  0  0  0
   58.7990   33.7270   46.6470 N   0  0  0  0  0  0  0  0  0  0  0  0
   58.8210   34.5360   45.5700 C   0  0  0  0  0  0  0  0  0  0  0  0
   58.2470   33.8670   44.5110 C   0  0  0  0  0  0  0  0  0  0  0  0
   57.8860   32.6380   45.0360 C   0  0  0  0  0  0  0  0  0  0  0  0
   57.2200   31.5440   44.3170 C   0  0  0  0  0  0  0  0  0  0  0  0
   57.4050   31.2030   42.9910 C   0  0  0  0  0  0  0  0  0  0  0  0
   56.5750   30.1250   42.7670 C   0  0  0  0  0  0  0  0  0  0  0  0
   55.9380   29.8760   43.9650 C   0  0  0  0  0  0  0  0  0  0  0  0
   56.3430   30.7370   44.8700 O   0  0  0  0  0  0  0  0  0  0  0  0
   58.2250   32.5750   46.3380 N   0  0  0  0  0  0  0  0  0  0  0  0
   62.9883   33.3658   47.7905 H   0  0  0  0  0  0  0  0  0  0  0  0
   62.5323   32.5891   46.2363 H   0  0  0  0  0  0  0  0  0  0  0  0
   63.3254   34.2009   46.2363 H   0  0  0  0  0  0  0  0  0  0  0  0
   61.0194   32.9014   48.4169 H   0  0  0  0  0  0  0  0  0  0  0  0
   61.1645   34.6448   48.8239 H   0  0  0  0  0  0  0  0  0  0  0  0
   58.7770   33.4045   48.7198 H   0  0  0  0  0  0  0  0  0  0  0  0
   58.9876   35.1186   48.1999 H   0  0  0  0  0  0  0  0  0  0  0  0
   59.2282   35.5575   45.5410 H   0  0  0  0  0  0  0  0  0  0  0  0
   58.1072   34.2279   43.4813 H   0  0  0  0  0  0  0  0  0  0  0  0
   58.0741   31.6895   42.2660 H   0  0  0  0  0  0  0  0  0  0  0  0
   56.4467   29.5746   41.8233 H   0  0  0  0  0  0  0  0  0  0  0  0
   55.2019   29.0768   44.1363 H   0  0  0  0  0  0  0  0  0  0  0  0
  1  2  1  0
  2  3  1  0
  3  4  1  0
  4  5  1  0
  5  6  1  0
  6  7  2  0
  7  8  1  0
  8  9  1  0
  9 10  2  0
 10 11  1  0
 11 12  2  0
 12 13  1  0
  8 14  2  0
 14  5  1  0
 13  9  1  0
  1 15  1  0
  1 16  1  0
  1 17  1  0
  3 18  1  0
  3 19  1  0
  4 20  1  0
  4 21  1  0
  6 22  1  0
  7 23  1  0
 10 24  1  0
 11 25  1  0
 12 26  1  0
M  END
>  <UniqueID>  (21) 
19

>  <SMILES>  (21) 
COCCn1ccc(-c2ccco2)n1

>  <Energy>  (21) 
77.86200085868524

>  <Genealogy>  (21) 
COCCn1ccc(-c2ccco2)n1 (3D coordinates assigned)
COCCn1ccc(-c2ccco2)n1 (optimized conformer: 77.86200085868524 kcal/mol)

>  <smiles>  (21) 
COCCn1ccc(-c2ccco2)n1

>  <score_type>  (21) 
oracle

>  <origin>  (21) 
adg

>  <m_score__min__energy>  (21) 
-5.2300000000000004

>  <m_primary>  (21) 
energy

$$$$
21:0
     RDKit          3D

 20 21  0  0  0  0  0  0  0  0999 V2000
   57.4072   25.9799   46.1557 H   0  0  0  0  0  0  0  0  0  0  0  0
   56.6270   26.6890   45.8420 C   0  0  0  0  0  0  0  0  0  0  0  0
   55.4150   26.4110   46.0360 O   0  0  0  0  0  0  0  0  0  0  0  0
   57.0050   27.9490   45.2020 C   0  0  0  0  0  0  0  0  0  0  0  0
   57.7940   28.0390   44.1100 N   0  0  0  0  0  0  0  0  0  0  0  0
   57.8940   29.3320   43.8510 N   0  0  0  0  0  0  0  0  0  0  0  0
   58.4050   29.7200   43.0300 H   0  0  0  0  0  0  0  0  0  0  0  0
   57.1710   29.9790   44.7860 C   0  0  0  0  0  0  0  0  0  0  0  0
   56.9970   31.2670   44.8640 N   0  0  0  0  0  0  0  0  0  0  0  0
   57.6710   32.2910   44.1180 C   0  0  0  0  0  0  0  0  0  0  0  0
   58.1840   31.9810   43.0090 O   0  0  0  0  0  0  0  0  0  0  0  0
   57.6730   33.7290   44.5790 C   0  0  0  0  0  0  0  0  0  0  0  0
   57.0164   34.0891   43.7733 H   0  0  0  0  0  0  0  0  0  0  0  0
   57.7620   33.9060   46.0870 C   0  0  0  0  0  0  0  0  0  0  0  0
   57.1920   34.7068   46.5807 H   0  0  0  0  0  0  0  0  0  0  0  0
   57.5986   33.2524   46.9565 H   0  0  0  0  0  0  0  0  0  0  0  0
   58.9570   34.2520   45.2150 C   0  0  0  0  0  0  0  0  0  0  0  0
   59.2511   35.3029   45.0765 H   0  0  0  0  0  0  0  0  0  0  0  0
   60.0153   33.9529   45.1908 H   0  0  0  0  0  0  0  0  0  0  0  0
   56.6150   29.1330   45.6190 O   0  0  0  0  0  0  0  0  0  0  0  0
  1  2  1  0
  2  3  2  0
  2  4  1  0
  4  5  2  0
  5  6  1  0
  6  7  1  0
  6  8  1  0
  8  9  2  0
  9 10  1  0
 10 11  2  0
 10 12  1  0
 12 13  1  0
 12 14  1  0
 14 15  1  0
 14 16  1  0
 14 17  1  0
 17 18  1  0
 17 19  1  0
  8 20  1  0
 20  4  1  0
 17 12  1  0
M  END
>  <UniqueID>  (22) 
20

>  <SMILES>  (22) 
O=Cc1n[nH]/c(=N\C(=O)C2CC2)o1

>  <Energy>  (22) 
324.75981459796895

>  <Genealogy>  (22) 
O=Cc1n[nH]/c(=N\C(=O)C2CC2)o1 (cis-trans isomerization)
O=Cc1n[nH]/c(=N\C(=O)C2CC2)o1 (3D coordinates assigned)
O=Cc1n[nH]/c(=N\C(=O)C2CC2)o1 (nonaromatic ring conformer: 324.75981459796895 kcal/mol)

>  <smiles>  (22) 
O=Cc1n[nH]c(=NC(=O)C2CC2)o1

>  <score_type>  (22) 
oracle

>  <origin>  (22) 
adg

>  <m_score__min__energy>  (22) 
-5.7800000000000002

>  <m_primary>  (22) 
energy

$$$$
22:0
     RDKit          3D

 38 40  0  0  0  0  0  0  0  0999 V2000
   56.7990   28.9650   44.8190 C   0  0  0  0  0  0  0  0  0  0  0  0
   56.0150   30.1630   44.2890 C   0  0  0  0  0  0  0  0  0  0  0  0
   56.9190   31.1790   43.7300 N   0  0  0  0  0  0  0  0  0  0  0  0
   57.0170   31.3210   42.2670 C   0  0  0  0  0  0  0  0  0  0  0  0
   58.0770   32.3500   41.8900 C   0  0  0  0  0  0  0  0  0  0  0  0
   57.7010   32.0240   44.6090 C   0  0  0  0  0  0  0  0  0  0  0  0
   57.3570   33.3950   44.7840 C   0  0  0  0  0  0  0  0  0  0  0  0
   58.1130   34.2290   45.6290 C   0  0  0  0  0  0  0  0  0  0  0  0
   59.2040   33.6680   46.2830 C   0  0  0  0  0  0  0  0  0  0  0  0
   60.0580   34.2690   47.1290 N   0  0  0  0  0  0  0  0  0  0  0  0
   60.9020   33.2500   47.4500 C   0  0  0  0  0  0  0  0  0  0  0  0
   62.0440   33.3990   48.3740 C   0  0  0  0  0  0  0  0  0  0  0  0
   61.8920   34.1060   49.5790 C   0  0  0  0  0  0  0  0  0  0  0  0
   62.9730   34.2490   50.4550 C   0  0  0  0  0  0  0  0  0  0  0  0
   64.2120   33.6880   50.1380 C   0  0  0  0  0  0  0  0  0  0  0  0
   65.2570   33.8270   50.9900 F   0  0  0  0  0  0  0  0  0  0  0  0
   64.3730   32.9810   48.9430 C   0  0  0  0  0  0  0  0  0  0  0  0
   63.2960   32.8370   48.0630 C   0  0  0  0  0  0  0  0  0  0  0  0
   60.5940   32.1090   46.8520 O   0  0  0  0  0  0  0  0  0  0  0  0
   59.5410   32.3620   46.1240 C   0  0  0  0  0  0  0  0  0  0  0  0
   58.8230   31.5010   45.3010 C   0  0  0  0  0  0  0  0  0  0  0  0
   56.7901   28.9785   45.9189 H   0  0  0  0  0  0  0  0  0  0  0  0
   56.3344   28.0348   44.4600 H   0  0  0  0  0  0  0  0  0  0  0  0
   57.8374   29.0185   44.4600 H   0  0  0  0  0  0  0  0  0  0  0  0
   55.3261   29.8224   43.5020 H   0  0  0  0  0  0  0  0  0  0  0  0
   55.4557   30.6124   45.1228 H   0  0  0  0  0  0  0  0  0  0  0  0
   57.2864   30.3490   41.8281 H   0  0  0  0  0  0  0  0  0  0  0  0
   56.0446   31.6606   41.8810 H   0  0  0  0  0  0  0  0  0  0  0  0
   58.5159   32.7761   42.8042 H   0  0  0  0  0  0  0  0  0  0  0  0
   58.8655   31.8637   41.2969 H   0  0  0  0  0  0  0  0  0  0  0  0
   57.6143   33.1526   41.2969 H   0  0  0  0  0  0  0  0  0  0  0  0
   56.4879   33.8081   44.2510 H   0  0  0  0  0  0  0  0  0  0  0  0
   57.8497   35.2880   45.7671 H   0  0  0  0  0  0  0  0  0  0  0  0
   60.9181   34.5491   49.8345 H   0  0  0  0  0  0  0  0  0  0  0  0
   62.8469   34.8047   51.3959 H   0  0  0  0  0  0  0  0  0  0  0  0
   65.3484   32.5373   48.6945 H   0  0  0  0  0  0  0  0  0  0  0  0
   63.4281   32.2816   47.1228 H   0  0  0  0  0  0  0  0  0  0  0  0
   59.1164   30.4467   45.1902 H   0  0  0  0  0  0  0  0  0  0  0  0
  1  2  1  0
  2  3  1  0
  3  4  1  0
  4  5  1  0
  3  6  1  0
  6  7  2  0
  7  8  1  0
  8  9  2  0
  9 10  1  0
 10 11  2  0
 11 12  1  0
 12 13  2  0
 13 14  1  0
 14 15  2  0
 15 16  1  0
 15 17  1  0
 17 18  2  0
 11 19  1  0
 19 20  1  0
 20 21  2  0
 21  6  1  0
 20  9  1  0
 18 12  1  0
  1 22  1  0
  1 23  1  0
  1 24  1  0
  2 25  1  0
  2 26  1  0
  4 27  1  0
  4 28  1  0
  5 29  1  0
  5 30  1  0
  5 31  1  0
  7 32  1  0
  8 33  1  0
 13 34  1  0
 14 35  1  0
 17 36  1  0
 18 37  1  0
 21 38  1  0
M  END
>  <UniqueID>  (23) 
21

>  <SMILES>  (23) 
CCN(CC)c1ccc2nc(-c3ccc(F)cc3)oc2c1

>  <Energy>  (23) 
75.07477920405898

>  <Genealogy>  (23) 
CCN(CC)c1ccc2nc(-c3ccc(F)cc3)oc2c1 (3D coordinates assigned)
CCN(CC)c1ccc2nc(-c3ccc(F)cc3)oc2c1 (optimized conformer: 75.07477920405898 kcal/mol)

>  <smiles>  (23) 
CCN(CC)c1ccc2nc(-c3ccc(F)cc3)oc2c1

>  <score_type>  (23) 
oracle

>  <origin>  (23) 
adg

>  <m_score__min__energy>  (23) 
-6.29

>  <m_primary>  (23) 
energy

$$$$
23:0
     RDKit          3D

 56 59  0  0  0  0  0  0  0  0999 V2000
   56.3340   29.7910   42.9280 C   0  0  0  0  0  0  0  0  0  0  0  0
   56.1600   30.0350   44.3200 O   0  0  0  0  0  0  0  0  0  0  0  0
   57.1990   30.3730   45.2010 C   0  0  0  0  0  0  0  0  0  0  0  0
   57.9570   29.4020   45.8820 C   0  0  0  0  0  0  0  0  0  0  0  0
   58.9560   29.7920   46.7740 C   0  0  0  0  0  0  0  0  0  0  0  0
   59.2260   31.1510   46.9880 C   0  0  0  0  0  0  0  0  0  0  0  0
   58.5100   32.1310   46.2760 C   0  0  0  0  0  0  0  0  0  0  0  0
   57.4810   31.7290   45.4070 C   0  0  0  0  0  0  0  0  0  0  0  0
   58.7450   33.5830   46.4640 C   0  0  0  0  0  0  0  0  0  0  0  0
   59.9240   34.1720   46.7140 C   0  0  0  0  0  0  0  0  0  0  0  0
   61.2330   33.4860   46.8490 C   0  0  0  0  0  0  0  0  0  0  0  0
   62.3900   34.1600   46.4210 C   0  0  0  0  0  0  0  0  0  0  0  0
   63.6510   33.5730   46.5670 C   0  0  0  0  0  0  0  0  0  0  0  0
   63.7730   32.3130   47.1520 C   0  0  0  0  0  0  0  0  0  0  0  0
   62.6350   31.6400   47.6010 C   0  0  0  0  0  0  0  0  0  0  0  0
   61.3660   32.2250   47.4650 C   0  0  0  0  0  0  0  0  0  0  0  0
   60.2140   31.5320   47.9500 N   0  0  0  0  0  0  0  0  0  0  0  0
   59.9690   31.3280   49.3580 C   0  0  0  0  0  0  0  0  0  0  0  0
   58.8070   31.0220   49.7480 O   0  0  0  0  0  0  0  0  0  0  0  0
   61.0350   31.5870   50.3990 C   0  0  0  0  0  0  0  0  0  0  0  0
   60.6500   32.7140   51.3710 C   0  0  0  0  0  0  0  0  0  0  0  0
   59.8930   32.1690   52.6100 C   0  0  0  0  0  0  0  0  0  0  0  0
   58.6070   31.4880   52.3080 N   0  0  0  0  0  0  0  0  0  0  0  0
   57.4380   32.1670   52.9040 C   0  0  0  0  0  0  0  0  0  0  0  0
   56.1240   31.5710   52.3530 C   0  0  0  0  0  0  0  0  0  0  0  0
   56.2580   30.1620   51.9330 N   0  0  0  0  0  0  0  0  0  0  0  0
   57.2200   29.4370   52.7700 C   0  0  0  0  0  0  0  0  0  0  0  0
   58.6400   30.0400   52.6520 C   0  0  0  0  0  0  0  0  0  0  0  0
   56.9675   28.9027   42.7878 H   0  0  0  0  0  0  0  0  0  0  0  0
   55.3532   29.6194   42.4604 H   0  0  0  0  0  0  0  0  0  0  0  0
   56.8157   30.6624   42.4604 H   0  0  0  0  0  0  0  0  0  0  0  0
   57.7612   28.3333   45.7104 H   0  0  0  0  0  0  0  0  0  0  0  0
   59.5358   29.0283   47.3131 H   0  0  0  0  0  0  0  0  0  0  0  0
   56.8880   32.4914   44.8806 H   0  0  0  0  0  0  0  0  0  0  0  0
   57.8668   34.2414   46.3914 H   0  0  0  0  0  0  0  0  0  0  0  0
   59.9202   35.2659   46.8298 H   0  0  0  0  0  0  0  0  0  0  0  0
   62.3028   35.1582   45.9671 H   0  0  0  0  0  0  0  0  0  0  0  0
   64.5483   34.1062   46.2197 H   0  0  0  0  0  0  0  0  0  0  0  0
   64.7649   31.8497   47.2596 H   0  0  0  0  0  0  0  0  0  0  0  0
   62.7332   30.6468   48.0635 H   0  0  0  0  0  0  0  0  0  0  0  0
   61.1961   30.6642   50.9755 H   0  0  0  0  0  0  0  0  0  0  0  0
   61.9478   31.8997   49.8708 H   0  0  0  0  0  0  0  0  0  0  0  0
   61.5654   33.2226   51.7077 H   0  0  0  0  0  0  0  0  0  0  0  0
   59.9840   33.4111   50.8414 H   0  0  0  0  0  0  0  0  0  0  0  0
   60.5488   31.4493   53.1218 H   0  0  0  0  0  0  0  0  0  0  0  0
   59.6412   33.0440   53.2272 H   0  0  0  0  0  0  0  0  0  0  0  0
   58.4980   31.5500   51.2650 H   0  0  0  0  0  0  0  0  0  0  0  0
   57.4633   32.0385   53.9962 H   0  0  0  0  0  0  0  0  0  0  0  0
   57.4786   33.2354   52.6456 H   0  0  0  0  0  0  0  0  0  0  0  0
   55.3562   31.6306   53.1385 H   0  0  0  0  0  0  0  0  0  0  0  0
   55.8480   32.1539   51.4619 H   0  0  0  0  0  0  0  0  0  0  0  0
   56.5890   30.1260   50.9410 H   0  0  0  0  0  0  0  0  0  0  0  0
   56.8941   29.4922   53.8192 H   0  0  0  0  0  0  0  0  0  0  0  0
   57.2584   28.3926   52.4269 H   0  0  0  0  0  0  0  0  0  0  0  0
   59.1591   29.9157   53.6138 H   0  0  0  0  0  0  0  0  0  0  0  0
   59.1661   29.5117   51.8432 H   0  0  0  0  0  0  0  0  0  0  0  0
  1  2  1  0
  2  3  1  0
  3  4  2  0
  4  5  1  0
  5  6  2  0
  6  7  1  0
  7  8  2  0
  7  9  1  0
  9 10  2  0
 10 11  1  0
 11 12  2  0
 12 13  1  0
 13 14  2  0
 14 15  1  0
 15 16  2  0
 16 17  1  0
 17 18  1  0
 18 19  2  0
 18 20  1  0
 20 21  1  0
 21 22  1  0
 22 23  1  0
 23 24  1  0
 24 25  1  0
 25 26  1  0
 26 27  1  0
 27 28  1  0
  8  3  1  0
 16 11  1  0
 28 23  1  0
 17  6  1  0
  1 29  1  0
  1 30  1  0
  1 31  1  0
  4 32  1  0
  5 33  1  0
  8 34  1  0
  9 35  1  0
 10 36  1  0
 12 37  1  0
 13 38  1  0
 14 39  1  0
 15 40  1  0
 20 41  1  0
 20 42  1  0
 21 43  1  0
 21 44  1  0
 22 45  1  0
 22 46  1  0
 23 47  1  0
 24 48  1  0
 24 49  1  0
 25 50  1  0
 25 51  1  0
 26 52  1  0
 27 53  1  0
 27 54  1  0
 28 55  1  0
 28 56  1  0
M  CHG  1  23   1
M  END
>  <UniqueID>  (24) 
22

>  <SMILES>  (24) 
COc1ccc2c(c1)C=Cc1ccccc1N2C(=O)CCC[NH+]1CCNCC1

>  <Energy>  (24) 
91.17101498331054

>  <Genealogy>  (24) 
COc1ccc2c(c1)C=Cc1ccccc1N2C(=O)CCC[NH+]1CCNCC1 (protonated)
COc1ccc2c(c1)C=Cc1ccccc1N2C(=O)CCC[NH+]1CCNCC1 (3D coordinates assigned)
COc1ccc2c(c1)C=Cc1ccccc1N2C(=O)CCC[NH+]1CCNCC1 (nonaromatic ring conformer: 91.17101498331054 kcal/mol)

>  <smiles>  (24) 
COc1ccc2c(c1)C=Cc1ccccc1N2C(=O)CCCN1CCNCC1

>  <score_type>  (24) 
oracle

>  <origin>  (24) 
adg

>  <m_score__min__energy>  (24) 
-5.3499999999999996

>  <m_primary>  (24) 
energy

$$$$
24:0
     RDKit          3D

 24 26  0  0  0  0  0  0  0  0999 V2000
   59.7370   23.6680   45.7970 O   0  0  0  0  0  0  0  0  0  0  0  0
   58.5880   24.4300   45.8500 N   0  0  0  0  0  0  0  0  0  0  0  0
   57.3730   23.8370   45.6510 C   0  0  0  0  0  0  0  0  0  0  0  0
   57.2740   22.4550   45.3920 C   0  0  0  0  0  0  0  0  0  0  0  0
   56.0270   21.8600   45.1910 C   0  0  0  0  0  0  0  0  0  0  0  0
   54.8670   22.6310   45.2440 C   0  0  0  0  0  0  0  0  0  0  0  0
   54.9440   24.0010   45.4990 C   0  0  0  0  0  0  0  0  0  0  0  0
   56.1940   24.6200   45.7050 C   0  0  0  0  0  0  0  0  0  0  0  0
   56.2830   25.9610   45.9560 N   0  0  0  0  0  0  0  0  0  0  0  0
   55.1340   26.7230   46.0080 O   0  0  0  0  0  0  0  0  0  0  0  0
   57.4980   26.5540   46.1540 C   0  0  0  0  0  0  0  0  0  0  0  0
   57.5970   27.9360   46.4130 C   0  0  0  0  0  0  0  0  0  0  0  0
   58.8450   28.5320   46.6140 C   0  0  0  0  0  0  0  0  0  0  0  0
   58.9530   30.2530   46.9350 Cl  0  0  0  0  0  0  0  0  0  0  0  0
   60.0060   27.7590   46.5610 C   0  0  0  0  0  0  0  0  0  0  0  0
   59.9270   26.3890   46.3060 C   0  0  0  0  0  0  0  0  0  0  0  0
   58.6780   25.7720   46.1010 C   0  0  0  0  0  0  0  0  0  0  0  0
   58.1856   21.8409   45.3479 H   0  0  0  0  0  0  0  0  0  0  0  0
   55.9599   20.7805   44.9904 H   0  0  0  0  0  0  0  0  0  0  0  0
   53.8869   22.1578   45.0842 H   0  0  0  0  0  0  0  0  0  0  0  0
   54.0235   24.6018   45.5395 H   0  0  0  0  0  0  0  0  0  0  0  0
   56.6853   28.5499   46.4572 H   0  0  0  0  0  0  0  0  0  0  0  0
   60.9866   28.2311   46.7207 H   0  0  0  0  0  0  0  0  0  0  0  0
   60.8468   25.7871   46.2649 H   0  0  0  0  0  0  0  0  0  0  0  0
  1  2  1  0
  2  3  2  0
  3  4  1  0
  4  5  2  0
  5  6  1  0
  6  7  2  0
  7  8  1  0
  8  9  2  0
  9 10  1  0
  9 11  1  0
 11 12  2  0
 12 13  1  0
 13 14  1  0
 13 15  2  0
 15 16  1  0
 16 17  2  0
 17  2  1  0
  8  3  1  0
 17 11  1  0
  4 18  1  0
  5 19  1  0
  6 20  1  0
  7 21  1  0
 12 22  1  0
 15 23  1  0
 16 24  1  0
M  CHG  4   1  -1   2   1   9   1  10  -1
M  END
>  <UniqueID>  (25) 
23

>  <SMILES>  (25) 
[O-][n+]1c2ccccc2[n+]([O-])c2cc(Cl)ccc21

>  <Energy>  (25) 
38.771438342372164

>  <Genealogy>  (25) 
[O-][n+]1c2ccccc2[n+]([O-])c2cc(Cl)ccc21 (3D coordinates assigned)
[O-][n+]1c2ccccc2[n+]([O-])c2cc(Cl)ccc21 (optimized conformer: 38.771438342372164 kcal/mol)

>  <smiles>  (25) 
[O-][n+]1c2ccccc2[n+]([O-])c2cc(Cl)ccc21

>  <score_type>  (25) 
oracle

>  <origin>  (25) 
adg

>  <m_score__min__energy>  (25) 
-6.4100000000000001

>  <m_primary>  (25) 
energy

$$$$
25:0
     RDKit          3D

 39 40  0  0  0  0  0  0  0  0999 V2000
   58.8190   33.0350   46.0980 C   0  0  0  0  0  0  0  0  0  0  0  0
   58.1430   32.0760   45.1630 C   0  0  0  0  0  0  0  0  0  0  0  0
   57.9220   32.4310   43.8270 C   0  0  0  0  0  0  0  0  0  0  0  0
   57.3140   31.5300   42.9510 C   0  0  0  0  0  0  0  0  0  0  0  0
   56.9400   30.2490   43.3880 C   0  0  0  0  0  0  0  0  0  0  0  0
   56.2860   29.3000   42.4210 C   0  0  0  0  0  0  0  0  0  0  0  0
   57.1800   29.8740   44.7300 C   0  0  0  0  0  0  0  0  0  0  0  0
   56.7720   28.5810   45.2120 N   0  0  0  0  0  0  0  0  0  0  0  0
   57.5620   27.7910   46.1170 C   0  0  0  0  0  0  0  0  0  0  0  0
   58.7530   28.1240   46.3660 O   0  0  0  0  0  0  0  0  0  0  0  0
   56.9910   26.5760   46.7370 C   0  0  0  0  0  0  0  0  0  0  0  0
   57.7580   25.7400   47.2820 O   0  0  0  0  0  0  0  0  0  0  0  0
   55.5830   26.3110   46.7320 N   0  0  0  0  0  0  0  0  0  0  0  0
   54.8690   26.1170   45.5900 O   0  0  0  0  0  0  0  0  0  0  0  0
   54.4490   24.7720   45.5920 C   0  0  0  0  0  0  0  0  0  0  0  0
   55.4790   23.8940   44.9330 C   0  0  0  0  0  0  0  0  0  0  0  0
   56.5500   23.3790   45.6820 C   0  0  0  0  0  0  0  0  0  0  0  0
   57.4920   22.5410   45.0790 C   0  0  0  0  0  0  0  0  0  0  0  0
   57.3660   22.2040   43.7290 C   0  0  0  0  0  0  0  0  0  0  0  0
   56.2960   22.7030   42.9800 C   0  0  0  0  0  0  0  0  0  0  0  0
   55.3520   23.5420   43.5800 C   0  0  0  0  0  0  0  0  0  0  0  0
   57.7800   30.7960   45.6060 C   0  0  0  0  0  0  0  0  0  0  0  0
   58.6118   32.7411   47.1376 H   0  0  0  0  0  0  0  0  0  0  0  0
   59.9045   33.0161   45.9210 H   0  0  0  0  0  0  0  0  0  0  0  0
   58.4363   34.0510   45.9210 H   0  0  0  0  0  0  0  0  0  0  0  0
   58.2286   33.4238   43.4660 H   0  0  0  0  0  0  0  0  0  0  0  0
   57.1261   31.8264   41.9085 H   0  0  0  0  0  0  0  0  0  0  0  0
   55.7484   28.5198   42.9798 H   0  0  0  0  0  0  0  0  0  0  0  0
   55.5762   29.8528   41.7881 H   0  0  0  0  0  0  0  0  0  0  0  0
   57.0553   28.8335   41.7881 H   0  0  0  0  0  0  0  0  0  0  0  0
   55.8900   28.1670   44.8350 H   0  0  0  0  0  0  0  0  0  0  0  0
   54.3027   24.4406   46.6306 H   0  0  0  0  0  0  0  0  0  0  0  0
   53.5059   24.6943   45.0312 H   0  0  0  0  0  0  0  0  0  0  0  0
   56.6476   23.6362   46.7470 H   0  0  0  0  0  0  0  0  0  0  0  0
   58.3333   22.1465   45.6677 H   0  0  0  0  0  0  0  0  0  0  0  0
   58.1090   21.5457   43.2551 H   0  0  0  0  0  0  0  0  0  0  0  0
   56.1967   22.4353   41.9177 H   0  0  0  0  0  0  0  0  0  0  0  0
   54.5073   23.9274   42.9901 H   0  0  0  0  0  0  0  0  0  0  0  0
   57.9669   30.5097   46.6515 H   0  0  0  0  0  0  0  0  0  0  0  0
  1  2  1  0
  2  3  2  0
  3  4  1  0
  4  5  2  0
  5  6  1  0
  5  7  1  0
  7  8  1  0
  8  9  1  0
  9 10  2  0
  9 11  1  0
 11 12  2  0
 11 13  1  0
 13 14  1  0
 14 15  1  0
 15 16  1  0
 16 17  2  0
 17 18  1  0
 18 19  2  0
 19 20  1  0
 20 21  2  0
  7 22  2  0
 22  2  1  0
 21 16  1  0
  1 23  1  0
  1 24  1  0
  1 25  1  0
  3 26  1  0
  4 27  1  0
  6 28  1  0
  6 29  1  0
  6 30  1  0
  8 31  1  0
 15 32  1  0
 15 33  1  0
 17 34  1  0
 18 35  1  0
 19 36  1  0
 20 37  1  0
 21 38  1  0
 22 39  1  0
M  CHG  1  13  -1
M  END
>  <UniqueID>  (26) 
24

>  <SMILES>  (26) 
Cc1ccc(C)c(NC(=O)C(=O)[N-]OCc2ccccc2)c1

>  <Energy>  (26) 
41.67085202745139

>  <Genealogy>  (26) 
Cc1ccc(C)c(NC(=O)C(=O)[N-]OCc2ccccc2)c1 (protonated)
Cc1ccc(C)c(NC(=O)C(=O)[N-]OCc2ccccc2)c1 (3D coordinates assigned)
Cc1ccc(C)c(NC(=O)C(=O)[N-]OCc2ccccc2)c1 (optimized conformer: 41.67085202745139 kcal/mol)

>  <smiles>  (26) 
Cc1ccc(C)c(NC(=O)C(=O)NOCc2ccccc2)c1

>  <score_type>  (26) 
oracle

>  <origin>  (26) 
adg

>  <m_score__min__energy>  (26) 
-9.9499999999999993

>  <m_primary>  (26) 
energy

$$$$
26:0
     RDKit          3D

 29 30  0  0  0  0  0  0  0  0999 V2000
   58.0450   28.1170   46.2310 C   0  0  0  0  0  0  0  0  0  0  0  0
   57.7900   27.8930   44.7360 C   0  0  0  0  0  0  0  0  0  0  0  0
   58.1460   29.1090   44.0740 N   0  0  0  0  0  0  0  0  0  0  0  0
   56.8010   29.9700   43.4130 S   0  0  0  0  0  0  0  0  0  0  0  0
   55.7860   30.1140   44.5110 O   0  0  0  0  0  0  0  0  0  0  0  0
   56.2320   29.2750   42.2280 O   0  0  0  0  0  0  0  0  0  0  0  0
   57.3540   31.6050   42.9700 C   0  0  0  0  0  0  0  0  0  0  0  0
   57.8750   32.2830   44.2020 C   0  0  0  0  0  0  0  0  0  0  0  0
   58.5780   33.4240   44.1890 N   0  0  0  0  0  0  0  0  0  0  0  0
   58.8920   33.7650   45.4490 C   0  0  0  0  0  0  0  0  0  0  0  0
   59.5990   34.8440   45.9390 C   0  0  0  0  0  0  0  0  0  0  0  0
   59.7820   34.9600   47.2820 C   0  0  0  0  0  0  0  0  0  0  0  0
   59.2670   34.0050   48.1570 C   0  0  0  0  0  0  0  0  0  0  0  0
   58.5580   32.9280   47.6190 C   0  0  0  0  0  0  0  0  0  0  0  0
   58.3580   32.7840   46.2760 C   0  0  0  0  0  0  0  0  0  0  0  0
   57.7320   31.8770   45.4870 N   0  0  0  0  0  0  0  0  0  0  0  0
   57.3462   27.5031   46.8182 H   0  0  0  0  0  0  0  0  0  0  0  0
   59.0786   27.8295   46.4738 H   0  0  0  0  0  0  0  0  0  0  0  0
   57.8932   29.1791   46.4738 H   0  0  0  0  0  0  0  0  0  0  0  0
   58.4102   27.0635   44.3654 H   0  0  0  0  0  0  0  0  0  0  0  0
   56.7380   27.6323   44.5478 H   0  0  0  0  0  0  0  0  0  0  0  0
   58.8780   28.9470   43.3670 H   0  0  0  0  0  0  0  0  0  0  0  0
   58.1545   31.5348   42.2188 H   0  0  0  0  0  0  0  0  0  0  0  0
   56.5190   32.1829   42.5472 H   0  0  0  0  0  0  0  0  0  0  0  0
   60.0090   35.5999   45.2531 H   0  0  0  0  0  0  0  0  0  0  0  0
   60.3430   35.8175   47.6821 H   0  0  0  0  0  0  0  0  0  0  0  0
   59.4150   34.0969   49.2431 H   0  0  0  0  0  0  0  0  0  0  0  0
   58.1465   32.1695   48.3012 H   0  0  0  0  0  0  0  0  0  0  0  0
   57.2360   31.0260   45.8130 H   0  0  0  0  0  0  0  0  0  0  0  0
  1  2  1  0
  2  3  1  0
  3  4  1  0
  4  5  2  0
  4  6  2  0
  4  7  1  0
  7  8  1  0
  8  9  2  0
  9 10  1  0
 10 11  2  0
 11 12  1  0
 12 13  2  0
 13 14  1  0
 14 15  2  0
 15 16  1  0
 16  8  1  0
 15 10  1  0
  1 17  1  0
  1 18  1  0
  1 19  1  0
  2 20  1  0
  2 21  1  0
  3 22  1  0
  7 23  1  0
  7 24  1  0
 11 25  1  0
 12 26  1  0
 13 27  1  0
 14 28  1  0
 16 29  1  0
M  END
>  <smiles>  (27) 
CCNS(=O)(=O)Cc1nc2ccccc2[nH]1

>  <score_type>  (27) 
oracle

>  <origin>  (27) 
adg

>  <m_score__min__energy>  (27) 
-7.25

>  <m_primary>  (27) 
energy

$$$$
27:0
     RDKit          3D

 36 37  0  0  0  0  0  0  0  0999 V2000
   56.8200   30.0640   43.4920 C   0  0  0  0  0  0  0  0  0  0  0  0
   56.9280   30.4450   44.8590 O   0  0  0  0  0  0  0  0  0  0  0  0
   57.4860   31.6540   45.3030 C   0  0  0  0  0  0  0  0  0  0  0  0
   57.3940   32.8430   44.5610 C   0  0  0  0  0  0  0  0  0  0  0  0
   57.9740   34.0190   45.0400 C   0  0  0  0  0  0  0  0  0  0  0  0
   58.6510   34.0330   46.2750 C   0  0  0  0  0  0  0  0  0  0  0  0
   59.2510   35.2020   46.7720 O   0  0  0  0  0  0  0  0  0  0  0  0
   60.0190   36.1140   45.9930 C   0  0  0  0  0  0  0  0  0  0  0  0
   58.7310   32.8450   47.0330 C   0  0  0  0  0  0  0  0  0  0  0  0
   59.4410   32.8180   48.3760 C   0  0  0  0  0  0  0  0  0  0  0  0
   60.9030   33.0400   48.2900 N   0  0  0  0  0  0  0  0  0  0  0  0
   61.4160   32.9810   46.9030 C   0  0  0  0  0  0  0  0  0  0  0  0
   62.9180   33.3040   46.8210 C   0  0  0  0  0  0  0  0  0  0  0  0
   63.7700   32.9020   48.3810 S   0  0  0  0  0  0  0  0  0  0  0  0
   62.8420   34.1250   49.3870 C   0  0  0  0  0  0  0  0  0  0  0  0
   61.3580   34.2500   48.9990 C   0  0  0  0  0  0  0  0  0  0  0  0
   58.1570   31.6640   46.5290 C   0  0  0  0  0  0  0  0  0  0  0  0
   56.5205   29.0075   43.4284 H   0  0  0  0  0  0  0  0  0  0  0  0
   56.0639   30.6900   42.9955 H   0  0  0  0  0  0  0  0  0  0  0  0
   57.7921   30.2001   42.9955 H   0  0  0  0  0  0  0  0  0  0  0  0
   56.8625   32.8476   43.5980 H   0  0  0  0  0  0  0  0  0  0  0  0
   57.9016   34.9430   44.4476 H   0  0  0  0  0  0  0  0  0  0  0  0
   60.5821   36.7827   46.6607 H   0  0  0  0  0  0  0  0  0  0  0  0
   60.7210   35.5533   45.3583 H   0  0  0  0  0  0  0  0  0  0  0  0
   59.3470   36.7104   45.3583 H   0  0  0  0  0  0  0  0  0  0  0  0
   59.0086   33.6048   49.0116 H   0  0  0  0  0  0  0  0  0  0  0  0
   59.2964   31.8099   48.7918 H   0  0  0  0  0  0  0  0  0  0  0  0
   61.2500   31.9681   46.5074 H   0  0  0  0  0  0  0  0  0  0  0  0
   60.8769   33.7366   46.3127 H   0  0  0  0  0  0  0  0  0  0  0  0
   63.3666   32.7165   46.0064 H   0  0  0  0  0  0  0  0  0  0  0  0
   63.0308   34.3818   46.6324 H   0  0  0  0  0  0  0  0  0  0  0  0
   62.9001   33.8213   50.4426 H   0  0  0  0  0  0  0  0  0  0  0  0
   63.3045   35.1064   49.2053 H   0  0  0  0  0  0  0  0  0  0  0  0
   60.7561   34.3829   49.9101 H   0  0  0  0  0  0  0  0  0  0  0  0
   61.2375   35.1174   48.3333 H   0  0  0  0  0  0  0  0  0  0  0  0
   58.2375   30.7330   47.1093 H   0  0  0  0  0  0  0  0  0  0  0  0
  1  2  1  0
  2  3  1  0
  3  4  2  0
  4  5  1  0
  5  6  2  0
  6  7  1  0
  7  8  1  0
  6  9  1  0
  9 10  1  0
 10 11  1  0
 11 12  1  0
 12 13  1  0
 13 14  1  0
 14 15  1  0
 15 16  1  0
  9 17  2  0
 17  3  1  0
 16 11  1  0
  1 18  1  0
  1 19  1  0
  1 20  1  0
  4 21  1  0
  5 22  1  0
  8 23  1  0
  8 24  1  0
  8 25  1  0
 10 26  1  0
 10 27  1  0
 12 28  1  0
 12 29  1  0
 13 30  1  0
 13 31  1  0
 15 32  1  0
 15 33  1  0
 16 34  1  0
 16 35  1  0
 17 36  1  0
M  END
>  <UniqueID>  (28) 
25

>  <SMILES>  (28) 
COc1ccc(OC)c(CN2CCSCC2)c1

>  <Energy>  (28) 
41.575026594176364

>  <Genealogy>  (28) 
COc1ccc(OC)c(CN2CCSCC2)c1 (3D coordinates assigned)
COc1ccc(OC)c(CN2CCSCC2)c1 (nonaromatic ring conformer: 41.575026594176364 kcal/mol)

>  <smiles>  (28) 
COc1ccc(OC)c(CN2CCSCC2)c1

>  <score_type>  (28) 
oracle

>  <origin>  (28) 
adg

>  <m_score__min__energy>  (28) 
-5.75

>  <m_primary>  (28) 
energy

$$$$
28:0
     RDKit          3D

 55 60  0  0  0  0  0  0  0  0999 V2000
   56.6670   30.1500   52.3850 C   0  0  0  0  0  0  0  0  0  0  0  0
   57.5110   30.0920   51.2400 O   0  0  0  0  0  0  0  0  0  0  0  0
   58.5270   31.0190   50.9680 C   0  0  0  0  0  0  0  0  0  0  0  0
   59.1700   31.7890   51.9760 C   0  0  0  0  0  0  0  0  0  0  0  0
   60.0770   32.8230   51.6270 C   0  0  0  0  0  0  0  0  0  0  0  0
   60.4390   33.0170   50.2810 C   0  0  0  0  0  0  0  0  0  0  0  0
   59.9360   32.1300   49.3530 C   0  0  0  0  0  0  0  0  0  0  0  0
   58.8960   31.2610   49.6450 C   0  0  0  0  0  0  0  0  0  0  0  0
   58.1530   30.9910   48.4800 O   0  0  0  0  0  0  0  0  0  0  0  0
   58.5490   32.0850   47.6530 C   0  0  2  0  0  0  0  0  0  0  0  0
   58.1150   32.4940   46.2990 C   0  0  0  0  0  0  0  0  0  0  0  0
   57.5450   31.7430   45.5250 O   0  0  0  0  0  0  0  0  0  0  0  0
   58.4290   33.9670   45.9740 C   0  0  0  0  0  0  0  0  0  0  0  0
   59.4590   34.6120   47.0040 C   0  0  0  0  0  0  0  0  0  0  0  0
   60.6150   33.6060   47.3020 C   0  0  1  0  0  0  0  0  0  0  0  0
   61.2590   33.4520   46.0480 O   0  0  0  0  0  0  0  0  0  0  0  0
   61.7510   33.9570   48.3170 C   0  0  1  0  0  0  0  0  0  0  0  0
   61.1890   34.2220   49.7590 C   0  0  0  0  0  0  0  0  0  0  0  0
   62.7740   32.8280   48.3780 N   0  0  2  0  0  0  0  0  0  0  0  0
   64.1630   33.3310   48.2250 C   0  0  0  0  0  0  0  0  0  0  0  0
   65.0620   33.1320   49.4770 C   0  0  0  0  0  0  0  0  0  0  0  0
   64.4660   33.7530   50.7410 C   0  0  0  0  0  0  0  0  0  0  0  0
   64.3830   32.3790   51.3870 C   0  0  0  0  0  0  0  0  0  0  0  0
   64.9620   31.7490   50.1290 C   0  0  0  0  0  0  0  0  0  0  0  0
   62.5250   31.5970   47.5440 C   0  0  0  0  0  0  0  0  0  0  0  0
   61.0280   31.1300   47.4550 C   0  0  0  0  0  0  0  0  0  0  0  0
   60.0560   32.2630   47.8760 C   0  0  1  0  0  0  0  0  0  0  0  0
   57.2818   30.1078   53.2962 H   0  0  0  0  0  0  0  0  0  0  0  0
   56.0951   31.0896   52.3718 H   0  0  0  0  0  0  0  0  0  0  0  0
   55.9720   29.2975   52.3718 H   0  0  0  0  0  0  0  0  0  0  0  0
   58.9623   31.5811   53.0360 H   0  0  0  0  0  0  0  0  0  0  0  0
   60.4972   33.4730   52.4087 H   0  0  0  0  0  0  0  0  0  0  0  0
   57.7785   32.7846   48.0093 H   0  0  0  0  0  0  0  0  0  0  0  0
   58.8598   34.0213   44.9633 H   0  0  0  0  0  0  0  0  0  0  0  0
   57.4882   34.5327   46.0431 H   0  0  0  0  0  0  0  0  0  0  0  0
   59.8790   35.5321   46.5716 H   0  0  0  0  0  0  0  0  0  0  0  0
   58.9336   34.8470   47.9414 H   0  0  0  0  0  0  0  0  0  0  0  0
   60.9920   34.1840   45.4350 H   0  0  0  0  0  0  0  0  0  0  0  0
   62.2305   34.8799   47.9587 H   0  0  0  0  0  0  0  0  0  0  0  0
   62.0270   34.4445   50.4359 H   0  0  0  0  0  0  0  0  0  0  0  0
   60.4935   35.0730   49.7120 H   0  0  0  0  0  0  0  0  0  0  0  0
   62.7780   32.4460   49.3540 H   0  0  0  0  0  0  0  0  0  0  0  0
   64.6287   32.8025   47.3801 H   0  0  0  0  0  0  0  0  0  0  0  0
   64.0867   34.4165   48.0639 H   0  0  0  0  0  0  0  0  0  0  0  0
   66.0217   33.4742   49.0624 H   0  0  0  0  0  0  0  0  0  0  0  0
   65.1409   34.4510   51.2581 H   0  0  0  0  0  0  0  0  0  0  0  0
   63.5714   34.3897   50.6765 H   0  0  0  0  0  0  0  0  0  0  0  0
   65.0165   32.2636   52.2789 H   0  0  0  0  0  0  0  0  0  0  0  0
   63.4309   32.0168   51.8022 H   0  0  0  0  0  0  0  0  0  0  0  0
   65.9324   31.2538   50.2813 H   0  0  0  0  0  0  0  0  0  0  0  0
   64.4280   30.9327   49.6205 H   0  0  0  0  0  0  0  0  0  0  0  0
   62.8766   31.8034   46.5223 H   0  0  0  0  0  0  0  0  0  0  0  0
   63.0663   30.7800   48.0436 H   0  0  0  0  0  0  0  0  0  0  0  0
   60.8062   30.8347   46.4189 H   0  0  0  0  0  0  0  0  0  0  0  0
   60.8886   30.2815   48.1410 H   0  0  0  0  0  0  0  0  0  0  0  0
  1  2  1  0
  2  3  1  0
  3  4  2  0
  4  5  1  0
  5  6  2  0
  6  7  1  0
  7  8  2  0
  8  9  1  0
  9 10  1  0
 10 11  1  0
 11 12  2  0
 11 13  1  0
 13 14  1  0
 14 15  1  0
 15 16  1  6
 15 17  1  0
 17 18  1  0
 17 19  1  0
 19 20  1  0
 20 21  1  0
 21 22  1  0
 22 23  1  0
 23 24  1  0
 19 25  1  0
 25 26  1  0
 27 26  1  6
  8  3  1  0
 27 10  1  0
 18  6  1  0
 24 21  1  0
 27  7  1  0
 27 15  1  0
  1 28  1  0
  1 29  1  0
  1 30  1  0
  4 31  1  0
  5 32  1  0
 10 33  1  1
 13 34  1  0
 13 35  1  0
 14 36  1  0
 14 37  1  0
 16 38  1  0
 17 39  1  6
 18 40  1  0
 18 41  1  0
 19 42  1  1
 20 43  1  0
 20 44  1  0
 21 45  1  0
 22 46  1  0
 22 47  1  0
 23 48  1  0
 23 49  1  0
 24 50  1  0
 24 51  1  0
 25 52  1  0
 25 53  1  0
 26 54  1  0
 26 55  1  0
M  CHG  1  19   1
M  END
>  <UniqueID>  (29) 
26

>  <SMILES>  (29) 
COc1ccc2c3c1O[C@@H]1C(=O)CC[C@@]4(O)C(C2)[NH+](CC2CCC2)CCC314

>  <Energy>  (29) 
251.6347965370003

>  <Genealogy>  (29) 
COc1ccc2c3c1OC1C(=O)CCC4(O)C(C2)[NH+](CC2CCC2)CCC314 (protonated)
COc1ccc2c3c1O[C@@H]1C(=O)CC[C@@]4(O)C(C2)[NH+](CC2CCC2)CCC314 (chirality)
COc1ccc2c3c1O[C@@H]1C(=O)CC[C@@]4(O)C(C2)[NH+](CC2CCC2)CCC314 (3D coordinates assigned)
COc1ccc2c3c1O[C@@H]1C(=O)CC[C@@]4(O)C(C2)[NH+](CC2CCC2)CCC314 (nonaromatic ring conformer: 251.6347965370003 kcal/mol)

>  <smiles>  (29) 
COc1ccc2c3c1OC1C(=O)CCC4(O)C(C2)N(CC2CCC2)CCC314

>  <score_type>  (29) 
oracle

>  <origin>  (29) 
adg

>  <m_score__min__energy>  (29) 
-5.9500000000000002

>  <m_primary>  (29) 
energy

$$$$
29:0
     RDKit          3D

 28 29  0  0  0  0  0  0  0  0999 V2000
   57.0620   31.1030   43.2960 C   0  0  0  0  0  0  0  0  0  0  0  0
   57.2560   29.9210   44.1840 C   0  0  0  0  0  0  0  0  0  0  0  0
   58.4740   29.3170   44.4750 C   0  0  0  0  0  0  0  0  0  0  0  0
   58.3460   28.1670   45.2630 C   0  0  0  0  0  0  0  0  0  0  0  0
   57.0260   27.8700   45.5860 C   0  0  0  0  0  0  0  0  0  0  0  0
   56.5630   26.6670   46.3370 C   0  0  0  0  0  0  0  0  0  0  0  0
   55.1780   26.3840   45.9860 N   0  0  0  0  0  0  0  0  0  0  0  0
   54.6740   25.0920   45.6230 C   0  0  0  0  0  0  0  0  0  0  0  0
   53.5050   24.7780   45.9710 O   0  0  0  0  0  0  0  0  0  0  0  0
   55.4940   24.1100   44.8880 C   0  0  0  0  0  0  0  0  0  0  0  0
   55.4760   22.7600   45.2740 C   0  0  0  0  0  0  0  0  0  0  0  0
   56.2500   21.8360   44.5730 C   0  0  0  0  0  0  0  0  0  0  0  0
   57.0230   22.2550   43.4910 C   0  0  0  0  0  0  0  0  0  0  0  0
   57.0010   23.6010   43.1170 C   0  0  0  0  0  0  0  0  0  0  0  0
   56.2410   24.4930   43.8110 N   0  0  0  0  0  0  0  0  0  0  0  0
   56.0170   29.0100   44.8680 S   0  0  0  0  0  0  0  0  0  0  0  0
   56.9143   32.0031   43.9108 H   0  0  0  0  0  0  0  0  0  0  0  0
   57.9506   31.2344   42.6611 H   0  0  0  0  0  0  0  0  0  0  0  0
   56.1780   30.9435   42.6611 H   0  0  0  0  0  0  0  0  0  0  0  0
   59.4411   29.7039   44.1215 H   0  0  0  0  0  0  0  0  0  0  0  0
   59.2020   27.5601   45.5931 H   0  0  0  0  0  0  0  0  0  0  0  0
   57.1925   25.8044   46.0732 H   0  0  0  0  0  0  0  0  0  0  0  0
   56.6379   26.8561   47.4180 H   0  0  0  0  0  0  0  0  0  0  0  0
   54.8564   22.4341   46.1224 H   0  0  0  0  0  0  0  0  0  0  0  0
   56.2507   20.7778   44.8733 H   0  0  0  0  0  0  0  0  0  0  0  0
   57.6431   21.5341   42.9381 H   0  0  0  0  0  0  0  0  0  0  0  0
   57.5995   23.9414   42.2592 H   0  0  0  0  0  0  0  0  0  0  0  0
   56.2140   25.4810   43.4790 H   0  0  0  0  0  0  0  0  0  0  0  0
  1  2  1  0
  2  3  2  0
  3  4  1  0
  4  5  2  0
  5  6  1  0
  6  7  1  0
  7  8  1  0
  8  9  2  0
  8 10  1  0
 10 11  2  0
 11 12  1  0
 12 13  2  0
 13 14  1  0
 14 15  2  0
  5 16  1  0
 16  2  1  0
 15 10  1  0
  1 17  1  0
  1 18  1  0
  1 19  1  0
  3 20  1  0
  4 21  1  0
  6 22  1  0
  6 23  1  0
 11 24  1  0
 12 25  1  0
 13 26  1  0
 14 27  1  0
 15 28  1  0
M  CHG  2   7  -1  15   1
M  END
>  <UniqueID>  (30) 
27

>  <SMILES>  (30) 
Cc1ccc(C[N-]C(=O)c2cccc[nH+]2)s1

>  <Energy>  (30) 
55.354572277765335

>  <Genealogy>  (30) 
Cc1ccc(C[N-]C(=O)c2cccc[nH+]2)s1 (protonated)
Cc1ccc(C[N-]C(=O)c2cccc[nH+]2)s1 (3D coordinates assigned)
Cc1ccc(C[N-]C(=O)c2cccc[nH+]2)s1 (optimized conformer: 55.354572277765335 kcal/mol)

>  <smiles>  (30) 
Cc1ccc(CNC(=O)c2ccccn2)s1

>  <score_type>  (30) 
oracle

>  <origin>  (30) 
adg

>  <m_score__min__energy>  (30) 
-7.04

>  <m_primary>  (30) 
energy

$$$$
30:0
     RDKit          3D

 29 31  0  0  0  0  0  0  0  0999 V2000
   56.0540   29.6530   43.6790 C   0  0  0  0  0  0  0  0  0  0  0  0
   55.8590   30.8470   44.1470 N   0  0  0  0  0  0  0  0  0  0  0  0
   57.0450   31.3110   44.8840 C   0  0  2  0  0  0  0  0  0  0  0  0
   57.5900   32.5580   44.3050 N   0  0  0  0  0  0  0  0  0  0  0  0
   58.2570   33.3950   45.2790 C   0  0  0  0  0  0  0  0  0  0  0  0
   58.2220   33.0680   46.6470 C   0  0  0  0  0  0  0  0  0  0  0  0
   58.8910   33.8630   47.5820 C   0  0  0  0  0  0  0  0  0  0  0  0
   59.5970   34.9940   47.1620 C   0  0  0  0  0  0  0  0  0  0  0  0
   59.6340   35.3320   45.8070 C   0  0  0  0  0  0  0  0  0  0  0  0
   58.9670   34.5390   44.8690 C   0  0  0  0  0  0  0  0  0  0  0  0
   57.9840   30.1490   44.7660 C   0  0  0  0  0  0  0  0  0  0  0  0
   59.2650   29.9690   45.2880 C   0  0  0  0  0  0  0  0  0  0  0  0
   59.9250   28.7560   45.0220 C   0  0  0  0  0  0  0  0  0  0  0  0
   59.2920   27.7540   44.2570 C   0  0  0  0  0  0  0  0  0  0  0  0
   57.9940   27.9560   43.7570 C   0  0  0  0  0  0  0  0  0  0  0  0
   57.3690   29.1690   44.0360 C   0  0  0  0  0  0  0  0  0  0  0  0
   55.3184   29.0854   43.0901 H   0  0  0  0  0  0  0  0  0  0  0  0
   56.8411   31.5780   45.9314 H   0  0  0  0  0  0  0  0  0  0  0  0
   58.2640   32.3050   43.5460 H   0  0  0  0  0  0  0  0  0  0  0  0
   56.8110   33.0910   43.8510 H   0  0  0  0  0  0  0  0  0  0  0  0
   57.6646   32.1811   46.9828 H   0  0  0  0  0  0  0  0  0  0  0  0
   58.8619   33.5984   48.6493 H   0  0  0  0  0  0  0  0  0  0  0  0
   60.1237   35.6182   47.8988 H   0  0  0  0  0  0  0  0  0  0  0  0
   60.1886   36.2231   45.4780 H   0  0  0  0  0  0  0  0  0  0  0  0
   58.9972   34.8107   43.8035 H   0  0  0  0  0  0  0  0  0  0  0  0
   59.7454   30.7538   45.8907 H   0  0  0  0  0  0  0  0  0  0  0  0
   60.9396   28.5878   45.4123 H   0  0  0  0  0  0  0  0  0  0  0  0
   59.8170   26.8096   44.0507 H   0  0  0  0  0  0  0  0  0  0  0  0
   57.4876   27.1803   43.1639 H   0  0  0  0  0  0  0  0  0  0  0  0
  1  2  2  0
  2  3  1  0
  3  4  1  0
  4  5  1  0
  5  6  2  0
  6  7  1  0
  7  8  2  0
  8  9  1  0
  9 10  2  0
  3 11  1  0
 11 12  2  0
 12 13  1  0
 13 14  2  0
 14 15  1  0
 15 16  2  0
 16  1  1  0
 10  5  1  0
 16 11  1  0
  1 17  1  0
  3 18  1  1
  4 19  1  0
  4 20  1  0
  6 21  1  0
  7 22  1  0
  8 23  1  0
  9 24  1  0
 10 25  1  0
 12 26  1  0
 13 27  1  0
 14 28  1  0
 15 29  1  0
M  CHG  1   4   1
M  END
>  <UniqueID>  (31) 
28

>  <SMILES>  (31) 
C1=N[C@H]([NH2+]c2ccccc2)c2ccccc21

>  <Energy>  (31) 
56.506099358824756

>  <Genealogy>  (31) 
C1=NC([NH2+]c2ccccc2)c2ccccc21 (protonated)
C1=N[C@H]([NH2+]c2ccccc2)c2ccccc21 (chirality)
C1=N[C@H]([NH2+]c2ccccc2)c2ccccc21 (3D coordinates assigned)
C1=N[C@H]([NH2+]c2ccccc2)c2ccccc21 (nonaromatic ring conformer: 56.506099358824756 kcal/mol)

>  <smiles>  (31) 
C1=NC(Nc2ccccc2)c2ccccc21

>  <score_type>  (31) 
oracle

>  <origin>  (31) 
adg

>  <m_score__min__energy>  (31) 
-5

>  <m_primary>  (31) 
energy

$$$$
31:0
     RDKit          3D

 43 45  0  0  0  0  0  0  0  0999 V2000
   57.4180   23.6470   46.7300 C   0  0  0  0  0  0  0  0  0  0  0  0
   57.6630   25.1090   46.4640 C   0  0  0  0  0  0  0  0  0  0  0  0
   58.9230   25.6520   46.7650 C   0  0  0  0  0  0  0  0  0  0  0  0
   59.1860   27.0010   46.5380 C   0  0  0  0  0  0  0  0  0  0  0  0
   58.1910   27.8320   46.0300 C   0  0  0  0  0  0  0  0  0  0  0  0
   56.9140   27.3260   45.7570 C   0  0  0  0  0  0  0  0  0  0  0  0
   55.8980   28.2070   45.2620 N   0  0  0  0  0  0  0  0  0  0  0  0
   56.1310   29.3830   44.4740 C   0  0  0  0  0  0  0  0  0  0  0  0
   55.1540   30.1250   44.1940 O   0  0  0  0  0  0  0  0  0  0  0  0
   57.5100   29.7850   43.9920 C   0  0  0  0  0  0  0  0  0  0  0  0
   57.8610   31.1790   44.3650 N   0  0  0  0  0  0  0  0  0  0  0  0
   57.9960   32.1680   43.4100 C   0  0  0  0  0  0  0  0  0  0  0  0
   57.5910   31.9520   41.9710 C   0  0  0  0  0  0  0  0  0  0  0  0
   58.4930   33.3900   43.7600 N   0  0  0  0  0  0  0  0  0  0  0  0
   58.7870   33.6950   45.0500 C   0  0  0  0  0  0  0  0  0  0  0  0
   59.3220   34.9510   45.3810 C   0  0  0  0  0  0  0  0  0  0  0  0
   59.5980   35.2680   46.7130 C   0  0  0  0  0  0  0  0  0  0  0  0
   59.3350   34.3400   47.7230 C   0  0  0  0  0  0  0  0  0  0  0  0
   58.8010   33.0900   47.4040 C   0  0  0  0  0  0  0  0  0  0  0  0
   58.5300   32.7560   46.0630 C   0  0  0  0  0  0  0  0  0  0  0  0
   58.0330   31.4960   45.6930 C   0  0  0  0  0  0  0  0  0  0  0  0
   57.7610   30.6490   46.5900 O   0  0  0  0  0  0  0  0  0  0  0  0
   56.6400   25.9520   45.9570 C   0  0  0  0  0  0  0  0  0  0  0  0
   55.2820   25.3840   45.6130 C   0  0  0  0  0  0  0  0  0  0  0  0
   57.3886   23.4717   47.8155 H   0  0  0  0  0  0  0  0  0  0  0  0
   56.4574   23.3492   46.2844 H   0  0  0  0  0  0  0  0  0  0  0  0
   58.2290   23.0523   46.2844 H   0  0  0  0  0  0  0  0  0  0  0  0
   59.7090   25.0063   47.1837 H   0  0  0  0  0  0  0  0  0  0  0  0
   60.1823   27.4108   46.7606 H   0  0  0  0  0  0  0  0  0  0  0  0
   58.4095   28.8935   45.8418 H   0  0  0  0  0  0  0  0  0  0  0  0
   58.2509   29.1041   44.4363 H   0  0  0  0  0  0  0  0  0  0  0  0
   57.5103   29.7237   42.8937 H   0  0  0  0  0  0  0  0  0  0  0  0
   56.6209   31.4346   41.9368 H   0  0  0  0  0  0  0  0  0  0  0  0
   57.5059   32.9245   41.4641 H   0  0  0  0  0  0  0  0  0  0  0  0
   58.3512   31.3396   41.4641 H   0  0  0  0  0  0  0  0  0  0  0  0
   58.6460   34.1140   43.0200 H   0  0  0  0  0  0  0  0  0  0  0  0
   59.5242   35.6870   44.5889 H   0  0  0  0  0  0  0  0  0  0  0  0
   60.0232   36.2502   46.9669 H   0  0  0  0  0  0  0  0  0  0  0  0
   59.5489   34.5943   48.7716 H   0  0  0  0  0  0  0  0  0  0  0  0
   58.5912   32.3635   48.2029 H   0  0  0  0  0  0  0  0  0  0  0  0
   54.7349   25.1552   46.5394 H   0  0  0  0  0  0  0  0  0  0  0  0
   54.7149   26.1203   45.0246 H   0  0  0  0  0  0  0  0  0  0  0  0
   55.4080   24.4632   45.0246 H   0  0  0  0  0  0  0  0  0  0  0  0
  1  2  1  0
  2  3  2  0
  3  4  1  0
  4  5  2  0
  5  6  1  0
  6  7  1  0
  7  8  1  0
  8  9  2  0
  8 10  1  0
 10 11  1  0
 11 12  1  0
 12 13  1  0
 12 14  2  0
 14 15  1  0
 15 16  2  0
 16 17  1  0
 17 18  2  0
 18 19  1  0
 19 20  2  0
 20 21  1  0
 21 22  2  0
  6 23  2  0
 23 24  1  0
 23  2  1  0
 21 11  1  0
 20 15  1  0
  1 25  1  0
  1 26  1  0
  1 27  1  0
  3 28  1  0
  4 29  1  0
  5 30  1  0
 10 31  1  0
 10 32  1  0
 13 33  1  0
 13 34  1  0
 13 35  1  0
 14 36  1  0
 16 37  1  0
 17 38  1  0
 18 39  1  0
 19 40  1  0
 24 41  1  0
 24 42  1  0
 24 43  1  0
M  CHG  2   7  -1  14   1
M  END
>  <UniqueID>  (32) 
29

>  <SMILES>  (32) 
Cc1cccc([N-]C(=O)Cn2c(C)[nH+]c3ccccc3c2=O)c1C

>  <Energy>  (32) 
58.71733678593295

>  <Genealogy>  (32) 
Cc1cccc([N-]C(=O)Cn2c(C)[nH+]c3ccccc3c2=O)c1C (protonated)
Cc1cccc([N-]C(=O)Cn2c(C)[nH+]c3ccccc3c2=O)c1C (3D coordinates assigned)
Cc1cccc([N-]C(=O)Cn2c(C)[nH+]c3ccccc3c2=O)c1C (optimized conformer: 58.71733678593295 kcal/mol)

>  <smiles>  (32) 
Cc1cccc(NC(=O)Cn2c(C)nc3ccccc3c2=O)c1C

>  <score_type>  (32) 
oracle

>  <origin>  (32) 
adg

>  <m_score__min__energy>  (32) 
-9.0600000000000005

>  <m_primary>  (32) 
energy

$$$$
32:0
     RDKit          3D

 54 57  0  0  0  0  0  0  0  0999 V2000
   57.5710   33.5540   47.5050 O   0  0  0  0  0  0  0  0  0  0  0  0
   58.7980   33.8010   47.3610 C   0  0  0  0  0  0  0  0  0  0  0  0
   59.4330   34.0070   46.1010 N   0  0  0  0  0  0  0  0  0  0  0  0
   58.7860   34.1120   44.7940 C   0  0  0  0  0  0  0  0  0  0  0  0
   58.3470   32.7360   44.2700 C   0  0  0  0  0  0  0  0  0  0  0  0
   57.0090   32.2600   44.8630 C   0  0  0  0  0  0  0  0  0  0  0  0
   56.9650   30.7890   45.0290 N   0  0  0  0  0  0  0  0  0  0  0  0
   58.0150   30.3140   45.9670 C   0  0  0  0  0  0  0  0  0  0  0  0
   59.2530   29.7780   45.2310 C   0  0  0  0  0  0  0  0  0  0  0  0
   58.9270   28.6400   44.3330 N   0  0  0  0  0  0  0  0  0  0  0  0
   59.2690   27.3440   44.9560 C   0  0  0  0  0  0  0  0  0  0  0  0
   58.0420   26.4810   45.1170 C   0  0  0  0  0  0  0  0  0  0  0  0
   57.1660   26.7020   46.1920 C   0  0  0  0  0  0  0  0  0  0  0  0
   56.0440   25.8880   46.3630 C   0  0  0  0  0  0  0  0  0  0  0  0
   55.7850   24.8430   45.4680 C   0  0  0  0  0  0  0  0  0  0  0  0
   54.3630   23.8400   45.7180 Cl  0  0  0  0  0  0  0  0  0  0  0  0
   56.6620   24.6130   44.3940 C   0  0  0  0  0  0  0  0  0  0  0  0
   56.3770   23.3060   43.2510 Cl  0  0  0  0  0  0  0  0  0  0  0  0
   57.7850   25.4290   44.2230 C   0  0  0  0  0  0  0  0  0  0  0  0
   57.5210   28.6570   43.8570 C   0  0  0  0  0  0  0  0  0  0  0  0
   56.9930   30.0900   43.7190 C   0  0  0  0  0  0  0  0  0  0  0  0
   60.8550   34.2200   46.3800 C   0  0  0  0  0  0  0  0  0  0  0  0
   60.9500   33.6920   47.8130 C   0  0  1  0  0  0  0  0  0  0  0  0
   62.2220   34.1660   48.9850 S   0  0  0  0  0  0  0  0  0  0  0  0
   61.0850   33.4720   50.2810 C   0  0  0  0  0  0  0  0  0  0  0  0
   59.6660   33.2900   49.6790 C   0  0  0  0  0  0  0  0  0  0  0  0
   59.6900   34.0460   48.4370 N   0  0  2  0  0  0  0  0  0  0  0  0
   57.9009   34.7589   44.8844 H   0  0  0  0  0  0  0  0  0  0  0  0
   59.5107   34.5363   44.0836 H   0  0  0  0  0  0  0  0  0  0  0  0
   58.2434   32.7951   43.1765 H   0  0  0  0  0  0  0  0  0  0  0  0
   59.1157   32.0102   44.5736 H   0  0  0  0  0  0  0  0  0  0  0  0
   56.8689   32.7323   45.8465 H   0  0  0  0  0  0  0  0  0  0  0  0
   56.2083   32.5462   44.1651 H   0  0  0  0  0  0  0  0  0  0  0  0
   58.3208   31.1524   46.6101 H   0  0  0  0  0  0  0  0  0  0  0  0
   57.5908   29.4892   46.5584 H   0  0  0  0  0  0  0  0  0  0  0  0
   59.6860   30.5906   44.6292 H   0  0  0  0  0  0  0  0  0  0  0  0
   59.9639   29.4159   45.9883 H   0  0  0  0  0  0  0  0  0  0  0  0
   59.9966   26.8196   44.3191 H   0  0  0  0  0  0  0  0  0  0  0  0
   59.6959   27.5355   45.9515 H   0  0  0  0  0  0  0  0  0  0  0  0
   57.3641   27.5188   46.9017 H   0  0  0  0  0  0  0  0  0  0  0  0
   55.3602   26.0689   47.2054 H   0  0  0  0  0  0  0  0  0  0  0  0
   58.4711   25.2456   43.3830 H   0  0  0  0  0  0  0  0  0  0  0  0
   57.4693   28.1608   42.8766 H   0  0  0  0  0  0  0  0  0  0  0  0
   56.8996   28.1293   44.5955 H   0  0  0  0  0  0  0  0  0  0  0  0
   57.6461   30.6467   43.0309 H   0  0  0  0  0  0  0  0  0  0  0  0
   55.9647   30.0427   43.3313 H   0  0  0  0  0  0  0  0  0  0  0  0
   61.4927   33.6438   45.6935 H   0  0  0  0  0  0  0  0  0  0  0  0
   61.1922   35.2595   46.2551 H   0  0  0  0  0  0  0  0  0  0  0  0
   61.2229   32.6419   47.6317 H   0  0  0  0  0  0  0  0  0  0  0  0
   61.4671   32.4980   50.6207 H   0  0  0  0  0  0  0  0  0  0  0  0
   61.0356   34.1639   51.1347 H   0  0  0  0  0  0  0  0  0  0  0  0
   59.4620   32.2272   49.4819 H   0  0  0  0  0  0  0  0  0  0  0  0
   58.8772   33.6382   50.3621 H   0  0  0  0  0  0  0  0  0  0  0  0
   59.6630   35.0750   48.6470 H   0  0  0  0  0  0  0  0  0  0  0  0
  1  2  2  0
  2  3  1  0
  3  4  1  0
  4  5  1  0
  5  6  1  0
  6  7  1  0
  7  8  1  0
  8  9  1  0
  9 10  1  0
 10 11  1  0
 11 12  1  0
 12 13  2  0
 13 14  1  0
 14 15  2  0
 15 16  1  0
 15 17  1  0
 17 18  1  0
 17 19  2  0
 10 20  1  0
 20 21  1  0
  3 22  1  0
 22 23  1  0
 23 24  1  0
 24 25  1  0
 25 26  1  0
 26 27  1  0
 27  2  1  0
 21  7  1  0
 27 23  1  0
 19 12  1  0
  4 28  1  0
  4 29  1  0
  5 30  1  0
  5 31  1  0
  6 32  1  0
  6 33  1  0
  8 34  1  0
  8 35  1  0
  9 36  1  0
  9 37  1  0
 11 38  1  0
 11 39  1  0
 13 40  1  0
 14 41  1  0
 19 42  1  0
 20 43  1  0
 20 44  1  0
 21 45  1  0
 21 46  1  0
 22 47  1  0
 22 48  1  0
 23 49  1  6
 25 50  1  0
 25 51  1  0
 26 52  1  0
 26 53  1  0
 27 54  1  1
M  CHG  1  27   1
M  END
>  <UniqueID>  (33) 
30

>  <SMILES>  (33) 
O=C1N(CCCN2CCN(Cc3ccc(Cl)c(Cl)c3)CC2)C[C@H]2SCC[N@H+]12

>  <Energy>  (33) 
98.79803364525452

>  <Genealogy>  (33) 
O=C1N(CCCN2CCN(Cc3ccc(Cl)c(Cl)c3)CC2)CC2SCC[NH+]12 (protonated)
O=C1N(CCCN2CCN(Cc3ccc(Cl)c(Cl)c3)CC2)C[C@H]2SCC[N@H+]12 (chirality)
O=C1N(CCCN2CCN(Cc3ccc(Cl)c(Cl)c3)CC2)C[C@H]2SCC[N@H+]12 (3D coordinates assigned)
O=C1N(CCCN2CCN(Cc3ccc(Cl)c(Cl)c3)CC2)C[C@H]2SCC[N@H+]12 (nonaromatic ring conformer: 98.79803364525452 kcal/mol)

>  <smiles>  (33) 
O=C1N(CCCN2CCN(Cc3ccc(Cl)c(Cl)c3)CC2)CC2SCCN12

>  <score_type>  (33) 
oracle

>  <origin>  (33) 
adg

>  <m_score__min__energy>  (33) 
-7.4000000000000004

>  <m_primary>  (33) 
energy

$$$$
33:0
     RDKit          3D

 51 53  0  0  0  0  0  0  0  0999 V2000
   54.3800   24.8770   45.6170 C   0  0  0  0  0  0  0  0  0  0  0  0
   55.2460   25.8940   46.0650 O   0  0  0  0  0  0  0  0  0  0  0  0
   56.4380   25.3100   46.5470 C   0  0  0  0  0  0  0  0  0  0  0  0
   57.6450   26.0580   45.9820 C   0  0  0  0  0  0  0  0  0  0  0  0
   57.2160   27.2740   45.2920 N   0  0  0  0  0  0  0  0  0  0  0  0
   58.1380   28.2050   44.7040 C   0  0  0  0  0  0  0  0  0  0  0  0
   59.3850   28.0210   44.8020 O   0  0  0  0  0  0  0  0  0  0  0  0
   57.6230   29.3880   43.9350 C   0  0  0  0  0  0  0  0  0  0  0  0
   57.1210   30.3990   44.8150 O   0  0  0  0  0  0  0  0  0  0  0  0
   57.7360   31.6390   45.0610 C   0  0  0  0  0  0  0  0  0  0  0  0
   57.9170   32.5130   43.9770 C   0  0  0  0  0  0  0  0  0  0  0  0
   57.4400   32.0270   42.3550 Cl  0  0  0  0  0  0  0  0  0  0  0  0
   58.4300   33.7950   44.1800 C   0  0  0  0  0  0  0  0  0  0  0  0
   58.7730   34.2210   45.4620 C   0  0  0  0  0  0  0  0  0  0  0  0
   58.6490   33.3490   46.5560 C   0  0  0  0  0  0  0  0  0  0  0  0
   58.9700   33.8510   47.9440 C   0  0  0  0  0  0  0  0  0  0  0  0
   60.2080   33.2320   48.4220 N   0  0  0  0  0  0  0  0  0  0  0  0
   60.2980   32.3600   49.4590 C   0  0  0  0  0  0  0  0  0  0  0  0
   61.5900   31.8560   49.5700 C   0  0  0  0  0  0  0  0  0  0  0  0
   62.2990   32.4480   48.5490 C   0  0  0  0  0  0  0  0  0  0  0  0
   63.6280   32.2850   48.1670 C   0  0  0  0  0  0  0  0  0  0  0  0
   64.0820   33.0080   47.0510 C   0  0  0  0  0  0  0  0  0  0  0  0
   63.2090   33.8720   46.3530 C   0  0  0  0  0  0  0  0  0  0  0  0
   61.8710   34.0190   46.7620 C   0  0  0  0  0  0  0  0  0  0  0  0
   61.4390   33.2770   47.8670 C   0  0  0  0  0  0  0  0  0  0  0  0
   58.1600   32.0420   46.3500 C   0  0  0  0  0  0  0  0  0  0  0  0
   58.1280   31.1490   47.4200 O   0  0  0  0  0  0  0  0  0  0  0  0
   58.9830   30.0110   47.4530 C   0  0  0  0  0  0  0  0  0  0  0  0
   53.9408   24.3612   46.4837 H   0  0  0  0  0  0  0  0  0  0  0  0
   53.5777   25.3201   45.0088 H   0  0  0  0  0  0  0  0  0  0  0  0
   54.9453   24.1556   45.0088 H   0  0  0  0  0  0  0  0  0  0  0  0
   56.4545   25.3667   47.6454 H   0  0  0  0  0  0  0  0  0  0  0  0
   56.4814   24.2576   46.2300 H   0  0  0  0  0  0  0  0  0  0  0  0
   58.3215   26.3287   46.8061 H   0  0  0  0  0  0  0  0  0  0  0  0
   58.1642   25.4057   45.2644 H   0  0  0  0  0  0  0  0  0  0  0  0
   56.1910   27.4680   45.2290 H   0  0  0  0  0  0  0  0  0  0  0  0
   58.4424   29.8098   43.3344 H   0  0  0  0  0  0  0  0  0  0  0  0
   56.8006   29.0508   43.2869 H   0  0  0  0  0  0  0  0  0  0  0  0
   58.5643   34.4726   43.3239 H   0  0  0  0  0  0  0  0  0  0  0  0
   59.1427   35.2453   45.6177 H   0  0  0  0  0  0  0  0  0  0  0  0
   59.0948   34.9436   47.9173 H   0  0  0  0  0  0  0  0  0  0  0  0
   58.1466   33.5882   48.6244 H   0  0  0  0  0  0  0  0  0  0  0  0
   59.4627   32.0889   50.1214 H   0  0  0  0  0  0  0  0  0  0  0  0
   61.9649   31.1381   50.3143 H   0  0  0  0  0  0  0  0  0  0  0  0
   64.3001   31.6127   48.7204 H   0  0  0  0  0  0  0  0  0  0  0  0
   65.1250   32.9005   46.7183 H   0  0  0  0  0  0  0  0  0  0  0  0
   63.5784   34.4343   45.4827 H   0  0  0  0  0  0  0  0  0  0  0  0
   61.1861   34.6957   46.2301 H   0  0  0  0  0  0  0  0  0  0  0  0
   59.1887   29.7372   48.4983 H   0  0  0  0  0  0  0  0  0  0  0  0
   58.4924   29.1688   46.9431 H   0  0  0  0  0  0  0  0  0  0  0  0
   59.9285   30.2478   46.9431 H   0  0  0  0  0  0  0  0  0  0  0  0
  1  2  1  0
  2  3  1  0
  3  4  1  0
  4  5  1  0
  5  6  1  0
  6  7  2  0
  6  8  1  0
  8  9  1  0
  9 10  1  0
 10 11  2  0
 11 12  1  0
 11 13  1  0
 13 14  2  0
 14 15  1  0
 15 16  1  0
 16 17  1  0
 17 18  1  0
 18 19  2  0
 19 20  1  0
 20 21  2  0
 21 22  1  0
 22 23  2  0
 23 24  1  0
 24 25  2  0
 15 26  2  0
 26 27  1  0
 27 28  1  0
 26 10  1  0
 25 17  1  0
 25 20  1  0
  1 29  1  0
  1 30  1  0
  1 31  1  0
  3 32  1  0
  3 33  1  0
  4 34  1  0
  4 35  1  0
  5 36  1  0
  8 37  1  0
  8 38  1  0
 13 39  1  0
 14 40  1  0
 16 41  1  0
 16 42  1  0
 18 43  1  0
 19 44  1  0
 21 45  1  0
 22 46  1  0
 23 47  1  0
 24 48  1  0
 28 49  1  0
 28 50  1  0
 28 51  1  0
M  END
>  <UniqueID>  (34) 
31

>  <SMILES>  (34) 
COCCNC(=O)COc1c(Cl)ccc(Cn2ccc3ccccc32)c1OC

>  <Energy>  (34) 
90.0698174495446

>  <Genealogy>  (34) 
COCCNC(=O)COc1c(Cl)ccc(Cn2ccc3ccccc32)c1OC (3D coordinates assigned)
COCCNC(=O)COc1c(Cl)ccc(Cn2ccc3ccccc32)c1OC (optimized conformer: 90.0698174495446 kcal/mol)

>  <smiles>  (34) 
COCCNC(=O)COc1c(Cl)ccc(Cn2ccc3ccccc32)c1OC

>  <score_type>  (34) 
oracle

>  <origin>  (34) 
adg

>  <m_score__min__energy>  (34) 
-8.0899999999999999

>  <m_primary>  (34) 
energy

$$$$
34:0
     RDKit          3D

 35 37  0  0  0  0  0  0  0  0999 V2000
   57.0120   34.2470   45.2440 C   0  0  0  0  0  0  0  0  0  0  0  0
   58.2130   33.3980   45.1860 N   0  0  0  0  0  0  0  0  0  0  0  0
   59.4220   34.2550   45.1420 C   0  0  0  0  0  0  0  0  0  0  0  0
   60.2100   34.1590   46.4230 C   0  0  0  0  0  0  0  0  0  0  0  0
   59.5810   34.3890   47.6580 C   0  0  0  0  0  0  0  0  0  0  0  0
   60.2990   34.2610   48.8500 C   0  0  0  0  0  0  0  0  0  0  0  0
   61.6540   33.9180   48.8180 C   0  0  0  0  0  0  0  0  0  0  0  0
   62.3480   33.7870   49.9760 F   0  0  0  0  0  0  0  0  0  0  0  0
   62.2940   33.7110   47.5920 C   0  0  0  0  0  0  0  0  0  0  0  0
   61.5780   33.8380   46.3980 C   0  0  0  0  0  0  0  0  0  0  0  0
   58.1310   32.4920   44.0160 C   0  0  0  0  0  0  0  0  0  0  0  0
   57.4750   31.1950   44.3990 C   0  0  0  0  0  0  0  0  0  0  0  0
   56.1640   30.8360   44.1250 C   0  0  0  0  0  0  0  0  0  0  0  0
   55.8920   29.6220   44.6640 N   0  0  0  0  0  0  0  0  0  0  0  0
   57.0580   29.2790   45.2480 C   0  0  0  0  0  0  0  0  0  0  0  0
   57.2650   28.1330   45.9410 N   0  0  0  0  0  0  0  0  0  0  0  0
   58.4910   27.9100   46.4980 C   0  0  0  0  0  0  0  0  0  0  0  0
   59.5240   28.8540   46.3530 C   0  0  0  0  0  0  0  0  0  0  0  0
   59.2710   30.0260   45.6290 C   0  0  0  0  0  0  0  0  0  0  0  0
   58.0290   30.1930   45.1040 N   0  0  0  0  0  0  0  0  0  0  0  0
   56.7462   34.4349   46.2947 H   0  0  0  0  0  0  0  0  0  0  0  0
   57.2146   35.2037   44.7403 H   0  0  0  0  0  0  0  0  0  0  0  0
   56.1777   33.7369   44.7403 H   0  0  0  0  0  0  0  0  0  0  0  0
   60.0589   33.9330   44.3049 H   0  0  0  0  0  0  0  0  0  0  0  0
   59.1021   35.2991   45.0094 H   0  0  0  0  0  0  0  0  0  0  0  0
   58.5182   34.6712   47.6868 H   0  0  0  0  0  0  0  0  0  0  0  0
   59.7976   34.4303   49.8144 H   0  0  0  0  0  0  0  0  0  0  0  0
   63.3618   33.4480   47.5671 H   0  0  0  0  0  0  0  0  0  0  0  0
   62.0875   33.6861   45.4350 H   0  0  0  0  0  0  0  0  0  0  0  0
   57.5407   32.9761   43.2240 H   0  0  0  0  0  0  0  0  0  0  0  0
   59.1492   32.2828   43.6562 H   0  0  0  0  0  0  0  0  0  0  0  0
   55.4493   31.4467   43.5539 H   0  0  0  0  0  0  0  0  0  0  0  0
   58.6728   26.9849   47.0647 H   0  0  0  0  0  0  0  0  0  0  0  0
   60.5128   28.6748   46.8003 H   0  0  0  0  0  0  0  0  0  0  0  0
   60.0530   30.7870   45.4899 H   0  0  0  0  0  0  0  0  0  0  0  0
  1  2  1  0
  2  3  1  0
  3  4  1  0
  4  5  2  0
  5  6  1  0
  6  7  2  0
  7  8  1  0
  7  9  1  0
  9 10  2  0
  2 11  1  0
 11 12  1  0
 12 13  2  0
 13 14  1  0
 14 15  2  0
 15 16  1  0
 16 17  2  0
 17 18  1  0
 18 19  2  0
 19 20  1  0
 10  4  1  0
 20 12  1  0
 20 15  1  0
  1 21  1  0
  1 22  1  0
  1 23  1  0
  3 24  1  0
  3 25  1  0
  5 26  1  0
  6 27  1  0
  9 28  1  0
 10 29  1  0
 11 30  1  0
 11 31  1  0
 13 32  1  0
 17 33  1  0
 18 34  1  0
 19 35  1  0
M  END
>  <UniqueID>  (35) 
32

>  <SMILES>  (35) 
CN(Cc1ccc(F)cc1)Cc1cnc2ncccn12

>  <Energy>  (35) 
71.93914752724652

>  <Genealogy>  (35) 
CN(Cc1ccc(F)cc1)Cc1cnc2ncccn12 (3D coordinates assigned)
CN(Cc1ccc(F)cc1)Cc1cnc2ncccn12 (optimized conformer: 71.93914752724652 kcal/mol)

>  <smiles>  (35) 
CN(Cc1ccc(F)cc1)Cc1cnc2ncccn12

>  <score_type>  (35) 
oracle

>  <origin>  (35) 
adg

>  <m_score__min__energy>  (35) 
-6.5300000000000002

>  <m_primary>  (35) 
energy

$$$$
35:0
     RDKit          3D

 42 44  0  0  0  0  0  0  0  0999 V2000
   55.6770   27.6120   45.6160 O   0  0  0  0  0  0  0  0  0  0  0  0
   56.2610   28.6840   44.9490 C   0  0  0  0  0  0  0  0  0  0  0  0
   55.4440   29.7130   44.4680 C   0  0  0  0  0  0  0  0  0  0  0  0
   56.0040   30.8030   43.7970 C   0  0  0  0  0  0  0  0  0  0  0  0
   57.3860   30.8700   43.6030 C   0  0  0  0  0  0  0  0  0  0  0  0
   58.1510   32.3610   42.6870 Br  0  0  0  0  0  0  0  0  0  0  0  0
   58.2100   29.8450   44.0810 C   0  0  0  0  0  0  0  0  0  0  0  0
   57.6570   28.7440   44.7580 C   0  0  0  0  0  0  0  0  0  0  0  0
   58.5740   27.6590   45.2690 C   0  0  0  0  0  0  0  0  0  0  0  0
   59.3550   28.1470   46.4240 N   0  0  0  0  0  0  0  0  0  0  0  0
   58.4550   28.4910   47.5490 C   0  0  0  0  0  0  0  0  0  0  0  0
   59.1620   29.3870   48.5750 C   0  0  0  0  0  0  0  0  0  0  0  0
   59.6220   30.6710   47.9850 N   0  0  0  0  0  0  0  0  0  0  0  0
   58.7610   31.8050   48.3760 C   0  0  0  0  0  0  0  0  0  0  0  0
   58.8120   32.8900   47.3320 C   0  0  0  0  0  0  0  0  0  0  0  0
   57.6940   33.1300   46.5160 C   0  0  0  0  0  0  0  0  0  0  0  0
   57.7370   34.1290   45.5390 C   0  0  0  0  0  0  0  0  0  0  0  0
   58.8940   34.8950   45.3710 C   0  0  0  0  0  0  0  0  0  0  0  0
   60.0100   34.6630   46.1790 C   0  0  0  0  0  0  0  0  0  0  0  0
   59.9710   33.6640   47.1580 C   0  0  0  0  0  0  0  0  0  0  0  0
   59.7740   30.6210   46.5130 C   0  0  0  0  0  0  0  0  0  0  0  0
   60.2810   29.2490   46.0520 C   0  0  0  0  0  0  0  0  0  0  0  0
   54.3555   29.6635   44.6189 H   0  0  0  0  0  0  0  0  0  0  0  0
   55.3565   31.6089   43.4212 H   0  0  0  0  0  0  0  0  0  0  0  0
   59.2976   29.9011   43.9260 H   0  0  0  0  0  0  0  0  0  0  0  0
   57.9722   26.7918   45.5787 H   0  0  0  0  0  0  0  0  0  0  0  0
   59.2675   27.3701   44.4656 H   0  0  0  0  0  0  0  0  0  0  0  0
   57.5759   29.0220   47.1551 H   0  0  0  0  0  0  0  0  0  0  0  0
   58.1545   27.5593   48.0505 H   0  0  0  0  0  0  0  0  0  0  0  0
   58.4618   29.6058   49.3947 H   0  0  0  0  0  0  0  0  0  0  0  0
   60.0497   28.8470   48.9361 H   0  0  0  0  0  0  0  0  0  0  0  0
   57.7243   31.4528   48.4819 H   0  0  0  0  0  0  0  0  0  0  0  0
   59.1220   32.2132   49.3315 H   0  0  0  0  0  0  0  0  0  0  0  0
   56.7815   32.5297   46.6462 H   0  0  0  0  0  0  0  0  0  0  0  0
   56.8593   34.3124   44.9018 H   0  0  0  0  0  0  0  0  0  0  0  0
   58.9260   35.6810   44.6021 H   0  0  0  0  0  0  0  0  0  0  0  0
   60.9201   35.2662   46.0454 H   0  0  0  0  0  0  0  0  0  0  0  0
   60.8508   33.4843   47.7933 H   0  0  0  0  0  0  0  0  0  0  0  0
   58.7983   30.8183   46.0450 H   0  0  0  0  0  0  0  0  0  0  0  0
   60.5099   31.3819   46.2137 H   0  0  0  0  0  0  0  0  0  0  0  0
   60.3916   29.2629   44.9577 H   0  0  0  0  0  0  0  0  0  0  0  0
   61.2425   29.0618   46.5525 H   0  0  0  0  0  0  0  0  0  0  0  0
  1  2  1  0
  2  3  2  0
  3  4  1  0
  4  5  2  0
  5  6  1  0
  5  7  1  0
  7  8  2  0
  8  9  1  0
  9 10  1  0
 10 11  1  0
 11 12  1  0
 12 13  1  0
 13 14  1  0
 14 15  1  0
 15 16  2  0
 16 17  1  0
 17 18  2  0
 18 19  1  0
 19 20  2  0
 13 21  1  0
 21 22  1  0
  8  2  1  0
 22 10  1  0
 20 15  1  0
  3 23  1  0
  4 24  1  0
  7 25  1  0
  9 26  1  0
  9 27  1  0
 11 28  1  0
 11 29  1  0
 12 30  1  0
 12 31  1  0
 14 32  1  0
 14 33  1  0
 16 34  1  0
 17 35  1  0
 18 36  1  0
 19 37  1  0
 20 38  1  0
 21 39  1  0
 21 40  1  0
 22 41  1  0
 22 42  1  0
M  CHG  1   1  -1
M  END
>  <UniqueID>  (36) 
33

>  <SMILES>  (36) 
[O-]c1ccc(Br)cc1CN1CCN(Cc2ccccc2)CC1

>  <Energy>  (36) 
56.704469253584534

>  <Genealogy>  (36) 
[O-]c1ccc(Br)cc1CN1CCN(Cc2ccccc2)CC1 (protonated)
[O-]c1ccc(Br)cc1CN1CCN(Cc2ccccc2)CC1 (3D coordinates assigned)
[O-]c1ccc(Br)cc1CN1CCN(Cc2ccccc2)CC1 (nonaromatic ring conformer: 56.704469253584534 kcal/mol)

>  <smiles>  (36) 
Oc1ccc(Br)cc1CN1CCN(Cc2ccccc2)CC1

>  <score_type>  (36) 
oracle

>  <origin>  (36) 
adg

>  <m_score__min__energy>  (36) 
-12.23

>  <m_primary>  (36) 
energy

$$$$
36:0
     RDKit          3D

 29 31  0  0  0  0  0  0  0  0999 V2000
   59.2340   34.7620   48.1220 F   0  0  0  0  0  0  0  0  0  0  0  0
   59.7280   34.5930   46.8400 C   0  0  0  0  0  0  0  0  0  0  0  0
   59.6680   35.8130   46.1880 F   0  0  0  0  0  0  0  0  0  0  0  0
   61.0470   34.1870   46.9150 F   0  0  0  0  0  0  0  0  0  0  0  0
   58.9300   33.5520   46.0950 C   0  0  0  0  0  0  0  0  0  0  0  0
   58.7130   32.2840   46.6580 C   0  0  0  0  0  0  0  0  0  0  0  0
   58.0150   31.3020   45.9500 C   0  0  0  0  0  0  0  0  0  0  0  0
   57.5280   31.5700   44.6610 C   0  0  0  0  0  0  0  0  0  0  0  0
   56.8120   30.5020   43.8830 C   0  0  0  0  0  0  0  0  0  0  0  0
   56.9420   29.1870   44.5830 C   0  0  0  0  0  0  0  0  0  0  0  0
   58.0950   28.4630   44.5740 N   0  0  0  0  0  0  0  0  0  0  0  0
   57.7460   27.3640   45.2560 C   0  0  0  0  0  0  0  0  0  0  0  0
   58.5230   26.2540   45.5670 C   0  0  0  0  0  0  0  0  0  0  0  0
   57.9050   25.2190   46.2930 C   0  0  0  0  0  0  0  0  0  0  0  0
   56.5470   25.3420   46.6700 C   0  0  0  0  0  0  0  0  0  0  0  0
   55.8300   26.4570   46.3330 N   0  0  0  0  0  0  0  0  0  0  0  0
   56.4470   27.4430   45.6340 C   0  0  0  0  0  0  0  0  0  0  0  0
   55.8970   28.5900   45.2190 N   0  0  0  0  0  0  0  0  0  0  0  0
   57.7790   32.8220   44.0790 C   0  0  0  0  0  0  0  0  0  0  0  0
   58.4770   33.8040   44.7870 C   0  0  0  0  0  0  0  0  0  0  0  0
   59.0958   32.0618   47.6650 H   0  0  0  0  0  0  0  0  0  0  0  0
   57.8464   30.3147   46.4048 H   0  0  0  0  0  0  0  0  0  0  0  0
   55.7475   30.7654   43.7969 H   0  0  0  0  0  0  0  0  0  0  0  0
   57.2586   30.4239   42.8808 H   0  0  0  0  0  0  0  0  0  0  0  0
   59.5768   26.1875   45.2585 H   0  0  0  0  0  0  0  0  0  0  0  0
   58.4750   24.3187   46.5660 H   0  0  0  0  0  0  0  0  0  0  0  0
   56.0636   24.5341   47.2389 H   0  0  0  0  0  0  0  0  0  0  0  0
   57.4241   33.0317   43.0592 H   0  0  0  0  0  0  0  0  0  0  0  0
   58.6735   34.7798   44.3189 H   0  0  0  0  0  0  0  0  0  0  0  0
  1  2  1  0
  2  3  1  0
  2  4  1  0
  2  5  1  0
  5  6  2  0
  6  7  1  0
  7  8  2  0
  8  9  1  0
  9 10  1  0
 10 11  2  0
 11 12  1  0
 12 13  2  0
 13 14  1  0
 14 15  2  0
 15 16  1  0
 16 17  2  0
 17 18  1  0
  8 19  1  0
 19 20  2  0
 20  5  1  0
 18 10  1  0
 17 12  1  0
  6 21  1  0
  7 22  1  0
  9 23  1  0
  9 24  1  0
 13 25  1  0
 14 26  1  0
 15 27  1  0
 19 28  1  0
 20 29  1  0
M  CHG  1  18  -1
M  END
>  <UniqueID>  (37) 
34

>  <SMILES>  (37) 
FC(F)(F)c1ccc(Cc2nc3cccnc3[n-]2)cc1

>  <Energy>  (37) 
67.14847169004166

>  <Genealogy>  (37) 
FC(F)(F)c1ccc(Cc2nc3cccnc3[n-]2)cc1 (protonated)
FC(F)(F)c1ccc(Cc2nc3cccnc3[n-]2)cc1 (3D coordinates assigned)
FC(F)(F)c1ccc(Cc2nc3cccnc3[n-]2)cc1 (optimized conformer: 67.14847169004166 kcal/mol)

>  <smiles>  (37) 
FC(F)(F)c1ccc(Cc2nc3cccnc3[nH]2)cc1

>  <score_type>  (37) 
oracle

>  <origin>  (37) 
adg

>  <m_score__min__energy>  (37) 
-8.4800000000000004

>  <m_primary>  (37) 
energy

$$$$
37:0
     RDKit          3D

 49 50  0  0  0  0  0  0  0  0999 V2000
   60.1890   30.0960   47.0410 C   0  0  0  0  0  0  0  0  0  0  0  0
   58.7440   30.0250   46.5490 C   0  0  0  0  0  0  0  0  0  0  0  0
   58.5700   30.5150   45.0930 C   0  0  0  0  0  0  0  0  0  0  0  0
   57.3590   31.3500   44.8390 N   0  0  2  0  0  0  0  0  0  0  0  0
   56.7000   30.9010   43.5770 C   0  0  0  0  0  0  0  0  0  0  0  0
   55.7370   29.7200   43.7910 C   0  0  0  0  0  0  0  0  0  0  0  0
   55.5660   29.4650   45.1610 O   0  0  0  0  0  0  0  0  0  0  0  0
   57.6170   32.8310   44.9080 C   0  0  1  0  0  0  0  0  0  0  0  0
   56.8710   33.6100   46.0190 C   0  0  0  0  0  0  0  0  0  0  0  0
   57.4930   33.4610   47.4060 C   0  0  0  0  0  0  0  0  0  0  0  0
   58.9890   33.6420   47.4000 C   0  0  0  0  0  0  0  0  0  0  0  0
   59.6360   33.9040   48.6170 C   0  0  0  0  0  0  0  0  0  0  0  0
   61.0360   34.0200   48.6810 C   0  0  0  0  0  0  0  0  0  0  0  0
   61.7080   34.2890   49.8840 O   0  0  0  0  0  0  0  0  0  0  0  0
   61.8550   33.3590   50.9520 C   0  0  0  0  0  0  0  0  0  0  0  0
   61.7970   33.8640   47.5160 C   0  0  0  0  0  0  0  0  0  0  0  0
   63.1920   33.9890   47.6100 O   0  0  0  0  0  0  0  0  0  0  0  0
   64.0530   33.0160   48.1930 C   0  0  0  0  0  0  0  0  0  0  0  0
   61.1530   33.5860   46.2970 C   0  0  0  0  0  0  0  0  0  0  0  0
   59.7570   33.4600   46.2310 C   0  0  0  0  0  0  0  0  0  0  0  0
   59.1270   33.1950   44.8800 C   0  0  0  0  0  0  0  0  0  0  0  0
   60.2022   30.0966   48.1409 H   0  0  0  0  0  0  0  0  0  0  0  0
   60.7466   29.2242   46.6681 H   0  0  0  0  0  0  0  0  0  0  0  0
   60.6584   31.0183   46.6681 H   0  0  0  0  0  0  0  0  0  0  0  0
   58.4056   28.9801   46.6087 H   0  0  0  0  0  0  0  0  0  0  0  0
   58.1478   30.6905   47.1906 H   0  0  0  0  0  0  0  0  0  0  0  0
   59.4553   31.1115   44.8276 H   0  0  0  0  0  0  0  0  0  0  0  0
   58.4475   29.6093   44.4809 H   0  0  0  0  0  0  0  0  0  0  0  0
   56.6960   31.1470   45.6230 H   0  0  0  0  0  0  0  0  0  0  0  0
   56.1325   31.7450   43.1580 H   0  0  0  0  0  0  0  0  0  0  0  0
   57.4924   30.5609   42.8941 H   0  0  0  0  0  0  0  0  0  0  0  0
   54.7618   29.9629   43.3438 H   0  0  0  0  0  0  0  0  0  0  0  0
   56.1616   28.8246   43.3135 H   0  0  0  0  0  0  0  0  0  0  0  0
   54.7110   28.9720   45.2630 H   0  0  0  0  0  0  0  0  0  0  0  0
   57.1604   33.1844   43.9717 H   0  0  0  0  0  0  0  0  0  0  0  0
   56.8707   34.6773   45.7527 H   0  0  0  0  0  0  0  0  0  0  0  0
   55.8568   33.1882   46.0777 H   0  0  0  0  0  0  0  0  0  0  0  0
   57.0507   34.2164   48.0721 H   0  0  0  0  0  0  0  0  0  0  0  0
   57.2855   32.4379   47.7528 H   0  0  0  0  0  0  0  0  0  0  0  0
   59.0398   34.0203   49.5340 H   0  0  0  0  0  0  0  0  0  0  0  0
   61.7714   33.8879   51.9129 H   0  0  0  0  0  0  0  0  0  0  0  0
   61.0665   32.5951   50.8841 H   0  0  0  0  0  0  0  0  0  0  0  0
   62.8407   32.8755   50.8841 H   0  0  0  0  0  0  0  0  0  0  0  0
   63.9933   33.0834   49.2893 H   0  0  0  0  0  0  0  0  0  0  0  0
   63.7428   32.0113   47.8700 H   0  0  0  0  0  0  0  0  0  0  0  0
   65.0880   33.2017   47.8700 H   0  0  0  0  0  0  0  0  0  0  0  0
   61.7521   33.4656   45.3824 H   0  0  0  0  0  0  0  0  0  0  0  0
   59.2464   34.1002   44.2666 H   0  0  0  0  0  0  0  0  0  0  0  0
   59.6435   32.3133   44.4728 H   0  0  0  0  0  0  0  0  0  0  0  0
  1  2  1  0
  2  3  1  0
  3  4  1  0
  4  5  1  0
  5  6  1  0
  6  7  1  0
  4  8  1  0
  8  9  1  0
  9 10  1  0
 10 11  1  0
 11 12  2  0
 12 13  1  0
 13 14  1  0
 14 15  1  0
 13 16  2  0
 16 17  1  0
 17 18  1  0
 16 19  1  0
 19 20  2  0
 20 21  1  0
 21  8  1  0
 20 11  1  0
  1 22  1  0
  1 23  1  0
  1 24  1  0
  2 25  1  0
  2 26  1  0
  3 27  1  0
  3 28  1  0
  4 29  1  1
  5 30  1  0
  5 31  1  0
  6 32  1  0
  6 33  1  0
  7 34  1  0
  8 35  1  6
  9 36  1  0
  9 37  1  0
 10 38  1  0
 10 39  1  0
 12 40  1  0
 15 41  1  0
 15 42  1  0
 15 43  1  0
 18 44  1  0
 18 45  1  0
 18 46  1  0
 19 47  1  0
 21 48  1  0
 21 49  1  0
M  CHG  1   4   1
M  END
>  <UniqueID>  (38) 
35

>  <SMILES>  (38) 
CCC[N@H+](CCO)[C@H]1CCc2cc(OC)c(OC)cc2C1

>  <Energy>  (38) 
60.26242434245396

>  <Genealogy>  (38) 
CCC[NH+](CCO)C1CCc2cc(OC)c(OC)cc2C1 (protonated)
CCC[N@H+](CCO)[C@H]1CCc2cc(OC)c(OC)cc2C1 (chirality)
CCC[N@H+](CCO)[C@H]1CCc2cc(OC)c(OC)cc2C1 (3D coordinates assigned)
CCC[N@H+](CCO)[C@H]1CCc2cc(OC)c(OC)cc2C1 (nonaromatic ring conformer: 60.26242434245396 kcal/mol)

>  <smiles>  (38) 
CCCN(CCO)C1CCc2cc(OC)c(OC)cc2C1

>  <score_type>  (38) 
oracle

>  <origin>  (38) 
adg

>  <m_score__min__energy>  (38) 
-5.54

>  <m_primary>  (38) 
energy

$$$$
38:0
     RDKit          3D

 45 48  0  0  0  0  0  0  0  0999 V2000
   61.4637   30.6916   46.0687 H   0  0  0  0  0  0  0  0  0  0  0  0
   60.5000   30.2120   46.2950 C   0  0  0  0  0  0  0  0  0  0  0  0
   59.9080   30.3960   47.4820 C   0  0  0  0  0  0  0  0  0  0  0  0
   60.4920   31.2220   48.5680 C   0  0  0  0  0  0  0  0  0  0  0  0
   60.7677   30.7199   49.5071 H   0  0  0  0  0  0  0  0  0  0  0  0
   60.7040   32.5410   48.4750 C   0  0  0  0  0  0  0  0  0  0  0  0
   61.6642   32.9132   48.0884 H   0  0  0  0  0  0  0  0  0  0  0  0
   59.6420   33.5160   48.8940 C   0  0  0  0  0  0  0  0  0  0  0  0
   60.0768   34.2443   49.5944 H   0  0  0  0  0  0  0  0  0  0  0  0
   58.8245   32.9615   49.3779 H   0  0  0  0  0  0  0  0  0  0  0  0
   59.1180   34.2100   47.7620 O   0  0  0  0  0  0  0  0  0  0  0  0
   58.7200   33.6090   46.5560 C   0  0  0  0  0  0  0  0  0  0  0  0
   59.2270   34.1330   45.3590 C   0  0  0  0  0  0  0  0  0  0  0  0
   59.9138   34.9917   45.3891 H   0  0  0  0  0  0  0  0  0  0  0  0
   58.8700   33.5770   44.1280 C   0  0  0  0  0  0  0  0  0  0  0  0
   59.2752   33.9975   43.1958 H   0  0  0  0  0  0  0  0  0  0  0  0
   57.9960   32.4840   44.0820 C   0  0  0  0  0  0  0  0  0  0  0  0
   57.6150   31.8990   42.8700 C   0  0  0  0  0  0  0  0  0  0  0  0
   58.0003   32.2934   41.9182 H   0  0  0  0  0  0  0  0  0  0  0  0
   56.7430   30.8120   42.8790 C   0  0  0  0  0  0  0  0  0  0  0  0
   56.4319   30.3383   41.9362 H   0  0  0  0  0  0  0  0  0  0  0  0
   56.2690   30.3320   44.1050 C   0  0  0  0  0  0  0  0  0  0  0  0
   55.4810   29.3510   44.1330 O   0  0  0  0  0  0  0  0  0  0  0  0
   56.6470   30.9070   45.2440 O   0  0  0  0  0  0  0  0  0  0  0  0
   57.4770   31.9470   45.2810 C   0  0  0  0  0  0  0  0  0  0  0  0
   57.8390   32.5100   46.5100 C   0  0  0  0  0  0  0  0  0  0  0  0
   57.4342   32.0930   47.4440 H   0  0  0  0  0  0  0  0  0  0  0  0
   58.6080   29.6650   47.7230 C   0  0  0  0  0  0  0  0  0  0  0  0
   57.8073   30.1605   47.1543 H   0  0  0  0  0  0  0  0  0  0  0  0
   58.3907   29.6884   48.8011 H   0  0  0  0  0  0  0  0  0  0  0  0
   58.7000   28.2480   47.2940 N   0  0  0  0  0  0  0  0  0  0  0  0
   59.4700   27.4290   48.2460 C   0  0  0  0  0  0  0  0  0  0  0  0
   58.8824   26.5472   48.5411 H   0  0  0  0  0  0  0  0  0  0  0  0
   59.7032   28.0101   49.1504 H   0  0  0  0  0  0  0  0  0  0  0  0
   60.7470   26.9900   47.5560 C   0  0  0  0  0  0  0  0  0  0  0  0
   61.0426   25.9838   47.8879 H   0  0  0  0  0  0  0  0  0  0  0  0
   61.5956   27.6517   47.7841 H   0  0  0  0  0  0  0  0  0  0  0  0
   60.3990   26.9870   46.0900 C   0  0  0  0  0  0  0  0  0  0  0  0
   60.0330   25.9967   45.7813 H   0  0  0  0  0  0  0  0  0  0  0  0
   61.2705   27.2112   45.4574 H   0  0  0  0  0  0  0  0  0  0  0  0
   59.2950   28.0390   45.9440 C   0  0  2  0  0  0  0  0  0  0  0  0
   58.5066   27.6921   45.2598 H   0  0  0  0  0  0  0  0  0  0  0  0
   59.8240   29.3400   45.2810 C   0  0  0  0  0  0  0  0  0  0  0  0
   58.9800   29.8887   44.8377 H   0  0  0  0  0  0  0  0  0  0  0  0
   60.5534   29.0701   44.5031 H   0  0  0  0  0  0  0  0  0  0  0  0
  1  2  1  0
  2  3  2  0
  3  4  1  0
  4  5  1  0
  4  6  2  0
  6  7  1  0
  6  8  1  0
  8  9  1  0
  8 10  1  0
  8 11  1  0
 11 12  1  0
 12 13  2  0
 13 14  1  0
 13 15  1  0
 15 16  1  0
 15 17  2  0
 17 18  1  0
 18 19  1  0
 18 20  2  0
 20 21  1  0
 20 22  1  0
 22 23  2  0
 22 24  1  0
 24 25  1  0
 25 26  2  0
 26 27  1  0
  3 28  1  0
 28 29  1  0
 28 30  1  0
 28 31  1  0
 31 32  1  0
 32 33  1  0
 32 34  1  0
 32 35  1  0
 35 36  1  0
 35 37  1  0
 35 38  1  0
 38 39  1  0
 38 40  1  0
 38 41  1  0
 41 42  1  6
 41 43  1  0
 43 44  1  0
 43 45  1  0
 43  2  1  0
 26 12  1  0
 41 31  1  0
 25 17  1  0
M  END
>  <UniqueID>  (39) 
36

>  <SMILES>  (39) 
O=c1ccc2ccc(OC/C=C/C3=CC[C@H]4CCCN4C3)cc2o1

>  <Energy>  (39) 
60.87182670229205

>  <Genealogy>  (39) 
O=c1ccc2ccc(OCC=CC3=CC[C@H]4CCCN4C3)cc2o1 (chirality)
O=c1ccc2ccc(OC/C=C/C3=CC[C@H]4CCCN4C3)cc2o1 (cis-trans isomerization)
O=c1ccc2ccc(OC/C=C/C3=CC[C@H]4CCCN4C3)cc2o1 (3D coordinates assigned)
O=c1ccc2ccc(OC/C=C/C3=CC[C@H]4CCCN4C3)cc2o1 (nonaromatic ring conformer: 60.87182670229205 kcal/mol)

>  <smiles>  (39) 
O=c1ccc2ccc(OCC=CC3=CCC4CCCN4C3)cc2o1

>  <score_type>  (39) 
oracle

>  <origin>  (39) 
adg

>  <m_score__min__energy>  (39) 
-8.6899999999999995

>  <m_primary>  (39) 
energy

$$$$
39:0
     RDKit          3D

 37 38  0  0  0  0  0  0  0  0999 V2000
   57.0460   34.1990   45.2710 C   0  0  0  0  0  0  0  0  0  0  0  0
   58.3760   33.8340   45.8490 C   0  0  0  0  0  0  0  0  0  0  0  0
   59.4170   34.7660   45.8900 C   0  0  0  0  0  0  0  0  0  0  0  0
   60.6240   34.3940   46.3890 N   0  0  0  0  0  0  0  0  0  0  0  0
   60.8400   33.1400   46.8610 C   0  0  0  0  0  0  0  0  0  0  0  0
   59.7900   32.2010   46.8510 C   0  0  0  0  0  0  0  0  0  0  0  0
   59.9580   30.7590   47.3060 C   0  0  1  0  0  0  0  0  0  0  0  0
   58.9190   30.2080   48.2780 C   0  0  0  0  0  0  0  0  0  0  0  0
   59.0510   28.7020   48.1430 C   0  0  0  0  0  0  0  0  0  0  0  0
   59.7890   28.4630   46.8250 C   0  0  0  0  0  0  0  0  0  0  0  0
   60.0810   29.7720   46.2120 N   0  0  0  0  0  0  0  0  0  0  0  0
   59.2830   30.0110   44.9790 C   0  0  0  0  0  0  0  0  0  0  0  0
   58.1820   28.9670   44.7060 C   0  0  0  0  0  0  0  0  0  0  0  0
   56.6170   29.7590   44.3680 S   0  0  0  0  0  0  0  0  0  0  0  0
   56.2800   29.7570   42.6190 C   0  0  0  0  0  0  0  0  0  0  0  0
   56.6430   31.1760   44.8720 O   0  0  0  0  0  0  0  0  0  0  0  0
   55.5270   29.0050   45.0750 O   0  0  0  0  0  0  0  0  0  0  0  0
   58.5970   32.5760   46.3140 N   0  0  0  0  0  0  0  0  0  0  0  0
   56.3333   34.3946   46.0858 H   0  0  0  0  0  0  0  0  0  0  0  0
   57.1509   35.1016   44.6510 H   0  0  0  0  0  0  0  0  0  0  0  0
   56.6755   33.3693   44.6510 H   0  0  0  0  0  0  0  0  0  0  0  0
   59.2601   35.7906   45.5217 H   0  0  0  0  0  0  0  0  0  0  0  0
   61.8299   32.8583   47.2494 H   0  0  0  0  0  0  0  0  0  0  0  0
   60.9100   30.8677   47.8463 H   0  0  0  0  0  0  0  0  0  0  0  0
   59.1377   30.5288   49.3072 H   0  0  0  0  0  0  0  0  0  0  0  0
   57.9022   30.5650   48.0575 H   0  0  0  0  0  0  0  0  0  0  0  0
   59.6281   28.2914   48.9847 H   0  0  0  0  0  0  0  0  0  0  0  0
   58.0683   28.2079   48.1512 H   0  0  0  0  0  0  0  0  0  0  0  0
   60.7288   27.9249   47.0176 H   0  0  0  0  0  0  0  0  0  0  0  0
   59.1678   27.8583   46.1479 H   0  0  0  0  0  0  0  0  0  0  0  0
   58.8042   30.9974   45.0677 H   0  0  0  0  0  0  0  0  0  0  0  0
   59.9879   29.9433   44.1373 H   0  0  0  0  0  0  0  0  0  0  0  0
   58.4717   28.3577   43.8372 H   0  0  0  0  0  0  0  0  0  0  0  0
   58.0690   28.3356   45.5996 H   0  0  0  0  0  0  0  0  0  0  0  0
   55.1923   29.7505   42.4552 H   0  0  0  0  0  0  0  0  0  0  0  0
   56.7145   30.6577   42.1608 H   0  0  0  0  0  0  0  0  0  0  0  0
   56.7251   28.8615   42.1608 H   0  0  0  0  0  0  0  0  0  0  0  0
  1  2  1  0
  2  3  2  0
  3  4  1  0
  4  5  2  0
  5  6  1  0
  6  7  1  0
  7  8  1  0
  8  9  1  0
  9 10  1  0
 10 11  1  0
 11 12  1  0
 12 13  1  0
 13 14  1  0
 14 15  1  0
 14 16  2  0
 14 17  2  0
  6 18  2  0
 18  2  1  0
 11  7  1  0
  1 19  1  0
  1 20  1  0
  1 21  1  0
  3 22  1  0
  5 23  1  0
  7 24  1  1
  8 25  1  0
  8 26  1  0
  9 27  1  0
  9 28  1  0
 10 29  1  0
 10 30  1  0
 12 31  1  0
 12 32  1  0
 13 33  1  0
 13 34  1  0
 15 35  1  0
 15 36  1  0
 15 37  1  0
M  END
>  <UniqueID>  (40) 
37

>  <SMILES>  (40) 
Cc1cncc([C@H]2CCCN2CCS(C)(=O)=O)n1

>  <Energy>  (40) 
41.518074072637106

>  <Genealogy>  (40) 
Cc1cncc([C@H]2CCCN2CCS(C)(=O)=O)n1 (chirality)
Cc1cncc([C@H]2CCCN2CCS(C)(=O)=O)n1 (3D coordinates assigned)
Cc1cncc([C@H]2CCCN2CCS(C)(=O)=O)n1 (nonaromatic ring conformer: 41.518074072637106 kcal/mol)

>  <smiles>  (40) 
Cc1cncc(C2CCCN2CCS(C)(=O)=O)n1

>  <score_type>  (40) 
oracle

>  <origin>  (40) 
adg

>  <m_score__min__energy>  (40) 
-7.2599999999999998

>  <m_primary>  (40) 
energy

$$$$
40:0
     RDKit          3D

 48 51  0  0  0  0  0  0  0  0999 V2000
   58.9700   34.9680   44.8450 C   0  0  0  0  0  0  0  0  0  0  0  0
   58.4720   33.5550   44.8410 C   0  0  0  0  0  0  0  0  0  0  0  0
   57.7910   32.9530   43.7970 C   0  0  0  0  0  0  0  0  0  0  0  0
   57.5030   31.6840   44.1550 N   0  0  0  0  0  0  0  0  0  0  0  0
   56.7390   30.7050   43.3800 C   0  0  0  0  0  0  0  0  0  0  0  0
   56.3140   29.5420   44.2490 C   0  0  0  0  0  0  0  0  0  0  0  0
   55.2780   29.6590   44.8890 O   0  0  0  0  0  0  0  0  0  0  0  0
   57.0650   28.2990   44.3580 N   0  0  0  0  0  0  0  0  0  0  0  0
   56.9900   27.6060   45.6490 C   0  0  0  0  0  0  0  0  0  0  0  0
   58.2060   26.6980   45.7090 C   0  0  0  0  0  0  0  0  0  0  0  0
   59.2380   27.3700   44.8150 C   0  0  0  0  0  0  0  0  0  0  0  0
   58.4990   28.5150   44.1280 C   0  0  0  0  0  0  0  0  0  0  0  0
   57.9920   31.5450   45.4050 C   0  0  0  0  0  0  0  0  0  0  0  0
   57.9000   30.4830   46.0770 O   0  0  0  0  0  0  0  0  0  0  0  0
   58.6060   32.6630   45.8500 N   0  0  0  0  0  0  0  0  0  0  0  0
   59.2510   32.8510   47.1230 C   0  0  0  0  0  0  0  0  0  0  0  0
   58.5020   32.7280   48.3220 C   0  0  0  0  0  0  0  0  0  0  0  0
   59.1180   32.9050   49.5730 C   0  0  0  0  0  0  0  0  0  0  0  0
   60.4780   33.1970   49.5940 C   0  0  0  0  0  0  0  0  0  0  0  0
   61.3310   33.4120   50.6560 C   0  0  0  0  0  0  0  0  0  0  0  0
   62.5770   33.6520   50.0840 C   0  0  0  0  0  0  0  0  0  0  0  0
   62.4970   33.5910   48.7340 N   0  0  0  0  0  0  0  0  0  0  0  0
   63.5950   33.7820   47.7910 C   0  0  0  0  0  0  0  0  0  0  0  0
   61.2120   33.3120   48.4430 C   0  0  0  0  0  0  0  0  0  0  0  0
   60.6310   33.1400   47.1860 C   0  0  0  0  0  0  0  0  0  0  0  0
   59.0910   35.3112   45.8831 H   0  0  0  0  0  0  0  0  0  0  0  0
   59.9394   35.0166   44.3274 H   0  0  0  0  0  0  0  0  0  0  0  0
   58.2453   35.6137   44.3274 H   0  0  0  0  0  0  0  0  0  0  0  0
   57.5294   33.4275   42.8397 H   0  0  0  0  0  0  0  0  0  0  0  0
   55.8434   31.1922   42.9671 H   0  0  0  0  0  0  0  0  0  0  0  0
   57.3769   30.3233   42.5692 H   0  0  0  0  0  0  0  0  0  0  0  0
   56.7050   27.6450   43.6210 H   0  0  0  0  0  0  0  0  0  0  0  0
   57.0146   28.3325   46.4746 H   0  0  0  0  0  0  0  0  0  0  0  0
   56.0554   27.0340   45.7451 H   0  0  0  0  0  0  0  0  0  0  0  0
   58.5798   26.6188   46.7405 H   0  0  0  0  0  0  0  0  0  0  0  0
   57.9759   25.6739   45.3800 H   0  0  0  0  0  0  0  0  0  0  0  0
   60.0734   27.7577   45.4165 H   0  0  0  0  0  0  0  0  0  0  0  0
   59.6670   26.6661   44.0866 H   0  0  0  0  0  0  0  0  0  0  0  0
   58.8100   29.4780   44.5591 H   0  0  0  0  0  0  0  0  0  0  0  0
   58.7250   28.5386   43.0517 H   0  0  0  0  0  0  0  0  0  0  0  0
   57.4288   32.4918   48.2719 H   0  0  0  0  0  0  0  0  0  0  0  0
   58.5427   32.8154   50.5063 H   0  0  0  0  0  0  0  0  0  0  0  0
   61.0802   33.3970   51.7269 H   0  0  0  0  0  0  0  0  0  0  0  0
   63.4971   33.8617   50.6492 H   0  0  0  0  0  0  0  0  0  0  0  0
   64.5307   33.9448   48.3459 H   0  0  0  0  0  0  0  0  0  0  0  0
   63.6947   32.8877   47.1583 H   0  0  0  0  0  0  0  0  0  0  0  0
   63.3869   34.6574   47.1583 H   0  0  0  0  0  0  0  0  0  0  0  0
   61.2323   33.2273   46.2690 H   0  0  0  0  0  0  0  0  0  0  0  0
  1  2  1  0
  2  3  2  0
  3  4  1  0
  4  5  1  0
  5  6  1  0
  6  7  2  0
  6  8  1  0
  8  9  1  0
  9 10  1  0
 10 11  1  0
 11 12  1  0
  4 13  1  0
 13 14  2  0
 13 15  1  0
 15 16  1  0
 16 17  2  0
 17 18  1  0
 18 19  2  0
 19 20  1  0
 20 21  2  0
 21 22  1  0
 22 23  1  0
 22 24  1  0
 24 25  2  0
 15  2  1  0
 25 16  1  0
 12  8  1  0
 24 19  1  0
  1 26  1  0
  1 27  1  0
  1 28  1  0
  3 29  1  0
  5 30  1  0
  5 31  1  0
  8 32  1  0
  9 33  1  0
  9 34  1  0
 10 35  1  0
 10 36  1  0
 11 37  1  0
 11 38  1  0
 12 39  1  0
 12 40  1  0
 17 41  1  0
 18 42  1  0
 20 43  1  0
 21 44  1  0
 23 45  1  0
 23 46  1  0
 23 47  1  0
 25 48  1  0
M  CHG  1   8   1
M  END
>  <UniqueID>  (41) 
38

>  <SMILES>  (41) 
Cc1cn(CC(=O)[NH+]2CCCC2)c(=O)n1-c1ccc2ccn(C)c2c1

>  <Energy>  (41) 
125.85696112656531

>  <Genealogy>  (41) 
Cc1cn(CC(=O)[NH+]2CCCC2)c(=O)n1-c1ccc2ccn(C)c2c1 (protonated)
Cc1cn(CC(=O)[NH+]2CCCC2)c(=O)n1-c1ccc2ccn(C)c2c1 (3D coordinates assigned)
Cc1cn(CC(=O)[NH+]2CCCC2)c(=O)n1-c1ccc2ccn(C)c2c1 (nonaromatic ring conformer: 125.85696112656531 kcal/mol)

>  <smiles>  (41) 
Cc1cn(CC(=O)N2CCCC2)c(=O)n1-c1ccc2ccn(C)c2c1

>  <score_type>  (41) 
oracle

>  <origin>  (41) 
adg

>  <m_score__min__energy>  (41) 
-6.9900000000000002

>  <m_primary>  (41) 
energy

$$$$
41:0
     RDKit          3D

 40 42  0  0  1  0  0  0  0  0999 V2000
   57.0390   34.0400   45.2870 C   0  0  0  0  0  0  0  0  0  0  0  0
   58.4770   34.0030   45.7150 C   0  0  0  0  0  0  0  0  0  0  0  0
   59.2620   34.9340   44.8290 C   0  0  0  0  0  0  0  0  0  0  0  0
   58.5280   34.5930   47.1750 C   0  0  0  0  0  0  0  0  0  0  0  0
   58.9420   33.4550   47.8860 N   0  0  0  0  0  0  0  0  0  0  0  0
   59.6950   32.5390   47.5170 C   0  0  0  0  0  0  0  0  0  0  0  0
   59.1390   31.3840   47.0670 N   0  0  0  0  0  0  0  0  0  0  0  0
   59.8310   30.3270   46.6480 C   0  0  0  0  0  0  0  0  0  0  0  0
   59.3160   29.0810   46.1200 C   0  0  0  0  0  0  0  0  0  0  0  0
   59.9040   27.8870   46.5630 C   0  0  0  0  0  0  0  0  0  0  0  0
   59.5240   26.6470   46.1280 C   0  0  0  0  0  0  0  0  0  0  0  0
   58.5240   26.5150   45.2150 C   0  0  0  0  0  0  0  0  0  0  0  0
   57.9240   27.6620   44.7550 C   0  0  0  0  0  0  0  0  0  0  0  0
   58.3130   28.9360   45.2010 C   0  0  0  0  0  0  0  0  0  0  0  0
   57.3890   30.3870   44.4160 Br  0  0  0  0  0  0  0  0  0  0  0  0
   61.1780   30.4480   46.6910 N   0  0  0  0  0  0  0  0  0  0  0  0
   61.7660   31.5640   47.1270 C   0  0  0  0  0  0  0  0  0  0  0  0
   63.1460   31.5870   47.1280 C   0  0  0  0  0  0  0  0  0  0  0  0
   63.7320   32.7450   47.5790 C   0  0  0  0  0  0  0  0  0  0  0  0
   63.0660   33.8490   48.0130 C   0  0  0  0  0  0  0  0  0  0  0  0
   61.6520   33.8110   48.0050 C   0  0  0  0  0  0  0  0  0  0  0  0
   61.0540   32.6740   47.5640 C   0  0  0  0  0  0  0  0  0  0  0  0
   56.3920   34.0566   46.1765 H   0  0  0  0  0  0  0  0  0  0  0  0
   56.8586   34.9431   44.6854 H   0  0  0  0  0  0  0  0  0  0  0  0
   56.8124   33.1474   44.6854 H   0  0  0  0  0  0  0  0  0  0  0  0
   58.8830   32.9820   45.6616 H   0  0  0  0  0  0  0  0  0  0  0  0
   59.8464   35.6271   45.4519 H   0  0  0  0  0  0  0  0  0  0  0  0
   59.9431   34.3485   44.1940 H   0  0  0  0  0  0  0  0  0  0  0  0
   58.5698   35.5064   44.1940 H   0  0  0  0  0  0  0  0  0  0  0  0
   59.2563   35.4132   47.2582 H   0  0  0  0  0  0  0  0  0  0  0  0
   57.5864   35.0404   47.5261 H   0  0  0  0  0  0  0  0  0  0  0  0
   58.1270   31.3400   47.0740 H   0  0  0  0  0  0  0  0  0  0  0  0
   60.7164   27.9514   47.3018 H   0  0  0  0  0  0  0  0  0  0  0  0
   60.0298   25.7516   46.5185 H   0  0  0  0  0  0  0  0  0  0  0  0
   58.2069   25.5242   44.8576 H   0  0  0  0  0  0  0  0  0  0  0  0
   57.1143   27.5803   44.0149 H   0  0  0  0  0  0  0  0  0  0  0  0
   63.7423   30.7277   46.7873 H   0  0  0  0  0  0  0  0  0  0  0  0
   64.8313   32.7826   47.5901 H   0  0  0  0  0  0  0  0  0  0  0  0
   63.6088   34.7412   48.3585 H   0  0  0  0  0  0  0  0  0  0  0  0
   61.0575   34.6722   48.3441 H   0  0  0  0  0  0  0  0  0  0  0  0
  1  2  1  0
  2  3  1  0
  2  4  1  0
  4  5  1  0
  5  6  2  0
  6  7  1  0
  7  8  1  0
  8  9  1  0
  9 10  2  0
 10 11  1  0
 11 12  2  0
 12 13  1  0
 13 14  2  0
 14 15  1  0
  8 16  2  0
 16 17  1  0
 17 18  2  0
 18 19  1  0
 19 20  2  0
 20 21  1  0
 21 22  2  0
 22  6  1  0
 14  9  1  0
 22 17  1  0
  1 23  1  0
  1 24  1  0
  1 25  1  0
  2 26  1  0
  3 27  1  0
  3 28  1  0
  3 29  1  0
  4 30  1  0
  4 31  1  0
  7 32  1  0
 10 33  1  0
 11 34  1  0
 12 35  1  0
 13 36  1  0
 18 37  1  0
 19 38  1  0
 20 39  1  0
 21 40  1  0
M  END
>  <smiles>  (42) 
CC(C)CN=c1[nH]c(-c2ccccc2Br)nc2ccccc12

>  <score_type>  (42) 
oracle

>  <origin>  (42) 
adg

>  <m_score__min__energy>  (42) 
-8.0099999999999998

>  <m_primary>  (42) 
energy

$$$$
42:0
     RDKit          3D

 42 44  0  0  0  0  0  0  0  0999 V2000
   60.9550   30.5740   50.8590 C   0  0  0  0  0  0  0  0  0  0  0  0
   59.8760   31.3950   50.2150 C   0  0  0  0  0  0  0  0  0  0  0  0
   58.5290   31.4100   50.5340 C   0  0  0  0  0  0  0  0  0  0  0  0
   57.8120   30.5580   51.4960 C   0  0  0  0  0  0  0  0  0  0  0  0
   57.8200   29.3080   51.3320 O   0  0  0  0  0  0  0  0  0  0  0  0
   57.1250   31.1250   52.6230 N   0  0  0  0  0  0  0  0  0  0  0  0
   57.8010   32.1260   53.4540 C   0  0  0  0  0  0  0  0  0  0  0  0
   55.8270   30.5730   53.0160 C   0  0  0  0  0  0  0  0  0  0  0  0
   57.9670   32.4210   49.8460 N   0  0  0  0  0  0  0  0  0  0  0  0
   58.9080   32.9910   49.1090 N   0  0  0  0  0  0  0  0  0  0  0  0
   60.0650   32.3760   49.3040 N   0  0  0  0  0  0  0  0  0  0  0  0
   61.2920   32.7710   48.6730 C   0  0  0  0  0  0  0  0  0  0  0  0
   62.4720   32.7700   49.4310 C   0  0  0  0  0  0  0  0  0  0  0  0
   63.6940   33.1010   48.8400 C   0  0  0  0  0  0  0  0  0  0  0  0
   65.1650   33.0800   49.7960 Cl  0  0  0  0  0  0  0  0  0  0  0  0
   63.7450   33.4420   47.4880 C   0  0  0  0  0  0  0  0  0  0  0  0
   62.5750   33.4690   46.7260 C   0  0  0  0  0  0  0  0  0  0  0  0
   61.3350   33.1480   47.3070 C   0  0  0  0  0  0  0  0  0  0  0  0
   60.1050   33.2560   46.4860 C   0  0  0  0  0  0  0  0  0  0  0  0
   59.6900   34.5000   45.9740 C   0  0  0  0  0  0  0  0  0  0  0  0
   58.5200   34.5980   45.2160 C   0  0  0  0  0  0  0  0  0  0  0  0
   57.7580   33.4560   44.9530 C   0  0  0  0  0  0  0  0  0  0  0  0
   58.1710   32.2140   45.4400 C   0  0  0  0  0  0  0  0  0  0  0  0
   59.3420   32.1100   46.1980 C   0  0  0  0  0  0  0  0  0  0  0  0
   60.8645   30.6429   51.9531 H   0  0  0  0  0  0  0  0  0  0  0  0
   60.8518   29.5240   50.5479 H   0  0  0  0  0  0  0  0  0  0  0  0
   61.9395   30.9535   50.5479 H   0  0  0  0  0  0  0  0  0  0  0  0
   57.6411   31.8892   54.5162 H   0  0  0  0  0  0  0  0  0  0  0  0
   58.8789   32.1173   53.2346 H   0  0  0  0  0  0  0  0  0  0  0  0
   57.3902   33.1226   53.2346 H   0  0  0  0  0  0  0  0  0  0  0  0
   55.7581   30.5437   54.1134 H   0  0  0  0  0  0  0  0  0  0  0  0
   55.0224   31.2068   52.6149 H   0  0  0  0  0  0  0  0  0  0  0  0
   55.7254   29.5538   52.6149 H   0  0  0  0  0  0  0  0  0  0  0  0
   56.9680   32.7230   49.8690 H   0  0  0  0  0  0  0  0  0  0  0  0
   62.4352   32.5067   50.4984 H   0  0  0  0  0  0  0  0  0  0  0  0
   64.7095   33.6903   47.0210 H   0  0  0  0  0  0  0  0  0  0  0  0
   62.6236   33.7438   45.6620 H   0  0  0  0  0  0  0  0  0  0  0  0
   60.2903   35.4003   46.1718 H   0  0  0  0  0  0  0  0  0  0  0  0
   58.1984   35.5749   44.8259 H   0  0  0  0  0  0  0  0  0  0  0  0
   56.8333   33.5356   44.3626 H   0  0  0  0  0  0  0  0  0  0  0  0
   57.5739   31.3151   45.2269 H   0  0  0  0  0  0  0  0  0  0  0  0
   59.6676   31.1276   46.5705 H   0  0  0  0  0  0  0  0  0  0  0  0
  1  2  1  0
  2  3  2  0
  3  4  1  0
  4  5  2  0
  4  6  1  0
  6  7  1  0
  6  8  1  0
  3  9  1  0
  9 10  2  0
 10 11  1  0
 11 12  1  0
 12 13  2  0
 13 14  1  0
 14 15  1  0
 14 16  2  0
 16 17  1  0
 17 18  2  0
 18 19  1  0
 19 20  2  0
 20 21  1  0
 21 22  2  0
 22 23  1  0
 23 24  2  0
 11  2  1  0
 18 12  1  0
 24 19  1  0
  1 25  1  0
  1 26  1  0
  1 27  1  0
  7 28  1  0
  7 29  1  0
  7 30  1  0
  8 31  1  0
  8 32  1  0
  8 33  1  0
  9 34  1  0
 13 35  1  0
 16 36  1  0
 17 37  1  0
 20 38  1  0
 21 39  1  0
 22 40  1  0
 23 41  1  0
 24 42  1  0
M  CHG  1   9   1
M  END
>  <UniqueID>  (43) 
39

>  <SMILES>  (43) 
Cc1c(C(=O)N(C)C)[nH+]nn1-c1cc(Cl)ccc1-c1ccccc1

>  <Energy>  (43) 
92.86799094502094

>  <Genealogy>  (43) 
Cc1c(C(=O)N(C)C)[nH+]nn1-c1cc(Cl)ccc1-c1ccccc1 (protonated)
Cc1c(C(=O)N(C)C)[nH+]nn1-c1cc(Cl)ccc1-c1ccccc1 (3D coordinates assigned)
Cc1c(C(=O)N(C)C)[nH+]nn1-c1cc(Cl)ccc1-c1ccccc1 (optimized conformer: 92.86799094502094 kcal/mol)

>  <smiles>  (43) 
Cc1c(C(=O)N(C)C)nnn1-c1cc(Cl)ccc1-c1ccccc1

>  <score_type>  (43) 
oracle

>  <origin>  (43) 
adg

>  <m_score__min__energy>  (43) 
-6.8399999999999999

>  <m_primary>  (43) 
energy

$$$$
43:0
     RDKit          3D

 51 55  0  0  0  0  0  0  0  0999 V2000
   62.1540   34.2850   46.5690 O   0  0  0  0  0  0  0  0  0  0  0  0
   61.1670   33.7530   47.1470 C   0  0  0  0  0  0  0  0  0  0  0  0
   59.8350   33.7830   46.5260 C   0  0  0  0  0  0  0  0  0  0  0  0
   59.6440   34.2090   45.2020 C   0  0  0  0  0  0  0  0  0  0  0  0
   58.3690   34.1720   44.6330 C   0  0  0  0  0  0  0  0  0  0  0  0
   57.2800   33.7180   45.3800 C   0  0  0  0  0  0  0  0  0  0  0  0
   57.4620   33.3010   46.7010 C   0  0  0  0  0  0  0  0  0  0  0  0
   58.7430   33.3140   47.2800 C   0  0  0  0  0  0  0  0  0  0  0  0
   58.9140   32.9830   48.6770 N   0  0  0  0  0  0  0  0  0  0  0  0
   60.1950   32.2970   48.9540 C   0  0  1  0  0  0  0  0  0  0  0  0
   60.1620   30.8520   48.4680 C   0  0  0  0  0  0  0  0  0  0  0  0
   59.7400   29.8470   49.3540 C   0  0  0  0  0  0  0  0  0  0  0  0
   59.6700   28.5140   48.9410 C   0  0  0  0  0  0  0  0  0  0  0  0
   60.0240   28.1590   47.6290 C   0  0  0  0  0  0  0  0  0  0  0  0
   59.9550   26.8350   47.1740 O   0  0  0  0  0  0  0  0  0  0  0  0
   58.8210   26.2220   46.6230 C   0  0  0  0  0  0  0  0  0  0  0  0
   58.8840   24.9650   45.9930 C   0  0  0  0  0  0  0  0  0  0  0  0
   57.7330   24.3950   45.4410 C   0  0  0  0  0  0  0  0  0  0  0  0
   56.5150   25.0780   45.5010 C   0  0  0  0  0  0  0  0  0  0  0  0
   55.4000   24.5250   44.9630 F   0  0  0  0  0  0  0  0  0  0  0  0
   56.4500   26.3360   46.1070 C   0  0  0  0  0  0  0  0  0  0  0  0
   57.6000   26.9080   46.6600 C   0  0  0  0  0  0  0  0  0  0  0  0
   60.4100   29.1590   46.7330 C   0  0  0  0  0  0  0  0  0  0  0  0
   60.4820   30.4930   47.1430 C   0  0  0  0  0  0  0  0  0  0  0  0
   61.3350   33.0570   48.3980 N   0  0  0  0  0  0  0  0  0  0  0  0
   62.5900   33.1030   49.1080 C   0  0  0  0  0  0  0  0  0  0  0  0
   63.6700   32.3060   48.6910 C   0  0  0  0  0  0  0  0  0  0  0  0
   64.8930   32.3600   49.3680 C   0  0  0  0  0  0  0  0  0  0  0  0
   65.0490   33.2130   50.4630 C   0  0  0  0  0  0  0  0  0  0  0  0
   63.9850   34.0160   50.8800 C   0  0  0  0  0  0  0  0  0  0  0  0
   62.7610   33.9660   50.2050 C   0  0  0  0  0  0  0  0  0  0  0  0
   60.4988   34.5721   44.6125 H   0  0  0  0  0  0  0  0  0  0  0  0
   58.2223   34.5013   43.5938 H   0  0  0  0  0  0  0  0  0  0  0  0
   56.2777   33.6886   44.9278 H   0  0  0  0  0  0  0  0  0  0  0  0
   56.5983   32.9607   47.2912 H   0  0  0  0  0  0  0  0  0  0  0  0
   58.8870   33.8760   49.2220 H   0  0  0  0  0  0  0  0  0  0  0  0
   58.1220   32.3840   49.0120 H   0  0  0  0  0  0  0  0  0  0  0  0
   60.3391   32.2598   50.0439 H   0  0  0  0  0  0  0  0  0  0  0  0
   59.4615   30.1124   50.3845 H   0  0  0  0  0  0  0  0  0  0  0  0
   59.3361   27.7390   49.6467 H   0  0  0  0  0  0  0  0  0  0  0  0
   59.8428   24.4289   45.9347 H   0  0  0  0  0  0  0  0  0  0  0  0
   57.7860   23.4077   44.9588 H   0  0  0  0  0  0  0  0  0  0  0  0
   55.4930   26.8767   46.1489 H   0  0  0  0  0  0  0  0  0  0  0  0
   57.5456   27.9025   47.1269 H   0  0  0  0  0  0  0  0  0  0  0  0
   60.6596   28.8938   45.6950 H   0  0  0  0  0  0  0  0  0  0  0  0
   60.7906   31.2685   46.4265 H   0  0  0  0  0  0  0  0  0  0  0  0
   63.5528   31.6355   47.8268 H   0  0  0  0  0  0  0  0  0  0  0  0
   65.7323   31.7303   49.0378 H   0  0  0  0  0  0  0  0  0  0  0  0
   66.0099   33.2524   50.9970 H   0  0  0  0  0  0  0  0  0  0  0  0
   64.1099   34.6891   51.7410 H   0  0  0  0  0  0  0  0  0  0  0  0
   61.9281   34.6049   50.5339 H   0  0  0  0  0  0  0  0  0  0  0  0
  1  2  2  0
  2  3  1  0
  3  4  2  0
  4  5  1  0
  5  6  2  0
  6  7  1  0
  7  8  2  0
  8  9  1  0
  9 10  1  0
 10 11  1  0
 11 12  2  0
 12 13  1  0
 13 14  2  0
 14 15  1  0
 15 16  1  0
 16 17  2  0
 17 18  1  0
 18 19  2  0
 19 20  1  0
 19 21  1  0
 21 22  2  0
 14 23  1  0
 23 24  2  0
 10 25  1  0
 25 26  1  0
 26 27  2  0
 27 28  1  0
 28 29  2  0
 29 30  1  0
 30 31  2  0
 25  2  1  0
 31 26  1  0
  8  3  1  0
 24 11  1  0
 22 16  1  0
  4 32  1  0
  5 33  1  0
  6 34  1  0
  7 35  1  0
  9 36  1  0
  9 37  1  0
 10 38  1  1
 12 39  1  0
 13 40  1  0
 17 41  1  0
 18 42  1  0
 21 43  1  0
 22 44  1  0
 23 45  1  0
 24 46  1  0
 27 47  1  0
 28 48  1  0
 29 49  1  0
 30 50  1  0
 31 51  1  0
M  CHG  1   9   1
M  END
>  <UniqueID>  (44) 
40

>  <SMILES>  (44) 
O=C1c2ccccc2[NH2+][C@@H](c2ccc(Oc3ccc(F)cc3)cc2)N1c1ccccc1

>  <Energy>  (44) 
76.54755817989944

>  <Genealogy>  (44) 
O=C1c2ccccc2[NH2+]C(c2ccc(Oc3ccc(F)cc3)cc2)N1c1ccccc1 (protonated)
O=C1c2ccccc2[NH2+][C@@H](c2ccc(Oc3ccc(F)cc3)cc2)N1c1ccccc1 (chirality)
O=C1c2ccccc2[NH2+][C@@H](c2ccc(Oc3ccc(F)cc3)cc2)N1c1ccccc1 (3D coordinates assigned)
O=C1c2ccccc2[NH2+][C@@H](c2ccc(Oc3ccc(F)cc3)cc2)N1c1ccccc1 (nonaromatic ring conformer: 76.54755817989944 kcal/mol)

>  <smiles>  (44) 
O=C1c2ccccc2NC(c2ccc(Oc3ccc(F)cc3)cc2)N1c1ccccc1

>  <score_type>  (44) 
oracle

>  <origin>  (44) 
adg

>  <m_score__min__energy>  (44) 
-6.7999999999999998

>  <m_primary>  (44) 
energy

$$$$
44:0
     RDKit          3D

 35 37  0  0  0  0  0  0  0  0999 V2000
   55.3828   28.8282   44.9692 H   0  0  0  0  0  0  0  0  0  0  0  0
   55.9790   29.6010   44.4620 C   0  0  0  0  0  0  0  0  0  0  0  0
   56.7290   30.5080   45.1430 N   0  0  0  0  0  0  0  0  0  0  0  0
   57.3670   31.3520   44.3020 C   0  0  0  0  0  0  0  0  0  0  0  0
   58.1480   32.3190   44.6830 N   0  0  0  0  0  0  0  0  0  0  0  0
   58.3720   32.7450   46.0370 C   0  0  0  0  0  0  0  0  0  0  0  0
   57.4150   33.1640   46.7440 O   0  0  0  0  0  0  0  0  0  0  0  0
   59.7370   32.6550   46.6150 C   0  0  0  0  0  0  0  0  0  0  0  0
   60.3890   33.8470   46.9850 C   0  0  0  0  0  0  0  0  0  0  0  0
   59.8591   34.8068   46.8953 H   0  0  0  0  0  0  0  0  0  0  0  0
   61.6990   33.8250   47.4640 C   0  0  0  0  0  0  0  0  0  0  0  0
   62.1946   34.7645   47.7500 H   0  0  0  0  0  0  0  0  0  0  0  0
   62.3810   32.6160   47.5810 C   0  0  0  0  0  0  0  0  0  0  0  0
   63.4185   32.6033   47.9464 H   0  0  0  0  0  0  0  0  0  0  0  0
   61.7490   31.4210   47.2350 C   0  0  0  0  0  0  0  0  0  0  0  0
   62.2927   30.4697   47.3327 H   0  0  0  0  0  0  0  0  0  0  0  0
   60.4250   31.4200   46.7630 C   0  0  0  0  0  0  0  0  0  0  0  0
   59.7780   30.1140   46.4990 C   0  0  0  0  0  0  0  0  0  0  0  0
   58.9840   29.5010   47.4820 C   0  0  0  0  0  0  0  0  0  0  0  0
   58.8310   29.9996   48.4505 H   0  0  0  0  0  0  0  0  0  0  0  0
   58.3870   28.2610   47.2370 C   0  0  0  0  0  0  0  0  0  0  0  0
   57.7610   27.7923   48.0106 H   0  0  0  0  0  0  0  0  0  0  0  0
   58.5830   27.6100   46.0060 C   0  0  0  0  0  0  0  0  0  0  0  0
   58.0040   26.3660   45.7100 O   0  0  0  0  0  0  0  0  0  0  0  0
   57.7780   25.8790   44.3920 C   0  0  0  0  0  0  0  0  0  0  0  0
   57.3155   24.8823   44.4437 H   0  0  0  0  0  0  0  0  0  0  0  0
   57.1072   26.5672   43.8568 H   0  0  0  0  0  0  0  0  0  0  0  0
   58.7366   25.8111   43.8568 H   0  0  0  0  0  0  0  0  0  0  0  0
   59.3870   28.2170   45.0320 C   0  0  0  0  0  0  0  0  0  0  0  0
   59.5493   27.7141   44.0672 H   0  0  0  0  0  0  0  0  0  0  0  0
   59.9840   29.4560   45.2770 C   0  0  0  0  0  0  0  0  0  0  0  0
   60.6194   29.9185   44.5073 H   0  0  0  0  0  0  0  0  0  0  0  0
   57.0320   31.0120   42.6940 S   0  0  0  0  0  0  0  0  0  0  0  0
   56.0210   29.7220   43.0770 C   0  0  0  0  0  0  0  0  0  0  0  0
   55.4863   29.0851   42.3569 H   0  0  0  0  0  0  0  0  0  0  0  0
  1  2  1  0
  2  3  1  0
  3  4  1  0
  4  5  2  0
  5  6  1  0
  6  7  2  0
  6  8  1  0
  8  9  2  0
  9 10  1  0
  9 11  1  0
 11 12  1  0
 11 13  2  0
 13 14  1  0
 13 15  1  0
 15 16  1  0
 15 17  2  0
 17 18  1  0
 18 19  2  0
 19 20  1  0
 19 21  1  0
 21 22  1  0
 21 23  2  0
 23 24  1  0
 24 25  1  0
 25 26  1  0
 25 27  1  0
 25 28  1  0
 23 29  1  0
 29 30  1  0
 29 31  2  0
 31 32  1  0
  4 33  1  0
 33 34  1  0
 34 35  1  0
 34  2  2  0
 17  8  1  0
 31 18  1  0
M  CHG  1   3  -1
M  END
>  <UniqueID>  (45) 
41

>  <SMILES>  (45) 
COc1ccc(-c2ccccc2C(=O)/N=c2\[n-]ccs2)cc1

>  <Energy>  (45) 
79.89879154339968

>  <Genealogy>  (45) 
COc1ccc(-c2ccccc2C(=O)N=c2[n-]ccs2)cc1 (protonated)
COc1ccc(-c2ccccc2C(=O)/N=c2\[n-]ccs2)cc1 (cis-trans isomerization)
COc1ccc(-c2ccccc2C(=O)/N=c2\[n-]ccs2)cc1 (3D coordinates assigned)
COc1ccc(-c2ccccc2C(=O)/N=c2\[n-]ccs2)cc1 (optimized conformer: 79.89879154339968 kcal/mol)

>  <smiles>  (45) 
COc1ccc(-c2ccccc2C(=O)N=c2[nH]ccs2)cc1

>  <score_type>  (45) 
oracle

>  <origin>  (45) 
adg

>  <m_score__min__energy>  (45) 
-9.1099999999999994

>  <m_primary>  (45) 
energy

$$$$
45:0
     RDKit          3D

 39 42  0  0  0  0  0  0  0  0999 V2000
   59.4614   35.3480   48.9039 H   0  0  0  0  0  0  0  0  0  0  0  0
   59.8220   34.4830   48.3280 C   0  0  0  0  0  0  0  0  0  0  0  0
   60.8420   33.7680   48.8570 C   0  0  0  0  0  0  0  0  0  0  0  0
   62.0470   34.4400   49.5080 C   0  0  0  0  0  0  0  0  0  0  0  0
   61.9403   35.5273   49.3798 H   0  0  0  0  0  0  0  0  0  0  0  0
   62.0436   34.1182   50.5599 H   0  0  0  0  0  0  0  0  0  0  0  0
   63.3640   34.0420   48.9620 N   0  0  0  0  0  0  0  0  0  0  0  0
   63.3930   33.8390   47.5010 C   0  0  0  0  0  0  0  0  0  0  0  0
   62.4274   34.0366   47.0125 H   0  0  0  0  0  0  0  0  0  0  0  0
   64.0551   34.4707   46.8906 H   0  0  0  0  0  0  0  0  0  0  0  0
   63.7130   32.3490   47.6360 C   0  0  2  0  0  0  0  0  0  0  0  0
   64.5363   31.8664   47.0890 H   0  0  0  0  0  0  0  0  0  0  0  0
   62.6470   31.3490   47.1510 C   0  0  0  0  0  0  0  0  0  0  0  0
   62.8111   31.1873   46.0754 H   0  0  0  0  0  0  0  0  0  0  0  0
   62.7849   30.4607   47.7849 H   0  0  0  0  0  0  0  0  0  0  0  0
   61.1710   31.7420   47.3390 C   0  0  0  0  0  0  0  0  0  0  0  0
   60.9405   32.5367   46.6142 H   0  0  0  0  0  0  0  0  0  0  0  0
   60.5986   30.8143   47.1916 H   0  0  0  0  0  0  0  0  0  0  0  0
   60.7740   32.2540   48.7420 C   0  0  1  0  0  0  0  0  0  0  0  0
   59.7100   31.9981   48.8536 H   0  0  0  0  0  0  0  0  0  0  0  0
   61.4520   31.5070   49.9010 C   0  0  0  0  0  0  0  0  0  0  0  0
   60.9347   31.7984   50.8270 H   0  0  0  0  0  0  0  0  0  0  0  0
   61.3742   30.4438   49.6299 H   0  0  0  0  0  0  0  0  0  0  0  0
   62.9620   31.7440   50.1220 C   0  0  0  0  0  0  0  0  0  0  0  0
   63.0697   32.1998   51.1173 H   0  0  0  0  0  0  0  0  0  0  0  0
   63.3993   30.7456   49.9735 H   0  0  0  0  0  0  0  0  0  0  0  0
   63.7590   32.6330   49.1340 C   0  0  2  0  0  0  0  0  0  0  0  0
   64.6951   32.4066   49.6654 H   0  0  0  0  0  0  0  0  0  0  0  0
   59.1530   34.2000   47.0440 C   0  0  0  0  0  0  0  0  0  0  0  0
   57.8510   33.6800   47.0450 C   0  0  0  0  0  0  0  0  0  0  0  0
   57.3529   33.4528   47.9991 H   0  0  0  0  0  0  0  0  0  0  0  0
   57.1830   33.4490   45.8390 C   0  0  0  0  0  0  0  0  0  0  0  0
   56.1672   33.0269   45.8454 H   0  0  0  0  0  0  0  0  0  0  0  0
   57.8050   33.7540   44.6250 C   0  0  0  0  0  0  0  0  0  0  0  0
   57.2814   33.5650   43.6763 H   0  0  0  0  0  0  0  0  0  0  0  0
   59.0920   34.2990   44.6160 C   0  0  0  0  0  0  0  0  0  0  0  0
   59.5780   34.5455   43.6605 H   0  0  0  0  0  0  0  0  0  0  0  0
   59.7620   34.5310   45.8210 C   0  0  0  0  0  0  0  0  0  0  0  0
   60.7688   34.9739   45.8120 H   0  0  0  0  0  0  0  0  0  0  0  0
  1  2  1  0
  2  3  2  0
  3  4  1  0
  4  5  1  0
  4  6  1  0
  4  7  1  0
  7  8  1  0
  8  9  1  0
  8 10  1  0
  8 11  1  0
 11 12  1  6
 11 13  1  0
 13 14  1  0
 13 15  1  0
 13 16  1  0
 16 17  1  0
 16 18  1  0
 16 19  1  0
 19 20  1  1
 19 21  1  0
 21 22  1  0
 21 23  1  0
 21 24  1  0
 24 25  1  0
 24 26  1  0
 24 27  1  0
 27 28  1  1
  2 29  1  0
 29 30  2  0
 30 31  1  0
 30 32  1  0
 32 33  1  0
 32 34  2  0
 34 35  1  0
 34 36  1  0
 36 37  1  0
 36 38  2  0
 38 39  1  0
 19  3  1  0
 38 29  1  0
 27  7  1  0
 27 11  1  0
M  END
>  <UniqueID>  (46) 
42

>  <SMILES>  (46) 
C(=C1\CN2C[C@H]3CC[C@H]1CCC32)\c1ccccc1

>  <Energy>  (46) 
149.5707921547745

>  <Genealogy>  (46) 
C(=C1CN2C[C@H]3CC[C@H]1CCC32)c1ccccc1 (chirality)
C(=C1\CN2C[C@H]3CC[C@H]1CCC32)\c1ccccc1 (cis-trans isomerization)
C(=C1\CN2C[C@H]3CC[C@H]1CCC32)\c1ccccc1 (3D coordinates assigned)
C(=C1\CN2C[C@H]3CC[C@H]1CCC32)\c1ccccc1 (nonaromatic ring conformer: 149.5707921547745 kcal/mol)

>  <smiles>  (46) 
C(=C1CN2CC3CCC1CCC32)c1ccccc1

>  <score_type>  (46) 
oracle

>  <origin>  (46) 
adg

>  <m_score__min__energy>  (46) 
-4.6900000000000004

>  <m_primary>  (46) 
energy

$$$$
46:0
     RDKit          3D

 51 52  0  0  0  0  0  0  0  0999 V2000
   58.6330   31.1910   50.4490 C   0  0  0  0  0  0  0  0  0  0  0  0
   58.1810   32.3290   49.5410 C   0  0  0  0  0  0  0  0  0  0  0  0
   59.3330   32.9190   48.8450 N   0  0  0  0  0  0  0  0  0  0  0  0
   60.5850   33.1540   49.5720 C   0  0  0  0  0  0  0  0  0  0  0  0
   61.7450   33.0960   48.6300 C   0  0  0  0  0  0  0  0  0  0  0  0
   62.2480   34.1780   47.9960 N   0  0  0  0  0  0  0  0  0  0  0  0
   63.2800   33.8470   47.1760 C   0  0  0  0  0  0  0  0  0  0  0  0
   63.6020   32.4950   47.1460 C   0  0  0  0  0  0  0  0  0  0  0  0
   62.5530   31.6910   48.1860 S   0  0  0  0  0  0  0  0  0  0  0  0
   59.2150   33.3520   47.4790 C   0  0  0  0  0  0  0  0  0  0  0  0
   58.5310   32.5650   46.5410 C   0  0  0  0  0  0  0  0  0  0  0  0
   58.3820   33.0230   45.2250 C   0  0  0  0  0  0  0  0  0  0  0  0
   57.6210   32.2130   44.2110 C   0  0  0  0  0  0  0  0  0  0  0  0
   56.6120   31.3660   44.8700 N   0  0  0  0  0  0  0  0  0  0  0  0
   56.5930   29.9840   44.3600 C   0  0  0  0  0  0  0  0  0  0  0  0
   58.0030   29.3800   44.2720 C   0  0  0  0  0  0  0  0  0  0  0  0
   58.3750   28.5790   45.5280 C   0  0  0  0  0  0  0  0  0  0  0  0
   59.0560   29.4520   46.5080 N   0  0  0  0  0  0  0  0  0  0  0  0
   59.0670   28.8350   47.8460 C   0  0  0  0  0  0  0  0  0  0  0  0
   60.4390   29.7240   46.0850 C   0  0  0  0  0  0  0  0  0  0  0  0
   58.9510   34.2500   44.8620 C   0  0  0  0  0  0  0  0  0  0  0  0
   59.6300   35.0050   45.8190 C   0  0  0  0  0  0  0  0  0  0  0  0
   59.7440   34.5500   47.0960 N   0  0  0  0  0  0  0  0  0  0  0  0
   58.5137   31.4914   51.5004 H   0  0  0  0  0  0  0  0  0  0  0  0
   58.0210   30.2987   50.2509 H   0  0  0  0  0  0  0  0  0  0  0  0
   59.6904   30.9618   50.2509 H   0  0  0  0  0  0  0  0  0  0  0  0
   57.4698   31.9389   48.7980 H   0  0  0  0  0  0  0  0  0  0  0  0
   57.6999   33.1048   50.1547 H   0  0  0  0  0  0  0  0  0  0  0  0
   60.5500   34.1463   50.0454 H   0  0  0  0  0  0  0  0  0  0  0  0
   60.7063   32.3766   50.3407 H   0  0  0  0  0  0  0  0  0  0  0  0
   63.8217   34.5953   46.5788 H   0  0  0  0  0  0  0  0  0  0  0  0
   64.4013   32.0329   46.5480 H   0  0  0  0  0  0  0  0  0  0  0  0
   58.1129   31.5916   46.8373 H   0  0  0  0  0  0  0  0  0  0  0  0
   57.1175   32.8943   43.5093 H   0  0  0  0  0  0  0  0  0  0  0  0
   58.3290   31.5651   43.6735 H   0  0  0  0  0  0  0  0  0  0  0  0
   55.6740   31.7830   44.6640 H   0  0  0  0  0  0  0  0  0  0  0  0
   55.9838   29.3653   45.0353 H   0  0  0  0  0  0  0  0  0  0  0  0
   56.1694   30.0037   43.3450 H   0  0  0  0  0  0  0  0  0  0  0  0
   58.0470   28.7108   43.4001 H   0  0  0  0  0  0  0  0  0  0  0  0
   58.7187   30.2101   44.1789 H   0  0  0  0  0  0  0  0  0  0  0  0
   57.4606   28.1685   45.9811 H   0  0  0  0  0  0  0  0  0  0  0  0
   59.0535   27.7611   45.2439 H   0  0  0  0  0  0  0  0  0  0  0  0
   59.0529   29.6231   48.6133 H   0  0  0  0  0  0  0  0  0  0  0  0
   58.1801   28.1946   47.9618 H   0  0  0  0  0  0  0  0  0  0  0  0
   59.9761   28.2267   47.9618 H   0  0  0  0  0  0  0  0  0  0  0  0
   61.0761   29.8493   46.9729 H   0  0  0  0  0  0  0  0  0  0  0  0
   60.8107   28.8817   45.4829 H   0  0  0  0  0  0  0  0  0  0  0  0
   60.4640   30.6443   45.4829 H   0  0  0  0  0  0  0  0  0  0  0  0
   58.8632   34.6164   43.8286 H   0  0  0  0  0  0  0  0  0  0  0  0
   60.0747   35.9716   45.5399 H   0  0  0  0  0  0  0  0  0  0  0  0
   60.2590   35.1340   47.7920 H   0  0  0  0  0  0  0  0  0  0  0  0
  1  2  1  0
  2  3  1  0
  3  4  1  0
  4  5  1  0
  5  6  2  0
  6  7  1  0
  7  8  2  0
  8  9  1  0
  3 10  1  0
 10 11  2  0
 11 12  1  0
 12 13  1  0
 13 14  1  0
 14 15  1  0
 15 16  1  0
 16 17  1  0
 17 18  1  0
 18 19  1  0
 18 20  1  0
 12 21  2  0
 21 22  1  0
 22 23  2  0
  9  5  1  0
 23 10  1  0
  1 24  1  0
  1 25  1  0
  1 26  1  0
  2 27  1  0
  2 28  1  0
  4 29  1  0
  4 30  1  0
  7 31  1  0
  8 32  1  0
 11 33  1  0
 13 34  1  0
 13 35  1  0
 14 36  1  0
 15 37  1  0
 15 38  1  0
 16 39  1  0
 16 40  1  0
 17 41  1  0
 17 42  1  0
 19 43  1  0
 19 44  1  0
 19 45  1  0
 20 46  1  0
 20 47  1  0
 20 48  1  0
 21 49  1  0
 22 50  1  0
 23 51  1  0
M  CHG  1  23   1
M  END
>  <UniqueID>  (47) 
43

>  <SMILES>  (47) 
CCN(Cc1nccs1)c1cc(CNCCCN(C)C)cc[nH+]1

>  <Energy>  (47) 
71.51186255759305

>  <Genealogy>  (47) 
CCN(Cc1nccs1)c1cc(CNCCCN(C)C)cc[nH+]1 (protonated)
CCN(Cc1nccs1)c1cc(CNCCCN(C)C)cc[nH+]1 (3D coordinates assigned)
CCN(Cc1nccs1)c1cc(CNCCCN(C)C)cc[nH+]1 (optimized conformer: 71.51186255759305 kcal/mol)

>  <smiles>  (47) 
CCN(Cc1nccs1)c1cc(CNCCCN(C)C)ccn1

>  <score_type>  (47) 
oracle

>  <origin>  (47) 
adg

>  <m_score__min__energy>  (47) 
-4.71

>  <m_primary>  (47) 
energy

$$$$
47:0
     RDKit          3D

 63 66  0  0  0  0  0  0  0  0999 V2000
   57.9284   32.5251   42.8339 H   0  0  0  0  0  0  0  0  0  0  0  0
   57.6860   32.2540   43.8720 C   0  0  0  0  0  0  0  0  0  0  0  0
   56.9500   31.1520   44.0720 C   0  0  0  0  0  0  0  0  0  0  0  0
   56.2107   31.1744   44.8862 H   0  0  0  0  0  0  0  0  0  0  0  0
   57.0600   29.8840   43.2640 C   0  0  0  0  0  0  0  0  0  0  0  0
   57.7242   30.0574   42.4045 H   0  0  0  0  0  0  0  0  0  0  0  0
   56.0587   29.5944   42.9126 H   0  0  0  0  0  0  0  0  0  0  0  0
   57.6120   28.7960   44.0950 N   0  0  0  0  0  0  0  0  0  0  0  0
   57.7990   27.5580   43.3030 C   0  0  0  0  0  0  0  0  0  0  0  0
   58.6913   27.6740   42.6702 H   0  0  0  0  0  0  0  0  0  0  0  0
   56.8941   27.4060   42.6963 H   0  0  0  0  0  0  0  0  0  0  0  0
   57.9830   26.3140   44.1980 C   0  0  0  0  0  0  0  0  0  0  0  0
   58.7401   25.6598   43.7410 H   0  0  0  0  0  0  0  0  0  0  0  0
   57.0075   25.8117   44.2760 H   0  0  0  0  0  0  0  0  0  0  0  0
   58.4200   26.6600   45.5670 N   0  0  0  0  0  0  0  0  0  0  0  0
   59.8050   27.1810   45.6220 C   0  0  0  0  0  0  0  0  0  0  0  0
   60.0095   27.7575   44.7077 H   0  0  0  0  0  0  0  0  0  0  0  0
   60.4976   26.3303   45.7027 H   0  0  0  0  0  0  0  0  0  0  0  0
   59.9960   28.0710   46.8180 C   0  0  0  0  0  0  0  0  0  0  0  0
   60.1390   27.6360   48.1210 C   0  0  0  0  0  0  0  0  0  0  0  0
   60.1974   26.5933   48.4664 H   0  0  0  0  0  0  0  0  0  0  0  0
   60.1940   28.7740   48.9040 C   0  0  0  0  0  0  0  0  0  0  0  0
   60.3830   28.7730   50.3890 C   0  0  0  0  0  0  0  0  0  0  0  0
   59.4005   28.7782   50.8837 H   0  0  0  0  0  0  0  0  0  0  0  0
   60.9389   27.8719   50.6873 H   0  0  0  0  0  0  0  0  0  0  0  0
   60.9484   29.6682   50.6873 H   0  0  0  0  0  0  0  0  0  0  0  0
   60.1010   29.8830   48.1320 N   0  0  0  0  0  0  0  0  0  0  0  0
   60.1180   31.2740   48.6040 C   0  0  0  0  0  0  0  0  0  0  0  0
   59.2741   31.8179   48.1546 H   0  0  0  0  0  0  0  0  0  0  0  0
   60.0334   31.2759   49.7007 H   0  0  0  0  0  0  0  0  0  0  0  0
   61.4060   31.9530   48.2170 C   0  0  0  0  0  0  0  0  0  0  0  0
   62.5780   31.7220   48.9540 C   0  0  0  0  0  0  0  0  0  0  0  0
   62.5548   31.0451   49.8208 H   0  0  0  0  0  0  0  0  0  0  0  0
   63.7750   32.3480   48.5920 C   0  0  0  0  0  0  0  0  0  0  0  0
   64.6884   32.1663   49.1774 H   0  0  0  0  0  0  0  0  0  0  0  0
   63.8130   33.2040   47.4880 C   0  0  0  0  0  0  0  0  0  0  0  0
   64.7554   33.6950   47.2037 H   0  0  0  0  0  0  0  0  0  0  0  0
   62.6520   33.4350   46.7460 C   0  0  0  0  0  0  0  0  0  0  0  0
   62.6817   34.1079   45.8763 H   0  0  0  0  0  0  0  0  0  0  0  0
   61.4520   32.8130   47.1060 C   0  0  0  0  0  0  0  0  0  0  0  0
   60.5411   32.9975   46.5176 H   0  0  0  0  0  0  0  0  0  0  0  0
   59.9780   29.4580   46.8520 C   0  0  0  0  0  0  0  0  0  0  0  0
   59.7890   30.3610   45.6670 C   0  0  0  0  0  0  0  0  0  0  0  0
   59.5752   31.3824   46.0148 H   0  0  0  0  0  0  0  0  0  0  0  0
   60.7058   30.3650   45.0591 H   0  0  0  0  0  0  0  0  0  0  0  0
   58.9476   29.9970   45.0591 H   0  0  0  0  0  0  0  0  0  0  0  0
   57.4480   27.5630   46.2330 C   0  0  0  0  0  0  0  0  0  0  0  0
   57.9833   28.1532   46.9914 H   0  0  0  0  0  0  0  0  0  0  0  0
   56.6659   26.9288   46.6759 H   0  0  0  0  0  0  0  0  0  0  0  0
   56.7490   28.5360   45.2590 C   0  0  0  0  0  0  0  0  0  0  0  0
   56.5428   29.4839   45.7776 H   0  0  0  0  0  0  0  0  0  0  0  0
   55.8071   28.0845   44.9143 H   0  0  0  0  0  0  0  0  0  0  0  0
   58.1940   33.1290   44.9450 C   0  0  0  0  0  0  0  0  0  0  0  0
   57.7630   32.9680   46.2730 C   0  0  0  0  0  0  0  0  0  0  0  0
   57.0651   32.1569   46.5281 H   0  0  0  0  0  0  0  0  0  0  0  0
   58.2180   33.8350   47.2710 C   0  0  0  0  0  0  0  0  0  0  0  0
   57.8897   33.6964   48.3117 H   0  0  0  0  0  0  0  0  0  0  0  0
   59.0910   34.8790   46.9460 C   0  0  0  0  0  0  0  0  0  0  0  0
   59.4512   35.5595   47.7316 H   0  0  0  0  0  0  0  0  0  0  0  0
   59.5050   35.0570   45.6240 C   0  0  0  0  0  0  0  0  0  0  0  0
   60.1915   35.8779   45.3694 H   0  0  0  0  0  0  0  0  0  0  0  0
   59.0480   34.1930   44.6230 C   0  0  0  0  0  0  0  0  0  0  0  0
   59.3599   34.3491   43.5798 H   0  0  0  0  0  0  0  0  0  0  0  0
  1  2  1  0
  2  3  2  0
  3  4  1  0
  3  5  1  0
  5  6  1  0
  5  7  1  0
  5  8  1  0
  8  9  1  0
  9 10  1  0
  9 11  1  0
  9 12  1  0
 12 13  1  0
 12 14  1  0
 12 15  1  0
 15 16  1  0
 16 17  1  0
 16 18  1  0
 16 19  1  0
 19 20  1  0
 20 21  1  0
 20 22  2  0
 22 23  1  0
 23 24  1  0
 23 25  1  0
 23 26  1  0
 22 27  1  0
 27 28  1  0
 28 29  1  0
 28 30  1  0
 28 31  1  0
 31 32  2  0
 32 33  1  0
 32 34  1  0
 34 35  1  0
 34 36  2  0
 36 37  1  0
 36 38  1  0
 38 39  1  0
 38 40  2  0
 40 41  1  0
 27 42  1  0
 42 43  1  0
 43 44  1  0
 43 45  1  0
 43 46  1  0
 15 47  1  0
 47 48  1  0
 47 49  1  0
 47 50  1  0
 50 51  1  0
 50 52  1  0
  2 53  1  0
 53 54  2  0
 54 55  1  0
 54 56  1  0
 56 57  1  0
 56 58  2  0
 58 59  1  0
 58 60  1  0
 60 61  1  0
 60 62  2  0
 62 63  1  0
 50  8  1  0
 62 53  1  0
 42 19  2  0
 40 31  1  0
M  END
>  <UniqueID>  (48) 
44

>  <SMILES>  (48) 
Cc1cc(CN2CCN(C/C=C\c3ccccc3)CC2)c(C)n1Cc1ccccc1

>  <Energy>  (48) 
106.95366161755727

>  <Genealogy>  (48) 
Cc1cc(CN2CCN(C/C=C\c3ccccc3)CC2)c(C)n1Cc1ccccc1 (cis-trans isomerization)
Cc1cc(CN2CCN(C/C=C\c3ccccc3)CC2)c(C)n1Cc1ccccc1 (3D coordinates assigned)
Cc1cc(CN2CCN(C/C=C\c3ccccc3)CC2)c(C)n1Cc1ccccc1 (nonaromatic ring conformer: 106.95366161755727 kcal/mol)

>  <smiles>  (48) 
Cc1cc(CN2CCN(CC=Cc3ccccc3)CC2)c(C)n1Cc1ccccc1

>  <score_type>  (48) 
oracle

>  <origin>  (48) 
adg

>  <m_score__min__energy>  (48) 
-9.0500000000000007

>  <m_primary>  (48) 
energy

$$$$
