0:0
     RDKit          3D

 58 60  0  0  0  0  0  0  0  0999 V2000
   59.5980   33.9900   48.7870 C   0  0  0  0  0  0  0  0  0  0  0  0
   59.5800   34.7120   47.4380 C   0  0  0  0  0  0  0  0  0  0  0  0
   59.0820   33.8230   46.3650 N   0  0  0  0  0  0  0  0  0  0  0  0
   59.1570   34.4920   45.0500 C   0  0  0  0  0  0  0  0  0  0  0  0
   57.7010   33.3670   46.6360 C   0  0  0  0  0  0  0  0  0  0  0  0
   57.0100   32.9230   45.3360 C   0  0  0  0  0  0  0  0  0  0  0  0
   57.5440   31.5810   44.7760 C   0  0  0  0  0  0  0  0  0  0  0  0
   57.5960   30.5040   45.7850 N   0  0  0  0  0  0  0  0  0  0  0  0
   58.6020   29.4670   45.4790 C   0  0  0  0  0  0  0  0  0  0  0  0
   59.9710   29.7690   46.1230 C   0  0  0  0  0  0  0  0  0  0  0  0
   59.8560   30.8810   47.0820 N   0  0  0  0  0  0  0  0  0  0  0  0
   60.9750   30.9100   48.0150 C   0  0  0  0  0  0  0  0  0  0  0  0
   61.9810   31.9050   47.9210 C   0  0  0  0  0  0  0  0  0  0  0  0
   62.0920   32.7470   46.7870 C   0  0  0  0  0  0  0  0  0  0  0  0
   63.1010   33.7050   46.6960 C   0  0  0  0  0  0  0  0  0  0  0  0
   64.0230   33.8400   47.7200 C   0  0  0  0  0  0  0  0  0  0  0  0
   63.9390   33.0290   48.8520 C   0  0  0  0  0  0  0  0  0  0  0  0
   62.9130   32.0590   48.9870 C   0  0  0  0  0  0  0  0  0  0  0  0
   62.8120   31.2690   50.1150 N   0  0  0  0  0  0  0  0  0  0  0  0
   63.5470   31.6420   51.3450 C   0  0  0  0  0  0  0  0  0  0  0  0
   62.0160   30.1390   50.0970 C   0  0  0  0  0  0  0  0  0  0  0  0
   62.1200   29.1440   51.1030 C   0  0  0  0  0  0  0  0  0  0  0  0
   61.2950   28.0190   51.0980 C   0  0  0  0  0  0  0  0  0  0  0  0
   60.3580   27.8470   50.0890 C   0  0  0  0  0  0  0  0  0  0  0  0
   60.2460   28.7930   49.0730 C   0  0  0  0  0  0  0  0  0  0  0  0
   61.0700   29.9470   49.0520 C   0  0  0  0  0  0  0  0  0  0  0  0
   59.5795   34.7310   49.5997 H   0  0  0  0  0  0  0  0  0  0  0  0
   58.7158   33.3376   48.8655 H   0  0  0  0  0  0  0  0  0  0  0  0
   60.5116   33.3824   48.8655 H   0  0  0  0  0  0  0  0  0  0  0  0
   58.9231   35.5914   47.5098 H   0  0  0  0  0  0  0  0  0  0  0  0
   60.6077   35.0165   47.1908 H   0  0  0  0  0  0  0  0  0  0  0  0
   59.2785   35.5755   45.1962 H   0  0  0  0  0  0  0  0  0  0  0  0
   60.0167   34.0993   44.4873 H   0  0  0  0  0  0  0  0  0  0  0  0
   58.2316   34.2994   44.4873 H   0  0  0  0  0  0  0  0  0  0  0  0
   57.7316   32.5193   47.3363 H   0  0  0  0  0  0  0  0  0  0  0  0
   57.1321   34.2017   47.0715 H   0  0  0  0  0  0  0  0  0  0  0  0
   55.9336   32.8131   45.5345 H   0  0  0  0  0  0  0  0  0  0  0  0
   57.2199   33.6940   44.5800 H   0  0  0  0  0  0  0  0  0  0  0  0
   56.8858   31.2588   43.9557 H   0  0  0  0  0  0  0  0  0  0  0  0
   58.5752   31.7580   44.4364 H   0  0  0  0  0  0  0  0  0  0  0  0
   56.6430   30.1020   45.9590 H   0  0  0  0  0  0  0  0  0  0  0  0
   58.2391   28.4999   45.8573 H   0  0  0  0  0  0  0  0  0  0  0  0
   58.7414   29.4458   44.3881 H   0  0  0  0  0  0  0  0  0  0  0  0
   60.3289   28.8722   46.6499 H   0  0  0  0  0  0  0  0  0  0  0  0
   60.6811   30.0531   45.3324 H   0  0  0  0  0  0  0  0  0  0  0  0
   58.9550   30.8290   47.6080 H   0  0  0  0  0  0  0  0  0  0  0  0
   59.7870   31.7860   46.5600 H   0  0  0  0  0  0  0  0  0  0  0  0
   61.3696   32.6432   45.9640 H   0  0  0  0  0  0  0  0  0  0  0  0
   63.1645   34.3539   45.8101 H   0  0  0  0  0  0  0  0  0  0  0  0
   64.8245   34.5892   47.6407 H   0  0  0  0  0  0  0  0  0  0  0  0
   64.6822   33.1439   49.6548 H   0  0  0  0  0  0  0  0  0  0  0  0
   62.9607   31.3445   52.2269 H   0  0  0  0  0  0  0  0  0  0  0  0
   64.5196   31.1284   51.3609 H   0  0  0  0  0  0  0  0  0  0  0  0
   63.7067   32.7302   51.3609 H   0  0  0  0  0  0  0  0  0  0  0  0
   62.8659   29.2619   51.9028 H   0  0  0  0  0  0  0  0  0  0  0  0
   61.3874   27.2669   51.8954 H   0  0  0  0  0  0  0  0  0  0  0  0
   59.7034   26.9630   50.0916 H   0  0  0  0  0  0  0  0  0  0  0  0
   59.5059   28.6425   48.2733 H   0  0  0  0  0  0  0  0  0  0  0  0
  1  2  1  0
  2  3  1  0
  3  4  1  0
  3  5  1  0
  5  6  1  0
  6  7  1  0
  7  8  1  0
  8  9  1  0
  9 10  1  0
 10 11  1  0
 11 12  1  0
 12 13  2  0
 13 14  1  0
 14 15  2  0
 15 16  1  0
 16 17  2  0
 17 18  1  0
 18 19  2  0
 19 20  1  0
 19 21  1  0
 21 22  2  0
 22 23  1  0
 23 24  2  0
 24 25  1  0
 25 26  2  0
 26 12  1  0
 18 13  1  0
 26 21  1  0
  1 27  1  0
  1 28  1  0
  1 29  1  0
  2 30  1  0
  2 31  1  0
  4 32  1  0
  4 33  1  0
  4 34  1  0
  5 35  1  0
  5 36  1  0
  6 37  1  0
  6 38  1  0
  7 39  1  0
  7 40  1  0
  8 41  1  0
  9 42  1  0
  9 43  1  0
 10 44  1  0
 10 45  1  0
 11 46  1  0
 11 47  1  0
 14 48  1  0
 15 49  1  0
 16 50  1  0
 17 51  1  0
 20 52  1  0
 20 53  1  0
 20 54  1  0
 22 55  1  0
 23 56  1  0
 24 57  1  0
 25 58  1  0
M  CHG  2  11   1  19   1
M  END
>  <UniqueID>  (1) 
1

>  <SMILES>  (1) 
CCN(C)CCCNCC[NH2+]c1c2ccccc2[n+](C)c2ccccc12

>  <Energy>  (1) 
87.39252184240256

>  <Genealogy>  (1) 
CCN(C)CCCNCC[NH2+]c1c2ccccc2[n+](C)c2ccccc12 (protonated)
CCN(C)CCCNCC[NH2+]c1c2ccccc2[n+](C)c2ccccc12 (3D coordinates assigned)
CCN(C)CCCNCC[NH2+]c1c2ccccc2[n+](C)c2ccccc12 (optimized conformer: 87.39252184240256 kcal/mol)

>  <smiles>  (1) 
CCN(C)CCCNCCNc1c2ccccc2[n+](C)c2ccccc12

>  <score_type>  (1) 
oracle

>  <origin>  (1) 
adg

>  <m_score__min__energy>  (1) 
-3.6899999999999999

>  <m_primary>  (1) 
energy

$$$$
1:0
     RDKit          3D

 47 49  0  0  0  0  0  0  0  0999 V2000
   58.5660   34.2790   52.7490 C   0  0  0  0  0  0  0  0  0  0  0  0
   58.0410   33.0480   52.0200 C   0  0  0  0  0  0  0  0  0  0  0  0
   58.9950   32.6500   50.9570 N   0  0  0  0  0  0  0  0  0  0  0  0
   59.7100   33.8380   50.4530 C   0  0  0  0  0  0  0  0  0  0  0  0
   59.9690   31.6400   51.4300 C   0  0  0  0  0  0  0  0  0  0  0  0
   59.7190   30.2510   50.8080 C   0  0  0  0  0  0  0  0  0  0  0  0
   60.7800   29.8200   49.8700 N   0  0  0  0  0  0  0  0  0  0  0  0
   61.3530   30.9380   49.1250 C   0  0  0  0  0  0  0  0  0  0  0  0
   62.6690   31.3950   49.4260 C   0  0  0  0  0  0  0  0  0  0  0  0
   63.4370   30.8210   50.4730 C   0  0  0  0  0  0  0  0  0  0  0  0
   64.6980   31.3110   50.7960 C   0  0  0  0  0  0  0  0  0  0  0  0
   65.2260   32.3890   50.1010 C   0  0  0  0  0  0  0  0  0  0  0  0
   66.9350   33.0920   50.5860 Br  0  0  0  0  0  0  0  0  0  0  0  0
   64.5060   32.9630   49.0570 C   0  0  0  0  0  0  0  0  0  0  0  0
   63.2370   32.4570   48.6700 C   0  0  0  0  0  0  0  0  0  0  0  0
   62.5560   32.9870   47.5960 N   0  0  0  0  0  0  0  0  0  0  0  0
   63.2690   33.8450   46.6200 C   0  0  0  0  0  0  0  0  0  0  0  0
   61.2230   32.6940   47.4060 C   0  0  0  0  0  0  0  0  0  0  0  0
   60.4290   33.4510   46.5030 C   0  0  0  0  0  0  0  0  0  0  0  0
   59.1050   33.1120   46.2470 C   0  0  0  0  0  0  0  0  0  0  0  0
   58.0710   34.1490   45.0190 Br  0  0  0  0  0  0  0  0  0  0  0  0
   58.5340   32.0220   46.8830 C   0  0  0  0  0  0  0  0  0  0  0  0
   59.2690   31.2890   47.8100 C   0  0  0  0  0  0  0  0  0  0  0  0
   60.6090   31.6260   48.1250 C   0  0  0  0  0  0  0  0  0  0  0  0
   58.4977   34.1188   53.8351 H   0  0  0  0  0  0  0  0  0  0  0  0
   59.6158   34.4510   52.4690 H   0  0  0  0  0  0  0  0  0  0  0  0
   57.9635   35.1557   52.4690 H   0  0  0  0  0  0  0  0  0  0  0  0
   57.9258   32.2209   52.7359 H   0  0  0  0  0  0  0  0  0  0  0  0
   57.0672   33.2824   51.5654 H   0  0  0  0  0  0  0  0  0  0  0  0
   60.0704   34.4368   51.3024 H   0  0  0  0  0  0  0  0  0  0  0  0
   60.5659   33.5183   49.8404 H   0  0  0  0  0  0  0  0  0  0  0  0
   59.0268   34.4446   49.8404 H   0  0  0  0  0  0  0  0  0  0  0  0
   60.9823   31.9717   51.1596 H   0  0  0  0  0  0  0  0  0  0  0  0
   59.8550   31.5465   52.5201 H   0  0  0  0  0  0  0  0  0  0  0  0
   59.6533   29.5130   51.6210 H   0  0  0  0  0  0  0  0  0  0  0  0
   58.7865   30.3210   50.2288 H   0  0  0  0  0  0  0  0  0  0  0  0
   61.5410   29.3510   50.4110 H   0  0  0  0  0  0  0  0  0  0  0  0
   60.4480   29.0420   49.2660 H   0  0  0  0  0  0  0  0  0  0  0  0
   63.0268   29.9722   51.0398 H   0  0  0  0  0  0  0  0  0  0  0  0
   65.2780   30.8424   51.6047 H   0  0  0  0  0  0  0  0  0  0  0  0
   64.9286   33.8257   48.5212 H   0  0  0  0  0  0  0  0  0  0  0  0
   63.8818   34.5824   47.1591 H   0  0  0  0  0  0  0  0  0  0  0  0
   63.9179   33.2206   45.9883 H   0  0  0  0  0  0  0  0  0  0  0  0
   62.5364   34.3687   45.9883 H   0  0  0  0  0  0  0  0  0  0  0  0
   60.8703   34.3221   45.9966 H   0  0  0  0  0  0  0  0  0  0  0  0
   57.4969   31.7350   46.6548 H   0  0  0  0  0  0  0  0  0  0  0  0
   58.7993   30.4288   48.3094 H   0  0  0  0  0  0  0  0  0  0  0  0
  1  2  1  0
  2  3  1  0
  3  4  1  0
  3  5  1  0
  5  6  1  0
  6  7  1  0
  7  8  1  0
  8  9  2  0
  9 10  1  0
 10 11  2  0
 11 12  1  0
 12 13  1  0
 12 14  2  0
 14 15  1  0
 15 16  2  0
 16 17  1  0
 16 18  1  0
 18 19  2  0
 19 20  1  0
 20 21  1  0
 20 22  2  0
 22 23  1  0
 23 24  2  0
 24  8  1  0
 15  9  1  0
 24 18  1  0
  1 25  1  0
  1 26  1  0
  1 27  1  0
  2 28  1  0
  2 29  1  0
  4 30  1  0
  4 31  1  0
  4 32  1  0
  5 33  1  0
  5 34  1  0
  6 35  1  0
  6 36  1  0
  7 37  1  0
  7 38  1  0
 10 39  1  0
 11 40  1  0
 14 41  1  0
 17 42  1  0
 17 43  1  0
 17 44  1  0
 19 45  1  0
 22 46  1  0
 23 47  1  0
M  CHG  2   7   1  16   1
M  END
>  <UniqueID>  (2) 
2

>  <SMILES>  (2) 
CCN(C)CC[NH2+]c1c2ccc(Br)cc2[n+](C)c2cc(Br)ccc12

>  <Energy>  (2) 
77.5356199554647

>  <Genealogy>  (2) 
CCN(C)CC[NH2+]c1c2ccc(Br)cc2[n+](C)c2cc(Br)ccc12 (protonated)
CCN(C)CC[NH2+]c1c2ccc(Br)cc2[n+](C)c2cc(Br)ccc12 (3D coordinates assigned)
CCN(C)CC[NH2+]c1c2ccc(Br)cc2[n+](C)c2cc(Br)ccc12 (optimized conformer: 77.5356199554647 kcal/mol)

>  <smiles>  (2) 
CCN(C)CCNc1c2ccc(Br)cc2[n+](C)c2cc(Br)ccc12

>  <score_type>  (2) 
oracle

>  <origin>  (2) 
adg

>  <m_score__min__energy>  (2) 
-4.3200000000000003

>  <m_primary>  (2) 
energy

$$$$
2:0
     RDKit          3D

 84 87  0  0  0  0  0  0  0  0999 V2000
   57.7860   31.7300   43.2240 C   0  0  0  0  0  0  0  0  0  0  0  0
   56.9580   31.5680   44.5030 C   0  0  0  0  0  0  0  0  0  0  0  0
   56.6120   30.1640   44.7780 N   0  0  0  0  0  0  0  0  0  0  0  0
   56.5890   29.3500   43.5560 C   0  0  0  0  0  0  0  0  0  0  0  0
   57.6280   28.2370   43.6540 C   0  0  0  0  0  0  0  0  0  0  0  0
   58.2800   28.3220   44.9050 O   0  0  0  0  0  0  0  0  0  0  0  0
   59.6740   28.1950   44.7190 C   0  0  0  0  0  0  0  0  0  0  0  0
   60.3800   29.3430   45.4350 C   0  0  0  0  0  0  0  0  0  0  0  0
   59.4210   30.1940   46.1390 N   0  0  0  0  0  0  0  0  0  0  0  0
   59.8280   30.9800   47.2710 C   0  0  0  0  0  0  0  0  0  0  0  0
   59.8240   32.3800   47.1700 C   0  0  0  0  0  0  0  0  0  0  0  0
   59.1750   33.0260   46.0970 C   0  0  0  0  0  0  0  0  0  0  0  0
   59.1240   34.4170   46.0300 C   0  0  0  0  0  0  0  0  0  0  0  0
   59.7080   35.1820   47.0320 C   0  0  0  0  0  0  0  0  0  0  0  0
   60.3760   34.5640   48.0890 C   0  0  0  0  0  0  0  0  0  0  0  0
   60.4810   33.1520   48.1600 C   0  0  0  0  0  0  0  0  0  0  0  0
   61.2140   32.5230   49.1460 N   0  0  0  0  0  0  0  0  0  0  0  0
   62.1980   33.2980   49.9380 C   0  0  0  0  0  0  0  0  0  0  0  0
   61.0510   31.1670   49.3720 C   0  0  0  0  0  0  0  0  0  0  0  0
   61.6040   30.5430   50.5180 C   0  0  0  0  0  0  0  0  0  0  0  0
   61.5030   29.1600   50.7180 C   0  0  0  0  0  0  0  0  0  0  0  0
   62.0910   28.5080   51.8120 O   0  0  0  0  0  0  0  0  0  0  0  0
   63.4220   28.7250   52.2700 C   0  0  0  0  0  0  0  0  0  0  0  0
   63.8860   27.6020   53.2300 C   0  0  0  0  0  0  0  0  0  0  0  0
   64.7950   26.5430   52.6620 N   0  0  0  0  0  0  0  0  0  0  0  0
   64.0030   25.4830   51.9820 C   0  0  0  0  0  0  0  0  0  0  0  0
   65.6700   27.2030   51.6330 C   0  0  0  0  0  0  0  0  0  0  0  0
   67.0360   26.5050   51.4740 C   0  0  0  0  0  0  0  0  0  0  0  0
   67.8460   26.5650   52.7320 N   0  0  0  0  0  0  0  0  0  0  0  0
   68.7220   27.7620   52.7030 C   0  0  0  0  0  0  0  0  0  0  0  0
   68.7170   25.3640   52.8010 C   0  0  0  0  0  0  0  0  0  0  0  0
   66.9790   26.6270   53.9500 C   0  0  0  0  0  0  0  0  0  0  0  0
   65.6280   25.9140   53.7430 C   0  0  0  0  0  0  0  0  0  0  0  0
   60.7790   28.3940   49.8150 C   0  0  0  0  0  0  0  0  0  0  0  0
   60.1370   28.9780   48.7210 C   0  0  0  0  0  0  0  0  0  0  0  0
   59.2250   28.1590   47.9780 N   0  0  0  0  0  0  0  0  0  0  0  0
   60.3180   30.3660   48.4470 C   0  0  0  0  0  0  0  0  0  0  0  0
   58.8337   31.9350   43.4890 H   0  0  0  0  0  0  0  0  0  0  0  0
   57.7318   30.8042   42.6324 H   0  0  0  0  0  0  0  0  0  0  0  0
   57.3869   32.5671   42.6324 H   0  0  0  0  0  0  0  0  0  0  0  0
   57.5386   31.9606   45.3509 H   0  0  0  0  0  0  0  0  0  0  0  0
   56.0180   32.1223   44.3644 H   0  0  0  0  0  0  0  0  0  0  0  0
   57.3060   29.7600   45.4510 H   0  0  0  0  0  0  0  0  0  0  0  0
   55.5900   28.9065   43.4319 H   0  0  0  0  0  0  0  0  0  0  0  0
   56.8225   29.9883   42.6911 H   0  0  0  0  0  0  0  0  0  0  0  0
   57.1308   27.2600   43.5633 H   0  0  0  0  0  0  0  0  0  0  0  0
   58.3645   28.3451   42.8441 H   0  0  0  0  0  0  0  0  0  0  0  0
   60.0153   27.2358   45.1354 H   0  0  0  0  0  0  0  0  0  0  0  0
   59.9090   28.2277   43.6449 H   0  0  0  0  0  0  0  0  0  0  0  0
   61.0936   28.9282   46.1621 H   0  0  0  0  0  0  0  0  0  0  0  0
   60.9035   29.9535   44.6845 H   0  0  0  0  0  0  0  0  0  0  0  0
   58.5420   30.4610   45.6410 H   0  0  0  0  0  0  0  0  0  0  0  0
   58.7042   32.4254   45.3048 H   0  0  0  0  0  0  0  0  0  0  0  0
   58.6216   34.9091   45.1842 H   0  0  0  0  0  0  0  0  0  0  0  0
   59.6433   36.2793   46.9916 H   0  0  0  0  0  0  0  0  0  0  0  0
   60.8281   35.1814   48.8793 H   0  0  0  0  0  0  0  0  0  0  0  0
   62.0060   33.1468   51.0105 H   0  0  0  0  0  0  0  0  0  0  0  0
   63.2149   32.9556   49.6957 H   0  0  0  0  0  0  0  0  0  0  0  0
   62.1035   34.3668   49.6957 H   0  0  0  0  0  0  0  0  0  0  0  0
   62.1241   31.1582   51.2671 H   0  0  0  0  0  0  0  0  0  0  0  0
   64.0975   28.7543   51.4024 H   0  0  0  0  0  0  0  0  0  0  0  0
   63.4453   29.6778   52.8192 H   0  0  0  0  0  0  0  0  0  0  0  0
   64.4169   28.0800   54.0665 H   0  0  0  0  0  0  0  0  0  0  0  0
   62.9655   27.0671   53.5068 H   0  0  0  0  0  0  0  0  0  0  0  0
   63.5241   24.8420   52.7368 H   0  0  0  0  0  0  0  0  0  0  0  0
   63.2302   25.9492   51.3532 H   0  0  0  0  0  0  0  0  0  0  0  0
   64.6692   24.8740   51.3532 H   0  0  0  0  0  0  0  0  0  0  0  0
   65.1498   27.1824   50.6640 H   0  0  0  0  0  0  0  0  0  0  0  0
   65.8612   28.2320   51.9716 H   0  0  0  0  0  0  0  0  0  0  0  0
   66.8675   25.4505   51.2100 H   0  0  0  0  0  0  0  0  0  0  0  0
   67.5952   27.0282   50.6844 H   0  0  0  0  0  0  0  0  0  0  0  0
   68.9505   28.0742   53.7327 H   0  0  0  0  0  0  0  0  0  0  0  0
   69.6573   27.5192   52.1774 H   0  0  0  0  0  0  0  0  0  0  0  0
   68.2077   28.5801   52.1774 H   0  0  0  0  0  0  0  0  0  0  0  0
   68.9037   25.1065   53.8540 H   0  0  0  0  0  0  0  0  0  0  0  0
   68.2191   24.5207   52.3000 H   0  0  0  0  0  0  0  0  0  0  0  0
   69.6732   25.5753   52.3000 H   0  0  0  0  0  0  0  0  0  0  0  0
   67.5083   26.1463   54.7859 H   0  0  0  0  0  0  0  0  0  0  0  0
   66.7716   27.6863   54.1620 H   0  0  0  0  0  0  0  0  0  0  0  0
   65.8222   24.8659   53.4715 H   0  0  0  0  0  0  0  0  0  0  0  0
   65.0641   25.9952   54.6840 H   0  0  0  0  0  0  0  0  0  0  0  0
   60.7096   27.3063   49.9639 H   0  0  0  0  0  0  0  0  0  0  0  0
   58.9280   28.4260   47.0160 H   0  0  0  0  0  0  0  0  0  0  0  0
   58.6510   27.4350   48.4660 H   0  0  0  0  0  0  0  0  0  0  0  0
  1  2  1  0
  2  3  1  0
  3  4  1  0
  4  5  1  0
  5  6  1  0
  6  7  1  0
  7  8  1  0
  8  9  1  0
  9 10  1  0
 10 11  2  0
 11 12  1  0
 12 13  2  0
 13 14  1  0
 14 15  2  0
 15 16  1  0
 16 17  2  0
 17 18  1  0
 17 19  1  0
 19 20  2  0
 20 21  1  0
 21 22  1  0
 22 23  1  0
 23 24  1  0
 24 25  1  0
 25 26  1  0
 25 27  1  0
 27 28  1  0
 28 29  1  0
 29 30  1  0
 29 31  1  0
 29 32  1  0
 32 33  1  0
 21 34  2  0
 34 35  1  0
 35 36  1  0
 35 37  2  0
 37 10  1  0
 16 11  1  0
 37 19  1  0
 33 25  1  0
  1 38  1  0
  1 39  1  0
  1 40  1  0
  2 41  1  0
  2 42  1  0
  3 43  1  0
  4 44  1  0
  4 45  1  0
  5 46  1  0
  5 47  1  0
  7 48  1  0
  7 49  1  0
  8 50  1  0
  8 51  1  0
  9 52  1  0
 12 53  1  0
 13 54  1  0
 14 55  1  0
 15 56  1  0
 18 57  1  0
 18 58  1  0
 18 59  1  0
 20 60  1  0
 23 61  1  0
 23 62  1  0
 24 63  1  0
 24 64  1  0
 26 65  1  0
 26 66  1  0
 26 67  1  0
 27 68  1  0
 27 69  1  0
 28 70  1  0
 28 71  1  0
 30 72  1  0
 30 73  1  0
 30 74  1  0
 31 75  1  0
 31 76  1  0
 31 77  1  0
 32 78  1  0
 32 79  1  0
 33 80  1  0
 33 81  1  0
 34 82  1  0
 36 83  1  0
 36 84  1  0
M  CHG  3  17   1  25   1  29   1
M  END
>  <UniqueID>  (3) 
3

>  <SMILES>  (3) 
CCNCCOCCNc1c2ccccc2[n+](C)c2cc(OCC[N+]3(C)CC[N+](C)(C)CC3)cc(N)c12

>  <Energy>  (3) 
142.13966837579184

>  <Genealogy>  (3) 
CCNCCOCCNc1c2ccccc2[n+](C)c2cc(OCC[N+]3(C)CC[N+](C)(C)CC3)cc(N)c12 (3D coordinates assigned)
CCNCCOCCNc1c2ccccc2[n+](C)c2cc(OCC[N+]3(C)CC[N+](C)(C)CC3)cc(N)c12 (nonaromatic ring conformer: 142.13966837579184 kcal/mol)

>  <smiles>  (3) 
CCNCCOCCNc1c2ccccc2[n+](C)c2cc(OCC[N+]3(C)CC[N+](C)(C)CC3)cc(N)c12

>  <score_type>  (3) 
oracle

>  <origin>  (3) 
adg

>  <m_score__min__energy>  (3) 
-3.7200000000000002

>  <m_primary>  (3) 
energy

$$$$
3:0
     RDKit          3D

 46 48  0  0  0  0  0  0  0  0999 V2000
   60.3500   32.5600   49.7400 C   0  0  0  0  0  0  0  0  0  0  0  0
   60.0430   34.2480   49.1240 S   0  0  0  0  0  0  0  0  0  0  0  0
   61.2700   34.1960   47.7670 C   0  0  0  0  0  0  0  0  0  0  0  0
   61.2110   32.9100   46.9140 C   0  0  0  0  0  0  0  0  0  0  0  0
   59.9860   32.7440   46.0990 N   0  0  0  0  0  0  0  0  0  0  0  0
   59.6230   33.8970   45.2500 C   0  0  0  0  0  0  0  0  0  0  0  0
   58.1330   33.8850   44.8690 C   0  0  2  0  0  0  0  0  0  0  0  0
   57.2830   33.9270   46.1540 C   0  0  0  0  0  0  0  0  0  0  0  0
   57.7340   32.8760   47.1980 C   0  0  0  0  0  0  0  0  0  0  0  0
   58.8750   31.9600   46.6860 C   0  0  1  0  0  0  0  0  0  0  0  0
   58.3710   30.9390   45.6380 C   0  0  0  0  0  0  0  0  0  0  0  0
   57.3260   31.5040   44.7580 N   0  0  0  0  0  0  0  0  0  0  0  0
   56.6790   30.4710   43.9180 C   0  0  0  0  0  0  0  0  0  0  0  0
   57.0300   29.0660   44.3260 C   0  0  0  0  0  0  0  0  0  0  0  0
   58.0450   28.2930   43.7930 C   0  0  0  0  0  0  0  0  0  0  0  0
   57.9810   27.1090   44.4960 C   0  0  0  0  0  0  0  0  0  0  0  0
   56.9850   27.2040   45.3970 N   0  0  0  0  0  0  0  0  0  0  0  0
   56.5470   26.1480   46.2990 C   0  0  0  0  0  0  0  0  0  0  0  0
   56.3920   28.3830   45.2980 N   0  0  0  0  0  0  0  0  0  0  0  0
   57.7870   32.6680   43.9710 C   0  0  0  0  0  0  0  0  0  0  0  0
   60.3490   32.5653   50.8400 H   0  0  0  0  0  0  0  0  0  0  0  0
   59.5595   31.8874   49.3759 H   0  0  0  0  0  0  0  0  0  0  0  0
   61.3268   32.2088   49.3759 H   0  0  0  0  0  0  0  0  0  0  0  0
   61.0916   35.0574   47.1065 H   0  0  0  0  0  0  0  0  0  0  0  0
   62.2644   34.2203   48.2367 H   0  0  0  0  0  0  0  0  0  0  0  0
   62.0741   32.9152   46.2321 H   0  0  0  0  0  0  0  0  0  0  0  0
   61.2161   32.0727   47.6274 H   0  0  0  0  0  0  0  0  0  0  0  0
   59.8419   34.8250   45.7986 H   0  0  0  0  0  0  0  0  0  0  0  0
   60.2115   33.8350   44.3227 H   0  0  0  0  0  0  0  0  0  0  0  0
   57.9014   34.7780   44.2699 H   0  0  0  0  0  0  0  0  0  0  0  0
   57.3692   34.9282   46.6014 H   0  0  0  0  0  0  0  0  0  0  0  0
   56.2441   33.6967   45.8752 H   0  0  0  0  0  0  0  0  0  0  0  0
   58.0857   33.4040   48.0967 H   0  0  0  0  0  0  0  0  0  0  0  0
   56.8676   32.2325   47.4105 H   0  0  0  0  0  0  0  0  0  0  0  0
   59.2443   31.4143   47.5668 H   0  0  0  0  0  0  0  0  0  0  0  0
   59.2216   30.6209   45.0172 H   0  0  0  0  0  0  0  0  0  0  0  0
   57.9292   30.0908   46.1815 H   0  0  0  0  0  0  0  0  0  0  0  0
   55.5884   30.5938   43.9919 H   0  0  0  0  0  0  0  0  0  0  0  0
   57.0435   30.6122   42.8898 H   0  0  0  0  0  0  0  0  0  0  0  0
   58.7458   28.5622   42.9890 H   0  0  0  0  0  0  0  0  0  0  0  0
   58.6326   26.2355   44.3464 H   0  0  0  0  0  0  0  0  0  0  0  0
   56.6828   26.4755   47.3403 H   0  0  0  0  0  0  0  0  0  0  0  0
   55.4840   25.9295   46.1190 H   0  0  0  0  0  0  0  0  0  0  0  0
   57.1433   25.2413   46.1190 H   0  0  0  0  0  0  0  0  0  0  0  0
   58.6849   32.3793   43.4049 H   0  0  0  0  0  0  0  0  0  0  0  0
   56.9682   32.9665   43.2998 H   0  0  0  0  0  0  0  0  0  0  0  0
  1  2  1  0
  2  3  1  0
  3  4  1  0
  4  5  1  0
  5  6  1  0
  6  7  1  0
  7  8  1  0
  8  9  1  0
  9 10  1  0
 10 11  1  0
 11 12  1  0
 12 13  1  0
 13 14  1  0
 14 15  1  0
 15 16  2  0
 16 17  1  0
 17 18  1  0
 17 19  1  0
 12 20  1  0
 10  5  1  0
 19 14  2  0
 20  7  1  0
  1 21  1  0
  1 22  1  0
  1 23  1  0
  3 24  1  0
  3 25  1  0
  4 26  1  0
  4 27  1  0
  6 28  1  0
  6 29  1  0
  7 30  1  6
  8 31  1  0
  8 32  1  0
  9 33  1  0
  9 34  1  0
 10 35  1  1
 11 36  1  0
 11 37  1  0
 13 38  1  0
 13 39  1  0
 15 40  1  0
 16 41  1  0
 18 42  1  0
 18 43  1  0
 18 44  1  0
 20 45  1  0
 20 46  1  0
M  END
>  <UniqueID>  (4) 
4

>  <SMILES>  (4) 
CSCCN1C[C@@H]2CC[C@H]1CN(Cc1ccn(C)n1)C2

>  <Energy>  (4) 
94.39986284306558

>  <Genealogy>  (4) 
CSCCN1C[C@@H]2CC[C@H]1CN(Cc1ccn(C)n1)C2 (chirality)
CSCCN1C[C@@H]2CC[C@H]1CN(Cc1ccn(C)n1)C2 (3D coordinates assigned)
CSCCN1C[C@@H]2CC[C@H]1CN(Cc1ccn(C)n1)C2 (nonaromatic ring conformer: 94.39986284306558 kcal/mol)

>  <smiles>  (4) 
CSCCN1CC2CCC1CN(Cc1ccn(C)n1)C2

>  <score_type>  (4) 
oracle

>  <origin>  (4) 
adg

>  <m_score__min__energy>  (4) 
-6.2400000000000002

>  <m_primary>  (4) 
energy

$$$$
4:0
     RDKit          3D

 60 63  0  0  0  0  0  0  0  0999 V2000
   58.1490   32.3420   50.0120 C   0  0  0  0  0  0  0  0  0  0  0  0
   59.3600   31.6210   50.6080 C   0  0  0  0  0  0  0  0  0  0  0  0
   59.2790   30.1600   50.3600 N   0  0  0  0  0  0  0  0  0  0  0  0
   58.9460   29.4510   51.6220 C   0  0  0  0  0  0  0  0  0  0  0  0
   57.6010   29.8970   52.1970 C   0  0  0  0  0  0  0  0  0  0  0  0
   60.5310   29.6360   49.7490 C   0  0  0  0  0  0  0  0  0  0  0  0
   60.3690   29.4830   48.2230 C   0  0  0  0  0  0  0  0  0  0  0  0
   59.0620   29.9270   47.7320 N   0  0  0  0  0  0  0  0  0  0  0  0
   58.7520   30.0400   46.3320 C   0  0  0  0  0  0  0  0  0  0  0  0
   58.4810   28.8760   45.5940 C   0  0  0  0  0  0  0  0  0  0  0  0
   58.7530   27.5960   46.1270 C   0  0  0  0  0  0  0  0  0  0  0  0
   58.5510   26.4500   45.3630 C   0  0  0  0  0  0  0  0  0  0  0  0
   58.0870   26.5570   44.0570 C   0  0  0  0  0  0  0  0  0  0  0  0
   57.7810   27.8070   43.5240 C   0  0  0  0  0  0  0  0  0  0  0  0
   57.9360   28.9880   44.2930 C   0  0  0  0  0  0  0  0  0  0  0  0
   57.5480   30.2230   43.8170 N   0  0  0  0  0  0  0  0  0  0  0  0
   56.6330   30.3030   42.6550 C   0  0  0  0  0  0  0  0  0  0  0  0
   57.9830   31.3760   44.4460 C   0  0  0  0  0  0  0  0  0  0  0  0
   57.7360   32.6520   43.8840 C   0  0  0  0  0  0  0  0  0  0  0  0
   58.0730   33.8180   44.5570 C   0  0  0  0  0  0  0  0  0  0  0  0
   58.7920   33.7650   45.7450 C   0  0  0  0  0  0  0  0  0  0  0  0
   59.1750   34.9600   46.3700 C   0  0  0  0  0  0  0  0  0  0  0  0
   60.0130   34.9380   47.4800 C   0  0  0  0  0  0  0  0  0  0  0  0
   60.5390   33.7230   47.9430 C   0  0  0  0  0  0  0  0  0  0  0  0
   61.4880   33.6750   49.0260 N   0  0  0  0  0  0  0  0  0  0  0  0
   62.9300   33.5420   48.8300 C   0  0  0  0  0  0  0  0  0  0  0  0
   60.1450   32.5280   47.3210 C   0  0  0  0  0  0  0  0  0  0  0  0
   59.1890   32.5130   46.2790 C   0  0  0  0  0  0  0  0  0  0  0  0
   58.6740   31.3060   45.6950 C   0  0  0  0  0  0  0  0  0  0  0  0
   57.5117   32.7214   50.8244 H   0  0  0  0  0  0  0  0  0  0  0  0
   58.4918   33.1832   49.3916 H   0  0  0  0  0  0  0  0  0  0  0  0
   57.5729   31.6397   49.3916 H   0  0  0  0  0  0  0  0  0  0  0  0
   60.2773   32.0148   50.1460 H   0  0  0  0  0  0  0  0  0  0  0  0
   59.3734   31.7937   51.6943 H   0  0  0  0  0  0  0  0  0  0  0  0
   58.9046   28.3703   51.4210 H   0  0  0  0  0  0  0  0  0  0  0  0
   59.7254   29.6911   52.3602 H   0  0  0  0  0  0  0  0  0  0  0  0
   57.6486   29.8812   53.2959 H   0  0  0  0  0  0  0  0  0  0  0  0
   57.3761   30.9178   51.8544 H   0  0  0  0  0  0  0  0  0  0  0  0
   56.8108   29.2128   51.8544 H   0  0  0  0  0  0  0  0  0  0  0  0
   61.3544   30.3352   49.9566 H   0  0  0  0  0  0  0  0  0  0  0  0
   60.7505   28.6491   50.1825 H   0  0  0  0  0  0  0  0  0  0  0  0
   61.1492   30.0794   47.7275 H   0  0  0  0  0  0  0  0  0  0  0  0
   60.4572   28.4112   47.9916 H   0  0  0  0  0  0  0  0  0  0  0  0
   58.5360   30.5640   48.3720 H   0  0  0  0  0  0  0  0  0  0  0  0
   59.1285   27.5041   47.1568 H   0  0  0  0  0  0  0  0  0  0  0  0
   58.7587   25.4591   45.7930 H   0  0  0  0  0  0  0  0  0  0  0  0
   57.9613   25.6528   43.4433 H   0  0  0  0  0  0  0  0  0  0  0  0
   57.4132   27.8790   42.4898 H   0  0  0  0  0  0  0  0  0  0  0  0
   55.5960   30.3937   43.0105 H   0  0  0  0  0  0  0  0  0  0  0  0
   56.8900   31.1821   42.0458 H   0  0  0  0  0  0  0  0  0  0  0  0
   56.7335   29.3926   42.0458 H   0  0  0  0  0  0  0  0  0  0  0  0
   57.2664   32.7206   42.8916 H   0  0  0  0  0  0  0  0  0  0  0  0
   57.7685   34.7921   44.1467 H   0  0  0  0  0  0  0  0  0  0  0  0
   58.8103   35.9217   45.9799 H   0  0  0  0  0  0  0  0  0  0  0  0
   60.2639   35.8763   47.9963 H   0  0  0  0  0  0  0  0  0  0  0  0
   61.1390   33.7650   50.0100 H   0  0  0  0  0  0  0  0  0  0  0  0
   63.4303   33.4959   49.8085 H   0  0  0  0  0  0  0  0  0  0  0  0
   63.1401   32.6207   48.2670 H   0  0  0  0  0  0  0  0  0  0  0  0
   63.3051   34.4094   48.2670 H   0  0  0  0  0  0  0  0  0  0  0  0
   60.5913   31.5788   47.6525 H   0  0  0  0  0  0  0  0  0  0  0  0
  1  2  1  0
  2  3  1  0
  3  4  1  0
  4  5  1  0
  3  6  1  0
  6  7  1  0
  7  8  1  0
  8  9  1  0
  9 10  2  0
 10 11  1  0
 11 12  2  0
 12 13  1  0
 13 14  2  0
 14 15  1  0
 15 16  2  0
 16 17  1  0
 16 18  1  0
 18 19  2  0
 19 20  1  0
 20 21  2  0
 21 22  1  0
 22 23  2  0
 23 24  1  0
 24 25  1  0
 25 26  1  0
 24 27  2  0
 27 28  1  0
 28 29  2  0
 29  9  1  0
 15 10  1  0
 29 18  1  0
 28 21  1  0
  1 30  1  0
  1 31  1  0
  1 32  1  0
  2 33  1  0
  2 34  1  0
  4 35  1  0
  4 36  1  0
  5 37  1  0
  5 38  1  0
  5 39  1  0
  6 40  1  0
  6 41  1  0
  7 42  1  0
  7 43  1  0
  8 44  1  0
 11 45  1  0
 12 46  1  0
 13 47  1  0
 14 48  1  0
 17 49  1  0
 17 50  1  0
 17 51  1  0
 19 52  1  0
 20 53  1  0
 22 54  1  0
 23 55  1  0
 25 56  1  0
 26 57  1  0
 26 58  1  0
 26 59  1  0
 27 60  1  0
M  CHG  1  16   1
M  END
>  <UniqueID>  (5) 
5

>  <SMILES>  (5) 
CCN(CC)CCNc1c2ccccc2[n+](C)c2ccc3ccc(NC)cc3c12

>  <Energy>  (5) 
103.56149215599564

>  <Genealogy>  (5) 
CCN(CC)CCNc1c2ccccc2[n+](C)c2ccc3ccc(NC)cc3c12 (3D coordinates assigned)
CCN(CC)CCNc1c2ccccc2[n+](C)c2ccc3ccc(NC)cc3c12 (optimized conformer: 103.56149215599564 kcal/mol)

>  <smiles>  (5) 
CCN(CC)CCNc1c2ccccc2[n+](C)c2ccc3ccc(NC)cc3c12

>  <score_type>  (5) 
oracle

>  <origin>  (5) 
adg

>  <m_score__min__energy>  (5) 
-6.4100000000000001

>  <m_primary>  (5) 
energy

$$$$
5:0
     RDKit          3D

 35 37  0  0  0  0  0  0  0  0999 V2000
   58.0950   27.0590   42.6250 C   0  0  0  0  0  0  0  0  0  0  0  0
   58.0350   26.2650   43.9300 C   0  0  0  0  0  0  0  0  0  0  0  0
   58.3190   27.1380   45.1670 C   0  0  0  0  0  0  0  0  0  0  0  0
   57.0710   27.8490   45.7160 C   0  0  0  0  0  0  0  0  0  0  0  0
   57.1510   29.3020   45.5240 N   0  0  0  0  0  0  0  0  0  0  0  0
   56.2370   29.8810   44.7300 N   0  0  0  0  0  0  0  0  0  0  0  0
   56.2390   31.1940   44.4890 N   0  0  0  0  0  0  0  0  0  0  0  0
   57.1890   31.9650   45.0550 C   0  0  0  0  0  0  0  0  0  0  0  0
   57.3620   33.6270   44.8980 S   0  0  0  0  0  0  0  0  0  0  0  0
   58.7120   33.6950   45.9130 C   0  0  0  0  0  0  0  0  0  0  0  0
   59.0580   32.4110   46.3480 C   0  0  0  0  0  0  0  0  0  0  0  0
   58.1610   31.4340   45.8730 C   0  0  0  0  0  0  0  0  0  0  0  0
   58.1320   30.0590   46.1220 C   0  0  0  0  0  0  0  0  0  0  0  0
   58.9900   29.5260   46.8770 O   0  0  0  0  0  0  0  0  0  0  0  0
   60.2080   32.1750   47.2940 C   0  0  0  0  0  0  0  0  0  0  0  0
   61.1630   33.3820   47.3470 C   0  0  0  0  0  0  0  0  0  0  0  0
   60.3940   34.7090   47.4530 C   0  0  0  0  0  0  0  0  0  0  0  0
   59.5030   34.9290   46.2220 C   0  0  0  0  0  0  0  0  0  0  0  0
   58.1761   28.1322   42.8522 H   0  0  0  0  0  0  0  0  0  0  0  0
   58.9716   26.7404   42.0419 H   0  0  0  0  0  0  0  0  0  0  0  0
   57.1804   26.8757   42.0419 H   0  0  0  0  0  0  0  0  0  0  0  0
   57.0308   25.8273   44.0305 H   0  0  0  0  0  0  0  0  0  0  0  0
   58.8127   25.4884   43.8841 H   0  0  0  0  0  0  0  0  0  0  0  0
   58.7305   26.4956   45.9594 H   0  0  0  0  0  0  0  0  0  0  0  0
   59.0261   27.9207   44.8550 H   0  0  0  0  0  0  0  0  0  0  0  0
   56.1826   27.4676   45.1913 H   0  0  0  0  0  0  0  0  0  0  0  0
   57.0056   27.6468   46.7953 H   0  0  0  0  0  0  0  0  0  0  0  0
   59.8078   31.9933   48.3024 H   0  0  0  0  0  0  0  0  0  0  0  0
   60.7760   31.3057   46.9310 H   0  0  0  0  0  0  0  0  0  0  0  0
   61.8197   33.2792   48.2234 H   0  0  0  0  0  0  0  0  0  0  0  0
   61.7490   33.3978   46.4162 H   0  0  0  0  0  0  0  0  0  0  0  0
   59.7636   34.6883   48.3542 H   0  0  0  0  0  0  0  0  0  0  0  0
   61.1217   35.5319   47.5103 H   0  0  0  0  0  0  0  0  0  0  0  0
   58.8113   35.7608   46.4210 H   0  0  0  0  0  0  0  0  0  0  0  0
   60.1438   35.1634   45.3592 H   0  0  0  0  0  0  0  0  0  0  0  0
  1  2  1  0
  2  3  1  0
  3  4  1  0
  4  5  1  0
  5  6  1  0
  6  7  2  0
  7  8  1  0
  8  9  1  0
  9 10  1  0
 10 11  2  0
 11 12  1  0
 12 13  1  0
 13 14  2  0
 11 15  1  0
 15 16  1  0
 16 17  1  0
 17 18  1  0
 13  5  1  0
 12  8  2  0
 18 10  1  0
  1 19  1  0
  1 20  1  0
  1 21  1  0
  2 22  1  0
  2 23  1  0
  3 24  1  0
  3 25  1  0
  4 26  1  0
  4 27  1  0
 15 28  1  0
 15 29  1  0
 16 30  1  0
 16 31  1  0
 17 32  1  0
 17 33  1  0
 18 34  1  0
 18 35  1  0
M  END
>  <UniqueID>  (6) 
6

>  <SMILES>  (6) 
CCCCn1nnc2sc3c(c2c1=O)CCCC3

>  <Energy>  (6) 
66.07253997734205

>  <Genealogy>  (6) 
CCCCn1nnc2sc3c(c2c1=O)CCCC3 (3D coordinates assigned)
CCCCn1nnc2sc3c(c2c1=O)CCCC3 (nonaromatic ring conformer: 66.07253997734205 kcal/mol)

>  <smiles>  (6) 
CCCCn1nnc2sc3c(c2c1=O)CCCC3

>  <score_type>  (6) 
oracle

>  <origin>  (6) 
adg

>  <m_score__min__energy>  (6) 
-7.5099999999999998

>  <m_primary>  (6) 
energy

$$$$
6:0
     RDKit          3D

 39 41  0  0  0  0  0  0  0  0999 V2000
   63.7340   33.1810   47.0840 C   0  0  0  0  0  0  0  0  0  0  0  0
   62.4170   33.8400   46.6890 C   0  0  0  0  0  0  0  0  0  0  0  0
   61.2890   32.9420   46.9780 N   0  0  0  0  0  0  0  0  0  0  0  0
   61.5010   31.6990   47.7300 C   0  0  0  0  0  0  0  0  0  0  0  0
   60.5850   30.6340   47.2200 C   0  0  0  0  0  0  0  0  0  0  0  0
   59.7400   29.8560   48.0070 C   0  0  0  0  0  0  0  0  0  0  0  0
   59.0700   29.0670   47.1000 C   0  0  0  0  0  0  0  0  0  0  0  0
   58.0940   28.0930   47.2890 C   0  0  0  0  0  0  0  0  0  0  0  0
   57.5720   27.4400   46.1460 C   0  0  0  0  0  0  0  0  0  0  0  0
   56.5340   26.3940   46.2940 C   0  0  0  0  0  0  0  0  0  0  0  0
   55.1680   26.6820   46.0020 N   0  0  0  0  0  0  0  0  0  0  0  0
   56.8490   25.2360   46.6790 O   0  0  0  0  0  0  0  0  0  0  0  0
   58.0570   27.7980   44.8570 C   0  0  0  0  0  0  0  0  0  0  0  0
   59.0440   28.7890   44.7070 C   0  0  0  0  0  0  0  0  0  0  0  0
   59.5280   29.4050   45.8570 C   0  0  0  0  0  0  0  0  0  0  0  0
   60.4350   30.3470   45.9400 O   0  0  0  0  0  0  0  0  0  0  0  0
   59.9570   33.3040   46.5640 C   0  0  0  0  0  0  0  0  0  0  0  0
   59.7330   33.8670   45.2960 C   0  0  0  0  0  0  0  0  0  0  0  0
   58.4410   34.2310   44.9050 C   0  0  0  0  0  0  0  0  0  0  0  0
   57.3650   34.0370   45.7740 C   0  0  0  0  0  0  0  0  0  0  0  0
   57.5780   33.4790   47.0370 C   0  0  0  0  0  0  0  0  0  0  0  0
   58.8690   33.1150   47.4330 C   0  0  0  0  0  0  0  0  0  0  0  0
   63.8104   33.1428   48.1807 H   0  0  0  0  0  0  0  0  0  0  0  0
   63.7689   32.1592   46.6781 H   0  0  0  0  0  0  0  0  0  0  0  0
   64.5728   33.7656   46.6781 H   0  0  0  0  0  0  0  0  0  0  0  0
   62.2931   34.7729   47.2586 H   0  0  0  0  0  0  0  0  0  0  0  0
   62.4347   34.0559   45.6105 H   0  0  0  0  0  0  0  0  0  0  0  0
   62.5442   31.3721   47.6079 H   0  0  0  0  0  0  0  0  0  0  0  0
   61.2902   31.8791   48.7945 H   0  0  0  0  0  0  0  0  0  0  0  0
   59.6327   29.8690   49.1017 H   0  0  0  0  0  0  0  0  0  0  0  0
   57.7381   27.8376   48.2980 H   0  0  0  0  0  0  0  0  0  0  0  0
   54.5390   27.0940   46.7260 H   0  0  0  0  0  0  0  0  0  0  0  0
   57.6548   27.2932   43.9662 H   0  0  0  0  0  0  0  0  0  0  0  0
   59.4212   29.0681   43.7121 H   0  0  0  0  0  0  0  0  0  0  0  0
   60.5775   34.0219   44.6084 H   0  0  0  0  0  0  0  0  0  0  0  0
   58.2716   34.6710   43.9111 H   0  0  0  0  0  0  0  0  0  0  0  0
   56.3493   34.3237   45.4639 H   0  0  0  0  0  0  0  0  0  0  0  0
   56.7298   33.3259   47.7204 H   0  0  0  0  0  0  0  0  0  0  0  0
   59.0335   32.6787   48.4293 H   0  0  0  0  0  0  0  0  0  0  0  0
  1  2  1  0
  2  3  1  0
  3  4  1  0
  4  5  1  0
  5  6  2  0
  6  7  1  0
  7  8  2  0
  8  9  1  0
  9 10  1  0
 10 11  1  0
 10 12  2  0
  9 13  2  0
 13 14  1  0
 14 15  2  0
 15 16  1  0
  3 17  1  0
 17 18  2  0
 18 19  1  0
 19 20  2  0
 20 21  1  0
 21 22  2  0
 16  5  1  0
 22 17  1  0
 15  7  1  0
  1 23  1  0
  1 24  1  0
  1 25  1  0
  2 26  1  0
  2 27  1  0
  4 28  1  0
  4 29  1  0
  6 30  1  0
  8 31  1  0
 11 32  1  0
 13 33  1  0
 14 34  1  0
 18 35  1  0
 19 36  1  0
 20 37  1  0
 21 38  1  0
 22 39  1  0
M  CHG  1  11  -1
M  END
>  <UniqueID>  (7) 
7

>  <SMILES>  (7) 
CCN(Cc1cc2cc(C([NH-])=O)ccc2o1)c1ccccc1

>  <Energy>  (7) 
73.59634812399622

>  <Genealogy>  (7) 
CCN(Cc1cc2cc(C([NH-])=O)ccc2o1)c1ccccc1 (protonated)
CCN(Cc1cc2cc(C([NH-])=O)ccc2o1)c1ccccc1 (3D coordinates assigned)
CCN(Cc1cc2cc(C([NH-])=O)ccc2o1)c1ccccc1 (optimized conformer: 73.59634812399622 kcal/mol)

>  <smiles>  (7) 
CCN(Cc1cc2cc(C(N)=O)ccc2o1)c1ccccc1

>  <score_type>  (7) 
oracle

>  <origin>  (7) 
adg

>  <m_score__min__energy>  (7) 
-10.56

>  <m_primary>  (7) 
energy

$$$$
7:0
     RDKit          3D

 61 64  0  0  1  0  0  0  0  0999 V2000
   57.3960   32.3460   40.6930 C   0  0  0  0  0  0  0  0  0  0  0  0
   58.1680   32.3440   41.9820 C   0  0  0  0  0  0  0  0  0  0  0  0
   57.4490   32.9100   43.0350 O   0  0  0  0  0  0  0  0  0  0  0  0
   57.8860   33.0340   44.3350 C   0  0  0  0  0  0  0  0  0  0  0  0
   58.1530   34.2340   44.9560 C   0  0  0  0  0  0  0  0  0  0  0  0
   58.5890   34.2770   46.2640 C   0  0  0  0  0  0  0  0  0  0  0  0
   58.7650   33.1080   46.9720 C   0  0  0  0  0  0  0  0  0  0  0  0
   59.1900   33.1100   48.2570 F   0  0  0  0  0  0  0  0  0  0  0  0
   58.5030   31.8830   46.3720 C   0  0  0  0  0  0  0  0  0  0  0  0
   58.0630   31.8450   45.0500 C   0  0  0  0  0  0  0  0  0  0  0  0
   57.7780   30.5280   44.3920 C   0  0  1  0  0  0  0  0  0  0  0  0
   59.0610   29.7020   44.3030 C   0  0  0  0  0  0  0  0  0  0  0  0
   56.8780   29.7800   45.2180 N   0  0  0  0  0  0  0  0  0  0  0  0
   57.2850   28.6810   45.7520 C   0  0  0  0  0  0  0  0  0  0  0  0
   58.1210   28.7510   46.7950 N   0  0  0  0  0  0  0  0  0  0  0  0
   58.5970   27.6550   47.4160 C   0  0  0  0  0  0  0  0  0  0  0  0
   59.4830   27.7600   48.5230 N   0  0  0  0  0  0  0  0  0  0  0  0
   60.4200   26.7190   48.8960 C   0  0  0  0  0  0  0  0  0  0  0  0
   60.9050   26.8880   50.2910 C   0  0  0  0  0  0  0  0  0  0  0  0
   61.3030   28.1270   50.6760 O   0  0  0  0  0  0  0  0  0  0  0  0
   60.8270   29.1940   49.9770 C   0  0  0  0  0  0  0  0  0  0  0  0
   59.4740   28.9590   49.3400 C   0  0  0  0  0  0  0  0  0  0  0  0
   58.2020   26.4140   46.9480 C   0  0  0  0  0  0  0  0  0  0  0  0
   57.3480   26.3150   45.8810 C   0  0  0  0  0  0  0  0  0  0  0  0
   56.9670   25.0240   45.4340 N   0  0  0  0  0  0  0  0  0  0  0  0
   57.3700   24.5960   44.1080 C   0  0  0  0  0  0  0  0  0  0  0  0
   57.2140   23.0720   44.1170 C   0  0  0  0  0  0  0  0  0  0  0  0
   55.9340   22.6570   44.3750 O   0  0  0  0  0  0  0  0  0  0  0  0
   55.2060   23.4670   45.2210 C   0  0  0  0  0  0  0  0  0  0  0  0
   56.1910   24.0890   46.2200 C   0  0  0  0  0  0  0  0  0  0  0  0
   56.9210   27.4600   45.3220 N   0  0  0  0  0  0  0  0  0  0  0  0
   56.3179   32.3488   40.9113 H   0  0  0  0  0  0  0  0  0  0  0  0
   57.6548   33.2435   40.1120 H   0  0  0  0  0  0  0  0  0  0  0  0
   57.6501   31.4472   40.1120 H   0  0  0  0  0  0  0  0  0  0  0  0
   58.4168   31.3047   42.2428 H   0  0  0  0  0  0  0  0  0  0  0  0
   59.0733   32.9502   41.8309 H   0  0  0  0  0  0  0  0  0  0  0  0
   58.0164   35.1732   44.4000 H   0  0  0  0  0  0  0  0  0  0  0  0
   58.7964   35.2456   46.7424 H   0  0  0  0  0  0  0  0  0  0  0  0
   58.6418   30.9491   46.9364 H   0  0  0  0  0  0  0  0  0  0  0  0
   57.3594   30.7204   43.3931 H   0  0  0  0  0  0  0  0  0  0  0  0
   59.4195   29.4712   45.3170 H   0  0  0  0  0  0  0  0  0  0  0  0
   58.8572   28.7650   43.7640 H   0  0  0  0  0  0  0  0  0  0  0  0
   59.8296   30.2754   43.7640 H   0  0  0  0  0  0  0  0  0  0  0  0
   59.9212   25.7425   48.8081 H   0  0  0  0  0  0  0  0  0  0  0  0
   61.2872   26.7815   48.2222 H   0  0  0  0  0  0  0  0  0  0  0  0
   60.0885   26.5823   50.9617 H   0  0  0  0  0  0  0  0  0  0  0  0
   61.8167   26.2748   50.3439 H   0  0  0  0  0  0  0  0  0  0  0  0
   60.7417   30.0480   50.6650 H   0  0  0  0  0  0  0  0  0  0  0  0
   61.5367   29.3796   49.1573 H   0  0  0  0  0  0  0  0  0  0  0  0
   58.7184   28.8487   50.1317 H   0  0  0  0  0  0  0  0  0  0  0  0
   59.2366   29.8188   48.6963 H   0  0  0  0  0  0  0  0  0  0  0  0
   58.5758   25.5015   47.4355 H   0  0  0  0  0  0  0  0  0  0  0  0
   56.7207   25.0463   43.3427 H   0  0  0  0  0  0  0  0  0  0  0  0
   58.3988   24.9040   43.8700 H   0  0  0  0  0  0  0  0  0  0  0  0
   57.5140   22.6851   43.1320 H   0  0  0  0  0  0  0  0  0  0  0  0
   57.8499   22.6855   44.9271 H   0  0  0  0  0  0  0  0  0  0  0  0
   54.7046   24.2586   44.6448 H   0  0  0  0  0  0  0  0  0  0  0  0
   54.4341   22.8858   45.7468 H   0  0  0  0  0  0  0  0  0  0  0  0
   55.6511   24.6115   47.0234 H   0  0  0  0  0  0  0  0  0  0  0  0
   56.8214   23.3324   46.7101 H   0  0  0  0  0  0  0  0  0  0  0  0
   56.2710   27.4320   44.5090 H   0  0  0  0  0  0  0  0  0  0  0  0
  1  2  1  0
  2  3  1  0
  3  4  1  0
  4  5  2  0
  5  6  1  0
  6  7  2  0
  7  8  1  0
  7  9  1  0
  9 10  2  0
 10 11  1  0
 11 12  1  0
 11 13  1  0
 13 14  2  3
 14 15  1  0
 15 16  2  0
 16 17  1  0
 17 18  1  0
 18 19  1  0
 19 20  1  0
 20 21  1  0
 21 22  1  0
 16 23  1  0
 23 24  2  0
 24 25  1  0
 25 26  1  0
 26 27  1  0
 27 28  1  0
 28 29  1  0
 29 30  1  0
 24 31  1  0
 10  4  1  0
 31 14  1  0
 22 17  1  0
 30 25  1  0
  1 32  1  0
  1 33  1  0
  1 34  1  0
  2 35  1  0
  2 36  1  0
  5 37  1  0
  6 38  1  0
  9 39  1  0
 11 40  1  6
 12 41  1  0
 12 42  1  0
 12 43  1  0
 18 44  1  0
 18 45  1  0
 19 46  1  0
 19 47  1  0
 21 48  1  0
 21 49  1  0
 22 50  1  0
 22 51  1  0
 23 52  1  0
 26 53  1  0
 26 54  1  0
 27 55  1  0
 27 56  1  0
 29 57  1  0
 29 58  1  0
 30 59  1  0
 30 60  1  0
 31 61  1  0
M  END
>  <smiles>  (8) 
CCOc1ccc(F)cc1C(C)N=c1nc(N2CCOCC2)cc(N2CCOCC2)[nH]1

>  <score_type>  (8) 
oracle

>  <origin>  (8) 
adg

>  <m_score__min__energy>  (8) 
-7.4100000000000001

>  <m_primary>  (8) 
energy

$$$$
8:0
     RDKit          3D

 46 48  0  0  0  0  0  0  0  0999 V2000
   60.2160   33.2853   44.9269 H   0  0  0  0  0  0  0  0  0  0  0  0
   59.3610   33.9080   45.2290 C   0  0  0  0  0  0  0  0  0  0  0  0
   58.1320   33.3550   45.1770 C   0  0  0  0  0  0  0  0  0  0  0  0
   58.0000   31.8930   44.9420 C   0  0  0  0  0  0  0  0  0  0  0  0
   57.2300   31.4130   43.8680 C   0  0  0  0  0  0  0  0  0  0  0  0
   56.7269   32.1250   43.1972 H   0  0  0  0  0  0  0  0  0  0  0  0
   57.0980   30.0410   43.6450 C   0  0  0  0  0  0  0  0  0  0  0  0
   56.4951   29.6795   42.7989 H   0  0  0  0  0  0  0  0  0  0  0  0
   57.7300   29.1220   44.4940 C   0  0  0  0  0  0  0  0  0  0  0  0
   57.6020   27.7410   44.2760 C   0  0  0  0  0  0  0  0  0  0  0  0
   57.0000   27.3763   43.4307 H   0  0  0  0  0  0  0  0  0  0  0  0
   58.2360   26.8200   45.1280 C   0  0  0  0  0  0  0  0  0  0  0  0
   58.0980   25.3600   44.8960 C   0  0  0  0  0  0  0  0  0  0  0  0
   58.8740   24.4410   45.6280 C   0  0  0  0  0  0  0  0  0  0  0  0
   59.5893   24.8069   46.3793 H   0  0  0  0  0  0  0  0  0  0  0  0
   58.7420   23.0670   45.4070 C   0  0  0  0  0  0  0  0  0  0  0  0
   59.3518   22.3567   45.9846 H   0  0  0  0  0  0  0  0  0  0  0  0
   57.8370   22.5950   44.4540 C   0  0  0  0  0  0  0  0  0  0  0  0
   57.7352   21.5134   44.2812 H   0  0  0  0  0  0  0  0  0  0  0  0
   57.0610   23.4950   43.7200 C   0  0  0  0  0  0  0  0  0  0  0  0
   56.3480   23.1217   42.9701 H   0  0  0  0  0  0  0  0  0  0  0  0
   57.1900   24.8710   43.9380 C   0  0  0  0  0  0  0  0  0  0  0  0
   56.5774   25.5758   43.3566 H   0  0  0  0  0  0  0  0  0  0  0  0
   59.0040   27.3000   46.2050 C   0  0  0  0  0  0  0  0  0  0  0  0
   59.5049   26.5880   46.8774 H   0  0  0  0  0  0  0  0  0  0  0  0
   59.1360   28.6740   46.4280 C   0  0  0  0  0  0  0  0  0  0  0  0
   59.7383   29.0360   47.2743 H   0  0  0  0  0  0  0  0  0  0  0  0
   58.5050   29.5910   45.5790 C   0  0  0  0  0  0  0  0  0  0  0  0
   58.6330   30.9720   45.7970 C   0  0  0  0  0  0  0  0  0  0  0  0
   59.2332   31.3371   46.6434 H   0  0  0  0  0  0  0  0  0  0  0  0
   56.8820   34.1990   45.2390 C   0  0  0  0  0  0  0  0  0  0  0  0
   56.6137   34.3802   46.2903 H   0  0  0  0  0  0  0  0  0  0  0  0
   57.0633   35.1603   44.7360 H   0  0  0  0  0  0  0  0  0  0  0  0
   56.0581   33.6716   44.7360 H   0  0  0  0  0  0  0  0  0  0  0  0
   59.6440   35.3220   45.6730 C   0  0  0  0  0  0  0  0  0  0  0  0
   58.8650   35.9840   45.2670 H   0  0  0  0  0  0  0  0  0  0  0  0
   60.6398   35.6020   45.2989 H   0  0  0  0  0  0  0  0  0  0  0  0
   59.6580   35.4490   47.1430 N   0  0  0  0  0  0  0  0  0  0  0  0
   58.8990   36.0850   47.4840 H   0  0  0  0  0  0  0  0  0  0  0  0
   59.5700   34.1580   47.8440 C   0  0  0  0  0  0  0  0  0  0  0  0
   59.1252   33.4170   47.1635 H   0  0  0  0  0  0  0  0  0  0  0  0
   58.9513   34.3071   48.7412 H   0  0  0  0  0  0  0  0  0  0  0  0
   60.9370   33.6440   48.3030 C   0  0  0  0  0  0  0  0  0  0  0  0
   60.9734   33.6303   49.4023 H   0  0  0  0  0  0  0  0  0  0  0  0
   61.0938   32.6255   47.9183 H   0  0  0  0  0  0  0  0  0  0  0  0
   61.7260   34.3069   47.9183 H   0  0  0  0  0  0  0  0  0  0  0  0
  1  2  1  0
  2  3  2  0
  3  4  1  0
  4  5  2  0
  5  6  1  0
  5  7  1  0
  7  8  1  0
  7  9  2  0
  9 10  1  0
 10 11  1  0
 10 12  2  0
 12 13  1  0
 13 14  2  0
 14 15  1  0
 14 16  1  0
 16 17  1  0
 16 18  2  0
 18 19  1  0
 18 20  1  0
 20 21  1  0
 20 22  2  0
 22 23  1  0
 12 24  1  0
 24 25  1  0
 24 26  2  0
 26 27  1  0
 26 28  1  0
 28 29  2  0
 29 30  1  0
  3 31  1  0
 31 32  1  0
 31 33  1  0
 31 34  1  0
  2 35  1  0
 35 36  1  0
 35 37  1  0
 35 38  1  0
 38 39  1  0
 38 40  1  0
 40 41  1  0
 40 42  1  0
 40 43  1  0
 43 44  1  0
 43 45  1  0
 43 46  1  0
 29  4  1  0
 28  9  1  0
 22 13  1  0
M  END
>  <UniqueID>  (9) 
8

>  <SMILES>  (9) 
CCNC/C=C(\C)c1ccc2cc(-c3ccccc3)ccc2c1

>  <Energy>  (9) 
60.30730354041849

>  <Genealogy>  (9) 
CCNC/C=C(\C)c1ccc2cc(-c3ccccc3)ccc2c1 (cis-trans isomerization)
CCNC/C=C(\C)c1ccc2cc(-c3ccccc3)ccc2c1 (3D coordinates assigned)
CCNC/C=C(\C)c1ccc2cc(-c3ccccc3)ccc2c1 (optimized conformer: 60.30730354041849 kcal/mol)

>  <smiles>  (9) 
CCNCC=C(C)c1ccc2cc(-c3ccccc3)ccc2c1

>  <score_type>  (9) 
oracle

>  <origin>  (9) 
adg

>  <m_score__min__energy>  (9) 
-8.2599999999999998

>  <m_primary>  (9) 
energy

$$$$
9:0
     RDKit          3D

 30 30  0  0  0  0  0  0  0  0999 V2000
   56.6646   33.8314   44.2780 H   0  0  0  0  0  0  0  0  0  0  0  0
   57.3940   33.0420   44.5120 C   0  0  0  0  0  0  0  0  0  0  0  0
   57.4660   31.9880   43.6710 C   0  0  0  0  0  0  0  0  0  0  0  0
   57.7740   32.1800   42.2710 C   0  0  0  0  0  0  0  0  0  0  0  0
   58.0220   32.3360   41.1510 N   0  0  0  0  0  0  0  0  0  0  0  0
   57.1590   30.6150   44.1580 C   0  0  0  0  0  0  0  0  0  0  0  0
   56.1220   30.4140   44.8510 O   0  0  0  0  0  0  0  0  0  0  0  0
   58.0280   29.5090   43.8610 N   0  0  0  0  0  0  0  0  0  0  0  0
   58.8910   29.6650   43.2930 H   0  0  0  0  0  0  0  0  0  0  0  0
   57.7260   28.1590   44.3390 C   0  0  0  0  0  0  0  0  0  0  0  0
   56.6439   28.0750   44.5180 H   0  0  0  0  0  0  0  0  0  0  0  0
   58.2866   27.9843   45.2692 H   0  0  0  0  0  0  0  0  0  0  0  0
   58.1450   27.1070   43.3160 C   0  0  0  0  0  0  0  0  0  0  0  0
   58.5029   26.2084   43.8398 H   0  0  0  0  0  0  0  0  0  0  0  0
   57.2827   26.8448   42.6854 H   0  0  0  0  0  0  0  0  0  0  0  0
   58.9515   27.5095   42.6854 H   0  0  0  0  0  0  0  0  0  0  0  0
   58.2250   33.2140   45.7270 C   0  0  0  0  0  0  0  0  0  0  0  0
   59.0460   34.3440   45.8360 C   0  0  0  0  0  0  0  0  0  0  0  0
   59.0844   35.0727   45.0129 H   0  0  0  0  0  0  0  0  0  0  0  0
   59.8170   34.5520   46.9840 C   0  0  0  0  0  0  0  0  0  0  0  0
   60.4815   35.4265   47.0444 H   0  0  0  0  0  0  0  0  0  0  0  0
   59.7490   33.6520   48.0610 C   0  0  0  0  0  0  0  0  0  0  0  0
   60.6170   33.8490   49.2780 C   0  0  0  0  0  0  0  0  0  0  0  0
   61.5540   34.8430   49.0540 F   0  0  0  0  0  0  0  0  0  0  0  0
   59.8240   34.2110   50.3510 F   0  0  0  0  0  0  0  0  0  0  0  0
   61.2930   32.6810   49.5910 F   0  0  0  0  0  0  0  0  0  0  0  0
   58.9220   32.5200   47.9510 C   0  0  0  0  0  0  0  0  0  0  0  0
   58.8801   31.7926   48.7751 H   0  0  0  0  0  0  0  0  0  0  0  0
   58.1530   32.3120   46.8030 C   0  0  0  0  0  0  0  0  0  0  0  0
   57.4879   31.4381   46.7408 H   0  0  0  0  0  0  0  0  0  0  0  0
  1  2  1  0
  2  3  2  0
  3  4  1  0
  4  5  3  0
  3  6  1  0
  6  7  2  0
  6  8  1  0
  8  9  1  0
  8 10  1  0
 10 11  1  0
 10 12  1  0
 10 13  1  0
 13 14  1  0
 13 15  1  0
 13 16  1  0
  2 17  1  0
 17 18  2  0
 18 19  1  0
 18 20  1  0
 20 21  1  0
 20 22  2  0
 22 23  1  0
 23 24  1  0
 23 25  1  0
 23 26  1  0
 22 27  1  0
 27 28  1  0
 27 29  2  0
 29 30  1  0
 29 17  1  0
M  END
>  <UniqueID>  (10) 
9

>  <SMILES>  (10) 
CCNC(=O)/C(C#N)=C/c1ccc(C(F)(F)F)cc1

>  <Energy>  (10) 
30.164677278527613

>  <Genealogy>  (10) 
CCNC(=O)/C(C#N)=C/c1ccc(C(F)(F)F)cc1 (cis-trans isomerization)
CCNC(=O)/C(C#N)=C/c1ccc(C(F)(F)F)cc1 (3D coordinates assigned)
CCNC(=O)/C(C#N)=C/c1ccc(C(F)(F)F)cc1 (optimized conformer: 30.164677278527613 kcal/mol)

>  <smiles>  (10) 
CCNC(=O)C(C#N)=Cc1ccc(C(F)(F)F)cc1

>  <score_type>  (10) 
oracle

>  <origin>  (10) 
adg

>  <m_score__min__energy>  (10) 
-6.5599999999999996

>  <m_primary>  (10) 
energy

$$$$
10:0
     RDKit          3D

 51 53  0  0  0  0  0  0  0  0999 V2000
   64.8513   34.1711   48.2930 H   0  0  0  0  0  0  0  0  0  0  0  0
   64.0830   33.3840   48.3060 C   0  0  0  0  0  0  0  0  0  0  0  0
   63.4480   33.0080   47.1210 C   0  0  0  0  0  0  0  0  0  0  0  0
   63.7154   33.5012   46.1748 H   0  0  0  0  0  0  0  0  0  0  0  0
   62.4740   32.0070   47.1340 C   0  0  0  0  0  0  0  0  0  0  0  0
   61.9692   31.7243   46.1985 H   0  0  0  0  0  0  0  0  0  0  0  0
   62.1340   31.3580   48.3340 C   0  0  0  0  0  0  0  0  0  0  0  0
   61.0530   30.3010   48.3140 C   0  0  0  0  0  0  0  0  0  0  0  0
   60.8778   29.9565   49.3439 H   0  0  0  0  0  0  0  0  0  0  0  0
   61.3991   29.4821   47.6662 H   0  0  0  0  0  0  0  0  0  0  0  0
   59.7870   30.8000   47.7630 N   0  0  0  0  0  0  0  0  0  0  0  0
   59.0160   31.8880   48.1090 C   0  0  0  0  0  0  0  0  0  0  0  0
   59.0990   32.6060   49.1990 N   0  0  0  0  0  0  0  0  0  0  0  0
   59.8000   33.8440   49.5450 C   0  0  0  0  0  0  0  0  0  0  0  0
   60.8713   33.6299   49.6733 H   0  0  0  0  0  0  0  0  0  0  0  0
   59.3788   34.2425   50.4798 H   0  0  0  0  0  0  0  0  0  0  0  0
   59.6230   34.8890   48.4350 C   0  0  0  0  0  0  0  0  0  0  0  0
   60.0086   35.8527   48.7991 H   0  0  0  0  0  0  0  0  0  0  0  0
   58.5495   34.9321   48.1989 H   0  0  0  0  0  0  0  0  0  0  0  0
   60.3580   34.5310   47.1350 C   0  0  0  0  0  0  0  0  0  0  0  0
   60.6784   33.4800   47.1867 H   0  0  0  0  0  0  0  0  0  0  0  0
   61.2201   35.2070   47.0365 H   0  0  0  0  0  0  0  0  0  0  0  0
   59.4720   34.7160   45.9030 C   0  0  0  0  0  0  0  0  0  0  0  0
   58.4414   34.9312   46.2215 H   0  0  0  0  0  0  0  0  0  0  0  0
   59.8521   35.5541   45.3005 H   0  0  0  0  0  0  0  0  0  0  0  0
   59.4850   33.7958   45.3005 H   0  0  0  0  0  0  0  0  0  0  0  0
   58.0260   32.1260   47.2140 N   0  0  0  0  0  0  0  0  0  0  0  0
   57.2940   32.8720   47.2470 H   0  0  0  0  0  0  0  0  0  0  0  0
   58.1520   31.1450   46.3170 C   0  0  0  0  0  0  0  0  0  0  0  0
   57.3650   30.9310   45.2430 N   0  0  0  0  0  0  0  0  0  0  0  0
   57.6320   29.8640   44.4340 C   0  0  0  0  0  0  0  0  0  0  0  0
   56.5750   29.6190   42.9930 S   0  0  0  0  0  0  0  0  0  0  0  0
   56.9680   31.2280   42.2160 C   0  0  0  0  0  0  0  0  0  0  0  0
   57.1134   31.0761   41.1363 H   0  0  0  0  0  0  0  0  0  0  0  0
   56.1307   31.9148   42.4091 H   0  0  0  0  0  0  0  0  0  0  0  0
   58.2320   31.8450   42.8020 C   0  0  0  0  0  0  0  0  0  0  0  0
   58.1777   31.8185   43.9003 H   0  0  0  0  0  0  0  0  0  0  0  0
   59.1094   31.2738   42.4643 H   0  0  0  0  0  0  0  0  0  0  0  0
   58.3214   32.8881   42.4643 H   0  0  0  0  0  0  0  0  0  0  0  0
   58.6690   28.9940   44.7320 N   0  0  0  0  0  0  0  0  0  0  0  0
   58.8770   27.7970   43.8990 C   0  0  0  0  0  0  0  0  0  0  0  0
   59.0292   26.9213   44.5470 H   0  0  0  0  0  0  0  0  0  0  0  0
   57.9937   27.6342   43.2640 H   0  0  0  0  0  0  0  0  0  0  0  0
   59.7635   27.9417   43.2640 H   0  0  0  0  0  0  0  0  0  0  0  0
   59.4590   29.2210   45.8430 C   0  0  0  0  0  0  0  0  0  0  0  0
   60.3850   28.4230   46.1550 O   0  0  0  0  0  0  0  0  0  0  0  0
   59.1900   30.3410   46.6340 C   0  0  0  0  0  0  0  0  0  0  0  0
   62.7690   31.7560   49.5270 C   0  0  0  0  0  0  0  0  0  0  0  0
   62.4980   31.2745   50.4782 H   0  0  0  0  0  0  0  0  0  0  0  0
   63.7420   32.7600   49.5080 C   0  0  0  0  0  0  0  0  0  0  0  0
   64.2401   33.0591   50.4421 H   0  0  0  0  0  0  0  0  0  0  0  0
  1  2  1  0
  2  3  2  0
  3  4  1  0
  3  5  1  0
  5  6  1  0
  5  7  2  0
  7  8  1  0
  8  9  1  0
  8 10  1  0
  8 11  1  0
 11 12  1  0
 12 13  2  0
 13 14  1  0
 14 15  1  0
 14 16  1  0
 14 17  1  0
 17 18  1  0
 17 19  1  0
 17 20  1  0
 20 21  1  0
 20 22  1  0
 20 23  1  0
 23 24  1  0
 23 25  1  0
 23 26  1  0
 12 27  1  0
 27 28  1  0
 27 29  1  0
 29 30  1  0
 30 31  2  0
 31 32  1  0
 32 33  1  0
 33 34  1  0
 33 35  1  0
 33 36  1  0
 36 37  1  0
 36 38  1  0
 36 39  1  0
 31 40  1  0
 40 41  1  0
 41 42  1  0
 41 43  1  0
 41 44  1  0
 40 45  1  0
 45 46  2  0
 45 47  1  0
  7 48  1  0
 48 49  1  0
 48 50  2  0
 50 51  1  0
 50  2  1  0
 47 11  1  0
 47 29  2  0
M  END
>  <UniqueID>  (11) 
10

>  <SMILES>  (11) 
CCCC/N=c1/[nH]c2nc(SCC)n(C)c(=O)c2n1Cc1ccccc1

>  <Energy>  (11) 
103.06800003130756

>  <Genealogy>  (11) 
CCCC/N=c1/[nH]c2nc(SCC)n(C)c(=O)c2n1Cc1ccccc1 (cis-trans isomerization)
CCCC/N=c1/[nH]c2nc(SCC)n(C)c(=O)c2n1Cc1ccccc1 (3D coordinates assigned)
CCCC/N=c1/[nH]c2nc(SCC)n(C)c(=O)c2n1Cc1ccccc1 (optimized conformer: 103.06800003130756 kcal/mol)

>  <smiles>  (11) 
CCCCN=c1[nH]c2nc(SCC)n(C)c(=O)c2n1Cc1ccccc1

>  <score_type>  (11) 
oracle

>  <origin>  (11) 
adg

>  <m_score__min__energy>  (11) 
-7.2199999999999998

>  <m_primary>  (11) 
energy

$$$$
11:0
     RDKit          3D

 49 51  0  0  0  0  0  0  0  0999 V2000
   62.3410   31.4400   50.5470 C   0  0  0  0  0  0  0  0  0  0  0  0
   62.0520   32.7690   49.9810 N   0  0  0  0  0  0  0  0  0  0  0  0
   61.0160   33.4290   50.7930 C   0  0  0  0  0  0  0  0  0  0  0  0
   63.2690   33.6090   49.9380 C   0  0  0  0  0  0  0  0  0  0  0  0
   64.3500   33.0000   49.0280 C   0  0  0  0  0  0  0  0  0  0  0  0
   63.7690   32.4520   47.7930 N   0  0  0  0  0  0  0  0  0  0  0  0
   63.5230   33.4840   46.7690 C   0  0  0  0  0  0  0  0  0  0  0  0
   62.0170   33.6960   46.5940 C   0  0  0  0  0  0  0  0  0  0  0  0
   61.2420   32.8290   47.4980 N   0  0  0  0  0  0  0  0  0  0  0  0
   60.1800   32.1650   46.7700 C   0  0  0  0  0  0  0  0  0  0  0  0
   59.9600   30.7620   46.8420 C   0  0  0  0  0  0  0  0  0  0  0  0
   60.7610   29.9320   47.6600 C   0  0  0  0  0  0  0  0  0  0  0  0
   60.5160   28.5660   47.7510 C   0  0  0  0  0  0  0  0  0  0  0  0
   59.4600   27.9960   47.0510 C   0  0  0  0  0  0  0  0  0  0  0  0
   58.6490   28.7850   46.2380 C   0  0  0  0  0  0  0  0  0  0  0  0
   58.8870   30.1740   46.0910 C   0  0  0  0  0  0  0  0  0  0  0  0
   58.0940   30.9580   45.2640 N   0  0  0  0  0  0  0  0  0  0  0  0
   57.0910   30.3460   44.3700 C   0  0  0  0  0  0  0  0  0  0  0  0
   58.2440   32.3230   45.2990 C   0  0  0  0  0  0  0  0  0  0  0  0
   57.4170   33.2730   44.6580 C   0  0  0  0  0  0  0  0  0  0  0  0
   57.8190   34.5870   44.8700 C   0  0  0  0  0  0  0  0  0  0  0  0
   59.1810   34.5840   45.8560 S   0  0  0  0  0  0  0  0  0  0  0  0
   59.2700   32.9120   46.0220 C   0  0  0  0  0  0  0  0  0  0  0  0
   62.3283   31.4986   51.6454 H   0  0  0  0  0  0  0  0  0  0  0  0
   61.5776   30.7237   50.2091 H   0  0  0  0  0  0  0  0  0  0  0  0
   63.3329   31.1054   50.2091 H   0  0  0  0  0  0  0  0  0  0  0  0
   61.2404   33.2861   51.8603 H   0  0  0  0  0  0  0  0  0  0  0  0
   60.9994   34.5045   50.5626 H   0  0  0  0  0  0  0  0  0  0  0  0
   60.0343   32.9895   50.5626 H   0  0  0  0  0  0  0  0  0  0  0  0
   63.0011   34.6051   49.5557 H   0  0  0  0  0  0  0  0  0  0  0  0
   63.6765   33.6741   50.9577 H   0  0  0  0  0  0  0  0  0  0  0  0
   65.0774   33.7819   48.7645 H   0  0  0  0  0  0  0  0  0  0  0  0
   64.8380   32.1790   49.5737 H   0  0  0  0  0  0  0  0  0  0  0  0
   64.4480   31.7570   47.4040 H   0  0  0  0  0  0  0  0  0  0  0  0
   63.9902   34.4288   47.0838 H   0  0  0  0  0  0  0  0  0  0  0  0
   63.9560   33.1556   45.8126 H   0  0  0  0  0  0  0  0  0  0  0  0
   61.7760   34.7468   46.8126 H   0  0  0  0  0  0  0  0  0  0  0  0
   61.7503   33.4409   45.5578 H   0  0  0  0  0  0  0  0  0  0  0  0
   61.8850   32.1210   47.9230 H   0  0  0  0  0  0  0  0  0  0  0  0
   60.8520   33.3660   48.3040 H   0  0  0  0  0  0  0  0  0  0  0  0
   61.5900   30.3732   48.2327 H   0  0  0  0  0  0  0  0  0  0  0  0
   61.1609   27.9344   48.3797 H   0  0  0  0  0  0  0  0  0  0  0  0
   59.2633   26.9173   47.1390 H   0  0  0  0  0  0  0  0  0  0  0  0
   57.8087   28.3212   45.7005 H   0  0  0  0  0  0  0  0  0  0  0  0
   56.3058   29.8669   44.9733 H   0  0  0  0  0  0  0  0  0  0  0  0
   56.6421   31.1242   43.7353 H   0  0  0  0  0  0  0  0  0  0  0  0
   57.5777   29.5909   43.7353 H   0  0  0  0  0  0  0  0  0  0  0  0
   56.5413   32.9997   44.0510 H   0  0  0  0  0  0  0  0  0  0  0  0
   57.3270   35.4814   44.4601 H   0  0  0  0  0  0  0  0  0  0  0  0
  1  2  1  0
  2  3  1  0
  2  4  1  0
  4  5  1  0
  5  6  1  0
  6  7  1  0
  7  8  1  0
  8  9  1  0
  9 10  1  0
 10 11  2  0
 11 12  1  0
 12 13  2  0
 13 14  1  0
 14 15  2  0
 15 16  1  0
 16 17  2  0
 17 18  1  0
 17 19  1  0
 19 20  1  0
 20 21  2  0
 21 22  1  0
 22 23  1  0
 23 10  1  0
 16 11  1  0
 23 19  2  0
  1 24  1  0
  1 25  1  0
  1 26  1  0
  3 27  1  0
  3 28  1  0
  3 29  1  0
  4 30  1  0
  4 31  1  0
  5 32  1  0
  5 33  1  0
  6 34  1  0
  7 35  1  0
  7 36  1  0
  8 37  1  0
  8 38  1  0
  9 39  1  0
  9 40  1  0
 12 41  1  0
 13 42  1  0
 14 43  1  0
 15 44  1  0
 18 45  1  0
 18 46  1  0
 18 47  1  0
 20 48  1  0
 21 49  1  0
M  CHG  2   9   1  17   1
M  END
>  <UniqueID>  (12) 
11

>  <SMILES>  (12) 
CN(C)CCNCC[NH2+]c1c2ccccc2[n+](C)c2ccsc12

>  <Energy>  (12) 
92.47592691356027

>  <Genealogy>  (12) 
CN(C)CCNCC[NH2+]c1c2ccccc2[n+](C)c2ccsc12 (protonated)
CN(C)CCNCC[NH2+]c1c2ccccc2[n+](C)c2ccsc12 (3D coordinates assigned)
CN(C)CCNCC[NH2+]c1c2ccccc2[n+](C)c2ccsc12 (optimized conformer: 92.47592691356027 kcal/mol)

>  <smiles>  (12) 
CN(C)CCNCCNc1c2ccccc2[n+](C)c2ccsc12

>  <score_type>  (12) 
oracle

>  <origin>  (12) 
adg

>  <m_score__min__energy>  (12) 
-3.0899999999999999

>  <m_primary>  (12) 
energy

$$$$
12:0
     RDKit          3D

 84 85  0  0  0  0  0  0  0  0999 V2000
   54.2970   30.7780   51.8740 C   0  0  0  0  0  0  0  0  0  0  0  0
   55.7450   31.1980   52.1200 C   0  0  0  0  0  0  0  0  0  0  0  0
   56.6720   30.0610   51.9100 N   0  0  0  0  0  0  0  0  0  0  0  0
   56.9610   29.3480   53.1830 C   0  0  0  0  0  0  0  0  0  0  0  0
   58.4210   28.8990   53.3360 C   0  0  0  0  0  0  0  0  0  0  0  0
   57.8860   30.4780   51.1690 C   0  0  0  0  0  0  0  0  0  0  0  0
   58.3410   31.9000   51.5500 C   0  0  0  0  0  0  0  0  0  0  0  0
   58.3980   32.7370   50.4090 O   0  0  0  0  0  0  0  0  0  0  0  0
   59.5600   33.5460   50.4160 C   0  0  0  0  0  0  0  0  0  0  0  0
   59.8190   34.1280   49.0300 C   0  0  0  0  0  0  0  0  0  0  0  0
   59.0070   33.4820   48.0650 O   0  0  0  0  0  0  0  0  0  0  0  0
   58.9580   34.1900   46.8400 C   0  0  0  0  0  0  0  0  0  0  0  0
   57.8310   33.6740   45.9350 C   0  0  0  0  0  0  0  0  0  0  0  0
   58.2450   32.4940   45.2780 O   0  0  0  0  0  0  0  0  0  0  0  0
   57.7690   32.4680   43.9440 C   0  0  0  0  0  0  0  0  0  0  0  0
   56.9930   31.1730   43.6920 C   0  0  0  0  0  0  0  0  0  0  0  0
   56.7610   30.4810   44.9050 O   0  0  0  0  0  0  0  0  0  0  0  0
   56.8820   29.0780   44.7420 C   0  0  0  0  0  0  0  0  0  0  0  0
   58.3020   28.7210   44.2760 C   0  0  0  0  0  0  0  0  0  0  0  0
   59.3120   29.7170   44.6770 N   0  0  0  0  0  0  0  0  0  0  0  0
   60.4630   29.0970   45.3470 C   0  0  0  0  0  0  0  0  0  0  0  0
   60.0260   28.4980   46.6910 C   0  0  0  0  0  0  0  0  0  0  0  0
   59.2540   29.4950   47.5660 C   0  0  0  0  0  0  0  0  0  0  0  0
   59.7590   30.8610   47.4060 N   0  0  0  0  0  0  0  0  0  0  0  0
   61.0270   31.3260   47.9100 C   0  0  0  0  0  0  0  0  0  0  0  0
   61.8690   32.1270   47.1220 C   0  0  0  0  0  0  0  0  0  0  0  0
   63.1290   32.5200   47.5830 C   0  0  0  0  0  0  0  0  0  0  0  0
   63.9490   33.3010   46.7660 O   0  0  0  0  0  0  0  0  0  0  0  0
   63.5640   32.1230   48.8580 C   0  0  0  0  0  0  0  0  0  0  0  0
   64.8400   32.4860   49.3280 C   0  0  0  0  0  0  0  0  0  0  0  0
   65.2750   32.0650   50.5870 C   0  0  0  0  0  0  0  0  0  0  0  0
   64.4430   31.2890   51.3930 C   0  0  0  0  0  0  0  0  0  0  0  0
   63.1730   30.9290   50.9470 C   0  0  0  0  0  0  0  0  0  0  0  0
   62.7160   31.3360   49.6780 C   0  0  0  0  0  0  0  0  0  0  0  0
   61.4420   30.9540   49.2030 C   0  0  0  0  0  0  0  0  0  0  0  0
   60.6020   30.1640   49.9900 O   0  0  0  0  0  0  0  0  0  0  0  0
   60.8870   28.7980   50.2550 C   0  0  0  0  0  0  0  0  0  0  0  0
   53.7891   30.6307   52.8385 H   0  0  0  0  0  0  0  0  0  0  0  0
   53.7794   31.5630   51.3032 H   0  0  0  0  0  0  0  0  0  0  0  0
   54.2798   29.8379   51.3032 H   0  0  0  0  0  0  0  0  0  0  0  0
   56.0072   32.0088   51.4245 H   0  0  0  0  0  0  0  0  0  0  0  0
   55.8386   31.5379   53.1620 H   0  0  0  0  0  0  0  0  0  0  0  0
   56.7179   30.0213   54.0182 H   0  0  0  0  0  0  0  0  0  0  0  0
   56.3483   28.4344   53.1794 H   0  0  0  0  0  0  0  0  0  0  0  0
   58.6709   28.8221   54.4045 H   0  0  0  0  0  0  0  0  0  0  0  0
   58.5551   27.9181   52.8566 H   0  0  0  0  0  0  0  0  0  0  0  0
   59.0831   29.6350   52.8566 H   0  0  0  0  0  0  0  0  0  0  0  0
   58.6993   29.7731   51.3962 H   0  0  0  0  0  0  0  0  0  0  0  0
   57.6435   30.4773   50.0961 H   0  0  0  0  0  0  0  0  0  0  0  0
   57.6282   32.3244   52.2723 H   0  0  0  0  0  0  0  0  0  0  0  0
   59.3468   31.8399   51.9913 H   0  0  0  0  0  0  0  0  0  0  0  0
   59.4232   34.3686   51.1334 H   0  0  0  0  0  0  0  0  0  0  0  0
   60.4212   32.9262   50.7063 H   0  0  0  0  0  0  0  0  0  0  0  0
   59.5863   35.2031   49.0387 H   0  0  0  0  0  0  0  0  0  0  0  0
   60.8763   33.9730   48.7690 H   0  0  0  0  0  0  0  0  0  0  0  0
   58.7874   35.2561   47.0503 H   0  0  0  0  0  0  0  0  0  0  0  0
   59.9146   34.0413   46.3177 H   0  0  0  0  0  0  0  0  0  0  0  0
   56.9420   33.4587   46.5461 H   0  0  0  0  0  0  0  0  0  0  0  0
   57.5890   34.4409   45.1844 H   0  0  0  0  0  0  0  0  0  0  0  0
   57.1053   33.3291   43.7769 H   0  0  0  0  0  0  0  0  0  0  0  0
   58.6240   32.5175   43.2538 H   0  0  0  0  0  0  0  0  0  0  0  0
   56.0271   31.4165   43.2255 H   0  0  0  0  0  0  0  0  0  0  0  0
   57.5881   30.5293   43.0275 H   0  0  0  0  0  0  0  0  0  0  0  0
   56.6786   28.5813   45.7022 H   0  0  0  0  0  0  0  0  0  0  0  0
   56.1590   28.7398   43.9850 H   0  0  0  0  0  0  0  0  0  0  0  0
   58.5783   27.7487   44.7098 H   0  0  0  0  0  0  0  0  0  0  0  0
   58.2882   28.6937   43.1764 H   0  0  0  0  0  0  0  0  0  0  0  0
   58.8800   30.4250   45.3160 H   0  0  0  0  0  0  0  0  0  0  0  0
   60.8709   28.2999   44.7080 H   0  0  0  0  0  0  0  0  0  0  0  0
   61.2331   29.8620   45.5252 H   0  0  0  0  0  0  0  0  0  0  0  0
   59.3800   27.6295   46.4948 H   0  0  0  0  0  0  0  0  0  0  0  0
   60.9372   28.2148   47.2383 H   0  0  0  0  0  0  0  0  0  0  0  0
   58.1919   29.4719   47.2805 H   0  0  0  0  0  0  0  0  0  0  0  0
   59.3860   29.2017   48.6179 H   0  0  0  0  0  0  0  0  0  0  0  0
   59.0820   31.5640   47.0320 H   0  0  0  0  0  0  0  0  0  0  0  0
   61.5319   32.4504   46.1261 H   0  0  0  0  0  0  0  0  0  0  0  0
   64.8990   33.0250   46.5380 H   0  0  0  0  0  0  0  0  0  0  0  0
   65.4984   33.1046   48.7005 H   0  0  0  0  0  0  0  0  0  0  0  0
   66.2768   32.3465   50.9435 H   0  0  0  0  0  0  0  0  0  0  0  0
   64.7902   30.9601   52.3836 H   0  0  0  0  0  0  0  0  0  0  0  0
   62.5211   30.3213   51.5918 H   0  0  0  0  0  0  0  0  0  0  0  0
   60.9211   28.6348   51.3423 H   0  0  0  0  0  0  0  0  0  0  0  0
   60.1011   28.1672   49.8140 H   0  0  0  0  0  0  0  0  0  0  0  0
   61.8595   28.5341   49.8140 H   0  0  0  0  0  0  0  0  0  0  0  0
  1  2  1  0
  2  3  1  0
  3  4  1  0
  4  5  1  0
  3  6  1  0
  6  7  1  0
  7  8  1  0
  8  9  1  0
  9 10  1  0
 10 11  1  0
 11 12  1  0
 12 13  1  0
 13 14  1  0
 14 15  1  0
 15 16  1  0
 16 17  1  0
 17 18  1  0
 18 19  1  0
 19 20  1  0
 20 21  1  0
 21 22  1  0
 22 23  1  0
 23 24  1  0
 24 25  1  0
 25 26  2  0
 26 27  1  0
 27 28  1  0
 27 29  2  0
 29 30  1  0
 30 31  2  0
 31 32  1  0
 32 33  2  0
 33 34  1  0
 34 35  2  0
 35 36  1  0
 36 37  1  0
 35 25  1  0
 34 29  1  0
  1 38  1  0
  1 39  1  0
  1 40  1  0
  2 41  1  0
  2 42  1  0
  4 43  1  0
  4 44  1  0
  5 45  1  0
  5 46  1  0
  5 47  1  0
  6 48  1  0
  6 49  1  0
  7 50  1  0
  7 51  1  0
  9 52  1  0
  9 53  1  0
 10 54  1  0
 10 55  1  0
 12 56  1  0
 12 57  1  0
 13 58  1  0
 13 59  1  0
 15 60  1  0
 15 61  1  0
 16 62  1  0
 16 63  1  0
 18 64  1  0
 18 65  1  0
 19 66  1  0
 19 67  1  0
 20 68  1  0
 21 69  1  0
 21 70  1  0
 22 71  1  0
 22 72  1  0
 23 73  1  0
 23 74  1  0
 24 75  1  0
 26 76  1  0
 28 77  1  0
 30 78  1  0
 31 79  1  0
 32 80  1  0
 33 81  1  0
 37 82  1  0
 37 83  1  0
 37 84  1  0
M  END
>  <UniqueID>  (13) 
12

>  <SMILES>  (13) 
CCN(CC)CCOCCOCCOCCOCCNCCCNc1cc(O)c2ccccc2c1OC

>  <Energy>  (13) 
89.6565094866232

>  <Genealogy>  (13) 
CCN(CC)CCOCCOCCOCCOCCNCCCNc1cc(O)c2ccccc2c1OC (3D coordinates assigned)
CCN(CC)CCOCCOCCOCCOCCNCCCNc1cc(O)c2ccccc2c1OC (optimized conformer: 89.6565094866232 kcal/mol)

>  <smiles>  (13) 
CCN(CC)CCOCCOCCOCCOCCNCCCNc1cc(O)c2ccccc2c1OC

>  <score_type>  (13) 
oracle

>  <origin>  (13) 
adg

>  <m_score__min__energy>  (13) 
-6.6900000000000004

>  <m_primary>  (13) 
energy

$$$$
13:0
     RDKit          3D

 49 51  0  0  0  0  0  0  0  0999 V2000
   64.7220   32.1980   49.8690 C   0  0  0  0  0  0  0  0  0  0  0  0
   64.4830   33.1040   48.6550 C   0  0  0  0  0  0  0  0  0  0  0  0
   63.3430   32.6430   47.8180 N   0  0  2  0  0  0  0  0  0  0  0  0
   63.0380   33.6380   46.7690 C   0  0  0  0  0  0  0  0  0  0  0  0
   62.1330   32.4140   48.6510 C   0  0  0  0  0  0  0  0  0  0  0  0
   61.4220   31.0960   48.2970 C   0  0  0  0  0  0  0  0  0  0  0  0
   61.7200   30.7360   46.9620 O   0  0  0  0  0  0  0  0  0  0  0  0
   60.6520   30.0170   46.3830 C   0  0  0  0  0  0  0  0  0  0  0  0
   59.5590   29.7970   47.4270 C   0  0  0  0  0  0  0  0  0  0  0  0
   58.5300   30.7820   47.3080 O   0  0  0  0  0  0  0  0  0  0  0  0
   58.3580   31.5580   46.1530 C   0  0  0  0  0  0  0  0  0  0  0  0
   58.7780   32.9020   46.1450 C   0  0  0  0  0  0  0  0  0  0  0  0
   59.3170   33.5140   47.2930 C   0  0  0  0  0  0  0  0  0  0  0  0
   59.7600   34.8390   47.2420 C   0  0  0  0  0  0  0  0  0  0  0  0
   59.6650   35.5670   46.0540 C   0  0  0  0  0  0  0  0  0  0  0  0
   59.1230   34.9760   44.9100 C   0  0  0  0  0  0  0  0  0  0  0  0
   58.6780   33.6500   44.9500 C   0  0  0  0  0  0  0  0  0  0  0  0
   58.1490   33.0840   43.8340 N   0  0  0  0  0  0  0  0  0  0  0  0
   57.6940   31.8040   43.8220 C   0  0  0  0  0  0  0  0  0  0  0  0
   57.1350   31.2790   42.6510 C   0  0  0  0  0  0  0  0  0  0  0  0
   56.6340   29.9750   42.6370 C   0  0  0  0  0  0  0  0  0  0  0  0
   56.6820   29.1930   43.7940 C   0  0  0  0  0  0  0  0  0  0  0  0
   57.2420   29.7060   44.9680 C   0  0  0  0  0  0  0  0  0  0  0  0
   57.7730   31.0090   44.9910 C   0  0  0  0  0  0  0  0  0  0  0  0
   64.5697   32.7752   50.7929 H   0  0  0  0  0  0  0  0  0  0  0  0
   64.0154   31.3554   49.8424 H   0  0  0  0  0  0  0  0  0  0  0  0
   65.7523   31.8135   49.8424 H   0  0  0  0  0  0  0  0  0  0  0  0
   64.2703   34.1228   49.0112 H   0  0  0  0  0  0  0  0  0  0  0  0
   65.3891   33.0753   48.0320 H   0  0  0  0  0  0  0  0  0  0  0  0
   63.5970   31.7480   47.3360 H   0  0  0  0  0  0  0  0  0  0  0  0
   62.7465   34.5888   47.2391 H   0  0  0  0  0  0  0  0  0  0  0  0
   63.9289   33.7962   46.1435 H   0  0  0  0  0  0  0  0  0  0  0  0
   62.2115   33.2697   46.1435 H   0  0  0  0  0  0  0  0  0  0  0  0
   62.4327   32.3814   49.7089 H   0  0  0  0  0  0  0  0  0  0  0  0
   61.4304   33.2381   48.4581 H   0  0  0  0  0  0  0  0  0  0  0  0
   61.7663   30.3014   48.9753 H   0  0  0  0  0  0  0  0  0  0  0  0
   60.3353   31.2287   48.4041 H   0  0  0  0  0  0  0  0  0  0  0  0
   60.2414   30.5884   45.5375 H   0  0  0  0  0  0  0  0  0  0  0  0
   61.0178   29.0432   46.0253 H   0  0  0  0  0  0  0  0  0  0  0  0
   59.1197   28.7989   47.2828 H   0  0  0  0  0  0  0  0  0  0  0  0
   60.0088   29.8797   48.4274 H   0  0  0  0  0  0  0  0  0  0  0  0
   59.3897   32.9476   48.2331 H   0  0  0  0  0  0  0  0  0  0  0  0
   60.1849   35.3098   48.1408 H   0  0  0  0  0  0  0  0  0  0  0  0
   60.0178   36.6083   46.0189 H   0  0  0  0  0  0  0  0  0  0  0  0
   59.0460   35.5536   43.9770 H   0  0  0  0  0  0  0  0  0  0  0  0
   57.0901   31.8942   41.7403 H   0  0  0  0  0  0  0  0  0  0  0  0
   56.2010   29.5631   41.7135 H   0  0  0  0  0  0  0  0  0  0  0  0
   56.2777   28.1701   43.7812 H   0  0  0  0  0  0  0  0  0  0  0  0
   57.2676   29.0882   45.8778 H   0  0  0  0  0  0  0  0  0  0  0  0
  1  2  1  0
  2  3  1  0
  3  4  1  0
  3  5  1  0
  5  6  1  0
  6  7  1  0
  7  8  1  0
  8  9  1  0
  9 10  1  0
 10 11  1  0
 11 12  2  0
 12 13  1  0
 13 14  2  0
 14 15  1  0
 15 16  2  0
 16 17  1  0
 17 18  2  0
 18 19  1  0
 19 20  2  0
 20 21  1  0
 21 22  2  0
 22 23  1  0
 23 24  2  0
 24 11  1  0
 17 12  1  0
 24 19  1  0
  1 25  1  0
  1 26  1  0
  1 27  1  0
  2 28  1  0
  2 29  1  0
  3 30  1  6
  4 31  1  0
  4 32  1  0
  4 33  1  0
  5 34  1  0
  5 35  1  0
  6 36  1  0
  6 37  1  0
  8 38  1  0
  8 39  1  0
  9 40  1  0
  9 41  1  0
 13 42  1  0
 14 43  1  0
 15 44  1  0
 16 45  1  0
 20 46  1  0
 21 47  1  0
 22 48  1  0
 23 49  1  0
M  CHG  1   3   1
M  END
>  <UniqueID>  (14) 
13

>  <SMILES>  (14) 
CC[N@H+](C)CCOCCOc1c2ccccc2nc2ccccc12

>  <Energy>  (14) 
63.64953528815276

>  <Genealogy>  (14) 
CC[NH+](C)CCOCCOc1c2ccccc2nc2ccccc12 (protonated)
CC[N@H+](C)CCOCCOc1c2ccccc2nc2ccccc12 (chirality)
CC[N@H+](C)CCOCCOc1c2ccccc2nc2ccccc12 (3D coordinates assigned)
CC[N@H+](C)CCOCCOc1c2ccccc2nc2ccccc12 (optimized conformer: 63.64953528815276 kcal/mol)

>  <smiles>  (14) 
CCN(C)CCOCCOc1c2ccccc2nc2ccccc12

>  <score_type>  (14) 
oracle

>  <origin>  (14) 
adg

>  <m_score__min__energy>  (14) 
-5.3899999999999997

>  <m_primary>  (14) 
energy

$$$$
14:0
     RDKit          3D

 51 54  0  0  0  0  0  0  0  0999 V2000
   59.4730   29.6330   44.8620 C   0  0  0  0  0  0  0  0  0  0  0  0
   58.9700   30.4000   45.9990 N   0  0  0  0  0  0  0  0  0  0  0  0
   59.1920   30.1340   47.2990 C   0  0  0  0  0  0  0  0  0  0  0  0
   58.6730   31.1800   48.0390 C   0  0  0  0  0  0  0  0  0  0  0  0
   58.7400   31.3440   49.5010 C   0  0  0  0  0  0  0  0  0  0  0  0
   58.6280   32.5370   50.2070 C   0  0  0  0  0  0  0  0  0  0  0  0
   58.6990   32.3600   51.6010 C   0  0  0  0  0  0  0  0  0  0  0  0
   58.8630   31.0330   51.9950 C   0  0  0  0  0  0  0  0  0  0  0  0
   58.9200   30.0810   50.6090 S   0  0  0  0  0  0  0  0  0  0  0  0
   58.1370   32.1020   47.2120 N   0  0  0  0  0  0  0  0  0  0  0  0
   58.3520   31.6000   45.9760 C   0  0  0  0  0  0  0  0  0  0  0  0
   57.8950   32.4910   44.4840 S   0  0  0  0  0  0  0  0  0  0  0  0
   58.0160   34.1510   45.2500 C   0  0  0  0  0  0  0  0  0  0  0  0
   59.4680   34.5070   45.5980 C   0  0  0  0  0  0  0  0  0  0  0  0
   59.7640   34.6640   47.1150 C   0  0  0  0  0  0  0  0  0  0  0  0
   60.9160   33.8890   47.6480 N   0  0  0  0  0  0  0  0  0  0  0  0
   62.0790   33.8220   46.7380 C   0  0  0  0  0  0  0  0  0  0  0  0
   63.0210   32.6340   47.0730 C   0  0  1  0  0  0  0  0  0  0  0  0
   64.1670   33.0700   48.0100 C   0  0  0  0  0  0  0  0  0  0  0  0
   63.6820   33.4020   49.4400 C   0  0  0  0  0  0  0  0  0  0  0  0
   62.1850   33.0930   49.6730 C   0  0  2  0  0  0  0  0  0  0  0  0
   61.8370   31.6760   49.1600 C   0  0  0  0  0  0  0  0  0  0  0  0
   62.2630   31.4320   47.6840 C   0  0  0  0  0  0  0  0  0  0  0  0
   61.2620   34.1760   49.0560 C   0  0  0  0  0  0  0  0  0  0  0  0
   60.0419   28.7655   45.2278 H   0  0  0  0  0  0  0  0  0  0  0  0
   58.6269   29.2854   44.2510 H   0  0  0  0  0  0  0  0  0  0  0  0
   60.1290   30.2705   44.2510 H   0  0  0  0  0  0  0  0  0  0  0  0
   59.6965   29.2431   47.7013 H   0  0  0  0  0  0  0  0  0  0  0  0
   58.4974   33.5173   49.7255 H   0  0  0  0  0  0  0  0  0  0  0  0
   58.6312   33.1936   52.3155 H   0  0  0  0  0  0  0  0  0  0  0  0
   58.9414   30.6715   53.0309 H   0  0  0  0  0  0  0  0  0  0  0  0
   57.6239   34.8990   44.5452 H   0  0  0  0  0  0  0  0  0  0  0  0
   57.4303   34.1443   46.1811 H   0  0  0  0  0  0  0  0  0  0  0  0
   60.1174   33.7109   45.2050 H   0  0  0  0  0  0  0  0  0  0  0  0
   59.6582   35.4916   45.1459 H   0  0  0  0  0  0  0  0  0  0  0  0
   59.9586   35.7290   47.3095 H   0  0  0  0  0  0  0  0  0  0  0  0
   58.8785   34.2613   47.6285 H   0  0  0  0  0  0  0  0  0  0  0  0
   61.7150   33.7050   45.7066 H   0  0  0  0  0  0  0  0  0  0  0  0
   62.6542   34.7520   46.8576 H   0  0  0  0  0  0  0  0  0  0  0  0
   63.4519   32.3047   46.1160 H   0  0  0  0  0  0  0  0  0  0  0  0
   64.6464   33.9644   47.5855 H   0  0  0  0  0  0  0  0  0  0  0  0
   64.8691   32.2267   48.0871 H   0  0  0  0  0  0  0  0  0  0  0  0
   63.8486   34.4737   49.6237 H   0  0  0  0  0  0  0  0  0  0  0  0
   64.2542   32.7653   50.1308 H   0  0  0  0  0  0  0  0  0  0  0  0
   62.0026   33.1152   50.7575 H   0  0  0  0  0  0  0  0  0  0  0  0
   60.7488   31.5347   49.2368 H   0  0  0  0  0  0  0  0  0  0  0  0
   62.3939   30.9595   49.7816 H   0  0  0  0  0  0  0  0  0  0  0  0
   61.3604   31.2438   47.0841 H   0  0  0  0  0  0  0  0  0  0  0  0
   62.9461   30.5698   47.6744 H   0  0  0  0  0  0  0  0  0  0  0  0
   60.3339   34.2255   49.6444 H   0  0  0  0  0  0  0  0  0  0  0  0
   61.8063   35.1316   49.0785 H   0  0  0  0  0  0  0  0  0  0  0  0
  1  2  1  0
  2  3  1  0
  3  4  2  0
  4  5  1  0
  5  6  2  0
  6  7  1  0
  7  8  2  0
  8  9  1  0
  4 10  1  0
 10 11  2  0
 11 12  1  0
 12 13  1  0
 13 14  1  0
 14 15  1  0
 15 16  1  0
 16 17  1  0
 17 18  1  0
 18 19  1  0
 19 20  1  0
 20 21  1  0
 21 22  1  0
 22 23  1  0
 21 24  1  0
 11  2  1  0
 24 16  1  0
  9  5  1  0
 23 18  1  0
  1 25  1  0
  1 26  1  0
  1 27  1  0
  3 28  1  0
  6 29  1  0
  7 30  1  0
  8 31  1  0
 13 32  1  0
 13 33  1  0
 14 34  1  0
 14 35  1  0
 15 36  1  0
 15 37  1  0
 17 38  1  0
 17 39  1  0
 18 40  1  6
 19 41  1  0
 19 42  1  0
 20 43  1  0
 20 44  1  0
 21 45  1  1
 22 46  1  0
 22 47  1  0
 23 48  1  0
 23 49  1  0
 24 50  1  0
 24 51  1  0
M  END
>  <UniqueID>  (15) 
14

>  <SMILES>  (15) 
Cn1cc(-c2cccs2)nc1SCCCN1CC2CCC(CC2)C1

>  <Energy>  (15) 
118.64161101579533

>  <Genealogy>  (15) 
Cn1cc(-c2cccs2)nc1SCCCN1CC2CCC(CC2)C1 (3D coordinates assigned)
Cn1cc(-c2cccs2)nc1SCCCN1CC2CCC(CC2)C1 (nonaromatic ring conformer: 118.64161101579533 kcal/mol)

>  <smiles>  (15) 
Cn1cc(-c2cccs2)nc1SCCCN1CC2CCC(CC2)C1

>  <score_type>  (15) 
oracle

>  <origin>  (15) 
adg

>  <m_score__min__energy>  (15) 
-6.9900000000000002

>  <m_primary>  (15) 
energy

$$$$
15:0
     RDKit          3D

 72 75  0  0  0  0  0  0  0  0999 V2000
   68.2800   33.7490   50.5080 C   0  0  0  0  0  0  0  0  0  0  0  0
   66.7800   33.6180   50.7870 C   0  0  0  0  0  0  0  0  0  0  0  0
   66.3890   32.3060   51.3500 N   0  0  0  0  0  0  0  0  0  0  0  0
   65.3230   31.6020   50.5900 C   0  0  0  0  0  0  0  0  0  0  0  0
   64.7630   32.3720   49.3830 C   0  0  0  0  0  0  0  0  0  0  0  0
   66.2690   32.3010   52.8250 C   0  0  0  0  0  0  0  0  0  0  0  0
   66.1640   33.7380   53.3720 C   0  0  0  0  0  0  0  0  0  0  0  0
   64.9360   33.9450   54.1580 N   0  0  0  0  0  0  0  0  0  0  0  0
   63.7750   33.4220   53.4730 C   0  0  0  0  0  0  0  0  0  0  0  0
   62.9450   32.4740   54.0980 C   0  0  0  0  0  0  0  0  0  0  0  0
   61.8060   31.9930   53.4490 C   0  0  0  0  0  0  0  0  0  0  0  0
   61.4800   32.4520   52.1690 C   0  0  0  0  0  0  0  0  0  0  0  0
   60.3750   31.9830   51.5430 N   0  0  0  0  0  0  0  0  0  0  0  0
   60.0240   32.4120   50.3050 C   0  0  0  0  0  0  0  0  0  0  0  0
   58.5290   31.7280   49.5630 S   0  0  0  0  0  0  0  0  0  0  0  0
   59.3910   30.4330   48.5980 C   0  0  0  0  0  0  0  0  0  0  0  0
   59.3550   30.7180   47.0980 C   0  0  0  0  0  0  0  0  0  0  0  0
   58.2290   30.0790   46.5090 O   0  0  0  0  0  0  0  0  0  0  0  0
   57.7880   30.3960   45.2220 C   0  0  0  0  0  0  0  0  0  0  0  0
   58.3200   31.5240   44.5890 C   0  0  0  0  0  0  0  0  0  0  0  0
   57.9000   31.8770   43.3040 C   0  0  0  0  0  0  0  0  0  0  0  0
   56.9460   31.0990   42.6450 C   0  0  0  0  0  0  0  0  0  0  0  0
   56.3990   29.9770   43.2730 C   0  0  0  0  0  0  0  0  0  0  0  0
   56.8110   29.6170   44.5730 C   0  0  0  0  0  0  0  0  0  0  0  0
   56.2600   28.5190   45.2500 O   0  0  0  0  0  0  0  0  0  0  0  0
   56.9900   27.3640   45.6470 C   0  0  0  0  0  0  0  0  0  0  0  0
   60.8030   33.3290   49.6440 N   0  0  0  0  0  0  0  0  0  0  0  0
   60.4510   33.7600   48.3170 C   0  0  0  0  0  0  0  0  0  0  0  0
   61.2730   33.4320   47.2260 C   0  0  0  0  0  0  0  0  0  0  0  0
   60.9270   33.8490   45.9370 C   0  0  0  0  0  0  0  0  0  0  0  0
   59.7630   34.5960   45.7320 C   0  0  0  0  0  0  0  0  0  0  0  0
   58.9420   34.9270   46.8140 C   0  0  0  0  0  0  0  0  0  0  0  0
   59.2860   34.5140   48.1050 C   0  0  0  0  0  0  0  0  0  0  0  0
   61.9320   33.8330   50.2420 C   0  0  0  0  0  0  0  0  0  0  0  0
   62.6480   34.6770   49.6340 O   0  0  0  0  0  0  0  0  0  0  0  0
   62.2970   33.4020   51.5290 C   0  0  0  0  0  0  0  0  0  0  0  0
   63.4450   33.8820   52.1850 C   0  0  0  0  0  0  0  0  0  0  0  0
   68.8274   33.7968   51.4609 H   0  0  0  0  0  0  0  0  0  0  0  0
   68.6232   32.8774   49.9313 H   0  0  0  0  0  0  0  0  0  0  0  0
   68.4669   34.6669   49.9313 H   0  0  0  0  0  0  0  0  0  0  0  0
   66.4905   34.4023   51.5019 H   0  0  0  0  0  0  0  0  0  0  0  0
   66.2646   33.7181   49.8204 H   0  0  0  0  0  0  0  0  0  0  0  0
   65.7371   30.6507   50.2245 H   0  0  0  0  0  0  0  0  0  0  0  0
   64.4826   31.4756   51.2884 H   0  0  0  0  0  0  0  0  0  0  0  0
   64.1505   33.2142   49.7374 H   0  0  0  0  0  0  0  0  0  0  0  0
   65.5953   32.7547   48.7740 H   0  0  0  0  0  0  0  0  0  0  0  0
   64.1425   31.6981   48.7740 H   0  0  0  0  0  0  0  0  0  0  0  0
   65.3674   31.7397   53.1113 H   0  0  0  0  0  0  0  0  0  0  0  0
   67.1666   31.8276   53.2495 H   0  0  0  0  0  0  0  0  0  0  0  0
   67.0341   33.9369   54.0150 H   0  0  0  0  0  0  0  0  0  0  0  0
   66.1357   34.4252   52.5135 H   0  0  0  0  0  0  0  0  0  0  0  0
   64.8170   34.9630   54.3710 H   0  0  0  0  0  0  0  0  0  0  0  0
   65.0380   33.4480   55.0740 H   0  0  0  0  0  0  0  0  0  0  0  0
   63.1949   32.1089   55.1051 H   0  0  0  0  0  0  0  0  0  0  0  0
   61.1636   31.2511   53.9459 H   0  0  0  0  0  0  0  0  0  0  0  0
   60.4401   30.3853   48.9254 H   0  0  0  0  0  0  0  0  0  0  0  0
   58.8752   29.4776   48.7748 H   0  0  0  0  0  0  0  0  0  0  0  0
   59.2846   31.8036   46.9349 H   0  0  0  0  0  0  0  0  0  0  0  0
   60.2741   30.3303   46.6343 H   0  0  0  0  0  0  0  0  0  0  0  0
   59.0734   32.1367   45.1057 H   0  0  0  0  0  0  0  0  0  0  0  0
   58.3203   32.7666   42.8122 H   0  0  0  0  0  0  0  0  0  0  0  0
   56.6242   31.3701   41.6287 H   0  0  0  0  0  0  0  0  0  0  0  0
   55.6434   29.3716   42.7510 H   0  0  0  0  0  0  0  0  0  0  0  0
   57.0235   27.3110   46.7452 H   0  0  0  0  0  0  0  0  0  0  0  0
   56.4962   26.4642   45.2514 H   0  0  0  0  0  0  0  0  0  0  0  0
   58.0146   27.4239   45.2514 H   0  0  0  0  0  0  0  0  0  0  0  0
   62.1902   32.8462   47.3860 H   0  0  0  0  0  0  0  0  0  0  0  0
   61.5709   33.5892   45.0838 H   0  0  0  0  0  0  0  0  0  0  0  0
   59.4927   34.9239   44.7174 H   0  0  0  0  0  0  0  0  0  0  0  0
   58.0253   35.5124   46.6499 H   0  0  0  0  0  0  0  0  0  0  0  0
   58.6423   34.7805   48.9562 H   0  0  0  0  0  0  0  0  0  0  0  0
   64.0891   34.6221   51.6876 H   0  0  0  0  0  0  0  0  0  0  0  0
  1  2  1  0
  2  3  1  0
  3  4  1  0
  4  5  1  0
  3  6  1  0
  6  7  1  0
  7  8  1  0
  8  9  1  0
  9 10  2  0
 10 11  1  0
 11 12  2  0
 12 13  1  0
 13 14  2  0
 14 15  1  0
 15 16  1  0
 16 17  1  0
 17 18  1  0
 18 19  1  0
 19 20  2  0
 20 21  1  0
 21 22  2  0
 22 23  1  0
 23 24  2  0
 24 25  1  0
 25 26  1  0
 14 27  1  0
 27 28  1  0
 28 29  2  0
 29 30  1  0
 30 31  2  0
 31 32  1  0
 32 33  2  0
 27 34  1  0
 34 35  2  0
 34 36  1  0
 36 37  2  0
 37  9  1  0
 36 12  1  0
 24 19  1  0
 33 28  1  0
  1 38  1  0
  1 39  1  0
  1 40  1  0
  2 41  1  0
  2 42  1  0
  4 43  1  0
  4 44  1  0
  5 45  1  0
  5 46  1  0
  5 47  1  0
  6 48  1  0
  6 49  1  0
  7 50  1  0
  7 51  1  0
  8 52  1  0
  8 53  1  0
 10 54  1  0
 11 55  1  0
 16 56  1  0
 16 57  1  0
 17 58  1  0
 17 59  1  0
 20 60  1  0
 21 61  1  0
 22 62  1  0
 23 63  1  0
 26 64  1  0
 26 65  1  0
 26 66  1  0
 29 67  1  0
 30 68  1  0
 31 69  1  0
 32 70  1  0
 33 71  1  0
 37 72  1  0
M  CHG  1   8   1
M  END
>  <UniqueID>  (16) 
15

>  <SMILES>  (16) 
CCN(CC)CC[NH2+]c1ccc2nc(SCCOc3ccccc3OC)n(-c3ccccc3)c(=O)c2c1

>  <Energy>  (16) 
93.42133889977464

>  <Genealogy>  (16) 
CCN(CC)CC[NH2+]c1ccc2nc(SCCOc3ccccc3OC)n(-c3ccccc3)c(=O)c2c1 (protonated)
CCN(CC)CC[NH2+]c1ccc2nc(SCCOc3ccccc3OC)n(-c3ccccc3)c(=O)c2c1 (3D coordinates assigned)
CCN(CC)CC[NH2+]c1ccc2nc(SCCOc3ccccc3OC)n(-c3ccccc3)c(=O)c2c1 (optimized conformer: 93.42133889977464 kcal/mol)

>  <smiles>  (16) 
CCN(CC)CCNc1ccc2nc(SCCOc3ccccc3OC)n(-c3ccccc3)c(=O)c2c1

>  <score_type>  (16) 
oracle

>  <origin>  (16) 
adg

>  <m_score__min__energy>  (16) 
-6.9000000000000004

>  <m_primary>  (16) 
energy

$$$$
16:0
     RDKit          3D

 42 44  0  0  0  0  0  0  0  0999 V2000
   58.6150   31.9670   49.4200 C   0  0  0  0  0  0  0  0  0  0  0  0
   58.9150   31.3470   48.0780 C   0  0  0  0  0  0  0  0  0  0  0  0
   59.3790   30.0340   48.0950 C   0  0  0  0  0  0  0  0  0  0  0  0
   59.4210   29.2700   46.9270 C   0  0  0  0  0  0  0  0  0  0  0  0
   59.9370   27.8530   47.0360 C   0  0  0  0  0  0  0  0  0  0  0  0
   58.9640   29.7990   45.7400 N   0  0  0  0  0  0  0  0  0  0  0  0
   59.0120   28.9910   44.5000 C   0  0  0  0  0  0  0  0  0  0  0  0
   58.4580   31.0880   45.7030 C   0  0  0  0  0  0  0  0  0  0  0  0
   57.8000   31.5850   44.5530 C   0  0  0  0  0  0  0  0  0  0  0  0
   57.3940   32.9110   44.4770 C   0  0  0  0  0  0  0  0  0  0  0  0
   57.7180   33.7960   45.4930 C   0  0  0  0  0  0  0  0  0  0  0  0
   58.3750   33.3570   46.6550 C   0  0  0  0  0  0  0  0  0  0  0  0
   59.0820   34.3640   47.4300 N   0  0  0  0  0  0  0  0  0  0  0  0
   60.3560   34.7350   46.7860 C   0  0  0  0  0  0  0  0  0  0  0  0
   61.4980   33.8800   47.2730 C   0  0  0  0  0  0  0  0  0  0  0  0
   62.6990   33.8120   46.5520 C   0  0  0  0  0  0  0  0  0  0  0  0
   63.7740   33.0960   47.0810 C   0  0  0  0  0  0  0  0  0  0  0  0
   63.6440   32.4570   48.3160 C   0  0  0  0  0  0  0  0  0  0  0  0
   62.4320   32.5420   49.0040 C   0  0  0  0  0  0  0  0  0  0  0  0
   61.3970   33.2490   48.4760 N   0  0  0  0  0  0  0  0  0  0  0  0
   58.5850   31.9480   46.8360 C   0  0  0  0  0  0  0  0  0  0  0  0
   58.9440   31.2872   50.2198 H   0  0  0  0  0  0  0  0  0  0  0  0
   59.1496   32.9242   49.5094 H   0  0  0  0  0  0  0  0  0  0  0  0
   57.5327   32.1418   49.5094 H   0  0  0  0  0  0  0  0  0  0  0  0
   59.7178   29.5918   49.0435 H   0  0  0  0  0  0  0  0  0  0  0  0
   60.0366   27.5796   48.0968 H   0  0  0  0  0  0  0  0  0  0  0  0
   59.2310   27.1669   46.5452 H   0  0  0  0  0  0  0  0  0  0  0  0
   60.9189   27.7816   46.5452 H   0  0  0  0  0  0  0  0  0  0  0  0
   59.0754   27.9240   44.7598 H   0  0  0  0  0  0  0  0  0  0  0  0
   58.1016   29.1711   43.9095 H   0  0  0  0  0  0  0  0  0  0  0  0
   59.8947   29.2776   43.9095 H   0  0  0  0  0  0  0  0  0  0  0  0
   57.6070   30.9104   43.7058 H   0  0  0  0  0  0  0  0  0  0  0  0
   56.8145   33.2592   43.6093 H   0  0  0  0  0  0  0  0  0  0  0  0
   57.4566   34.8593   45.3882 H   0  0  0  0  0  0  0  0  0  0  0  0
   59.2800   34.0890   48.4080 H   0  0  0  0  0  0  0  0  0  0  0  0
   58.4890   35.2230   47.4970 H   0  0  0  0  0  0  0  0  0  0  0  0
   60.2552   34.6087   45.6979 H   0  0  0  0  0  0  0  0  0  0  0  0
   60.5777   35.7813   47.0432 H   0  0  0  0  0  0  0  0  0  0  0  0
   62.7928   34.3177   45.5797 H   0  0  0  0  0  0  0  0  0  0  0  0
   64.7219   33.0351   46.5262 H   0  0  0  0  0  0  0  0  0  0  0  0
   64.4870   31.8931   48.7419 H   0  0  0  0  0  0  0  0  0  0  0  0
   62.3141   32.0367   49.9739 H   0  0  0  0  0  0  0  0  0  0  0  0
  1  2  1  0
  2  3  2  0
  3  4  1  0
  4  5  1  0
  4  6  2  0
  6  7  1  0
  6  8  1  0
  8  9  2  0
  9 10  1  0
 10 11  2  0
 11 12  1  0
 12 13  1  0
 13 14  1  0
 14 15  1  0
 15 16  2  0
 16 17  1  0
 17 18  2  0
 18 19  1  0
 19 20  2  0
 12 21  2  0
 21  2  1  0
 21  8  1  0
 20 15  1  0
  1 22  1  0
  1 23  1  0
  1 24  1  0
  3 25  1  0
  5 26  1  0
  5 27  1  0
  5 28  1  0
  7 29  1  0
  7 30  1  0
  7 31  1  0
  9 32  1  0
 10 33  1  0
 11 34  1  0
 13 35  1  0
 13 36  1  0
 14 37  1  0
 14 38  1  0
 16 39  1  0
 17 40  1  0
 18 41  1  0
 19 42  1  0
M  CHG  2   6   1  13   1
M  END
>  <UniqueID>  (17) 
16

>  <SMILES>  (17) 
Cc1cc(C)[n+](C)c2cccc([NH2+]Cc3ccccn3)c12

>  <Energy>  (17) 
73.18636044866547

>  <Genealogy>  (17) 
Cc1cc(C)[n+](C)c2cccc([NH2+]Cc3ccccn3)c12 (protonated)
Cc1cc(C)[n+](C)c2cccc([NH2+]Cc3ccccn3)c12 (3D coordinates assigned)
Cc1cc(C)[n+](C)c2cccc([NH2+]Cc3ccccn3)c12 (optimized conformer: 73.18636044866547 kcal/mol)

>  <smiles>  (17) 
Cc1cc(C)[n+](C)c2cccc(NCc3ccccn3)c12

>  <score_type>  (17) 
oracle

>  <origin>  (17) 
adg

>  <m_score__min__energy>  (17) 
-3.7599999999999998

>  <m_primary>  (17) 
energy

$$$$
17:0
     RDKit          3D

 61 63  0  0  0  0  0  0  0  0999 V2000
   59.2770   33.4530   51.1950 C   0  0  0  0  0  0  0  0  0  0  0  0
   59.6860   34.1840   49.9260 C   0  0  0  0  0  0  0  0  0  0  0  0
   60.6850   33.4350   49.2670 O   0  0  0  0  0  0  0  0  0  0  0  0
   61.7120   34.2840   48.7880 C   0  0  0  0  0  0  0  0  0  0  0  0
   62.3760   33.6800   47.5510 C   0  0  0  0  0  0  0  0  0  0  0  0
   62.4990   32.2850   47.7240 O   0  0  0  0  0  0  0  0  0  0  0  0
   63.7250   31.9890   48.3580 C   0  0  0  0  0  0  0  0  0  0  0  0
   63.4490   31.4470   49.7590 C   0  0  0  0  0  0  0  0  0  0  0  0
   62.0040   31.2660   49.9590 N   0  0  0  0  0  0  0  0  0  0  0  0
   61.6790   29.9420   50.5170 C   0  0  0  0  0  0  0  0  0  0  0  0
   60.2830   29.4240   50.1130 C   0  0  0  0  0  0  0  0  0  0  0  0
   59.4520   30.4090   49.2600 C   0  0  0  0  0  0  0  0  0  0  0  0
   60.2320   31.0550   48.1740 N   0  0  0  0  0  0  0  0  0  0  0  0
   59.5530   30.9840   46.8810 C   0  0  0  0  0  0  0  0  0  0  0  0
   59.0450   32.1450   46.2240 C   0  0  0  0  0  0  0  0  0  0  0  0
   59.3700   33.4660   46.6370 C   0  0  0  0  0  0  0  0  0  0  0  0
   58.8540   34.5780   45.9750 C   0  0  0  0  0  0  0  0  0  0  0  0
   58.0310   34.4150   44.8730 C   0  0  0  0  0  0  0  0  0  0  0  0
   57.7120   33.1390   44.4250 C   0  0  0  0  0  0  0  0  0  0  0  0
   58.1920   31.9820   45.0920 C   0  0  0  0  0  0  0  0  0  0  0  0
   57.8620   30.7200   44.6430 N   0  0  0  0  0  0  0  0  0  0  0  0
   56.7350   30.5360   43.7000 C   0  0  0  0  0  0  0  0  0  0  0  0
   58.5830   29.6290   45.0740 C   0  0  0  0  0  0  0  0  0  0  0  0
   58.5240   28.3900   44.3850 C   0  0  0  0  0  0  0  0  0  0  0  0
   59.2040   27.2710   44.8540 C   0  0  0  0  0  0  0  0  0  0  0  0
   59.9670   27.3560   46.0100 C   0  0  0  0  0  0  0  0  0  0  0  0
   60.0800   28.5680   46.6860 C   0  0  0  0  0  0  0  0  0  0  0  0
   59.4120   29.7300   46.2240 C   0  0  0  0  0  0  0  0  0  0  0  0
   59.6010   34.0321   52.0723 H   0  0  0  0  0  0  0  0  0  0  0  0
   58.1833   33.3376   51.2154 H   0  0  0  0  0  0  0  0  0  0  0  0
   59.7509   32.4605   51.2154 H   0  0  0  0  0  0  0  0  0  0  0  0
   58.8127   34.2951   49.2664 H   0  0  0  0  0  0  0  0  0  0  0  0
   60.0752   35.1810   50.1799 H   0  0  0  0  0  0  0  0  0  0  0  0
   61.2803   35.2612   48.5258 H   0  0  0  0  0  0  0  0  0  0  0  0
   62.4707   34.4022   49.5757 H   0  0  0  0  0  0  0  0  0  0  0  0
   61.7592   33.8876   46.6642 H   0  0  0  0  0  0  0  0  0  0  0  0
   63.3728   34.1242   47.4129 H   0  0  0  0  0  0  0  0  0  0  0  0
   64.2690   31.2336   47.7720 H   0  0  0  0  0  0  0  0  0  0  0  0
   64.3339   32.9023   48.4289 H   0  0  0  0  0  0  0  0  0  0  0  0
   63.9565   30.4786   49.8802 H   0  0  0  0  0  0  0  0  0  0  0  0
   63.8265   32.1651   50.5019 H   0  0  0  0  0  0  0  0  0  0  0  0
   61.6380   32.0220   50.5790 H   0  0  0  0  0  0  0  0  0  0  0  0
   62.4320   29.2221   50.1640 H   0  0  0  0  0  0  0  0  0  0  0  0
   61.6786   30.0461   51.6121 H   0  0  0  0  0  0  0  0  0  0  0  0
   60.4151   28.4973   49.5353 H   0  0  0  0  0  0  0  0  0  0  0  0
   59.7240   29.2741   51.0484 H   0  0  0  0  0  0  0  0  0  0  0  0
   58.6152   29.8572   48.8070 H   0  0  0  0  0  0  0  0  0  0  0  0
   59.1084   31.2092   49.9320 H   0  0  0  0  0  0  0  0  0  0  0  0
   61.1630   30.5890   48.0820 H   0  0  0  0  0  0  0  0  0  0  0  0
   60.4840   32.0150   48.4700 H   0  0  0  0  0  0  0  0  0  0  0  0
   60.0417   33.6129   47.4956 H   0  0  0  0  0  0  0  0  0  0  0  0
   59.1013   35.5897   46.3290 H   0  0  0  0  0  0  0  0  0  0  0  0
   57.6295   35.2966   44.3519 H   0  0  0  0  0  0  0  0  0  0  0  0
   57.0749   33.0234   43.5358 H   0  0  0  0  0  0  0  0  0  0  0  0
   55.8042   30.3840   44.2662 H   0  0  0  0  0  0  0  0  0  0  0  0
   56.6371   31.4301   43.0667 H   0  0  0  0  0  0  0  0  0  0  0  0
   56.9266   29.6572   43.0667 H   0  0  0  0  0  0  0  0  0  0  0  0
   57.9294   28.3130   43.4628 H   0  0  0  0  0  0  0  0  0  0  0  0
   59.1370   26.3182   44.3084 H   0  0  0  0  0  0  0  0  0  0  0  0
   60.4838   26.4637   46.3932 H   0  0  0  0  0  0  0  0  0  0  0  0
   60.6982   28.6249   47.5941 H   0  0  0  0  0  0  0  0  0  0  0  0
  1  2  1  0
  2  3  1  0
  3  4  1  0
  4  5  1  0
  5  6  1  0
  6  7  1  0
  7  8  1  0
  8  9  1  0
  9 10  1  0
 10 11  1  0
 11 12  1  0
 12 13  1  0
 13 14  1  0
 14 15  2  0
 15 16  1  0
 16 17  2  0
 17 18  1  0
 18 19  2  0
 19 20  1  0
 20 21  2  0
 21 22  1  0
 21 23  1  0
 23 24  2  0
 24 25  1  0
 25 26  2  0
 26 27  1  0
 27 28  2  0
 28 14  1  0
 20 15  1  0
 28 23  1  0
  1 29  1  0
  1 30  1  0
  1 31  1  0
  2 32  1  0
  2 33  1  0
  4 34  1  0
  4 35  1  0
  5 36  1  0
  5 37  1  0
  7 38  1  0
  7 39  1  0
  8 40  1  0
  8 41  1  0
  9 42  1  0
 10 43  1  0
 10 44  1  0
 11 45  1  0
 11 46  1  0
 12 47  1  0
 12 48  1  0
 13 49  1  0
 13 50  1  0
 16 51  1  0
 17 52  1  0
 18 53  1  0
 19 54  1  0
 22 55  1  0
 22 56  1  0
 22 57  1  0
 24 58  1  0
 25 59  1  0
 26 60  1  0
 27 61  1  0
M  CHG  2  13   1  21   1
M  END
>  <UniqueID>  (18) 
17

>  <SMILES>  (18) 
CCOCCOCCNCCC[NH2+]c1c2ccccc2[n+](C)c2ccccc12

>  <Energy>  (18) 
88.13532676146635

>  <Genealogy>  (18) 
CCOCCOCCNCCC[NH2+]c1c2ccccc2[n+](C)c2ccccc12 (protonated)
CCOCCOCCNCCC[NH2+]c1c2ccccc2[n+](C)c2ccccc12 (3D coordinates assigned)
CCOCCOCCNCCC[NH2+]c1c2ccccc2[n+](C)c2ccccc12 (optimized conformer: 88.13532676146635 kcal/mol)

>  <smiles>  (18) 
CCOCCOCCNCCCNc1c2ccccc2[n+](C)c2ccccc12

>  <score_type>  (18) 
oracle

>  <origin>  (18) 
adg

>  <m_score__min__energy>  (18) 
-3.5299999999999998

>  <m_primary>  (18) 
energy

$$$$
18:0
     RDKit          3D

 91 94  0  0  0  0  0  0  0  0999 V2000
   64.5750   33.6770   51.2160 C   0  0  0  0  0  0  0  0  0  0  0  0
   63.2130   34.2780   50.8660 C   0  0  0  0  0  0  0  0  0  0  0  0
   62.3420   33.3110   50.1310 N   0  0  0  0  0  0  0  0  0  0  0  0
   63.1530   32.2360   49.4960 C   0  0  0  0  0  0  0  0  0  0  0  0
   63.2170   32.3750   47.9730 C   0  0  0  0  0  0  0  0  0  0  0  0
   61.5230   33.9840   49.0870 C   0  0  0  0  0  0  0  0  0  0  0  0
   60.0070   33.9500   49.3920 C   0  0  0  0  0  0  0  0  0  0  0  0
   59.5740   32.6130   49.8090 N   0  0  0  0  0  0  0  0  0  0  0  0
   59.6540   31.4810   48.9270 C   0  0  0  0  0  0  0  0  0  0  0  0
   59.1170   31.5830   47.6330 C   0  0  0  0  0  0  0  0  0  0  0  0
   59.0170   30.4310   46.8270 C   0  0  0  0  0  0  0  0  0  0  0  0
   59.6640   29.2730   47.2010 N   0  0  0  0  0  0  0  0  0  0  0  0
   59.9870   28.2440   46.1900 C   0  0  0  0  0  0  0  0  0  0  0  0
   60.1340   29.1290   48.4920 C   0  0  0  0  0  0  0  0  0  0  0  0
   60.5560   27.8720   48.9770 C   0  0  0  0  0  0  0  0  0  0  0  0
   61.0420   27.7210   50.2660 C   0  0  0  0  0  0  0  0  0  0  0  0
   61.1790   28.8290   51.1080 C   0  0  0  0  0  0  0  0  0  0  0  0
   61.6170   28.6880   52.4340 O   0  0  0  0  0  0  0  0  0  0  0  0
   62.9790   28.5610   52.8350 C   0  0  0  0  0  0  0  0  0  0  0  0
   60.8350   30.1100   50.6300 C   0  0  0  0  0  0  0  0  0  0  0  0
   61.1100   31.2490   51.4050 O   0  0  0  0  0  0  0  0  0  0  0  0
   60.6950   31.4300   52.7620 C   0  0  0  0  0  0  0  0  0  0  0  0
   60.8480   32.8940   53.2040 C   0  0  0  0  0  0  0  0  0  0  0  0
   60.3530   33.8170   52.2470 O   0  0  0  0  0  0  0  0  0  0  0  0
   59.2570   34.5700   52.7380 C   0  0  0  0  0  0  0  0  0  0  0  0
   57.9050   33.9160   52.4310 C   0  0  0  0  0  0  0  0  0  0  0  0
   58.0220   32.5040   52.4810 O   0  0  0  0  0  0  0  0  0  0  0  0
   57.0490   31.8730   51.6630 C   0  0  0  0  0  0  0  0  0  0  0  0
   57.5110   30.4850   51.1840 C   0  0  0  0  0  0  0  0  0  0  0  0
   56.9920   29.4220   52.0750 N   0  0  0  0  0  0  0  0  0  0  0  0
   58.0050   29.0400   53.0760 C   0  0  0  0  0  0  0  0  0  0  0  0
   55.7550   29.8480   52.7540 C   0  0  0  0  0  0  0  0  0  0  0  0
   60.1990   30.2510   49.3650 C   0  0  0  0  0  0  0  0  0  0  0  0
   58.2260   30.5460   45.5590 C   0  0  0  0  0  0  0  0  0  0  0  0
   57.4610   29.4790   45.0580 C   0  0  0  0  0  0  0  0  0  0  0  0
   56.7260   29.6230   43.8760 C   0  0  0  0  0  0  0  0  0  0  0  0
   56.7130   30.8450   43.2030 C   0  0  0  0  0  0  0  0  0  0  0  0
   57.4080   31.9380   43.7300 C   0  0  0  0  0  0  0  0  0  0  0  0
   58.1290   31.8030   44.9270 C   0  0  0  0  0  0  0  0  0  0  0  0
   58.7840   32.9940   45.5700 C   0  0  0  0  0  0  0  0  0  0  0  0
   58.6160   32.9140   47.0940 C   0  0  0  0  0  0  0  0  0  0  0  0
   64.6844   33.6287   52.3095 H   0  0  0  0  0  0  0  0  0  0  0  0
   64.6475   32.6633   50.7951 H   0  0  0  0  0  0  0  0  0  0  0  0
   65.3727   34.3067   50.7951 H   0  0  0  0  0  0  0  0  0  0  0  0
   62.7068   34.5744   51.7965 H   0  0  0  0  0  0  0  0  0  0  0  0
   63.3843   35.1445   50.2103 H   0  0  0  0  0  0  0  0  0  0  0  0
   61.6690   32.8480   50.7880 H   0  0  0  0  0  0  0  0  0  0  0  0
   64.1759   32.2811   49.8980 H   0  0  0  0  0  0  0  0  0  0  0  0
   62.6718   31.2737   49.7248 H   0  0  0  0  0  0  0  0  0  0  0  0
   63.6639   33.3456   47.7119 H   0  0  0  0  0  0  0  0  0  0  0  0
   63.8324   31.5640   47.5563 H   0  0  0  0  0  0  0  0  0  0  0  0
   62.2007   32.3153   47.5563 H   0  0  0  0  0  0  0  0  0  0  0  0
   61.8423   35.0341   49.0141 H   0  0  0  0  0  0  0  0  0  0  0  0
   61.6809   33.4400   48.1440 H   0  0  0  0  0  0  0  0  0  0  0  0
   59.7884   34.6647   50.1991 H   0  0  0  0  0  0  0  0  0  0  0  0
   59.4636   34.2187   48.4741 H   0  0  0  0  0  0  0  0  0  0  0  0
   59.4200   32.4330   50.8270 H   0  0  0  0  0  0  0  0  0  0  0  0
   60.2795   27.3121   46.6959 H   0  0  0  0  0  0  0  0  0  0  0  0
   59.1040   28.0581   45.5609 H   0  0  0  0  0  0  0  0  0  0  0  0
   60.8178   28.5961   45.5609 H   0  0  0  0  0  0  0  0  0  0  0  0
   60.4978   26.9936   48.3175 H   0  0  0  0  0  0  0  0  0  0  0  0
   61.3223   26.7214   50.6297 H   0  0  0  0  0  0  0  0  0  0  0  0
   63.0389   28.5554   53.9334 H   0  0  0  0  0  0  0  0  0  0  0  0
   63.3912   27.6205   52.4405 H   0  0  0  0  0  0  0  0  0  0  0  0
   63.5580   29.4091   52.4405 H   0  0  0  0  0  0  0  0  0  0  0  0
   59.6391   31.1362   52.8557 H   0  0  0  0  0  0  0  0  0  0  0  0
   61.3322   30.8054   53.4054 H   0  0  0  0  0  0  0  0  0  0  0  0
   60.2965   33.0354   54.1452 H   0  0  0  0  0  0  0  0  0  0  0  0
   61.9236   33.0904   53.3246 H   0  0  0  0  0  0  0  0  0  0  0  0
   59.3596   34.6707   53.8286 H   0  0  0  0  0  0  0  0  0  0  0  0
   59.2745   35.5484   52.2356 H   0  0  0  0  0  0  0  0  0  0  0  0
   57.1645   34.2459   53.1746 H   0  0  0  0  0  0  0  0  0  0  0  0
   57.5826   34.2141   51.4224 H   0  0  0  0  0  0  0  0  0  0  0  0
   56.1198   31.7583   52.2405 H   0  0  0  0  0  0  0  0  0  0  0  0
   56.8906   32.5034   50.7756 H   0  0  0  0  0  0  0  0  0  0  0  0
   57.1390   30.3135   50.1631 H   0  0  0  0  0  0  0  0  0  0  0  0
   58.6104   30.4539   51.2010 H   0  0  0  0  0  0  0  0  0  0  0  0
   57.5981   29.1934   54.0864 H   0  0  0  0  0  0  0  0  0  0  0  0
   58.2694   27.9804   52.9442 H   0  0  0  0  0  0  0  0  0  0  0  0
   58.9032   29.6612   52.9442 H   0  0  0  0  0  0  0  0  0  0  0  0
   55.8990   29.7984   53.8434 H   0  0  0  0  0  0  0  0  0  0  0  0
   55.5139   30.8809   52.4627 H   0  0  0  0  0  0  0  0  0  0  0  0
   54.9290   29.1825   52.4627 H   0  0  0  0  0  0  0  0  0  0  0  0
   57.4398   28.5220   45.5999 H   0  0  0  0  0  0  0  0  0  0  0  0
   56.1570   28.7706   43.4765 H   0  0  0  0  0  0  0  0  0  0  0  0
   56.1570   30.9485   42.2595 H   0  0  0  0  0  0  0  0  0  0  0  0
   57.3898   32.9050   43.2059 H   0  0  0  0  0  0  0  0  0  0  0  0
   59.8551   33.0022   45.3197 H   0  0  0  0  0  0  0  0  0  0  0  0
   58.3119   33.9154   45.1984 H   0  0  0  0  0  0  0  0  0  0  0  0
   59.1884   33.7288   47.5614 H   0  0  0  0  0  0  0  0  0  0  0  0
   57.5460   33.0058   47.3320 H   0  0  0  0  0  0  0  0  0  0  0  0
  1  2  1  0
  2  3  1  0
  3  4  1  0
  4  5  1  0
  3  6  1  0
  6  7  1  0
  7  8  1  0
  8  9  1  0
  9 10  2  0
 10 11  1  0
 11 12  2  0
 12 13  1  0
 12 14  1  0
 14 15  2  0
 15 16  1  0
 16 17  2  0
 17 18  1  0
 18 19  1  0
 17 20  1  0
 20 21  1  0
 21 22  1  0
 22 23  1  0
 23 24  1  0
 24 25  1  0
 25 26  1  0
 26 27  1  0
 27 28  1  0
 28 29  1  0
 29 30  1  0
 30 31  1  0
 30 32  1  0
 20 33  2  0
 11 34  1  0
 34 35  2  0
 35 36  1  0
 36 37  2  0
 37 38  1  0
 38 39  2  0
 39 40  1  0
 40 41  1  0
 33  9  1  0
 39 34  1  0
 41 10  1  0
 33 14  1  0
  1 42  1  0
  1 43  1  0
  1 44  1  0
  2 45  1  0
  2 46  1  0
  3 47  1  0
  4 48  1  0
  4 49  1  0
  5 50  1  0
  5 51  1  0
  5 52  1  0
  6 53  1  0
  6 54  1  0
  7 55  1  0
  7 56  1  0
  8 57  1  0
 13 58  1  0
 13 59  1  0
 13 60  1  0
 15 61  1  0
 16 62  1  0
 19 63  1  0
 19 64  1  0
 19 65  1  0
 22 66  1  0
 22 67  1  0
 23 68  1  0
 23 69  1  0
 25 70  1  0
 25 71  1  0
 26 72  1  0
 26 73  1  0
 28 74  1  0
 28 75  1  0
 29 76  1  0
 29 77  1  0
 31 78  1  0
 31 79  1  0
 31 80  1  0
 32 81  1  0
 32 82  1  0
 32 83  1  0
 35 84  1  0
 36 85  1  0
 37 86  1  0
 38 87  1  0
 40 88  1  0
 40 89  1  0
 41 90  1  0
 41 91  1  0
M  CHG  2   3   1  12   1
M  END
>  <UniqueID>  (19) 
18

>  <SMILES>  (19) 
CC[NH+](CC)CCNc1c2c([n+](C)c3ccc(OC)c(OCCOCCOCCN(C)C)c13)-c1ccccc1CC2

>  <Energy>  (19) 
138.76496128164328

>  <Genealogy>  (19) 
CC[NH+](CC)CCNc1c2c([n+](C)c3ccc(OC)c(OCCOCCOCCN(C)C)c13)-c1ccccc1CC2 (protonated)
CC[NH+](CC)CCNc1c2c([n+](C)c3ccc(OC)c(OCCOCCOCCN(C)C)c13)-c1ccccc1CC2 (3D coordinates assigned)
CC[NH+](CC)CCNc1c2c([n+](C)c3ccc(OC)c(OCCOCCOCCN(C)C)c13)-c1ccccc1CC2 (nonaromatic ring conformer: 138.76496128164328 kcal/mol)

>  <smiles>  (19) 
CCN(CC)CCNc1c2c([n+](C)c3ccc(OC)c(OCCOCCOCCN(C)C)c13)-c1ccccc1CC2

>  <score_type>  (19) 
oracle

>  <origin>  (19) 
adg

>  <m_score__min__energy>  (19) 
-3.9500000000000002

>  <m_primary>  (19) 
energy

$$$$
19:0
     RDKit          3D

 41 43  0  0  0  0  0  0  0  0999 V2000
   56.7310   27.3130   45.7210 C   0  0  0  0  0  0  0  0  0  0  0  0
   56.6650   28.6500   45.1500 N   0  0  0  0  0  0  0  0  0  0  0  0
   57.7120   29.3680   44.7050 C   0  0  0  0  0  0  0  0  0  0  0  0
   57.2230   30.5410   44.1690 C   0  0  0  0  0  0  0  0  0  0  0  0
   58.0130   31.6450   43.5190 C   0  0  0  0  0  0  0  0  0  0  0  0
   58.7010   32.5250   44.4910 N   0  0  0  0  0  0  0  0  0  0  0  0
   58.0050   33.8190   44.6630 C   0  0  0  0  0  0  0  0  0  0  0  0
   58.9230   34.9250   45.2250 C   0  0  0  0  0  0  0  0  0  0  0  0
   58.9290   35.0090   46.7620 C   0  0  0  0  0  0  0  0  0  0  0  0
   59.0380   33.6950   47.4340 N   0  0  0  0  0  0  0  0  0  0  0  0
   59.9940   33.5290   48.5040 C   0  0  0  0  0  0  0  0  0  0  0  0
   59.6000   33.2050   49.6580 O   0  0  0  0  0  0  0  0  0  0  0  0
   61.4700   33.6800   48.2600 C   0  0  0  0  0  0  0  0  0  0  0  0
   61.8890   33.6640   46.7960 C   0  0  0  0  0  0  0  0  0  0  0  0
   62.1400   32.4480   47.6700 C   0  0  0  0  0  0  0  0  0  0  0  0
   58.2750   32.5290   46.9560 C   0  0  0  0  0  0  0  0  0  0  0  0
   58.9750   31.8390   45.7720 C   0  0  0  0  0  0  0  0  0  0  0  0
   55.8500   30.4610   44.3090 C   0  0  0  0  0  0  0  0  0  0  0  0
   55.5330   29.2940   44.9040 N   0  0  0  0  0  0  0  0  0  0  0  0
   56.7276   27.3826   46.8188 H   0  0  0  0  0  0  0  0  0  0  0  0
   55.8606   26.7287   45.3879 H   0  0  0  0  0  0  0  0  0  0  0  0
   57.6547   26.8172   45.3879 H   0  0  0  0  0  0  0  0  0  0  0  0
   58.7701   29.0722   44.7590 H   0  0  0  0  0  0  0  0  0  0  0  0
   58.7699   31.1921   42.8617 H   0  0  0  0  0  0  0  0  0  0  0  0
   57.3001   32.2705   42.9617 H   0  0  0  0  0  0  0  0  0  0  0  0
   57.6221   34.1443   43.6844 H   0  0  0  0  0  0  0  0  0  0  0  0
   57.1935   33.6632   45.3891 H   0  0  0  0  0  0  0  0  0  0  0  0
   59.9504   34.7284   44.8848 H   0  0  0  0  0  0  0  0  0  0  0  0
   58.5317   35.8839   44.8542 H   0  0  0  0  0  0  0  0  0  0  0  0
   59.7837   35.6283   47.0717 H   0  0  0  0  0  0  0  0  0  0  0  0
   57.9632   35.4418   47.0619 H   0  0  0  0  0  0  0  0  0  0  0  0
   61.6619   34.3439   49.1158 H   0  0  0  0  0  0  0  0  0  0  0  0
   61.1249   33.6249   46.0057 H   0  0  0  0  0  0  0  0  0  0  0  0
   62.5149   34.3065   46.1592 H   0  0  0  0  0  0  0  0  0  0  0  0
   61.5578   31.5281   47.5123 H   0  0  0  0  0  0  0  0  0  0  0  0
   63.0234   31.8453   47.9278 H   0  0  0  0  0  0  0  0  0  0  0  0
   58.1729   31.8073   47.7799 H   0  0  0  0  0  0  0  0  0  0  0  0
   57.2895   32.8795   46.6155 H   0  0  0  0  0  0  0  0  0  0  0  0
   60.0604   31.8408   45.9509 H   0  0  0  0  0  0  0  0  0  0  0  0
   58.5859   30.8128   45.6981 H   0  0  0  0  0  0  0  0  0  0  0  0
   55.1306   31.2279   43.9861 H   0  0  0  0  0  0  0  0  0  0  0  0
  1  2  1  0
  2  3  1  0
  3  4  2  0
  4  5  1  0
  5  6  1  0
  6  7  1  0
  7  8  1  0
  8  9  1  0
  9 10  1  0
 10 11  1  0
 11 12  2  0
 11 13  1  0
 13 14  1  0
 14 15  1  0
 10 16  1  0
 16 17  1  0
  4 18  1  0
 18 19  2  0
 19  2  1  0
 17  6  1  0
 15 13  1  0
  1 20  1  0
  1 21  1  0
  1 22  1  0
  3 23  1  0
  5 24  1  0
  5 25  1  0
  7 26  1  0
  7 27  1  0
  8 28  1  0
  8 29  1  0
  9 30  1  0
  9 31  1  0
 13 32  1  0
 14 33  1  0
 14 34  1  0
 15 35  1  0
 15 36  1  0
 16 37  1  0
 16 38  1  0
 17 39  1  0
 17 40  1  0
 18 41  1  0
M  END
>  <UniqueID>  (20) 
19

>  <SMILES>  (20) 
Cn1cc(CN2CCCN(C(=O)C3CC3)CC2)cn1

>  <Energy>  (20) 
342.1655800631956

>  <Genealogy>  (20) 
Cn1cc(CN2CCCN(C(=O)C3CC3)CC2)cn1 (3D coordinates assigned)
Cn1cc(CN2CCCN(C(=O)C3CC3)CC2)cn1 (nonaromatic ring conformer: 342.1655800631956 kcal/mol)

>  <smiles>  (20) 
Cn1cc(CN2CCCN(C(=O)C3CC3)CC2)cn1

>  <score_type>  (20) 
oracle

>  <origin>  (20) 
adg

>  <m_score__min__energy>  (20) 
-5.0999999999999996

>  <m_primary>  (20) 
energy

$$$$
20:0
     RDKit          3D

 72 74  0  0  0  0  0  0  0  0999 V2000
   68.2790   33.8350   50.5440 C   0  0  0  0  0  0  0  0  0  0  0  0
   66.7830   33.8520   50.8860 C   0  0  0  0  0  0  0  0  0  0  0  0
   66.0650   32.6870   50.3040 N   0  0  0  0  0  0  0  0  0  0  0  0
   66.7430   31.3940   50.5900 C   0  0  0  0  0  0  0  0  0  0  0  0
   65.9450   30.4280   51.4840 C   0  0  0  0  0  0  0  0  0  0  0  0
   64.6320   32.6300   50.7120 C   0  0  0  0  0  0  0  0  0  0  0  0
   63.6650   32.7120   49.5180 C   0  0  0  0  0  0  0  0  0  0  0  0
   64.4110   33.0490   48.3600 O   0  0  0  0  0  0  0  0  0  0  0  0
   63.7380   32.6630   47.1720 C   0  0  0  0  0  0  0  0  0  0  0  0
   62.7590   33.7520   46.7440 C   0  0  0  0  0  0  0  0  0  0  0  0
   61.4330   33.2530   46.8300 O   0  0  0  0  0  0  0  0  0  0  0  0
   60.6390   33.8280   45.8690 N   0  0  0  0  0  0  0  0  0  0  0  0
   60.0340   35.0910   46.3230 C   0  0  0  0  0  0  0  0  0  0  0  0
   59.2210   34.9290   47.6140 C   0  0  0  0  0  0  0  0  0  0  0  0
   58.1640   33.9160   47.4990 N   0  0  0  0  0  0  0  0  0  0  0  0
   58.4600   32.5170   47.3700 C   0  0  0  0  0  0  0  0  0  0  0  0
   58.9430   31.8130   48.5030 C   0  0  0  0  0  0  0  0  0  0  0  0
   58.8650   32.3660   49.8010 C   0  0  0  0  0  0  0  0  0  0  0  0
   59.3310   31.6590   50.9090 C   0  0  0  0  0  0  0  0  0  0  0  0
   59.8780   30.3860   50.7450 C   0  0  0  0  0  0  0  0  0  0  0  0
   59.9710   29.8250   49.4660 C   0  0  0  0  0  0  0  0  0  0  0  0
   59.4860   30.5170   48.3310 C   0  0  0  0  0  0  0  0  0  0  0  0
   59.4920   29.9440   47.0820 N   0  0  0  0  0  0  0  0  0  0  0  0
   60.3770   28.7940   46.7780 C   0  0  0  0  0  0  0  0  0  0  0  0
   58.6390   30.4240   46.1250 C   0  0  0  0  0  0  0  0  0  0  0  0
   58.2080   29.5880   45.0720 C   0  0  0  0  0  0  0  0  0  0  0  0
   57.3570   30.0620   44.0820 C   0  0  0  0  0  0  0  0  0  0  0  0
   56.9020   29.1420   42.9770 C   0  0  0  0  0  0  0  0  0  0  0  0
   57.0180   31.4110   44.0590 C   0  0  0  0  0  0  0  0  0  0  0  0
   57.4510   32.2970   45.0600 C   0  0  0  0  0  0  0  0  0  0  0  0
   57.0790   33.7380   44.8780 C   0  0  0  0  0  0  0  0  0  0  0  0
   58.1790   31.7760   46.1830 C   0  0  0  0  0  0  0  0  0  0  0  0
   68.8675   33.8283   51.4733 H   0  0  0  0  0  0  0  0  0  0  0  0
   68.5107   32.9342   49.9568 H   0  0  0  0  0  0  0  0  0  0  0  0
   68.5311   34.7303   49.9568 H   0  0  0  0  0  0  0  0  0  0  0  0
   66.6685   33.8294   51.9798 H   0  0  0  0  0  0  0  0  0  0  0  0
   66.3473   34.7674   50.4591 H   0  0  0  0  0  0  0  0  0  0  0  0
   66.0760   32.7570   49.2610 H   0  0  0  0  0  0  0  0  0  0  0  0
   66.9375   30.8907   49.6314 H   0  0  0  0  0  0  0  0  0  0  0  0
   67.6596   31.6423   51.1451 H   0  0  0  0  0  0  0  0  0  0  0  0
   66.1385   30.6623   52.5412 H   0  0  0  0  0  0  0  0  0  0  0  0
   64.8707   30.5377   51.2749 H   0  0  0  0  0  0  0  0  0  0  0  0
   66.2555   29.3937   51.2749 H   0  0  0  0  0  0  0  0  0  0  0  0
   64.4555   31.6824   51.2420 H   0  0  0  0  0  0  0  0  0  0  0  0
   64.4372   33.5013   51.3546 H   0  0  0  0  0  0  0  0  0  0  0  0
   63.1716   31.7398   49.3721 H   0  0  0  0  0  0  0  0  0  0  0  0
   62.8952   33.4747   49.7068 H   0  0  0  0  0  0  0  0  0  0  0  0
   64.4758   32.5027   46.3720 H   0  0  0  0  0  0  0  0  0  0  0  0
   63.1810   31.7334   47.3607 H   0  0  0  0  0  0  0  0  0  0  0  0
   62.8669   34.6237   47.4062 H   0  0  0  0  0  0  0  0  0  0  0  0
   62.9726   34.0520   45.7075 H   0  0  0  0  0  0  0  0  0  0  0  0
   61.1440   33.9580   44.9570 H   0  0  0  0  0  0  0  0  0  0  0  0
   60.8370   35.8211   46.5023 H   0  0  0  0  0  0  0  0  0  0  0  0
   59.3436   35.4297   45.5365 H   0  0  0  0  0  0  0  0  0  0  0  0
   59.9038   34.6337   48.4243 H   0  0  0  0  0  0  0  0  0  0  0  0
   58.7338   35.8932   47.8211 H   0  0  0  0  0  0  0  0  0  0  0  0
   57.1920   34.1770   47.7750 H   0  0  0  0  0  0  0  0  0  0  0  0
   58.4310   33.3673   49.9393 H   0  0  0  0  0  0  0  0  0  0  0  0
   59.2673   32.1050   51.9125 H   0  0  0  0  0  0  0  0  0  0  0  0
   60.2359   29.8237   51.6201 H   0  0  0  0  0  0  0  0  0  0  0  0
   60.4276   28.8320   49.3414 H   0  0  0  0  0  0  0  0  0  0  0  0
   60.7256   28.3411   47.7179 H   0  0  0  0  0  0  0  0  0  0  0  0
   59.8192   28.0461   46.1953 H   0  0  0  0  0  0  0  0  0  0  0  0
   61.2428   29.1416   46.1953 H   0  0  0  0  0  0  0  0  0  0  0  0
   58.5520   28.5438   45.0351 H   0  0  0  0  0  0  0  0  0  0  0  0
   56.4545   28.2372   43.4141 H   0  0  0  0  0  0  0  0  0  0  0  0
   56.1547   29.6570   42.3554 H   0  0  0  0  0  0  0  0  0  0  0  0
   57.7649   28.8607   42.3554 H   0  0  0  0  0  0  0  0  0  0  0  0
   56.3955   31.7936   43.2367 H   0  0  0  0  0  0  0  0  0  0  0  0
   56.9566   34.2123   45.8629 H   0  0  0  0  0  0  0  0  0  0  0  0
   57.8734   34.2540   44.3188 H   0  0  0  0  0  0  0  0  0  0  0  0
   56.1341   33.8050   44.3188 H   0  0  0  0  0  0  0  0  0  0  0  0
  1  2  1  0
  2  3  1  0
  3  4  1  0
  4  5  1  0
  3  6  1  0
  6  7  1  0
  7  8  1  0
  8  9  1  0
  9 10  1  0
 10 11  1  0
 11 12  1  0
 12 13  1  0
 13 14  1  0
 14 15  1  0
 15 16  1  0
 16 17  2  0
 17 18  1  0
 18 19  2  0
 19 20  1  0
 20 21  2  0
 21 22  1  0
 22 23  2  0
 23 24  1  0
 23 25  1  0
 25 26  2  0
 26 27  1  0
 27 28  1  0
 27 29  2  0
 29 30  1  0
 30 31  1  0
 30 32  2  0
 32 16  1  0
 22 17  1  0
 32 25  1  0
  1 33  1  0
  1 34  1  0
  1 35  1  0
  2 36  1  0
  2 37  1  0
  3 38  1  0
  4 39  1  0
  4 40  1  0
  5 41  1  0
  5 42  1  0
  5 43  1  0
  6 44  1  0
  6 45  1  0
  7 46  1  0
  7 47  1  0
  9 48  1  0
  9 49  1  0
 10 50  1  0
 10 51  1  0
 12 52  1  0
 13 53  1  0
 13 54  1  0
 14 55  1  0
 14 56  1  0
 15 57  1  0
 18 58  1  0
 19 59  1  0
 20 60  1  0
 21 61  1  0
 24 62  1  0
 24 63  1  0
 24 64  1  0
 26 65  1  0
 28 66  1  0
 28 67  1  0
 28 68  1  0
 29 69  1  0
 31 70  1  0
 31 71  1  0
 31 72  1  0
M  CHG  2   3   1  23   1
M  END
>  <UniqueID>  (21) 
20

>  <SMILES>  (21) 
CC[NH+](CC)CCOCCONCCNc1c2ccccc2[n+](C)c2cc(C)cc(C)c12

>  <Energy>  (21) 
117.69514083088859

>  <Genealogy>  (21) 
CC[NH+](CC)CCOCCONCCNc1c2ccccc2[n+](C)c2cc(C)cc(C)c12 (protonated)
CC[NH+](CC)CCOCCONCCNc1c2ccccc2[n+](C)c2cc(C)cc(C)c12 (3D coordinates assigned)
CC[NH+](CC)CCOCCONCCNc1c2ccccc2[n+](C)c2cc(C)cc(C)c12 (optimized conformer: 117.69514083088859 kcal/mol)

>  <smiles>  (21) 
CCN(CC)CCOCCONCCNc1c2ccccc2[n+](C)c2cc(C)cc(C)c12

>  <score_type>  (21) 
oracle

>  <origin>  (21) 
adg

>  <m_score__min__energy>  (21) 
-4.1500000000000004

>  <m_primary>  (21) 
energy

$$$$
21:0
     RDKit          3D

 35 36  0  0  0  0  0  0  0  0999 V2000
   60.9030   34.1020   46.4740 C   0  0  0  0  0  0  0  0  0  0  0  0
   59.5470   34.3280   45.8110 C   0  0  0  0  0  0  0  0  0  0  0  0
   58.5580   33.2170   46.1820 C   0  0  0  0  0  0  0  0  0  0  0  0
   57.3820   33.1680   45.1930 C   0  0  0  0  0  0  0  0  0  0  0  0
   56.7010   31.8580   45.2140 N   0  0  0  0  0  0  0  0  0  0  0  0
   56.8430   31.0970   43.9560 C   0  0  2  0  0  0  0  0  0  0  0  0
   55.7480   30.0200   43.8740 C   0  0  0  0  0  0  0  0  0  0  0  0
   55.9740   28.9670   44.8620 N   0  0  0  0  0  0  0  0  0  0  0  0
   57.2980   28.5670   45.2480 C   0  0  0  0  0  0  0  0  0  0  0  0
   57.4820   27.4840   46.1200 C   0  0  0  0  0  0  0  0  0  0  0  0
   58.7690   27.1140   46.5200 C   0  0  0  0  0  0  0  0  0  0  0  0
   59.8790   27.8220   46.0510 C   0  0  0  0  0  0  0  0  0  0  0  0
   59.7050   28.9050   45.1850 C   0  0  0  0  0  0  0  0  0  0  0  0
   58.4160   29.2940   44.7890 C   0  0  0  0  0  0  0  0  0  0  0  0
   58.2330   30.4330   43.8200 C   0  0  0  0  0  0  0  0  0  0  0  0
   60.7844   34.1218   47.5674 H   0  0  0  0  0  0  0  0  0  0  0  0
   61.3033   33.1247   46.1662 H   0  0  0  0  0  0  0  0  0  0  0  0
   61.5986   34.8966   46.1662 H   0  0  0  0  0  0  0  0  0  0  0  0
   59.1417   35.2952   46.1431 H   0  0  0  0  0  0  0  0  0  0  0  0
   59.6866   34.3208   44.7199 H   0  0  0  0  0  0  0  0  0  0  0  0
   59.0817   32.2498   46.1652 H   0  0  0  0  0  0  0  0  0  0  0  0
   58.1606   33.4249   47.1864 H   0  0  0  0  0  0  0  0  0  0  0  0
   56.6572   33.9502   45.4628 H   0  0  0  0  0  0  0  0  0  0  0  0
   57.7803   33.3297   44.1805 H   0  0  0  0  0  0  0  0  0  0  0  0
   57.0000   31.2790   46.0340 H   0  0  0  0  0  0  0  0  0  0  0  0
   56.7372   31.8132   43.1279 H   0  0  0  0  0  0  0  0  0  0  0  0
   54.7698   30.4864   44.0628 H   0  0  0  0  0  0  0  0  0  0  0  0
   55.7733   29.5702   42.8705 H   0  0  0  0  0  0  0  0  0  0  0  0
   55.1450   28.4580   45.2460 H   0  0  0  0  0  0  0  0  0  0  0  0
   56.6106   26.9240   46.4902 H   0  0  0  0  0  0  0  0  0  0  0  0
   58.9085   26.2645   47.2048 H   0  0  0  0  0  0  0  0  0  0  0  0
   60.8912   27.5263   46.3640 H   0  0  0  0  0  0  0  0  0  0  0  0
   60.5819   29.4547   44.8123 H   0  0  0  0  0  0  0  0  0  0  0  0
   59.0077   31.1899   44.0124 H   0  0  0  0  0  0  0  0  0  0  0  0
   58.3152   30.0266   42.8012 H   0  0  0  0  0  0  0  0  0  0  0  0
  1  2  1  0
  2  3  1  0
  3  4  1  0
  4  5  1  0
  5  6  1  0
  6  7  1  0
  7  8  1  0
  8  9  1  0
  9 10  2  0
 10 11  1  0
 11 12  2  0
 12 13  1  0
 13 14  2  0
 14 15  1  0
 15  6  1  0
 14  9  1  0
  1 16  1  0
  1 17  1  0
  1 18  1  0
  2 19  1  0
  2 20  1  0
  3 21  1  0
  3 22  1  0
  4 23  1  0
  4 24  1  0
  5 25  1  0
  6 26  1  6
  7 27  1  0
  7 28  1  0
  8 29  1  0
 10 30  1  0
 11 31  1  0
 12 32  1  0
 13 33  1  0
 15 34  1  0
 15 35  1  0
M  END
>  <UniqueID>  (22) 
21

>  <SMILES>  (22) 
CCCCN[C@@H]1CNc2ccccc2C1

>  <Energy>  (22) 
30.38466136643095

>  <Genealogy>  (22) 
CCCCN[C@@H]1CNc2ccccc2C1 (chirality)
CCCCN[C@@H]1CNc2ccccc2C1 (3D coordinates assigned)
CCCCN[C@@H]1CNc2ccccc2C1 (nonaromatic ring conformer: 30.38466136643095 kcal/mol)

>  <smiles>  (22) 
CCCCNC1CNc2ccccc2C1

>  <score_type>  (22) 
oracle

>  <origin>  (22) 
adg

>  <m_score__min__energy>  (22) 
-6.8200000000000003

>  <m_primary>  (22) 
energy

$$$$
22:0
     RDKit          3D

 47 47  0  0  0  0  0  0  0  0999 V2000
   60.6790   28.8710   44.9300 C   0  0  0  0  0  0  0  0  0  0  0  0
   59.3380   29.6000   44.8700 C   0  0  0  0  0  0  0  0  0  0  0  0
   58.7400   29.7160   46.2180 N   0  0  0  0  0  0  0  0  0  0  0  0
   59.7750   29.8600   47.2750 C   0  0  0  0  0  0  0  0  0  0  0  0
   59.3900   29.0170   48.4850 C   0  0  0  0  0  0  0  0  0  0  0  0
   57.8250   28.5810   46.4900 C   0  0  0  0  0  0  0  0  0  0  0  0
   57.0030   28.2350   45.2470 C   0  0  0  0  0  0  0  0  0  0  0  0
   55.9910   29.2040   45.0840 O   0  0  0  0  0  0  0  0  0  0  0  0
   56.0350   29.7310   43.7770 C   0  0  0  0  0  0  0  0  0  0  0  0
   56.6670   31.1290   43.8040 C   0  0  0  0  0  0  0  0  0  0  0  0
   56.6710   31.7210   45.1540 N   0  0  0  0  0  0  0  0  0  0  0  0
   57.4350   32.9790   45.2400 C   0  0  0  0  0  0  0  0  0  0  0  0
   57.6840   33.3520   46.7030 C   0  0  0  0  0  0  0  0  0  0  0  0
   59.1590   33.3400   47.0360 C   0  0  0  0  0  0  0  0  0  0  0  0
   60.0740   33.8030   46.0740 C   0  0  0  0  0  0  0  0  0  0  0  0
   61.4410   33.8490   46.3570 C   0  0  0  0  0  0  0  0  0  0  0  0
   61.9100   33.4410   47.6070 C   0  0  0  0  0  0  0  0  0  0  0  0
   63.6280   33.5050   47.9620 Cl  0  0  0  0  0  0  0  0  0  0  0  0
   61.0120   32.9880   48.5770 C   0  0  0  0  0  0  0  0  0  0  0  0
   59.6400   32.9380   48.3040 C   0  0  0  0  0  0  0  0  0  0  0  0
   58.5630   32.3740   49.5790 Cl  0  0  0  0  0  0  0  0  0  0  0  0
   60.9651   28.7155   45.9807 H   0  0  0  0  0  0  0  0  0  0  0  0
   60.5898   27.8972   44.4263 H   0  0  0  0  0  0  0  0  0  0  0  0
   61.4478   29.4754   44.4263 H   0  0  0  0  0  0  0  0  0  0  0  0
   59.4939   30.6076   44.4571 H   0  0  0  0  0  0  0  0  0  0  0  0
   58.6532   29.0245   44.2298 H   0  0  0  0  0  0  0  0  0  0  0  0
   60.7459   29.5197   46.8856 H   0  0  0  0  0  0  0  0  0  0  0  0
   59.8480   30.9162   47.5736 H   0  0  0  0  0  0  0  0  0  0  0  0
   59.6394   29.5631   49.4067 H   0  0  0  0  0  0  0  0  0  0  0  0
   58.3094   28.8128   48.4608 H   0  0  0  0  0  0  0  0  0  0  0  0
   59.9433   28.0666   48.4608 H   0  0  0  0  0  0  0  0  0  0  0  0
   58.4178   27.7030   46.7861 H   0  0  0  0  0  0  0  0  0  0  0  0
   57.1369   28.8691   47.2984 H   0  0  0  0  0  0  0  0  0  0  0  0
   57.6561   28.2307   44.3619 H   0  0  0  0  0  0  0  0  0  0  0  0
   56.5502   27.2395   45.3649 H   0  0  0  0  0  0  0  0  0  0  0  0
   56.6370   29.0699   43.1363 H   0  0  0  0  0  0  0  0  0  0  0  0
   55.0123   29.8012   43.3779 H   0  0  0  0  0  0  0  0  0  0  0  0
   57.7054   31.0536   43.4489 H   0  0  0  0  0  0  0  0  0  0  0  0
   56.0638   31.7810   43.1551 H   0  0  0  0  0  0  0  0  0  0  0  0
   57.0410   31.0320   45.8500 H   0  0  0  0  0  0  0  0  0  0  0  0
   58.4007   32.8524   44.7287 H   0  0  0  0  0  0  0  0  0  0  0  0
   56.8561   33.7819   44.7603 H   0  0  0  0  0  0  0  0  0  0  0  0
   57.2843   34.3601   46.8876 H   0  0  0  0  0  0  0  0  0  0  0  0
   57.1812   32.6082   47.3386 H   0  0  0  0  0  0  0  0  0  0  0  0
   59.7099   34.1320   45.0895 H   0  0  0  0  0  0  0  0  0  0  0  0
   62.1484   34.2069   45.5945 H   0  0  0  0  0  0  0  0  0  0  0  0
   61.3855   32.6687   49.5611 H   0  0  0  0  0  0  0  0  0  0  0  0
  1  2  1  0
  2  3  1  0
  3  4  1  0
  4  5  1  0
  3  6  1  0
  6  7  1  0
  7  8  1  0
  8  9  1  0
  9 10  1  0
 10 11  1  0
 11 12  1  0
 12 13  1  0
 13 14  1  0
 14 15  2  0
 15 16  1  0
 16 17  2  0
 17 18  1  0
 17 19  1  0
 19 20  2  0
 20 21  1  0
 20 14  1  0
  1 22  1  0
  1 23  1  0
  1 24  1  0
  2 25  1  0
  2 26  1  0
  4 27  1  0
  4 28  1  0
  5 29  1  0
  5 30  1  0
  5 31  1  0
  6 32  1  0
  6 33  1  0
  7 34  1  0
  7 35  1  0
  9 36  1  0
  9 37  1  0
 10 38  1  0
 10 39  1  0
 11 40  1  0
 12 41  1  0
 12 42  1  0
 13 43  1  0
 13 44  1  0
 15 45  1  0
 16 46  1  0
 19 47  1  0
M  END
>  <UniqueID>  (23) 
22

>  <SMILES>  (23) 
CCN(CC)CCOCCNCCc1ccc(Cl)cc1Cl

>  <Energy>  (23) 
39.99036906179728

>  <Genealogy>  (23) 
CCN(CC)CCOCCNCCc1ccc(Cl)cc1Cl (3D coordinates assigned)
CCN(CC)CCOCCNCCc1ccc(Cl)cc1Cl (optimized conformer: 39.99036906179728 kcal/mol)

>  <smiles>  (23) 
CCN(CC)CCOCCNCCc1ccc(Cl)cc1Cl

>  <score_type>  (23) 
oracle

>  <origin>  (23) 
adg

>  <m_score__min__energy>  (23) 
-6.5300000000000002

>  <m_primary>  (23) 
energy

$$$$
23:0
     RDKit          3D

 50 51  0  0  0  0  0  0  0  0999 V2000
   63.3720   33.8400   46.3860 C   0  0  0  0  0  0  0  0  0  0  0  0
   63.3940   32.5300   47.1640 C   0  0  0  0  0  0  0  0  0  0  0  0
   62.8050   32.7210   48.5110 N   0  0  0  0  0  0  0  0  0  0  0  0
   63.0080   34.1080   48.9680 C   0  0  0  0  0  0  0  0  0  0  0  0
   63.3640   31.7640   49.4930 C   0  0  0  0  0  0  0  0  0  0  0  0
   62.2800   30.7810   49.9530 C   0  0  0  0  0  0  0  0  0  0  0  0
   61.5190   30.3000   48.8590 O   0  0  0  0  0  0  0  0  0  0  0  0
   60.4230   29.5340   49.3170 C   0  0  0  0  0  0  0  0  0  0  0  0
   59.7190   30.2790   50.4540 C   0  0  0  0  0  0  0  0  0  0  0  0
   58.7790   31.2080   49.9490 O   0  0  0  0  0  0  0  0  0  0  0  0
   58.8210   32.4290   50.6680 C   0  0  0  0  0  0  0  0  0  0  0  0
   59.6350   33.4860   49.9130 C   0  0  0  0  0  0  0  0  0  0  0  0
   60.1420   32.9830   48.6300 N   0  0  0  0  0  0  0  0  0  0  0  0
   59.6850   33.4800   47.3660 C   0  0  0  0  0  0  0  0  0  0  0  0
   59.9450   34.8190   47.0400 C   0  0  0  0  0  0  0  0  0  0  0  0
   59.5630   35.3370   45.8020 C   0  0  0  0  0  0  0  0  0  0  0  0
   58.9130   34.5270   44.8710 C   0  0  0  0  0  0  0  0  0  0  0  0
   58.6100   33.1990   45.1890 C   0  0  0  0  0  0  0  0  0  0  0  0
   57.9380   32.4270   44.2900 N   0  0  0  0  0  0  0  0  0  0  0  0
   57.5870   31.1460   44.5680 C   0  0  0  0  0  0  0  0  0  0  0  0
   56.6410   30.1250   43.2680 Br  0  0  0  0  0  0  0  0  0  0  0  0
   57.9020   30.5870   45.8090 C   0  0  0  0  0  0  0  0  0  0  0  0
   58.5910   31.3510   46.7520 C   0  0  0  0  0  0  0  0  0  0  0  0
   58.9790   32.6670   46.4490 C   0  0  0  0  0  0  0  0  0  0  0  0
   63.3578   34.6847   47.0905 H   0  0  0  0  0  0  0  0  0  0  0  0
   64.2692   33.9056   45.7529 H   0  0  0  0  0  0  0  0  0  0  0  0
   62.4731   33.8754   45.7529 H   0  0  0  0  0  0  0  0  0  0  0  0
   62.8117   31.7736   46.6174 H   0  0  0  0  0  0  0  0  0  0  0  0
   64.4365   32.1966   47.2736 H   0  0  0  0  0  0  0  0  0  0  0  0
   63.0119   34.1349   50.0677 H   0  0  0  0  0  0  0  0  0  0  0  0
   63.9704   34.4819   48.5886 H   0  0  0  0  0  0  0  0  0  0  0  0
   62.1931   34.7420   48.5886 H   0  0  0  0  0  0  0  0  0  0  0  0
   64.1875   31.2039   49.0259 H   0  0  0  0  0  0  0  0  0  0  0  0
   63.7355   32.3217   50.3653 H   0  0  0  0  0  0  0  0  0  0  0  0
   62.7601   29.9291   50.4568 H   0  0  0  0  0  0  0  0  0  0  0  0
   61.6025   31.3099   50.6395 H   0  0  0  0  0  0  0  0  0  0  0  0
   59.7157   29.3749   48.4897 H   0  0  0  0  0  0  0  0  0  0  0  0
   60.7832   28.5615   49.6838 H   0  0  0  0  0  0  0  0  0  0  0  0
   59.1971   29.5505   51.0919 H   0  0  0  0  0  0  0  0  0  0  0  0
   60.4760   30.8278   51.0335 H   0  0  0  0  0  0  0  0  0  0  0  0
   57.7946   32.7987   50.8085 H   0  0  0  0  0  0  0  0  0  0  0  0
   59.3023   32.2458   51.6400 H   0  0  0  0  0  0  0  0  0  0  0  0
   58.9927   34.3585   49.7226 H   0  0  0  0  0  0  0  0  0  0  0  0
   60.5006   33.7547   50.5364 H   0  0  0  0  0  0  0  0  0  0  0  0
   60.7020   32.1040   48.6310 H   0  0  0  0  0  0  0  0  0  0  0  0
   60.4552   35.4674   47.7676 H   0  0  0  0  0  0  0  0  0  0  0  0
   59.7754   36.3886   45.5592 H   0  0  0  0  0  0  0  0  0  0  0  0
   58.6385   34.9328   43.8861 H   0  0  0  0  0  0  0  0  0  0  0  0
   57.6091   29.5524   46.0411 H   0  0  0  0  0  0  0  0  0  0  0  0
   58.8311   30.9215   47.7358 H   0  0  0  0  0  0  0  0  0  0  0  0
  1  2  1  0
  2  3  1  0
  3  4  1  0
  3  5  1  0
  5  6  1  0
  6  7  1  0
  7  8  1  0
  8  9  1  0
  9 10  1  0
 10 11  1  0
 11 12  1  0
 12 13  1  0
 13 14  1  0
 14 15  2  0
 15 16  1  0
 16 17  2  0
 17 18  1  0
 18 19  2  0
 19 20  1  0
 20 21  1  0
 20 22  2  0
 22 23  1  0
 23 24  2  0
 24 14  1  0
 24 18  1  0
  1 25  1  0
  1 26  1  0
  1 27  1  0
  2 28  1  0
  2 29  1  0
  4 30  1  0
  4 31  1  0
  4 32  1  0
  5 33  1  0
  5 34  1  0
  6 35  1  0
  6 36  1  0
  8 37  1  0
  8 38  1  0
  9 39  1  0
  9 40  1  0
 11 41  1  0
 11 42  1  0
 12 43  1  0
 12 44  1  0
 13 45  1  0
 15 46  1  0
 16 47  1  0
 17 48  1  0
 22 49  1  0
 23 50  1  0
M  END
>  <UniqueID>  (24) 
23

>  <SMILES>  (24) 
CCN(C)CCOCCOCCNc1cccc2nc(Br)ccc12

>  <Energy>  (24) 
57.04236823565375

>  <Genealogy>  (24) 
CCN(C)CCOCCOCCNc1cccc2nc(Br)ccc12 (3D coordinates assigned)
CCN(C)CCOCCOCCNc1cccc2nc(Br)ccc12 (optimized conformer: 57.04236823565375 kcal/mol)

>  <smiles>  (24) 
CCN(C)CCOCCOCCNc1cccc2nc(Br)ccc12

>  <score_type>  (24) 
oracle

>  <origin>  (24) 
adg

>  <m_score__min__energy>  (24) 
-6.0899999999999999

>  <m_primary>  (24) 
energy

$$$$
24:0
     RDKit          3D

 43 45  0  0  0  0  0  0  0  0999 V2000
   56.5140   30.3360   42.9190 C   0  0  0  0  0  0  0  0  0  0  0  0
   55.4510   30.0280   43.9790 C   0  0  0  0  0  0  0  0  0  0  0  0
   55.8630   28.9460   44.8870 N   0  0  0  0  0  0  0  0  0  0  0  0
   57.1770   28.3940   44.5230 C   0  0  0  0  0  0  0  0  0  0  0  0
   58.2650   28.9050   45.4740 C   0  0  0  0  0  0  0  0  0  0  0  0
   57.7490   29.9720   46.3340 N   0  0  0  0  0  0  0  0  0  0  0  0
   58.6050   30.9990   46.8670 C   0  0  0  0  0  0  0  0  0  0  0  0
   58.6160   32.2830   46.2930 C   0  0  0  0  0  0  0  0  0  0  0  0
   57.8810   32.5560   45.1190 C   0  0  0  0  0  0  0  0  0  0  0  0
   57.9270   33.8170   44.5270 C   0  0  0  0  0  0  0  0  0  0  0  0
   58.7190   34.8160   45.0790 C   0  0  0  0  0  0  0  0  0  0  0  0
   59.4620   34.5670   46.2330 C   0  0  0  0  0  0  0  0  0  0  0  0
   59.4100   33.3060   46.8800 C   0  0  0  0  0  0  0  0  0  0  0  0
   60.1240   33.0520   48.0360 N   0  0  0  0  0  0  0  0  0  0  0  0
   60.7070   34.1720   48.8060 C   0  0  0  0  0  0  0  0  0  0  0  0
   60.2760   31.7520   48.4820 C   0  0  0  0  0  0  0  0  0  0  0  0
   61.2130   31.4160   49.4920 C   0  0  0  0  0  0  0  0  0  0  0  0
   61.3130   30.1120   49.9790 C   0  0  0  0  0  0  0  0  0  0  0  0
   62.2120   29.8220   50.9520 F   0  0  0  0  0  0  0  0  0  0  0  0
   60.4950   29.1120   49.4670 C   0  0  0  0  0  0  0  0  0  0  0  0
   60.5830   27.8480   49.9510 F   0  0  0  0  0  0  0  0  0  0  0  0
   59.5950   29.4010   48.4440 C   0  0  0  0  0  0  0  0  0  0  0  0
   59.4910   30.7080   47.9220 C   0  0  0  0  0  0  0  0  0  0  0  0
   57.4574   30.6093   43.4144 H   0  0  0  0  0  0  0  0  0  0  0  0
   56.6738   29.4472   42.2909 H   0  0  0  0  0  0  0  0  0  0  0  0
   56.1739   31.1725   42.2909 H   0  0  0  0  0  0  0  0  0  0  0  0
   55.2690   30.9367   44.5716 H   0  0  0  0  0  0  0  0  0  0  0  0
   54.5406   29.6994   43.4562 H   0  0  0  0  0  0  0  0  0  0  0  0
   55.1410   28.1920   44.8800 H   0  0  0  0  0  0  0  0  0  0  0  0
   57.1351   27.2963   44.5796 H   0  0  0  0  0  0  0  0  0  0  0  0
   57.4233   28.7158   43.5004 H   0  0  0  0  0  0  0  0  0  0  0  0
   58.6135   28.0725   46.1029 H   0  0  0  0  0  0  0  0  0  0  0  0
   59.0948   29.3075   44.8745 H   0  0  0  0  0  0  0  0  0  0  0  0
   56.7130   30.1010   46.3880 H   0  0  0  0  0  0  0  0  0  0  0  0
   57.2652   31.7648   44.6665 H   0  0  0  0  0  0  0  0  0  0  0  0
   57.3358   34.0213   43.6221 H   0  0  0  0  0  0  0  0  0  0  0  0
   58.7604   35.8074   44.6041 H   0  0  0  0  0  0  0  0  0  0  0  0
   60.0989   35.3620   46.6482 H   0  0  0  0  0  0  0  0  0  0  0  0
   60.6022   33.9707   49.8823 H   0  0  0  0  0  0  0  0  0  0  0  0
   61.7729   34.2745   48.5542 H   0  0  0  0  0  0  0  0  0  0  0  0
   60.1795   35.1039   48.5542 H   0  0  0  0  0  0  0  0  0  0  0  0
   61.8725   32.1968   49.8987 H   0  0  0  0  0  0  0  0  0  0  0  0
   58.9580   28.6013   48.0383 H   0  0  0  0  0  0  0  0  0  0  0  0
  1  2  1  0
  2  3  1  0
  3  4  1  0
  4  5  1  0
  5  6  1  0
  6  7  1  0
  7  8  2  0
  8  9  1  0
  9 10  2  0
 10 11  1  0
 11 12  2  0
 12 13  1  0
 13 14  2  0
 14 15  1  0
 14 16  1  0
 16 17  2  0
 17 18  1  0
 18 19  1  0
 18 20  2  0
 20 21  1  0
 20 22  1  0
 22 23  2  0
 23  7  1  0
 13  8  1  0
 23 16  1  0
  1 24  1  0
  1 25  1  0
  1 26  1  0
  2 27  1  0
  2 28  1  0
  3 29  1  0
  4 30  1  0
  4 31  1  0
  5 32  1  0
  5 33  1  0
  6 34  1  0
  9 35  1  0
 10 36  1  0
 11 37  1  0
 12 38  1  0
 15 39  1  0
 15 40  1  0
 15 41  1  0
 17 42  1  0
 22 43  1  0
M  CHG  1  14   1
M  END
>  <UniqueID>  (25) 
24

>  <SMILES>  (25) 
CCNCCNc1c2ccccc2[n+](C)c2cc(F)c(F)cc12

>  <Energy>  (25) 
66.4274837504816

>  <Genealogy>  (25) 
CCNCCNc1c2ccccc2[n+](C)c2cc(F)c(F)cc12 (3D coordinates assigned)
CCNCCNc1c2ccccc2[n+](C)c2cc(F)c(F)cc12 (optimized conformer: 66.4274837504816 kcal/mol)

>  <smiles>  (25) 
CCNCCNc1c2ccccc2[n+](C)c2cc(F)c(F)cc12

>  <score_type>  (25) 
oracle

>  <origin>  (25) 
adg

>  <m_score__min__energy>  (25) 
-5.7800000000000002

>  <m_primary>  (25) 
energy

$$$$
