0:0
     RDKit          3D

 33 34  0  0  0  0  0  0  0  0999 V2000
   59.0710   28.0850   44.2800 C   0  0  0  0  0  0  0  0  0  0  0  0
   57.5400   28.0850   44.2300 C   0  0  0  0  0  0  0  0  0  0  0  0
   57.0200   28.5870   42.9460 N   0  0  0  0  0  0  0  0  0  0  0  0
   56.2980   29.8610   43.1000 C   0  0  0  0  0  0  0  0  0  0  0  0
   57.1540   30.8630   43.8190 C   0  0  0  0  0  0  0  0  0  0  0  0
   57.3350   30.8740   45.1530 N   0  0  0  0  0  0  0  0  0  0  0  0
   58.1060   31.9670   45.3570 C   0  0  0  0  0  0  0  0  0  0  0  0
   58.5800   32.3950   46.6920 C   0  0  0  0  0  0  0  0  0  0  0  0
   58.8470   33.7540   46.9430 C   0  0  0  0  0  0  0  0  0  0  0  0
   59.2970   34.1680   48.2000 C   0  0  0  0  0  0  0  0  0  0  0  0
   59.4830   33.2330   49.2210 C   0  0  0  0  0  0  0  0  0  0  0  0
   60.0970   33.8020   50.9380 Br  0  0  0  0  0  0  0  0  0  0  0  0
   59.2210   31.8800   48.9850 C   0  0  0  0  0  0  0  0  0  0  0  0
   58.7720   31.4590   47.7290 C   0  0  0  0  0  0  0  0  0  0  0  0
   58.5280   30.1380   47.5320 F   0  0  0  0  0  0  0  0  0  0  0  0
   58.3800   32.6060   44.2400 O   0  0  0  0  0  0  0  0  0  0  0  0
   57.7980   31.9500   43.2680 C   0  0  0  0  0  0  0  0  0  0  0  0
   57.8490   32.3440   41.8280 C   0  0  0  0  0  0  0  0  0  0  0  0
   59.4375   27.0479   44.2920 H   0  0  0  0  0  0  0  0  0  0  0  0
   59.4668   28.6035   43.3943 H   0  0  0  0  0  0  0  0  0  0  0  0
   59.4082   28.6035   45.1896 H   0  0  0  0  0  0  0  0  0  0  0  0
   57.1817   27.0556   44.3780 H   0  0  0  0  0  0  0  0  0  0  0  0
   57.1785   28.7556   45.0235 H   0  0  0  0  0  0  0  0  0  0  0  0
   57.8040   28.6990   42.2600 H   0  0  0  0  0  0  0  0  0  0  0  0
   56.3560   27.8720   42.5660 H   0  0  0  0  0  0  0  0  0  0  0  0
   56.0383   30.2531   42.1056 H   0  0  0  0  0  0  0  0  0  0  0  0
   55.3844   29.6852   43.6869 H   0  0  0  0  0  0  0  0  0  0  0  0
   58.7005   34.4958   46.1441 H   0  0  0  0  0  0  0  0  0  0  0  0
   59.5050   35.2321   48.3855 H   0  0  0  0  0  0  0  0  0  0  0  0
   59.3684   31.1444   49.7895 H   0  0  0  0  0  0  0  0  0  0  0  0
   57.9899   33.4322   41.7504 H   0  0  0  0  0  0  0  0  0  0  0  0
   58.6881   31.8297   41.3366 H   0  0  0  0  0  0  0  0  0  0  0  0
   56.9066   32.0603   41.3366 H   0  0  0  0  0  0  0  0  0  0  0  0
  1  2  1  0
  2  3  1  0
  3  4  1  0
  4  5  1  0
  5  6  1  0
  6  7  2  0
  7  8  1  0
  8  9  2  0
  9 10  1  0
 10 11  2  0
 11 12  1  0
 11 13  1  0
 13 14  2  0
 14 15  1  0
  7 16  1  0
 16 17  1  0
 17 18  1  0
 17  5  2  0
 14  8  1  0
  1 19  1  0
  1 20  1  0
  1 21  1  0
  2 22  1  0
  2 23  1  0
  3 24  1  0
  3 25  1  0
  4 26  1  0
  4 27  1  0
  9 28  1  0
 10 29  1  0
 13 30  1  0
 18 31  1  0
 18 32  1  0
 18 33  1  0
M  CHG  1   3   1
M  END
>  <UniqueID>  (1) 
1

>  <SMILES>  (1) 
CC[NH2+]Cc1nc(-c2ccc(Br)cc2F)oc1C

>  <Energy>  (1) 
59.034497675811906

>  <Genealogy>  (1) 
CC[NH2+]Cc1nc(-c2ccc(Br)cc2F)oc1C (protonated)
CC[NH2+]Cc1nc(-c2ccc(Br)cc2F)oc1C (3D coordinates assigned)
CC[NH2+]Cc1nc(-c2ccc(Br)cc2F)oc1C (optimized conformer: 59.034497675811906 kcal/mol)

>  <smiles>  (1) 
CCNCc1nc(-c2ccc(Br)cc2F)oc1C

>  <score_type>  (1) 
oracle

>  <origin>  (1) 
adg

>  <m_score__min__energy>  (1) 
-5.1200000000000001

>  <m_primary>  (1) 
energy

$$$$
1:0
     RDKit          3D

 42 45  0  0  0  0  0  0  0  0999 V2000
   57.3380   32.8930   40.1800 C   0  0  0  0  0  0  0  0  0  0  0  0
   57.3520   32.3250   41.2450 C   0  0  0  0  0  0  0  0  0  0  0  0
   57.3890   31.6530   42.5150 C   0  0  0  0  0  0  0  0  0  0  0  0
   58.1440   32.1790   43.5690 C   0  0  0  0  0  0  0  0  0  0  0  0
   58.1290   31.5420   44.8310 C   0  0  0  0  0  0  0  0  0  0  0  0
   58.8770   32.0220   45.9870 N   0  0  1  0  0  0  0  0  0  0  0  0
   59.8450   33.0870   45.6200 C   0  0  0  0  0  0  0  0  0  0  0  0
   59.5800   34.1960   46.6460 C   0  0  1  0  0  0  0  0  0  0  0  0
   58.0790   34.1330   46.7160 C   0  0  0  0  0  0  0  0  0  0  0  0
   58.0810   32.6550   47.0760 C   0  0  2  0  0  0  0  0  0  0  0  0
   58.9600   32.6940   48.3430 C   0  0  0  0  0  0  0  0  0  0  0  0
   59.9680   33.6790   47.9580 N   0  0  0  0  0  0  0  0  0  0  0  0
   61.2510   33.8680   48.5750 C   0  0  0  0  0  0  0  0  0  0  0  0
   61.3530   34.6150   49.5850 O   0  0  0  0  0  0  0  0  0  0  0  0
   62.4770   33.1760   48.0400 C   0  0  0  0  0  0  0  0  0  0  0  0
   62.6300   31.6610   48.2730 C   0  0  0  0  0  0  0  0  0  0  0  0
   61.6860   30.8840   47.4540 C   0  0  0  0  0  0  0  0  0  0  0  0
   60.9380   30.2840   46.7980 N   0  0  0  0  0  0  0  0  0  0  0  0
   63.7510   34.0210   47.9570 C   0  0  0  0  0  0  0  0  0  0  0  0
   62.9680   33.7140   46.6950 C   0  0  0  0  0  0  0  0  0  0  0  0
   57.3630   30.3710   44.9690 C   0  0  0  0  0  0  0  0  0  0  0  0
   56.6300   29.8810   43.8880 C   0  0  0  0  0  0  0  0  0  0  0  0
   56.6530   30.5290   42.6980 N   0  0  0  0  0  0  0  0  0  0  0  0
   57.3252   33.4106   39.2095 H   0  0  0  0  0  0  0  0  0  0  0  0
   58.7476   33.0858   43.4161 H   0  0  0  0  0  0  0  0  0  0  0  0
   59.4010   31.2000   46.3750 H   0  0  0  0  0  0  0  0  0  0  0  0
   60.8790   32.7200   45.6986 H   0  0  0  0  0  0  0  0  0  0  0  0
   59.7236   33.4313   44.5823 H   0  0  0  0  0  0  0  0  0  0  0  0
   60.0610   35.1567   46.4100 H   0  0  0  0  0  0  0  0  0  0  0  0
   57.6502   34.7739   47.5005 H   0  0  0  0  0  0  0  0  0  0  0  0
   57.4927   34.4668   45.8472 H   0  0  0  0  0  0  0  0  0  0  0  0
   57.1113   32.1519   47.2045 H   0  0  0  0  0  0  0  0  0  0  0  0
   58.3869   33.0257   49.2213 H   0  0  0  0  0  0  0  0  0  0  0  0
   59.3719   31.7174   48.6373 H   0  0  0  0  0  0  0  0  0  0  0  0
   63.6563   31.3626   48.0129 H   0  0  0  0  0  0  0  0  0  0  0  0
   62.4145   31.4544   49.3317 H   0  0  0  0  0  0  0  0  0  0  0  0
   63.7596   35.0432   48.3631 H   0  0  0  0  0  0  0  0  0  0  0  0
   64.7951   33.8847   48.2753 H   0  0  0  0  0  0  0  0  0  0  0  0
   62.4098   34.5141   46.1869 H   0  0  0  0  0  0  0  0  0  0  0  0
   63.2112   33.2636   45.7214 H   0  0  0  0  0  0  0  0  0  0  0  0
   57.3417   29.8398   45.9320 H   0  0  0  0  0  0  0  0  0  0  0  0
   56.0312   28.9653   44.0019 H   0  0  0  0  0  0  0  0  0  0  0  0
  1  2  3  0
  2  3  1  0
  3  4  2  0
  4  5  1  0
  5  6  1  0
  6  7  1  0
  7  8  1  0
  8  9  1  0
  9 10  1  0
 10 11  1  0
 11 12  1  0
 12 13  1  0
 13 14  2  0
 13 15  1  0
 15 16  1  0
 16 17  1  0
 17 18  3  0
 15 19  1  0
 19 20  1  0
  5 21  2  0
 21 22  1  0
 22 23  2  0
 23  3  1  0
 10  6  1  0
 20 15  1  0
 12  8  1  0
  1 24  1  0
  4 25  1  0
  6 26  1  1
  7 27  1  0
  7 28  1  0
  8 29  1  6
  9 30  1  0
  9 31  1  0
 10 32  1  1
 11 33  1  0
 11 34  1  0
 16 35  1  0
 16 36  1  0
 19 37  1  0
 19 38  1  0
 20 39  1  0
 20 40  1  0
 21 41  1  0
 22 42  1  0
M  CHG  1   6   1
M  END
>  <UniqueID>  (2) 
2

>  <SMILES>  (2) 
C#Cc1cc([N@H+]2C[C@H]3CC2CN3C(=O)C2(CC#N)CC2)ccn1

>  <Energy>  (2) 
350.29802852439144

>  <Genealogy>  (2) 
C#Cc1cc([NH+]2CC3CC2CN3C(=O)C2(CC#N)CC2)ccn1 (protonated)
C#Cc1cc([N@H+]2C[C@H]3CC2CN3C(=O)C2(CC#N)CC2)ccn1 (chirality)
C#Cc1cc([N@H+]2C[C@H]3CC2CN3C(=O)C2(CC#N)CC2)ccn1 (3D coordinates assigned)
C#Cc1cc([N@H+]2C[C@H]3CC2CN3C(=O)C2(CC#N)CC2)ccn1 (nonaromatic ring conformer: 350.29802852439144 kcal/mol)

>  <smiles>  (2) 
C#Cc1cc(N2CC3CC2CN3C(=O)C2(CC#N)CC2)ccn1

>  <score_type>  (2) 
oracle

>  <origin>  (2) 
adg

>  <m_score__min__energy>  (2) 
-6.7800000000000002

>  <m_primary>  (2) 
energy

$$$$
2:0
     RDKit          3D

 48 49  0  0  0  0  0  0  0  0999 V2000
   55.5260   29.7300   46.0620 H   0  0  0  0  0  0  0  0  0  0  0  0
   55.5360   29.8200   45.0540 O   0  0  0  0  0  0  0  0  0  0  0  0
   56.5870   30.4460   44.4290 N   0  0  0  0  0  0  0  0  0  0  0  0
   57.7370   30.6990   44.9870 C   0  0  0  0  0  0  0  0  0  0  0  0
   58.5640   29.5550   45.4390 C   0  0  0  0  0  0  0  0  0  0  0  0
   58.4170   28.2990   44.8310 C   0  0  0  0  0  0  0  0  0  0  0  0
   57.6875   28.1658   44.0185 H   0  0  0  0  0  0  0  0  0  0  0  0
   59.1910   27.2200   45.2520 C   0  0  0  0  0  0  0  0  0  0  0  0
   59.0824   26.2370   44.7703 H   0  0  0  0  0  0  0  0  0  0  0  0
   60.1030   27.3980   46.2880 C   0  0  0  0  0  0  0  0  0  0  0  0
   60.7148   26.5501   46.6298 H   0  0  0  0  0  0  0  0  0  0  0  0
   60.2420   28.6140   46.8800 N   0  0  0  0  0  0  0  0  0  0  0  0
   60.9020   28.6970   47.6840 H   0  0  0  0  0  0  0  0  0  0  0  0
   59.5120   29.6970   46.4750 C   0  0  0  0  0  0  0  0  0  0  0  0
   59.6460   30.9350   47.1230 O   0  0  0  0  0  0  0  0  0  0  0  0
   60.8530   31.4980   47.5630 C   0  0  0  0  0  0  0  0  0  0  0  0
   61.3410   32.7040   47.0310 C   0  0  0  0  0  0  0  0  0  0  0  0
   60.7743   33.2227   46.2437 H   0  0  0  0  0  0  0  0  0  0  0  0
   62.5400   33.2480   47.4950 C   0  0  0  0  0  0  0  0  0  0  0  0
   62.9146   34.1908   47.0698 H   0  0  0  0  0  0  0  0  0  0  0  0
   63.2680   32.5980   48.5000 C   0  0  0  0  0  0  0  0  0  0  0  0
   64.5380   33.2000   49.0220 C   0  0  0  0  0  0  0  0  0  0  0  0
   64.5223   33.1926   50.1219 H   0  0  0  0  0  0  0  0  0  0  0  0
   65.3964   32.6130   48.6636 H   0  0  0  0  0  0  0  0  0  0  0  0
   64.6270   34.2361   48.6636 H   0  0  0  0  0  0  0  0  0  0  0  0
   62.7680   31.4100   49.0550 C   0  0  0  0  0  0  0  0  0  0  0  0
   63.3239   30.9093   49.8614 H   0  0  0  0  0  0  0  0  0  0  0  0
   61.5600   30.8520   48.5890 C   0  0  0  0  0  0  0  0  0  0  0  0
   61.0300   29.6630   49.1160 O   0  0  0  0  0  0  0  0  0  0  0  0
   60.9900   29.3440   50.5030 C   0  0  0  0  0  0  0  0  0  0  0  0
   61.1054   30.2643   51.0944 H   0  0  0  0  0  0  0  0  0  0  0  0
   60.0257   28.8724   50.7431 H   0  0  0  0  0  0  0  0  0  0  0  0
   61.8080   28.6489   50.7431 H   0  0  0  0  0  0  0  0  0  0  0  0
   58.2460   32.0420   45.1640 N   0  0  0  0  0  0  0  0  0  0  0  0
   59.2350   32.1230   45.4860 H   0  0  0  0  0  0  0  0  0  0  0  0
   57.4920   33.2740   44.9130 C   0  0  0  0  0  0  0  0  0  0  0  0
   57.4950   33.4722   43.8310 H   0  0  0  0  0  0  0  0  0  0  0  0
   56.4739   33.1207   45.3002 H   0  0  0  0  0  0  0  0  0  0  0  0
   58.0820   34.5030   45.6400 C   0  0  0  0  0  0  0  0  0  0  0  0
   57.2888   35.2651   45.6489 H   0  0  0  0  0  0  0  0  0  0  0  0
   59.2800   35.0980   44.8910 C   0  0  0  0  0  0  0  0  0  0  0  0
   60.0203   35.4657   45.6167 H   0  0  0  0  0  0  0  0  0  0  0  0
   59.7391   34.3232   44.2594 H   0  0  0  0  0  0  0  0  0  0  0  0
   58.9401   35.9320   44.2594 H   0  0  0  0  0  0  0  0  0  0  0  0
   58.4380   34.1970   47.1010 C   0  0  0  0  0  0  0  0  0  0  0  0
   57.7743   34.7675   47.7673 H   0  0  0  0  0  0  0  0  0  0  0  0
   58.3120   33.1210   47.2915 H   0  0  0  0  0  0  0  0  0  0  0  0
   59.4829   34.4832   47.2915 H   0  0  0  0  0  0  0  0  0  0  0  0
  1  2  1  0
  2  3  1  0
  3  4  2  0
  4  5  1  0
  5  6  2  0
  6  7  1  0
  6  8  1  0
  8  9  1  0
  8 10  2  0
 10 11  1  0
 10 12  1  0
 12 13  1  0
 12 14  2  0
 14 15  1  0
 15 16  1  0
 16 17  2  0
 17 18  1  0
 17 19  1  0
 19 20  1  0
 19 21  2  0
 21 22  1  0
 22 23  1  0
 22 24  1  0
 22 25  1  0
 21 26  1  0
 26 27  1  0
 26 28  2  0
 28 29  1  0
 29 30  1  0
 30 31  1  0
 30 32  1  0
 30 33  1  0
  4 34  1  0
 34 35  1  0
 34 36  1  0
 36 37  1  0
 36 38  1  0
 36 39  1  0
 39 40  1  0
 39 41  1  0
 41 42  1  0
 41 43  1  0
 41 44  1  0
 39 45  1  0
 45 46  1  0
 45 47  1  0
 45 48  1  0
 14  5  1  0
 28 16  1  0
M  CHG  1  12   1
M  END
>  <UniqueID>  (3) 
3

>  <SMILES>  (3) 
COc1cc(C)ccc1Oc1[nH+]cccc1/C(=N/O)NCC(C)C

>  <Energy>  (3) 
53.54631288162698

>  <Genealogy>  (3) 
COc1cc(C)ccc1Oc1[nH+]cccc1C(=NO)NCC(C)C (protonated)
COc1cc(C)ccc1Oc1[nH+]cccc1/C(=N/O)NCC(C)C (cis-trans isomerization)
COc1cc(C)ccc1Oc1[nH+]cccc1/C(=N/O)NCC(C)C (3D coordinates assigned)
COc1cc(C)ccc1Oc1[nH+]cccc1/C(=N/O)NCC(C)C (optimized conformer: 53.54631288162698 kcal/mol)

>  <smiles>  (3) 
COc1cc(C)ccc1Oc1ncccc1C(=NO)NCC(C)C

>  <score_type>  (3) 
oracle

>  <origin>  (3) 
adg

>  <m_score__min__energy>  (3) 
-6.2000000000000002

>  <m_primary>  (3) 
energy

$$$$
3:0
     RDKit          3D

 38 39  0  0  0  0  0  0  0  0999 V2000
   56.2710   29.7210   43.0200 C   0  0  0  0  0  0  0  0  0  0  0  0
   56.3060   30.1680   44.3710 O   0  0  0  0  0  0  0  0  0  0  0  0
   57.2220   31.1050   44.8760 C   0  0  0  0  0  0  0  0  0  0  0  0
   57.3700   32.3840   44.3100 C   0  0  0  0  0  0  0  0  0  0  0  0
   58.2930   33.2900   44.8380 C   0  0  0  0  0  0  0  0  0  0  0  0
   59.0890   32.9350   45.9370 C   0  0  0  0  0  0  0  0  0  0  0  0
   60.0720   33.8880   46.5180 C   0  0  0  0  0  0  0  0  0  0  0  0
   59.7500   35.4970   46.3930 S   0  0  0  0  0  0  0  0  0  0  0  0
   61.3030   33.4650   47.1680 N   0  0  0  0  0  0  0  0  0  0  0  0
   62.5140   33.8340   46.4010 C   0  0  0  0  0  0  0  0  0  0  0  0
   63.7690   33.1500   46.9800 C   0  0  0  0  0  0  0  0  0  0  0  0
   63.6790   32.9430   48.5030 C   0  0  0  0  0  0  0  0  0  0  0  0
   62.7790   33.9940   49.1570 C   0  0  0  0  0  0  0  0  0  0  0  0
   61.3490   33.9470   48.5730 C   0  0  0  0  0  0  0  0  0  0  0  0
   58.9370   31.6610   46.5060 C   0  0  0  0  0  0  0  0  0  0  0  0
   58.0080   30.7420   45.9790 C   0  0  0  0  0  0  0  0  0  0  0  0
   57.8380   29.4590   46.5240 O   0  0  0  0  0  0  0  0  0  0  0  0
   58.5900   28.3120   46.1410 C   0  0  0  0  0  0  0  0  0  0  0  0
   56.1851   28.6246   42.9987 H   0  0  0  0  0  0  0  0  0  0  0  0
   55.4050   30.1666   42.5087 H   0  0  0  0  0  0  0  0  0  0  0  0
   57.1958   30.0264   42.5087 H   0  0  0  0  0  0  0  0  0  0  0  0
   56.7545   32.6730   43.4453 H   0  0  0  0  0  0  0  0  0  0  0  0
   58.3963   34.2888   44.3888 H   0  0  0  0  0  0  0  0  0  0  0  0
   61.2800   32.4170   47.1940 H   0  0  0  0  0  0  0  0  0  0  0  0
   62.3852   33.5212   45.3543 H   0  0  0  0  0  0  0  0  0  0  0  0
   62.6494   34.9237   46.4656 H   0  0  0  0  0  0  0  0  0  0  0  0
   63.8903   32.1690   46.4974 H   0  0  0  0  0  0  0  0  0  0  0  0
   64.6286   33.8074   46.7826 H   0  0  0  0  0  0  0  0  0  0  0  0
   63.2667   31.9433   48.7046 H   0  0  0  0  0  0  0  0  0  0  0  0
   64.6896   33.0409   48.9261 H   0  0  0  0  0  0  0  0  0  0  0  0
   62.7311   33.8021   50.2391 H   0  0  0  0  0  0  0  0  0  0  0  0
   63.2039   34.9889   48.9579 H   0  0  0  0  0  0  0  0  0  0  0  0
   60.7405   33.2726   49.1935 H   0  0  0  0  0  0  0  0  0  0  0  0
   60.9616   34.9765   48.5769 H   0  0  0  0  0  0  0  0  0  0  0  0
   59.5504   31.3766   47.3737 H   0  0  0  0  0  0  0  0  0  0  0  0
   58.9366   27.7834   47.0413 H   0  0  0  0  0  0  0  0  0  0  0  0
   57.9561   27.6408   45.5429 H   0  0  0  0  0  0  0  0  0  0  0  0
   59.4583   28.6257   45.5429 H   0  0  0  0  0  0  0  0  0  0  0  0
  1  2  1  0
  2  3  1  0
  3  4  2  0
  4  5  1  0
  5  6  2  0
  6  7  1  0
  7  8  2  0
  7  9  1  0
  9 10  1  0
 10 11  1  0
 11 12  1  0
 12 13  1  0
 13 14  1  0
  6 15  1  0
 15 16  2  0
 16 17  1  0
 17 18  1  0
 16  3  1  0
 14  9  1  0
  1 19  1  0
  1 20  1  0
  1 21  1  0
  4 22  1  0
  5 23  1  0
  9 24  1  0
 10 25  1  0
 10 26  1  0
 11 27  1  0
 11 28  1  0
 12 29  1  0
 12 30  1  0
 13 31  1  0
 13 32  1  0
 14 33  1  0
 14 34  1  0
 15 35  1  0
 18 36  1  0
 18 37  1  0
 18 38  1  0
M  CHG  1   9   1
M  END
>  <UniqueID>  (4) 
4

>  <SMILES>  (4) 
COc1ccc(C(=S)[NH+]2CCCCC2)cc1OC

>  <Energy>  (4) 
50.367954977040526

>  <Genealogy>  (4) 
COc1ccc(C(=S)[NH+]2CCCCC2)cc1OC (protonated)
COc1ccc(C(=S)[NH+]2CCCCC2)cc1OC (3D coordinates assigned)
COc1ccc(C(=S)[NH+]2CCCCC2)cc1OC (nonaromatic ring conformer: 50.367954977040526 kcal/mol)

>  <smiles>  (4) 
COc1ccc(C(=S)N2CCCCC2)cc1OC

>  <score_type>  (4) 
oracle

>  <origin>  (4) 
adg

>  <m_score__min__energy>  (4) 
-5.1799999999999997

>  <m_primary>  (4) 
energy

$$$$
4:0
     RDKit          3D

 58 61  0  0  0  0  0  0  0  0999 V2000
   59.2700   35.0190   47.4900 O   0  0  0  0  0  0  0  0  0  0  0  0
   60.1220   35.1250   46.3770 C   0  0  2  0  0  0  0  0  0  0  0  0
   59.3190   34.8560   45.0820 C   0  0  0  0  0  0  0  0  0  0  0  0
   58.6590   33.5000   45.0810 C   0  0  0  0  0  0  0  0  0  0  0  0
   58.5020   32.7890   46.2820 C   0  0  0  0  0  0  0  0  0  0  0  0
   57.8190   31.5720   46.2970 C   0  0  0  0  0  0  0  0  0  0  0  0
   57.2830   31.0520   45.1160 C   0  0  0  0  0  0  0  0  0  0  0  0
   57.4630   31.7370   43.9000 C   0  0  0  0  0  0  0  0  0  0  0  0
   58.1440   32.9620   43.8900 C   0  0  0  0  0  0  0  0  0  0  0  0
   56.8530   31.1960   42.6310 C   0  0  0  0  0  0  0  0  0  0  0  0
   56.6000   29.6860   42.7230 C   0  0  0  0  0  0  0  0  0  0  0  0
   55.8570   29.3550   44.0200 C   0  0  0  0  0  0  0  0  0  0  0  0
   56.5870   29.8380   45.1470 O   0  0  0  0  0  0  0  0  0  0  0  0
   61.3300   34.1750   46.5530 C   0  0  0  0  0  0  0  0  0  0  0  0
   61.4920   33.7670   47.9680 N   0  0  0  0  0  0  0  0  0  0  0  0
   61.2770   32.3230   48.1980 C   0  0  0  0  0  0  0  0  0  0  0  0
   62.4910   31.4640   47.7850 C   0  0  0  0  0  0  0  0  0  0  0  0
   63.7640   31.9420   48.3730 N   0  0  0  0  0  0  0  0  0  0  0  0
   63.8920   31.6390   49.8220 C   0  0  0  0  0  0  0  0  0  0  0  0
   64.9690   32.4680   50.4840 C   0  0  0  0  0  0  0  0  0  0  0  0
   64.6210   33.4880   51.3860 C   0  0  0  0  0  0  0  0  0  0  0  0
   65.6150   34.2650   51.9880 C   0  0  0  0  0  0  0  0  0  0  0  0
   66.9610   34.0310   51.6940 C   0  0  0  0  0  0  0  0  0  0  0  0
   67.3150   33.0200   50.7970 C   0  0  0  0  0  0  0  0  0  0  0  0
   66.3250   32.2410   50.1920 C   0  0  0  0  0  0  0  0  0  0  0  0
   63.9550   33.3820   48.0940 C   0  0  0  0  0  0  0  0  0  0  0  0
   62.7610   34.2270   48.5630 C   0  0  0  0  0  0  0  0  0  0  0  0
   59.8220   34.7380   48.2660 H   0  0  0  0  0  0  0  0  0  0  0  0
   60.5282   36.1440   46.2960 H   0  0  0  0  0  0  0  0  0  0  0  0
   58.5406   35.6269   44.9834 H   0  0  0  0  0  0  0  0  0  0  0  0
   60.0257   34.8836   44.2395 H   0  0  0  0  0  0  0  0  0  0  0  0
   58.9196   33.1935   47.2158 H   0  0  0  0  0  0  0  0  0  0  0  0
   57.7023   31.0204   47.2415 H   0  0  0  0  0  0  0  0  0  0  0  0
   58.2761   33.5058   42.9430 H   0  0  0  0  0  0  0  0  0  0  0  0
   55.8963   31.7075   42.4489 H   0  0  0  0  0  0  0  0  0  0  0  0
   57.5589   31.3762   41.8069 H   0  0  0  0  0  0  0  0  0  0  0  0
   55.9923   29.3659   41.8638 H   0  0  0  0  0  0  0  0  0  0  0  0
   57.5651   29.1582   42.7163 H   0  0  0  0  0  0  0  0  0  0  0  0
   54.8645   29.8289   44.0005 H   0  0  0  0  0  0  0  0  0  0  0  0
   55.7522   28.2632   44.1032 H   0  0  0  0  0  0  0  0  0  0  0  0
   61.1727   33.2774   45.9370 H   0  0  0  0  0  0  0  0  0  0  0  0
   62.2396   34.7079   46.2389 H   0  0  0  0  0  0  0  0  0  0  0  0
   61.0812   32.1630   49.2686 H   0  0  0  0  0  0  0  0  0  0  0  0
   60.4245   32.0120   47.5762 H   0  0  0  0  0  0  0  0  0  0  0  0
   62.3179   30.4297   48.1169 H   0  0  0  0  0  0  0  0  0  0  0  0
   62.5868   31.5332   46.6914 H   0  0  0  0  0  0  0  0  0  0  0  0
   64.5410   31.4430   47.8760 H   0  0  0  0  0  0  0  0  0  0  0  0
   62.9308   31.8481   50.3142 H   0  0  0  0  0  0  0  0  0  0  0  0
   64.1703   30.5796   49.9230 H   0  0  0  0  0  0  0  0  0  0  0  0
   63.5625   33.6756   51.6192 H   0  0  0  0  0  0  0  0  0  0  0  0
   65.3373   35.0616   52.6940 H   0  0  0  0  0  0  0  0  0  0  0  0
   67.7420   34.6429   52.1689 H   0  0  0  0  0  0  0  0  0  0  0  0
   68.3749   32.8369   50.5666 H   0  0  0  0  0  0  0  0  0  0  0  0
   66.6080   31.4474   49.4848 H   0  0  0  0  0  0  0  0  0  0  0  0
   64.8599   33.7270   48.6157 H   0  0  0  0  0  0  0  0  0  0  0  0
   64.0493   33.5055   47.0050 H   0  0  0  0  0  0  0  0  0  0  0  0
   62.6854   34.1582   49.6582 H   0  0  0  0  0  0  0  0  0  0  0  0
   62.9313   35.2649   48.2408 H   0  0  0  0  0  0  0  0  0  0  0  0
  1  2  1  0
  2  3  1  0
  3  4  1  0
  4  5  2  0
  5  6  1  0
  6  7  2  0
  7  8  1  0
  8  9  2  0
  8 10  1  0
 10 11  1  0
 11 12  1  0
 12 13  1  0
  2 14  1  0
 14 15  1  0
 15 16  1  0
 16 17  1  0
 17 18  1  0
 18 19  1  0
 19 20  1  0
 20 21  2  0
 21 22  1  0
 22 23  2  0
 23 24  1  0
 24 25  2  0
 18 26  1  0
 26 27  1  0
  9  4  1  0
 27 15  1  0
 13  7  1  0
 25 20  1  0
  1 28  1  0
  2 29  1  6
  3 30  1  0
  3 31  1  0
  5 32  1  0
  6 33  1  0
  9 34  1  0
 10 35  1  0
 10 36  1  0
 11 37  1  0
 11 38  1  0
 12 39  1  0
 12 40  1  0
 14 41  1  0
 14 42  1  0
 16 43  1  0
 16 44  1  0
 17 45  1  0
 17 46  1  0
 18 47  1  0
 19 48  1  0
 19 49  1  0
 21 50  1  0
 22 51  1  0
 23 52  1  0
 24 53  1  0
 25 54  1  0
 26 55  1  0
 26 56  1  0
 27 57  1  0
 27 58  1  0
M  CHG  1  18   1
M  END
>  <UniqueID>  (5) 
5

>  <SMILES>  (5) 
O[C@H](Cc1ccc2c(c1)CCCO2)CN1CC[NH+](Cc2ccccc2)CC1

>  <Energy>  (5) 
63.89260399724714

>  <Genealogy>  (5) 
OC(Cc1ccc2c(c1)CCCO2)CN1CC[NH+](Cc2ccccc2)CC1 (protonated)
O[C@H](Cc1ccc2c(c1)CCCO2)CN1CC[NH+](Cc2ccccc2)CC1 (chirality)
O[C@H](Cc1ccc2c(c1)CCCO2)CN1CC[NH+](Cc2ccccc2)CC1 (3D coordinates assigned)
O[C@H](Cc1ccc2c(c1)CCCO2)CN1CC[NH+](Cc2ccccc2)CC1 (nonaromatic ring conformer: 63.89260399724714 kcal/mol)

>  <smiles>  (5) 
OC(Cc1ccc2c(c1)CCCO2)CN1CCN(Cc2ccccc2)CC1

>  <score_type>  (5) 
oracle

>  <origin>  (5) 
adg

>  <m_score__min__energy>  (5) 
-7.5499999999999998

>  <m_primary>  (5) 
energy

$$$$
5:0
     RDKit          3D

 46 48  0  0  0  0  0  0  0  0999 V2000
   61.7157   29.1403   47.6751 H   0  0  0  0  0  0  0  0  0  0  0  0
   60.7540   29.3820   47.1990 C   0  0  0  0  0  0  0  0  0  0  0  0
   59.9780   30.5290   47.7150 C   0  0  0  0  0  0  0  0  0  0  0  0
   59.0940   30.3180   48.5880 O   0  0  0  0  0  0  0  0  0  0  0  0
   60.2120   31.9200   47.2600 C   0  0  0  0  0  0  0  0  0  0  0  0
   61.4140   32.5550   47.6320 C   0  0  0  0  0  0  0  0  0  0  0  0
   62.3310   31.8520   48.4330 O   0  0  0  0  0  0  0  0  0  0  0  0
   63.6920   32.2250   48.6250 C   0  0  0  0  0  0  0  0  0  0  0  0
   63.9076   32.2841   49.7021 H   0  0  0  0  0  0  0  0  0  0  0  0
   64.3472   31.4733   48.1606 H   0  0  0  0  0  0  0  0  0  0  0  0
   63.8724   33.2057   48.1606 H   0  0  0  0  0  0  0  0  0  0  0  0
   61.6770   33.8630   47.1880 C   0  0  0  0  0  0  0  0  0  0  0  0
   62.6146   34.3586   47.4798 H   0  0  0  0  0  0  0  0  0  0  0  0
   60.7620   34.5380   46.3820 C   0  0  0  0  0  0  0  0  0  0  0  0
   60.9874   35.5568   46.0338 H   0  0  0  0  0  0  0  0  0  0  0  0
   59.5580   33.9270   46.0130 C   0  0  0  0  0  0  0  0  0  0  0  0
   58.6370   34.6200   45.2110 C   0  0  0  0  0  0  0  0  0  0  0  0
   58.8713   35.6362   44.8612 H   0  0  0  0  0  0  0  0  0  0  0  0
   57.4260   34.0250   44.8560 C   0  0  0  0  0  0  0  0  0  0  0  0
   56.7103   34.5717   44.2244 H   0  0  0  0  0  0  0  0  0  0  0  0
   57.1210   32.7390   45.3000 C   0  0  0  0  0  0  0  0  0  0  0  0
   56.1634   32.2758   45.0199 H   0  0  0  0  0  0  0  0  0  0  0  0
   58.0260   32.0360   46.0990 C   0  0  0  0  0  0  0  0  0  0  0  0
   57.7713   31.0257   46.4516 H   0  0  0  0  0  0  0  0  0  0  0  0
   59.2650   32.6110   46.4580 C   0  0  0  0  0  0  0  0  0  0  0  0
   60.3360   28.6230   46.1750 C   0  0  0  0  0  0  0  0  0  0  0  0
   61.0237   28.4649   45.3312 H   0  0  0  0  0  0  0  0  0  0  0  0
   58.9980   27.9850   46.1170 C   0  0  0  0  0  0  0  0  0  0  0  0
   58.7530   26.7010   46.6340 C   0  0  0  0  0  0  0  0  0  0  0  0
   59.5750   26.1302   47.0907 H   0  0  0  0  0  0  0  0  0  0  0  0
   57.4740   26.1450   46.5720 C   0  0  0  0  0  0  0  0  0  0  0  0
   57.2976   25.1359   46.9728 H   0  0  0  0  0  0  0  0  0  0  0  0
   56.4090   26.8650   46.0010 C   0  0  0  0  0  0  0  0  0  0  0  0
   55.1100   26.3380   45.9200 O   0  0  0  0  0  0  0  0  0  0  0  0
   54.8100   24.9760   45.6280 C   0  0  0  0  0  0  0  0  0  0  0  0
   54.6871   24.4180   46.5679 H   0  0  0  0  0  0  0  0  0  0  0  0
   53.8785   24.9225   45.0453 H   0  0  0  0  0  0  0  0  0  0  0  0
   55.6328   24.5361   45.0453 H   0  0  0  0  0  0  0  0  0  0  0  0
   56.6380   28.1550   45.4970 C   0  0  0  0  0  0  0  0  0  0  0  0
   55.5550   28.8520   44.9400 O   0  0  0  0  0  0  0  0  0  0  0  0
   55.6590   29.7790   43.8620 C   0  0  0  0  0  0  0  0  0  0  0  0
   55.7732   30.7968   44.2634 H   0  0  0  0  0  0  0  0  0  0  0  0
   56.5346   29.5276   43.2454 H   0  0  0  0  0  0  0  0  0  0  0  0
   54.7495   29.7279   43.2454 H   0  0  0  0  0  0  0  0  0  0  0  0
   57.9310   28.7100   45.5640 C   0  0  0  0  0  0  0  0  0  0  0  0
   58.1067   29.7249   45.1778 H   0  0  0  0  0  0  0  0  0  0  0  0
  1  2  1  0
  2  3  1  0
  3  4  2  0
  3  5  1  0
  5  6  2  0
  6  7  1  0
  7  8  1  0
  8  9  1  0
  8 10  1  0
  8 11  1  0
  6 12  1  0
 12 13  1  0
 12 14  2  0
 14 15  1  0
 14 16  1  0
 16 17  2  0
 17 18  1  0
 17 19  1  0
 19 20  1  0
 19 21  2  0
 21 22  1  0
 21 23  1  0
 23 24  1  0
 23 25  2  0
  2 26  2  0
 26 27  1  0
 26 28  1  0
 28 29  2  0
 29 30  1  0
 29 31  1  0
 31 32  1  0
 31 33  2  0
 33 34  1  0
 34 35  1  0
 35 36  1  0
 35 37  1  0
 35 38  1  0
 33 39  1  0
 39 40  1  0
 40 41  1  0
 41 42  1  0
 41 43  1  0
 41 44  1  0
 39 45  2  0
 45 46  1  0
 25  5  1  0
 45 28  1  0
 25 16  1  0
M  END
>  <UniqueID>  (6) 
6

>  <SMILES>  (6) 
COc1ccc(/C=C/C(=O)c2c(OC)ccc3ccccc23)cc1OC

>  <Energy>  (6) 
60.72164137204276

>  <Genealogy>  (6) 
COc1ccc(/C=C/C(=O)c2c(OC)ccc3ccccc23)cc1OC (cis-trans isomerization)
COc1ccc(/C=C/C(=O)c2c(OC)ccc3ccccc23)cc1OC (3D coordinates assigned)
COc1ccc(/C=C/C(=O)c2c(OC)ccc3ccccc23)cc1OC (optimized conformer: 60.72164137204276 kcal/mol)

>  <smiles>  (6) 
COc1ccc(C=CC(=O)c2c(OC)ccc3ccccc23)cc1OC

>  <score_type>  (6) 
oracle

>  <origin>  (6) 
adg

>  <m_score__min__energy>  (6) 
-9.0299999999999994

>  <m_primary>  (6) 
energy

$$$$
6:0
     RDKit          3D

 48 50  0  0  0  0  0  0  0  0999 V2000
   56.3970   29.8200   43.3910 C   0  0  0  0  0  0  0  0  0  0  0  0
   56.2710   30.5100   44.6300 O   0  0  0  0  0  0  0  0  0  0  0  0
   57.1990   31.4620   45.0630 C   0  0  0  0  0  0  0  0  0  0  0  0
   57.5060   32.5460   44.2370 C   0  0  0  0  0  0  0  0  0  0  0  0
   58.4340   33.4960   44.6690 C   0  0  0  0  0  0  0  0  0  0  0  0
   59.0600   33.3530   45.9160 C   0  0  0  0  0  0  0  0  0  0  0  0
   60.0370   34.3620   46.3830 C   0  0  0  0  0  0  0  0  0  0  0  0
   59.8700   35.5700   46.0610 O   0  0  0  0  0  0  0  0  0  0  0  0
   61.1760   33.9920   47.1870 N   0  0  0  0  0  0  0  0  0  0  0  0
   62.4900   33.8260   46.5320 C   0  0  0  0  0  0  0  0  0  0  0  0
   63.3620   32.7320   47.1750 C   0  0  0  0  0  0  0  0  0  0  0  0
   64.0770   33.1930   48.4650 C   0  0  0  0  0  0  0  0  0  0  0  0
   63.1890   33.1930   49.6490 N   0  0  0  0  0  0  0  0  0  0  0  0
   63.7310   32.3660   50.7500 C   0  0  0  0  0  0  0  0  0  0  0  0
   65.2350   32.3620   50.8070 C   0  0  0  0  0  0  0  0  0  0  0  0
   66.0650   31.2590   50.9120 C   0  0  0  0  0  0  0  0  0  0  0  0
   67.3400   31.6900   50.9420 N   0  0  0  0  0  0  0  0  0  0  0  0
   67.3440   33.0120   50.8750 N   0  0  0  0  0  0  0  0  0  0  0  0
   68.5470   33.8290   50.8100 C   0  0  0  0  0  0  0  0  0  0  0  0
   66.0770   33.4580   50.7790 C   0  0  0  0  0  0  0  0  0  0  0  0
   61.7860   32.8570   49.3250 C   0  0  0  0  0  0  0  0  0  0  0  0
   61.0550   34.0370   48.6530 C   0  0  0  0  0  0  0  0  0  0  0  0
   58.7110   32.2580   46.7200 C   0  0  0  0  0  0  0  0  0  0  0  0
   57.8010   31.3480   46.2790 N   0  0  0  0  0  0  0  0  0  0  0  0
   56.5916   28.7545   43.5828 H   0  0  0  0  0  0  0  0  0  0  0  0
   55.4649   29.9249   42.8165 H   0  0  0  0  0  0  0  0  0  0  0  0
   57.2319   30.2476   42.8165 H   0  0  0  0  0  0  0  0  0  0  0  0
   57.0211   32.6503   43.2552 H   0  0  0  0  0  0  0  0  0  0  0  0
   58.6745   34.3584   44.0299 H   0  0  0  0  0  0  0  0  0  0  0  0
   62.3226   33.5628   45.4771 H   0  0  0  0  0  0  0  0  0  0  0  0
   63.0300   34.7778   46.6434 H   0  0  0  0  0  0  0  0  0  0  0  0
   62.7191   31.8740   47.4208 H   0  0  0  0  0  0  0  0  0  0  0  0
   64.1442   32.4719   46.4467 H   0  0  0  0  0  0  0  0  0  0  0  0
   64.9210   32.5149   48.6596 H   0  0  0  0  0  0  0  0  0  0  0  0
   64.4115   34.2285   48.3041 H   0  0  0  0  0  0  0  0  0  0  0  0
   63.3466   32.7582   51.7031 H   0  0  0  0  0  0  0  0  0  0  0  0
   63.4092   31.3300   50.5680 H   0  0  0  0  0  0  0  0  0  0  0  0
   65.7385   30.2098   50.9623 H   0  0  0  0  0  0  0  0  0  0  0  0
   68.1920   31.0890   51.0000 H   0  0  0  0  0  0  0  0  0  0  0  0
   68.8883   34.0608   51.8297 H   0  0  0  0  0  0  0  0  0  0  0  0
   69.3355   33.2788   50.2756 H   0  0  0  0  0  0  0  0  0  0  0  0
   68.3263   34.7648   50.2756 H   0  0  0  0  0  0  0  0  0  0  0  0
   65.7666   34.5098   50.6933 H   0  0  0  0  0  0  0  0  0  0  0  0
   61.7750   31.9954   48.6412 H   0  0  0  0  0  0  0  0  0  0  0  0
   61.2648   32.6225   50.2649 H   0  0  0  0  0  0  0  0  0  0  0  0
   59.9896   33.9963   48.9237 H   0  0  0  0  0  0  0  0  0  0  0  0
   61.5174   34.9708   49.0055 H   0  0  0  0  0  0  0  0  0  0  0  0
   59.1744   32.1347   47.7100 H   0  0  0  0  0  0  0  0  0  0  0  0
  1  2  1  0
  2  3  1  0
  3  4  2  0
  4  5  1  0
  5  6  2  0
  6  7  1  0
  7  8  2  0
  7  9  1  0
  9 10  1  0
 10 11  1  0
 11 12  1  0
 12 13  1  0
 13 14  1  0
 14 15  1  0
 15 16  1  0
 16 17  2  0
 17 18  1  0
 18 19  1  0
 18 20  1  0
 13 21  1  0
 21 22  1  0
  6 23  1  0
 23 24  2  0
 24  3  1  0
 22  9  1  0
 20 15  2  0
  1 25  1  0
  1 26  1  0
  1 27  1  0
  4 28  1  0
  5 29  1  0
 10 30  1  0
 10 31  1  0
 11 32  1  0
 11 33  1  0
 12 34  1  0
 12 35  1  0
 14 36  1  0
 14 37  1  0
 16 38  1  0
 17 39  1  0
 19 40  1  0
 19 41  1  0
 19 42  1  0
 20 43  1  0
 21 44  1  0
 21 45  1  0
 22 46  1  0
 22 47  1  0
 23 48  1  0
M  CHG  1  17   1
M  END
>  <UniqueID>  (7) 
7

>  <SMILES>  (7) 
COc1ccc(C(=O)N2CCCN(Cc3c[nH+]n(C)c3)CC2)cn1

>  <Energy>  (7) 
91.24013770524132

>  <Genealogy>  (7) 
COc1ccc(C(=O)N2CCCN(Cc3c[nH+]n(C)c3)CC2)cn1 (protonated)
COc1ccc(C(=O)N2CCCN(Cc3c[nH+]n(C)c3)CC2)cn1 (3D coordinates assigned)
COc1ccc(C(=O)N2CCCN(Cc3c[nH+]n(C)c3)CC2)cn1 (nonaromatic ring conformer: 91.24013770524132 kcal/mol)

>  <smiles>  (7) 
COc1ccc(C(=O)N2CCCN(Cc3cnn(C)c3)CC2)cn1

>  <score_type>  (7) 
oracle

>  <origin>  (7) 
adg

>  <m_score__min__energy>  (7) 
-5.4800000000000004

>  <m_primary>  (7) 
energy

$$$$
7:0
     RDKit          3D

 46 47  0  0  0  0  0  0  0  0999 V2000
   54.9850   25.0810   45.5970 C   0  0  0  0  0  0  0  0  0  0  0  0
   55.5750   26.3060   45.9680 O   0  0  0  0  0  0  0  0  0  0  0  0
   56.8560   26.0630   46.5110 C   0  0  0  0  0  0  0  0  0  0  0  0
   57.8710   27.0340   45.8920 C   0  0  0  0  0  0  0  0  0  0  0  0
   57.6540   27.2410   44.4420 N   0  0  0  0  0  0  0  0  0  0  0  0
   57.9110   28.6090   43.9220 C   0  0  0  0  0  0  0  0  0  0  0  0
   58.6880   29.5160   44.9030 C   0  0  0  0  0  0  0  0  0  0  0  0
   57.7850   30.4310   45.7370 C   0  0  0  0  0  0  0  0  0  0  0  0
   56.8610   31.2130   44.8980 N   0  0  0  0  0  0  0  0  0  0  0  0
   57.5450   32.2240   44.0590 C   0  0  0  0  0  0  0  0  0  0  0  0
   57.3900   33.6280   44.6550 C   0  0  0  0  0  0  0  0  0  0  0  0
   58.3480   33.8470   45.7970 C   0  0  0  0  0  0  0  0  0  0  0  0
   58.0090   33.4350   47.0980 C   0  0  0  0  0  0  0  0  0  0  0  0
   58.9160   33.6040   48.1490 C   0  0  0  0  0  0  0  0  0  0  0  0
   60.1670   34.1780   47.9080 C   0  0  0  0  0  0  0  0  0  0  0  0
   60.5160   34.5790   46.6160 C   0  0  0  0  0  0  0  0  0  0  0  0
   59.6120   34.4120   45.5620 C   0  0  0  0  0  0  0  0  0  0  0  0
   55.9450   30.3360   44.1410 C   0  0  0  0  0  0  0  0  0  0  0  0
   56.6680   29.2820   43.2730 C   0  0  0  0  0  0  0  0  0  0  0  0
   54.7130   24.5163   46.5010 H   0  0  0  0  0  0  0  0  0  0  0  0
   54.0816   25.2750   45.0002 H   0  0  0  0  0  0  0  0  0  0  0  0
   55.6999   24.4956   45.0002 H   0  0  0  0  0  0  0  0  0  0  0  0
   56.8257   26.2108   47.6006 H   0  0  0  0  0  0  0  0  0  0  0  0
   57.1570   25.0288   46.2876 H   0  0  0  0  0  0  0  0  0  0  0  0
   57.7858   28.0046   46.4025 H   0  0  0  0  0  0  0  0  0  0  0  0
   58.8711   26.5938   46.0184 H   0  0  0  0  0  0  0  0  0  0  0  0
   56.6550   27.0050   44.2290 H   0  0  0  0  0  0  0  0  0  0  0  0
   58.2210   26.5610   43.8830 H   0  0  0  0  0  0  0  0  0  0  0  0
   58.6059   28.4626   43.0820 H   0  0  0  0  0  0  0  0  0  0  0  0
   59.2625   28.8755   45.5884 H   0  0  0  0  0  0  0  0  0  0  0  0
   59.3360   30.1665   44.2973 H   0  0  0  0  0  0  0  0  0  0  0  0
   57.1967   29.8121   46.4304 H   0  0  0  0  0  0  0  0  0  0  0  0
   58.4291   31.1379   46.2806 H   0  0  0  0  0  0  0  0  0  0  0  0
   58.6148   31.9757   43.9968 H   0  0  0  0  0  0  0  0  0  0  0  0
   57.0887   32.2157   43.0581 H   0  0  0  0  0  0  0  0  0  0  0  0
   57.5899   34.3739   43.8716 H   0  0  0  0  0  0  0  0  0  0  0  0
   56.3640   33.7312   45.0380 H   0  0  0  0  0  0  0  0  0  0  0  0
   57.0269   32.9781   47.2898 H   0  0  0  0  0  0  0  0  0  0  0  0
   58.6444   33.2849   49.1661 H   0  0  0  0  0  0  0  0  0  0  0  0
   60.8778   34.3143   48.7364 H   0  0  0  0  0  0  0  0  0  0  0  0
   61.5030   35.0266   46.4275 H   0  0  0  0  0  0  0  0  0  0  0  0
   59.8921   34.7244   44.5452 H   0  0  0  0  0  0  0  0  0  0  0  0
   55.2969   29.8101   44.8575 H   0  0  0  0  0  0  0  0  0  0  0  0
   55.3766   30.9813   43.4551 H   0  0  0  0  0  0  0  0  0  0  0  0
   55.9438   28.4905   43.0300 H   0  0  0  0  0  0  0  0  0  0  0  0
   57.0467   29.8262   42.3953 H   0  0  0  0  0  0  0  0  0  0  0  0
  1  2  1  0
  2  3  1  0
  3  4  1  0
  4  5  1  0
  5  6  1  0
  6  7  1  0
  7  8  1  0
  8  9  1  0
  9 10  1  0
 10 11  1  0
 11 12  1  0
 12 13  2  0
 13 14  1  0
 14 15  2  0
 15 16  1  0
 16 17  2  0
  9 18  1  0
 18 19  1  0
 19  6  1  0
 17 12  1  0
  1 20  1  0
  1 21  1  0
  1 22  1  0
  3 23  1  0
  3 24  1  0
  4 25  1  0
  4 26  1  0
  5 27  1  0
  5 28  1  0
  6 29  1  0
  7 30  1  0
  7 31  1  0
  8 32  1  0
  8 33  1  0
 10 34  1  0
 10 35  1  0
 11 36  1  0
 11 37  1  0
 13 38  1  0
 14 39  1  0
 15 40  1  0
 16 41  1  0
 17 42  1  0
 18 43  1  0
 18 44  1  0
 19 45  1  0
 19 46  1  0
M  CHG  1   5   1
M  END
>  <UniqueID>  (8) 
8

>  <SMILES>  (8) 
COCC[NH2+]C1CCN(CCc2ccccc2)CC1

>  <Energy>  (8) 
56.24959055649851

>  <Genealogy>  (8) 
COCC[NH2+]C1CCN(CCc2ccccc2)CC1 (protonated)
COCC[NH2+]C1CCN(CCc2ccccc2)CC1 (3D coordinates assigned)
COCC[NH2+]C1CCN(CCc2ccccc2)CC1 (nonaromatic ring conformer: 56.24959055649851 kcal/mol)

>  <smiles>  (8) 
COCCNC1CCN(CCc2ccccc2)CC1

>  <score_type>  (8) 
oracle

>  <origin>  (8) 
adg

>  <m_score__min__energy>  (8) 
-6.1600000000000001

>  <m_primary>  (8) 
energy

$$$$
8:0
     RDKit          3D

 19 20  0  0  0  0  0  0  0  0999 V2000
   53.8330   29.9060   55.4420 C   0  0  0  0  0  0  0  0  0  0  0  0
   53.1440   29.2580   54.3770 O   0  0  0  0  0  0  0  0  0  0  0  0
   52.6240   29.9200   53.2560 C   0  0  0  0  0  0  0  0  0  0  0  0
   52.2050   31.2850   53.3030 C   0  0  0  0  0  0  0  0  0  0  0  0
   51.6860   31.9190   52.1560 C   0  0  0  0  0  0  0  0  0  0  0  0
   51.6030   31.1590   50.9950 C   0  0  0  0  0  0  0  0  0  0  0  0
   51.9990   29.8600   50.9410 C   0  0  0  0  0  0  0  0  0  0  0  0
   52.5160   29.1960   52.0480 C   0  0  0  0  0  0  0  0  0  0  0  0
   51.7920   29.4110   49.6890 N   0  0  0  0  0  0  0  0  0  0  0  0
   51.2780   30.4220   48.9910 N   0  0  0  0  0  0  0  0  0  0  0  0
   51.1590   31.4870   49.7730 N   0  0  0  0  0  0  0  0  0  0  0  0
   50.6620   32.7050   49.3710 O   0  0  0  0  0  0  0  0  0  0  0  0
   53.4455   29.5416   56.4048 H   0  0  0  0  0  0  0  0  0  0  0  0
   54.9081   29.6842   55.3718 H   0  0  0  0  0  0  0  0  0  0  0  0
   53.6775   30.9927   55.3718 H   0  0  0  0  0  0  0  0  0  0  0  0
   52.2883   31.8474   54.2447 H   0  0  0  0  0  0  0  0  0  0  0  0
   51.3608   32.9696   52.1786 H   0  0  0  0  0  0  0  0  0  0  0  0
   52.8299   28.1436   51.9851 H   0  0  0  0  0  0  0  0  0  0  0  0
   51.9890   28.4570   49.3120 H   0  0  0  0  0  0  0  0  0  0  0  0
  1  2  1  0
  2  3  1  0
  3  4  2  0
  4  5  1  0
  5  6  2  0
  6  7  1  0
  7  8  2  0
  7  9  1  0
  9 10  2  0
 10 11  1  0
 11 12  1  0
  8  3  1  0
 11  6  1  0
  1 13  1  0
  1 14  1  0
  1 15  1  0
  4 16  1  0
  5 17  1  0
  8 18  1  0
  9 19  1  0
M  CHG  2   9   1  12  -1
M  END
>  <UniqueID>  (9) 
9

>  <SMILES>  (9) 
COc1ccc2c(c1)[nH+]nn2[O-]

>  <Energy>  (9) 
65.81820733855189

>  <Genealogy>  (9) 
COc1ccc2c(c1)[nH+]nn2[O-] (protonated)
COc1ccc2c(c1)[nH+]nn2[O-] (3D coordinates assigned)
COc1ccc2c(c1)[nH+]nn2[O-] (optimized conformer: 65.81820733855189 kcal/mol)

>  <smiles>  (9) 
COc1ccc2c(c1)nnn2O

>  <score_type>  (9) 
oracle

>  <origin>  (9) 
adg

>  <m_score__min__energy>  (9) 
-6.3099999999999996

>  <m_primary>  (9) 
energy

$$$$
9:0
     RDKit          3D

 54 56  0  0  0  0  0  0  0  0999 V2000
   60.3940   27.6780   48.8610 C   0  0  0  0  0  0  0  0  0  0  0  0
   59.5470   28.6400   48.2410 O   0  0  0  0  0  0  0  0  0  0  0  0
   59.8650   29.9970   48.0890 C   0  0  0  0  0  0  0  0  0  0  0  0
   60.8950   30.4400   47.2360 C   0  0  0  0  0  0  0  0  0  0  0  0
   61.1750   31.8050   47.1210 C   0  0  0  0  0  0  0  0  0  0  0  0
   60.4360   32.7460   47.8560 C   0  0  0  0  0  0  0  0  0  0  0  0
   60.7760   34.2130   47.7730 C   0  0  0  0  0  0  0  0  0  0  0  0
   60.0920   34.8840   46.5720 C   0  0  0  0  0  0  0  0  0  0  0  0
   59.1060   33.9770   45.9450 N   0  0  0  0  0  0  0  0  0  0  0  0
   59.0350   34.1670   44.4860 C   0  0  0  0  0  0  0  0  0  0  0  0
   58.1620   33.0660   43.8460 C   0  0  0  0  0  0  0  0  0  0  0  0
   57.2150   32.4470   44.8040 N   0  0  0  0  0  0  0  0  0  0  0  0
   57.7900   31.2700   45.4950 C   0  0  0  0  0  0  0  0  0  0  0  0
   58.2800   30.2570   44.4580 C   0  0  0  0  0  0  0  0  0  0  0  0
   58.2480   28.8960   45.0130 N   0  0  0  0  0  0  0  0  0  0  0  0
   59.4540   28.1240   45.1340 C   0  0  0  0  0  0  0  0  0  0  0  0
   60.5610   28.5930   44.7540 O   0  0  0  0  0  0  0  0  0  0  0  0
   59.3910   26.7240   45.6760 C   0  0  0  0  0  0  0  0  0  0  0  0
   58.2850   26.5820   46.6330 N   0  0  0  0  0  0  0  0  0  0  0  0
   56.9940   26.9080   46.0080 C   0  0  0  0  0  0  0  0  0  0  0  0
   57.0040   28.2910   45.4110 C   0  0  0  0  0  0  0  0  0  0  0  0
   55.9090   28.8890   45.2250 O   0  0  0  0  0  0  0  0  0  0  0  0
   56.6660   33.4470   45.7400 C   0  0  0  0  0  0  0  0  0  0  0  0
   57.7720   34.1550   46.5540 C   0  0  0  0  0  0  0  0  0  0  0  0
   59.4120   32.3020   48.7080 C   0  0  0  0  0  0  0  0  0  0  0  0
   59.1260   30.9400   48.8150 C   0  0  0  0  0  0  0  0  0  0  0  0
   60.3137   27.7692   49.9543 H   0  0  0  0  0  0  0  0  0  0  0  0
   60.0872   26.6673   48.5539 H   0  0  0  0  0  0  0  0  0  0  0  0
   61.4354   27.8543   48.5539 H   0  0  0  0  0  0  0  0  0  0  0  0
   61.4808   29.7096   46.6586 H   0  0  0  0  0  0  0  0  0  0  0  0
   61.9789   32.1437   46.4509 H   0  0  0  0  0  0  0  0  0  0  0  0
   60.4436   34.7095   48.6966 H   0  0  0  0  0  0  0  0  0  0  0  0
   61.8646   34.3077   47.6466 H   0  0  0  0  0  0  0  0  0  0  0  0
   59.5766   35.7935   46.9142 H   0  0  0  0  0  0  0  0  0  0  0  0
   60.8613   35.1327   45.8261 H   0  0  0  0  0  0  0  0  0  0  0  0
   58.5949   35.1515   44.2689 H   0  0  0  0  0  0  0  0  0  0  0  0
   60.0503   34.1084   44.0669 H   0  0  0  0  0  0  0  0  0  0  0  0
   57.5856   33.5109   43.0214 H   0  0  0  0  0  0  0  0  0  0  0  0
   58.8384   32.2733   43.4937 H   0  0  0  0  0  0  0  0  0  0  0  0
   58.6350   31.5900   46.1223 H   0  0  0  0  0  0  0  0  0  0  0  0
   57.0195   30.8037   46.1266 H   0  0  0  0  0  0  0  0  0  0  0  0
   57.6294   30.3022   43.5722 H   0  0  0  0  0  0  0  0  0  0  0  0
   59.3154   30.5040   44.1808 H   0  0  0  0  0  0  0  0  0  0  0  0
   59.2391   26.0217   44.8431 H   0  0  0  0  0  0  0  0  0  0  0  0
   60.3357   26.5051   46.1953 H   0  0  0  0  0  0  0  0  0  0  0  0
   58.4460   27.2360   47.4350 H   0  0  0  0  0  0  0  0  0  0  0  0
   56.7870   26.1768   45.2128 H   0  0  0  0  0  0  0  0  0  0  0  0
   56.2156   26.8726   46.7844 H   0  0  0  0  0  0  0  0  0  0  0  0
   56.1107   34.2027   45.1651 H   0  0  0  0  0  0  0  0  0  0  0  0
   56.0099   32.9208   46.4490 H   0  0  0  0  0  0  0  0  0  0  0  0
   57.5443   35.2301   46.6027 H   0  0  0  0  0  0  0  0  0  0  0  0
   57.7943   33.7075   47.5586 H   0  0  0  0  0  0  0  0  0  0  0  0
   58.8326   33.0308   49.2938 H   0  0  0  0  0  0  0  0  0  0  0  0
   58.3130   30.6041   49.4754 H   0  0  0  0  0  0  0  0  0  0  0  0
  1  2  1  0
  2  3  1  0
  3  4  2  0
  4  5  1  0
  5  6  2  0
  6  7  1  0
  7  8  1  0
  8  9  1  0
  9 10  1  0
 10 11  1  0
 11 12  1  0
 12 13  1  0
 13 14  1  0
 14 15  1  0
 15 16  1  0
 16 17  2  0
 16 18  1  0
 18 19  1  0
 19 20  1  0
 20 21  1  0
 21 22  2  0
 12 23  1  0
 23 24  1  0
  6 25  1  0
 25 26  2  0
 26  3  1  0
 24  9  1  0
 21 15  1  0
  1 27  1  0
  1 28  1  0
  1 29  1  0
  4 30  1  0
  5 31  1  0
  7 32  1  0
  7 33  1  0
  8 34  1  0
  8 35  1  0
 10 36  1  0
 10 37  1  0
 11 38  1  0
 11 39  1  0
 13 40  1  0
 13 41  1  0
 14 42  1  0
 14 43  1  0
 18 44  1  0
 18 45  1  0
 19 46  1  0
 20 47  1  0
 20 48  1  0
 23 49  1  0
 23 50  1  0
 24 51  1  0
 24 52  1  0
 25 53  1  0
 26 54  1  0
M  END
>  <UniqueID>  (10) 
10

>  <SMILES>  (10) 
COc1ccc(CCN2CCN(CCN3C(=O)CNCC3=O)CC2)cc1

>  <Energy>  (10) 
57.38565759973988

>  <Genealogy>  (10) 
COc1ccc(CCN2CCN(CCN3C(=O)CNCC3=O)CC2)cc1 (3D coordinates assigned)
COc1ccc(CCN2CCN(CCN3C(=O)CNCC3=O)CC2)cc1 (nonaromatic ring conformer: 57.38565759973988 kcal/mol)

>  <smiles>  (10) 
COc1ccc(CCN2CCN(CCN3C(=O)CNCC3=O)CC2)cc1

>  <score_type>  (10) 
oracle

>  <origin>  (10) 
adg

>  <m_score__min__energy>  (10) 
-7.8099999999999996

>  <m_primary>  (10) 
energy

$$$$
10:0
     RDKit          3D

 57 60  0  0  0  0  0  0  0  0999 V2000
   56.3960   29.4690   44.2370 C   0  0  0  0  0  0  0  0  0  0  0  0
   56.6260   30.5600   43.1810 C   0  0  0  0  0  0  0  0  0  0  0  0
   57.9180   31.2770   43.3620 N   0  0  0  0  0  0  0  0  0  0  0  0
   58.1120   32.4300   42.4360 C   0  0  0  0  0  0  0  0  0  0  0  0
   57.3990   32.3230   41.0770 C   0  0  0  0  0  0  0  0  0  0  0  0
   58.2790   31.5490   44.7880 C   0  0  0  0  0  0  0  0  0  0  0  0
   58.4100   33.0270   45.2390 C   0  0  0  0  0  0  0  0  0  0  0  0
   57.6830   33.4000   46.5410 C   0  0  0  0  0  0  0  0  0  0  0  0
   58.5840   34.0510   47.4960 N   0  0  0  0  0  0  0  0  0  0  0  0
   59.5590   33.3160   48.2540 C   0  0  0  0  0  0  0  0  0  0  0  0
   60.9380   33.3030   47.9240 C   0  0  0  0  0  0  0  0  0  0  0  0
   61.4000   33.8620   46.7150 C   0  0  0  0  0  0  0  0  0  0  0  0
   62.7540   33.8300   46.3880 C   0  0  0  0  0  0  0  0  0  0  0  0
   63.6660   33.2150   47.2390 C   0  0  0  0  0  0  0  0  0  0  0  0
   63.2370   32.6250   48.4270 C   0  0  0  0  0  0  0  0  0  0  0  0
   61.8730   32.6620   48.8080 C   0  0  0  0  0  0  0  0  0  0  0  0
   61.4320   32.0700   49.9830 N   0  0  0  0  0  0  0  0  0  0  0  0
   62.3670   31.6680   51.0460 C   0  0  0  0  0  0  0  0  0  0  0  0
   60.0810   31.9270   50.1600 C   0  0  0  0  0  0  0  0  0  0  0  0
   59.1600   32.5530   49.3460 C   0  0  0  0  0  0  0  0  0  0  0  0
   57.8960   32.3510   49.7780 N   0  0  0  0  0  0  0  0  0  0  0  0
   58.0170   31.5590   50.8620 C   0  0  0  0  0  0  0  0  0  0  0  0
   56.9730   31.0440   51.6300 C   0  0  0  0  0  0  0  0  0  0  0  0
   57.2960   30.1830   52.6900 C   0  0  0  0  0  0  0  0  0  0  0  0
   58.6390   29.8390   52.9480 C   0  0  0  0  0  0  0  0  0  0  0  0
   59.6770   30.3660   52.1600 C   0  0  0  0  0  0  0  0  0  0  0  0
   59.3400   31.2570   51.1330 C   0  0  0  0  0  0  0  0  0  0  0  0
   56.4882   29.9063   45.2421 H   0  0  0  0  0  0  0  0  0  0  0  0
   55.3887   29.0449   44.1126 H   0  0  0  0  0  0  0  0  0  0  0  0
   57.1464   28.6743   44.1126 H   0  0  0  0  0  0  0  0  0  0  0  0
   56.6206   30.0919   42.1856 H   0  0  0  0  0  0  0  0  0  0  0  0
   55.8194   31.3000   43.2892 H   0  0  0  0  0  0  0  0  0  0  0  0
   58.6510   30.5940   43.0460 H   0  0  0  0  0  0  0  0  0  0  0  0
   57.7424   33.3346   42.9410 H   0  0  0  0  0  0  0  0  0  0  0  0
   59.1880   32.4534   42.2085 H   0  0  0  0  0  0  0  0  0  0  0  0
   56.3231   32.1615   41.2391 H   0  0  0  0  0  0  0  0  0  0  0  0
   57.5488   33.2537   40.5101 H   0  0  0  0  0  0  0  0  0  0  0  0
   57.8154   31.4773   40.5101 H   0  0  0  0  0  0  0  0  0  0  0  0
   57.5047   31.0834   45.4155 H   0  0  0  0  0  0  0  0  0  0  0  0
   59.2939   31.1387   44.8965 H   0  0  0  0  0  0  0  0  0  0  0  0
   59.4797   33.2436   45.3766 H   0  0  0  0  0  0  0  0  0  0  0  0
   57.9289   33.6224   44.4491 H   0  0  0  0  0  0  0  0  0  0  0  0
   56.8573   34.0871   46.3042 H   0  0  0  0  0  0  0  0  0  0  0  0
   57.3055   32.4748   47.0008 H   0  0  0  0  0  0  0  0  0  0  0  0
   58.6710   35.0900   47.4450 H   0  0  0  0  0  0  0  0  0  0  0  0
   60.6839   34.3284   46.0225 H   0  0  0  0  0  0  0  0  0  0  0  0
   63.1030   34.2929   45.4532 H   0  0  0  0  0  0  0  0  0  0  0  0
   64.7331   33.1940   46.9729 H   0  0  0  0  0  0  0  0  0  0  0  0
   63.9682   32.1235   49.0780 H   0  0  0  0  0  0  0  0  0  0  0  0
   61.9118   31.8637   52.0281 H   0  0  0  0  0  0  0  0  0  0  0  0
   62.5893   30.5948   50.9522 H   0  0  0  0  0  0  0  0  0  0  0  0
   63.2988   32.2450   50.9522 H   0  0  0  0  0  0  0  0  0  0  0  0
   57.0090   32.7130   49.3640 H   0  0  0  0  0  0  0  0  0  0  0  0
   55.9270   31.3051   51.4113 H   0  0  0  0  0  0  0  0  0  0  0  0
   56.4959   29.7735   53.3241 H   0  0  0  0  0  0  0  0  0  0  0  0
   58.8766   29.1519   53.7735 H   0  0  0  0  0  0  0  0  0  0  0  0
   60.7247   30.0865   52.3447 H   0  0  0  0  0  0  0  0  0  0  0  0
  1  2  1  0
  2  3  1  0
  3  4  1  0
  4  5  1  0
  3  6  1  0
  6  7  1  0
  7  8  1  0
  8  9  1  0
  9 10  1  0
 10 11  2  0
 11 12  1  0
 12 13  2  0
 13 14  1  0
 14 15  2  0
 15 16  1  0
 16 17  2  0
 17 18  1  0
 17 19  1  0
 19 20  2  0
 20 21  1  0
 21 22  1  0
 22 23  2  0
 23 24  1  0
 24 25  2  0
 25 26  1  0
 26 27  2  0
 20 10  1  0
 27 22  1  0
 16 11  1  0
 27 19  1  0
  1 28  1  0
  1 29  1  0
  1 30  1  0
  2 31  1  0
  2 32  1  0
  3 33  1  0
  4 34  1  0
  4 35  1  0
  5 36  1  0
  5 37  1  0
  5 38  1  0
  6 39  1  0
  6 40  1  0
  7 41  1  0
  7 42  1  0
  8 43  1  0
  8 44  1  0
  9 45  1  0
 12 46  1  0
 13 47  1  0
 14 48  1  0
 15 49  1  0
 18 50  1  0
 18 51  1  0
 18 52  1  0
 21 53  1  0
 23 54  1  0
 24 55  1  0
 25 56  1  0
 26 57  1  0
M  CHG  2   3   1  17   1
M  END
>  <UniqueID>  (11) 
11

>  <SMILES>  (11) 
CC[NH+](CC)CCCNc1c2ccccc2[n+](C)c2c1[nH]c1ccccc12

>  <Energy>  (11) 
129.15794205136137

>  <Genealogy>  (11) 
CC[NH+](CC)CCCNc1c2ccccc2[n+](C)c2c1[nH]c1ccccc12 (protonated)
CC[NH+](CC)CCCNc1c2ccccc2[n+](C)c2c1[nH]c1ccccc12 (3D coordinates assigned)
CC[NH+](CC)CCCNc1c2ccccc2[n+](C)c2c1[nH]c1ccccc12 (optimized conformer: 129.15794205136137 kcal/mol)

>  <smiles>  (11) 
CCN(CC)CCCNc1c2ccccc2[n+](C)c2c1[nH]c1ccccc12

>  <score_type>  (11) 
oracle

>  <origin>  (11) 
adg

>  <m_score__min__energy>  (11) 
-5.0300000000000002

>  <m_primary>  (11) 
energy

$$$$
11:0
     RDKit          3D

 43 44  0  0  0  0  0  0  0  0999 V2000
   58.9630   35.0740   44.9430 C   0  0  0  0  0  0  0  0  0  0  0  0
   59.4250   33.6200   44.9420 C   0  0  0  0  0  0  0  0  0  0  0  0
   58.2620   32.7120   45.0570 N   0  0  0  0  0  0  0  0  0  0  0  0
   57.0880   33.4130   45.6240 C   0  0  0  0  0  0  0  0  0  0  0  0
   57.2000   33.4860   47.1440 C   0  0  0  0  0  0  0  0  0  0  0  0
   57.9370   32.0870   43.7520 C   0  0  0  0  0  0  0  0  0  0  0  0
   56.7090   31.1870   43.8830 C   0  0  0  0  0  0  0  0  0  0  0  0
   56.6640   30.6440   45.1800 O   0  0  0  0  0  0  0  0  0  0  0  0
   56.3810   29.3240   45.0340 N   0  0  0  0  0  0  0  0  0  0  0  0
   57.0930   28.3270   45.7720 C   0  0  0  0  0  0  0  0  0  0  0  0
   56.6990   27.1290   45.7430 O   0  0  0  0  0  0  0  0  0  0  0  0
   58.2800   28.6980   46.5620 C   0  0  0  0  0  0  0  0  0  0  0  0
   58.9680   27.7920   47.3680 C   0  0  0  0  0  0  0  0  0  0  0  0
   60.2400   28.6170   48.0930 S   0  0  0  0  0  0  0  0  0  0  0  0
   59.8800   30.0910   47.3590 C   0  0  0  0  0  0  0  0  0  0  0  0
   60.6410   31.3500   47.5540 C   0  0  0  0  0  0  0  0  0  0  0  0
   60.0300   32.4860   48.1220 C   0  0  0  0  0  0  0  0  0  0  0  0
   60.7560   33.6670   48.3000 C   0  0  0  0  0  0  0  0  0  0  0  0
   62.0960   33.7330   47.9140 C   0  0  0  0  0  0  0  0  0  0  0  0
   62.7120   32.6170   47.3440 C   0  0  0  0  0  0  0  0  0  0  0  0
   61.9910   31.4330   47.1630 C   0  0  0  0  0  0  0  0  0  0  0  0
   58.7900   29.9630   46.5640 N   0  0  0  0  0  0  0  0  0  0  0  0
   58.8522   35.4228   45.9803 H   0  0  0  0  0  0  0  0  0  0  0  0
   59.7078   35.6958   44.4247 H   0  0  0  0  0  0  0  0  0  0  0  0
   57.9959   35.1518   44.4247 H   0  0  0  0  0  0  0  0  0  0  0  0
   59.9586   33.4093   44.0034 H   0  0  0  0  0  0  0  0  0  0  0  0
   60.0934   33.4561   45.8001 H   0  0  0  0  0  0  0  0  0  0  0  0
   57.0409   34.4326   45.2139 H   0  0  0  0  0  0  0  0  0  0  0  0
   56.1762   32.8582   45.3580 H   0  0  0  0  0  0  0  0  0  0  0  0
   56.3614   32.9394   47.6001 H   0  0  0  0  0  0  0  0  0  0  0  0
   58.1501   33.0332   47.4638 H   0  0  0  0  0  0  0  0  0  0  0  0
   57.1692   34.5380   47.4638 H   0  0  0  0  0  0  0  0  0  0  0  0
   57.7309   32.8759   43.0137 H   0  0  0  0  0  0  0  0  0  0  0  0
   58.7926   31.4776   43.4255 H   0  0  0  0  0  0  0  0  0  0  0  0
   55.7995   31.7783   43.7009 H   0  0  0  0  0  0  0  0  0  0  0  0
   56.7697   30.3729   43.1457 H   0  0  0  0  0  0  0  0  0  0  0  0
   58.7224   26.7285   47.5048 H   0  0  0  0  0  0  0  0  0  0  0  0
   58.9741   32.4428   48.4274 H   0  0  0  0  0  0  0  0  0  0  0  0
   60.2699   34.5474   48.7457 H   0  0  0  0  0  0  0  0  0  0  0  0
   62.6657   34.6628   48.0587 H   0  0  0  0  0  0  0  0  0  0  0  0
   63.7669   32.6696   47.0367 H   0  0  0  0  0  0  0  0  0  0  0  0
   62.4826   30.5588   46.7112 H   0  0  0  0  0  0  0  0  0  0  0  0
   58.3640   30.7490   46.0260 H   0  0  0  0  0  0  0  0  0  0  0  0
  1  2  1  0
  2  3  1  0
  3  4  1  0
  4  5  1  0
  3  6  1  0
  6  7  1  0
  7  8  1  0
  8  9  1  0
  9 10  1  0
 10 11  2  0
 10 12  1  0
 12 13  2  0
 13 14  1  0
 14 15  1  0
 15 16  1  0
 16 17  2  0
 17 18  1  0
 18 19  2  0
 19 20  1  0
 20 21  2  0
 15 22  2  0
 22 12  1  0
 21 16  1  0
  1 23  1  0
  1 24  1  0
  1 25  1  0
  2 26  1  0
  2 27  1  0
  4 28  1  0
  4 29  1  0
  5 30  1  0
  5 31  1  0
  5 32  1  0
  6 33  1  0
  6 34  1  0
  7 35  1  0
  7 36  1  0
 13 37  1  0
 17 38  1  0
 18 39  1  0
 19 40  1  0
 20 41  1  0
 21 42  1  0
 22 43  1  0
M  CHG  2   9  -1  22   1
M  END
>  <UniqueID>  (12) 
12

>  <SMILES>  (12) 
CCN(CC)CCO[N-]C(=O)c1csc(-c2ccccc2)[nH+]1

>  <Energy>  (12) 
68.60349158536985

>  <Genealogy>  (12) 
CCN(CC)CCO[N-]C(=O)c1csc(-c2ccccc2)[nH+]1 (protonated)
CCN(CC)CCO[N-]C(=O)c1csc(-c2ccccc2)[nH+]1 (3D coordinates assigned)
CCN(CC)CCO[N-]C(=O)c1csc(-c2ccccc2)[nH+]1 (optimized conformer: 68.60349158536985 kcal/mol)

>  <smiles>  (12) 
CCN(CC)CCONC(=O)c1csc(-c2ccccc2)n1

>  <score_type>  (12) 
oracle

>  <origin>  (12) 
adg

>  <m_score__min__energy>  (12) 
-6.5999999999999996

>  <m_primary>  (12) 
energy

$$$$
12:0
     RDKit          3D

 31 32  0  0  0  0  0  0  0  0999 V2000
   57.5090   34.2100   45.5120 C   0  0  0  0  0  0  0  0  0  0  0  0
   57.8650   33.0130   46.1950 O   0  0  0  0  0  0  0  0  0  0  0  0
   57.9190   31.7390   45.6040 C   0  0  0  0  0  0  0  0  0  0  0  0
   57.1030   31.4010   44.5050 C   0  0  0  0  0  0  0  0  0  0  0  0
   57.1890   30.1330   43.9130 C   0  0  0  0  0  0  0  0  0  0  0  0
   56.2860   29.7760   42.7680 C   0  0  0  0  0  0  0  0  0  0  0  0
   58.0760   29.1860   44.4360 C   0  0  0  0  0  0  0  0  0  0  0  0
   58.8890   29.5090   45.5230 C   0  0  0  0  0  0  0  0  0  0  0  0
   58.8130   30.7760   46.1230 C   0  0  0  0  0  0  0  0  0  0  0  0
   59.7120   31.0860   47.2970 C   0  0  0  0  0  0  0  0  0  0  0  0
   60.2090   32.4580   47.2120 N   0  0  0  0  0  0  0  0  0  0  0  0
   61.5710   32.7560   47.0160 N   0  0  0  0  0  0  0  0  0  0  0  0
   62.0720   33.8360   46.3920 C   0  0  0  0  0  0  0  0  0  0  0  0
   63.4200   33.8070   46.3950 N   0  0  0  0  0  0  0  0  0  0  0  0
   63.7680   32.6960   47.0300 N   0  0  0  0  0  0  0  0  0  0  0  0
   62.6480   32.0560   47.4100 C   0  0  0  0  0  0  0  0  0  0  0  0
   57.2754   34.9953   46.2460 H   0  0  0  0  0  0  0  0  0  0  0  0
   58.3491   34.5359   44.8811 H   0  0  0  0  0  0  0  0  0  0  0  0
   56.6273   34.0238   44.8811 H   0  0  0  0  0  0  0  0  0  0  0  0
   56.3914   32.1399   44.1079 H   0  0  0  0  0  0  0  0  0  0  0  0
   55.3299   29.3980   43.1591 H   0  0  0  0  0  0  0  0  0  0  0  0
   56.1030   30.6694   42.1530 H   0  0  0  0  0  0  0  0  0  0  0  0
   56.7634   28.9990   42.1530 H   0  0  0  0  0  0  0  0  0  0  0  0
   58.1327   28.1827   43.9885 H   0  0  0  0  0  0  0  0  0  0  0  0
   59.5968   28.7632   45.9139 H   0  0  0  0  0  0  0  0  0  0  0  0
   59.1434   30.9640   48.2307 H   0  0  0  0  0  0  0  0  0  0  0  0
   60.5682   30.3956   47.2819 H   0  0  0  0  0  0  0  0  0  0  0  0
   59.5230   33.2420   47.2820 H   0  0  0  0  0  0  0  0  0  0  0  0
   61.4650   34.6346   45.9405 H   0  0  0  0  0  0  0  0  0  0  0  0
   64.7500   32.3900   47.2010 H   0  0  0  0  0  0  0  0  0  0  0  0
   62.6181   31.1038   47.9600 H   0  0  0  0  0  0  0  0  0  0  0  0
  1  2  1  0
  2  3  1  0
  3  4  2  0
  4  5  1  0
  5  6  1  0
  5  7  2  0
  7  8  1  0
  8  9  2  0
  9 10  1  0
 10 11  1  0
 11 12  1  0
 12 13  1  0
 13 14  2  0
 14 15  1  0
 15 16  2  0
  9  3  1  0
 16 12  1  0
  1 17  1  0
  1 18  1  0
  1 19  1  0
  4 20  1  0
  6 21  1  0
  6 22  1  0
  6 23  1  0
  7 24  1  0
  8 25  1  0
 10 26  1  0
 10 27  1  0
 11 28  1  0
 13 29  1  0
 15 30  1  0
 16 31  1  0
M  CHG  1  15   1
M  END
>  <UniqueID>  (13) 
13

>  <SMILES>  (13) 
COc1cc(C)ccc1CNn1cn[nH+]c1

>  <Energy>  (13) 
64.35960694488519

>  <Genealogy>  (13) 
COc1cc(C)ccc1CNn1cn[nH+]c1 (protonated)
COc1cc(C)ccc1CNn1cn[nH+]c1 (3D coordinates assigned)
COc1cc(C)ccc1CNn1cn[nH+]c1 (optimized conformer: 64.35960694488519 kcal/mol)

>  <smiles>  (13) 
COc1cc(C)ccc1CNn1cnnc1

>  <score_type>  (13) 
oracle

>  <origin>  (13) 
adg

>  <m_score__min__energy>  (13) 
-4.1299999999999999

>  <m_primary>  (13) 
energy

$$$$
13:0
     RDKit          3D

 47 50  0  0  0  0  0  0  0  0999 V2000
   55.2950   30.8100   51.9850 C   0  0  0  0  0  0  0  0  0  0  0  0
   56.5140   30.1100   51.7570 O   0  0  0  0  0  0  0  0  0  0  0  0
   57.6360   30.6600   51.1200 C   0  0  0  0  0  0  0  0  0  0  0  0
   57.9060   32.0420   51.1260 C   0  0  0  0  0  0  0  0  0  0  0  0
   59.0380   32.5420   50.4750 C   0  0  0  0  0  0  0  0  0  0  0  0
   59.9120   31.6750   49.8050 C   0  0  0  0  0  0  0  0  0  0  0  0
   61.0750   32.1940   49.1340 N   0  0  0  0  0  0  0  0  0  0  0  0
   61.1300   32.8400   47.9400 C   0  0  0  0  0  0  0  0  0  0  0  0
   59.9630   33.2890   47.1460 C   0  0  0  0  0  0  0  0  0  0  0  0
   58.7920   32.5140   47.0900 C   0  0  0  0  0  0  0  0  0  0  0  0
   57.6930   32.9490   46.3430 C   0  0  0  0  0  0  0  0  0  0  0  0
   57.7500   34.1630   45.6550 C   0  0  0  0  0  0  0  0  0  0  0  0
   56.6820   34.5840   44.9320 F   0  0  0  0  0  0  0  0  0  0  0  0
   58.9030   34.9490   45.7190 C   0  0  0  0  0  0  0  0  0  0  0  0
   60.0050   34.5180   46.4650 C   0  0  0  0  0  0  0  0  0  0  0  0
   62.4520   33.0600   47.5740 C   0  0  0  0  0  0  0  0  0  0  0  0
   63.2200   32.5430   48.6000 C   0  0  0  0  0  0  0  0  0  0  0  0
   64.6540   32.4570   48.6220 N   0  0  0  0  0  0  0  0  0  0  0  0
   65.1320   32.7610   49.9470 C   0  0  0  0  0  0  0  0  0  0  0  0
   64.5730   33.8270   50.6770 C   0  0  0  0  0  0  0  0  0  0  0  0
   65.0600   34.1430   51.9480 C   0  0  0  0  0  0  0  0  0  0  0  0
   66.1110   33.4060   52.4990 C   0  0  0  0  0  0  0  0  0  0  0  0
   66.6790   32.3520   51.7800 C   0  0  0  0  0  0  0  0  0  0  0  0
   66.1950   32.0320   50.5070 C   0  0  0  0  0  0  0  0  0  0  0  0
   62.3510   32.0090   49.5260 C   0  0  0  0  0  0  0  0  0  0  0  0
   62.7250   31.3330   50.6840 O   0  0  0  0  0  0  0  0  0  0  0  0
   59.6470   30.2970   49.8070 C   0  0  0  0  0  0  0  0  0  0  0  0
   58.5160   29.7970   50.4580 C   0  0  0  0  0  0  0  0  0  0  0  0
   55.1251   30.9075   53.0674 H   0  0  0  0  0  0  0  0  0  0  0  0
   55.3564   31.8104   51.5319 H   0  0  0  0  0  0  0  0  0  0  0  0
   54.4619   30.2527   51.5319 H   0  0  0  0  0  0  0  0  0  0  0  0
   57.2235   32.7311   51.6450 H   0  0  0  0  0  0  0  0  0  0  0  0
   59.2439   33.6225   50.4888 H   0  0  0  0  0  0  0  0  0  0  0  0
   58.7398   31.5607   47.6364 H   0  0  0  0  0  0  0  0  0  0  0  0
   56.7821   32.3341   46.2972 H   0  0  0  0  0  0  0  0  0  0  0  0
   58.9444   35.9082   45.1821 H   0  0  0  0  0  0  0  0  0  0  0  0
   60.9083   35.1434   46.5190 H   0  0  0  0  0  0  0  0  0  0  0  0
   62.8134   33.5461   46.6558 H   0  0  0  0  0  0  0  0  0  0  0  0
   65.0580   33.1250   47.9250 H   0  0  0  0  0  0  0  0  0  0  0  0
   64.9490   31.4930   48.3430 H   0  0  0  0  0  0  0  0  0  0  0  0
   63.7491   34.4139   50.2449 H   0  0  0  0  0  0  0  0  0  0  0  0
   64.6150   34.9735   52.5156 H   0  0  0  0  0  0  0  0  0  0  0  0
   66.4917   33.6561   53.5003 H   0  0  0  0  0  0  0  0  0  0  0  0
   67.5072   31.7732   52.2148 H   0  0  0  0  0  0  0  0  0  0  0  0
   66.6490   31.2051   49.9412 H   0  0  0  0  0  0  0  0  0  0  0  0
   60.3328   29.6070   49.2937 H   0  0  0  0  0  0  0  0  0  0  0  0
   58.3159   28.7154   50.4499 H   0  0  0  0  0  0  0  0  0  0  0  0
  1  2  1  0
  2  3  1  0
  3  4  2  0
  4  5  1  0
  5  6  2  0
  6  7  1  0
  7  8  1  0
  8  9  1  0
  9 10  2  0
 10 11  1  0
 11 12  2  0
 12 13  1  0
 12 14  1  0
 14 15  2  0
  8 16  2  0
 16 17  1  0
 17 18  1  0
 18 19  1  0
 19 20  2  0
 20 21  1  0
 21 22  2  0
 22 23  1  0
 23 24  2  0
 17 25  2  0
 25 26  1  0
  6 27  1  0
 27 28  2  0
 28  3  1  0
 25  7  1  0
 15  9  1  0
 24 19  1  0
  1 29  1  0
  1 30  1  0
  1 31  1  0
  4 32  1  0
  5 33  1  0
 10 34  1  0
 11 35  1  0
 14 36  1  0
 15 37  1  0
 16 38  1  0
 18 39  1  0
 18 40  1  0
 20 41  1  0
 21 42  1  0
 22 43  1  0
 23 44  1  0
 24 45  1  0
 27 46  1  0
 28 47  1  0
M  CHG  2  18   1  26  -1
M  END
>  <UniqueID>  (14) 
14

>  <SMILES>  (14) 
COc1ccc(-n2c(-c3ccc(F)cc3)cc([NH2+]c3ccccc3)c2[O-])cc1

>  <Energy>  (14) 
90.06684568448519

>  <Genealogy>  (14) 
COc1ccc(-n2c(-c3ccc(F)cc3)cc([NH2+]c3ccccc3)c2[O-])cc1 (protonated)
COc1ccc(-n2c(-c3ccc(F)cc3)cc([NH2+]c3ccccc3)c2[O-])cc1 (3D coordinates assigned)
COc1ccc(-n2c(-c3ccc(F)cc3)cc([NH2+]c3ccccc3)c2[O-])cc1 (optimized conformer: 90.06684568448519 kcal/mol)

>  <smiles>  (14) 
COc1ccc(-n2c(-c3ccc(F)cc3)cc(Nc3ccccc3)c2O)cc1

>  <score_type>  (14) 
oracle

>  <origin>  (14) 
adg

>  <m_score__min__energy>  (14) 
-7.04

>  <m_primary>  (14) 
energy

$$$$
14:0
     RDKit          3D

 38 40  0  0  0  0  0  0  0  0999 V2000
   60.7890   30.3840   47.9140 C   0  0  0  0  0  0  0  0  0  0  0  0
   60.0040   30.2580   46.7320 O   0  0  0  0  0  0  0  0  0  0  0  0
   59.0940   29.2210   46.4770 C   0  0  0  0  0  0  0  0  0  0  0  0
   59.3820   27.8960   46.8600 C   0  0  0  0  0  0  0  0  0  0  0  0
   58.4700   26.8690   46.6240 C   0  0  0  0  0  0  0  0  0  0  0  0
   57.2460   27.1370   45.9990 C   0  0  0  0  0  0  0  0  0  0  0  0
   56.2680   26.0580   45.7460 C   0  0  0  0  0  0  0  0  0  0  0  0
   56.6010   24.8950   45.3010 N   0  0  0  0  0  0  0  0  0  0  0  0
   55.4030   24.0770   45.1650 C   0  0  0  0  0  0  0  0  0  0  0  0
   54.2570   24.9880   45.6230 C   0  0  0  0  0  0  0  0  0  0  0  0
   54.9120   26.1970   45.9610 O   0  0  0  0  0  0  0  0  0  0  0  0
   56.9530   28.4520   45.6110 C   0  0  0  0  0  0  0  0  0  0  0  0
   57.8600   29.4970   45.8320 C   0  0  0  0  0  0  0  0  0  0  0  0
   57.4610   30.7740   45.3890 O   0  0  0  0  0  0  0  0  0  0  0  0
   58.2600   31.9560   45.2920 C   0  0  0  0  0  0  0  0  0  0  0  0
   58.1780   32.7350   46.6040 C   0  0  0  0  0  0  0  0  0  0  0  0
   58.0700   34.1980   46.2160 C   0  0  0  0  0  0  0  0  0  0  0  0
   57.3410   34.1980   44.8890 C   0  0  0  0  0  0  0  0  0  0  0  0
   57.7400   32.9020   44.1980 C   0  0  0  0  0  0  0  0  0  0  0  0
   60.1414   30.2801   48.7971 H   0  0  0  0  0  0  0  0  0  0  0  0
   61.5582   29.5978   47.9288 H   0  0  0  0  0  0  0  0  0  0  0  0
   61.2736   31.3714   47.9288 H   0  0  0  0  0  0  0  0  0  0  0  0
   60.3394   27.6692   47.3518 H   0  0  0  0  0  0  0  0  0  0  0  0
   58.7133   25.8410   46.9307 H   0  0  0  0  0  0  0  0  0  0  0  0
   55.2598   23.7694   44.1186 H   0  0  0  0  0  0  0  0  0  0  0  0
   55.4612   23.1513   45.7563 H   0  0  0  0  0  0  0  0  0  0  0  0
   53.5323   25.1470   44.8109 H   0  0  0  0  0  0  0  0  0  0  0  0
   53.6803   24.5646   46.4586 H   0  0  0  0  0  0  0  0  0  0  0  0
   55.9911   28.6679   45.1230 H   0  0  0  0  0  0  0  0  0  0  0  0
   59.2859   31.6336   45.0604 H   0  0  0  0  0  0  0  0  0  0  0  0
   57.2919   32.4253   47.1776 H   0  0  0  0  0  0  0  0  0  0  0  0
   59.0579   32.5503   47.2378 H   0  0  0  0  0  0  0  0  0  0  0  0
   57.4983   34.7572   46.9713 H   0  0  0  0  0  0  0  0  0  0  0  0
   59.0558   34.6811   46.1462 H   0  0  0  0  0  0  0  0  0  0  0  0
   56.2532   34.2276   45.0494 H   0  0  0  0  0  0  0  0  0  0  0  0
   57.6027   35.0778   44.2828 H   0  0  0  0  0  0  0  0  0  0  0  0
   56.8684   32.4570   43.6957 H   0  0  0  0  0  0  0  0  0  0  0  0
   58.5109   33.0834   43.4346 H   0  0  0  0  0  0  0  0  0  0  0  0
  1  2  1  0
  2  3  1  0
  3  4  2  0
  4  5  1  0
  5  6  2  0
  6  7  1  0
  7  8  2  0
  8  9  1  0
  9 10  1  0
 10 11  1  0
  6 12  1  0
 12 13  2  0
 13 14  1  0
 14 15  1  0
 15 16  1  0
 16 17  1  0
 17 18  1  0
 18 19  1  0
 13  3  1  0
 19 15  1  0
 11  7  1  0
  1 20  1  0
  1 21  1  0
  1 22  1  0
  4 23  1  0
  5 24  1  0
  9 25  1  0
  9 26  1  0
 10 27  1  0
 10 28  1  0
 12 29  1  0
 15 30  1  0
 16 31  1  0
 16 32  1  0
 17 33  1  0
 17 34  1  0
 18 35  1  0
 18 36  1  0
 19 37  1  0
 19 38  1  0
M  END
>  <UniqueID>  (15) 
15

>  <SMILES>  (15) 
COc1ccc(C2=NCCO2)cc1OC1CCCC1

>  <Energy>  (15) 
54.567786938008716

>  <Genealogy>  (15) 
COc1ccc(C2=NCCO2)cc1OC1CCCC1 (3D coordinates assigned)
COc1ccc(C2=NCCO2)cc1OC1CCCC1 (nonaromatic ring conformer: 54.567786938008716 kcal/mol)

>  <smiles>  (15) 
COc1ccc(C2=NCCO2)cc1OC1CCCC1

>  <score_type>  (15) 
oracle

>  <origin>  (15) 
adg

>  <m_score__min__energy>  (15) 
-6.5300000000000002

>  <m_primary>  (15) 
energy

$$$$
15:0
     RDKit          3D

 31 31  0  0  0  0  0  0  0  0999 V2000
   56.5820   29.9130   43.5460 C   0  0  0  0  0  0  0  0  0  0  0  0
   56.6230   30.4680   44.8570 O   0  0  0  0  0  0  0  0  0  0  0  0
   57.3920   31.5820   45.2210 C   0  0  0  0  0  0  0  0  0  0  0  0
   58.1680   31.5050   46.3850 C   0  0  0  0  0  0  0  0  0  0  0  0
   58.9530   32.5890   46.7880 C   0  0  0  0  0  0  0  0  0  0  0  0
   58.9770   33.7620   46.0250 C   0  0  0  0  0  0  0  0  0  0  0  0
   59.9790   35.1580   46.5450 S   0  0  0  0  0  0  0  0  0  0  0  0
   60.2420   34.5550   48.2520 C   0  0  0  0  0  0  0  0  0  0  0  0
   61.6620   33.9810   48.4130 C   0  0  0  0  0  0  0  0  0  0  0  0
   62.1560   33.2340   47.2350 N   0  0  0  0  0  0  0  0  0  0  0  0
   63.3590   33.8350   46.6380 C   0  0  0  0  0  0  0  0  0  0  0  0
   62.3520   31.8000   47.5020 C   0  0  0  0  0  0  0  0  0  0  0  0
   58.1950   33.8530   44.8680 C   0  0  0  0  0  0  0  0  0  0  0  0
   57.4090   32.7700   44.4620 C   0  0  0  0  0  0  0  0  0  0  0  0
   56.5011   28.8181   43.6137 H   0  0  0  0  0  0  0  0  0  0  0  0
   55.7109   30.3123   43.0059 H   0  0  0  0  0  0  0  0  0  0  0  0
   57.5023   30.1800   43.0059 H   0  0  0  0  0  0  0  0  0  0  0  0
   58.1594   30.5841   46.9865 H   0  0  0  0  0  0  0  0  0  0  0  0
   59.5534   32.5200   47.7071 H   0  0  0  0  0  0  0  0  0  0  0  0
   60.1083   35.3905   48.9549 H   0  0  0  0  0  0  0  0  0  0  0  0
   59.5125   33.7591   48.4626 H   0  0  0  0  0  0  0  0  0  0  0  0
   62.3513   34.8166   48.6045 H   0  0  0  0  0  0  0  0  0  0  0  0
   61.6180   33.2625   49.2448 H   0  0  0  0  0  0  0  0  0  0  0  0
   64.0352   34.1728   47.4371 H   0  0  0  0  0  0  0  0  0  0  0  0
   63.8720   33.0873   46.0153 H   0  0  0  0  0  0  0  0  0  0  0  0
   63.0692   34.6942   46.0153 H   0  0  0  0  0  0  0  0  0  0  0  0
   62.3754   31.6292   48.5884 H   0  0  0  0  0  0  0  0  0  0  0  0
   61.5237   31.2279   47.0586 H   0  0  0  0  0  0  0  0  0  0  0  0
   63.3034   31.4712   47.0586 H   0  0  0  0  0  0  0  0  0  0  0  0
   58.1986   34.7799   44.2757 H   0  0  0  0  0  0  0  0  0  0  0  0
   56.8021   32.8452   43.5476 H   0  0  0  0  0  0  0  0  0  0  0  0
  1  2  1  0
  2  3  1  0
  3  4  2  0
  4  5  1  0
  5  6  2  0
  6  7  1  0
  7  8  1  0
  8  9  1  0
  9 10  1  0
 10 11  1  0
 10 12  1  0
  6 13  1  0
 13 14  2  0
 14  3  1  0
  1 15  1  0
  1 16  1  0
  1 17  1  0
  4 18  1  0
  5 19  1  0
  8 20  1  0
  8 21  1  0
  9 22  1  0
  9 23  1  0
 11 24  1  0
 11 25  1  0
 11 26  1  0
 12 27  1  0
 12 28  1  0
 12 29  1  0
 13 30  1  0
 14 31  1  0
M  END
>  <UniqueID>  (16) 
16

>  <SMILES>  (16) 
COc1ccc(SCCN(C)C)cc1

>  <Energy>  (16) 
25.667027640194437

>  <Genealogy>  (16) 
COc1ccc(SCCN(C)C)cc1 (3D coordinates assigned)
COc1ccc(SCCN(C)C)cc1 (optimized conformer: 25.667027640194437 kcal/mol)

>  <smiles>  (16) 
COc1ccc(SCCN(C)C)cc1

>  <score_type>  (16) 
oracle

>  <origin>  (16) 
adg

>  <m_score__min__energy>  (16) 
-5.2199999999999998

>  <m_primary>  (16) 
energy

$$$$
16:0
     RDKit          3D

 36 38  0  0  0  0  0  0  0  0999 V2000
   59.2460   30.5980   49.0000 C   0  0  0  0  0  0  0  0  0  0  0  0
   60.5420   29.9910   48.6390 N   0  0  2  0  0  0  0  0  0  0  0  0
   61.6740   30.7080   49.2770 C   0  0  0  0  0  0  0  0  0  0  0  0
   62.2950   31.7640   48.4000 C   0  0  0  0  0  0  0  0  0  0  0  0
   63.3920   31.5930   47.5650 C   0  0  0  0  0  0  0  0  0  0  0  0
   63.7420   32.7560   46.8690 C   0  0  0  0  0  0  0  0  0  0  0  0
   62.9280   33.8440   47.1550 C   0  0  0  0  0  0  0  0  0  0  0  0
   61.7720   33.3580   48.2750 S   0  0  0  0  0  0  0  0  0  0  0  0
   60.7130   29.8840   47.1690 C   0  0  0  0  0  0  0  0  0  0  0  0
   59.3880   30.0000   46.4310 C   0  0  0  0  0  0  0  0  0  0  0  0
   58.6660   28.8180   46.2030 C   0  0  0  0  0  0  0  0  0  0  0  0
   57.4410   28.8700   45.5390 C   0  0  0  0  0  0  0  0  0  0  0  0
   56.7950   27.8110   45.3290 O   0  0  0  0  0  0  0  0  0  0  0  0
   56.9500   30.0310   45.1270 O   0  0  0  0  0  0  0  0  0  0  0  0
   57.5770   31.1860   45.3200 C   0  0  0  0  0  0  0  0  0  0  0  0
   56.9840   32.3660   44.8580 C   0  0  0  0  0  0  0  0  0  0  0  0
   57.6140   33.5940   45.0530 C   0  0  0  0  0  0  0  0  0  0  0  0
   58.8430   33.6520   45.7130 C   0  0  0  0  0  0  0  0  0  0  0  0
   59.6960   35.3400   45.9850 Br  0  0  0  0  0  0  0  0  0  0  0  0
   59.4510   32.4810   46.1780 C   0  0  0  0  0  0  0  0  0  0  0  0
   58.8290   31.2270   45.9870 C   0  0  0  0  0  0  0  0  0  0  0  0
   59.1538   30.6412   50.0953 H   0  0  0  0  0  0  0  0  0  0  0  0
   59.1901   31.6159   48.5869 H   0  0  0  0  0  0  0  0  0  0  0  0
   58.4282   29.9892   48.5869 H   0  0  0  0  0  0  0  0  0  0  0  0
   60.5490   29.0220   49.0410 H   0  0  0  0  0  0  0  0  0  0  0  0
   61.3061   31.1910   50.1943 H   0  0  0  0  0  0  0  0  0  0  0  0
   62.4543   29.9597   49.4799 H   0  0  0  0  0  0  0  0  0  0  0  0
   63.9312   30.6398   47.4612 H   0  0  0  0  0  0  0  0  0  0  0  0
   64.5831   32.8036   46.1617 H   0  0  0  0  0  0  0  0  0  0  0  0
   63.0231   34.8511   46.7229 H   0  0  0  0  0  0  0  0  0  0  0  0
   61.3803   30.6899   46.8295 H   0  0  0  0  0  0  0  0  0  0  0  0
   61.1395   28.8945   46.9478 H   0  0  0  0  0  0  0  0  0  0  0  0
   59.0657   27.8528   46.5474 H   0  0  0  0  0  0  0  0  0  0  0  0
   56.0155   32.3244   44.3381 H   0  0  0  0  0  0  0  0  0  0  0  0
   57.1426   34.5179   44.6867 H   0  0  0  0  0  0  0  0  0  0  0  0
   60.4199   32.5370   46.6958 H   0  0  0  0  0  0  0  0  0  0  0  0
  1  2  1  0
  2  3  1  0
  3  4  1  0
  4  5  2  0
  5  6  1  0
  6  7  2  0
  7  8  1  0
  2  9  1  0
  9 10  1  0
 10 11  2  0
 11 12  1  0
 12 13  2  0
 12 14  1  0
 14 15  1  0
 15 16  2  0
 16 17  1  0
 17 18  2  0
 18 19  1  0
 18 20  1  0
 20 21  2  0
  8  4  1  0
 21 10  1  0
 21 15  1  0
  1 22  1  0
  1 23  1  0
  1 24  1  0
  2 25  1  1
  3 26  1  0
  3 27  1  0
  5 28  1  0
  6 29  1  0
  7 30  1  0
  9 31  1  0
  9 32  1  0
 11 33  1  0
 16 34  1  0
 17 35  1  0
 20 36  1  0
M  CHG  1   2   1
M  END
>  <UniqueID>  (17) 
17

>  <SMILES>  (17) 
C[N@H+](Cc1cccs1)Cc1cc(=O)oc2ccc(Br)cc12

>  <Energy>  (17) 
73.49213603715272

>  <Genealogy>  (17) 
C[NH+](Cc1cccs1)Cc1cc(=O)oc2ccc(Br)cc12 (protonated)
C[N@H+](Cc1cccs1)Cc1cc(=O)oc2ccc(Br)cc12 (chirality)
C[N@H+](Cc1cccs1)Cc1cc(=O)oc2ccc(Br)cc12 (3D coordinates assigned)
C[N@H+](Cc1cccs1)Cc1cc(=O)oc2ccc(Br)cc12 (optimized conformer: 73.49213603715272 kcal/mol)

>  <smiles>  (17) 
CN(Cc1cccs1)Cc1cc(=O)oc2ccc(Br)cc12

>  <score_type>  (17) 
oracle

>  <origin>  (17) 
adg

>  <m_score__min__energy>  (17) 
-5.9199999999999999

>  <m_primary>  (17) 
energy

$$$$
17:0
     RDKit          3D

 41 42  0  0  0  0  0  0  0  0999 V2000
   60.6810   33.8170   50.3340 C   0  0  0  0  0  0  0  0  0  0  0  0
   62.0970   33.8780   49.7740 C   0  0  0  0  0  0  0  0  0  0  0  0
   62.2820   32.8660   48.7090 N   0  0  0  0  0  0  0  0  0  0  0  0
   63.6760   32.8110   48.2040 C   0  0  0  0  0  0  0  0  0  0  0  0
   63.7460   33.4080   46.8030 C   0  0  0  0  0  0  0  0  0  0  0  0
   61.7600   31.5260   49.0710 C   0  0  0  0  0  0  0  0  0  0  0  0
   60.7530   30.9390   48.0430 C   0  0  0  0  0  0  0  0  0  0  0  0
   60.8420   31.5740   46.7150 N   0  0  0  0  0  0  0  0  0  0  0  0
   59.5470   31.7680   46.0910 C   0  0  0  0  0  0  0  0  0  0  0  0
   58.8840   33.0250   46.1100 C   0  0  0  0  0  0  0  0  0  0  0  0
   59.6370   34.5910   46.9320 Br  0  0  0  0  0  0  0  0  0  0  0  0
   57.6330   33.1780   45.4820 C   0  0  0  0  0  0  0  0  0  0  0  0
   57.0280   32.1110   44.8060 C   0  0  0  0  0  0  0  0  0  0  0  0
   57.6870   30.8790   44.7530 C   0  0  0  0  0  0  0  0  0  0  0  0
   58.9180   30.7200   45.3870 C   0  0  0  0  0  0  0  0  0  0  0  0
   59.4660   29.1480   45.1180 S   0  0  0  0  0  0  0  0  0  0  0  0
   58.1030   28.7370   44.2130 C   0  0  0  0  0  0  0  0  0  0  0  0
   57.9240   27.6030   43.6900 O   0  0  0  0  0  0  0  0  0  0  0  0
   57.2270   29.7690   44.1000 N   0  0  0  0  0  0  0  0  0  0  0  0
   55.9780   29.7160   43.3350 C   0  0  0  0  0  0  0  0  0  0  0  0
   60.7211   33.8187   51.4333 H   0  0  0  0  0  0  0  0  0  0  0  0
   60.1113   34.6914   49.9865 H   0  0  0  0  0  0  0  0  0  0  0  0
   60.1886   32.8968   49.9865 H   0  0  0  0  0  0  0  0  0  0  0  0
   62.2773   34.8794   49.3560 H   0  0  0  0  0  0  0  0  0  0  0  0
   62.8084   33.6704   50.5869 H   0  0  0  0  0  0  0  0  0  0  0  0
   64.3304   33.3839   48.8774 H   0  0  0  0  0  0  0  0  0  0  0  0
   64.0059   31.7623   48.1669 H   0  0  0  0  0  0  0  0  0  0  0  0
   63.8738   34.4982   46.8750 H   0  0  0  0  0  0  0  0  0  0  0  0
   64.5994   32.9737   46.2616 H   0  0  0  0  0  0  0  0  0  0  0  0
   62.8153   33.1829   46.2616 H   0  0  0  0  0  0  0  0  0  0  0  0
   62.6114   30.8344   49.1543 H   0  0  0  0  0  0  0  0  0  0  0  0
   61.2140   31.6434   50.0187 H   0  0  0  0  0  0  0  0  0  0  0  0
   60.9551   29.8636   47.9306 H   0  0  0  0  0  0  0  0  0  0  0  0
   59.7414   31.1311   48.4300 H   0  0  0  0  0  0  0  0  0  0  0  0
   61.4210   30.9590   46.0950 H   0  0  0  0  0  0  0  0  0  0  0  0
   61.3680   32.4730   46.8020 H   0  0  0  0  0  0  0  0  0  0  0  0
   57.1225   34.1515   45.5230 H   0  0  0  0  0  0  0  0  0  0  0  0
   56.0480   32.2404   44.3235 H   0  0  0  0  0  0  0  0  0  0  0  0
   55.1247   29.6798   44.0282 H   0  0  0  0  0  0  0  0  0  0  0  0
   55.8979   30.6116   42.7013 H   0  0  0  0  0  0  0  0  0  0  0  0
   55.9740   28.8169   42.7013 H   0  0  0  0  0  0  0  0  0  0  0  0
  1  2  1  0
  2  3  1  0
  3  4  1  0
  4  5  1  0
  3  6  1  0
  6  7  1  0
  7  8  1  0
  8  9  1  0
  9 10  2  0
 10 11  1  0
 10 12  1  0
 12 13  2  0
 13 14  1  0
 14 15  2  0
 15 16  1  0
 16 17  1  0
 17 18  2  0
 17 19  1  0
 19 20  1  0
 15  9  1  0
 19 14  1  0
  1 21  1  0
  1 22  1  0
  1 23  1  0
  2 24  1  0
  2 25  1  0
  4 26  1  0
  4 27  1  0
  5 28  1  0
  5 29  1  0
  5 30  1  0
  6 31  1  0
  6 32  1  0
  7 33  1  0
  7 34  1  0
  8 35  1  0
  8 36  1  0
 12 37  1  0
 13 38  1  0
 20 39  1  0
 20 40  1  0
 20 41  1  0
M  CHG  1   8   1
M  END
>  <UniqueID>  (18) 
18

>  <SMILES>  (18) 
CCN(CC)CC[NH2+]c1c(Br)ccc2c1sc(=O)n2C

>  <Energy>  (18) 
84.01139131984293

>  <Genealogy>  (18) 
CCN(CC)CC[NH2+]c1c(Br)ccc2c1sc(=O)n2C (protonated)
CCN(CC)CC[NH2+]c1c(Br)ccc2c1sc(=O)n2C (3D coordinates assigned)
CCN(CC)CC[NH2+]c1c(Br)ccc2c1sc(=O)n2C (optimized conformer: 84.01139131984293 kcal/mol)

>  <smiles>  (18) 
CCN(CC)CCNc1c(Br)ccc2c1sc(=O)n2C

>  <score_type>  (18) 
oracle

>  <origin>  (18) 
adg

>  <m_score__min__energy>  (18) 
-4.7599999999999998

>  <m_primary>  (18) 
energy

$$$$
18:0
     RDKit          3D

 54 57  0  0  0  0  0  0  0  0999 V2000
   56.6370   31.5410   52.0180 C   0  0  0  0  0  0  0  0  0  0  0  0
   57.7400   32.5450   51.6810 C   0  0  0  0  0  0  0  0  0  0  0  0
   59.1090   32.0220   51.8870 N   0  0  0  0  0  0  0  0  0  0  0  0
   60.1800   32.9090   51.3810 C   0  0  0  0  0  0  0  0  0  0  0  0
   59.6500   33.8470   50.3060 C   0  0  0  0  0  0  0  0  0  0  0  0
   59.2600   30.5630   51.6250 C   0  0  0  0  0  0  0  0  0  0  0  0
   60.7160   30.0870   51.3930 C   0  0  0  0  0  0  0  0  0  0  0  0
   60.9790   29.7410   49.9840 N   0  0  0  0  0  0  0  0  0  0  0  0
   61.4960   30.8670   49.2280 C   0  0  0  0  0  0  0  0  0  0  0  0
   60.7190   31.4970   48.2390 C   0  0  0  0  0  0  0  0  0  0  0  0
   61.2070   32.5690   47.5100 C   0  0  0  0  0  0  0  0  0  0  0  0
   62.5040   32.9920   47.6300 N   0  0  0  0  0  0  0  0  0  0  0  0
   63.0770   33.9070   46.6260 C   0  0  0  0  0  0  0  0  0  0  0  0
   63.2650   32.5060   48.6780 C   0  0  0  0  0  0  0  0  0  0  0  0
   64.5160   33.0900   49.0060 C   0  0  0  0  0  0  0  0  0  0  0  0
   65.2940   32.5890   50.0450 C   0  0  0  0  0  0  0  0  0  0  0  0
   64.8560   31.4990   50.7840 C   0  0  0  0  0  0  0  0  0  0  0  0
   63.6230   30.9160   50.5080 C   0  0  0  0  0  0  0  0  0  0  0  0
   62.7900   31.4120   49.4770 C   0  0  0  0  0  0  0  0  0  0  0  0
   60.1200   33.0890   46.6410 C   0  0  0  0  0  0  0  0  0  0  0  0
   60.0010   34.2730   45.8980 C   0  0  0  0  0  0  0  0  0  0  0  0
   58.7850   34.5510   45.2540 C   0  0  0  0  0  0  0  0  0  0  0  0
   57.6940   33.6830   45.3900 C   0  0  0  0  0  0  0  0  0  0  0  0
   57.7950   32.5410   46.1980 C   0  0  0  0  0  0  0  0  0  0  0  0
   59.0160   32.2740   46.8140 C   0  0  0  0  0  0  0  0  0  0  0  0
   59.3360   31.2610   47.8000 C   0  0  0  0  0  0  0  0  0  0  0  0
   58.5400   30.3800   48.2100 O   0  0  0  0  0  0  0  0  0  0  0  0
   56.5415   31.4541   53.1104 H   0  0  0  0  0  0  0  0  0  0  0  0
   55.6834   31.8875   51.5930 H   0  0  0  0  0  0  0  0  0  0  0  0
   56.8926   30.5591   51.5930 H   0  0  0  0  0  0  0  0  0  0  0  0
   57.6347   32.8339   50.6249 H   0  0  0  0  0  0  0  0  0  0  0  0
   57.6169   33.3971   52.3657 H   0  0  0  0  0  0  0  0  0  0  0  0
   60.5766   33.5060   52.2154 H   0  0  0  0  0  0  0  0  0  0  0  0
   60.9727   32.2855   50.9418 H   0  0  0  0  0  0  0  0  0  0  0  0
   59.1620   34.7107   50.7812 H   0  0  0  0  0  0  0  0  0  0  0  0
   60.4844   34.1959   49.6799 H   0  0  0  0  0  0  0  0  0  0  0  0
   58.9205   33.3123   49.6799 H   0  0  0  0  0  0  0  0  0  0  0  0
   58.8563   30.0172   52.4906 H   0  0  0  0  0  0  0  0  0  0  0  0
   58.7176   30.3607   50.6897 H   0  0  0  0  0  0  0  0  0  0  0  0
   61.4025   30.8926   51.6925 H   0  0  0  0  0  0  0  0  0  0  0  0
   60.8709   29.1793   51.9947 H   0  0  0  0  0  0  0  0  0  0  0  0
   61.6190   28.9190   49.9460 H   0  0  0  0  0  0  0  0  0  0  0  0
   60.0990   29.3940   49.5420 H   0  0  0  0  0  0  0  0  0  0  0  0
   63.5944   34.7331   47.1357 H   0  0  0  0  0  0  0  0  0  0  0  0
   63.7933   33.3586   45.9966 H   0  0  0  0  0  0  0  0  0  0  0  0
   62.2709   34.3120   45.9966 H   0  0  0  0  0  0  0  0  0  0  0  0
   64.8770   33.9539   48.4287 H   0  0  0  0  0  0  0  0  0  0  0  0
   66.2601   33.0587   50.2816 H   0  0  0  0  0  0  0  0  0  0  0  0
   65.4855   31.0947   51.5904 H   0  0  0  0  0  0  0  0  0  0  0  0
   63.2893   30.0529   51.1027 H   0  0  0  0  0  0  0  0  0  0  0  0
   60.8468   34.9722   45.8213 H   0  0  0  0  0  0  0  0  0  0  0  0
   58.6882   35.4572   44.6380 H   0  0  0  0  0  0  0  0  0  0  0  0
   56.7539   33.8980   44.8608 H   0  0  0  0  0  0  0  0  0  0  0  0
   56.9326   31.8734   46.3417 H   0  0  0  0  0  0  0  0  0  0  0  0
  1  2  1  0
  2  3  1  0
  3  4  1  0
  4  5  1  0
  3  6  1  0
  6  7  1  0
  7  8  1  0
  8  9  1  0
  9 10  2  0
 10 11  1  0
 11 12  2  0
 12 13  1  0
 12 14  1  0
 14 15  2  0
 15 16  1  0
 16 17  2  0
 17 18  1  0
 18 19  2  0
 11 20  1  0
 20 21  2  0
 21 22  1  0
 22 23  2  0
 23 24  1  0
 24 25  2  0
 25 26  1  0
 26 27  2  0
 19  9  1  0
 25 20  1  0
 26 10  1  0
 19 14  1  0
  1 28  1  0
  1 29  1  0
  1 30  1  0
  2 31  1  0
  2 32  1  0
  4 33  1  0
  4 34  1  0
  5 35  1  0
  5 36  1  0
  5 37  1  0
  6 38  1  0
  6 39  1  0
  7 40  1  0
  7 41  1  0
  8 42  1  0
  8 43  1  0
 13 44  1  0
 13 45  1  0
 13 46  1  0
 15 47  1  0
 16 48  1  0
 17 49  1  0
 18 50  1  0
 21 51  1  0
 22 52  1  0
 23 53  1  0
 24 54  1  0
M  CHG  2   8   1  12   1
M  END
>  <UniqueID>  (19) 
19

>  <SMILES>  (19) 
CCN(CC)CC[NH2+]c1c2c([n+](C)c3ccccc13)-c1ccccc1C2=O

>  <Energy>  (19) 
116.95842123580606

>  <Genealogy>  (19) 
CCN(CC)CC[NH2+]c1c2c([n+](C)c3ccccc13)-c1ccccc1C2=O (protonated)
CCN(CC)CC[NH2+]c1c2c([n+](C)c3ccccc13)-c1ccccc1C2=O (3D coordinates assigned)
CCN(CC)CC[NH2+]c1c2c([n+](C)c3ccccc13)-c1ccccc1C2=O (nonaromatic ring conformer: 116.95842123580606 kcal/mol)

>  <smiles>  (19) 
CCN(CC)CCNc1c2c([n+](C)c3ccccc13)-c1ccccc1C2=O

>  <score_type>  (19) 
oracle

>  <origin>  (19) 
adg

>  <m_score__min__energy>  (19) 
-4.75

>  <m_primary>  (19) 
energy

$$$$
19:0
     RDKit          3D

 37 37  0  0  0  0  0  0  0  0999 V2000
   56.3470   29.7310   42.7880 C   0  0  0  0  0  0  0  0  0  0  0  0
   55.8870   30.3390   44.1230 C   0  0  0  0  0  0  0  0  0  0  0  0
   56.9910   30.8970   44.9360 N   0  0  0  0  0  0  0  0  0  0  0  0
   57.8180   29.8470   45.5790 C   0  0  0  0  0  0  0  0  0  0  0  0
   59.2720   30.2980   45.6210 C   0  0  0  0  0  0  0  0  0  0  0  0
   57.7870   31.9000   44.1950 C   0  0  0  0  0  0  0  0  0  0  0  0
   57.7270   33.2650   44.8860 C   0  0  0  0  0  0  0  0  0  0  0  0
   59.2300   34.2370   44.5010 S   0  0  0  0  0  0  0  0  0  0  0  0
   59.5560   34.8570   46.1940 C   0  0  0  0  0  0  0  0  0  0  0  0
   59.7360   33.7200   47.1740 C   0  0  0  0  0  0  0  0  0  0  0  0
   58.6070   33.2460   47.8670 C   0  0  0  0  0  0  0  0  0  0  0  0
   58.7290   32.2240   48.8100 C   0  0  0  0  0  0  0  0  0  0  0  0
   59.9770   31.6580   49.0710 C   0  0  0  0  0  0  0  0  0  0  0  0
   61.1060   32.1050   48.3830 C   0  0  0  0  0  0  0  0  0  0  0  0
   60.9970   33.1290   47.4310 C   0  0  0  0  0  0  0  0  0  0  0  0
   62.1940   33.5530   46.7440 C   0  0  0  0  0  0  0  0  0  0  0  0
   63.1540   33.8940   46.1940 N   0  0  0  0  0  0  0  0  0  0  0  0
   57.0001   28.8678   42.9839 H   0  0  0  0  0  0  0  0  0  0  0  0
   55.4688   29.4032   42.2124 H   0  0  0  0  0  0  0  0  0  0  0  0
   56.9013   30.4870   42.2124 H   0  0  0  0  0  0  0  0  0  0  0  0
   55.1716   31.1466   43.9083 H   0  0  0  0  0  0  0  0  0  0  0  0
   55.4374   29.5238   44.7089 H   0  0  0  0  0  0  0  0  0  0  0  0
   57.4584   29.6740   46.6041 H   0  0  0  0  0  0  0  0  0  0  0  0
   57.7407   28.9149   45.0001 H   0  0  0  0  0  0  0  0  0  0  0  0
   59.5948   30.3981   46.6678 H   0  0  0  0  0  0  0  0  0  0  0  0
   59.9018   29.5530   45.1128 H   0  0  0  0  0  0  0  0  0  0  0  0
   59.3697   31.2686   45.1128 H   0  0  0  0  0  0  0  0  0  0  0  0
   58.8340   31.5658   44.1484 H   0  0  0  0  0  0  0  0  0  0  0  0
   57.3700   32.0005   43.1821 H   0  0  0  0  0  0  0  0  0  0  0  0
   56.8404   33.8121   44.5329 H   0  0  0  0  0  0  0  0  0  0  0  0
   57.6671   33.1136   45.9739 H   0  0  0  0  0  0  0  0  0  0  0  0
   60.4715   35.4667   46.1815 H   0  0  0  0  0  0  0  0  0  0  0  0
   58.6914   35.4564   46.5150 H   0  0  0  0  0  0  0  0  0  0  0  0
   57.6190   33.6848   47.6638 H   0  0  0  0  0  0  0  0  0  0  0  0
   57.8396   31.8644   49.3482 H   0  0  0  0  0  0  0  0  0  0  0  0
   60.0714   30.8582   49.8202 H   0  0  0  0  0  0  0  0  0  0  0  0
   62.0869   31.6516   48.5886 H   0  0  0  0  0  0  0  0  0  0  0  0
  1  2  1  0
  2  3  1  0
  3  4  1  0
  4  5  1  0
  3  6  1  0
  6  7  1  0
  7  8  1  0
  8  9  1  0
  9 10  1  0
 10 11  2  0
 11 12  1  0
 12 13  2  0
 13 14  1  0
 14 15  2  0
 15 16  1  0
 16 17  3  0
 15 10  1  0
  1 18  1  0
  1 19  1  0
  1 20  1  0
  2 21  1  0
  2 22  1  0
  4 23  1  0
  4 24  1  0
  5 25  1  0
  5 26  1  0
  5 27  1  0
  6 28  1  0
  6 29  1  0
  7 30  1  0
  7 31  1  0
  9 32  1  0
  9 33  1  0
 11 34  1  0
 12 35  1  0
 13 36  1  0
 14 37  1  0
M  END
>  <UniqueID>  (20) 
20

>  <SMILES>  (20) 
CCN(CC)CCSCc1ccccc1C#N

>  <Energy>  (20) 
30.444158573220093

>  <Genealogy>  (20) 
CCN(CC)CCSCc1ccccc1C#N (3D coordinates assigned)
CCN(CC)CCSCc1ccccc1C#N (optimized conformer: 30.444158573220093 kcal/mol)

>  <smiles>  (20) 
CCN(CC)CCSCc1ccccc1C#N

>  <score_type>  (20) 
oracle

>  <origin>  (20) 
adg

>  <m_score__min__energy>  (20) 
-6

>  <m_primary>  (20) 
energy

$$$$
20:0
     RDKit          3D

 47 46  0  0  0  0  0  0  0  0999 V2000
   57.3205   33.1333   47.3733 H   0  0  0  0  0  0  0  0  0  0  0  0
   57.7570   33.4690   46.4210 C   0  0  0  0  0  0  0  0  0  0  0  0
   58.8090   34.3170   46.4800 C   0  0  0  0  0  0  0  0  0  0  0  0
   59.3160   35.0540   45.2680 C   0  0  0  0  0  0  0  0  0  0  0  0
   59.9123   35.9209   45.5889 H   0  0  0  0  0  0  0  0  0  0  0  0
   59.9429   34.3806   44.6651 H   0  0  0  0  0  0  0  0  0  0  0  0
   58.4630   35.3987   44.6651 H   0  0  0  0  0  0  0  0  0  0  0  0
   59.4800   34.5860   47.8030 C   0  0  0  0  0  0  0  0  0  0  0  0
   58.7985   34.3128   48.6221 H   0  0  0  0  0  0  0  0  0  0  0  0
   60.3998   33.9871   47.8761 H   0  0  0  0  0  0  0  0  0  0  0  0
   59.7314   35.6544   47.8761 H   0  0  0  0  0  0  0  0  0  0  0  0
   57.1360   32.9480   45.1460 C   0  0  0  0  0  0  0  0  0  0  0  0
   56.7716   33.8011   44.5548 H   0  0  0  0  0  0  0  0  0  0  0  0
   56.3130   32.2724   45.4221 H   0  0  0  0  0  0  0  0  0  0  0  0
   58.1380   32.1500   44.2980 C   0  0  0  0  0  0  0  0  0  0  0  0
   58.4961   31.2870   44.8785 H   0  0  0  0  0  0  0  0  0  0  0  0
   58.9799   32.8065   44.0330 H   0  0  0  0  0  0  0  0  0  0  0  0
   57.4830   31.6550   43.0210 C   0  0  0  0  0  0  0  0  0  0  0  0
   56.6570   30.5850   42.9820 C   0  0  0  0  0  0  0  0  0  0  0  0
   56.5865   30.0294   42.0352 H   0  0  0  0  0  0  0  0  0  0  0  0
   55.8290   30.1000   44.1370 C   0  0  0  0  0  0  0  0  0  0  0  0
   55.2369   29.2271   43.8247 H   0  0  0  0  0  0  0  0  0  0  0  0
   55.1496   30.8997   44.4671 H   0  0  0  0  0  0  0  0  0  0  0  0
   56.6850   29.7350   45.1990 O   0  0  0  0  0  0  0  0  0  0  0  0
   57.4840   28.6200   44.8410 C   0  0  0  0  0  0  0  0  0  0  0  0
   57.5051   28.5298   43.7449 H   0  0  0  0  0  0  0  0  0  0  0  0
   57.0484   27.7172   45.2940 H   0  0  0  0  0  0  0  0  0  0  0  0
   58.9260   28.7830   45.3610 C   0  0  0  0  0  0  0  0  0  0  0  0
   59.5671   29.0849   44.5197 H   0  0  0  0  0  0  0  0  0  0  0  0
   59.2261   27.8152   45.7891 H   0  0  0  0  0  0  0  0  0  0  0  0
   59.0580   29.7970   46.4400 N   0  0  1  0  0  0  0  0  0  0  0  0
   58.2820   30.4950   46.3380 H   0  0  0  0  0  0  0  0  0  0  0  0
   58.8890   29.1290   47.7480 C   0  0  0  0  0  0  0  0  0  0  0  0
   59.0721   29.8529   48.5558 H   0  0  0  0  0  0  0  0  0  0  0  0
   57.8639   28.7388   47.8307 H   0  0  0  0  0  0  0  0  0  0  0  0
   59.6053   28.2983   47.8307 H   0  0  0  0  0  0  0  0  0  0  0  0
   60.3630   30.5000   46.3690 C   0  0  0  0  0  0  0  0  0  0  0  0
   60.3560   31.1647   45.4925 H   0  0  0  0  0  0  0  0  0  0  0  0
   61.1471   29.7321   46.2954 H   0  0  0  0  0  0  0  0  0  0  0  0
   60.6590   31.3400   47.6170 C   0  0  0  0  0  0  0  0  0  0  0  0
   60.4492   30.7447   48.5179 H   0  0  0  0  0  0  0  0  0  0  0  0
   61.7172   31.6405   47.6142 H   0  0  0  0  0  0  0  0  0  0  0  0
   60.0230   32.2375   47.6142 H   0  0  0  0  0  0  0  0  0  0  0  0
   57.8320   32.3360   41.7220 C   0  0  0  0  0  0  0  0  0  0  0  0
   58.3244   33.2968   41.9325 H   0  0  0  0  0  0  0  0  0  0  0  0
   58.5124   31.6944   41.1429 H   0  0  0  0  0  0  0  0  0  0  0  0
   56.9138   32.5136   41.1429 H   0  0  0  0  0  0  0  0  0  0  0  0
  1  2  1  0
  2  3  2  3
  3  4  1  0
  4  5  1  0
  4  6  1  0
  4  7  1  0
  3  8  1  0
  8  9  1  0
  8 10  1  0
  8 11  1  0
  2 12  1  0
 12 13  1  0
 12 14  1  0
 12 15  1  0
 15 16  1  0
 15 17  1  0
 15 18  1  0
 18 19  2  0
 19 20  1  0
 19 21  1  0
 21 22  1  0
 21 23  1  0
 21 24  1  0
 24 25  1  0
 25 26  1  0
 25 27  1  0
 25 28  1  0
 28 29  1  0
 28 30  1  0
 28 31  1  0
 31 32  1  6
 31 33  1  0
 33 34  1  0
 33 35  1  0
 33 36  1  0
 31 37  1  0
 37 38  1  0
 37 39  1  0
 37 40  1  0
 40 41  1  0
 40 42  1  0
 40 43  1  0
 18 44  1  0
 44 45  1  0
 44 46  1  0
 44 47  1  0
M  CHG  1  31   1
M  END
>  <UniqueID>  (21) 
21

>  <SMILES>  (21) 
CC[N@H+](C)CCOC/C=C(/C)CCC=C(C)C

>  <Energy>  (21) 
35.01704177160605

>  <Genealogy>  (21) 
CC[NH+](C)CCOCC=C(C)CCC=C(C)C (protonated)
CC[N@H+](C)CCOCC=C(C)CCC=C(C)C (chirality)
CC[N@H+](C)CCOC/C=C(/C)CCC=C(C)C (cis-trans isomerization)
CC[N@H+](C)CCOC/C=C(/C)CCC=C(C)C (3D coordinates assigned)
CC[N@H+](C)CCOC/C=C(/C)CCC=C(C)C (optimized conformer: 35.01704177160605 kcal/mol)

>  <smiles>  (21) 
CCN(C)CCOCC=C(C)CCC=C(C)C

>  <score_type>  (21) 
oracle

>  <origin>  (21) 
adg

>  <m_score__min__energy>  (21) 
-4.2199999999999998

>  <m_primary>  (21) 
energy

$$$$
21:0
     RDKit          3D

 56 59  0  0  0  0  0  0  0  0999 V2000
   56.2700   24.0420   47.4780 C   0  0  0  0  0  0  0  0  0  0  0  0
   56.3760   25.4720   46.9600 C   0  0  0  0  0  0  0  0  0  0  0  0
   55.5160   25.6480   45.7850 N   0  0  0  0  0  0  0  0  0  0  0  0
   55.5410   24.4430   44.9470 C   0  0  0  0  0  0  0  0  0  0  0  0
   56.8340   24.3900   44.1230 C   0  0  0  0  0  0  0  0  0  0  0  0
   57.4180   25.7270   43.9190 N   0  0  0  0  0  0  0  0  0  0  0  0
   58.5040   26.0340   44.8680 C   0  0  0  0  0  0  0  0  0  0  0  0
   58.6130   27.5200   45.0900 C   0  0  0  0  0  0  0  0  0  0  0  0
   57.6440   28.3910   44.5640 C   0  0  0  0  0  0  0  0  0  0  0  0
   57.7240   29.7650   44.8020 C   0  0  0  0  0  0  0  0  0  0  0  0
   58.7800   30.2870   45.5620 C   0  0  0  0  0  0  0  0  0  0  0  0
   58.8640   31.6550   45.8340 C   0  0  0  0  0  0  0  0  0  0  0  0
   59.9160   32.1470   46.6050 C   0  0  0  0  0  0  0  0  0  0  0  0
   60.8930   31.2660   47.0990 C   0  0  0  0  0  0  0  0  0  0  0  0
   62.0150   31.7800   47.9250 C   0  0  0  0  0  0  0  0  0  0  0  0
   62.1920   31.3270   49.2420 C   0  0  0  0  0  0  0  0  0  0  0  0
   63.2430   31.8120   50.0260 C   0  0  0  0  0  0  0  0  0  0  0  0
   64.1400   32.7610   49.5080 C   0  0  0  0  0  0  0  0  0  0  0  0
   65.2580   33.2770   50.3390 C   0  0  0  0  0  0  0  0  0  0  0  0
   66.5780   32.8460   50.1210 C   0  0  0  0  0  0  0  0  0  0  0  0
   67.6180   33.3380   50.9110 C   0  0  0  0  0  0  0  0  0  0  0  0
   67.3340   34.2600   51.9190 C   0  0  0  0  0  0  0  0  0  0  0  0
   66.0550   34.6720   52.1220 N   0  0  0  0  0  0  0  0  0  0  0  0
   65.0230   34.2070   51.3670 C   0  0  0  0  0  0  0  0  0  0  0  0
   63.9620   33.2160   48.1890 C   0  0  0  0  0  0  0  0  0  0  0  0
   62.9120   32.7300   47.4060 C   0  0  0  0  0  0  0  0  0  0  0  0
   60.8020   29.9320   46.8140 N   0  0  0  0  0  0  0  0  0  0  0  0
   59.7760   29.4240   46.0700 C   0  0  0  0  0  0  0  0  0  0  0  0
   59.6900   28.0460   45.8220 C   0  0  0  0  0  0  0  0  0  0  0  0
   56.2706   24.0495   48.5780 H   0  0  0  0  0  0  0  0  0  0  0  0
   55.3358   23.5888   47.1149 H   0  0  0  0  0  0  0  0  0  0  0  0
   57.1272   23.4560   47.1149 H   0  0  0  0  0  0  0  0  0  0  0  0
   56.0599   26.1693   47.7498 H   0  0  0  0  0  0  0  0  0  0  0  0
   57.4191   25.6755   46.6762 H   0  0  0  0  0  0  0  0  0  0  0  0
   55.8960   26.4400   45.2160 H   0  0  0  0  0  0  0  0  0  0  0  0
   55.4850   23.5528   45.5908 H   0  0  0  0  0  0  0  0  0  0  0  0
   54.6818   24.4684   44.2606 H   0  0  0  0  0  0  0  0  0  0  0  0
   57.5653   23.7606   44.6512 H   0  0  0  0  0  0  0  0  0  0  0  0
   56.5883   23.9740   43.1348 H   0  0  0  0  0  0  0  0  0  0  0  0
   56.6530   26.4220   44.0840 H   0  0  0  0  0  0  0  0  0  0  0  0
   58.2948   25.5398   45.8282 H   0  0  0  0  0  0  0  0  0  0  0  0
   59.4533   25.6684   44.4494 H   0  0  0  0  0  0  0  0  0  0  0  0
   56.8170   27.9882   43.9608 H   0  0  0  0  0  0  0  0  0  0  0  0
   56.9570   30.4387   44.3923 H   0  0  0  0  0  0  0  0  0  0  0  0
   58.1011   32.3427   45.4403 H   0  0  0  0  0  0  0  0  0  0  0  0
   59.9812   33.2225   46.8262 H   0  0  0  0  0  0  0  0  0  0  0  0
   61.4975   30.5838   49.6608 H   0  0  0  0  0  0  0  0  0  0  0  0
   63.3685   31.4478   51.0563 H   0  0  0  0  0  0  0  0  0  0  0  0
   66.7922   32.1181   49.3246 H   0  0  0  0  0  0  0  0  0  0  0  0
   68.6515   33.0022   50.7406 H   0  0  0  0  0  0  0  0  0  0  0  0
   68.1452   34.6533   52.5492 H   0  0  0  0  0  0  0  0  0  0  0  0
   63.9997   34.5604   51.5618 H   0  0  0  0  0  0  0  0  0  0  0  0
   64.6552   33.9606   47.7706 H   0  0  0  0  0  0  0  0  0  0  0  0
   62.7861   33.0935   46.3754 H   0  0  0  0  0  0  0  0  0  0  0  0
   61.5170   29.2760   47.2040 H   0  0  0  0  0  0  0  0  0  0  0  0
   60.4717   27.3726   46.2036 H   0  0  0  0  0  0  0  0  0  0  0  0
  1  2  1  0
  2  3  1  0
  3  4  1  0
  4  5  1  0
  5  6  1  0
  6  7  1  0
  7  8  1  0
  8  9  2  0
  9 10  1  0
 10 11  2  0
 11 12  1  0
 12 13  2  0
 13 14  1  0
 14 15  1  0
 15 16  2  0
 16 17  1  0
 17 18  2  0
 18 19  1  0
 19 20  2  0
 20 21  1  0
 21 22  2  0
 22 23  1  0
 23 24  2  0
 18 25  1  0
 25 26  2  0
 14 27  2  0
 27 28  1  0
 28 29  2  0
 29  8  1  0
 28 11  1  0
 26 15  1  0
 24 19  1  0
  1 30  1  0
  1 31  1  0
  1 32  1  0
  2 33  1  0
  2 34  1  0
  3 35  1  0
  4 36  1  0
  4 37  1  0
  5 38  1  0
  5 39  1  0
  6 40  1  0
  7 41  1  0
  7 42  1  0
  9 43  1  0
 10 44  1  0
 12 45  1  0
 13 46  1  0
 16 47  1  0
 17 48  1  0
 20 49  1  0
 21 50  1  0
 22 51  1  0
 24 52  1  0
 25 53  1  0
 26 54  1  0
 27 55  1  0
 29 56  1  0
M  CHG  1  27   1
M  END
>  <UniqueID>  (22) 
22

>  <SMILES>  (22) 
CCNCCNCc1ccc2ccc(-c3ccc(-c4cccnc4)cc3)[nH+]c2c1

>  <Energy>  (22) 
65.41128062049363

>  <Genealogy>  (22) 
CCNCCNCc1ccc2ccc(-c3ccc(-c4cccnc4)cc3)[nH+]c2c1 (protonated)
CCNCCNCc1ccc2ccc(-c3ccc(-c4cccnc4)cc3)[nH+]c2c1 (3D coordinates assigned)
CCNCCNCc1ccc2ccc(-c3ccc(-c4cccnc4)cc3)[nH+]c2c1 (optimized conformer: 65.41128062049363 kcal/mol)

>  <smiles>  (22) 
CCNCCNCc1ccc2ccc(-c3ccc(-c4cccnc4)cc3)nc2c1

>  <score_type>  (22) 
oracle

>  <origin>  (22) 
adg

>  <m_score__min__energy>  (22) 
-7.9299999999999997

>  <m_primary>  (22) 
energy

$$$$
22:0
     RDKit          3D

 30 31  0  0  0  0  0  0  0  0999 V2000
   56.2740   29.7180   42.6850 C   0  0  0  0  0  0  0  0  0  0  0  0
   55.5060   30.0960   43.9470 C   0  0  0  0  0  0  0  0  0  0  0  0
   55.4840   29.0090   44.8660 O   0  0  0  0  0  0  0  0  0  0  0  0
   56.6480   28.3930   45.3300 C   0  0  0  0  0  0  0  0  0  0  0  0
   57.9920   28.7190   45.3700 C   0  0  0  0  0  0  0  0  0  0  0  0
   58.7400   29.8170   44.9380 O   0  0  0  0  0  0  0  0  0  0  0  0
   58.4410   31.1400   45.2810 C   0  0  0  0  0  0  0  0  0  0  0  0
   58.1340   32.0410   44.2550 C   0  0  0  0  0  0  0  0  0  0  0  0
   57.8410   33.3730   44.5480 C   0  0  0  0  0  0  0  0  0  0  0  0
   57.8400   33.8130   45.8730 C   0  0  0  0  0  0  0  0  0  0  0  0
   58.1180   32.9180   46.9090 C   0  0  0  0  0  0  0  0  0  0  0  0
   58.4070   31.5680   46.6260 C   0  0  0  0  0  0  0  0  0  0  0  0
   58.6310   30.6290   47.6460 O   0  0  0  0  0  0  0  0  0  0  0  0
   59.9110   30.1250   48.0130 C   0  0  0  0  0  0  0  0  0  0  0  0
   58.2630   27.5060   45.9790 C   0  0  0  0  0  0  0  0  0  0  0  0
   59.3020   26.9240   46.3860 O   0  0  0  0  0  0  0  0  0  0  0  0
   56.9190   27.1930   45.9530 C   0  0  0  0  0  0  0  0  0  0  0  0
   56.2280   26.2120   46.3340 O   0  0  0  0  0  0  0  0  0  0  0  0
   57.2287   29.2481   42.9637 H   0  0  0  0  0  0  0  0  0  0  0  0
   55.6770   29.0108   42.0905 H   0  0  0  0  0  0  0  0  0  0  0  0
   56.4703   30.6224   42.0905 H   0  0  0  0  0  0  0  0  0  0  0  0
   55.9936   30.9604   44.4214 H   0  0  0  0  0  0  0  0  0  0  0  0
   54.4713   30.3466   43.6702 H   0  0  0  0  0  0  0  0  0  0  0  0
   58.1237   31.6965   43.2104 H   0  0  0  0  0  0  0  0  0  0  0  0
   57.6106   34.0770   43.7348 H   0  0  0  0  0  0  0  0  0  0  0  0
   57.6199   34.8662   46.1016 H   0  0  0  0  0  0  0  0  0  0  0  0
   58.1113   33.2690   47.9515 H   0  0  0  0  0  0  0  0  0  0  0  0
   59.9919   30.0931   49.1096 H   0  0  0  0  0  0  0  0  0  0  0  0
   60.0360   29.1105   47.6065 H   0  0  0  0  0  0  0  0  0  0  0  0
   60.6941   30.7819   47.6065 H   0  0  0  0  0  0  0  0  0  0  0  0
  1  2  1  0
  2  3  1  0
  3  4  1  0
  4  5  2  0
  5  6  1  0
  6  7  1  0
  7  8  2  0
  8  9  1  0
  9 10  2  0
 10 11  1  0
 11 12  2  0
 12 13  1  0
 13 14  1  0
  5 15  1  0
 15 16  2  0
 15 17  1  0
 17 18  2  0
 17  4  1  0
 12  7  1  0
  1 19  1  0
  1 20  1  0
  1 21  1  0
  2 22  1  0
  2 23  1  0
  8 24  1  0
  9 25  1  0
 10 26  1  0
 11 27  1  0
 14 28  1  0
 14 29  1  0
 14 30  1  0
M  END
>  <UniqueID>  (23) 
23

>  <SMILES>  (23) 
CCOc1c(Oc2ccccc2OC)c(=O)c1=O

>  <Energy>  (23) 
21.68580723464131

>  <Genealogy>  (23) 
CCOc1c(Oc2ccccc2OC)c(=O)c1=O (3D coordinates assigned)
CCOc1c(Oc2ccccc2OC)c(=O)c1=O (optimized conformer: 21.68580723464131 kcal/mol)

>  <smiles>  (23) 
CCOc1c(Oc2ccccc2OC)c(=O)c1=O

>  <score_type>  (23) 
oracle

>  <origin>  (23) 
adg

>  <m_score__min__energy>  (23) 
-6.5899999999999999

>  <m_primary>  (23) 
energy

$$$$
23:0
     RDKit          3D

 62 65  0  0  0  0  0  0  0  0999 V2000
   58.8650   30.9030   46.9430 C   0  0  0  0  0  0  0  0  0  0  0  0
   58.5940   30.2020   45.6050 C   0  0  0  0  0  0  0  0  0  0  0  0
   57.2340   30.5100   45.1230 N   0  0  0  0  0  0  0  0  0  0  0  0
   56.5140   29.4310   44.4080 C   0  0  0  0  0  0  0  0  0  0  0  0
   56.2610   29.7270   42.9250 C   0  0  0  0  0  0  0  0  0  0  0  0
   56.9670   31.9010   44.6580 C   0  0  0  0  0  0  0  0  0  0  0  0
   58.1560   32.5930   43.9690 C   0  0  0  0  0  0  0  0  0  0  0  0
   58.4090   33.8820   44.5130 O   0  0  0  0  0  0  0  0  0  0  0  0
   59.1240   34.1240   45.6900 C   0  0  0  0  0  0  0  0  0  0  0  0
   58.5190   34.6500   46.8530 C   0  0  0  0  0  0  0  0  0  0  0  0
   59.2560   34.7600   48.0420 C   0  0  0  0  0  0  0  0  0  0  0  0
   60.5950   34.3510   48.0450 C   0  0  0  0  0  0  0  0  0  0  0  0
   61.1990   33.8960   46.8990 C   0  0  0  0  0  0  0  0  0  0  0  0
   60.4890   33.7790   45.7050 C   0  0  0  0  0  0  0  0  0  0  0  0
   62.5690   33.4140   47.1750 C   0  0  0  0  0  0  0  0  0  0  0  0
   62.6690   33.5330   48.6300 N   0  0  0  0  0  0  0  0  0  0  0  0
   63.4860   32.6360   49.3850 C   0  0  0  0  0  0  0  0  0  0  0  0
   64.6620   32.3800   49.0070 O   0  0  0  0  0  0  0  0  0  0  0  0
   62.9310   31.9700   50.6090 C   0  0  0  0  0  0  0  0  0  0  0  0
   61.4680   32.1190   50.6830 N   0  0  0  0  0  0  0  0  0  0  0  0
   60.5750   31.0320   51.1540 C   0  0  0  0  0  0  0  0  0  0  0  0
   59.4240   30.7250   50.1620 C   0  0  0  0  0  0  0  0  0  0  0  0
   58.1170   31.4840   50.4280 C   0  0  0  0  0  0  0  0  0  0  0  0
   57.7110   31.4110   51.9000 C   0  0  0  0  0  0  0  0  0  0  0  0
   58.8110   31.9790   52.8000 C   0  0  0  0  0  0  0  0  0  0  0  0
   60.1330   31.2260   52.6230 C   0  0  0  0  0  0  0  0  0  0  0  0
   60.8990   33.3940   50.3220 C   0  0  0  0  0  0  0  0  0  0  0  0
   59.9200   33.8630   50.9620 O   0  0  0  0  0  0  0  0  0  0  0  0
   61.5070   34.2110   49.2140 C   0  0  2  0  0  0  0  0  0  0  0  0
   58.6037   30.2271   47.7706 H   0  0  0  0  0  0  0  0  0  0  0  0
   59.9305   31.1683   47.0087 H   0  0  0  0  0  0  0  0  0  0  0  0
   58.2550   31.8160   47.0087 H   0  0  0  0  0  0  0  0  0  0  0  0
   59.3277   30.5465   44.8614 H   0  0  0  0  0  0  0  0  0  0  0  0
   58.6809   29.1151   45.7503 H   0  0  0  0  0  0  0  0  0  0  0  0
   57.1111   28.5100   44.4800 H   0  0  0  0  0  0  0  0  0  0  0  0
   55.5281   29.3349   44.8862 H   0  0  0  0  0  0  0  0  0  0  0  0
   55.5488   30.5603   42.8337 H   0  0  0  0  0  0  0  0  0  0  0  0
   57.2091   30.0001   42.4387 H   0  0  0  0  0  0  0  0  0  0  0  0
   55.8436   28.8330   42.4387 H   0  0  0  0  0  0  0  0  0  0  0  0
   56.1304   31.8681   43.9445 H   0  0  0  0  0  0  0  0  0  0  0  0
   56.7470   32.4910   45.5599 H   0  0  0  0  0  0  0  0  0  0  0  0
   59.0534   31.9702   44.0987 H   0  0  0  0  0  0  0  0  0  0  0  0
   57.9079   32.7157   42.9044 H   0  0  0  0  0  0  0  0  0  0  0  0
   57.4681   34.9740   46.8265 H   0  0  0  0  0  0  0  0  0  0  0  0
   58.7904   35.1601   48.9547 H   0  0  0  0  0  0  0  0  0  0  0  0
   60.9864   33.4234   44.7906 H   0  0  0  0  0  0  0  0  0  0  0  0
   62.6935   32.3694   46.8536 H   0  0  0  0  0  0  0  0  0  0  0  0
   63.3453   33.9789   46.6380 H   0  0  0  0  0  0  0  0  0  0  0  0
   63.1809   30.8992   50.5786 H   0  0  0  0  0  0  0  0  0  0  0  0
   63.3737   32.4483   51.4951 H   0  0  0  0  0  0  0  0  0  0  0  0
   61.1718   30.1080   51.1643 H   0  0  0  0  0  0  0  0  0  0  0  0
   59.7683   30.9833   49.1497 H   0  0  0  0  0  0  0  0  0  0  0  0
   59.1894   29.6574   50.2852 H   0  0  0  0  0  0  0  0  0  0  0  0
   58.2538   32.5389   50.1477 H   0  0  0  0  0  0  0  0  0  0  0  0
   57.3212   31.0173   49.8290 H   0  0  0  0  0  0  0  0  0  0  0  0
   56.7888   31.9921   52.0483 H   0  0  0  0  0  0  0  0  0  0  0  0
   57.5485   30.3564   52.1673 H   0  0  0  0  0  0  0  0  0  0  0  0
   58.9673   33.0380   52.5468 H   0  0  0  0  0  0  0  0  0  0  0  0
   58.4900   31.8670   53.8461 H   0  0  0  0  0  0  0  0  0  0  0  0
   60.9203   31.7885   53.1462 H   0  0  0  0  0  0  0  0  0  0  0  0
   59.9740   30.2185   53.0350 H   0  0  0  0  0  0  0  0  0  0  0  0
   61.7442   35.1754   49.6870 H   0  0  0  0  0  0  0  0  0  0  0  0
  1  2  1  0
  2  3  1  0
  3  4  1  0
  4  5  1  0
  3  6  1  0
  6  7  1  0
  7  8  1  0
  8  9  1  0
  9 10  2  0
 10 11  1  0
 11 12  2  0
 12 13  1  0
 13 14  2  0
 13 15  1  0
 15 16  1  0
 16 17  1  0
 17 18  2  0
 17 19  1  0
 19 20  1  0
 20 21  1  0
 21 22  1  0
 22 23  1  0
 23 24  1  0
 24 25  1  0
 25 26  1  0
 20 27  1  0
 27 28  2  0
 27 29  1  0
 14  9  1  0
 29 16  1  0
 29 12  1  0
 26 21  1  0
  1 30  1  0
  1 31  1  0
  1 32  1  0
  2 33  1  0
  2 34  1  0
  4 35  1  0
  4 36  1  0
  5 37  1  0
  5 38  1  0
  5 39  1  0
  6 40  1  0
  6 41  1  0
  7 42  1  0
  7 43  1  0
 10 44  1  0
 11 45  1  0
 14 46  1  0
 15 47  1  0
 15 48  1  0
 19 49  1  0
 19 50  1  0
 21 51  1  0
 22 52  1  0
 22 53  1  0
 23 54  1  0
 23 55  1  0
 24 56  1  0
 24 57  1  0
 25 58  1  0
 25 59  1  0
 26 60  1  0
 26 61  1  0
 29 62  1  1
M  END
>  <UniqueID>  (24) 
24

>  <SMILES>  (24) 
CCN(CC)CCOc1ccc2c(c1)CN1C(=O)CN(C3CCCCC3)C(=O)[C@H]21

>  <Energy>  (24) 
93.59072035659368

>  <Genealogy>  (24) 
CCN(CC)CCOc1ccc2c(c1)CN1C(=O)CN(C3CCCCC3)C(=O)[C@H]21 (chirality)
CCN(CC)CCOc1ccc2c(c1)CN1C(=O)CN(C3CCCCC3)C(=O)[C@H]21 (3D coordinates assigned)
CCN(CC)CCOc1ccc2c(c1)CN1C(=O)CN(C3CCCCC3)C(=O)[C@H]21 (nonaromatic ring conformer: 93.59072035659368 kcal/mol)

>  <smiles>  (24) 
CCN(CC)CCOc1ccc2c(c1)CN1C(=O)CN(C3CCCCC3)C(=O)C21

>  <score_type>  (24) 
oracle

>  <origin>  (24) 
adg

>  <m_score__min__energy>  (24) 
-7.4900000000000002

>  <m_primary>  (24) 
energy

$$$$
24:0
     RDKit          3D

 44 46  0  0  0  0  0  0  0  0999 V2000
   57.7140   31.5890   42.9370 C   0  0  0  0  0  0  0  0  0  0  0  0
   56.7790   30.4330   42.5920 C   0  0  0  0  0  0  0  0  0  0  0  0
   56.1010   29.8770   43.8480 C   0  0  0  0  0  0  0  0  0  0  0  0
   57.1240   29.4610   44.8650 C   0  0  0  0  0  0  0  0  0  0  0  0
   57.3870   30.1820   45.9810 N   0  0  0  0  0  0  0  0  0  0  0  0
   58.3900   29.4990   46.5710 C   0  0  0  0  0  0  0  0  0  0  0  0
   59.0220   29.8540   47.7630 C   0  0  0  0  0  0  0  0  0  0  0  0
   58.5970   31.0020   48.4520 O   0  0  0  0  0  0  0  0  0  0  0  0
   59.4580   31.9610   49.0650 C   0  0  0  0  0  0  0  0  0  0  0  0
   60.3510   32.6300   48.0170 C   0  0  0  0  0  0  0  0  0  0  0  0
   59.5130   33.2810   46.9510 C   0  0  0  0  0  0  0  0  0  0  0  0
   60.0100   34.3810   46.2350 C   0  0  0  0  0  0  0  0  0  0  0  0
   59.2310   34.9520   45.2270 C   0  0  0  0  0  0  0  0  0  0  0  0
   57.9750   34.4200   44.9350 C   0  0  0  0  0  0  0  0  0  0  0  0
   57.5160   33.3160   45.6570 C   0  0  0  0  0  0  0  0  0  0  0  0
   58.2860   32.7700   46.6380 N   0  0  0  0  0  0  0  0  0  0  0  0
   60.0670   29.0160   48.2160 C   0  0  0  0  0  0  0  0  0  0  0  0
   60.4420   27.8830   47.4710 C   0  0  0  0  0  0  0  0  0  0  0  0
   59.7720   27.5830   46.2780 C   0  0  0  0  0  0  0  0  0  0  0  0
   58.7680   28.4070   45.8810 N   0  0  0  0  0  0  0  0  0  0  0  0
   57.9770   28.3620   44.7950 C   0  0  0  0  0  0  0  0  0  0  0  0
   58.0850   27.3530   43.6880 C   0  0  0  0  0  0  0  0  0  0  0  0
   57.7510   25.5780   44.3830 Br  0  0  0  0  0  0  0  0  0  0  0  0
   57.7912   31.6844   44.0301 H   0  0  0  0  0  0  0  0  0  0  0  0
   58.7106   31.3930   42.5148 H   0  0  0  0  0  0  0  0  0  0  0  0
   57.3140   32.5227   42.5148 H   0  0  0  0  0  0  0  0  0  0  0  0
   56.0065   30.7915   41.8958 H   0  0  0  0  0  0  0  0  0  0  0  0
   57.3726   29.6297   42.1313 H   0  0  0  0  0  0  0  0  0  0  0  0
   55.4548   30.6537   44.2830 H   0  0  0  0  0  0  0  0  0  0  0  0
   55.5045   28.9966   43.5668 H   0  0  0  0  0  0  0  0  0  0  0  0
   58.8477   32.7287   49.5632 H   0  0  0  0  0  0  0  0  0  0  0  0
   60.0961   31.4471   49.7990 H   0  0  0  0  0  0  0  0  0  0  0  0
   60.9731   33.3943   48.5058 H   0  0  0  0  0  0  0  0  0  0  0  0
   60.9886   31.8643   47.5510 H   0  0  0  0  0  0  0  0  0  0  0  0
   61.0048   34.7897   46.4661 H   0  0  0  0  0  0  0  0  0  0  0  0
   59.6067   35.8193   44.6644 H   0  0  0  0  0  0  0  0  0  0  0  0
   57.3528   34.8651   44.1446 H   0  0  0  0  0  0  0  0  0  0  0  0
   56.5288   32.8861   45.4322 H   0  0  0  0  0  0  0  0  0  0  0  0
   57.9200   31.9380   47.1560 H   0  0  0  0  0  0  0  0  0  0  0  0
   60.5891   29.2510   49.1552 H   0  0  0  0  0  0  0  0  0  0  0  0
   61.2581   27.2353   47.8239 H   0  0  0  0  0  0  0  0  0  0  0  0
   60.0515   26.7038   45.6789 H   0  0  0  0  0  0  0  0  0  0  0  0
   57.3442   27.5853   42.9087 H   0  0  0  0  0  0  0  0  0  0  0  0
   59.0977   27.3906   43.2601 H   0  0  0  0  0  0  0  0  0  0  0  0
  1  2  1  0
  2  3  1  0
  3  4  1  0
  4  5  1  0
  5  6  2  0
  6  7  1  0
  7  8  1  0
  8  9  1  0
  9 10  1  0
 10 11  1  0
 11 12  2  0
 12 13  1  0
 13 14  2  0
 14 15  1  0
 15 16  2  0
  7 17  2  0
 17 18  1  0
 18 19  2  0
 19 20  1  0
 20 21  1  0
 21 22  1  0
 22 23  1  0
 21  4  2  0
 20  6  1  0
 16 11  1  0
  1 24  1  0
  1 25  1  0
  1 26  1  0
  2 27  1  0
  2 28  1  0
  3 29  1  0
  3 30  1  0
  9 31  1  0
  9 32  1  0
 10 33  1  0
 10 34  1  0
 12 35  1  0
 13 36  1  0
 14 37  1  0
 15 38  1  0
 16 39  1  0
 17 40  1  0
 18 41  1  0
 19 42  1  0
 22 43  1  0
 22 44  1  0
M  CHG  1  16   1
M  END
>  <UniqueID>  (25) 
25

>  <SMILES>  (25) 
CCCc1nc2c(OCCc3cccc[nH+]3)cccn2c1CBr

>  <Energy>  (25) 
70.8373242282632

>  <Genealogy>  (25) 
CCCc1nc2c(OCCc3cccc[nH+]3)cccn2c1CBr (protonated)
CCCc1nc2c(OCCc3cccc[nH+]3)cccn2c1CBr (3D coordinates assigned)
CCCc1nc2c(OCCc3cccc[nH+]3)cccn2c1CBr (optimized conformer: 70.8373242282632 kcal/mol)

>  <smiles>  (25) 
CCCc1nc2c(OCCc3ccccn3)cccn2c1CBr

>  <score_type>  (25) 
oracle

>  <origin>  (25) 
adg

>  <m_score__min__energy>  (25) 
-5.25

>  <m_primary>  (25) 
energy

$$$$
25:0
     RDKit          3D

 34 35  0  0  0  0  0  0  0  0999 V2000
   60.4130   33.5980   46.8820 C   0  0  0  0  0  0  0  0  0  0  0  0
   59.9330   32.4290   47.5400 O   0  0  0  0  0  0  0  0  0  0  0  0
   59.4140   31.2940   46.8970 C   0  0  0  0  0  0  0  0  0  0  0  0
   60.1110   30.0750   46.9310 C   0  0  0  0  0  0  0  0  0  0  0  0
   59.6050   28.9480   46.2980 C   0  0  0  0  0  0  0  0  0  0  0  0
   58.3850   28.9980   45.6190 C   0  0  0  0  0  0  0  0  0  0  0  0
   57.8860   27.7830   44.9330 C   0  0  0  0  0  0  0  0  0  0  0  0
   57.7030   27.8130   43.6860 O   0  0  0  0  0  0  0  0  0  0  0  0
   57.5950   26.5380   45.6720 C   0  0  0  0  0  0  0  0  0  0  0  0
   58.4970   25.5660   46.0860 C   0  0  0  0  0  0  0  0  0  0  0  0
   57.8620   24.6200   46.7490 O   0  0  0  0  0  0  0  0  0  0  0  0
   56.5880   24.9280   46.7960 C   0  0  0  0  0  0  0  0  0  0  0  0
   55.6220   24.1480   47.4240 O   0  0  0  0  0  0  0  0  0  0  0  0
   56.3680   26.1180   46.1450 C   0  0  0  0  0  0  0  0  0  0  0  0
   55.1480   26.7650   45.9930 O   0  0  0  0  0  0  0  0  0  0  0  0
   57.6620   30.2080   45.5600 C   0  0  0  0  0  0  0  0  0  0  0  0
   56.4350   30.1830   44.8620 O   0  0  0  0  0  0  0  0  0  0  0  0
   56.2370   30.3300   43.4600 C   0  0  0  0  0  0  0  0  0  0  0  0
   58.1760   31.3720   46.2020 C   0  0  0  0  0  0  0  0  0  0  0  0
   57.4280   32.5620   46.1240 O   0  0  0  0  0  0  0  0  0  0  0  0
   57.4450   33.5270   45.0780 C   0  0  0  0  0  0  0  0  0  0  0  0
   60.7185   34.3419   47.6325 H   0  0  0  0  0  0  0  0  0  0  0  0
   61.2764   33.3362   46.2527 H   0  0  0  0  0  0  0  0  0  0  0  0
   59.6147   34.0185   46.2527 H   0  0  0  0  0  0  0  0  0  0  0  0
   61.0701   30.0126   47.4661 H   0  0  0  0  0  0  0  0  0  0  0  0
   60.1708   28.0052   46.3313 H   0  0  0  0  0  0  0  0  0  0  0  0
   59.5792   25.5832   45.8899 H   0  0  0  0  0  0  0  0  0  0  0  0
   54.6640   24.4670   47.5030 H   0  0  0  0  0  0  0  0  0  0  0  0
   55.3659   30.9767   43.2785 H   0  0  0  0  0  0  0  0  0  0  0  0
   57.1314   30.7846   43.0090 H   0  0  0  0  0  0  0  0  0  0  0  0
   56.0607   29.3423   43.0090 H   0  0  0  0  0  0  0  0  0  0  0  0
   57.4628   34.5377   45.5118 H   0  0  0  0  0  0  0  0  0  0  0  0
   58.3407   33.3788   44.4569 H   0  0  0  0  0  0  0  0  0  0  0  0
   56.5447   33.4104   44.4569 H   0  0  0  0  0  0  0  0  0  0  0  0
  1  2  1  0
  2  3  1  0
  3  4  2  0
  4  5  1  0
  5  6  2  0
  6  7  1  0
  7  8  2  0
  7  9  1  0
  9 10  2  0
 10 11  1  0
 11 12  1  0
 12 13  1  0
 12 14  2  0
 14 15  1  0
  6 16  1  0
 16 17  1  0
 17 18  1  0
 16 19  2  0
 19 20  1  0
 20 21  1  0
 19  3  1  0
 14  9  1  0
  1 22  1  0
  1 23  1  0
  1 24  1  0
  4 25  1  0
  5 26  1  0
 10 27  1  0
 13 28  1  0
 18 29  1  0
 18 30  1  0
 18 31  1  0
 21 32  1  0
 21 33  1  0
 21 34  1  0
M  CHG  1  15  -1
M  END
>  <UniqueID>  (26) 
26

>  <SMILES>  (26) 
COc1ccc(C(=O)c2coc(O)c2[O-])c(OC)c1OC

>  <Energy>  (26) 
74.25918755524

>  <Genealogy>  (26) 
COc1ccc(C(=O)c2coc(O)c2[O-])c(OC)c1OC (protonated)
COc1ccc(C(=O)c2coc(O)c2[O-])c(OC)c1OC (3D coordinates assigned)
COc1ccc(C(=O)c2coc(O)c2[O-])c(OC)c1OC (optimized conformer: 74.25918755524 kcal/mol)

>  <smiles>  (26) 
COc1ccc(C(=O)c2coc(O)c2O)c(OC)c1OC

>  <score_type>  (26) 
oracle

>  <origin>  (26) 
adg

>  <m_score__min__energy>  (26) 
-9.5899999999999999

>  <m_primary>  (26) 
energy

$$$$
26:0
     RDKit          3D

 54 57  0  0  0  0  0  0  0  0999 V2000
   63.4550   33.6250   46.7940 C   0  0  0  0  0  0  0  0  0  0  0  0
   63.5070   32.4780   47.7950 C   0  0  0  0  0  0  0  0  0  0  0  0
   62.2430   31.7390   47.7890 N   0  0  0  0  0  0  0  0  0  0  0  0
   61.8620   30.8450   46.8610 C   0  0  0  0  0  0  0  0  0  0  0  0
   60.6500   30.3080   47.2560 C   0  0  0  0  0  0  0  0  0  0  0  0
   59.8480   29.2840   46.5410 C   0  0  0  0  0  0  0  0  0  0  0  0
   58.8880   28.5310   47.2430 C   0  0  0  0  0  0  0  0  0  0  0  0
   58.1270   27.5610   46.5840 C   0  0  0  0  0  0  0  0  0  0  0  0
   58.3110   27.3330   45.2200 C   0  0  0  0  0  0  0  0  0  0  0  0
   59.2580   28.0740   44.5100 C   0  0  0  0  0  0  0  0  0  0  0  0
   60.0240   29.0450   45.1640 C   0  0  0  0  0  0  0  0  0  0  0  0
   60.2800   30.8550   48.4340 N   0  0  0  0  0  0  0  0  0  0  0  0
   61.2770   31.7140   48.7360 C   0  0  0  0  0  0  0  0  0  0  0  0
   61.2560   32.5800   49.9680 C   0  0  0  0  0  0  0  0  0  0  0  0
   61.3480   34.0100   49.6310 N   0  0  0  0  0  0  0  0  0  0  0  0
   60.0270   34.5940   49.3440 C   0  0  0  0  0  0  0  0  0  0  0  0
   59.4410   33.9790   48.0990 C   0  0  0  0  0  0  0  0  0  0  0  0
   60.0040   34.2500   46.8430 C   0  0  0  0  0  0  0  0  0  0  0  0
   59.4900   33.6460   45.6930 C   0  0  0  0  0  0  0  0  0  0  0  0
   58.4070   32.7510   45.7800 C   0  0  0  0  0  0  0  0  0  0  0  0
   57.8630   32.1050   44.5580 C   0  0  0  0  0  0  0  0  0  0  0  0
   58.1380   32.6350   43.2840 C   0  0  0  0  0  0  0  0  0  0  0  0
   57.6270   32.0240   42.1350 C   0  0  0  0  0  0  0  0  0  0  0  0
   56.8360   30.8780   42.2450 C   0  0  0  0  0  0  0  0  0  0  0  0
   56.5560   30.3410   43.5030 C   0  0  0  0  0  0  0  0  0  0  0  0
   57.0670   30.9480   44.6560 C   0  0  0  0  0  0  0  0  0  0  0  0
   57.8540   32.4730   47.0420 C   0  0  0  0  0  0  0  0  0  0  0  0
   58.3720   33.0770   48.1920 C   0  0  0  0  0  0  0  0  0  0  0  0
   63.4116   34.5819   47.3348 H   0  0  0  0  0  0  0  0  0  0  0  0
   64.3551   33.6014   46.1622 H   0  0  0  0  0  0  0  0  0  0  0  0
   62.5607   33.5200   46.1622 H   0  0  0  0  0  0  0  0  0  0  0  0
   64.3267   31.7966   47.5235 H   0  0  0  0  0  0  0  0  0  0  0  0
   63.6756   32.8893   48.8012 H   0  0  0  0  0  0  0  0  0  0  0  0
   62.4168   30.5856   45.9472 H   0  0  0  0  0  0  0  0  0  0  0  0
   58.7355   28.7071   48.3180 H   0  0  0  0  0  0  0  0  0  0  0  0
   57.3813   26.9761   47.1423 H   0  0  0  0  0  0  0  0  0  0  0  0
   57.7102   26.5697   44.7039 H   0  0  0  0  0  0  0  0  0  0  0  0
   59.4020   27.8939   43.4344 H   0  0  0  0  0  0  0  0  0  0  0  0
   60.7684   29.6255   44.5993 H   0  0  0  0  0  0  0  0  0  0  0  0
   60.3171   32.4020   50.5127 H   0  0  0  0  0  0  0  0  0  0  0  0
   62.1269   32.3171   50.5864 H   0  0  0  0  0  0  0  0  0  0  0  0
   61.7660   34.5100   50.4510 H   0  0  0  0  0  0  0  0  0  0  0  0
   61.9800   34.1450   48.8080 H   0  0  0  0  0  0  0  0  0  0  0  0
   59.3543   34.4042   50.1934 H   0  0  0  0  0  0  0  0  0  0  0  0
   60.1414   35.6768   49.1877 H   0  0  0  0  0  0  0  0  0  0  0  0
   60.8552   34.9422   46.7632 H   0  0  0  0  0  0  0  0  0  0  0  0
   59.9347   33.8714   44.7125 H   0  0  0  0  0  0  0  0  0  0  0  0
   58.7601   33.5374   43.1912 H   0  0  0  0  0  0  0  0  0  0  0  0
   57.8480   32.4461   41.1435 H   0  0  0  0  0  0  0  0  0  0  0  0
   56.4336   30.3986   41.3404 H   0  0  0  0  0  0  0  0  0  0  0  0
   55.9324   29.4389   43.5882 H   0  0  0  0  0  0  0  0  0  0  0  0
   56.8454   30.5186   45.6442 H   0  0  0  0  0  0  0  0  0  0  0  0
   57.0077   31.7753   47.1256 H   0  0  0  0  0  0  0  0  0  0  0  0
   57.9381   32.8429   49.1753 H   0  0  0  0  0  0  0  0  0  0  0  0
  1  2  1  0
  2  3  1  0
  3  4  1  0
  4  5  2  0
  5  6  1  0
  6  7  2  0
  7  8  1  0
  8  9  2  0
  9 10  1  0
 10 11  2  0
  5 12  1  0
 12 13  2  0
 13 14  1  0
 14 15  1  0
 15 16  1  0
 16 17  1  0
 17 18  2  0
 18 19  1  0
 19 20  2  0
 20 21  1  0
 21 22  2  0
 22 23  1  0
 23 24  2  0
 24 25  1  0
 25 26  2  0
 20 27  1  0
 27 28  2  0
 13  3  1  0
 28 17  1  0
 11  6  1  0
 26 21  1  0
  1 29  1  0
  1 30  1  0
  1 31  1  0
  2 32  1  0
  2 33  1  0
  4 34  1  0
  7 35  1  0
  8 36  1  0
  9 37  1  0
 10 38  1  0
 11 39  1  0
 14 40  1  0
 14 41  1  0
 15 42  1  0
 15 43  1  0
 16 44  1  0
 16 45  1  0
 18 46  1  0
 19 47  1  0
 22 48  1  0
 23 49  1  0
 24 50  1  0
 25 51  1  0
 26 52  1  0
 27 53  1  0
 28 54  1  0
M  CHG  1  15   1
M  END
>  <UniqueID>  (27) 
27

>  <SMILES>  (27) 
CCn1cc(-c2ccccc2)nc1C[NH2+]Cc1ccc(-c2ccccc2)cc1

>  <Energy>  (27) 
89.25668188170049

>  <Genealogy>  (27) 
CCn1cc(-c2ccccc2)nc1C[NH2+]Cc1ccc(-c2ccccc2)cc1 (protonated)
CCn1cc(-c2ccccc2)nc1C[NH2+]Cc1ccc(-c2ccccc2)cc1 (3D coordinates assigned)
CCn1cc(-c2ccccc2)nc1C[NH2+]Cc1ccc(-c2ccccc2)cc1 (optimized conformer: 89.25668188170049 kcal/mol)

>  <smiles>  (27) 
CCn1cc(-c2ccccc2)nc1CNCc1ccc(-c2ccccc2)cc1

>  <score_type>  (27) 
oracle

>  <origin>  (27) 
adg

>  <m_score__min__energy>  (27) 
-7.96

>  <m_primary>  (27) 
energy

$$$$
27:0
     RDKit          3D

 35 37  0  0  0  0  0  0  0  0999 V2000
   57.7060   20.3470   46.0240 C   0  0  0  0  0  0  0  0  0  0  0  0
   56.8710   21.3760   46.5460 O   0  0  0  0  0  0  0  0  0  0  0  0
   56.9250   22.7220   46.1520 C   0  0  0  0  0  0  0  0  0  0  0  0
   57.4630   23.7230   46.9870 C   0  0  0  0  0  0  0  0  0  0  0  0
   57.4980   25.0520   46.5570 C   0  0  0  0  0  0  0  0  0  0  0  0
   58.0210   26.0210   47.3510 N   0  0  0  0  0  0  0  0  0  0  0  0
   58.0610   27.3210   46.9530 C   0  0  0  0  0  0  0  0  0  0  0  0
   58.8230   28.4960   48.0170 Cl  0  0  0  0  0  0  0  0  0  0  0  0
   57.5500   27.6710   45.6850 C   0  0  0  0  0  0  0  0  0  0  0  0
   57.5530   29.0640   45.1870 C   0  0  0  0  0  0  0  0  0  0  0  0
   58.7470   29.8040   45.1670 C   0  0  0  0  0  0  0  0  0  0  0  0
   58.7510   31.1300   44.7260 C   0  0  0  0  0  0  0  0  0  0  0  0
   57.5620   31.7330   44.3120 C   0  0  0  0  0  0  0  0  0  0  0  0
   56.3650   31.0130   44.3430 C   0  0  0  0  0  0  0  0  0  0  0  0
   56.3520   29.6800   44.7820 C   0  0  0  0  0  0  0  0  0  0  0  0
   55.1540   28.9670   44.8060 O   0  0  0  0  0  0  0  0  0  0  0  0
   57.0390   26.6920   44.8890 N   0  0  0  0  0  0  0  0  0  0  0  0
   56.9980   25.3950   45.2900 C   0  0  0  0  0  0  0  0  0  0  0  0
   56.4660   24.4090   44.4560 C   0  0  0  0  0  0  0  0  0  0  0  0
   56.4260   23.0660   44.8830 C   0  0  0  0  0  0  0  0  0  0  0  0
   55.8980   22.0450   44.0760 O   0  0  0  0  0  0  0  0  0  0  0  0
   56.6320   21.3480   43.0750 C   0  0  0  0  0  0  0  0  0  0  0  0
   58.1605   19.7869   46.8545 H   0  0  0  0  0  0  0  0  0  0  0  0
   57.1038   19.6637   45.4071 H   0  0  0  0  0  0  0  0  0  0  0  0
   58.4986   20.7956   45.4071 H   0  0  0  0  0  0  0  0  0  0  0  0
   57.8561   23.4569   47.9793 H   0  0  0  0  0  0  0  0  0  0  0  0
   59.6851   29.3365   45.5007 H   0  0  0  0  0  0  0  0  0  0  0  0
   59.6920   31.6992   44.7051 H   0  0  0  0  0  0  0  0  0  0  0  0
   57.5675   32.7755   43.9612 H   0  0  0  0  0  0  0  0  0  0  0  0
   55.4288   31.4930   44.0219 H   0  0  0  0  0  0  0  0  0  0  0  0
   55.1380   27.9560   44.8710 H   0  0  0  0  0  0  0  0  0  0  0  0
   56.0773   24.6810   43.4636 H   0  0  0  0  0  0  0  0  0  0  0  0
   57.3499   20.6663   43.5546 H   0  0  0  0  0  0  0  0  0  0  0  0
   55.9382   20.7683   42.4485 H   0  0  0  0  0  0  0  0  0  0  0  0
   57.1751   22.0708   42.4485 H   0  0  0  0  0  0  0  0  0  0  0  0
  1  2  1  0
  2  3  1  0
  3  4  2  0
  4  5  1  0
  5  6  2  0
  6  7  1  0
  7  8  1  0
  7  9  2  0
  9 10  1  0
 10 11  2  0
 11 12  1  0
 12 13  2  0
 13 14  1  0
 14 15  2  0
 15 16  1  0
  9 17  1  0
 17 18  2  0
 18 19  1  0
 19 20  2  0
 20 21  1  0
 21 22  1  0
 20  3  1  0
 18  5  1  0
 15 10  1  0
  1 23  1  0
  1 24  1  0
  1 25  1  0
  4 26  1  0
 11 27  1  0
 12 28  1  0
 13 29  1  0
 14 30  1  0
 16 31  1  0
 19 32  1  0
 22 33  1  0
 22 34  1  0
 22 35  1  0
M  END
>  <UniqueID>  (28) 
28

>  <SMILES>  (28) 
COc1cc2nc(Cl)c(-c3ccccc3O)nc2cc1OC

>  <Energy>  (28) 
47.591387593080555

>  <Genealogy>  (28) 
COc1cc2nc(Cl)c(-c3ccccc3O)nc2cc1OC (3D coordinates assigned)
COc1cc2nc(Cl)c(-c3ccccc3O)nc2cc1OC (optimized conformer: 47.591387593080555 kcal/mol)

>  <smiles>  (28) 
COc1cc2nc(Cl)c(-c3ccccc3O)nc2cc1OC

>  <score_type>  (28) 
oracle

>  <origin>  (28) 
adg

>  <m_score__min__energy>  (28) 
-7.4699999999999998

>  <m_primary>  (28) 
energy

$$$$
28:0
     RDKit          3D

 39 41  0  0  0  0  0  0  0  0999 V2000
   62.8550   31.5930   49.2870 C   0  0  0  0  0  0  0  0  0  0  0  0
   63.6120   32.8280   48.9540 N   0  0  0  0  0  0  0  0  0  0  0  0
   64.9480   32.7210   49.5900 C   0  0  0  0  0  0  0  0  0  0  0  0
   63.7840   32.9440   47.4710 C   0  0  0  0  0  0  0  0  0  0  0  0
   62.6990   33.7820   46.7530 C   0  0  0  0  0  0  0  0  0  0  0  0
   61.4540   33.8600   47.5250 N   0  0  0  0  0  0  0  0  0  0  0  0
   60.1690   33.8350   46.8730 C   0  0  0  0  0  0  0  0  0  0  0  0
   59.8010   32.9060   45.9620 N   0  0  0  0  0  0  0  0  0  0  0  0
   58.5260   33.1100   45.5020 C   0  0  0  0  0  0  0  0  0  0  0  0
   57.9170   32.2000   44.4980 C   0  0  0  0  0  0  0  0  0  0  0  0
   57.9420   32.5030   43.1220 C   0  0  0  0  0  0  0  0  0  0  0  0
   57.3650   31.6300   42.1950 C   0  0  0  0  0  0  0  0  0  0  0  0
   56.7620   30.4470   42.6250 C   0  0  0  0  0  0  0  0  0  0  0  0
   56.7380   30.1310   43.9840 C   0  0  0  0  0  0  0  0  0  0  0  0
   57.3130   30.9990   44.9170 C   0  0  0  0  0  0  0  0  0  0  0  0
   57.8640   34.1800   46.0290 N   0  0  0  0  0  0  0  0  0  0  0  0
   58.9040   34.8970   47.1040 S   0  0  0  0  0  0  0  0  0  0  0  0
   61.5100   34.2010   48.9500 C   0  0  0  0  0  0  0  0  0  0  0  0
   62.9280   34.0280   49.5110 C   0  0  0  0  0  0  0  0  0  0  0  0
   62.7897   31.4864   50.3799 H   0  0  0  0  0  0  0  0  0  0  0  0
   61.8418   31.6586   48.8638 H   0  0  0  0  0  0  0  0  0  0  0  0
   63.3733   30.7199   48.8638 H   0  0  0  0  0  0  0  0  0  0  0  0
   64.8350   32.7301   50.6841 H   0  0  0  0  0  0  0  0  0  0  0  0
   65.4281   31.7815   49.2787 H   0  0  0  0  0  0  0  0  0  0  0  0
   65.5715   33.5721   49.2787 H   0  0  0  0  0  0  0  0  0  0  0  0
   64.7609   33.4104   47.2757 H   0  0  0  0  0  0  0  0  0  0  0  0
   63.7011   31.9231   47.0699 H   0  0  0  0  0  0  0  0  0  0  0  0
   63.0837   34.8009   46.5984 H   0  0  0  0  0  0  0  0  0  0  0  0
   62.4714   33.2890   45.7964 H   0  0  0  0  0  0  0  0  0  0  0  0
   58.4183   33.4319   42.7753 H   0  0  0  0  0  0  0  0  0  0  0  0
   57.3863   31.8763   41.1231 H   0  0  0  0  0  0  0  0  0  0  0  0
   56.3059   29.7641   41.8931 H   0  0  0  0  0  0  0  0  0  0  0  0
   56.2656   29.1968   44.3219 H   0  0  0  0  0  0  0  0  0  0  0  0
   57.2934   30.7418   45.9863 H   0  0  0  0  0  0  0  0  0  0  0  0
   56.8860   34.4890   45.8360 H   0  0  0  0  0  0  0  0  0  0  0  0
   61.1987   35.2480   49.0801 H   0  0  0  0  0  0  0  0  0  0  0  0
   60.8365   33.5234   49.4952 H   0  0  0  0  0  0  0  0  0  0  0  0
   63.5194   34.9209   49.2601 H   0  0  0  0  0  0  0  0  0  0  0  0
   62.8459   33.8944   50.5998 H   0  0  0  0  0  0  0  0  0  0  0  0
  1  2  1  0
  2  3  1  0
  2  4  1  0
  4  5  1  0
  5  6  1  0
  6  7  1  0
  7  8  2  0
  8  9  1  0
  9 10  1  0
 10 11  2  0
 11 12  1  0
 12 13  2  0
 13 14  1  0
 14 15  2  0
  9 16  2  0
 16 17  1  0
  6 18  1  0
 18 19  1  0
 19  2  1  0
 17  7  1  0
 15 10  1  0
  1 20  1  0
  1 21  1  0
  1 22  1  0
  3 23  1  0
  3 24  1  0
  3 25  1  0
  4 26  1  0
  4 27  1  0
  5 28  1  0
  5 29  1  0
 11 30  1  0
 12 31  1  0
 13 32  1  0
 14 33  1  0
 15 34  1  0
 16 35  1  0
 18 36  1  0
 18 37  1  0
 19 38  1  0
 19 39  1  0
M  CHG  2   2   1  16   1
M  END
>  <UniqueID>  (29) 
29

>  <SMILES>  (29) 
C[N+]1(C)CCN(c2nc(-c3ccccc3)[nH+]s2)CC1

>  <Energy>  (29) 
92.37217107093493

>  <Genealogy>  (29) 
C[N+]1(C)CCN(c2nc(-c3ccccc3)[nH+]s2)CC1 (protonated)
C[N+]1(C)CCN(c2nc(-c3ccccc3)[nH+]s2)CC1 (3D coordinates assigned)
C[N+]1(C)CCN(c2nc(-c3ccccc3)[nH+]s2)CC1 (nonaromatic ring conformer: 92.37217107093493 kcal/mol)

>  <smiles>  (29) 
C[N+]1(C)CCN(c2nc(-c3ccccc3)ns2)CC1

>  <score_type>  (29) 
oracle

>  <origin>  (29) 
adg

>  <m_score__min__energy>  (29) 
-4.7199999999999998

>  <m_primary>  (29) 
energy

$$$$
29:0
     RDKit          3D

 61 64  0  0  0  0  0  0  0  0999 V2000
   63.4050   33.8440   46.4320 C   0  0  0  0  0  0  0  0  0  0  0  0
   62.5490   32.8230   47.1760 C   0  0  0  0  0  0  0  0  0  0  0  0
   62.7800   32.9280   48.6350 N   0  0  0  0  0  0  0  0  0  0  0  0
   64.2290   32.9170   48.9500 C   0  0  0  0  0  0  0  0  0  0  0  0
   64.5090   31.9890   50.1320 C   0  0  0  0  0  0  0  0  0  0  0  0
   62.1240   34.1350   49.1930 C   0  0  0  0  0  0  0  0  0  0  0  0
   61.5390   33.8300   50.5820 C   0  0  0  0  0  0  0  0  0  0  0  0
   61.0870   32.4910   50.6720 O   0  0  0  0  0  0  0  0  0  0  0  0
   59.6930   32.4400   50.9140 C   0  0  0  0  0  0  0  0  0  0  0  0
   58.9810   32.0100   49.6300 C   0  0  0  0  0  0  0  0  0  0  0  0
   59.9350   31.4460   48.6650 N   0  0  0  0  0  0  0  0  0  0  0  0
   59.3570   31.4300   47.3350 C   0  0  0  0  0  0  0  0  0  0  0  0
   58.9790   30.2180   46.7390 C   0  0  0  0  0  0  0  0  0  0  0  0
   58.4850   30.1700   45.4440 C   0  0  0  0  0  0  0  0  0  0  0  0
   58.2010   31.3090   44.7380 N   0  0  0  0  0  0  0  0  0  0  0  0
   57.3840   31.2280   43.5130 C   0  0  0  0  0  0  0  0  0  0  0  0
   58.6230   32.5280   45.2430 C   0  0  0  0  0  0  0  0  0  0  0  0
   58.5490   33.7120   44.4670 C   0  0  0  0  0  0  0  0  0  0  0  0
   58.9130   34.9460   44.9980 C   0  0  0  0  0  0  0  0  0  0  0  0
   59.3640   35.0390   46.3090 C   0  0  0  0  0  0  0  0  0  0  0  0
   59.4940   33.8920   47.0890 C   0  0  0  0  0  0  0  0  0  0  0  0
   59.1670   32.6170   46.5700 C   0  0  0  0  0  0  0  0  0  0  0  0
   58.2850   28.7460   45.0740 C   0  0  0  0  0  0  0  0  0  0  0  0
   58.0310   28.1280   43.8390 C   0  0  0  0  0  0  0  0  0  0  0  0
   57.9770   26.7250   43.7820 C   0  0  0  0  0  0  0  0  0  0  0  0
   58.2220   25.9540   44.9330 C   0  0  0  0  0  0  0  0  0  0  0  0
   58.5440   26.5790   46.1480 C   0  0  0  0  0  0  0  0  0  0  0  0
   58.5790   27.9720   46.1850 C   0  0  0  0  0  0  0  0  0  0  0  0
   59.0090   28.8460   47.2620 C   0  0  0  0  0  0  0  0  0  0  0  0
   59.3220   28.4760   48.4250 O   0  0  0  0  0  0  0  0  0  0  0  0
   63.9355   34.4768   47.1587 H   0  0  0  0  0  0  0  0  0  0  0  0
   64.1365   33.3186   45.8005 H   0  0  0  0  0  0  0  0  0  0  0  0
   62.7600   34.4726   45.8005 H   0  0  0  0  0  0  0  0  0  0  0  0
   61.4871   33.0140   46.9616 H   0  0  0  0  0  0  0  0  0  0  0  0
   62.8239   31.8120   46.8410 H   0  0  0  0  0  0  0  0  0  0  0  0
   64.7885   32.5639   48.0712 H   0  0  0  0  0  0  0  0  0  0  0  0
   64.5451   33.9370   49.2138 H   0  0  0  0  0  0  0  0  0  0  0  0
   64.3445   32.5341   51.0732 H   0  0  0  0  0  0  0  0  0  0  0  0
   63.8321   31.1231   50.0867 H   0  0  0  0  0  0  0  0  0  0  0  0
   65.5518   31.6420   50.0867 H   0  0  0  0  0  0  0  0  0  0  0  0
   62.8651   34.9431   49.2808 H   0  0  0  0  0  0  0  0  0  0  0  0
   61.3092   34.4426   48.5211 H   0  0  0  0  0  0  0  0  0  0  0  0
   62.3167   33.9966   51.3419 H   0  0  0  0  0  0  0  0  0  0  0  0
   60.6798   34.4963   50.7486 H   0  0  0  0  0  0  0  0  0  0  0  0
   59.4836   31.7136   51.7130 H   0  0  0  0  0  0  0  0  0  0  0  0
   59.3328   33.4318   51.2249 H   0  0  0  0  0  0  0  0  0  0  0  0
   58.2246   31.2498   49.8749 H   0  0  0  0  0  0  0  0  0  0  0  0
   58.5058   32.8936   49.1789 H   0  0  0  0  0  0  0  0  0  0  0  0
   60.2000   30.4780   48.9560 H   0  0  0  0  0  0  0  0  0  0  0  0
   60.8350   31.9780   48.6740 H   0  0  0  0  0  0  0  0  0  0  0  0
   56.3236   31.1229   43.7858 H   0  0  0  0  0  0  0  0  0  0  0  0
   57.5209   32.1441   42.9197 H   0  0  0  0  0  0  0  0  0  0  0  0
   57.6981   30.3566   42.9197 H   0  0  0  0  0  0  0  0  0  0  0  0
   58.1975   33.6545   43.4263 H   0  0  0  0  0  0  0  0  0  0  0  0
   58.8434   35.8514   44.3772 H   0  0  0  0  0  0  0  0  0  0  0  0
   59.6193   36.0216   46.7324 H   0  0  0  0  0  0  0  0  0  0  0  0
   59.8563   33.9789   48.1240 H   0  0  0  0  0  0  0  0  0  0  0  0
   57.8770   28.7314   42.9323 H   0  0  0  0  0  0  0  0  0  0  0  0
   57.7414   26.2259   42.8305 H   0  0  0  0  0  0  0  0  0  0  0  0
   58.1610   24.8569   44.8806 H   0  0  0  0  0  0  0  0  0  0  0  0
   58.7630   25.9849   47.0475 H   0  0  0  0  0  0  0  0  0  0  0  0
  1  2  1  0
  2  3  1  0
  3  4  1  0
  4  5  1  0
  3  6  1  0
  6  7  1  0
  7  8  1  0
  8  9  1  0
  9 10  1  0
 10 11  1  0
 11 12  1  0
 12 13  2  0
 13 14  1  0
 14 15  2  0
 15 16  1  0
 15 17  1  0
 17 18  2  0
 18 19  1  0
 19 20  2  0
 20 21  1  0
 21 22  2  0
 14 23  1  0
 23 24  2  0
 24 25  1  0
 25 26  2  0
 26 27  1  0
 27 28  2  0
 28 29  1  0
 29 30  2  0
 22 12  1  0
 28 23  1  0
 29 13  1  0
 22 17  1  0
  1 31  1  0
  1 32  1  0
  1 33  1  0
  2 34  1  0
  2 35  1  0
  4 36  1  0
  4 37  1  0
  5 38  1  0
  5 39  1  0
  5 40  1  0
  6 41  1  0
  6 42  1  0
  7 43  1  0
  7 44  1  0
  9 45  1  0
  9 46  1  0
 10 47  1  0
 10 48  1  0
 11 49  1  0
 11 50  1  0
 16 51  1  0
 16 52  1  0
 16 53  1  0
 18 54  1  0
 19 55  1  0
 20 56  1  0
 21 57  1  0
 24 58  1  0
 25 59  1  0
 26 60  1  0
 27 61  1  0
M  CHG  2  11   1  15   1
M  END
>  <UniqueID>  (30) 
30

>  <SMILES>  (30) 
CCN(CC)CCOCC[NH2+]c1c2c([n+](C)c3ccccc13)-c1ccccc1C2=O

>  <Energy>  (30) 
115.97637285587612

>  <Genealogy>  (30) 
CCN(CC)CCOCC[NH2+]c1c2c([n+](C)c3ccccc13)-c1ccccc1C2=O (protonated)
CCN(CC)CCOCC[NH2+]c1c2c([n+](C)c3ccccc13)-c1ccccc1C2=O (3D coordinates assigned)
CCN(CC)CCOCC[NH2+]c1c2c([n+](C)c3ccccc13)-c1ccccc1C2=O (nonaromatic ring conformer: 115.97637285587612 kcal/mol)

>  <smiles>  (30) 
CCN(CC)CCOCCNc1c2c([n+](C)c3ccccc13)-c1ccccc1C2=O

>  <score_type>  (30) 
oracle

>  <origin>  (30) 
adg

>  <m_score__min__energy>  (30) 
-4.7800000000000002

>  <m_primary>  (30) 
energy

$$$$
30:0
     RDKit          3D

 49 51  0  0  0  0  0  0  0  0999 V2000
   60.6310   29.1670   50.0060 O   0  0  0  0  0  0  0  0  0  0  0  0
   60.7380   29.7280   48.8790 C   0  0  0  0  0  0  0  0  0  0  0  0
   59.9100   29.3160   47.8190 C   0  0  0  0  0  0  0  0  0  0  0  0
   58.9710   28.2800   47.9580 C   0  0  0  0  0  0  0  0  0  0  0  0
   58.1690   27.9090   46.8750 C   0  0  0  0  0  0  0  0  0  0  0  0
   58.2810   28.5660   45.6400 C   0  0  0  0  0  0  0  0  0  0  0  0
   57.4350   28.1550   44.5490 N   0  0  0  0  0  0  0  0  0  0  0  0
   57.1160   28.9800   43.3820 C   0  0  0  0  0  0  0  0  0  0  0  0
   55.9210   29.8940   43.6640 C   0  0  0  0  0  0  0  0  0  0  0  0
   56.2360   30.8040   44.7740 N   0  0  0  0  0  0  0  0  0  0  0  0
   57.0500   31.9560   44.3530 C   0  0  0  0  0  0  0  0  0  0  0  0
   58.0390   32.4640   45.4270 C   0  0  0  0  0  0  0  0  0  0  0  0
   57.6300   33.7850   46.0920 C   0  0  0  0  0  0  0  0  0  0  0  0
   56.7150   34.4350   45.2830 F   0  0  0  0  0  0  0  0  0  0  0  0
   57.0330   33.5500   47.3180 F   0  0  0  0  0  0  0  0  0  0  0  0
   58.7290   34.6070   46.2640 F   0  0  0  0  0  0  0  0  0  0  0  0
   59.2290   29.5990   45.5020 C   0  0  0  0  0  0  0  0  0  0  0  0
   60.0340   29.9710   46.5830 C   0  0  0  0  0  0  0  0  0  0  0  0
   60.9300   30.9760   46.4440 N   0  0  0  0  0  0  0  0  0  0  0  0
   61.7320   31.3660   47.4680 C   0  0  0  0  0  0  0  0  0  0  0  0
   61.6530   30.7360   48.6890 N   0  0  0  0  0  0  0  0  0  0  0  0
   62.5210   31.1840   49.7980 C   0  0  0  0  0  0  0  0  0  0  0  0
   62.1030   32.5670   50.3290 C   0  0  0  0  0  0  0  0  0  0  0  0
   62.6960   33.7590   49.5550 C   0  0  0  0  0  0  0  0  0  0  0  0
   62.3140   33.7950   48.0650 C   0  0  0  0  0  0  0  0  0  0  0  0
   62.6680   32.5320   47.2420 C   0  0  0  0  0  0  0  0  0  0  0  0
   58.8668   27.7596   48.9215 H   0  0  0  0  0  0  0  0  0  0  0  0
   57.4414   27.0924   46.9921 H   0  0  0  0  0  0  0  0  0  0  0  0
   56.9950   27.2070   44.5920 H   0  0  0  0  0  0  0  0  0  0  0  0
   57.9898   29.5986   43.1295 H   0  0  0  0  0  0  0  0  0  0  0  0
   56.8579   28.3156   42.5442 H   0  0  0  0  0  0  0  0  0  0  0  0
   55.6923   30.4830   42.7636 H   0  0  0  0  0  0  0  0  0  0  0  0
   55.0515   29.2781   43.9373 H   0  0  0  0  0  0  0  0  0  0  0  0
   55.3540   31.1300   45.2290 H   0  0  0  0  0  0  0  0  0  0  0  0
   57.6278   31.6628   43.4641 H   0  0  0  0  0  0  0  0  0  0  0  0
   56.3494   32.7807   44.1554 H   0  0  0  0  0  0  0  0  0  0  0  0
   58.1209   31.6957   46.2100 H   0  0  0  0  0  0  0  0  0  0  0  0
   58.9917   32.6543   44.9111 H   0  0  0  0  0  0  0  0  0  0  0  0
   59.3366   30.1164   44.5373 H   0  0  0  0  0  0  0  0  0  0  0  0
   62.4565   30.4535   50.6179 H   0  0  0  0  0  0  0  0  0  0  0  0
   63.5500   31.2611   49.4168 H   0  0  0  0  0  0  0  0  0  0  0  0
   61.0064   32.6366   50.2780 H   0  0  0  0  0  0  0  0  0  0  0  0
   62.4935   32.6372   51.3549 H   0  0  0  0  0  0  0  0  0  0  0  0
   62.3398   34.6875   50.0252 H   0  0  0  0  0  0  0  0  0  0  0  0
   63.7899   33.6522   49.5988 H   0  0  0  0  0  0  0  0  0  0  0  0
   61.2262   33.9448   48.0001 H   0  0  0  0  0  0  0  0  0  0  0  0
   62.9080   34.6104   47.6265 H   0  0  0  0  0  0  0  0  0  0  0  0
   62.6396   32.7960   46.1745 H   0  0  0  0  0  0  0  0  0  0  0  0
   63.6655   32.2070   47.5726 H   0  0  0  0  0  0  0  0  0  0  0  0
  1  2  2  0
  2  3  1  0
  3  4  2  0
  4  5  1  0
  5  6  2  0
  6  7  1  0
  7  8  1  0
  8  9  1  0
  9 10  1  0
 10 11  1  0
 11 12  1  0
 12 13  1  0
 13 14  1  0
 13 15  1  0
 13 16  1  0
  6 17  1  0
 17 18  2  0
 18 19  1  0
 19 20  2  0
 20 21  1  0
 21 22  1  0
 22 23  1  0
 23 24  1  0
 24 25  1  0
 25 26  1  0
 21  2  1  0
 18  3  1  0
 26 20  1  0
  4 27  1  0
  5 28  1  0
  7 29  1  0
  8 30  1  0
  8 31  1  0
  9 32  1  0
  9 33  1  0
 10 34  1  0
 11 35  1  0
 11 36  1  0
 12 37  1  0
 12 38  1  0
 17 39  1  0
 22 40  1  0
 22 41  1  0
 23 42  1  0
 23 43  1  0
 24 44  1  0
 24 45  1  0
 25 46  1  0
 25 47  1  0
 26 48  1  0
 26 49  1  0
M  END
>  <UniqueID>  (31) 
31

>  <SMILES>  (31) 
O=c1c2ccc(NCCNCCC(F)(F)F)cc2nc2n1CCCCC2

>  <Energy>  (31) 
59.00764389219105

>  <Genealogy>  (31) 
O=c1c2ccc(NCCNCCC(F)(F)F)cc2nc2n1CCCCC2 (3D coordinates assigned)
O=c1c2ccc(NCCNCCC(F)(F)F)cc2nc2n1CCCCC2 (nonaromatic ring conformer: 59.00764389219105 kcal/mol)

>  <smiles>  (31) 
O=c1c2ccc(NCCNCCC(F)(F)F)cc2nc2n1CCCCC2

>  <score_type>  (31) 
oracle

>  <origin>  (31) 
adg

>  <m_score__min__energy>  (31) 
-4.5499999999999998

>  <m_primary>  (31) 
energy

$$$$
31:0
     RDKit          3D

 39 39  0  0  0  0  0  0  0  0999 V2000
   58.8750   34.4250   45.6870 C   0  0  0  0  0  0  0  0  0  0  0  0
   57.4980   34.1820   45.0770 C   0  0  0  0  0  0  0  0  0  0  0  0
   57.0780   32.7120   45.2220 C   0  0  0  0  0  0  0  0  0  0  0  0
   57.6390   31.8890   44.1400 N   0  0  0  0  0  0  0  0  0  0  0  0
   58.1390   32.5220   42.9110 C   0  0  0  0  0  0  0  0  0  0  0  0
   57.3960   31.9800   41.6950 C   0  0  0  0  0  0  0  0  0  0  0  0
   57.8540   30.4800   44.3560 C   0  0  0  0  0  0  0  0  0  0  0  0
   57.0640   29.5430   43.6890 C   0  0  0  0  0  0  0  0  0  0  0  0
   57.2690   28.2170   43.8860 N   0  0  0  0  0  0  0  0  0  0  0  0
   58.2210   27.7650   44.7140 N   0  0  0  0  0  0  0  0  0  0  0  0
   58.3980   26.3190   44.8880 C   0  0  0  0  0  0  0  0  0  0  0  0
   59.0300   28.6390   45.3930 C   0  0  0  0  0  0  0  0  0  0  0  0
   59.9190   28.1910   46.1680 O   0  0  0  0  0  0  0  0  0  0  0  0
   58.8600   30.0320   45.2230 C   0  0  0  0  0  0  0  0  0  0  0  0
   59.6350   31.0030   45.8830 O   0  0  0  0  0  0  0  0  0  0  0  0
   59.9740   31.0210   47.2660 C   0  0  0  0  0  0  0  0  0  0  0  0
   58.9180   31.8000   48.0340 C   0  0  0  0  0  0  0  0  0  0  0  0
   58.7976   34.4113   46.7842 H   0  0  0  0  0  0  0  0  0  0  0  0
   59.5662   33.6350   45.3583 H   0  0  0  0  0  0  0  0  0  0  0  0
   59.2541   35.4039   45.3583 H   0  0  0  0  0  0  0  0  0  0  0  0
   56.7612   34.8179   45.5896 H   0  0  0  0  0  0  0  0  0  0  0  0
   57.5434   34.4273   44.0057 H   0  0  0  0  0  0  0  0  0  0  0  0
   57.4392   32.3293   46.1880 H   0  0  0  0  0  0  0  0  0  0  0  0
   55.9807   32.6565   45.1685 H   0  0  0  0  0  0  0  0  0  0  0  0
   57.9854   33.6094   42.9748 H   0  0  0  0  0  0  0  0  0  0  0  0
   59.2106   32.2977   42.8041 H   0  0  0  0  0  0  0  0  0  0  0  0
   56.5491   31.3622   42.0282 H   0  0  0  0  0  0  0  0  0  0  0  0
   57.0221   32.8190   41.0898 H   0  0  0  0  0  0  0  0  0  0  0  0
   58.0807   31.3678   41.0898 H   0  0  0  0  0  0  0  0  0  0  0  0
   56.2737   29.8804   43.0023 H   0  0  0  0  0  0  0  0  0  0  0  0
   56.6580   27.5470   43.3660 H   0  0  0  0  0  0  0  0  0  0  0  0
   58.4273   26.0797   45.9613 H   0  0  0  0  0  0  0  0  0  0  0  0
   57.5582   25.7875   44.4166 H   0  0  0  0  0  0  0  0  0  0  0  0
   59.3412   26.0057   44.4166 H   0  0  0  0  0  0  0  0  0  0  0  0
   60.0187   29.9899   47.6465 H   0  0  0  0  0  0  0  0  0  0  0  0
   60.9544   31.5021   47.3981 H   0  0  0  0  0  0  0  0  0  0  0  0
   59.0849   31.6769   49.1143 H   0  0  0  0  0  0  0  0  0  0  0  0
   58.9857   32.8661   47.7717 H   0  0  0  0  0  0  0  0  0  0  0  0
   57.9194   31.4206   47.7717 H   0  0  0  0  0  0  0  0  0  0  0  0
  1  2  1  0
  2  3  1  0
  3  4  1  0
  4  5  1  0
  5  6  1  0
  4  7  1  0
  7  8  1  0
  8  9  2  0
  9 10  1  0
 10 11  1  0
 10 12  1  0
 12 13  2  0
 12 14  1  0
 14 15  1  0
 15 16  1  0
 16 17  1  0
 14  7  2  0
  1 18  1  0
  1 19  1  0
  1 20  1  0
  2 21  1  0
  2 22  1  0
  3 23  1  0
  3 24  1  0
  5 25  1  0
  5 26  1  0
  6 27  1  0
  6 28  1  0
  6 29  1  0
  8 30  1  0
  9 31  1  0
 11 32  1  0
 11 33  1  0
 11 34  1  0
 16 35  1  0
 16 36  1  0
 17 37  1  0
 17 38  1  0
 17 39  1  0
M  CHG  1   9   1
M  END
>  <UniqueID>  (32) 
32

>  <SMILES>  (32) 
CCCN(CC)c1c[nH+]n(C)c(=O)c1OCC

>  <Energy>  (32) 
32.42777443219598

>  <Genealogy>  (32) 
CCCN(CC)c1c[nH+]n(C)c(=O)c1OCC (protonated)
CCCN(CC)c1c[nH+]n(C)c(=O)c1OCC (3D coordinates assigned)
CCCN(CC)c1c[nH+]n(C)c(=O)c1OCC (optimized conformer: 32.42777443219598 kcal/mol)

>  <smiles>  (32) 
CCCN(CC)c1cnn(C)c(=O)c1OCC

>  <score_type>  (32) 
oracle

>  <origin>  (32) 
adg

>  <m_score__min__energy>  (32) 
-3.79

>  <m_primary>  (32) 
energy

$$$$
32:0
     RDKit          3D

 44 47  0  0  0  0  0  0  0  0999 V2000
   58.1110   31.9350   43.5980 C   0  0  0  0  0  0  0  0  0  0  0  0
   57.5640   31.1280   44.8200 C   0  0  1  0  0  0  0  0  0  0  0  0
   56.2370   30.6980   44.5940 O   0  0  0  0  0  0  0  0  0  0  0  0
   56.1980   29.7550   43.5100 C   0  0  0  0  0  0  0  0  0  0  0  0
   57.3910   28.7170   43.4510 C   0  0  0  0  0  0  0  0  0  0  0  0
   58.6520   29.2070   43.9210 O   0  0  0  0  0  0  0  0  0  0  0  0
   58.3840   29.8800   45.1200 C   0  0  1  0  0  0  0  0  0  0  0  0
   59.5050   30.3850   45.9610 C   0  0  0  0  0  0  0  0  0  0  0  0
   60.6050   29.8680   46.0550 O   0  0  0  0  0  0  0  0  0  0  0  0
   58.8750   31.3230   46.9490 C   0  0  2  0  0  0  0  0  0  0  0  0
   57.7690   31.9450   46.0970 C   0  0  0  0  0  0  0  0  0  0  0  0
   57.3870   33.2450   46.2060 C   0  0  0  0  0  0  0  0  0  0  0  0
   58.1910   34.2510   47.0240 C   0  0  0  0  0  0  0  0  0  0  0  0
   59.6650   33.7760   47.1230 C   0  0  1  0  0  0  0  0  0  0  0  0
   60.3120   33.7840   45.6870 C   0  0  0  0  0  0  0  0  0  0  0  0
   60.5920   34.5930   48.0370 C   0  0  0  0  0  0  0  0  0  0  0  0
   61.6930   33.5830   48.4440 C   0  0  0  0  0  0  0  0  0  0  0  0
   61.1900   32.1720   48.0480 C   0  0  0  0  0  0  0  0  0  0  0  0
   59.6870   32.3710   47.7980 C   0  0  2  0  0  0  0  0  0  0  0  0
   59.0070   32.3640   49.2200 C   0  0  0  0  0  0  0  0  0  0  0  0
   58.6942   32.7954   43.9582 H   0  0  0  0  0  0  0  0  0  0  0  0
   58.7553   31.2848   42.9880 H   0  0  0  0  0  0  0  0  0  0  0  0
   57.2684   32.2927   42.9880 H   0  0  0  0  0  0  0  0  0  0  0  0
   56.2000   30.3240   42.5686 H   0  0  0  0  0  0  0  0  0  0  0  0
   55.2902   29.1550   43.6711 H   0  0  0  0  0  0  0  0  0  0  0  0
   57.5170   28.4032   42.4043 H   0  0  0  0  0  0  0  0  0  0  0  0
   57.1129   27.8950   44.1269 H   0  0  0  0  0  0  0  0  0  0  0  0
   57.9037   29.0770   45.6984 H   0  0  0  0  0  0  0  0  0  0  0  0
   58.5970   30.7356   47.8365 H   0  0  0  0  0  0  0  0  0  0  0  0
   56.4746   33.5803   45.6911 H   0  0  0  0  0  0  0  0  0  0  0  0
   57.7621   34.3288   48.0339 H   0  0  0  0  0  0  0  0  0  0  0  0
   58.1548   35.2350   46.5338 H   0  0  0  0  0  0  0  0  0  0  0  0
   61.4081   33.7976   45.7788 H   0  0  0  0  0  0  0  0  0  0  0  0
   60.0010   32.8819   45.1397 H   0  0  0  0  0  0  0  0  0  0  0  0
   59.9788   34.6781   45.1397 H   0  0  0  0  0  0  0  0  0  0  0  0
   60.0486   34.9577   48.9211 H   0  0  0  0  0  0  0  0  0  0  0  0
   60.9974   35.4876   47.5416 H   0  0  0  0  0  0  0  0  0  0  0  0
   61.8655   33.6307   49.5293 H   0  0  0  0  0  0  0  0  0  0  0  0
   62.6419   33.8152   47.9384 H   0  0  0  0  0  0  0  0  0  0  0  0
   61.3591   31.4533   48.8634 H   0  0  0  0  0  0  0  0  0  0  0  0
   61.7153   31.7654   47.1712 H   0  0  0  0  0  0  0  0  0  0  0  0
   59.7844   32.3720   49.9982 H   0  0  0  0  0  0  0  0  0  0  0  0
   58.3718   33.2557   49.3271 H   0  0  0  0  0  0  0  0  0  0  0  0
   58.3903   31.4595   49.3271 H   0  0  0  0  0  0  0  0  0  0  0  0
  2  1  1  6
  2  3  1  0
  3  4  1  0
  4  5  1  0
  5  6  1  0
  6  7  1  0
  7  8  1  0
  8  9  2  0
  8 10  1  0
 10 11  1  0
 11 12  2  0
 12 13  1  0
 13 14  1  0
 14 15  1  6
 14 16  1  0
 16 17  1  0
 17 18  1  0
 18 19  1  0
 19 20  1  1
  7  2  1  0
 19 10  1  0
 11  2  1  0
 19 14  1  0
  1 21  1  0
  1 22  1  0
  1 23  1  0
  4 24  1  0
  4 25  1  0
  5 26  1  0
  5 27  1  0
  7 28  1  1
 10 29  1  1
 12 30  1  0
 13 31  1  0
 13 32  1  0
 15 33  1  0
 15 34  1  0
 15 35  1  0
 16 36  1  0
 16 37  1  0
 17 38  1  0
 17 39  1  0
 18 40  1  0
 18 41  1  0
 20 42  1  0
 20 43  1  0
 20 44  1  0
M  END
>  <UniqueID>  (33) 
33

>  <SMILES>  (33) 
CC12CC=C3C(C(=O)[C@@H]4OCCO[C@@]34C)C1(C)CCC2

>  <Energy>  (33) 
128.08707762976928

>  <Genealogy>  (33) 
CC12CC=C3C(C(=O)[C@@H]4OCCO[C@@]34C)C1(C)CCC2 (chirality)
CC12CC=C3C(C(=O)[C@@H]4OCCO[C@@]34C)C1(C)CCC2 (3D coordinates assigned)
CC12CC=C3C(C(=O)[C@@H]4OCCO[C@@]34C)C1(C)CCC2 (nonaromatic ring conformer: 128.08707762976928 kcal/mol)

>  <smiles>  (33) 
CC12OCCOC1C(=O)C1C2=CCC2(C)CCCC12C

>  <score_type>  (33) 
oracle

>  <origin>  (33) 
adg

>  <m_score__min__energy>  (33) 
-8.2100000000000009

>  <m_primary>  (33) 
energy

$$$$
33:0
     RDKit          3D

 53 56  0  0  0  0  0  0  0  0999 V2000
   63.1830   33.8060   46.3750 C   0  0  0  0  0  0  0  0  0  0  0  0
   63.6120   32.6810   47.3270 C   0  0  0  0  0  0  0  0  0  0  0  0
   63.9050   33.1150   48.7190 N   0  0  2  0  0  0  0  0  0  0  0  0
   63.8840   31.9730   49.6540 C   0  0  0  0  0  0  0  0  0  0  0  0
   63.0290   34.2010   49.2290 C   0  0  0  0  0  0  0  0  0  0  0  0
   62.3870   33.8900   50.5940 C   0  0  0  0  0  0  0  0  0  0  0  0
   60.9700   33.5550   50.4480 N   0  0  0  0  0  0  0  0  0  0  0  0
   60.5400   32.5240   49.5400 C   0  0  0  0  0  0  0  0  0  0  0  0
   60.5830   31.1750   49.9280 C   0  0  0  0  0  0  0  0  0  0  0  0
   60.8980   30.8020   51.2520 C   0  0  0  0  0  0  0  0  0  0  0  0
   61.0130   29.4610   51.6050 C   0  0  0  0  0  0  0  0  0  0  0  0
   60.8120   28.4690   50.6510 C   0  0  0  0  0  0  0  0  0  0  0  0
   60.4900   28.8130   49.3380 C   0  0  0  0  0  0  0  0  0  0  0  0
   60.3700   30.1690   48.9500 C   0  0  0  0  0  0  0  0  0  0  0  0
   60.0810   30.5200   47.6480 N   0  0  0  0  0  0  0  0  0  0  0  0
   60.4120   29.5610   46.5710 C   0  0  0  0  0  0  0  0  0  0  0  0
   59.7100   31.8200   47.3500 C   0  0  0  0  0  0  0  0  0  0  0  0
   60.0690   32.8570   48.2540 C   0  0  0  0  0  0  0  0  0  0  0  0
   59.9420   34.2030   47.8600 C   0  0  0  0  0  0  0  0  0  0  0  0
   59.4580   34.5350   46.6020 C   0  0  0  0  0  0  0  0  0  0  0  0
   58.9600   33.5440   45.7560 C   0  0  0  0  0  0  0  0  0  0  0  0
   58.3570   33.9090   44.5410 C   0  0  0  0  0  0  0  0  0  0  0  0
   57.7190   32.9490   43.7580 C   0  0  0  0  0  0  0  0  0  0  0  0
   57.6360   31.6290   44.2030 C   0  0  0  0  0  0  0  0  0  0  0  0
   56.6630   30.3430   43.1810 Br  0  0  0  0  0  0  0  0  0  0  0  0
   58.2510   31.2530   45.4000 C   0  0  0  0  0  0  0  0  0  0  0  0
   59.0060   32.1800   46.1540 C   0  0  0  0  0  0  0  0  0  0  0  0
   62.8513   34.6758   46.9611 H   0  0  0  0  0  0  0  0  0  0  0  0
   64.0343   34.0943   45.7408 H   0  0  0  0  0  0  0  0  0  0  0  0
   62.3559   33.4542   45.7408 H   0  0  0  0  0  0  0  0  0  0  0  0
   62.8019   31.9378   47.3644 H   0  0  0  0  0  0  0  0  0  0  0  0
   64.5538   32.2795   46.9248 H   0  0  0  0  0  0  0  0  0  0  0  0
   64.8900   33.4660   48.7150 H   0  0  0  0  0  0  0  0  0  0  0  0
   63.8909   32.3461   50.6888 H   0  0  0  0  0  0  0  0  0  0  0  0
   62.9748   31.3774   49.4850 H   0  0  0  0  0  0  0  0  0  0  0  0
   64.7707   31.3444   49.4850 H   0  0  0  0  0  0  0  0  0  0  0  0
   63.6323   35.1153   49.3294 H   0  0  0  0  0  0  0  0  0  0  0  0
   62.2075   34.3169   48.5067 H   0  0  0  0  0  0  0  0  0  0  0  0
   62.9118   33.0384   51.0517 H   0  0  0  0  0  0  0  0  0  0  0  0
   62.4700   34.7838   51.2298 H   0  0  0  0  0  0  0  0  0  0  0  0
   60.2890   33.9370   51.1490 H   0  0  0  0  0  0  0  0  0  0  0  0
   61.0544   31.5801   52.0136 H   0  0  0  0  0  0  0  0  0  0  0  0
   61.2632   29.1850   52.6400 H   0  0  0  0  0  0  0  0  0  0  0  0
   60.9072   27.4100   50.9327 H   0  0  0  0  0  0  0  0  0  0  0  0
   60.3271   28.0195   48.5938 H   0  0  0  0  0  0  0  0  0  0  0  0
   60.7403   28.6097   47.0152 H   0  0  0  0  0  0  0  0  0  0  0  0
   59.5219   29.3871   45.9485 H   0  0  0  0  0  0  0  0  0  0  0  0
   61.2199   29.9732   45.9485 H   0  0  0  0  0  0  0  0  0  0  0  0
   60.2303   35.0023   48.5586 H   0  0  0  0  0  0  0  0  0  0  0  0
   59.4672   35.5839   46.2709 H   0  0  0  0  0  0  0  0  0  0  0  0
   58.3885   34.9564   44.2064 H   0  0  0  0  0  0  0  0  0  0  0  0
   57.2809   33.2316   42.7894 H   0  0  0  0  0  0  0  0  0  0  0  0
   58.1459   30.2193   45.7612 H   0  0  0  0  0  0  0  0  0  0  0  0
  1  2  1  0
  2  3  1  0
  3  4  1  0
  3  5  1  0
  5  6  1  0
  6  7  1  0
  7  8  1  0
  8  9  2  0
  9 10  1  0
 10 11  2  0
 11 12  1  0
 12 13  2  0
 13 14  1  0
 14 15  2  0
 15 16  1  0
 15 17  1  0
 17 18  2  0
 18 19  1  0
 19 20  2  0
 20 21  1  0
 21 22  2  0
 22 23  1  0
 23 24  2  0
 24 25  1  0
 24 26  1  0
 26 27  2  0
 18  8  1  0
 27 21  1  0
 14  9  1  0
 27 17  1  0
  1 28  1  0
  1 29  1  0
  1 30  1  0
  2 31  1  0
  2 32  1  0
  3 33  1  6
  4 34  1  0
  4 35  1  0
  4 36  1  0
  5 37  1  0
  5 38  1  0
  6 39  1  0
  6 40  1  0
  7 41  1  0
 10 42  1  0
 11 43  1  0
 12 44  1  0
 13 45  1  0
 16 46  1  0
 16 47  1  0
 16 48  1  0
 19 49  1  0
 20 50  1  0
 22 51  1  0
 23 52  1  0
 26 53  1  0
M  CHG  2   3   1  15   1
M  END
>  <UniqueID>  (34) 
34

>  <SMILES>  (34) 
CC[N@H+](C)CCNc1c2ccccc2[n+](C)c2c1ccc1ccc(Br)cc12

>  <Energy>  (34) 
100.37455803112412

>  <Genealogy>  (34) 
CC[NH+](C)CCNc1c2ccccc2[n+](C)c2c1ccc1ccc(Br)cc12 (protonated)
CC[N@H+](C)CCNc1c2ccccc2[n+](C)c2c1ccc1ccc(Br)cc12 (chirality)
CC[N@H+](C)CCNc1c2ccccc2[n+](C)c2c1ccc1ccc(Br)cc12 (3D coordinates assigned)
CC[N@H+](C)CCNc1c2ccccc2[n+](C)c2c1ccc1ccc(Br)cc12 (optimized conformer: 100.37455803112412 kcal/mol)

>  <smiles>  (34) 
CCN(C)CCNc1c2ccccc2[n+](C)c2c1ccc1ccc(Br)cc12

>  <score_type>  (34) 
oracle

>  <origin>  (34) 
adg

>  <m_score__min__energy>  (34) 
-5.5899999999999999

>  <m_primary>  (34) 
energy

$$$$
34:0
     RDKit          3D

 63 68  0  0  0  0  0  0  0  0999 V2000
   63.3300   33.8350   46.2800 C   0  0  0  0  0  0  0  0  0  0  0  0
   63.7540   32.8170   47.1780 O   0  0  0  0  0  0  0  0  0  0  0  0
   63.6190   32.9300   48.5640 C   0  0  0  0  0  0  0  0  0  0  0  0
   64.7420   32.7520   49.3810 C   0  0  0  0  0  0  0  0  0  0  0  0
   64.6060   32.8490   50.7660 C   0  0  0  0  0  0  0  0  0  0  0  0
   63.3530   33.1180   51.3230 C   0  0  0  0  0  0  0  0  0  0  0  0
   63.2070   33.2080   52.6700 N   0  0  0  0  0  0  0  0  0  0  0  0
   62.0020   33.4710   53.2370 C   0  0  0  0  0  0  0  0  0  0  0  0
   60.8690   33.6590   52.4380 C   0  0  0  0  0  0  0  0  0  0  0  0
   59.6880   33.9570   53.0390 F   0  0  0  0  0  0  0  0  0  0  0  0
   60.9710   33.5510   51.0370 C   0  0  0  0  0  0  0  0  0  0  0  0
   59.7440   33.7630   50.1680 C   0  0  0  0  0  0  0  0  0  0  0  0
   60.0140   34.3590   48.7660 C   0  0  0  0  0  0  0  0  0  0  0  0
   59.4350   33.6270   47.5230 C   0  0  1  0  0  0  0  0  0  0  0  0
   60.0700   32.2180   47.3230 C   0  0  0  0  0  0  0  0  0  0  0  0
   59.5810   31.5980   45.9950 C   0  0  0  0  0  0  0  0  0  0  0  0
   58.5510   32.5430   45.3200 C   0  0  1  0  0  0  0  0  0  0  0  0
   57.9980   32.0080   44.0520 N   0  0  0  0  0  0  0  0  0  0  0  0
   56.8120   31.1390   44.1770 C   0  0  0  0  0  0  0  0  0  0  0  0
   57.2080   29.7270   44.5130 C   0  0  0  0  0  0  0  0  0  0  0  0
   58.4950   29.2610   44.1970 C   0  0  0  0  0  0  0  0  0  0  0  0
   58.8420   27.9420   44.4990 C   0  0  0  0  0  0  0  0  0  0  0  0
   57.9080   27.1030   45.1070 C   0  0  0  0  0  0  0  0  0  0  0  0
   56.6260   27.5930   45.3830 C   0  0  0  0  0  0  0  0  0  0  0  0
   56.3030   28.8770   45.0740 N   0  0  0  0  0  0  0  0  0  0  0  0
   55.6480   26.7180   45.9430 N   0  0  0  0  0  0  0  0  0  0  0  0
   56.0170   25.3920   46.3340 C   0  0  0  0  0  0  0  0  0  0  0  0
   55.1370   24.5910   46.7430 O   0  0  0  0  0  0  0  0  0  0  0  0
   57.4650   24.9890   46.3360 C   0  0  0  0  0  0  0  0  0  0  0  0
   58.2330   25.7780   45.4210 O   0  0  0  0  0  0  0  0  0  0  0  0
   57.3840   32.7650   46.3160 C   0  0  0  0  0  0  0  0  0  0  0  0
   57.8930   33.4650   47.5960 C   0  0  0  0  0  0  0  0  0  0  0  0
   59.2430   33.9230   45.1540 C   0  0  0  0  0  0  0  0  0  0  0  0
   59.7580   34.4350   46.3870 O   0  0  0  0  0  0  0  0  0  0  0  0
   62.2390   33.2930   50.4730 C   0  0  0  0  0  0  0  0  0  0  0  0
   62.4080   33.2020   49.1250 N   0  0  0  0  0  0  0  0  0  0  0  0
   62.9689   34.7020   46.8527 H   0  0  0  0  0  0  0  0  0  0  0  0
   64.1757   34.1405   45.6464 H   0  0  0  0  0  0  0  0  0  0  0  0
   62.5175   33.4499   45.6464 H   0  0  0  0  0  0  0  0  0  0  0  0
   65.7240   32.5373   48.9342 H   0  0  0  0  0  0  0  0  0  0  0  0
   65.4821   32.7142   51.4174 H   0  0  0  0  0  0  0  0  0  0  0  0
   61.9158   33.5367   54.3316 H   0  0  0  0  0  0  0  0  0  0  0  0
   59.2524   32.7883   50.0327 H   0  0  0  0  0  0  0  0  0  0  0  0
   59.1249   34.5032   50.6961 H   0  0  0  0  0  0  0  0  0  0  0  0
   59.6026   35.3792   48.7625 H   0  0  0  0  0  0  0  0  0  0  0  0
   61.1039   34.2746   48.6437 H   0  0  0  0  0  0  0  0  0  0  0  0
   59.7773   31.5653   48.1586 H   0  0  0  0  0  0  0  0  0  0  0  0
   61.1650   32.3181   47.2915 H   0  0  0  0  0  0  0  0  0  0  0  0
   59.1065   30.6267   46.1986 H   0  0  0  0  0  0  0  0  0  0  0  0
   60.4399   31.4578   45.3222 H   0  0  0  0  0  0  0  0  0  0  0  0
   58.7480   31.4620   43.5650 H   0  0  0  0  0  0  0  0  0  0  0  0
   56.1630   31.5295   44.9746 H   0  0  0  0  0  0  0  0  0  0  0  0
   56.2803   31.1330   43.2141 H   0  0  0  0  0  0  0  0  0  0  0  0
   59.2238   29.9295   43.7155 H   0  0  0  0  0  0  0  0  0  0  0  0
   59.8475   27.5665   44.2584 H   0  0  0  0  0  0  0  0  0  0  0  0
   57.8710   25.1216   47.3497 H   0  0  0  0  0  0  0  0  0  0  0  0
   57.5297   23.9369   46.0214 H   0  0  0  0  0  0  0  0  0  0  0  0
   56.9469   31.7920   46.5846 H   0  0  0  0  0  0  0  0  0  0  0  0
   56.6247   33.4022   45.8391 H   0  0  0  0  0  0  0  0  0  0  0  0
   57.6299   32.8577   48.4746 H   0  0  0  0  0  0  0  0  0  0  0  0
   57.4251   34.4570   47.6805 H   0  0  0  0  0  0  0  0  0  0  0  0
   60.0751   33.8160   44.4426 H   0  0  0  0  0  0  0  0  0  0  0  0
   58.4853   34.6328   44.7904 H   0  0  0  0  0  0  0  0  0  0  0  0
  1  2  1  0
  2  3  1  0
  3  4  2  0
  4  5  1  0
  5  6  2  0
  6  7  1  0
  7  8  2  0
  8  9  1  0
  9 10  1  0
  9 11  2  0
 11 12  1  0
 12 13  1  0
 14 13  1  1
 14 15  1  0
 15 16  1  0
 16 17  1  0
 17 18  1  6
 18 19  1  0
 19 20  1  0
 20 21  2  0
 21 22  1  0
 22 23  2  0
 23 24  1  0
 24 25  2  0
 24 26  1  0
 26 27  1  0
 27 28  2  0
 27 29  1  0
 29 30  1  0
 17 31  1  0
 31 32  1  0
 17 33  1  0
 33 34  1  0
 11 35  1  0
 35 36  2  0
 36  3  1  0
 35  6  1  0
 32 14  1  0
 34 14  1  0
 25 20  1  0
 30 23  1  0
  1 37  1  0
  1 38  1  0
  1 39  1  0
  4 40  1  0
  5 41  1  0
  8 42  1  0
 12 43  1  0
 12 44  1  0
 13 45  1  0
 13 46  1  0
 15 47  1  0
 15 48  1  0
 16 49  1  0
 16 50  1  0
 18 51  1  0
 19 52  1  0
 19 53  1  0
 21 54  1  0
 22 55  1  0
 29 56  1  0
 29 57  1  0
 31 58  1  0
 31 59  1  0
 32 60  1  0
 32 61  1  0
 33 62  1  0
 33 63  1  0
M  CHG  1  26  -1
M  END
>  <UniqueID>  (35) 
35

>  <SMILES>  (35) 
COc1ccc2ncc(F)c(CCC34CCC(NCc5ccc6c(n5)[N-]C(=O)CO6)(CC3)CO4)c2n1

>  <Energy>  (35) 
95.99365651094622

>  <Genealogy>  (35) 
COc1ccc2ncc(F)c(CCC34CCC(NCc5ccc6c(n5)[N-]C(=O)CO6)(CC3)CO4)c2n1 (protonated)
COc1ccc2ncc(F)c(CCC34CCC(NCc5ccc6c(n5)[N-]C(=O)CO6)(CC3)CO4)c2n1 (3D coordinates assigned)
COc1ccc2ncc(F)c(CCC34CCC(NCc5ccc6c(n5)[N-]C(=O)CO6)(CC3)CO4)c2n1 (nonaromatic ring conformer: 95.99365651094622 kcal/mol)

>  <smiles>  (35) 
COc1ccc2ncc(F)c(CCC34CCC(NCc5ccc6c(n5)NC(=O)CO6)(CC3)CO4)c2n1

>  <score_type>  (35) 
oracle

>  <origin>  (35) 
adg

>  <m_score__min__energy>  (35) 
-11.98

>  <m_primary>  (35) 
energy

$$$$
35:0
     RDKit          3D

 44 46  0  0  0  0  0  0  0  0999 V2000
   58.1460   27.7670   43.8200 C   0  0  0  0  0  0  0  0  0  0  0  0
   59.1920   28.5090   44.6450 C   0  0  0  0  0  0  0  0  0  0  0  0
   58.5970   29.0730   45.7980 O   0  0  0  0  0  0  0  0  0  0  0  0
   59.3660   28.7840   46.9450 C   0  0  0  0  0  0  0  0  0  0  0  0
   60.0140   30.0400   47.4190 C   0  0  0  0  0  0  0  0  0  0  0  0
   60.1370   31.1460   46.6550 N   0  0  0  0  0  0  0  0  0  0  0  0
   60.8290   32.1280   47.2960 C   0  0  0  0  0  0  0  0  0  0  0  0
   61.1200   33.4440   46.6390 C   0  0  0  0  0  0  0  0  0  0  0  0
   60.0200   34.4140   46.8480 N   0  0  0  0  0  0  0  0  0  0  0  0
   59.5190   35.0310   45.6010 C   0  0  0  0  0  0  0  0  0  0  0  0
   58.9100   33.9850   44.6600 C   0  0  0  0  0  0  0  0  0  0  0  0
   58.1540   32.9720   45.4100 N   0  0  0  0  0  0  0  0  0  0  0  0
   57.5990   31.8350   44.7150 C   0  0  0  0  0  0  0  0  0  0  0  0
   56.6440   31.1870   45.2240 O   0  0  0  0  0  0  0  0  0  0  0  0
   58.1080   31.4280   43.3580 C   0  0  0  0  0  0  0  0  0  0  0  0
   57.0200   30.9900   42.3880 C   0  0  0  0  0  0  0  0  0  0  0  0
   57.6930   32.3390   42.2090 C   0  0  0  0  0  0  0  0  0  0  0  0
   57.7520   33.2520   46.7960 C   0  0  0  0  0  0  0  0  0  0  0  0
   58.9160   33.8230   47.6420 C   0  0  0  0  0  0  0  0  0  0  0  0
   61.2880   31.7950   48.5680 C   0  0  0  0  0  0  0  0  0  0  0  0
   60.7960   30.2220   48.8950 S   0  0  0  0  0  0  0  0  0  0  0  0
   57.4369   27.2640   44.4938 H   0  0  0  0  0  0  0  0  0  0  0  0
   57.6037   28.4835   43.1855 H   0  0  0  0  0  0  0  0  0  0  0  0
   58.6430   27.0183   43.1855 H   0  0  0  0  0  0  0  0  0  0  0  0
   59.9798   27.8048   44.9506 H   0  0  0  0  0  0  0  0  0  0  0  0
   59.6242   29.3152   44.0341 H   0  0  0  0  0  0  0  0  0  0  0  0
   58.7144   28.3833   47.7355 H   0  0  0  0  0  0  0  0  0  0  0  0
   60.1350   28.0365   46.7003 H   0  0  0  0  0  0  0  0  0  0  0  0
   62.0463   33.8579   47.0641 H   0  0  0  0  0  0  0  0  0  0  0  0
   61.2259   33.2723   45.5577 H   0  0  0  0  0  0  0  0  0  0  0  0
   58.7491   35.7745   45.8547 H   0  0  0  0  0  0  0  0  0  0  0  0
   60.3676   35.5050   45.0861 H   0  0  0  0  0  0  0  0  0  0  0  0
   58.2330   34.4883   43.9540 H   0  0  0  0  0  0  0  0  0  0  0  0
   59.7273   33.4824   44.1220 H   0  0  0  0  0  0  0  0  0  0  0  0
   59.0624   31.0100   43.7108 H   0  0  0  0  0  0  0  0  0  0  0  0
   57.2164   30.1785   41.6718 H   0  0  0  0  0  0  0  0  0  0  0  0
   55.9794   30.6485   42.4905 H   0  0  0  0  0  0  0  0  0  0  0  0
   58.3772   32.5043   41.3637 H   0  0  0  0  0  0  0  0  0  0  0  0
   57.3421   33.3784   42.1286 H   0  0  0  0  0  0  0  0  0  0  0  0
   56.9307   33.9837   46.7851 H   0  0  0  0  0  0  0  0  0  0  0  0
   57.4382   32.3022   47.2535 H   0  0  0  0  0  0  0  0  0  0  0  0
   58.5105   34.6044   48.3016 H   0  0  0  0  0  0  0  0  0  0  0  0
   59.3468   32.9751   48.1947 H   0  0  0  0  0  0  0  0  0  0  0  0
   61.8687   32.4454   49.2386 H   0  0  0  0  0  0  0  0  0  0  0  0
  1  2  1  0
  2  3  1  0
  3  4  1  0
  4  5  1  0
  5  6  2  0
  6  7  1  0
  7  8  1  0
  8  9  1  0
  9 10  1  0
 10 11  1  0
 11 12  1  0
 12 13  1  0
 13 14  2  0
 13 15  1  0
 15 16  1  0
 16 17  1  0
 12 18  1  0
 18 19  1  0
  7 20  2  0
 20 21  1  0
 21  5  1  0
 19  9  1  0
 17 15  1  0
  1 22  1  0
  1 23  1  0
  1 24  1  0
  2 25  1  0
  2 26  1  0
  4 27  1  0
  4 28  1  0
  8 29  1  0
  8 30  1  0
 10 31  1  0
 10 32  1  0
 11 33  1  0
 11 34  1  0
 15 35  1  0
 16 36  1  0
 16 37  1  0
 17 38  1  0
 17 39  1  0
 18 40  1  0
 18 41  1  0
 19 42  1  0
 19 43  1  0
 20 44  1  0
M  END
>  <UniqueID>  (36) 
36

>  <SMILES>  (36) 
CCOCc1nc(CN2CCN(C(=O)C3CC3)CC2)cs1

>  <Energy>  (36) 
341.72606057847815

>  <Genealogy>  (36) 
CCOCc1nc(CN2CCN(C(=O)C3CC3)CC2)cs1 (3D coordinates assigned)
CCOCc1nc(CN2CCN(C(=O)C3CC3)CC2)cs1 (nonaromatic ring conformer: 341.72606057847815 kcal/mol)

>  <smiles>  (36) 
CCOCc1nc(CN2CCN(C(=O)C3CC3)CC2)cs1

>  <score_type>  (36) 
oracle

>  <origin>  (36) 
adg

>  <m_score__min__energy>  (36) 
-6.8300000000000001

>  <m_primary>  (36) 
energy

$$$$
36:0
     RDKit          3D

 48 50  0  0  0  0  0  0  0  0999 V2000
   57.0600   34.2230   44.8740 C   0  0  0  0  0  0  0  0  0  0  0  0
   57.1680   33.6330   46.1660 O   0  0  0  0  0  0  0  0  0  0  0  0
   58.1380   32.6910   46.5420 C   0  0  0  0  0  0  0  0  0  0  0  0
   59.1580   33.0290   47.4530 C   0  0  0  0  0  0  0  0  0  0  0  0
   60.1180   32.0910   47.8370 C   0  0  0  0  0  0  0  0  0  0  0  0
   61.1640   32.4570   48.7560 N   0  0  0  0  0  0  0  0  0  0  0  0
   61.0350   32.8000   50.0640 C   0  0  0  0  0  0  0  0  0  0  0  0
   59.7770   32.7420   50.8420 C   0  0  0  0  0  0  0  0  0  0  0  0
   58.9660   31.5980   50.7760 C   0  0  0  0  0  0  0  0  0  0  0  0
   57.7790   31.5300   51.5140 C   0  0  0  0  0  0  0  0  0  0  0  0
   57.3900   32.6070   52.3140 C   0  0  0  0  0  0  0  0  0  0  0  0
   58.1830   33.7560   52.3740 C   0  0  0  0  0  0  0  0  0  0  0  0
   59.3690   33.8270   51.6370 C   0  0  0  0  0  0  0  0  0  0  0  0
   62.2100   33.1890   50.6000 N   0  0  0  0  0  0  0  0  0  0  0  0
   63.1150   33.0760   49.6110 C   0  0  0  0  0  0  0  0  0  0  0  0
   64.5590   33.4380   49.7480 C   0  0  0  0  0  0  0  0  0  0  0  0
   62.4710   32.6490   48.4630 C   0  0  0  0  0  0  0  0  0  0  0  0
   63.1020   32.4310   47.1190 C   0  0  0  0  0  0  0  0  0  0  0  0
   60.0690   30.7980   47.3100 C   0  0  0  0  0  0  0  0  0  0  0  0
   59.0710   30.4380   46.3890 C   0  0  0  0  0  0  0  0  0  0  0  0
   59.0100   29.1510   45.8300 O   0  0  0  0  0  0  0  0  0  0  0  0
   59.9480   28.6320   44.8910 C   0  0  0  0  0  0  0  0  0  0  0  0
   58.1000   31.3780   46.0020 C   0  0  0  0  0  0  0  0  0  0  0  0
   57.1310   30.9410   45.0780 O   0  0  0  0  0  0  0  0  0  0  0  0
   57.3030   30.7980   43.6720 C   0  0  0  0  0  0  0  0  0  0  0  0
   56.8628   35.3002   44.9781 H   0  0  0  0  0  0  0  0  0  0  0  0
   58.0004   34.0739   44.3231 H   0  0  0  0  0  0  0  0  0  0  0  0
   56.2334   33.7505   44.3231 H   0  0  0  0  0  0  0  0  0  0  0  0
   59.1986   34.0470   47.8679 H   0  0  0  0  0  0  0  0  0  0  0  0
   59.2650   30.7510   50.1411 H   0  0  0  0  0  0  0  0  0  0  0  0
   57.1518   30.6277   51.4641 H   0  0  0  0  0  0  0  0  0  0  0  0
   56.4589   32.5506   52.8971 H   0  0  0  0  0  0  0  0  0  0  0  0
   57.8740   34.6051   53.0014 H   0  0  0  0  0  0  0  0  0  0  0  0
   59.9860   34.7367   51.6795 H   0  0  0  0  0  0  0  0  0  0  0  0
   62.3880   33.4960   51.5830 H   0  0  0  0  0  0  0  0  0  0  0  0
   64.8210   33.5037   50.8143 H   0  0  0  0  0  0  0  0  0  0  0  0
   65.1777   32.6672   49.2652 H   0  0  0  0  0  0  0  0  0  0  0  0
   64.7409   34.4095   49.2652 H   0  0  0  0  0  0  0  0  0  0  0  0
   64.1341   32.0744   47.2520 H   0  0  0  0  0  0  0  0  0  0  0  0
   62.5239   31.6805   46.5599 H   0  0  0  0  0  0  0  0  0  0  0  0
   63.1105   33.3783   46.5599 H   0  0  0  0  0  0  0  0  0  0  0  0
   60.8188   30.0549   47.6191 H   0  0  0  0  0  0  0  0  0  0  0  0
   60.7873   28.1676   45.4295 H   0  0  0  0  0  0  0  0  0  0  0  0
   59.4556   27.8780   44.2593 H   0  0  0  0  0  0  0  0  0  0  0  0
   60.3252   29.4498   44.2593 H   0  0  0  0  0  0  0  0  0  0  0  0
   58.1349   30.1064   43.4728 H   0  0  0  0  0  0  0  0  0  0  0  0
   56.3793   30.3979   43.2284 H   0  0  0  0  0  0  0  0  0  0  0  0
   57.5277   31.7792   43.2284 H   0  0  0  0  0  0  0  0  0  0  0  0
  1  2  1  0
  2  3  1  0
  3  4  2  0
  4  5  1  0
  5  6  1  0
  6  7  1  0
  7  8  1  0
  8  9  2  0
  9 10  1  0
 10 11  2  0
 11 12  1  0
 12 13  2  0
  7 14  2  0
 14 15  1  0
 15 16  1  0
 15 17  2  0
 17 18  1  0
  5 19  2  0
 19 20  1  0
 20 21  1  0
 21 22  1  0
 20 23  2  0
 23 24  1  0
 24 25  1  0
 23  3  1  0
 17  6  1  0
 13  8  1  0
  1 26  1  0
  1 27  1  0
  1 28  1  0
  4 29  1  0
  9 30  1  0
 10 31  1  0
 11 32  1  0
 12 33  1  0
 13 34  1  0
 14 35  1  0
 16 36  1  0
 16 37  1  0
 16 38  1  0
 18 39  1  0
 18 40  1  0
 18 41  1  0
 19 42  1  0
 22 43  1  0
 22 44  1  0
 22 45  1  0
 25 46  1  0
 25 47  1  0
 25 48  1  0
M  CHG  1  14   1
M  END
>  <UniqueID>  (37) 
37

>  <SMILES>  (37) 
COc1cc(-n2c(-c3ccccc3)[nH+]c(C)c2C)cc(OC)c1OC

>  <Energy>  (37) 
89.29316314348173

>  <Genealogy>  (37) 
COc1cc(-n2c(-c3ccccc3)[nH+]c(C)c2C)cc(OC)c1OC (protonated)
COc1cc(-n2c(-c3ccccc3)[nH+]c(C)c2C)cc(OC)c1OC (3D coordinates assigned)
COc1cc(-n2c(-c3ccccc3)[nH+]c(C)c2C)cc(OC)c1OC (optimized conformer: 89.29316314348173 kcal/mol)

>  <smiles>  (37) 
COc1cc(-n2c(-c3ccccc3)nc(C)c2C)cc(OC)c1OC

>  <score_type>  (37) 
oracle

>  <origin>  (37) 
adg

>  <m_score__min__energy>  (37) 
-5.0199999999999996

>  <m_primary>  (37) 
energy

$$$$
37:0
     RDKit          3D

 38 39  0  0  0  0  0  0  0  0999 V2000
   59.6380   35.3100   45.7450 C   0  0  0  0  0  0  0  0  0  0  0  0
   58.6460   34.7370   44.9000 O   0  0  0  0  0  0  0  0  0  0  0  0
   58.3200   33.3730   44.8780 C   0  0  0  0  0  0  0  0  0  0  0  0
   57.8430   32.7290   43.7200 C   0  0  0  0  0  0  0  0  0  0  0  0
   57.5180   31.3690   43.7520 C   0  0  0  0  0  0  0  0  0  0  0  0
   57.6690   30.6350   44.9350 C   0  0  0  0  0  0  0  0  0  0  0  0
   57.2430   28.9260   44.9740 S   0  0  0  0  0  0  0  0  0  0  0  0
   55.7520   28.7870   44.8660 O   0  0  0  0  0  0  0  0  0  0  0  0
   57.8690   28.2160   43.8050 O   0  0  0  0  0  0  0  0  0  0  0  0
   57.7730   28.1940   46.4620 N   0  0  0  0  0  0  0  0  0  0  0  0
   58.8170   27.1940   46.2210 C   0  0  0  0  0  0  0  0  0  0  0  0
   58.2720   25.8980   45.6590 C   0  0  0  0  0  0  0  0  0  0  0  0
   58.8890   24.8710   45.9120 O   0  0  0  0  0  0  0  0  0  0  0  0
   57.0840   25.8380   44.8170 N   0  0  0  0  0  0  0  0  0  0  0  0
   56.0390   24.9970   45.4220 C   0  0  0  0  0  0  0  0  0  0  0  0
   56.1800   23.5920   44.8510 C   0  0  0  0  0  0  0  0  0  0  0  0
   57.0870   23.7270   43.6400 C   0  0  0  0  0  0  0  0  0  0  0  0
   57.3940   25.2140   43.5220 C   0  0  0  0  0  0  0  0  0  0  0  0
   58.1480   31.2730   46.0870 C   0  0  0  0  0  0  0  0  0  0  0  0
   58.4720   32.6330   46.0560 C   0  0  0  0  0  0  0  0  0  0  0  0
   59.3604   35.1497   46.7973 H   0  0  0  0  0  0  0  0  0  0  0  0
   60.6093   34.8338   45.5453 H   0  0  0  0  0  0  0  0  0  0  0  0
   59.7108   36.3893   45.5453 H   0  0  0  0  0  0  0  0  0  0  0  0
   57.7255   33.2982   42.7861 H   0  0  0  0  0  0  0  0  0  0  0  0
   57.1423   30.8740   42.8443 H   0  0  0  0  0  0  0  0  0  0  0  0
   59.5425   27.6092   45.5060 H   0  0  0  0  0  0  0  0  0  0  0  0
   59.2838   26.9635   47.1900 H   0  0  0  0  0  0  0  0  0  0  0  0
   56.6900   26.7920   44.6480 H   0  0  0  0  0  0  0  0  0  0  0  0
   56.1660   24.9710   46.5143 H   0  0  0  0  0  0  0  0  0  0  0  0
   55.0420   25.4037   45.1972 H   0  0  0  0  0  0  0  0  0  0  0  0
   56.6319   22.9196   45.5951 H   0  0  0  0  0  0  0  0  0  0  0  0
   55.2032   23.1651   44.5798 H   0  0  0  0  0  0  0  0  0  0  0  0
   58.0142   23.1541   43.7889 H   0  0  0  0  0  0  0  0  0  0  0  0
   56.6103   23.3362   42.7289 H   0  0  0  0  0  0  0  0  0  0  0  0
   58.4574   25.3591   43.2811 H   0  0  0  0  0  0  0  0  0  0  0  0
   56.7932   25.6693   42.7210 H   0  0  0  0  0  0  0  0  0  0  0  0
   58.2696   30.7019   47.0192 H   0  0  0  0  0  0  0  0  0  0  0  0
   58.8493   33.1250   46.9646 H   0  0  0  0  0  0  0  0  0  0  0  0
  1  2  1  0
  2  3  1  0
  3  4  2  0
  4  5  1  0
  5  6  2  0
  6  7  1  0
  7  8  2  0
  7  9  2  0
  7 10  1  0
 10 11  1  0
 11 12  1  0
 12 13  2  0
 12 14  1  0
 14 15  1  0
 15 16  1  0
 16 17  1  0
 17 18  1  0
  6 19  1  0
 19 20  2  0
 20  3  1  0
 18 14  1  0
  1 21  1  0
  1 22  1  0
  1 23  1  0
  4 24  1  0
  5 25  1  0
 11 26  1  0
 11 27  1  0
 14 28  1  0
 15 29  1  0
 15 30  1  0
 16 31  1  0
 16 32  1  0
 17 33  1  0
 17 34  1  0
 18 35  1  0
 18 36  1  0
 19 37  1  0
 20 38  1  0
M  CHG  2  10  -1  14   1
M  END
>  <UniqueID>  (38) 
38

>  <SMILES>  (38) 
COc1ccc(S(=O)(=O)[N-]CC(=O)[NH+]2CCCC2)cc1

>  <Energy>  (38) 
37.86717994140582

>  <Genealogy>  (38) 
COc1ccc(S(=O)(=O)[N-]CC(=O)[NH+]2CCCC2)cc1 (protonated)
COc1ccc(S(=O)(=O)[N-]CC(=O)[NH+]2CCCC2)cc1 (3D coordinates assigned)
COc1ccc(S(=O)(=O)[N-]CC(=O)[NH+]2CCCC2)cc1 (nonaromatic ring conformer: 37.86717994140582 kcal/mol)

>  <smiles>  (38) 
COc1ccc(S(=O)(=O)NCC(=O)N2CCCC2)cc1

>  <score_type>  (38) 
oracle

>  <origin>  (38) 
adg

>  <m_score__min__energy>  (38) 
-6.3700000000000001

>  <m_primary>  (38) 
energy

$$$$
38:0
     RDKit          3D

 30 31  0  0  0  0  0  0  0  0999 V2000
   55.4310   24.9450   45.6400 C   0  0  0  0  0  0  0  0  0  0  0  0
   55.4670   26.3660   46.0120 N   0  0  0  0  0  0  0  0  0  0  0  0
   56.8530   26.8250   46.0200 C   0  0  0  0  0  0  0  0  0  0  0  0
   57.0300   28.0810   45.2490 C   0  0  0  0  0  0  0  0  0  0  0  0
   56.0670   29.0620   45.1890 C   0  0  0  0  0  0  0  0  0  0  0  0
   56.2280   30.1810   44.5000 N   0  0  0  0  0  0  0  0  0  0  0  0
   57.3840   30.4300   43.7940 C   0  0  0  0  0  0  0  0  0  0  0  0
   57.4210   31.5040   43.1910 N   0  0  0  0  0  0  0  0  0  0  0  0
   58.0720   32.7130   43.2050 C   0  0  0  0  0  0  0  0  0  0  0  0
   58.3250   33.3340   44.5600 C   0  0  0  0  0  0  0  0  0  0  0  0
   59.2990   34.2660   44.8960 C   0  0  0  0  0  0  0  0  0  0  0  0
   59.3650   34.6640   46.1580 C   0  0  0  0  0  0  0  0  0  0  0  0
   58.4990   34.1640   47.0750 C   0  0  0  0  0  0  0  0  0  0  0  0
   57.4460   32.9790   46.0580 S   0  0  0  0  0  0  0  0  0  0  0  0
   58.3110   29.4650   43.8630 N   0  0  0  0  0  0  0  0  0  0  0  0
   58.1910   28.3190   44.5470 C   0  0  0  0  0  0  0  0  0  0  0  0
   55.4154   24.3279   46.5505 H   0  0  0  0  0  0  0  0  0  0  0  0
   54.5275   24.7444   45.0455 H   0  0  0  0  0  0  0  0  0  0  0  0
   56.3232   24.6989   45.0455 H   0  0  0  0  0  0  0  0  0  0  0  0
   55.1540   26.4250   47.0130 H   0  0  0  0  0  0  0  0  0  0  0  0
   57.1622   27.0012   47.0608 H   0  0  0  0  0  0  0  0  0  0  0  0
   57.4700   26.0472   45.5464 H   0  0  0  0  0  0  0  0  0  0  0  0
   55.1247   28.9103   45.7359 H   0  0  0  0  0  0  0  0  0  0  0  0
   59.0472   32.5718   42.7161 H   0  0  0  0  0  0  0  0  0  0  0  0
   57.3955   33.4108   42.6898 H   0  0  0  0  0  0  0  0  0  0  0  0
   59.9927   34.6606   44.1390 H   0  0  0  0  0  0  0  0  0  0  0  0
   60.1229   35.4007   46.4627 H   0  0  0  0  0  0  0  0  0  0  0  0
   58.4291   34.3941   48.1484 H   0  0  0  0  0  0  0  0  0  0  0  0
   59.1980   29.6030   43.3500 H   0  0  0  0  0  0  0  0  0  0  0  0
   59.0062   27.5805   44.5479 H   0  0  0  0  0  0  0  0  0  0  0  0
  1  2  1  0
  2  3  1  0
  3  4  1  0
  4  5  1  0
  5  6  2  0
  6  7  1  0
  7  8  2  3
  8  9  1  0
  9 10  1  0
 10 11  2  0
 11 12  1  0
 12 13  2  0
 13 14  1  0
  7 15  1  0
 15 16  1  0
 16  4  2  0
 14 10  1  0
  1 17  1  0
  1 18  1  0
  1 19  1  0
  2 20  1  0
  3 21  1  0
  3 22  1  0
  5 23  1  0
  9 24  1  0
  9 25  1  0
 11 26  1  0
 12 27  1  0
 13 28  1  0
 15 29  1  0
 16 30  1  0
M  END
>  <smiles>  (39) 
CNCc1cnc(=NCc2cccs2)[nH]c1

>  <score_type>  (39) 
oracle

>  <origin>  (39) 
adg

>  <m_score__min__energy>  (39) 
-6.4100000000000001

>  <m_primary>  (39) 
energy

$$$$
39:0
     RDKit          3D

 69 74  0  0  0  0  0  0  0  0999 V2000
   59.1131   33.2526   49.7794 H   0  0  0  0  0  0  0  0  0  0  0  0
   59.8300   33.2920   48.9460 C   0  0  0  0  0  0  0  0  0  0  0  0
   59.3810   33.6390   47.7310 C   0  0  0  0  0  0  0  0  0  0  0  0
   58.8320   32.7770   46.7020 C   0  0  0  0  0  0  0  0  0  0  0  0
   58.5810   31.4500   46.8070 N   0  0  0  0  0  0  0  0  0  0  0  0
   58.1020   30.7610   45.7400 C   0  0  0  0  0  0  0  0  0  0  0  0
   57.8290   29.3970   45.8640 C   0  0  0  0  0  0  0  0  0  0  0  0
   57.9688   28.8987   46.8346 H   0  0  0  0  0  0  0  0  0  0  0  0
   57.3760   28.6540   44.7560 C   0  0  0  0  0  0  0  0  0  0  0  0
   57.0950   27.2430   44.8560 N   0  0  0  0  0  0  0  0  0  0  0  0
   56.1630   26.9400   45.2220 H   0  0  0  0  0  0  0  0  0  0  0  0
   58.0540   26.1750   44.5610 C   0  0  0  0  0  0  0  0  0  0  0  0
   58.8599   26.5822   43.9327 H   0  0  0  0  0  0  0  0  0  0  0  0
   58.4525   25.7969   45.5140 H   0  0  0  0  0  0  0  0  0  0  0  0
   57.3870   25.0060   43.8210 C   0  0  0  0  0  0  0  0  0  0  0  0
   56.4528   25.3605   43.3610 H   0  0  0  0  0  0  0  0  0  0  0  0
   58.0858   24.6386   43.0550 H   0  0  0  0  0  0  0  0  0  0  0  0
   57.0760   23.8870   44.7420 N   0  0  0  0  0  0  0  0  0  0  0  0
   55.6660   23.4520   44.6530 C   0  0  0  0  0  0  0  0  0  0  0  0
   55.3983   23.3307   43.5930 H   0  0  0  0  0  0  0  0  0  0  0  0
   55.5689   22.5025   45.1999 H   0  0  0  0  0  0  0  0  0  0  0  0
   54.7000   24.4750   45.2980 C   0  0  0  0  0  0  0  0  0  0  0  0
   54.1347   24.9756   44.4981 H   0  0  0  0  0  0  0  0  0  0  0  0
   54.0411   23.9191   45.9813 H   0  0  0  0  0  0  0  0  0  0  0  0
   55.3680   25.4620   46.0640 O   0  0  0  0  0  0  0  0  0  0  0  0
   56.2900   24.8480   46.9370 C   0  0  0  0  0  0  0  0  0  0  0  0
   56.7076   25.6092   47.6124 H   0  0  0  0  0  0  0  0  0  0  0  0
   55.7648   24.0701   47.5107 H   0  0  0  0  0  0  0  0  0  0  0  0
   57.4420   24.1850   46.1490 C   0  0  0  0  0  0  0  0  0  0  0  0
   58.3068   24.8647   46.1513 H   0  0  0  0  0  0  0  0  0  0  0  0
   57.6746   23.2293   46.6415 H   0  0  0  0  0  0  0  0  0  0  0  0
   57.1790   29.3150   43.5260 C   0  0  0  0  0  0  0  0  0  0  0  0
   56.7430   28.6290   42.4390 F   0  0  0  0  0  0  0  0  0  0  0  0
   57.4260   30.6880   43.4050 C   0  0  0  0  0  0  0  0  0  0  0  0
   57.2564   31.1924   42.4423 H   0  0  0  0  0  0  0  0  0  0  0  0
   57.8890   31.4230   44.5070 C   0  0  0  0  0  0  0  0  0  0  0  0
   58.1580   32.8070   44.4400 C   0  0  0  0  0  0  0  0  0  0  0  0
   57.9830   33.4520   43.3700 O   0  0  0  0  0  0  0  0  0  0  0  0
   58.6200   33.4380   45.5550 N   0  0  0  0  0  0  0  0  0  0  0  0
   58.9820   34.8460   45.6850 C   0  0  0  0  0  0  0  0  0  0  0  0
   59.7692   35.1085   44.9630 H   0  0  0  0  0  0  0  0  0  0  0  0
   58.1266   35.5072   45.4819 H   0  0  0  0  0  0  0  0  0  0  0  0
   59.5020   35.0090   47.1360 C   0  0  0  0  0  0  0  0  0  0  0  0
   60.5499   35.3435   47.1387 H   0  0  0  0  0  0  0  0  0  0  0  0
   58.9362   35.7636   47.7021 H   0  0  0  0  0  0  0  0  0  0  0  0
   61.2410   32.9610   49.2150 C   0  0  0  0  0  0  0  0  0  0  0  0
   61.5540   31.8440   49.9960 C   0  0  0  0  0  0  0  0  0  0  0  0
   60.7525   31.1690   50.3306 H   0  0  0  0  0  0  0  0  0  0  0  0
   62.8790   31.5800   50.3540 C   0  0  0  0  0  0  0  0  0  0  0  0
   63.1077   30.6998   50.9728 H   0  0  0  0  0  0  0  0  0  0  0  0
   63.9300   32.4270   49.9330 C   0  0  0  0  0  0  0  0  0  0  0  0
   65.3080   32.1970   50.3540 N   0  0  0  0  0  0  0  0  0  0  0  0
   65.6310   30.9640   51.0990 C   0  0  0  0  0  0  0  0  0  0  0  0
   65.1764   31.0277   52.0986 H   0  0  0  0  0  0  0  0  0  0  0  0
   65.2330   30.1149   50.5240 H   0  0  0  0  0  0  0  0  0  0  0  0
   67.1340   30.7480   51.2590 C   0  0  0  0  0  0  0  0  0  0  0  0
   67.3112   29.9714   52.0176 H   0  0  0  0  0  0  0  0  0  0  0  0
   67.5570   30.4321   50.2940 H   0  0  0  0  0  0  0  0  0  0  0  0
   67.7540   31.9440   51.6640 O   0  0  0  0  0  0  0  0  0  0  0  0
   67.7350   32.8460   50.5820 C   0  0  0  0  0  0  0  0  0  0  0  0
   68.3243   33.7356   50.8491 H   0  0  0  0  0  0  0  0  0  0  0  0
   68.1629   32.3385   49.7049 H   0  0  0  0  0  0  0  0  0  0  0  0
   66.3050   33.2830   50.2320 C   0  0  0  0  0  0  0  0  0  0  0  0
   66.0149   34.0993   50.9099 H   0  0  0  0  0  0  0  0  0  0  0  0
   66.3124   33.5976   49.1780 H   0  0  0  0  0  0  0  0  0  0  0  0
   63.5980   33.5210   49.0980 C   0  0  0  0  0  0  0  0  0  0  0  0
   64.3962   34.1803   48.7263 H   0  0  0  0  0  0  0  0  0  0  0  0
   62.2730   33.7760   48.7390 C   0  0  0  0  0  0  0  0  0  0  0  0
   62.0394   34.6233   48.0776 H   0  0  0  0  0  0  0  0  0  0  0  0
  1  2  1  0
  2  3  2  0
  3  4  1  0
  4  5  2  0
  5  6  1  0
  6  7  2  0
  7  8  1  0
  7  9  1  0
  9 10  1  0
 10 11  1  0
 10 12  1  0
 12 13  1  0
 12 14  1  0
 12 15  1  0
 15 16  1  0
 15 17  1  0
 15 18  1  0
 18 19  1  0
 19 20  1  0
 19 21  1  0
 19 22  1  0
 22 23  1  0
 22 24  1  0
 22 25  1  0
 25 26  1  0
 26 27  1  0
 26 28  1  0
 26 29  1  0
 29 30  1  0
 29 31  1  0
  9 32  2  0
 32 33  1  0
 32 34  1  0
 34 35  1  0
 34 36  2  0
 36 37  1  0
 37 38  2  0
 37 39  1  0
 39 40  1  0
 40 41  1  0
 40 42  1  0
 40 43  1  0
 43 44  1  0
 43 45  1  0
  2 46  1  0
 46 47  2  0
 47 48  1  0
 47 49  1  0
 49 50  1  0
 49 51  2  0
 51 52  1  0
 52 53  1  0
 53 54  1  0
 53 55  1  0
 53 56  1  0
 56 57  1  0
 56 58  1  0
 56 59  1  0
 59 60  1  0
 60 61  1  0
 60 62  1  0
 60 63  1  0
 63 64  1  0
 63 65  1  0
 51 66  1  0
 66 67  1  0
 66 68  2  0
 68 69  1  0
 43  3  1  0
 68 46  1  0
 39  4  1  0
 63 52  1  0
 36  6  1  0
 29 18  1  0
M  END
>  <UniqueID>  (40) 
39

>  <SMILES>  (40) 
O=c1c2cc(F)c(NCCN3CCOCC3)cc2nc2n1CC/C2=C/c1ccc(N2CCOCC2)cc1

>  <Energy>  (40) 
117.06869161327104

>  <Genealogy>  (40) 
O=c1c2cc(F)c(NCCN3CCOCC3)cc2nc2n1CC/C2=C/c1ccc(N2CCOCC2)cc1 (cis-trans isomerization)
O=c1c2cc(F)c(NCCN3CCOCC3)cc2nc2n1CC/C2=C/c1ccc(N2CCOCC2)cc1 (3D coordinates assigned)
O=c1c2cc(F)c(NCCN3CCOCC3)cc2nc2n1CC/C2=C/c1ccc(N2CCOCC2)cc1 (nonaromatic ring conformer: 117.06869161327104 kcal/mol)

>  <smiles>  (40) 
O=c1c2cc(F)c(NCCN3CCOCC3)cc2nc2n1CCC2=Cc1ccc(N2CCOCC2)cc1

>  <score_type>  (40) 
oracle

>  <origin>  (40) 
adg

>  <m_score__min__energy>  (40) 
-9.6199999999999992

>  <m_primary>  (40) 
energy

$$$$
40:0
     RDKit          3D

 40 42  0  0  0  0  0  0  0  0999 V2000
   57.7990   32.2680   42.1100 C   0  0  0  0  0  0  0  0  0  0  0  0
   57.2720   31.6070   43.2550 O   0  0  0  0  0  0  0  0  0  0  0  0
   57.7040   31.8340   44.5700 C   0  0  0  0  0  0  0  0  0  0  0  0
   57.4230   33.0720   45.1580 C   0  0  0  0  0  0  0  0  0  0  0  0
   57.8300   33.3460   46.4670 C   0  0  0  0  0  0  0  0  0  0  0  0
   58.5200   32.3770   47.2140 C   0  0  0  0  0  0  0  0  0  0  0  0
   58.9620   32.6540   48.5980 C   0  0  0  0  0  0  0  0  0  0  0  0
   58.1220   32.7140   49.6510 N   0  0  0  0  0  0  0  0  0  0  0  0
   58.9010   32.9380   50.7250 C   0  0  0  0  0  0  0  0  0  0  0  0
   58.2500   33.0740   52.3930 S   0  0  0  0  0  0  0  0  0  0  0  0
   57.0210   31.7560   52.1400 C   0  0  0  0  0  0  0  0  0  0  0  0
   60.2080   33.0430   50.3990 N   0  0  0  0  0  0  0  0  0  0  0  0
   61.3260   33.2800   51.3120 C   0  0  0  0  0  0  0  0  0  0  0  0
   60.2600   32.8510   49.0600 C   0  0  0  0  0  0  0  0  0  0  0  0
   61.4880   32.9370   48.2400 C   0  0  0  0  0  0  0  0  0  0  0  0
   61.5470   33.8110   47.1430 C   0  0  0  0  0  0  0  0  0  0  0  0
   62.7110   33.8690   46.3720 C   0  0  0  0  0  0  0  0  0  0  0  0
   63.7770   33.0850   46.6860 N   0  0  0  0  0  0  0  0  0  0  0  0
   63.7460   32.2300   47.7420 C   0  0  0  0  0  0  0  0  0  0  0  0
   62.6010   32.1400   48.5370 C   0  0  0  0  0  0  0  0  0  0  0  0
   58.8160   31.1400   46.6200 C   0  0  0  0  0  0  0  0  0  0  0  0
   58.4080   30.8660   45.3110 C   0  0  0  0  0  0  0  0  0  0  0  0
   58.4549   33.0907   42.4310 H   0  0  0  0  0  0  0  0  0  0  0  0
   58.3770   31.5522   41.5070 H   0  0  0  0  0  0  0  0  0  0  0  0
   56.9724   32.6720   41.5070 H   0  0  0  0  0  0  0  0  0  0  0  0
   56.8771   33.8363   44.5854 H   0  0  0  0  0  0  0  0  0  0  0  0
   57.6086   34.3261   46.9146 H   0  0  0  0  0  0  0  0  0  0  0  0
   57.0860   32.5850   49.6470 H   0  0  0  0  0  0  0  0  0  0  0  0
   56.6750   31.3850   53.1160 H   0  0  0  0  0  0  0  0  0  0  0  0
   56.1657   32.1557   51.5755 H   0  0  0  0  0  0  0  0  0  0  0  0
   57.4794   30.9306   51.5755 H   0  0  0  0  0  0  0  0  0  0  0  0
   60.9730   33.2052   52.3511 H   0  0  0  0  0  0  0  0  0  0  0  0
   62.1091   32.5279   51.1357 H   0  0  0  0  0  0  0  0  0  0  0  0
   61.7366   34.2851   51.1357 H   0  0  0  0  0  0  0  0  0  0  0  0
   60.6838   34.4451   46.8923 H   0  0  0  0  0  0  0  0  0  0  0  0
   62.7652   34.5499   45.5097 H   0  0  0  0  0  0  0  0  0  0  0  0
   64.6239   31.6080   47.9710 H   0  0  0  0  0  0  0  0  0  0  0  0
   62.5735   31.4474   49.3912 H   0  0  0  0  0  0  0  0  0  0  0  0
   59.3730   30.3807   47.1885 H   0  0  0  0  0  0  0  0  0  0  0  0
   58.6380   29.8902   44.8584 H   0  0  0  0  0  0  0  0  0  0  0  0
  1  2  1  0
  2  3  1  0
  3  4  2  0
  4  5  1  0
  5  6  2  0
  6  7  1  0
  7  8  1  0
  8  9  2  0
  9 10  1  0
 10 11  1  0
  9 12  1  0
 12 13  1  0
 12 14  1  0
 14 15  1  0
 15 16  2  0
 16 17  1  0
 17 18  2  0
 18 19  1  0
 19 20  2  0
  6 21  1  0
 21 22  2  0
 22  3  1  0
 14  7  2  0
 20 15  1  0
  1 23  1  0
  1 24  1  0
  1 25  1  0
  4 26  1  0
  5 27  1  0
  8 28  1  0
 11 29  1  0
 11 30  1  0
 11 31  1  0
 13 32  1  0
 13 33  1  0
 13 34  1  0
 16 35  1  0
 17 36  1  0
 19 37  1  0
 20 38  1  0
 21 39  1  0
 22 40  1  0
M  CHG  1   8   1
M  END
>  <UniqueID>  (41) 
40

>  <SMILES>  (41) 
COc1ccc(-c2[nH+]c(SC)n(C)c2-c2ccncc2)cc1

>  <Energy>  (41) 
77.86012099102979

>  <Genealogy>  (41) 
COc1ccc(-c2[nH+]c(SC)n(C)c2-c2ccncc2)cc1 (protonated)
COc1ccc(-c2[nH+]c(SC)n(C)c2-c2ccncc2)cc1 (3D coordinates assigned)
COc1ccc(-c2[nH+]c(SC)n(C)c2-c2ccncc2)cc1 (optimized conformer: 77.86012099102979 kcal/mol)

>  <smiles>  (41) 
COc1ccc(-c2nc(SC)n(C)c2-c2ccncc2)cc1

>  <score_type>  (41) 
oracle

>  <origin>  (41) 
adg

>  <m_score__min__energy>  (41) 
-5.1299999999999999

>  <m_primary>  (41) 
energy

$$$$
