0:0
     RDKit          3D

 38 39  0  0  0  0  0  0  0  0999 V2000
   57.7920   26.3830   44.7630 C   0  0  0  0  0  0  0  0  0  0  0  0
   56.5460   26.5600   45.6190 C   0  0  0  0  0  0  0  0  0  0  0  0
   56.0470   27.8960   45.4150 N   0  0  0  0  0  0  0  0  0  0  0  0
   57.0210   28.7450   44.7540 C   0  0  0  0  0  0  0  0  0  0  0  0
   57.5620   29.7480   45.7380 C   0  0  0  0  0  0  0  0  0  0  0  0
   58.4420   30.6790   44.9360 C   0  0  0  0  0  0  0  0  0  0  0  0
   57.6420   31.4880   44.1060 N   0  0  0  0  0  0  0  0  0  0  0  0
   57.0390   32.5560   44.8670 C   0  0  0  0  0  0  0  0  0  0  0  0
   57.9920   33.3460   45.6720 C   0  0  0  0  0  0  0  0  0  0  0  0
   58.7350   34.3250   45.0190 C   0  0  0  0  0  0  0  0  0  0  0  0
   59.6380   35.1050   45.7130 C   0  0  0  0  0  0  0  0  0  0  0  0
   59.8420   34.9500   47.0840 C   0  0  0  0  0  0  0  0  0  0  0  0
   59.0890   33.9700   47.7050 C   0  0  0  0  0  0  0  0  0  0  0  0
   58.1840   33.1820   47.0270 C   0  0  0  0  0  0  0  0  0  0  0  0
   56.6510   30.8180   43.3300 C   0  0  0  0  0  0  0  0  0  0  0  0
   56.5200   29.3650   43.5110 C   0  0  0  0  0  0  0  0  0  0  0  0
   58.6696   26.2583   45.4143 H   0  0  0  0  0  0  0  0  0  0  0  0
   57.6771   25.4922   44.1280 H   0  0  0  0  0  0  0  0  0  0  0  0
   57.9298   27.2706   44.1280 H   0  0  0  0  0  0  0  0  0  0  0  0
   55.7818   25.8273   45.3206 H   0  0  0  0  0  0  0  0  0  0  0  0
   56.7881   26.4023   46.6804 H   0  0  0  0  0  0  0  0  0  0  0  0
   55.1500   27.8490   44.9180 H   0  0  0  0  0  0  0  0  0  0  0  0
   57.8500   28.1070   44.4138 H   0  0  0  0  0  0  0  0  0  0  0  0
   56.7388   30.3076   46.2061 H   0  0  0  0  0  0  0  0  0  0  0  0
   58.1229   29.2585   46.5478 H   0  0  0  0  0  0  0  0  0  0  0  0
   59.0203   31.3165   45.6209 H   0  0  0  0  0  0  0  0  0  0  0  0
   59.1298   30.0865   44.3149 H   0  0  0  0  0  0  0  0  0  0  0  0
   56.5352   33.2366   44.1649 H   0  0  0  0  0  0  0  0  0  0  0  0
   56.3459   32.0821   45.5776 H   0  0  0  0  0  0  0  0  0  0  0  0
   58.6012   34.4789   43.9381 H   0  0  0  0  0  0  0  0  0  0  0  0
   60.2125   35.8698   45.1698 H   0  0  0  0  0  0  0  0  0  0  0  0
   60.5602   35.5712   47.6393 H   0  0  0  0  0  0  0  0  0  0  0  0
   59.2179   33.8128   48.7861 H   0  0  0  0  0  0  0  0  0  0  0  0
   57.6109   32.4168   47.5711 H   0  0  0  0  0  0  0  0  0  0  0  0
   55.6786   31.2702   43.5747 H   0  0  0  0  0  0  0  0  0  0  0  0
   56.9770   30.9439   42.2870 H   0  0  0  0  0  0  0  0  0  0  0  0
   55.4479   29.1283   43.4435 H   0  0  0  0  0  0  0  0  0  0  0  0
   57.1698   28.9448   42.7292 H   0  0  0  0  0  0  0  0  0  0  0  0
  1  2  1  0
  2  3  1  0
  3  4  1  0
  4  5  1  0
  5  6  1  0
  6  7  1  0
  7  8  1  0
  8  9  1  0
  9 10  2  0
 10 11  1  0
 11 12  2  0
 12 13  1  0
 13 14  2  0
  7 15  1  0
 15 16  1  0
 16  4  1  0
 14  9  1  0
  1 17  1  0
  1 18  1  0
  1 19  1  0
  2 20  1  0
  2 21  1  0
  3 22  1  0
  4 23  1  0
  5 24  1  0
  5 25  1  0
  6 26  1  0
  6 27  1  0
  8 28  1  0
  8 29  1  0
 10 30  1  0
 11 31  1  0
 12 32  1  0
 13 33  1  0
 14 34  1  0
 15 35  1  0
 15 36  1  0
 16 37  1  0
 16 38  1  0
M  END
>  <smiles>  (1) 
CCNC1CCN(Cc2ccccc2)CC1

>  <score_type>  (1) 
oracle

>  <origin>  (1) 
adg

>  <m_score__min__energy>  (1) 
-6.79

>  <m_primary>  (1) 
energy

$$$$
1:0
     RDKit          3D

 67 69  0  0  0  0  0  0  0  0999 V2000
   63.2240   31.6260   47.8280 C   0  0  0  0  0  0  0  0  0  0  0  0
   62.7770   33.0000   48.0390 N   0  0  0  0  0  0  0  0  0  0  0  0
   63.7550   33.6590   48.8550 C   0  0  0  0  0  0  0  0  0  0  0  0
   62.6680   33.6910   46.7610 C   0  0  0  0  0  0  0  0  0  0  0  0
   61.2300   33.7420   46.3560 C   0  0  0  0  0  0  0  0  0  0  0  0
   60.4960   34.6970   47.2040 N   0  0  0  0  0  0  0  0  0  0  0  0
   59.1050   34.5500   46.7940 C   0  0  0  0  0  0  0  0  0  0  0  0
   58.9540   33.7300   45.5320 C   0  0  0  0  0  0  0  0  0  0  0  0
   58.5410   32.4200   45.7070 N   0  0  0  0  0  0  0  0  0  0  0  0
   58.6360   31.4600   44.6910 C   0  0  0  0  0  0  0  0  0  0  0  0
   57.5100   30.4910   44.7990 C   0  0  0  0  0  0  0  0  0  0  0  0
   56.2990   30.8430   44.8140 O   0  0  0  0  0  0  0  0  0  0  0  0
   57.7600   29.0920   44.8900 N   0  0  0  0  0  0  0  0  0  0  0  0
   56.5880   28.2510   44.9870 C   0  0  0  0  0  0  0  0  0  0  0  0
   56.8930   26.9160   45.6230 C   0  0  0  0  0  0  0  0  0  0  0  0
   58.0020   26.2520   44.8500 C   0  0  0  0  0  0  0  0  0  0  0  0
   59.2360   26.3080   45.7390 C   0  0  0  0  0  0  0  0  0  0  0  0
   59.4830   27.7720   46.0350 C   0  0  0  0  0  0  0  0  0  0  0  0
   59.1260   28.6560   44.8790 C   0  0  0  0  0  0  0  0  0  0  0  0
   57.9500   31.9590   46.8820 C   0  0  0  0  0  0  0  0  0  0  0  0
   58.8210   31.2170   47.8250 C   0  0  0  0  0  0  0  0  0  0  0  0
   58.5650   31.3120   49.1980 C   0  0  0  0  0  0  0  0  0  0  0  0
   59.3200   30.6600   50.1350 C   0  0  0  0  0  0  0  0  0  0  0  0
   60.3970   29.8580   49.7430 C   0  0  0  0  0  0  0  0  0  0  0  0
   61.4160   28.9720   51.0710 Br  0  0  0  0  0  0  0  0  0  0  0  0
   60.6490   29.7650   48.3940 C   0  0  0  0  0  0  0  0  0  0  0  0
   59.8720   30.4350   47.4530 C   0  0  0  0  0  0  0  0  0  0  0  0
   60.7020   34.2360   48.5610 C   0  0  0  0  0  0  0  0  0  0  0  0
   61.4690   32.9410   48.6480 C   0  0  0  0  0  0  0  0  0  0  0  0
   63.3826   31.1385   48.8012 H   0  0  0  0  0  0  0  0  0  0  0  0
   62.4590   31.0744   47.2619 H   0  0  0  0  0  0  0  0  0  0  0  0
   64.1671   31.6301   47.2619 H   0  0  0  0  0  0  0  0  0  0  0  0
   63.5157   33.4977   49.9165 H   0  0  0  0  0  0  0  0  0  0  0  0
   64.7516   33.2475   48.6372 H   0  0  0  0  0  0  0  0  0  0  0  0
   63.7479   34.7372   48.6372 H   0  0  0  0  0  0  0  0  0  0  0  0
   63.0596   34.7141   46.8604 H   0  0  0  0  0  0  0  0  0  0  0  0
   63.2501   33.1541   45.9976 H   0  0  0  0  0  0  0  0  0  0  0  0
   61.1595   34.0603   45.3054 H   0  0  0  0  0  0  0  0  0  0  0  0
   60.7877   32.7420   46.4760 H   0  0  0  0  0  0  0  0  0  0  0  0
   58.5493   34.0552   47.6042 H   0  0  0  0  0  0  0  0  0  0  0  0
   58.7107   35.5558   46.5869 H   0  0  0  0  0  0  0  0  0  0  0  0
   58.2161   34.2329   44.8897 H   0  0  0  0  0  0  0  0  0  0  0  0
   59.9617   33.6683   45.0952 H   0  0  0  0  0  0  0  0  0  0  0  0
   58.5936   31.9601   43.7122 H   0  0  0  0  0  0  0  0  0  0  0  0
   59.5886   30.9195   44.7928 H   0  0  0  0  0  0  0  0  0  0  0  0
   55.8308   28.7679   45.5948 H   0  0  0  0  0  0  0  0  0  0  0  0
   56.2231   28.0626   43.9665 H   0  0  0  0  0  0  0  0  0  0  0  0
   57.2083   27.0668   46.6660 H   0  0  0  0  0  0  0  0  0  0  0  0
   55.9949   26.2810   45.6080 H   0  0  0  0  0  0  0  0  0  0  0  0
   57.7392   25.2070   44.6287 H   0  0  0  0  0  0  0  0  0  0  0  0
   58.1782   26.7582   43.8894 H   0  0  0  0  0  0  0  0  0  0  0  0
   59.0572   25.7558   46.6734 H   0  0  0  0  0  0  0  0  0  0  0  0
   60.1049   25.8488   45.2448 H   0  0  0  0  0  0  0  0  0  0  0  0
   58.8754   28.0642   46.9041 H   0  0  0  0  0  0  0  0  0  0  0  0
   60.5575   27.8975   46.2343 H   0  0  0  0  0  0  0  0  0  0  0  0
   59.7747   29.5440   44.9070 H   0  0  0  0  0  0  0  0  0  0  0  0
   59.2679   28.0628   43.9636 H   0  0  0  0  0  0  0  0  0  0  0  0
   57.5491   32.8324   47.4171 H   0  0  0  0  0  0  0  0  0  0  0  0
   57.1941   31.2296   46.5556 H   0  0  0  0  0  0  0  0  0  0  0  0
   57.7242   31.9350   49.5370 H   0  0  0  0  0  0  0  0  0  0  0  0
   59.0785   30.7673   51.2028 H   0  0  0  0  0  0  0  0  0  0  0  0
   61.4884   29.1435   48.0489 H   0  0  0  0  0  0  0  0  0  0  0  0
   60.1125   30.3304   46.3847 H   0  0  0  0  0  0  0  0  0  0  0  0
   61.2604   35.0086   49.1099 H   0  0  0  0  0  0  0  0  0  0  0  0
   59.7076   34.0520   48.9939 H   0  0  0  0  0  0  0  0  0  0  0  0
   61.5915   32.6804   49.7096 H   0  0  0  0  0  0  0  0  0  0  0  0
   60.8903   32.1864   48.0951 H   0  0  0  0  0  0  0  0  0  0  0  0
  1  2  1  0
  2  3  1  0
  2  4  1  0
  4  5  1  0
  5  6  1  0
  6  7  1  0
  7  8  1  0
  8  9  1  0
  9 10  1  0
 10 11  1  0
 11 12  2  0
 11 13  1  0
 13 14  1  0
 14 15  1  0
 15 16  1  0
 16 17  1  0
 17 18  1  0
 18 19  1  0
  9 20  1  0
 20 21  1  0
 21 22  2  0
 22 23  1  0
 23 24  2  0
 24 25  1  0
 24 26  1  0
 26 27  2  0
  6 28  1  0
 28 29  1  0
 29  2  1  0
 19 13  1  0
 27 21  1  0
  1 30  1  0
  1 31  1  0
  1 32  1  0
  3 33  1  0
  3 34  1  0
  3 35  1  0
  4 36  1  0
  4 37  1  0
  5 38  1  0
  5 39  1  0
  7 40  1  0
  7 41  1  0
  8 42  1  0
  8 43  1  0
 10 44  1  0
 10 45  1  0
 14 46  1  0
 14 47  1  0
 15 48  1  0
 15 49  1  0
 16 50  1  0
 16 51  1  0
 17 52  1  0
 17 53  1  0
 18 54  1  0
 18 55  1  0
 19 56  1  0
 19 57  1  0
 20 58  1  0
 20 59  1  0
 22 60  1  0
 23 61  1  0
 26 62  1  0
 27 63  1  0
 28 64  1  0
 28 65  1  0
 29 66  1  0
 29 67  1  0
M  CHG  1   2   1
M  END
>  <smiles>  (2) 
C[N+]1(C)CCN(CCN(CC(=O)N2CCCCCC2)Cc2ccc(Br)cc2)CC1

>  <score_type>  (2) 
oracle

>  <origin>  (2) 
adg

>  <m_score__min__energy>  (2) 
-4.7999999999999998

>  <m_primary>  (2) 
energy

$$$$
2:0
     RDKit          3D

 47 49  0  0  0  0  0  0  0  0999 V2000
   64.8930   31.9860   50.0520 C   0  0  0  0  0  0  0  0  0  0  0  0
   64.5630   33.4490   49.7430 C   0  0  0  0  0  0  0  0  0  0  0  0
   63.3660   33.5160   48.8790 C   0  0  0  0  0  0  0  0  0  0  0  0
   62.1190   33.6890   49.4780 C   0  0  0  0  0  0  0  0  0  0  0  0
   60.9940   33.7530   48.6790 C   0  0  0  0  0  0  0  0  0  0  0  0
   61.1280   33.6420   47.3050 C   0  0  0  0  0  0  0  0  0  0  0  0
   59.9390   33.7080   46.4480 C   0  0  0  0  0  0  0  0  0  0  0  0
   59.6400   34.8630   45.7160 C   0  0  0  0  0  0  0  0  0  0  0  0
   58.5050   34.8470   44.9310 C   0  0  0  0  0  0  0  0  0  0  0  0
   57.6850   33.7380   44.8620 C   0  0  0  0  0  0  0  0  0  0  0  0
   57.9800   32.5800   45.5910 C   0  0  0  0  0  0  0  0  0  0  0  0
   57.1190   31.5270   45.4660 O   0  0  0  0  0  0  0  0  0  0  0  0
   56.9670   30.6630   44.3840 C   0  0  0  0  0  0  0  0  0  0  0  0
   58.3320   30.4300   43.7570 C   0  0  0  0  0  0  0  0  0  0  0  0
   59.2760   29.7250   44.6830 C   0  0  0  0  0  0  0  0  0  0  0  0
   58.6150   28.7990   45.5670 N   0  0  0  0  0  0  0  0  0  0  0  0
   58.5040   29.2370   46.9240 C   0  0  0  0  0  0  0  0  0  0  0  0
   57.4050   28.2600   45.0220 C   0  0  0  0  0  0  0  0  0  0  0  0
   56.3880   29.3460   44.8980 C   0  0  0  0  0  0  0  0  0  0  0  0
   59.1130   32.5940   46.3750 C   0  0  0  0  0  0  0  0  0  0  0  0
   62.3750   33.4710   46.7360 C   0  0  0  0  0  0  0  0  0  0  0  0
   63.5270   33.4040   47.5220 C   0  0  0  0  0  0  0  0  0  0  0  0
   64.9260   31.8398   51.1417 H   0  0  0  0  0  0  0  0  0  0  0  0
   64.1189   31.3360   49.6181 H   0  0  0  0  0  0  0  0  0  0  0  0
   65.8712   31.7312   49.6181 H   0  0  0  0  0  0  0  0  0  0  0  0
   64.3667   33.9862   50.6826 H   0  0  0  0  0  0  0  0  0  0  0  0
   65.4144   33.9135   49.2239 H   0  0  0  0  0  0  0  0  0  0  0  0
   62.0322   33.7733   50.5713 H   0  0  0  0  0  0  0  0  0  0  0  0
   60.0003   33.8909   49.1301 H   0  0  0  0  0  0  0  0  0  0  0  0
   60.2865   35.7516   45.7647 H   0  0  0  0  0  0  0  0  0  0  0  0
   58.2467   35.7412   44.3448 H   0  0  0  0  0  0  0  0  0  0  0  0
   56.7881   33.7650   44.2257 H   0  0  0  0  0  0  0  0  0  0  0  0
   56.2900   31.0888   43.6288 H   0  0  0  0  0  0  0  0  0  0  0  0
   58.2045   29.8192   42.8511 H   0  0  0  0  0  0  0  0  0  0  0  0
   58.7650   31.4139   43.5237 H   0  0  0  0  0  0  0  0  0  0  0  0
   60.0092   29.1700   44.0794 H   0  0  0  0  0  0  0  0  0  0  0  0
   59.7544   30.4920   45.3098 H   0  0  0  0  0  0  0  0  0  0  0  0
   58.7173   28.3955   47.5995 H   0  0  0  0  0  0  0  0  0  0  0  0
   59.2253   30.0468   47.1081 H   0  0  0  0  0  0  0  0  0  0  0  0
   57.4841   29.6056   47.1081 H   0  0  0  0  0  0  0  0  0  0  0  0
   57.6085   27.8330   44.0289 H   0  0  0  0  0  0  0  0  0  0  0  0
   57.0216   27.4729   45.6879 H   0  0  0  0  0  0  0  0  0  0  0  0
   55.6056   29.0131   44.2002 H   0  0  0  0  0  0  0  0  0  0  0  0
   55.9918   29.5368   45.9063 H   0  0  0  0  0  0  0  0  0  0  0  0
   59.3703   31.6981   46.9591 H   0  0  0  0  0  0  0  0  0  0  0  0
   62.4621   33.3860   45.6428 H   0  0  0  0  0  0  0  0  0  0  0  0
   64.5213   33.2672   47.0718 H   0  0  0  0  0  0  0  0  0  0  0  0
  1  2  1  0
  2  3  1  0
  3  4  2  0
  4  5  1  0
  5  6  2  0
  6  7  1  0
  7  8  2  0
  8  9  1  0
  9 10  2  0
 10 11  1  0
 11 12  1  0
 12 13  1  0
 13 14  1  0
 14 15  1  0
 15 16  1  0
 16 17  1  0
 16 18  1  0
 18 19  1  0
 11 20  2  0
  6 21  1  0
 21 22  2  0
 22  3  1  0
 20  7  1  0
 19 13  1  0
  1 23  1  0
  1 24  1  0
  1 25  1  0
  2 26  1  0
  2 27  1  0
  4 28  1  0
  5 29  1  0
  8 30  1  0
  9 31  1  0
 10 32  1  0
 13 33  1  0
 14 34  1  0
 14 35  1  0
 15 36  1  0
 15 37  1  0
 17 38  1  0
 17 39  1  0
 17 40  1  0
 18 41  1  0
 18 42  1  0
 19 43  1  0
 19 44  1  0
 20 45  1  0
 21 46  1  0
 22 47  1  0
M  END
>  <smiles>  (3) 
CCc1ccc(-c2cccc(OC3CCN(C)CC3)c2)cc1

>  <score_type>  (3) 
oracle

>  <origin>  (3) 
adg

>  <m_score__min__energy>  (3) 
-7.9500000000000002

>  <m_primary>  (3) 
energy

$$$$
3:0
     RDKit          3D

 50 53  0  0  0  0  0  0  0  0999 V2000
   59.4650   30.6420   49.1810 C   0  0  0  0  0  0  0  0  0  0  0  0
   59.7330   31.4310   48.0390 O   0  0  0  0  0  0  0  0  0  0  0  0
   60.9870   31.9360   47.7360 C   0  0  0  0  0  0  0  0  0  0  0  0
   62.0530   31.0850   47.5410 C   0  0  0  0  0  0  0  0  0  0  0  0
   63.3220   31.5880   47.2340 C   0  0  0  0  0  0  0  0  0  0  0  0
   63.4690   32.9750   47.1340 C   0  0  0  0  0  0  0  0  0  0  0  0
   62.4100   33.8380   47.3270 C   0  0  0  0  0  0  0  0  0  0  0  0
   61.1650   33.3190   47.6290 C   0  0  0  0  0  0  0  0  0  0  0  0
   59.9640   34.1650   47.8560 C   0  0  0  0  0  0  0  0  0  0  0  0
   59.0350   34.1240   46.7800 N   0  0  0  0  0  0  0  0  0  0  0  0
   57.7480   33.6030   47.0460 C   0  0  0  0  0  0  0  0  0  0  0  0
   57.1630   32.7370   45.9870 C   0  0  0  0  0  0  0  0  0  0  0  0
   57.5180   33.0510   44.6420 N   0  0  0  0  0  0  0  0  0  0  0  0
   58.0330   31.8890   43.9160 C   0  0  0  0  0  0  0  0  0  0  0  0
   57.4280   30.6850   44.4920 C   0  0  0  0  0  0  0  0  0  0  0  0
   56.1130   30.2410   44.4560 C   0  0  0  0  0  0  0  0  0  0  0  0
   56.0010   29.0760   45.1210 N   0  0  0  0  0  0  0  0  0  0  0  0
   57.2170   28.7710   45.5770 C   0  0  0  0  0  0  0  0  0  0  0  0
   57.6200   27.6620   46.3240 C   0  0  0  0  0  0  0  0  0  0  0  0
   58.9530   27.5340   46.7020 C   0  0  0  0  0  0  0  0  0  0  0  0
   59.8860   28.4930   46.3480 C   0  0  0  0  0  0  0  0  0  0  0  0
   59.4530   29.5900   45.6000 C   0  0  0  0  0  0  0  0  0  0  0  0
   58.1340   29.7390   45.2120 C   0  0  0  0  0  0  0  0  0  0  0  0
   58.4050   34.1610   44.5050 C   0  0  0  0  0  0  0  0  0  0  0  0
   59.5680   33.9150   45.4770 C   0  0  0  0  0  0  0  0  0  0  0  0
   59.6649   31.2306   50.0885 H   0  0  0  0  0  0  0  0  0  0  0  0
   58.4103   30.3296   49.1716 H   0  0  0  0  0  0  0  0  0  0  0  0
   60.1112   29.7519   49.1716 H   0  0  0  0  0  0  0  0  0  0  0  0
   61.9047   29.9985   47.6276 H   0  0  0  0  0  0  0  0  0  0  0  0
   64.1768   30.9139   47.0763 H   0  0  0  0  0  0  0  0  0  0  0  0
   64.4589   33.3906   46.8942 H   0  0  0  0  0  0  0  0  0  0  0  0
   62.5546   34.9251   47.2416 H   0  0  0  0  0  0  0  0  0  0  0  0
   59.4578   33.8150   48.7677 H   0  0  0  0  0  0  0  0  0  0  0  0
   60.3108   35.2049   47.9473 H   0  0  0  0  0  0  0  0  0  0  0  0
   57.8096   33.0095   47.9701 H   0  0  0  0  0  0  0  0  0  0  0  0
   57.0831   34.4765   47.1154 H   0  0  0  0  0  0  0  0  0  0  0  0
   57.4837   31.7036   46.1850 H   0  0  0  0  0  0  0  0  0  0  0  0
   56.0763   32.8967   46.0468 H   0  0  0  0  0  0  0  0  0  0  0  0
   57.7668   31.9669   42.8515 H   0  0  0  0  0  0  0  0  0  0  0  0
   59.1287   31.8422   44.0016 H   0  0  0  0  0  0  0  0  0  0  0  0
   55.2841   30.7645   43.9571 H   0  0  0  0  0  0  0  0  0  0  0  0
   55.1470   28.5180   45.2560 H   0  0  0  0  0  0  0  0  0  0  0  0
   56.8874   26.8936   46.6121 H   0  0  0  0  0  0  0  0  0  0  0  0
   59.2692   26.6595   47.2896 H   0  0  0  0  0  0  0  0  0  0  0  0
   60.9398   28.3939   46.6476 H   0  0  0  0  0  0  0  0  0  0  0  0
   60.1838   30.3595   45.3105 H   0  0  0  0  0  0  0  0  0  0  0  0
   58.7796   34.2225   43.4726 H   0  0  0  0  0  0  0  0  0  0  0  0
   57.8931   35.1083   44.7301 H   0  0  0  0  0  0  0  0  0  0  0  0
   59.9402   32.8848   45.3761 H   0  0  0  0  0  0  0  0  0  0  0  0
   60.4149   34.5868   45.2734 H   0  0  0  0  0  0  0  0  0  0  0  0
  1  2  1  0
  2  3  1  0
  3  4  2  0
  4  5  1  0
  5  6  2  0
  6  7  1  0
  7  8  2  0
  8  9  1  0
  9 10  1  0
 10 11  1  0
 11 12  1  0
 12 13  1  0
 13 14  1  0
 14 15  1  0
 15 16  2  0
 16 17  1  0
 17 18  1  0
 18 19  2  0
 19 20  1  0
 20 21  2  0
 21 22  1  0
 22 23  2  0
 13 24  1  0
 24 25  1  0
  8  3  1  0
 25 10  1  0
 23 15  1  0
 23 18  1  0
  1 26  1  0
  1 27  1  0
  1 28  1  0
  4 29  1  0
  5 30  1  0
  6 31  1  0
  7 32  1  0
  9 33  1  0
  9 34  1  0
 11 35  1  0
 11 36  1  0
 12 37  1  0
 12 38  1  0
 14 39  1  0
 14 40  1  0
 16 41  1  0
 17 42  1  0
 19 43  1  0
 20 44  1  0
 21 45  1  0
 22 46  1  0
 24 47  1  0
 24 48  1  0
 25 49  1  0
 25 50  1  0
M  END
>  <smiles>  (4) 
COc1ccccc1CN1CCN(Cc2c[nH]c3ccccc23)CC1

>  <score_type>  (4) 
oracle

>  <origin>  (4) 
adg

>  <m_score__min__energy>  (4) 
-9.0500000000000007

>  <m_primary>  (4) 
energy

$$$$
4:0
     RDKit          3D

 39 40  0  0  0  0  0  0  0  0999 V2000
   60.4810   30.5160   46.8550 C   0  0  0  0  0  0  0  0  0  0  0  0
   59.1400   30.3950   47.5310 C   0  0  0  0  0  0  0  0  0  0  0  0
   58.1410   31.1730   46.9490 O   0  0  0  0  0  0  0  0  0  0  0  0
   58.4390   32.4440   46.4880 C   0  0  0  0  0  0  0  0  0  0  0  0
   58.9640   33.3380   47.3380 N   0  0  0  0  0  0  0  0  0  0  0  0
   59.2780   34.5830   46.9500 C   0  0  0  0  0  0  0  0  0  0  0  0
   59.0610   34.9710   45.6450 C   0  0  0  0  0  0  0  0  0  0  0  0
   58.5210   34.0520   44.7760 C   0  0  0  0  0  0  0  0  0  0  0  0
   58.1890   32.7500   45.1740 C   0  0  0  0  0  0  0  0  0  0  0  0
   57.5900   31.8830   44.1680 C   0  0  0  0  0  0  0  0  0  0  0  0
   56.4820   31.1330   44.6680 N   0  0  0  0  0  0  0  0  0  0  0  0
   55.9160   30.1230   43.8380 C   0  0  0  0  0  0  0  0  0  0  0  0
   56.9820   29.1680   43.2950 C   0  0  0  0  0  0  0  0  0  0  0  0
   57.6030   28.4430   44.4210 C   0  0  0  0  0  0  0  0  0  0  0  0
   57.0760   27.8430   45.5140 C   0  0  0  0  0  0  0  0  0  0  0  0
   57.8910   27.2450   46.3910 C   0  0  0  0  0  0  0  0  0  0  0  0
   59.2320   27.2560   46.1580 C   0  0  0  0  0  0  0  0  0  0  0  0
   60.3950   26.7360   46.8520 C   0  0  0  0  0  0  0  0  0  0  0  0
   59.3630   28.2040   44.5420 S   0  0  0  0  0  0  0  0  0  0  0  0
   61.2708   30.5873   47.6173 H   0  0  0  0  0  0  0  0  0  0  0  0
   60.6564   29.6300   46.2271 H   0  0  0  0  0  0  0  0  0  0  0  0
   60.4949   31.4191   46.2271 H   0  0  0  0  0  0  0  0  0  0  0  0
   58.8259   29.3416   47.4908 H   0  0  0  0  0  0  0  0  0  0  0  0
   59.2682   30.7590   48.5611 H   0  0  0  0  0  0  0  0  0  0  0  0
   59.7079   35.2931   47.6717 H   0  0  0  0  0  0  0  0  0  0  0  0
   59.3128   35.9874   45.3082 H   0  0  0  0  0  0  0  0  0  0  0  0
   58.3435   34.3494   43.7319 H   0  0  0  0  0  0  0  0  0  0  0  0
   57.2428   32.5055   43.3302 H   0  0  0  0  0  0  0  0  0  0  0  0
   58.3597   31.1634   43.8524 H   0  0  0  0  0  0  0  0  0  0  0  0
   56.6500   30.7400   45.6200 H   0  0  0  0  0  0  0  0  0  0  0  0
   55.1877   29.5457   44.4265 H   0  0  0  0  0  0  0  0  0  0  0  0
   55.4319   30.6162   42.9822 H   0  0  0  0  0  0  0  0  0  0  0  0
   56.5149   28.4482   42.6068 H   0  0  0  0  0  0  0  0  0  0  0  0
   57.7506   29.7405   42.7552 H   0  0  0  0  0  0  0  0  0  0  0  0
   55.9886   27.8469   45.6797 H   0  0  0  0  0  0  0  0  0  0  0  0
   57.4836   26.7523   47.2861 H   0  0  0  0  0  0  0  0  0  0  0  0
   60.2360   26.8071   47.9381 H   0  0  0  0  0  0  0  0  0  0  0  0
   60.5488   25.6834   46.5720 H   0  0  0  0  0  0  0  0  0  0  0  0
   61.2820   27.3232   46.5720 H   0  0  0  0  0  0  0  0  0  0  0  0
  1  2  1  0
  2  3  1  0
  3  4  1  0
  4  5  2  0
  5  6  1  0
  6  7  2  0
  7  8  1  0
  8  9  2  0
  9 10  1  0
 10 11  1  0
 11 12  1  0
 12 13  1  0
 13 14  1  0
 14 15  2  0
 15 16  1  0
 16 17  2  0
 17 18  1  0
 17 19  1  0
  9  4  1  0
 19 14  1  0
  1 20  1  0
  1 21  1  0
  1 22  1  0
  2 23  1  0
  2 24  1  0
  6 25  1  0
  7 26  1  0
  8 27  1  0
 10 28  1  0
 10 29  1  0
 11 30  1  0
 12 31  1  0
 12 32  1  0
 13 33  1  0
 13 34  1  0
 15 35  1  0
 16 36  1  0
 18 37  1  0
 18 38  1  0
 18 39  1  0
M  END
>  <smiles>  (5) 
CCOc1ncccc1CNCCc1ccc(C)s1

>  <score_type>  (5) 
oracle

>  <origin>  (5) 
adg

>  <m_score__min__energy>  (5) 
-7.0899999999999999

>  <m_primary>  (5) 
energy

$$$$
5:0
     RDKit          3D

 39 41  0  0  0  0  0  0  0  0999 V2000
   58.1770   32.3950   42.6160 C   0  0  0  0  0  0  0  0  0  0  0  0
   57.6870   33.4270   43.4550 O   0  0  0  0  0  0  0  0  0  0  0  0
   58.3350   33.6450   44.6670 C   0  0  0  0  0  0  0  0  0  0  0  0
   58.9990   34.8110   44.9390 C   0  0  0  0  0  0  0  0  0  0  0  0
   59.6450   35.0420   46.1360 C   0  0  0  0  0  0  0  0  0  0  0  0
   59.6230   34.0540   47.1060 C   0  0  0  0  0  0  0  0  0  0  0  0
   58.9670   32.8620   46.8770 C   0  0  0  0  0  0  0  0  0  0  0  0
   58.9250   31.8490   47.8290 O   0  0  0  0  0  0  0  0  0  0  0  0
   58.9910   32.2190   49.1940 C   0  0  0  0  0  0  0  0  0  0  0  0
   58.3210   32.6550   45.6550 C   0  0  0  0  0  0  0  0  0  0  0  0
   57.6410   31.3940   45.4480 C   0  0  0  0  0  0  0  0  0  0  0  0
   56.4280   31.2450   44.8550 N   0  0  0  0  0  0  0  0  0  0  0  0
   56.1520   29.9570   44.8520 N   0  0  0  0  0  0  0  0  0  0  0  0
   57.1650   29.2900   45.4310 C   0  0  0  0  0  0  0  0  0  0  0  0
   57.2600   27.8480   45.6310 C   0  0  0  0  0  0  0  0  0  0  0  0
   58.3930   27.3170   45.7700 O   0  0  0  0  0  0  0  0  0  0  0  0
   56.0870   27.0570   45.6690 N   0  0  0  0  0  0  0  0  0  0  0  0
   56.2830   25.6440   45.8700 C   0  0  0  0  0  0  0  0  0  0  0  0
   56.3580   24.7860   44.7860 C   0  0  0  0  0  0  0  0  0  0  0  0
   56.5460   23.4220   44.9460 C   0  0  0  0  0  0  0  0  0  0  0  0
   56.6580   22.9290   46.2410 C   0  0  0  0  0  0  0  0  0  0  0  0
   56.5800   23.7980   47.3100 C   0  0  0  0  0  0  0  0  0  0  0  0
   56.3950   25.1560   47.1740 C   0  0  0  0  0  0  0  0  0  0  0  0
   58.0530   30.1880   45.7810 O   0  0  0  0  0  0  0  0  0  0  0  0
   58.5671   31.5735   43.2349 H   0  0  0  0  0  0  0  0  0  0  0  0
   57.3608   32.0201   41.9810 H   0  0  0  0  0  0  0  0  0  0  0  0
   58.9834   32.7905   41.9810 H   0  0  0  0  0  0  0  0  0  0  0  0
   59.0183   35.5974   44.1701 H   0  0  0  0  0  0  0  0  0  0  0  0
   60.1676   35.9930   46.3164 H   0  0  0  0  0  0  0  0  0  0  0  0
   60.1325   34.2208   48.0665 H   0  0  0  0  0  0  0  0  0  0  0  0
   58.8325   31.3305   49.8228 H   0  0  0  0  0  0  0  0  0  0  0  0
   59.9801   32.6493   49.4099 H   0  0  0  0  0  0  0  0  0  0  0  0
   58.2117   32.9647   49.4099 H   0  0  0  0  0  0  0  0  0  0  0  0
   55.1430   27.4780   45.5560 H   0  0  0  0  0  0  0  0  0  0  0  0
   56.2659   25.1979   43.7702 H   0  0  0  0  0  0  0  0  0  0  0  0
   56.6047   22.7512   44.0762 H   0  0  0  0  0  0  0  0  0  0  0  0
   56.8079   21.8528   46.4124 H   0  0  0  0  0  0  0  0  0  0  0  0
   56.6704   23.3840   48.3251 H   0  0  0  0  0  0  0  0  0  0  0  0
   56.3383   25.8222   48.0475 H   0  0  0  0  0  0  0  0  0  0  0  0
  1  2  1  0
  2  3  1  0
  3  4  2  0
  4  5  1  0
  5  6  2  0
  6  7  1  0
  7  8  1  0
  8  9  1  0
  7 10  2  0
 10 11  1  0
 11 12  2  0
 12 13  1  0
 13 14  2  0
 14 15  1  0
 15 16  2  0
 15 17  1  0
 17 18  1  0
 18 19  2  0
 19 20  1  0
 20 21  2  0
 21 22  1  0
 22 23  2  0
 14 24  1  0
 10  3  1  0
 24 11  1  0
 23 18  1  0
  1 25  1  0
  1 26  1  0
  1 27  1  0
  4 28  1  0
  5 29  1  0
  6 30  1  0
  9 31  1  0
  9 32  1  0
  9 33  1  0
 17 34  1  0
 19 35  1  0
 20 36  1  0
 21 37  1  0
 22 38  1  0
 23 39  1  0
M  END
>  <smiles>  (6) 
COc1cccc(OC)c1-c1nnc(C(=O)Nc2ccccc2)o1

>  <score_type>  (6) 
oracle

>  <origin>  (6) 
adg

>  <m_score__min__energy>  (6) 
-6.9500000000000002

>  <m_primary>  (6) 
energy

$$$$
6:0
     RDKit          3D

 30 31  0  0  0  0  0  0  0  0999 V2000
   56.2840   29.7240   42.6870 C   0  0  0  0  0  0  0  0  0  0  0  0
   56.5940   29.9060   44.1330 C   0  0  0  0  0  0  0  0  0  0  0  0
   56.4660   31.2150   44.6060 O   0  0  0  0  0  0  0  0  0  0  0  0
   57.4030   31.9740   45.2460 C   0  0  0  0  0  0  0  0  0  0  0  0
   57.3890   33.3500   44.9960 C   0  0  0  0  0  0  0  0  0  0  0  0
   58.3060   34.1810   45.6070 C   0  0  0  0  0  0  0  0  0  0  0  0
   59.2650   33.7030   46.4790 C   0  0  0  0  0  0  0  0  0  0  0  0
   60.1630   34.5880   47.0640 O   0  0  0  0  0  0  0  0  0  0  0  0
   61.3900   34.1840   47.5930 C   0  0  0  0  0  0  0  0  0  0  0  0
   61.6260   34.1600   48.9640 C   0  0  0  0  0  0  0  0  0  0  0  0
   62.8720   33.7450   49.4050 C   0  0  0  0  0  0  0  0  0  0  0  0
   63.8300   33.3720   48.4840 C   0  0  0  0  0  0  0  0  0  0  0  0
   63.6090   33.3920   47.1180 C   0  0  0  0  0  0  0  0  0  0  0  0
   62.3570   33.8090   46.6820 C   0  0  0  0  0  0  0  0  0  0  0  0
   59.2860   32.3390   46.7340 C   0  0  0  0  0  0  0  0  0  0  0  0
   58.3580   31.4920   46.1160 C   0  0  0  0  0  0  0  0  0  0  0  0
   55.3398   29.1697   42.5814 H   0  0  0  0  0  0  0  0  0  0  0  0
   56.1870   30.7085   42.2061 H   0  0  0  0  0  0  0  0  0  0  0  0
   57.0964   29.1595   42.2061 H   0  0  0  0  0  0  0  0  0  0  0  0
   55.9110   29.2663   44.7112 H   0  0  0  0  0  0  0  0  0  0  0  0
   57.6538   29.6379   44.2555 H   0  0  0  0  0  0  0  0  0  0  0  0
   56.6422   33.7727   44.3078 H   0  0  0  0  0  0  0  0  0  0  0  0
   58.2722   35.2594   45.3926 H   0  0  0  0  0  0  0  0  0  0  0  0
   60.8453   34.4620   49.6776 H   0  0  0  0  0  0  0  0  0  0  0  0
   63.0963   33.7130   50.4814 H   0  0  0  0  0  0  0  0  0  0  0  0
   64.8133   33.0441   48.8523 H   0  0  0  0  0  0  0  0  0  0  0  0
   64.3920   33.0903   46.4067 H   0  0  0  0  0  0  0  0  0  0  0  0
   62.1354   33.8404   45.6050 H   0  0  0  0  0  0  0  0  0  0  0  0
   60.0343   31.9218   47.4240 H   0  0  0  0  0  0  0  0  0  0  0  0
   58.3917   30.4136   46.3302 H   0  0  0  0  0  0  0  0  0  0  0  0
  1  2  1  0
  2  3  1  0
  3  4  1  0
  4  5  2  0
  5  6  1  0
  6  7  2  0
  7  8  1  0
  8  9  1  0
  9 10  2  0
 10 11  1  0
 11 12  2  0
 12 13  1  0
 13 14  2  0
  7 15  1  0
 15 16  2  0
 16  4  1  0
 14  9  1  0
  1 17  1  0
  1 18  1  0
  1 19  1  0
  2 20  1  0
  2 21  1  0
  5 22  1  0
  6 23  1  0
 10 24  1  0
 11 25  1  0
 12 26  1  0
 13 27  1  0
 14 28  1  0
 15 29  1  0
 16 30  1  0
M  END
>  <smiles>  (7) 
CCOc1ccc(Oc2ccccc2)cc1

>  <score_type>  (7) 
oracle

>  <origin>  (7) 
adg

>  <m_score__min__energy>  (7) 
-6.0099999999999998

>  <m_primary>  (7) 
energy

$$$$
7:0
     RDKit          3D

 47 48  0  0  0  0  0  0  0  0999 V2000
   56.3380   29.7600   42.7370 C   0  0  0  0  0  0  0  0  0  0  0  0
   55.9220   30.4550   44.0270 C   0  0  0  0  0  0  0  0  0  0  0  0
   57.0140   30.6970   44.8980 N   0  0  0  0  0  0  0  0  0  0  0  0
   57.4300   32.1070   44.8740 C   0  0  0  0  0  0  0  0  0  0  0  0
   58.1470   29.8430   44.8010 C   0  0  0  0  0  0  0  0  0  0  0  0
   58.0100   28.6350   45.5880 C   0  0  0  0  0  0  0  0  0  0  0  0
   56.8200   27.9070   45.5290 C   0  0  0  0  0  0  0  0  0  0  0  0
   56.6300   26.7370   46.2200 C   0  0  0  0  0  0  0  0  0  0  0  0
   55.4110   26.0850   46.0960 O   0  0  0  0  0  0  0  0  0  0  0  0
   55.3960   24.7700   45.6210 C   0  0  0  0  0  0  0  0  0  0  0  0
   57.6490   26.2330   47.0190 C   0  0  0  0  0  0  0  0  0  0  0  0
   58.8330   26.9230   47.1030 C   0  0  0  0  0  0  0  0  0  0  0  0
   58.9930   28.0960   46.3960 C   0  0  0  0  0  0  0  0  0  0  0  0
   60.2280   28.7510   46.5350 O   0  0  0  0  0  0  0  0  0  0  0  0
   60.3240   29.9810   47.1620 C   0  0  0  0  0  0  0  0  0  0  0  0
   61.3630   30.8230   46.8220 C   0  0  0  0  0  0  0  0  0  0  0  0
   61.4370   32.0540   47.4680 C   0  0  0  0  0  0  0  0  0  0  0  0
   62.5440   32.9890   47.1260 C   0  0  0  0  0  0  0  0  0  0  0  0
   60.5100   32.4330   48.4160 C   0  0  0  0  0  0  0  0  0  0  0  0
   59.4710   31.5720   48.7450 C   0  0  0  0  0  0  0  0  0  0  0  0
   58.4480   31.9460   49.7670 C   0  0  0  0  0  0  0  0  0  0  0  0
   59.3890   30.3480   48.1110 C   0  0  0  0  0  0  0  0  0  0  0  0
   56.8892   28.8391   42.9780 H   0  0  0  0  0  0  0  0  0  0  0  0
   55.4420   29.5082   42.1507 H   0  0  0  0  0  0  0  0  0  0  0  0
   56.9832   30.4308   42.1507 H   0  0  0  0  0  0  0  0  0  0  0  0
   55.4554   31.4181   43.7725 H   0  0  0  0  0  0  0  0  0  0  0  0
   55.2219   29.7880   44.5514 H   0  0  0  0  0  0  0  0  0  0  0  0
   57.5385   32.4749   45.9050 H   0  0  0  0  0  0  0  0  0  0  0  0
   58.3928   32.1964   44.3495 H   0  0  0  0  0  0  0  0  0  0  0  0
   56.6699   32.7047   44.3495 H   0  0  0  0  0  0  0  0  0  0  0  0
   58.2853   29.5615   43.7467 H   0  0  0  0  0  0  0  0  0  0  0  0
   59.0128   30.3967   45.1933 H   0  0  0  0  0  0  0  0  0  0  0  0
   56.0002   28.2876   44.9020 H   0  0  0  0  0  0  0  0  0  0  0  0
   55.3880   24.0729   46.4719 H   0  0  0  0  0  0  0  0  0  0  0  0
   54.4960   24.6116   45.0087 H   0  0  0  0  0  0  0  0  0  0  0  0
   56.2922   24.5911   45.0087 H   0  0  0  0  0  0  0  0  0  0  0  0
   57.5091   25.2949   47.5761 H   0  0  0  0  0  0  0  0  0  0  0  0
   59.6509   26.5415   47.7319 H   0  0  0  0  0  0  0  0  0  0  0  0
   62.1073   30.5315   46.0664 H   0  0  0  0  0  0  0  0  0  0  0  0
   62.9986   33.3730   48.0511 H   0  0  0  0  0  0  0  0  0  0  0  0
   63.3052   32.4563   46.5371 H   0  0  0  0  0  0  0  0  0  0  0  0
   62.1461   33.8286   46.5371 H   0  0  0  0  0  0  0  0  0  0  0  0
   60.5930   33.4127   48.9093 H   0  0  0  0  0  0  0  0  0  0  0  0
   58.8634   31.7942   50.7742 H   0  0  0  0  0  0  0  0  0  0  0  0
   58.1720   33.0032   49.6397 H   0  0  0  0  0  0  0  0  0  0  0  0
   57.5552   31.3161   49.6397 H   0  0  0  0  0  0  0  0  0  0  0  0
   58.5707   29.6578   48.3641 H   0  0  0  0  0  0  0  0  0  0  0  0
  1  2  1  0
  2  3  1  0
  3  4  1  0
  3  5  1  0
  5  6  1  0
  6  7  2  0
  7  8  1  0
  8  9  1  0
  9 10  1  0
  8 11  2  0
 11 12  1  0
 12 13  2  0
 13 14  1  0
 14 15  1  0
 15 16  2  0
 16 17  1  0
 17 18  1  0
 17 19  2  0
 19 20  1  0
 20 21  1  0
 20 22  2  0
 13  6  1  0
 22 15  1  0
  1 23  1  0
  1 24  1  0
  1 25  1  0
  2 26  1  0
  2 27  1  0
  4 28  1  0
  4 29  1  0
  4 30  1  0
  5 31  1  0
  5 32  1  0
  7 33  1  0
 10 34  1  0
 10 35  1  0
 10 36  1  0
 11 37  1  0
 12 38  1  0
 16 39  1  0
 18 40  1  0
 18 41  1  0
 18 42  1  0
 19 43  1  0
 21 44  1  0
 21 45  1  0
 21 46  1  0
 22 47  1  0
M  END
>  <smiles>  (8) 
CCN(C)Cc1cc(OC)ccc1Oc1cc(C)cc(C)c1

>  <score_type>  (8) 
oracle

>  <origin>  (8) 
adg

>  <m_score__min__energy>  (8) 
-6.8899999999999997

>  <m_primary>  (8) 
energy

$$$$
8:0
     RDKit          3D

 49 52  0  0  1  0  0  0  0  0999 V2000
   59.6620   35.2590   46.1470 C   0  0  0  0  0  0  0  0  0  0  0  0
   59.2350   34.6000   47.4420 C   0  0  0  0  0  0  0  0  0  0  0  0
   60.0310   33.4630   47.7730 N   0  0  0  0  0  0  0  0  0  0  0  0
   61.4150   33.5710   47.4190 C   0  0  0  0  0  0  0  0  0  0  0  0
   59.7840   32.8450   49.0300 C   0  0  0  0  0  0  0  0  0  0  0  0
   60.3040   31.4670   49.2240 C   0  0  0  0  0  0  0  0  0  0  0  0
   59.0790   30.5400   49.1800 C   0  0  0  0  0  0  0  0  0  0  0  0
   59.1080   29.6300   48.0920 N   0  0  0  0  0  0  0  0  0  0  0  0
   58.7170   29.9040   46.9040 C   0  0  0  0  0  0  0  0  0  0  0  0
   58.7500   31.1480   46.4070 N   0  0  0  0  0  0  0  0  0  0  0  0
   58.3230   31.3830   45.1620 C   0  0  0  0  0  0  0  0  0  0  0  0
   58.3590   32.6680   44.6640 C   0  0  0  0  0  0  0  0  0  0  0  0
   57.9390   33.0000   43.3970 C   0  0  0  0  0  0  0  0  0  0  0  0
   57.4540   31.9690   42.5910 C   0  0  0  0  0  0  0  0  0  0  0  0
   57.4020   30.6650   43.0570 C   0  0  0  0  0  0  0  0  0  0  0  0
   57.8390   30.3660   44.3540 C   0  0  0  0  0  0  0  0  0  0  0  0
   57.7860   29.0670   44.8210 C   0  0  0  0  0  0  0  0  0  0  0  0
   57.3810   27.9020   44.2850 N   0  0  0  0  0  0  0  0  0  0  0  0
   57.5690   26.9600   45.2220 C   0  0  0  0  0  0  0  0  0  0  0  0
   57.3080   25.6060   45.1470 C   0  0  0  0  0  0  0  0  0  0  0  0
   57.5610   24.7390   46.2130 C   0  0  0  0  0  0  0  0  0  0  0  0
   58.0890   25.3220   47.3450 C   0  0  0  0  0  0  0  0  0  0  0  0
   58.3570   26.6740   47.4390 C   0  0  0  0  0  0  0  0  0  0  0  0
   58.0980   27.5100   46.3710 C   0  0  0  0  0  0  0  0  0  0  0  0
   58.2380   28.8650   46.1150 C   0  0  0  0  0  0  0  0  0  0  0  0
   60.2476   36.1628   46.3712 H   0  0  0  0  0  0  0  0  0  0  0  0
   60.2780   34.5580   45.5646 H   0  0  0  0  0  0  0  0  0  0  0  0
   58.7705   35.5348   45.5646 H   0  0  0  0  0  0  0  0  0  0  0  0
   59.3186   35.3361   48.2551 H   0  0  0  0  0  0  0  0  0  0  0  0
   58.1997   34.2523   47.3108 H   0  0  0  0  0  0  0  0  0  0  0  0
   62.0247   33.6186   48.3333 H   0  0  0  0  0  0  0  0  0  0  0  0
   61.7114   32.6932   46.8259 H   0  0  0  0  0  0  0  0  0  0  0  0
   61.5716   34.4841   46.8259 H   0  0  0  0  0  0  0  0  0  0  0  0
   60.2354   33.4811   49.8056 H   0  0  0  0  0  0  0  0  0  0  0  0
   58.6900   32.7453   49.0863 H   0  0  0  0  0  0  0  0  0  0  0  0
   61.0082   31.2078   48.4197 H   0  0  0  0  0  0  0  0  0  0  0  0
   60.8462   31.3721   50.1764 H   0  0  0  0  0  0  0  0  0  0  0  0
   59.0417   29.9645   50.1167 H   0  0  0  0  0  0  0  0  0  0  0  0
   58.1909   31.1762   49.0516 H   0  0  0  0  0  0  0  0  0  0  0  0
   59.1050   31.9090   46.9810 H   0  0  0  0  0  0  0  0  0  0  0  0
   58.7432   33.4687   45.3130 H   0  0  0  0  0  0  0  0  0  0  0  0
   57.9836   34.0372   43.0334 H   0  0  0  0  0  0  0  0  0  0  0  0
   57.1081   32.1947   41.5715 H   0  0  0  0  0  0  0  0  0  0  0  0
   57.0174   29.8643   42.4082 H   0  0  0  0  0  0  0  0  0  0  0  0
   56.9890   27.7560   43.3150 H   0  0  0  0  0  0  0  0  0  0  0  0
   56.8869   25.1964   44.2170 H   0  0  0  0  0  0  0  0  0  0  0  0
   57.3523   23.6607   46.1528 H   0  0  0  0  0  0  0  0  0  0  0  0
   58.3068   24.6819   48.2126 H   0  0  0  0  0  0  0  0  0  0  0  0
   58.7782   27.0860   48.3679 H   0  0  0  0  0  0  0  0  0  0  0  0
  1  2  1  0
  2  3  1  0
  3  4  1  0
  3  5  1  0
  5  6  1  0
  6  7  1  0
  7  8  1  0
  8  9  2  0
  9 10  1  0
 10 11  1  0
 11 12  2  0
 12 13  1  0
 13 14  2  0
 14 15  1  0
 15 16  2  0
 16 17  1  0
 17 18  1  0
 18 19  1  0
 19 20  2  0
 20 21  1  0
 21 22  2  0
 22 23  1  0
 23 24  2  0
 24 25  1  0
 25  9  1  0
 16 11  1  0
 25 17  2  0
 24 19  1  0
  1 26  1  0
  1 27  1  0
  1 28  1  0
  2 29  1  0
  2 30  1  0
  4 31  1  0
  4 32  1  0
  4 33  1  0
  5 34  1  0
  5 35  1  0
  6 36  1  0
  6 37  1  0
  7 38  1  0
  7 39  1  0
 10 40  1  0
 12 41  1  0
 13 42  1  0
 14 43  1  0
 15 44  1  0
 18 45  1  0
 20 46  1  0
 21 47  1  0
 22 48  1  0
 23 49  1  0
M  END
>  <smiles>  (9) 
CCN(C)CCCN=c1[nH]c2ccccc2c2[nH]c3ccccc3c12

>  <score_type>  (9) 
oracle

>  <origin>  (9) 
adg

>  <m_score__min__energy>  (9) 
-7.6900000000000004

>  <m_primary>  (9) 
energy

$$$$
9:0
     RDKit          3D

 40 42  0  0  1  0  0  0  0  0999 V2000
   55.5170   29.7210   43.3130 C   0  0  0  0  0  0  0  0  0  0  0  0
   56.5270   29.7430   44.3870 C   0  0  0  0  0  0  0  0  0  0  0  0
   57.0630   30.8680   44.8740 N   0  0  0  0  0  0  0  0  0  0  0  0
   57.9890   30.8830   45.8570 C   0  0  0  0  0  0  0  0  0  0  0  0
   58.2340   31.9320   46.3870 N   0  0  0  0  0  0  0  0  0  0  0  0
   57.8250   32.8940   47.1660 C   0  0  0  0  0  0  0  0  0  0  0  0
   57.2350   33.8900   46.0080 C   0  0  0  0  0  0  0  0  0  0  0  0
   58.1810   33.8430   44.8710 C   0  0  0  0  0  0  0  0  0  0  0  0
   59.6180   33.9730   45.3350 C   0  0  0  0  0  0  0  0  0  0  0  0
   59.5470   34.6900   46.6610 C   0  0  0  0  0  0  0  0  0  0  0  0
   58.9450   33.8300   47.6810 C   0  0  0  0  0  0  0  0  0  0  0  0
   58.4860   29.7050   46.4500 C   0  0  0  0  0  0  0  0  0  0  0  0
   59.3970   29.5490   47.3970 C   0  0  0  0  0  0  0  0  0  0  0  0
   60.4510   30.4140   48.0440 C   0  0  0  0  0  0  0  0  0  0  0  0
   59.6100   28.1560   47.7540 C   0  0  0  0  0  0  0  0  0  0  0  0
   60.4590   27.5780   48.7720 C   0  0  0  0  0  0  0  0  0  0  0  0
   58.5750   27.1570   46.7630 S   0  0  0  0  0  0  0  0  0  0  0  0
   57.8830   28.6040   45.9040 C   0  0  0  0  0  0  0  0  0  0  0  0
   56.9500   28.5960   44.9220 N   0  0  0  0  0  0  0  0  0  0  0  0
   54.5106   29.6991   43.7565 H   0  0  0  0  0  0  0  0  0  0  0  0
   55.6239   30.6217   42.6906 H   0  0  0  0  0  0  0  0  0  0  0  0
   55.6630   28.8258   42.6906 H   0  0  0  0  0  0  0  0  0  0  0  0
   57.2415   32.4845   48.0038 H   0  0  0  0  0  0  0  0  0  0  0  0
   56.2406   33.5471   45.6860 H   0  0  0  0  0  0  0  0  0  0  0  0
   57.1319   34.9165   46.3896 H   0  0  0  0  0  0  0  0  0  0  0  0
   58.0608   32.8839   44.3460 H   0  0  0  0  0  0  0  0  0  0  0  0
   57.9576   34.6875   44.2025 H   0  0  0  0  0  0  0  0  0  0  0  0
   60.0740   32.9796   45.4584 H   0  0  0  0  0  0  0  0  0  0  0  0
   60.2354   34.5193   44.6068 H   0  0  0  0  0  0  0  0  0  0  0  0
   60.5635   34.9677   46.9765 H   0  0  0  0  0  0  0  0  0  0  0  0
   58.9252   35.5899   46.5443 H   0  0  0  0  0  0  0  0  0  0  0  0
   59.7402   33.2053   48.1140 H   0  0  0  0  0  0  0  0  0  0  0  0
   58.4729   34.5027   48.4122 H   0  0  0  0  0  0  0  0  0  0  0  0
   60.3634   30.3421   49.1381 H   0  0  0  0  0  0  0  0  0  0  0  0
   61.4487   30.0709   47.7327 H   0  0  0  0  0  0  0  0  0  0  0  0
   60.3091   31.4595   47.7327 H   0  0  0  0  0  0  0  0  0  0  0  0
   60.0708   27.8423   49.7667 H   0  0  0  0  0  0  0  0  0  0  0  0
   60.4706   26.4836   48.6618 H   0  0  0  0  0  0  0  0  0  0  0  0
   61.4815   27.9684   48.6618 H   0  0  0  0  0  0  0  0  0  0  0  0
   56.5490   27.7180   44.5690 H   0  0  0  0  0  0  0  0  0  0  0  0
  1  2  1  0
  2  3  2  0
  3  4  1  0
  4  5  2  0
  5  6  1  0
  6  7  1  0
  7  8  1  0
  8  9  1  0
  9 10  1  0
 10 11  1  0
  4 12  1  0
 12 13  1  0
 13 14  1  0
 13 15  2  0
 15 16  1  0
 15 17  1  0
 17 18  1  0
 18 19  1  0
 19  2  1  0
 11  6  1  0
 18 12  2  0
  1 20  1  0
  1 21  1  0
  1 22  1  0
  6 23  1  0
  7 24  1  0
  7 25  1  0
  8 26  1  0
  8 27  1  0
  9 28  1  0
  9 29  1  0
 10 30  1  0
 10 31  1  0
 11 32  1  0
 11 33  1  0
 14 34  1  0
 14 35  1  0
 14 36  1  0
 16 37  1  0
 16 38  1  0
 16 39  1  0
 19 40  1  0
M  END
>  <smiles>  (10) 
Cc1nc(=NC2CCCCC2)c2c(C)c(C)sc2[nH]1

>  <score_type>  (10) 
oracle

>  <origin>  (10) 
adg

>  <m_score__min__energy>  (10) 
-8.0299999999999994

>  <m_primary>  (10) 
energy

$$$$
10:0
     RDKit          3D

 41 42  0  0  0  0  0  0  0  0999 V2000
   61.7990   33.8450   46.7440 C   0  0  0  0  0  0  0  0  0  0  0  0
   60.7220   34.2940   47.6700 C   0  0  0  0  0  0  0  0  0  0  0  0
   59.5320   34.7930   47.0180 N   0  0  0  0  0  0  0  0  0  0  0  0
   59.9760   35.7160   46.0000 C   0  0  0  0  0  0  0  0  0  0  0  0
   58.6480   33.7910   46.5650 C   0  0  0  0  0  0  0  0  0  0  0  0
   58.6950   33.5710   45.0650 C   0  0  0  0  0  0  0  0  0  0  0  0
   57.3780   32.8540   44.7610 C   0  0  0  0  0  0  0  0  0  0  0  0
   57.2350   31.6430   45.4590 N   0  0  0  0  0  0  0  0  0  0  0  0
   56.9530   30.2910   44.4310 S   0  0  0  0  0  0  0  0  0  0  0  0
   55.4870   29.9770   44.4850 O   0  0  0  0  0  0  0  0  0  0  0  0
   57.3560   30.6800   43.0400 O   0  0  0  0  0  0  0  0  0  0  0  0
   57.8580   28.9050   44.9860 C   0  0  0  0  0  0  0  0  0  0  0  0
   57.2890   27.8170   45.5960 C   0  0  0  0  0  0  0  0  0  0  0  0
   58.0940   26.7750   45.9970 C   0  0  0  0  0  0  0  0  0  0  0  0
   59.4750   26.8030   45.7970 C   0  0  0  0  0  0  0  0  0  0  0  0
   60.0550   27.8880   45.1880 C   0  0  0  0  0  0  0  0  0  0  0  0
   59.2230   28.9220   44.7940 C   0  0  0  0  0  0  0  0  0  0  0  0
   58.1480   31.3430   46.4980 C   0  0  0  0  0  0  0  0  0  0  0  0
   58.8880   32.4260   47.1540 C   0  0  0  0  0  0  0  0  0  0  0  0
   62.6591   33.4864   47.3284 H   0  0  0  0  0  0  0  0  0  0  0  0
   61.4210   33.0295   46.1099 H   0  0  0  0  0  0  0  0  0  0  0  0
   62.1122   34.6875   46.1099 H   0  0  0  0  0  0  0  0  0  0  0  0
   60.4343   33.4397   48.3004 H   0  0  0  0  0  0  0  0  0  0  0  0
   61.1373   35.1357   48.2437 H   0  0  0  0  0  0  0  0  0  0  0  0
   60.4057   36.6092   46.4771 H   0  0  0  0  0  0  0  0  0  0  0  0
   60.7396   35.2316   45.3737 H   0  0  0  0  0  0  0  0  0  0  0  0
   59.1209   36.0103   45.3737 H   0  0  0  0  0  0  0  0  0  0  0  0
   57.6792   34.1957   46.8932 H   0  0  0  0  0  0  0  0  0  0  0  0
   58.7518   34.5303   44.5296 H   0  0  0  0  0  0  0  0  0  0  0  0
   59.5766   32.9954   44.7464 H   0  0  0  0  0  0  0  0  0  0  0  0
   56.5460   33.5180   45.0382 H   0  0  0  0  0  0  0  0  0  0  0  0
   57.3750   32.6156   43.6872 H   0  0  0  0  0  0  0  0  0  0  0  0
   56.2025   27.7773   45.7629 H   0  0  0  0  0  0  0  0  0  0  0  0
   57.6389   25.9010   46.4858 H   0  0  0  0  0  0  0  0  0  0  0  0
   60.0971   25.9578   46.1265 H   0  0  0  0  0  0  0  0  0  0  0  0
   61.1410   27.9341   45.0193 H   0  0  0  0  0  0  0  0  0  0  0  0
   59.6724   29.7986   44.3046 H   0  0  0  0  0  0  0  0  0  0  0  0
   57.5776   30.8258   47.2836 H   0  0  0  0  0  0  0  0  0  0  0  0
   58.9355   30.7692   45.9874 H   0  0  0  0  0  0  0  0  0  0  0  0
   58.5925   32.4518   48.2132 H   0  0  0  0  0  0  0  0  0  0  0  0
   59.9564   32.2066   47.0113 H   0  0  0  0  0  0  0  0  0  0  0  0
  1  2  1  0
  2  3  1  0
  3  4  1  0
  3  5  1  0
  5  6  1  0
  6  7  1  0
  7  8  1  0
  8  9  1  0
  9 10  2  0
  9 11  2  0
  9 12  1  0
 12 13  2  0
 13 14  1  0
 14 15  2  0
 15 16  1  0
 16 17  2  0
  8 18  1  0
 18 19  1  0
 19  5  1  0
 17 12  1  0
  1 20  1  0
  1 21  1  0
  1 22  1  0
  2 23  1  0
  2 24  1  0
  4 25  1  0
  4 26  1  0
  4 27  1  0
  5 28  1  0
  6 29  1  0
  6 30  1  0
  7 31  1  0
  7 32  1  0
 13 33  1  0
 14 34  1  0
 15 35  1  0
 16 36  1  0
 17 37  1  0
 18 38  1  0
 18 39  1  0
 19 40  1  0
 19 41  1  0
M  END
>  <smiles>  (11) 
CCN(C)C1CCN(S(=O)(=O)c2ccccc2)CC1

>  <score_type>  (11) 
oracle

>  <origin>  (11) 
adg

>  <m_score__min__energy>  (11) 
-7.8600000000000003

>  <m_primary>  (11) 
energy

$$$$
11:0
     RDKit          3D

 34 35  0  0  0  0  0  0  0  0999 V2000
   58.0990   32.7140   43.0410 C   0  0  0  0  0  0  0  0  0  0  0  0
   58.2850   33.4490   44.3190 C   0  0  0  0  0  0  0  0  0  0  0  0
   58.3430   32.6420   45.5150 N   0  0  0  0  0  0  0  0  0  0  0  0
   58.6280   33.3960   46.7450 C   0  0  0  0  0  0  0  0  0  0  0  0
   59.3540   34.6810   46.3900 C   0  0  0  0  0  0  0  0  0  0  0  0
   58.1480   31.2310   45.5270 C   0  0  0  0  0  0  0  0  0  0  0  0
   56.9330   30.7780   45.1990 N   0  0  0  0  0  0  0  0  0  0  0  0
   56.6940   29.4610   45.1960 C   0  0  0  0  0  0  0  0  0  0  0  0
   55.5280   28.9680   44.8850 N   0  0  0  0  0  0  0  0  0  0  0  0
   57.6720   28.5480   45.5230 C   0  0  0  0  0  0  0  0  0  0  0  0
   57.4240   27.1870   45.5250 C   0  0  0  0  0  0  0  0  0  0  0  0
   58.4210   26.2850   45.8610 C   0  0  0  0  0  0  0  0  0  0  0  0
   58.1490   24.8830   45.8610 N   0  0  0  0  0  0  0  0  0  0  0  0
   59.6570   26.8010   46.1910 C   0  0  0  0  0  0  0  0  0  0  0  0
   59.9390   28.1540   46.2000 C   0  0  0  0  0  0  0  0  0  0  0  0
   58.9120   29.0080   45.8580 C   0  0  0  0  0  0  0  0  0  0  0  0
   59.1080   30.3580   45.8470 N   0  0  0  0  0  0  0  0  0  0  0  0
   57.8343   31.6680   43.2548 H   0  0  0  0  0  0  0  0  0  0  0  0
   57.2918   33.1853   42.4611 H   0  0  0  0  0  0  0  0  0  0  0  0
   59.0332   32.7446   42.4611 H   0  0  0  0  0  0  0  0  0  0  0  0
   59.2270   34.0126   44.2482 H   0  0  0  0  0  0  0  0  0  0  0  0
   57.3892   34.0775   44.4306 H   0  0  0  0  0  0  0  0  0  0  0  0
   57.6838   33.6366   47.2554 H   0  0  0  0  0  0  0  0  0  0  0  0
   59.2586   32.7889   47.4111 H   0  0  0  0  0  0  0  0  0  0  0  0
   59.6487   35.2025   47.3126 H   0  0  0  0  0  0  0  0  0  0  0  0
   60.2517   34.4440   45.8001 H   0  0  0  0  0  0  0  0  0  0  0  0
   58.6877   35.3276   45.8001 H   0  0  0  0  0  0  0  0  0  0  0  0
   54.7630   28.9650   45.5890 H   0  0  0  0  0  0  0  0  0  0  0  0
   56.4236   26.8164   45.2567 H   0  0  0  0  0  0  0  0  0  0  0  0
   57.3390   24.4840   45.2990 H   0  0  0  0  0  0  0  0  0  0  0  0
   58.7630   24.2350   46.4280 H   0  0  0  0  0  0  0  0  0  0  0  0
   60.4599   26.0992   46.4610 H   0  0  0  0  0  0  0  0  0  0  0  0
   60.9367   28.5320   46.4677 H   0  0  0  0  0  0  0  0  0  0  0  0
   60.0690   30.6570   46.1060 H   0  0  0  0  0  0  0  0  0  0  0  0
  1  2  1  0
  2  3  1  0
  3  4  1  0
  4  5  1  0
  3  6  1  0
  6  7  2  0
  7  8  1  0
  8  9  2  3
  8 10  1  0
 10 11  2  0
 11 12  1  0
 12 13  1  0
 12 14  2  0
 14 15  1  0
 15 16  2  0
 16 17  1  0
 17  6  1  0
 16 10  1  0
  1 18  1  0
  1 19  1  0
  1 20  1  0
  2 21  1  0
  2 22  1  0
  4 23  1  0
  4 24  1  0
  5 25  1  0
  5 26  1  0
  5 27  1  0
  9 28  1  0
 11 29  1  0
 13 30  1  0
 13 31  1  0
 14 32  1  0
 15 33  1  0
 17 34  1  0
M  END
>  <smiles>  (12) 
CCN(CC)c1nc(=N)c2cc(N)ccc2[nH]1

>  <score_type>  (12) 
oracle

>  <origin>  (12) 
adg

>  <m_score__min__energy>  (12) 
-5.6399999999999997

>  <m_primary>  (12) 
energy

$$$$
12:0
     RDKit          3D

 55 59  0  0  0  0  0  0  0  0999 V2000
   60.7580   29.8190   47.9630 C   0  0  0  0  0  0  0  0  0  0  0  0
   60.0770   31.0770   47.8560 O   0  0  0  0  0  0  0  0  0  0  0  0
   59.2010   31.2090   46.7770 C   0  0  0  0  0  0  0  0  0  0  0  0
   58.4710   30.1570   46.2730 C   0  0  0  0  0  0  0  0  0  0  0  0
   57.6000   30.2840   45.2000 C   0  0  0  0  0  0  0  0  0  0  0  0
   57.4690   31.5250   44.6230 C   0  0  0  0  0  0  0  0  0  0  0  0
   58.1890   32.6260   45.0970 C   0  0  0  0  0  0  0  0  0  0  0  0
   58.0330   33.8620   44.4930 C   0  0  0  0  0  0  0  0  0  0  0  0
   58.7580   34.9590   44.9760 C   0  0  0  0  0  0  0  0  0  0  0  0
   59.6130   34.7750   46.0480 C   0  0  0  0  0  0  0  0  0  0  0  0
   59.7600   33.5330   46.6440 C   0  0  0  0  0  0  0  0  0  0  0  0
   60.6670   33.4610   47.7390 N   0  0  0  0  0  0  0  0  0  0  0  0
   60.1440   33.5230   48.9660 N   0  0  0  0  0  0  0  0  0  0  0  0
   60.9100   33.4650   50.0730 C   0  0  0  0  0  0  0  0  0  0  0  0
   60.3800   33.5280   51.4490 C   0  0  0  0  0  0  0  0  0  0  0  0
   59.4750   32.4810   51.8030 N   0  0  0  0  0  0  0  0  0  0  0  0
   59.6330   31.2550   51.0850 C   0  0  0  0  0  0  0  0  0  0  0  0
   58.2790   30.7330   50.6170 C   0  0  0  0  0  0  0  0  0  0  0  0
   57.3360   30.6600   51.7790 C   0  0  0  0  0  0  0  0  0  0  0  0
   57.1070   32.0670   52.2890 C   0  0  0  0  0  0  0  0  0  0  0  0
   58.1230   32.9890   51.6490 C   0  0  0  0  0  0  0  0  0  0  0  0
   62.2800   33.3380   49.9260 C   0  0  0  0  0  0  0  0  0  0  0  0
   63.0880   33.2770   51.0410 C   0  0  0  0  0  0  0  0  0  0  0  0
   64.4730   33.1500   50.9400 C   0  0  0  0  0  0  0  0  0  0  0  0
   64.9890   33.0890   49.6650 C   0  0  0  0  0  0  0  0  0  0  0  0
   64.1850   33.1490   48.5380 C   0  0  0  0  0  0  0  0  0  0  0  0
   62.8110   33.2750   48.6540 C   0  0  0  0  0  0  0  0  0  0  0  0
   61.9990   33.3380   47.5440 C   0  0  0  0  0  0  0  0  0  0  0  0
   62.4750   33.2810   46.3750 O   0  0  0  0  0  0  0  0  0  0  0  0
   59.0530   32.4440   46.1800 C   0  0  0  0  0  0  0  0  0  0  0  0
   60.8952   29.5655   49.0246 H   0  0  0  0  0  0  0  0  0  0  0  0
   60.1606   29.0359   47.4733 H   0  0  0  0  0  0  0  0  0  0  0  0
   61.7403   29.8910   47.4733 H   0  0  0  0  0  0  0  0  0  0  0  0
   58.5831   29.1687   46.7428 H   0  0  0  0  0  0  0  0  0  0  0  0
   57.0329   29.4199   44.8235 H   0  0  0  0  0  0  0  0  0  0  0  0
   56.7844   31.6543   43.7718 H   0  0  0  0  0  0  0  0  0  0  0  0
   57.3463   33.9815   43.6420 H   0  0  0  0  0  0  0  0  0  0  0  0
   58.6494   35.9499   44.5109 H   0  0  0  0  0  0  0  0  0  0  0  0
   60.1866   35.6305   46.4342 H   0  0  0  0  0  0  0  0  0  0  0  0
   61.2322   33.4899   52.1435 H   0  0  0  0  0  0  0  0  0  0  0  0
   59.8030   34.4625   51.5103 H   0  0  0  0  0  0  0  0  0  0  0  0
   60.2765   31.4282   50.2099 H   0  0  0  0  0  0  0  0  0  0  0  0
   60.0916   30.5090   51.7507 H   0  0  0  0  0  0  0  0  0  0  0  0
   57.8687   31.4124   49.8554 H   0  0  0  0  0  0  0  0  0  0  0  0
   58.4051   29.7284   50.1869 H   0  0  0  0  0  0  0  0  0  0  0  0
   56.3806   30.2203   51.4566 H   0  0  0  0  0  0  0  0  0  0  0  0
   57.7607   30.0308   52.5751 H   0  0  0  0  0  0  0  0  0  0  0  0
   56.0911   32.3955   52.0242 H   0  0  0  0  0  0  0  0  0  0  0  0
   57.2176   32.0907   53.3832 H   0  0  0  0  0  0  0  0  0  0  0  0
   57.8960   33.0815   50.5767 H   0  0  0  0  0  0  0  0  0  0  0  0
   58.0633   33.9675   52.1480 H   0  0  0  0  0  0  0  0  0  0  0  0
   62.6274   33.3300   52.0385 H   0  0  0  0  0  0  0  0  0  0  0  0
   65.1177   33.1012   51.8299 H   0  0  0  0  0  0  0  0  0  0  0  0
   66.0769   32.9892   49.5366 H   0  0  0  0  0  0  0  0  0  0  0  0
   64.6436   33.0959   47.5396 H   0  0  0  0  0  0  0  0  0  0  0  0
  1  2  1  0
  2  3  1  0
  3  4  2  0
  4  5  1  0
  5  6  2  0
  6  7  1  0
  7  8  2  0
  8  9  1  0
  9 10  2  0
 10 11  1  0
 11 12  1  0
 12 13  1  0
 13 14  2  0
 14 15  1  0
 15 16  1  0
 16 17  1  0
 17 18  1  0
 18 19  1  0
 19 20  1  0
 20 21  1  0
 14 22  1  0
 22 23  2  0
 23 24  1  0
 24 25  2  0
 25 26  1  0
 26 27  2  0
 27 28  1  0
 28 29  2  0
 11 30  2  0
 30  3  1  0
 30  7  1  0
 28 12  1  0
 21 16  1  0
 27 22  1  0
  1 31  1  0
  1 32  1  0
  1 33  1  0
  4 34  1  0
  5 35  1  0
  6 36  1  0
  8 37  1  0
  9 38  1  0
 10 39  1  0
 15 40  1  0
 15 41  1  0
 17 42  1  0
 17 43  1  0
 18 44  1  0
 18 45  1  0
 19 46  1  0
 19 47  1  0
 20 48  1  0
 20 49  1  0
 21 50  1  0
 21 51  1  0
 23 52  1  0
 24 53  1  0
 25 54  1  0
 26 55  1  0
M  END
>  <smiles>  (13) 
COc1cccc2cccc(-n3nc(CN4CCCCC4)c4ccccc4c3=O)c12

>  <score_type>  (13) 
oracle

>  <origin>  (13) 
adg

>  <m_score__min__energy>  (13) 
-8.2899999999999991

>  <m_primary>  (13) 
energy

$$$$
13:0
     RDKit          3D

 48 51  0  0  0  0  0  0  0  0999 V2000
   55.9040   22.9970   42.9920 C   0  0  0  0  0  0  0  0  0  0  0  0
   57.0580   23.4020   43.8470 C   0  0  0  0  0  0  0  0  0  0  0  0
   56.7540   24.4450   44.8000 N   0  0  0  0  0  0  0  0  0  0  0  0
   55.9080   24.3210   45.8620 C   0  0  0  0  0  0  0  0  0  0  0  0
   55.1640   23.0980   46.2120 C   0  0  0  0  0  0  0  0  0  0  0  0
   55.8750   25.5040   46.5280 N   0  0  0  0  0  0  0  0  0  0  0  0
   56.6820   26.3860   45.9160 C   0  0  0  0  0  0  0  0  0  0  0  0
   57.0430   27.7130   46.1340 C   0  0  0  0  0  0  0  0  0  0  0  0
   57.9350   28.3630   45.2870 C   0  0  0  0  0  0  0  0  0  0  0  0
   58.3010   29.7190   45.5100 N   0  0  0  0  0  0  0  0  0  0  0  0
   59.4500   30.0870   46.1060 C   0  0  0  0  0  0  0  0  0  0  0  0
   59.7990   31.4080   46.3200 C   0  0  0  0  0  0  0  0  0  0  0  0
   58.8970   32.3840   45.8870 C   0  0  0  0  0  0  0  0  0  0  0  0
   59.1860   33.7370   46.0720 O   0  0  0  0  0  0  0  0  0  0  0  0
   59.6300   34.1570   47.3350 C   0  0  0  0  0  0  0  0  0  0  0  0
   61.0790   33.9280   47.5150 C   0  0  0  0  0  0  0  0  0  0  0  0
   61.9420   33.8320   46.4550 C   0  0  0  0  0  0  0  0  0  0  0  0
   63.2810   33.6170   46.7090 C   0  0  0  0  0  0  0  0  0  0  0  0
   63.7840   33.4960   47.9810 C   0  0  0  0  0  0  0  0  0  0  0  0
   62.9270   33.5900   49.0460 C   0  0  0  0  0  0  0  0  0  0  0  0
   61.6020   33.8020   48.8010 C   0  0  0  0  0  0  0  0  0  0  0  0
   57.7290   31.9690   45.2810 C   0  0  0  0  0  0  0  0  0  0  0  0
   57.4020   30.6500   45.0790 C   0  0  0  0  0  0  0  0  0  0  0  0
   56.3230   30.3020   44.5200 O   0  0  0  0  0  0  0  0  0  0  0  0
   58.4650   27.6730   44.2160 C   0  0  0  0  0  0  0  0  0  0  0  0
   58.1160   26.3590   43.9900 C   0  0  0  0  0  0  0  0  0  0  0  0
   57.2290   25.7110   44.8320 C   0  0  0  0  0  0  0  0  0  0  0  0
   55.0598   22.7007   43.6319 H   0  0  0  0  0  0  0  0  0  0  0  0
   55.6034   23.8433   42.3569 H   0  0  0  0  0  0  0  0  0  0  0  0
   56.1982   22.1484   42.3569 H   0  0  0  0  0  0  0  0  0  0  0  0
   57.4025   22.5173   44.4025 H   0  0  0  0  0  0  0  0  0  0  0  0
   57.8250   23.8069   43.1704 H   0  0  0  0  0  0  0  0  0  0  0  0
   55.1069   23.0041   47.3065 H   0  0  0  0  0  0  0  0  0  0  0  0
   54.1476   23.1553   45.7954 H   0  0  0  0  0  0  0  0  0  0  0  0
   55.6822   22.2217   45.7954 H   0  0  0  0  0  0  0  0  0  0  0  0
   56.6160   28.2563   46.9899 H   0  0  0  0  0  0  0  0  0  0  0  0
   60.1438   29.3007   46.4384 H   0  0  0  0  0  0  0  0  0  0  0  0
   60.7458   31.6790   46.8100 H   0  0  0  0  0  0  0  0  0  0  0  0
   59.4236   35.2319   47.4450 H   0  0  0  0  0  0  0  0  0  0  0  0
   59.0953   33.5701   48.0964 H   0  0  0  0  0  0  0  0  0  0  0  0
   61.5746   33.9245   45.4223 H   0  0  0  0  0  0  0  0  0  0  0  0
   63.9737   33.5394   45.8580 H   0  0  0  0  0  0  0  0  0  0  0  0
   64.8587   33.3262   48.1425 H   0  0  0  0  0  0  0  0  0  0  0  0
   63.2996   33.4965   50.0767 H   0  0  0  0  0  0  0  0  0  0  0  0
   60.9151   33.8769   49.6569 H   0  0  0  0  0  0  0  0  0  0  0  0
   57.0196   32.7376   44.9404 H   0  0  0  0  0  0  0  0  0  0  0  0
   59.1708   28.1751   43.5380 H   0  0  0  0  0  0  0  0  0  0  0  0
   58.5463   25.8204   43.1328 H   0  0  0  0  0  0  0  0  0  0  0  0
  1  2  1  0
  2  3  1  0
  3  4  1  0
  4  5  1  0
  4  6  2  0
  6  7  1  0
  7  8  2  0
  8  9  1  0
  9 10  1  0
 10 11  1  0
 11 12  2  0
 12 13  1  0
 13 14  1  0
 14 15  1  0
 15 16  1  0
 16 17  2  0
 17 18  1  0
 18 19  2  0
 19 20  1  0
 20 21  2  0
 13 22  2  0
 22 23  1  0
 23 24  2  0
  9 25  2  0
 25 26  1  0
 26 27  2  0
 27  3  1  0
 27  7  1  0
 23 10  1  0
 21 16  1  0
  1 28  1  0
  1 29  1  0
  1 30  1  0
  2 31  1  0
  2 32  1  0
  5 33  1  0
  5 34  1  0
  5 35  1  0
  8 36  1  0
 11 37  1  0
 12 38  1  0
 15 39  1  0
 15 40  1  0
 17 41  1  0
 18 42  1  0
 19 43  1  0
 20 44  1  0
 21 45  1  0
 22 46  1  0
 25 47  1  0
 26 48  1  0
M  END
>  <smiles>  (14) 
CCn1c(C)nc2cc(-n3ccc(OCc4ccccc4)cc3=O)ccc21

>  <score_type>  (14) 
oracle

>  <origin>  (14) 
adg

>  <m_score__min__energy>  (14) 
-8.4499999999999993

>  <m_primary>  (14) 
energy

$$$$
14:0
     RDKit          3D

 50 53  0  0  0  0  0  0  0  0999 V2000
   59.4840   34.1010   49.3690 O   0  0  0  0  0  0  0  0  0  0  0  0
   59.2620   33.2270   48.4780 C   0  0  0  0  0  0  0  0  0  0  0  0
   59.1830   33.6280   47.1630 C   0  0  0  0  0  0  0  0  0  0  0  0
   59.3530   34.9580   46.8650 C   0  0  0  0  0  0  0  0  0  0  0  0
   59.2760   35.3240   45.5240 C   0  0  0  0  0  0  0  0  0  0  0  0
   59.0350   34.3330   44.5800 C   0  0  0  0  0  0  0  0  0  0  0  0
   58.8700   33.0130   44.9180 C   0  0  0  0  0  0  0  0  0  0  0  0
   58.9420   32.6510   46.2210 C   0  0  0  0  0  0  0  0  0  0  0  0
   58.7860   31.3310   46.5690 C   0  0  0  0  0  0  0  0  0  0  0  0
   58.5380   30.2520   45.6430 C   0  0  0  0  0  0  0  0  0  0  0  0
   57.3800   30.0620   44.9360 C   0  0  0  0  0  0  0  0  0  0  0  0
   57.2430   29.0110   44.0440 C   0  0  0  0  0  0  0  0  0  0  0  0
   58.2900   28.1140   43.8420 C   0  0  0  0  0  0  0  0  0  0  0  0
   58.1180   26.7820   42.7100 Cl  0  0  0  0  0  0  0  0  0  0  0  0
   59.4640   28.2910   44.5480 C   0  0  0  0  0  0  0  0  0  0  0  0
   59.5790   29.3510   45.4360 C   0  0  0  0  0  0  0  0  0  0  0  0
   58.8790   31.0090   47.8920 N   0  0  0  0  0  0  0  0  0  0  0  0
   59.1090   31.9120   48.8200 N   0  0  0  0  0  0  0  0  0  0  0  0
   59.2120   31.6200   50.2340 C   0  0  0  0  0  0  0  0  0  0  0  0
   60.4410   30.8130   50.5930 C   0  0  0  0  0  0  0  0  0  0  0  0
   61.5620   31.8440   50.7070 C   0  0  0  0  0  0  0  0  0  0  0  0
   61.8520   32.3080   49.3970 N   0  0  0  0  0  0  0  0  0  0  0  0
   62.1270   31.3420   48.4020 C   0  0  0  0  0  0  0  0  0  0  0  0
   62.5570   32.0690   47.1310 C   0  0  0  0  0  0  0  0  0  0  0  0
   63.8100   32.7430   47.3920 N   0  0  0  0  0  0  0  0  0  0  0  0
   63.7710   33.5650   48.5580 C   0  0  0  0  0  0  0  0  0  0  0  0
   62.4640   33.5790   49.2740 C   0  0  0  0  0  0  0  0  0  0  0  0
   59.5420   35.7024   47.6525 H   0  0  0  0  0  0  0  0  0  0  0  0
   59.4030   36.3731   45.2188 H   0  0  0  0  0  0  0  0  0  0  0  0
   58.9740   34.6179   43.5193 H   0  0  0  0  0  0  0  0  0  0  0  0
   58.6816   32.2584   44.1401 H   0  0  0  0  0  0  0  0  0  0  0  0
   56.5411   30.7589   45.0797 H   0  0  0  0  0  0  0  0  0  0  0  0
   56.3007   28.8836   43.4910 H   0  0  0  0  0  0  0  0  0  0  0  0
   60.3039   27.5948   44.4069 H   0  0  0  0  0  0  0  0  0  0  0  0
   60.5189   29.4831   45.9920 H   0  0  0  0  0  0  0  0  0  0  0  0
   59.2464   32.5715   50.7849 H   0  0  0  0  0  0  0  0  0  0  0  0
   58.3349   31.0141   50.5052 H   0  0  0  0  0  0  0  0  0  0  0  0
   60.2959   30.2902   51.5499 H   0  0  0  0  0  0  0  0  0  0  0  0
   60.6630   30.0377   49.8449 H   0  0  0  0  0  0  0  0  0  0  0  0
   61.2369   32.6835   51.3391 H   0  0  0  0  0  0  0  0  0  0  0  0
   62.4556   31.3947   51.1648 H   0  0  0  0  0  0  0  0  0  0  0  0
   62.9356   30.6782   48.7420 H   0  0  0  0  0  0  0  0  0  0  0  0
   61.2305   30.7356   48.2058 H   0  0  0  0  0  0  0  0  0  0  0  0
   62.6884   31.3436   46.3145 H   0  0  0  0  0  0  0  0  0  0  0  0
   61.7895   32.7994   46.8354 H   0  0  0  0  0  0  0  0  0  0  0  0
   64.5520   32.0260   47.4920 H   0  0  0  0  0  0  0  0  0  0  0  0
   64.5393   33.2029   49.2569 H   0  0  0  0  0  0  0  0  0  0  0  0
   63.9449   34.5954   48.2143 H   0  0  0  0  0  0  0  0  0  0  0  0
   62.6294   33.9807   50.2846 H   0  0  0  0  0  0  0  0  0  0  0  0
   61.7828   34.1992   48.6729 H   0  0  0  0  0  0  0  0  0  0  0  0
  1  2  2  0
  2  3  1  0
  3  4  2  0
  4  5  1  0
  5  6  2  0
  6  7  1  0
  7  8  2  0
  8  9  1  0
  9 10  1  0
 10 11  2  0
 11 12  1  0
 12 13  2  0
 13 14  1  0
 13 15  1  0
 15 16  2  0
  9 17  2  0
 17 18  1  0
 18 19  1  0
 19 20  1  0
 20 21  1  0
 21 22  1  0
 22 23  1  0
 23 24  1  0
 24 25  1  0
 25 26  1  0
 26 27  1  0
 18  2  1  0
 27 22  1  0
  8  3  1  0
 16 10  1  0
  4 28  1  0
  5 29  1  0
  6 30  1  0
  7 31  1  0
 11 32  1  0
 12 33  1  0
 15 34  1  0
 16 35  1  0
 19 36  1  0
 19 37  1  0
 20 38  1  0
 20 39  1  0
 21 40  1  0
 21 41  1  0
 23 42  1  0
 23 43  1  0
 24 44  1  0
 24 45  1  0
 25 46  1  0
 26 47  1  0
 26 48  1  0
 27 49  1  0
 27 50  1  0
M  END
>  <smiles>  (15) 
O=c1c2ccccc2c(-c2ccc(Cl)cc2)nn1CCCN1CCNCC1

>  <score_type>  (15) 
oracle

>  <origin>  (15) 
adg

>  <m_score__min__energy>  (15) 
-8.9600000000000009

>  <m_primary>  (15) 
energy

$$$$
16:0
     RDKit          3D

 70 74  0  0  0  0  0  0  0  0999 V2000
   61.2790   29.1780   50.7990 C   0  0  0  0  0  0  0  0  0  0  0  0
   60.8090   29.0620   49.3850 C   0  0  0  0  0  0  0  0  0  0  0  0
   61.1230   30.0010   48.4430 C   0  0  0  0  0  0  0  0  0  0  0  0
   60.6960   29.9110   47.1240 C   0  0  0  0  0  0  0  0  0  0  0  0
   59.9250   28.8160   46.7920 C   0  0  0  0  0  0  0  0  0  0  0  0
   59.4670   28.6500   45.5290 N   0  0  0  0  0  0  0  0  0  0  0  0
   58.7140   27.5960   45.1700 C   0  0  0  0  0  0  0  0  0  0  0  0
   58.1920   27.3730   43.8100 C   0  0  0  0  0  0  0  0  0  0  0  0
   57.5910   28.5790   43.2430 N   0  0  0  0  0  0  0  0  0  0  0  0
   56.6210   29.2320   44.0530 C   0  0  0  0  0  0  0  0  0  0  0  0
   56.3610   28.7310   45.1790 O   0  0  0  0  0  0  0  0  0  0  0  0
   55.9230   30.4910   43.5770 C   0  0  0  0  0  0  0  0  0  0  0  0
   56.9120   31.5930   43.6890 C   0  0  0  0  0  0  0  0  0  0  0  0
   57.6730   31.7200   44.9490 C   0  0  0  0  0  0  0  0  0  0  0  0
   57.8970   33.0140   45.4790 N   0  0  0  0  0  0  0  0  0  0  0  0
   59.0450   33.7260   45.0170 C   0  0  0  0  0  0  0  0  0  0  0  0
   59.8660   34.3780   46.1160 C   0  0  0  0  0  0  0  0  0  0  0  0
   60.1450   33.4970   47.2180 N   0  0  0  0  0  0  0  0  0  0  0  0
   61.3560   33.4730   47.9520 C   0  0  0  0  0  0  0  0  0  0  0  0
   62.5620   33.0560   47.4410 C   0  0  0  0  0  0  0  0  0  0  0  0
   63.7370   33.0370   48.1720 C   0  0  0  0  0  0  0  0  0  0  0  0
   63.7000   33.4590   49.4830 C   0  0  0  0  0  0  0  0  0  0  0  0
   65.1600   33.4670   50.4830 Cl  0  0  0  0  0  0  0  0  0  0  0  0
   62.5090   33.8920   50.0470 C   0  0  0  0  0  0  0  0  0  0  0  0
   61.3580   33.8920   49.2770 C   0  0  0  0  0  0  0  0  0  0  0  0
   59.0700   32.5720   47.5850 C   0  0  0  0  0  0  0  0  0  0  0  0
   57.8080   33.0800   46.9080 C   0  0  0  0  0  0  0  0  0  0  0  0
   58.3960   26.6540   46.1070 N   0  0  0  0  0  0  0  0  0  0  0  0
   57.5960   25.5280   45.7310 C   0  0  0  0  0  0  0  0  0  0  0  0
   58.1130   24.3910   45.1680 C   0  0  0  0  0  0  0  0  0  0  0  0
   57.2260   23.3800   44.8550 C   0  0  0  0  0  0  0  0  0  0  0  0
   55.8680   23.4720   45.0840 C   0  0  0  0  0  0  0  0  0  0  0  0
   55.3510   24.6250   45.6530 C   0  0  0  0  0  0  0  0  0  0  0  0
   56.2390   25.6440   45.9700 C   0  0  0  0  0  0  0  0  0  0  0  0
   58.8390   26.7990   47.3590 C   0  0  0  0  0  0  0  0  0  0  0  0
   58.5420   25.9200   48.2300 O   0  0  0  0  0  0  0  0  0  0  0  0
   59.6140   27.8760   47.7460 C   0  0  0  0  0  0  0  0  0  0  0  0
   60.0300   27.9540   49.0500 C   0  0  0  0  0  0  0  0  0  0  0  0
   60.4417   28.9714   51.4818 H   0  0  0  0  0  0  0  0  0  0  0  0
   62.0858   28.4520   50.9779 H   0  0  0  0  0  0  0  0  0  0  0  0
   61.6554   30.1960   50.9779 H   0  0  0  0  0  0  0  0  0  0  0  0
   61.7385   30.8626   48.7411 H   0  0  0  0  0  0  0  0  0  0  0  0
   60.9601   30.6765   46.3796 H   0  0  0  0  0  0  0  0  0  0  0  0
   59.0202   27.0516   43.1613 H   0  0  0  0  0  0  0  0  0  0  0  0
   57.4088   26.6031   43.8716 H   0  0  0  0  0  0  0  0  0  0  0  0
   57.8370   28.9560   42.3100 H   0  0  0  0  0  0  0  0  0  0  0  0
   55.6015   30.3745   42.5315 H   0  0  0  0  0  0  0  0  0  0  0  0
   55.0269   30.6996   44.1798 H   0  0  0  0  0  0  0  0  0  0  0  0
   57.6430   31.4594   42.8780 H   0  0  0  0  0  0  0  0  0  0  0  0
   56.3063   32.5100   43.6417 H   0  0  0  0  0  0  0  0  0  0  0  0
   57.1306   31.1457   45.7145 H   0  0  0  0  0  0  0  0  0  0  0  0
   58.6794   31.3581   44.6917 H   0  0  0  0  0  0  0  0  0  0  0  0
   59.6929   33.0199   44.4770 H   0  0  0  0  0  0  0  0  0  0  0  0
   58.6720   34.5412   44.3795 H   0  0  0  0  0  0  0  0  0  0  0  0
   60.8217   34.7123   45.6860 H   0  0  0  0  0  0  0  0  0  0  0  0
   59.2730   35.2159   46.5114 H   0  0  0  0  0  0  0  0  0  0  0  0
   62.5950   32.7192   46.3944 H   0  0  0  0  0  0  0  0  0  0  0  0
   64.6778   32.6933   47.7173 H   0  0  0  0  0  0  0  0  0  0  0  0
   62.4792   34.2312   51.0930 H   0  0  0  0  0  0  0  0  0  0  0  0
   60.4153   34.2346   49.7286 H   0  0  0  0  0  0  0  0  0  0  0  0
   59.3066   31.5569   47.2335 H   0  0  0  0  0  0  0  0  0  0  0  0
   58.9427   32.5259   48.6766 H   0  0  0  0  0  0  0  0  0  0  0  0
   56.9569   32.4666   47.2388 H   0  0  0  0  0  0  0  0  0  0  0  0
   57.6743   34.1348   47.1900 H   0  0  0  0  0  0  0  0  0  0  0  0
   59.1907   24.2877   44.9733 H   0  0  0  0  0  0  0  0  0  0  0  0
   57.6201   22.4583   44.4020 H   0  0  0  0  0  0  0  0  0  0  0  0
   55.2023   22.6379   44.8173 H   0  0  0  0  0  0  0  0  0  0  0  0
   54.2733   24.7293   45.8470 H   0  0  0  0  0  0  0  0  0  0  0  0
   55.8526   26.5687   46.4236 H   0  0  0  0  0  0  0  0  0  0  0  0
   59.7644   27.1857   49.7910 H   0  0  0  0  0  0  0  0  0  0  0  0
  1  2  1  0
  2  3  2  0
  3  4  1  0
  4  5  2  0
  5  6  1  0
  6  7  2  0
  7  8  1  0
  8  9  1  0
  9 10  1  0
 10 11  2  0
 10 12  1  0
 12 13  1  0
 13 14  1  0
 14 15  1  0
 15 16  1  0
 16 17  1  0
 17 18  1  0
 18 19  1  0
 19 20  2  0
 20 21  1  0
 21 22  2  0
 22 23  1  0
 22 24  1  0
 24 25  2  0
 18 26  1  0
 26 27  1  0
  7 28  1  0
 28 29  1  0
 29 30  2  0
 30 31  1  0
 31 32  2  0
 32 33  1  0
 33 34  2  0
 28 35  1  0
 35 36  2  0
 35 37  1  0
 37 38  2  0
 38  2  1  0
 37  5  1  0
 27 15  1  0
 34 29  1  0
 25 19  1  0
  1 39  1  0
  1 40  1  0
  1 41  1  0
  3 42  1  0
  4 43  1  0
  8 44  1  0
  8 45  1  0
  9 46  1  0
 12 47  1  0
 12 48  1  0
 13 49  1  0
 13 50  1  0
 14 51  1  0
 14 52  1  0
 16 53  1  0
 16 54  1  0
 17 55  1  0
 17 56  1  0
 20 57  1  0
 21 58  1  0
 24 59  1  0
 25 60  1  0
 26 61  1  0
 26 62  1  0
 27 63  1  0
 27 64  1  0
 30 65  1  0
 31 66  1  0
 32 67  1  0
 33 68  1  0
 34 69  1  0
 38 70  1  0
M  END
>  <smiles>  (16) 
Cc1ccc2nc(CNC(=O)CCCN3CCN(c4ccc(Cl)cc4)CC3)n(-c3ccccc3)c(=O)c2c1

>  <score_type>  (16) 
oracle

>  <origin>  (16) 
adg

>  <m_score__min__energy>  (16) 
-10.710000000000001

>  <m_primary>  (16) 
energy

$$$$
17:0
     RDKit          3D

 51 53  0  0  0  0  0  0  0  0999 V2000
   57.4480   33.1020   46.1860 C   0  0  0  0  0  0  0  0  0  0  0  0
   58.0350   32.8260   44.8490 C   0  0  0  0  0  0  0  0  0  0  0  0
   58.1470   31.4340   44.4880 N   0  0  0  0  0  0  0  0  0  0  0  0
   57.0430   30.9650   43.6630 C   0  0  0  0  0  0  0  0  0  0  0  0
   56.7710   29.5090   43.8890 C   0  0  0  0  0  0  0  0  0  0  0  0
   57.9300   28.7810   44.3410 N   0  0  0  0  0  0  0  0  0  0  0  0
   57.7680   27.3580   44.2490 C   0  0  0  0  0  0  0  0  0  0  0  0
   58.8250   26.6440   45.0730 C   0  0  0  0  0  0  0  0  0  0  0  0
   58.2430   25.5080   45.7540 N   0  0  0  0  0  0  0  0  0  0  0  0
   57.3110   25.5720   46.8450 C   0  0  0  0  0  0  0  0  0  0  0  0
   55.9950   24.9370   46.4830 C   0  0  0  0  0  0  0  0  0  0  0  0
   55.5870   23.6540   46.8130 C   0  0  0  0  0  0  0  0  0  0  0  0
   54.3140   23.5670   46.2450 C   0  0  0  0  0  0  0  0  0  0  0  0
   54.0340   24.7850   45.6160 C   0  0  0  0  0  0  0  0  0  0  0  0
   55.0820   25.5410   45.8040 O   0  0  0  0  0  0  0  0  0  0  0  0
   58.6370   24.1890   45.3240 C   0  0  0  0  0  0  0  0  0  0  0  0
   59.7680   23.7010   45.6700 O   0  0  0  0  0  0  0  0  0  0  0  0
   57.7980   23.3500   44.4910 C   0  0  0  0  0  0  0  0  0  0  0  0
   57.9240   21.9750   44.6700 C   0  0  0  0  0  0  0  0  0  0  0  0
   57.1500   21.1230   43.9100 C   0  0  0  0  0  0  0  0  0  0  0  0
   56.2860   21.6330   43.0050 N   0  0  0  0  0  0  0  0  0  0  0  0
   56.1720   22.9650   42.8400 C   0  0  0  0  0  0  0  0  0  0  0  0
   56.9180   23.8730   43.5680 C   0  0  0  0  0  0  0  0  0  0  0  0
   58.5260   29.2440   45.5370 C   0  0  0  0  0  0  0  0  0  0  0  0
   58.1570   30.6910   45.7530 C   0  0  0  0  0  0  0  0  0  0  0  0
   58.1476   32.7731   46.9686 H   0  0  0  0  0  0  0  0  0  0  0  0
   57.2631   34.1814   46.2896 H   0  0  0  0  0  0  0  0  0  0  0  0
   56.4988   32.5558   46.2896 H   0  0  0  0  0  0  0  0  0  0  0  0
   57.4049   33.3206   44.0951 H   0  0  0  0  0  0  0  0  0  0  0  0
   59.0658   33.2078   44.8906 H   0  0  0  0  0  0  0  0  0  0  0  0
   56.1397   31.5408   43.9131 H   0  0  0  0  0  0  0  0  0  0  0  0
   57.3162   31.1060   42.6068 H   0  0  0  0  0  0  0  0  0  0  0  0
   55.9802   29.4142   44.6477 H   0  0  0  0  0  0  0  0  0  0  0  0
   56.4689   29.0779   42.9232 H   0  0  0  0  0  0  0  0  0  0  0  0
   56.7711   27.0829   44.6237 H   0  0  0  0  0  0  0  0  0  0  0  0
   57.8762   27.0566   43.1966 H   0  0  0  0  0  0  0  0  0  0  0  0
   59.6302   26.2964   44.4090 H   0  0  0  0  0  0  0  0  0  0  0  0
   59.2303   27.3420   45.8203 H   0  0  0  0  0  0  0  0  0  0  0  0
   57.7369   25.0436   47.7107 H   0  0  0  0  0  0  0  0  0  0  0  0
   57.1300   26.6305   47.0832 H   0  0  0  0  0  0  0  0  0  0  0  0
   56.1337   22.8892   47.3842 H   0  0  0  0  0  0  0  0  0  0  0  0
   53.6474   22.6929   46.2852 H   0  0  0  0  0  0  0  0  0  0  0  0
   53.1157   25.0520   45.0724 H   0  0  0  0  0  0  0  0  0  0  0  0
   58.6326   21.5728   45.4090 H   0  0  0  0  0  0  0  0  0  0  0  0
   57.2357   20.0341   44.0400 H   0  0  0  0  0  0  0  0  0  0  0  0
   55.4566   23.3455   42.0961 H   0  0  0  0  0  0  0  0  0  0  0  0
   56.8146   24.9578   43.4183 H   0  0  0  0  0  0  0  0  0  0  0  0
   58.1643   28.6426   46.3841 H   0  0  0  0  0  0  0  0  0  0  0  0
   59.6195   29.1507   45.4628 H   0  0  0  0  0  0  0  0  0  0  0  0
   57.1559   30.7416   46.2060 H   0  0  0  0  0  0  0  0  0  0  0  0
   58.9080   31.1452   46.4161 H   0  0  0  0  0  0  0  0  0  0  0  0
  1  2  1  0
  2  3  1  0
  3  4  1  0
  4  5  1  0
  5  6  1  0
  6  7  1  0
  7  8  1  0
  8  9  1  0
  9 10  1  0
 10 11  1  0
 11 12  2  0
 12 13  1  0
 13 14  2  0
 14 15  1  0
  9 16  1  0
 16 17  2  0
 16 18  1  0
 18 19  2  0
 19 20  1  0
 20 21  2  0
 21 22  1  0
 22 23  2  0
  6 24  1  0
 24 25  1  0
 25  3  1  0
 15 11  1  0
 23 18  1  0
  1 26  1  0
  1 27  1  0
  1 28  1  0
  2 29  1  0
  2 30  1  0
  4 31  1  0
  4 32  1  0
  5 33  1  0
  5 34  1  0
  7 35  1  0
  7 36  1  0
  8 37  1  0
  8 38  1  0
 10 39  1  0
 10 40  1  0
 12 41  1  0
 13 42  1  0
 14 43  1  0
 19 44  1  0
 20 45  1  0
 22 46  1  0
 23 47  1  0
 24 48  1  0
 24 49  1  0
 25 50  1  0
 25 51  1  0
M  END
>  <smiles>  (17) 
CCN1CCN(CCN(Cc2ccco2)C(=O)c2ccncc2)CC1

>  <score_type>  (17) 
oracle

>  <origin>  (17) 
adg

>  <m_score__min__energy>  (17) 
-7.6299999999999999

>  <m_primary>  (17) 
energy

$$$$
18:0
     RDKit          3D

 44 45  0  0  1  0  0  0  0  0999 V2000
   57.0250   34.1460   45.0250 C   0  0  0  0  0  0  0  0  0  0  0  0
   57.9090   34.5930   46.0190 O   0  0  0  0  0  0  0  0  0  0  0  0
   59.0050   33.8770   46.4290 C   0  0  0  0  0  0  0  0  0  0  0  0
   60.1980   34.4970   46.7410 C   0  0  0  0  0  0  0  0  0  0  0  0
   61.2630   33.7170   47.1500 C   0  0  0  0  0  0  0  0  0  0  0  0
   61.1650   32.3300   47.2530 C   0  0  0  0  0  0  0  0  0  0  0  0
   62.2760   31.6140   47.6690 O   0  0  0  0  0  0  0  0  0  0  0  0
   63.5520   32.1970   47.8740 C   0  0  0  0  0  0  0  0  0  0  0  0
   59.9610   31.7020   46.9390 C   0  0  0  0  0  0  0  0  0  0  0  0
   59.8990   30.2660   47.0580 C   0  0  0  0  0  0  0  0  0  0  0  0
   59.1380   29.7810   47.9310 O   0  0  0  0  0  0  0  0  0  0  0  0
   60.6740   29.3690   46.2190 C   0  0  0  0  0  0  0  0  0  0  0  0
   60.3460   28.1000   46.1140 C   0  0  0  0  0  0  0  0  0  0  0  0
   58.9820   27.6060   46.0910 C   0  0  0  0  0  0  0  0  0  0  0  0
   58.6340   26.3440   46.5160 C   0  0  0  0  0  0  0  0  0  0  0  0
   57.3240   25.9340   46.4700 C   0  0  0  0  0  0  0  0  0  0  0  0
   56.2940   26.7390   46.0080 C   0  0  0  0  0  0  0  0  0  0  0  0
   54.9720   26.3220   45.9640 O   0  0  0  0  0  0  0  0  0  0  0  0
   54.7400   24.9620   45.6170 C   0  0  0  0  0  0  0  0  0  0  0  0
   56.6440   28.0050   45.5830 C   0  0  0  0  0  0  0  0  0  0  0  0
   55.6360   28.8330   45.1160 O   0  0  0  0  0  0  0  0  0  0  0  0
   55.8370   29.8340   44.1480 C   0  0  0  0  0  0  0  0  0  0  0  0
   57.9610   28.4120   45.6300 C   0  0  0  0  0  0  0  0  0  0  0  0
   58.9170   32.5030   46.5360 C   0  0  0  0  0  0  0  0  0  0  0  0
   56.1385   33.6977   45.4974 H   0  0  0  0  0  0  0  0  0  0  0  0
   56.7165   34.9965   44.3992 H   0  0  0  0  0  0  0  0  0  0  0  0
   57.5271   33.3934   44.3992 H   0  0  0  0  0  0  0  0  0  0  0  0
   60.2991   35.5898   46.6656 H   0  0  0  0  0  0  0  0  0  0  0  0
   62.2162   34.2049   47.4017 H   0  0  0  0  0  0  0  0  0  0  0  0
   63.7456   32.2855   48.9532 H   0  0  0  0  0  0  0  0  0  0  0  0
   64.3234   31.5620   47.4139 H   0  0  0  0  0  0  0  0  0  0  0  0
   63.5770   33.1959   47.4139 H   0  0  0  0  0  0  0  0  0  0  0  0
   61.5433   29.7547   45.6663 H   0  0  0  0  0  0  0  0  0  0  0  0
   61.1599   27.3639   46.0386 H   0  0  0  0  0  0  0  0  0  0  0  0
   59.4086   25.6607   46.8942 H   0  0  0  0  0  0  0  0  0  0  0  0
   57.0804   24.9187   46.8162 H   0  0  0  0  0  0  0  0  0  0  0  0
   54.6377   24.3621   46.5333 H   0  0  0  0  0  0  0  0  0  0  0  0
   53.8161   24.8872   45.0247 H   0  0  0  0  0  0  0  0  0  0  0  0
   55.5868   24.5851   45.0247 H   0  0  0  0  0  0  0  0  0  0  0  0
   56.0299   30.7945   44.6483 H   0  0  0  0  0  0  0  0  0  0  0  0
   56.6997   29.5683   43.5194 H   0  0  0  0  0  0  0  0  0  0  0  0
   54.9386   29.9219   43.5194 H   0  0  0  0  0  0  0  0  0  0  0  0
   58.2091   29.4262   45.2839 H   0  0  0  0  0  0  0  0  0  0  0  0
   57.9598   32.0224   46.2853 H   0  0  0  0  0  0  0  0  0  0  0  0
  1  2  1  0
  2  3  1  0
  3  4  2  0
  4  5  1  0
  5  6  2  0
  6  7  1  0
  7  8  1  0
  6  9  1  0
  9 10  1  0
 10 11  2  0
 10 12  1  0
 12 13  2  0
 13 14  1  0
 14 15  2  0
 15 16  1  0
 16 17  2  0
 17 18  1  0
 18 19  1  0
 17 20  1  0
 20 21  1  0
 21 22  1  0
 20 23  2  0
  9 24  2  0
 24  3  1  0
 23 14  1  0
  1 25  1  0
  1 26  1  0
  1 27  1  0
  4 28  1  0
  5 29  1  0
  8 30  1  0
  8 31  1  0
  8 32  1  0
 12 33  1  0
 13 34  1  0
 15 35  1  0
 16 36  1  0
 19 37  1  0
 19 38  1  0
 19 39  1  0
 22 40  1  0
 22 41  1  0
 22 42  1  0
 23 43  1  0
 24 44  1  0
M  END
>  <smiles>  (18) 
COc1ccc(OC)c(C(=O)C=Cc2ccc(OC)c(OC)c2)c1

>  <score_type>  (18) 
oracle

>  <origin>  (18) 
adg

>  <m_score__min__energy>  (18) 
-7.4000000000000004

>  <m_primary>  (18) 
energy

$$$$
19:0
     RDKit          3D

 50 53  0  0  0  0  0  0  0  0999 V2000
   63.3680   33.8210   46.4320 C   0  0  0  0  0  0  0  0  0  0  0  0
   63.3070   33.9210   47.9400 C   0  0  0  0  0  0  0  0  0  0  0  0
   63.4060   32.6180   48.5650 N   0  0  0  0  0  0  0  0  0  0  0  0
   64.6310   32.6300   49.3840 C   0  0  0  0  0  0  0  0  0  0  0  0
   62.3420   32.4070   49.5360 C   0  0  0  0  0  0  0  0  0  0  0  0
   61.1180   31.8170   48.9600 C   0  0  0  0  0  0  0  0  0  0  0  0
   61.2880   31.5390   47.5520 N   0  0  0  0  0  0  0  0  0  0  0  0
   60.2260   31.4140   46.6270 C   0  0  0  0  0  0  0  0  0  0  0  0
   59.5320   32.4450   46.0520 C   0  0  0  0  0  0  0  0  0  0  0  0
   59.9300   33.7240   46.3330 C   0  0  0  0  0  0  0  0  0  0  0  0
   59.2870   34.7960   45.7850 C   0  0  0  0  0  0  0  0  0  0  0  0
   58.2370   34.5900   44.9490 C   0  0  0  0  0  0  0  0  0  0  0  0
   57.8340   33.3000   44.6630 C   0  0  0  0  0  0  0  0  0  0  0  0
   58.4550   32.1800   45.1930 C   0  0  0  0  0  0  0  0  0  0  0  0
   58.0500   30.9490   44.8870 N   0  0  0  0  0  0  0  0  0  0  0  0
   56.9520   30.6800   43.9950 C   0  0  0  0  0  0  0  0  0  0  0  0
   58.7250   29.9150   45.4450 C   0  0  0  0  0  0  0  0  0  0  0  0
   59.8040   30.1290   46.3080 C   0  0  0  0  0  0  0  0  0  0  0  0
   60.2930   28.9410   46.7210 N   0  0  0  0  0  0  0  0  0  0  0  0
   59.5950   27.9460   46.1780 C   0  0  0  0  0  0  0  0  0  0  0  0
   59.7150   26.5690   46.3020 C   0  0  0  0  0  0  0  0  0  0  0  0
   58.8570   25.7230   45.6320 C   0  0  0  0  0  0  0  0  0  0  0  0
   57.8910   26.3100   44.8470 C   0  0  0  0  0  0  0  0  0  0  0  0
   57.7730   27.6970   44.7250 C   0  0  0  0  0  0  0  0  0  0  0  0
   58.6210   28.5350   45.3870 C   0  0  0  0  0  0  0  0  0  0  0  0
   63.9212   32.9140   46.1468 H   0  0  0  0  0  0  0  0  0  0  0  0
   62.3468   33.7704   46.0263 H   0  0  0  0  0  0  0  0  0  0  0  0
   63.8803   34.7058   46.0263 H   0  0  0  0  0  0  0  0  0  0  0  0
   64.1394   34.5491   48.2901 H   0  0  0  0  0  0  0  0  0  0  0  0
   62.3383   34.3627   48.2167 H   0  0  0  0  0  0  0  0  0  0  0  0
   64.3594   32.6273   50.4499 H   0  0  0  0  0  0  0  0  0  0  0  0
   65.2328   31.7377   49.1567 H   0  0  0  0  0  0  0  0  0  0  0  0
   65.2152   33.5339   49.1567 H   0  0  0  0  0  0  0  0  0  0  0  0
   62.7166   31.7321   50.3197 H   0  0  0  0  0  0  0  0  0  0  0  0
   62.0662   33.3967   49.9290 H   0  0  0  0  0  0  0  0  0  0  0  0
   60.8892   30.8787   49.4865 H   0  0  0  0  0  0  0  0  0  0  0  0
   60.2943   32.5366   49.0774 H   0  0  0  0  0  0  0  0  0  0  0  0
   62.2580   31.4160   47.1590 H   0  0  0  0  0  0  0  0  0  0  0  0
   60.7805   33.8904   47.0104 H   0  0  0  0  0  0  0  0  0  0  0  0
   59.6169   35.8190   46.0188 H   0  0  0  0  0  0  0  0  0  0  0  0
   57.7101   35.4458   44.5019 H   0  0  0  0  0  0  0  0  0  0  0  0
   56.9812   33.1551   43.9835 H   0  0  0  0  0  0  0  0  0  0  0  0
   56.0485   30.4586   44.5820 H   0  0  0  0  0  0  0  0  0  0  0  0
   56.7707   31.5603   43.3608 H   0  0  0  0  0  0  0  0  0  0  0  0
   57.1981   29.8156   43.3608 H   0  0  0  0  0  0  0  0  0  0  0  0
   61.1000   28.7710   47.3730 H   0  0  0  0  0  0  0  0  0  0  0  0
   60.5039   26.1476   46.9423 H   0  0  0  0  0  0  0  0  0  0  0  0
   58.9407   24.6298   45.7207 H   0  0  0  0  0  0  0  0  0  0  0  0
   57.1886   25.6661   44.2975 H   0  0  0  0  0  0  0  0  0  0  0  0
   56.9841   28.1193   44.0852 H   0  0  0  0  0  0  0  0  0  0  0  0
  1  2  1  0
  2  3  1  0
  3  4  1  0
  3  5  1  0
  5  6  1  0
  6  7  1  0
  7  8  1  0
  8  9  2  0
  9 10  1  0
 10 11  2  0
 11 12  1  0
 12 13  2  0
 13 14  1  0
 14 15  2  0
 15 16  1  0
 15 17  1  0
 17 18  2  0
 18 19  1  0
 19 20  1  0
 20 21  2  0
 21 22  1  0
 22 23  2  0
 23 24  1  0
 24 25  2  0
 18  8  1  0
 25 20  1  0
 14  9  1  0
 25 17  1  0
  1 26  1  0
  1 27  1  0
  1 28  1  0
  2 29  1  0
  2 30  1  0
  4 31  1  0
  4 32  1  0
  4 33  1  0
  5 34  1  0
  5 35  1  0
  6 36  1  0
  6 37  1  0
  7 38  1  0
 10 39  1  0
 11 40  1  0
 12 41  1  0
 13 42  1  0
 16 43  1  0
 16 44  1  0
 16 45  1  0
 19 46  1  0
 21 47  1  0
 22 48  1  0
 23 49  1  0
 24 50  1  0
M  CHG  1  15   1
M  END
>  <smiles>  (19) 
CCN(C)CCNc1c2ccccc2[n+](C)c2c1[nH]c1ccccc12

>  <score_type>  (19) 
oracle

>  <origin>  (19) 
adg

>  <m_score__min__energy>  (19) 
-6.0800000000000001

>  <m_primary>  (19) 
energy

$$$$
20:0
     RDKit          3D

 56 59  0  0  1  0  0  0  0  0999 V2000
   63.4300   33.4530   46.7030 C   0  0  0  0  0  0  0  0  0  0  0  0
   62.2410   34.1770   46.9390 O   0  0  0  0  0  0  0  0  0  0  0  0
   61.5960   34.0670   48.1560 C   0  0  0  0  0  0  0  0  0  0  0  0
   62.3070   33.6440   49.2530 C   0  0  0  0  0  0  0  0  0  0  0  0
   61.6600   33.5260   50.4900 C   0  0  0  0  0  0  0  0  0  0  0  0
   60.3420   33.8100   50.6840 C   0  0  0  0  0  0  0  0  0  0  0  0
   59.6080   33.7070   51.9250 C   0  0  0  0  0  0  0  0  0  0  0  0
   58.4690   33.2600   52.1370 N   0  0  0  0  0  0  0  0  0  0  0  0
   57.9540   32.0480   51.8220 N   0  0  0  0  0  0  0  0  0  0  0  0
   56.6420   31.7020   52.0230 C   0  0  0  0  0  0  0  0  0  0  0  0
   56.4940   30.4220   51.6500 N   0  0  0  0  0  0  0  0  0  0  0  0
   57.6410   29.9350   51.2230 N   0  0  0  0  0  0  0  0  0  0  0  0
   58.5470   30.9180   51.3210 C   0  0  0  0  0  0  0  0  0  0  0  0
   59.6340   34.2360   49.5780 C   0  0  0  0  0  0  0  0  0  0  0  0
   60.2640   34.3540   48.3560 C   0  0  0  0  0  0  0  0  0  0  0  0
   59.4280   34.8400   47.2300 C   0  0  0  0  0  0  0  0  0  0  0  0
   58.6810   33.8690   46.5320 N   0  0  0  0  0  0  0  0  0  0  0  0
   59.1380   33.4140   45.2760 C   0  0  0  0  0  0  0  0  0  0  0  0
   58.2870   32.2620   44.7400 C   0  0  0  0  0  0  0  0  0  0  0  0
   58.4110   31.1730   45.6960 N   0  0  0  0  0  0  0  0  0  0  0  0
   58.4270   29.8050   45.2950 C   0  0  0  0  0  0  0  0  0  0  0  0
   59.6680   29.1800   45.3060 C   0  0  0  0  0  0  0  0  0  0  0  0
   59.7870   27.8580   44.9340 C   0  0  0  0  0  0  0  0  0  0  0  0
   58.6730   27.1440   44.5460 C   0  0  0  0  0  0  0  0  0  0  0  0
   57.4570   27.7740   44.5400 C   0  0  0  0  0  0  0  0  0  0  0  0
   57.3160   29.1070   44.9110 C   0  0  0  0  0  0  0  0  0  0  0  0
   56.0930   29.7340   44.9030 O   0  0  0  0  0  0  0  0  0  0  0  0
   55.5160   30.0820   43.6660 C   0  0  0  0  0  0  0  0  0  0  0  0
   58.5230   31.4840   47.1040 C   0  0  0  0  0  0  0  0  0  0  0  0
   58.0340   32.8930   47.3490 C   0  0  0  0  0  0  0  0  0  0  0  0
   63.8868   33.1748   47.6642 H   0  0  0  0  0  0  0  0  0  0  0  0
   63.1976   32.5429   46.1305 H   0  0  0  0  0  0  0  0  0  0  0  0
   64.1319   34.0772   46.1305 H   0  0  0  0  0  0  0  0  0  0  0  0
   63.3756   33.4000   49.1607 H   0  0  0  0  0  0  0  0  0  0  0  0
   62.2498   33.1847   51.3535 H   0  0  0  0  0  0  0  0  0  0  0  0
   60.1373   34.0802   52.8141 H   0  0  0  0  0  0  0  0  0  0  0  0
   55.8522   32.3572   52.4193 H   0  0  0  0  0  0  0  0  0  0  0  0
   59.6073   30.8311   51.0414 H   0  0  0  0  0  0  0  0  0  0  0  0
   58.5659   34.4818   49.6711 H   0  0  0  0  0  0  0  0  0  0  0  0
   58.7199   35.5781   47.6347 H   0  0  0  0  0  0  0  0  0  0  0  0
   60.1394   35.2423   46.4938 H   0  0  0  0  0  0  0  0  0  0  0  0
   59.0980   34.2481   44.5600 H   0  0  0  0  0  0  0  0  0  0  0  0
   60.1672   33.0465   45.4015 H   0  0  0  0  0  0  0  0  0  0  0  0
   57.2357   32.5745   44.6551 H   0  0  0  0  0  0  0  0  0  0  0  0
   58.6244   31.9519   43.7400 H   0  0  0  0  0  0  0  0  0  0  0  0
   60.5611   29.7437   45.6135 H   0  0  0  0  0  0  0  0  0  0  0  0
   60.7734   27.3713   44.9467 H   0  0  0  0  0  0  0  0  0  0  0  0
   58.7593   26.0889   44.2471 H   0  0  0  0  0  0  0  0  0  0  0  0
   56.5649   27.2087   44.2325 H   0  0  0  0  0  0  0  0  0  0  0  0
   54.5859   30.6429   43.8401 H   0  0  0  0  0  0  0  0  0  0  0  0
   56.2196   30.7065   43.0960 H   0  0  0  0  0  0  0  0  0  0  0  0
   55.2919   29.1683   43.0960 H   0  0  0  0  0  0  0  0  0  0  0  0
   57.9122   30.7776   47.6853 H   0  0  0  0  0  0  0  0  0  0  0  0
   59.5748   31.4015   47.4153 H   0  0  0  0  0  0  0  0  0  0  0  0
   56.9538   32.9276   47.1439 H   0  0  0  0  0  0  0  0  0  0  0  0
   58.2673   33.1398   48.3953 H   0  0  0  0  0  0  0  0  0  0  0  0
  1  2  1  0
  2  3  1  0
  3  4  2  0
  4  5  1  0
  5  6  2  0
  6  7  1  0
  7  8  2  0
  8  9  1  0
  9 10  1  0
 10 11  2  0
 11 12  1  0
 12 13  2  0
  6 14  1  0
 14 15  2  0
 15 16  1  0
 16 17  1  0
 17 18  1  0
 18 19  1  0
 19 20  1  0
 20 21  1  0
 21 22  2  0
 22 23  1  0
 23 24  2  0
 24 25  1  0
 25 26  2  0
 26 27  1  0
 27 28  1  0
 20 29  1  0
 29 30  1  0
 15  3  1  0
 30 17  1  0
 13  9  1  0
 26 21  1  0
  1 31  1  0
  1 32  1  0
  1 33  1  0
  4 34  1  0
  5 35  1  0
  7 36  1  0
 10 37  1  0
 13 38  1  0
 14 39  1  0
 16 40  1  0
 16 41  1  0
 18 42  1  0
 18 43  1  0
 19 44  1  0
 19 45  1  0
 22 46  1  0
 23 47  1  0
 24 48  1  0
 25 49  1  0
 28 50  1  0
 28 51  1  0
 28 52  1  0
 29 53  1  0
 29 54  1  0
 30 55  1  0
 30 56  1  0
M  END
>  <smiles>  (20) 
COc1ccc(C=Nn2cnnc2)cc1CN1CCN(c2ccccc2OC)CC1

>  <score_type>  (20) 
oracle

>  <origin>  (20) 
adg

>  <m_score__min__energy>  (20) 
-8.5399999999999991

>  <m_primary>  (20) 
energy

$$$$
21:0
     RDKit          3D

 31 33  0  0  0  0  0  0  0  0999 V2000
   55.6910   29.7250   43.4190 C   0  0  0  0  0  0  0  0  0  0  0  0
   55.9890   29.5690   44.7980 O   0  0  0  0  0  0  0  0  0  0  0  0
   57.1150   30.2570   45.2490 C   0  0  0  0  0  0  0  0  0  0  0  0
   57.9980   29.6720   46.1540 C   0  0  0  0  0  0  0  0  0  0  0  0
   59.1270   30.3700   46.6030 C   0  0  0  0  0  0  0  0  0  0  0  0
   59.3330   31.6420   46.1240 C   0  0  0  0  0  0  0  0  0  0  0  0
   58.4330   32.2110   45.2190 C   0  0  0  0  0  0  0  0  0  0  0  0
   57.3210   31.5460   44.7650 C   0  0  0  0  0  0  0  0  0  0  0  0
   58.5690   33.6050   44.6670 C   0  0  0  0  0  0  0  0  0  0  0  0
   58.5380   34.4900   45.9020 C   0  0  0  0  0  0  0  0  0  0  0  0
   59.8680   34.7940   46.4810 C   0  0  0  0  0  0  0  0  0  0  0  0
   60.6840   33.6230   46.7920 C   0  0  0  0  0  0  0  0  0  0  0  0
   62.3890   33.8670   47.5450 S   0  0  0  0  0  0  0  0  0  0  0  0
   62.6590   32.1130   47.5810 C   0  0  0  0  0  0  0  0  0  0  0  0
   63.7570   31.5610   48.0330 N   0  0  0  0  0  0  0  0  0  0  0  0
   61.5950   31.5350   47.0930 N   0  0  0  0  0  0  0  0  0  0  0  0
   60.5800   32.2630   46.6860 C   0  0  0  0  0  0  0  0  0  0  0  0
   54.7214   30.2326   43.3085 H   0  0  0  0  0  0  0  0  0  0  0  0
   56.4769   30.3274   42.9399 H   0  0  0  0  0  0  0  0  0  0  0  0
   55.6438   28.7359   42.9399 H   0  0  0  0  0  0  0  0  0  0  0  0
   57.8070   28.6523   46.5196 H   0  0  0  0  0  0  0  0  0  0  0  0
   59.8277   29.9136   47.3176 H   0  0  0  0  0  0  0  0  0  0  0  0
   56.6246   32.0105   44.0514 H   0  0  0  0  0  0  0  0  0  0  0  0
   59.5196   33.7209   44.1259 H   0  0  0  0  0  0  0  0  0  0  0  0
   57.7777   33.8552   43.9451 H   0  0  0  0  0  0  0  0  0  0  0  0
   58.0576   35.4413   45.6296 H   0  0  0  0  0  0  0  0  0  0  0  0
   57.9856   33.9301   46.6710 H   0  0  0  0  0  0  0  0  0  0  0  0
   60.4209   35.4146   45.7605 H   0  0  0  0  0  0  0  0  0  0  0  0
   59.6797   35.3026   47.4380 H   0  0  0  0  0  0  0  0  0  0  0  0
   64.6450   31.6670   47.5340 H   0  0  0  0  0  0  0  0  0  0  0  0
   61.5780   30.4500   47.0200 H   0  0  0  0  0  0  0  0  0  0  0  0
  1  2  1  0
  2  3  1  0
  3  4  2  0
  4  5  1  0
  5  6  2  0
  6  7  1  0
  7  8  2  0
  7  9  1  0
  9 10  1  0
 10 11  1  0
 11 12  1  0
 12 13  1  0
 13 14  1  0
 14 15  2  3
 14 16  1  0
 16 17  1  0
  8  3  1  0
 17 12  2  0
 17  6  1  0
  1 18  1  0
  1 19  1  0
  1 20  1  0
  4 21  1  0
  5 22  1  0
  8 23  1  0
  9 24  1  0
  9 25  1  0
 10 26  1  0
 10 27  1  0
 11 28  1  0
 11 29  1  0
 15 30  1  0
 16 31  1  0
M  END
>  <smiles>  (21) 
COc1ccc2c(c1)CCCc1sc(=N)[nH]c1-2

>  <score_type>  (21) 
oracle

>  <origin>  (21) 
adg

>  <m_score__min__energy>  (21) 
-5.5

>  <m_primary>  (21) 
energy

$$$$
22:0
     RDKit          3D

 42 45  0  0  0  0  0  0  0  0999 V2000
   66.4690   32.4210   50.9850 C   0  0  0  0  0  0  0  0  0  0  0  0
   65.3180   32.7770   50.1220 C   0  0  0  0  0  0  0  0  0  0  0  0
   64.9550   32.7460   48.9970 N   0  0  0  0  0  0  0  0  0  0  0  0
   63.8130   33.1590   48.4960 C   0  0  0  0  0  0  0  0  0  0  0  0
   63.3880   33.1200   47.1560 C   0  0  0  0  0  0  0  0  0  0  0  0
   62.1640   33.5950   46.8110 C   0  0  0  0  0  0  0  0  0  0  0  0
   61.2580   34.1440   47.7250 C   0  0  0  0  0  0  0  0  0  0  0  0
   60.0540   34.5890   47.2590 O   0  0  0  0  0  0  0  0  0  0  0  0
   59.2100   34.0280   46.3530 C   0  0  0  0  0  0  0  0  0  0  0  0
   58.9790   32.6490   46.4870 C   0  0  0  0  0  0  0  0  0  0  0  0
   58.1470   31.9630   45.6370 C   0  0  0  0  0  0  0  0  0  0  0  0
   57.8730   30.5380   45.7310 C   0  0  0  0  0  0  0  0  0  0  0  0
   56.9540   30.0080   44.8500 C   0  0  0  0  0  0  0  0  0  0  0  0
   56.6520   28.6460   44.8950 C   0  0  0  0  0  0  0  0  0  0  0  0
   57.2380   27.7890   45.7940 C   0  0  0  0  0  0  0  0  0  0  0  0
   56.8630   26.0990   45.8490 S   0  0  0  0  0  0  0  0  0  0  0  0
   57.4650   25.3230   44.3820 C   0  0  0  0  0  0  0  0  0  0  0  0
   55.3930   25.9150   46.0400 O   0  0  0  0  0  0  0  0  0  0  0  0
   57.6130   25.4960   47.0230 O   0  0  0  0  0  0  0  0  0  0  0  0
   58.1640   28.3490   46.6740 C   0  0  0  0  0  0  0  0  0  0  0  0
   58.4750   29.6990   46.6430 C   0  0  0  0  0  0  0  0  0  0  0  0
   57.5490   32.6600   44.6540 N   0  0  0  0  0  0  0  0  0  0  0  0
   57.7690   34.0000   44.5160 C   0  0  0  0  0  0  0  0  0  0  0  0
   58.5820   34.6560   45.3530 N   0  0  0  0  0  0  0  0  0  0  0  0
   61.6830   34.1780   49.0320 C   0  0  0  0  0  0  0  0  0  0  0  0
   62.9460   33.6880   49.3880 C   0  0  0  0  0  0  0  0  0  0  0  0
   63.7840   33.5780   50.9090 S   0  0  0  0  0  0  0  0  0  0  0  0
   66.1768   32.5114   52.0416 H   0  0  0  0  0  0  0  0  0  0  0  0
   66.7769   31.3857   50.7770 H   0  0  0  0  0  0  0  0  0  0  0  0
   67.3076   33.1017   50.7770 H   0  0  0  0  0  0  0  0  0  0  0  0
   64.0507   32.7025   46.3836 H   0  0  0  0  0  0  0  0  0  0  0  0
   61.8677   33.5455   45.7528 H   0  0  0  0  0  0  0  0  0  0  0  0
   59.4805   32.1013   47.2985 H   0  0  0  0  0  0  0  0  0  0  0  0
   56.4596   30.6577   44.1128 H   0  0  0  0  0  0  0  0  0  0  0  0
   55.9164   28.2436   44.1830 H   0  0  0  0  0  0  0  0  0  0  0  0
   58.1183   24.4809   44.6543 H   0  0  0  0  0  0  0  0  0  0  0  0
   56.6163   24.9518   43.7888 H   0  0  0  0  0  0  0  0  0  0  0  0
   58.0356   26.0528   43.7888 H   0  0  0  0  0  0  0  0  0  0  0  0
   58.6605   27.7019   47.4121 H   0  0  0  0  0  0  0  0  0  0  0  0
   59.2099   30.1049   47.3537 H   0  0  0  0  0  0  0  0  0  0  0  0
   57.2703   34.5496   43.7041 H   0  0  0  0  0  0  0  0  0  0  0  0
   61.0234   34.5949   49.8073 H   0  0  0  0  0  0  0  0  0  0  0  0
  1  2  1  0
  2  3  2  0
  3  4  1  0
  4  5  2  0
  5  6  1  0
  6  7  2  0
  7  8  1  0
  8  9  1  0
  9 10  2  0
 10 11  1  0
 11 12  1  0
 12 13  2  0
 13 14  1  0
 14 15  2  0
 15 16  1  0
 16 17  1  0
 16 18  2  0
 16 19  2  0
 15 20  1  0
 20 21  2  0
 11 22  2  0
 22 23  1  0
 23 24  2  0
  7 25  1  0
 25 26  2  0
 26 27  1  0
 27  2  1  0
 26  4  1  0
 24  9  1  0
 21 12  1  0
  1 28  1  0
  1 29  1  0
  1 30  1  0
  5 31  1  0
  6 32  1  0
 10 33  1  0
 13 34  1  0
 14 35  1  0
 17 36  1  0
 17 37  1  0
 17 38  1  0
 20 39  1  0
 21 40  1  0
 23 41  1  0
 25 42  1  0
M  END
>  <smiles>  (22) 
Cc1nc2ccc(Oc3cc(-c4ccc(S(C)(=O)=O)cc4)ncn3)cc2s1

>  <score_type>  (22) 
oracle

>  <origin>  (22) 
adg

>  <m_score__min__energy>  (22) 
-9.1899999999999995

>  <m_primary>  (22) 
energy

$$$$
23:0
     RDKit          3D

 41 43  0  0  0  0  0  0  0  0999 V2000
   57.1430   33.8380   47.0970 O   0  0  0  0  0  0  0  0  0  0  0  0
   58.1920   33.3770   46.5250 C   0  0  0  0  0  0  0  0  0  0  0  0
   57.9630   32.6910   45.2680 C   0  0  0  0  0  0  0  0  0  0  0  0
   58.3570   33.3580   44.1020 C   0  0  0  0  0  0  0  0  0  0  0  0
   58.1570   32.7120   42.8990 C   0  0  0  0  0  0  0  0  0  0  0  0
   57.5910   31.4510   42.8290 C   0  0  0  0  0  0  0  0  0  0  0  0
   57.2090   30.8080   43.9890 C   0  0  0  0  0  0  0  0  0  0  0  0
   56.6030   29.4520   43.9020 C   0  0  0  0  0  0  0  0  0  0  0  0
   57.3770   28.5550   44.6100 F   0  0  0  0  0  0  0  0  0  0  0  0
   56.4930   29.0600   42.5900 F   0  0  0  0  0  0  0  0  0  0  0  0
   55.3830   29.5180   44.5350 F   0  0  0  0  0  0  0  0  0  0  0  0
   57.4010   31.4410   45.2270 C   0  0  0  0  0  0  0  0  0  0  0  0
   59.4610   33.5570   47.1310 N   0  0  0  0  0  0  0  0  0  0  0  0
   60.7090   33.0980   46.5710 C   0  0  0  0  0  0  0  0  0  0  0  0
   61.8430   33.8520   47.2670 C   0  0  0  0  0  0  0  0  0  0  0  0
   61.7980   33.3760   48.6530 N   0  0  0  0  0  0  0  0  0  0  0  0
   62.9290   32.8120   49.2940 C   0  0  0  0  0  0  0  0  0  0  0  0
   62.8070   31.6780   50.1130 C   0  0  0  0  0  0  0  0  0  0  0  0
   63.9410   31.1550   50.7410 C   0  0  0  0  0  0  0  0  0  0  0  0
   65.1920   31.7620   50.5540 C   0  0  0  0  0  0  0  0  0  0  0  0
   65.3090   32.8930   49.7380 C   0  0  0  0  0  0  0  0  0  0  0  0
   64.1860   33.4100   49.1150 C   0  0  0  0  0  0  0  0  0  0  0  0
   60.5200   33.5430   49.3300 C   0  0  0  0  0  0  0  0  0  0  0  0
   59.5210   34.2300   48.4220 C   0  0  0  0  0  0  0  0  0  0  0  0
   58.8092   34.3599   44.1431 H   0  0  0  0  0  0  0  0  0  0  0  0
   58.4565   33.2146   41.9675 H   0  0  0  0  0  0  0  0  0  0  0  0
   57.4463   30.9636   41.8536 H   0  0  0  0  0  0  0  0  0  0  0  0
   57.1025   30.9375   46.1583 H   0  0  0  0  0  0  0  0  0  0  0  0
   60.8196   32.0169   46.7411 H   0  0  0  0  0  0  0  0  0  0  0  0
   60.7339   33.2845   45.4872 H   0  0  0  0  0  0  0  0  0  0  0  0
   62.8117   33.6126   46.8041 H   0  0  0  0  0  0  0  0  0  0  0  0
   61.7286   34.9436   47.1938 H   0  0  0  0  0  0  0  0  0  0  0  0
   61.8252   31.2042   50.2595 H   0  0  0  0  0  0  0  0  0  0  0  0
   63.8524   30.2661   51.3829 H   0  0  0  0  0  0  0  0  0  0  0  0
   66.0825   31.3482   51.0497 H   0  0  0  0  0  0  0  0  0  0  0  0
   66.2897   33.3694   49.5922 H   0  0  0  0  0  0  0  0  0  0  0  0
   64.2798   34.2984   48.4732 H   0  0  0  0  0  0  0  0  0  0  0  0
   60.1298   32.5547   49.6145 H   0  0  0  0  0  0  0  0  0  0  0  0
   60.6715   34.1645   50.2249 H   0  0  0  0  0  0  0  0  0  0  0  0
   58.5265   34.2031   48.8913 H   0  0  0  0  0  0  0  0  0  0  0  0
   59.8378   35.2719   48.2667 H   0  0  0  0  0  0  0  0  0  0  0  0
  1  2  2  0
  2  3  1  0
  3  4  2  0
  4  5  1  0
  5  6  2  0
  6  7  1  0
  7  8  1  0
  8  9  1  0
  8 10  1  0
  8 11  1  0
  7 12  2  0
  2 13  1  0
 13 14  1  0
 14 15  1  0
 15 16  1  0
 16 17  1  0
 17 18  2  0
 18 19  1  0
 19 20  2  0
 20 21  1  0
 21 22  2  0
 16 23  1  0
 23 24  1  0
 12  3  1  0
 24 13  1  0
 22 17  1  0
  4 25  1  0
  5 26  1  0
  6 27  1  0
 12 28  1  0
 14 29  1  0
 14 30  1  0
 15 31  1  0
 15 32  1  0
 18 33  1  0
 19 34  1  0
 20 35  1  0
 21 36  1  0
 22 37  1  0
 23 38  1  0
 23 39  1  0
 24 40  1  0
 24 41  1  0
M  END
>  <smiles>  (23) 
O=C(c1cccc(C(F)(F)F)c1)N1CCN(c2ccccc2)CC1

>  <score_type>  (23) 
oracle

>  <origin>  (23) 
adg

>  <m_score__min__energy>  (23) 
-7.29

>  <m_primary>  (23) 
energy

$$$$
24:0
     RDKit          3D

 44 46  0  0  0  0  0  0  0  0999 V2000
   65.2360   33.0780   49.8150 C   0  0  0  0  0  0  0  0  0  0  0  0
   64.6020   32.0710   49.0740 O   0  0  0  0  0  0  0  0  0  0  0  0
   63.4830   32.3670   48.3320 C   0  0  0  0  0  0  0  0  0  0  0  0
   63.3930   33.5350   47.6320 C   0  0  0  0  0  0  0  0  0  0  0  0
   62.2450   33.8070   46.8870 C   0  0  0  0  0  0  0  0  0  0  0  0
   61.1740   32.9530   46.8110 C   0  0  0  0  0  0  0  0  0  0  0  0
   59.9900   33.2090   46.0760 N   0  0  0  0  0  0  0  0  0  0  0  0
   59.5260   34.4830   45.6830 C   0  0  0  0  0  0  0  0  0  0  0  0
   60.1160   35.5540   45.9510 O   0  0  0  0  0  0  0  0  0  0  0  0
   58.2670   34.5870   44.9050 C   0  0  0  0  0  0  0  0  0  0  0  0
   57.0050   33.4480   45.5260 S   0  0  0  0  0  0  0  0  0  0  0  0
   57.3800   31.8110   45.0850 C   0  0  0  0  0  0  0  0  0  0  0  0
   57.9080   30.8060   45.5760 N   0  0  0  0  0  0  0  0  0  0  0  0
   58.0940   29.6420   45.1180 C   0  0  0  0  0  0  0  0  0  0  0  0
   58.7550   28.5190   45.8090 C   0  0  0  0  0  0  0  0  0  0  0  0
   60.0690   28.2330   45.5120 C   0  0  0  0  0  0  0  0  0  0  0  0
   60.7280   27.1950   46.1380 C   0  0  0  0  0  0  0  0  0  0  0  0
   60.0730   26.4290   47.0730 C   0  0  0  0  0  0  0  0  0  0  0  0
   58.7660   26.7390   47.3460 C   0  0  0  0  0  0  0  0  0  0  0  0
   58.0730   27.7720   46.7380 C   0  0  0  0  0  0  0  0  0  0  0  0
   57.5850   29.4540   43.7540 C   0  0  0  0  0  0  0  0  0  0  0  0
   56.8920   31.1020   43.3660 S   0  0  0  0  0  0  0  0  0  0  0  0
   61.2660   31.7520   47.5340 C   0  0  0  0  0  0  0  0  0  0  0  0
   60.1880   30.9140   47.4470 O   0  0  0  0  0  0  0  0  0  0  0  0
   59.3520   30.6260   48.5190 C   0  0  0  0  0  0  0  0  0  0  0  0
   62.4080   31.5010   48.2640 C   0  0  0  0  0  0  0  0  0  0  0  0
   65.1098   32.8775   50.8892 H   0  0  0  0  0  0  0  0  0  0  0  0
   66.3079   33.0948   49.5686 H   0  0  0  0  0  0  0  0  0  0  0  0
   64.7878   34.0519   49.5686 H   0  0  0  0  0  0  0  0  0  0  0  0
   64.2213   34.2584   47.6550 H   0  0  0  0  0  0  0  0  0  0  0  0
   62.1962   34.7554   46.3318 H   0  0  0  0  0  0  0  0  0  0  0  0
   59.3920   32.3930   45.7840 H   0  0  0  0  0  0  0  0  0  0  0  0
   57.8861   35.6163   44.9781 H   0  0  0  0  0  0  0  0  0  0  0  0
   58.4852   34.3225   43.8598 H   0  0  0  0  0  0  0  0  0  0  0  0
   60.6007   28.8408   44.7651 H   0  0  0  0  0  0  0  0  0  0  0  0
   61.7777   26.9803   45.8889 H   0  0  0  0  0  0  0  0  0  0  0  0
   60.5797   25.5970   47.5838 H   0  0  0  0  0  0  0  0  0  0  0  0
   58.2357   26.1303   48.0932 H   0  0  0  0  0  0  0  0  0  0  0  0
   57.0231   27.9849   46.9879 H   0  0  0  0  0  0  0  0  0  0  0  0
   57.6131   28.5518   43.1253 H   0  0  0  0  0  0  0  0  0  0  0  0
   59.8878   30.8106   49.4618 H   0  0  0  0  0  0  0  0  0  0  0  0
   58.4607   31.2689   48.4719 H   0  0  0  0  0  0  0  0  0  0  0  0
   59.0457   29.5705   48.4719 H   0  0  0  0  0  0  0  0  0  0  0  0
   62.4672   30.5567   48.8250 H   0  0  0  0  0  0  0  0  0  0  0  0
  1  2  1  0
  2  3  1  0
  3  4  2  0
  4  5  1  0
  5  6  2  0
  6  7  1  0
  7  8  1  0
  8  9  2  0
  8 10  1  0
 10 11  1  0
 11 12  1  0
 12 13  2  0
 13 14  1  0
 14 15  1  0
 15 16  2  0
 16 17  1  0
 17 18  2  0
 18 19  1  0
 19 20  2  0
 14 21  2  0
 21 22  1  0
  6 23  1  0
 23 24  1  0
 24 25  1  0
 23 26  2  0
 26  3  1  0
 22 12  1  0
 20 15  1  0
  1 27  1  0
  1 28  1  0
  1 29  1  0
  4 30  1  0
  5 31  1  0
  7 32  1  0
 10 33  1  0
 10 34  1  0
 16 35  1  0
 17 36  1  0
 18 37  1  0
 19 38  1  0
 20 39  1  0
 21 40  1  0
 25 41  1  0
 25 42  1  0
 25 43  1  0
 26 44  1  0
M  END
>  <smiles>  (24) 
COc1ccc(NC(=O)CSc2nc(-c3ccccc3)cs2)c(OC)c1

>  <score_type>  (24) 
oracle

>  <origin>  (24) 
adg

>  <m_score__min__energy>  (24) 
-7.0800000000000001

>  <m_primary>  (24) 
energy

$$$$
25:0
     RDKit          3D

 65 66  0  0  0  0  0  0  0  0999 V2000
   58.9420   26.5770   47.2440 C   0  0  0  0  0  0  0  0  0  0  0  0
   58.5850   26.3140   45.8240 C   0  0  0  0  0  0  0  0  0  0  0  0
   58.9470   27.4740   44.9400 N   0  0  0  0  0  0  0  0  0  0  0  0
   59.8500   28.3070   45.6890 C   0  0  0  0  0  0  0  0  0  0  0  0
   60.8950   28.9560   44.8730 C   0  0  0  0  0  0  0  0  0  0  0  0
   57.7590   28.0530   44.4520 C   0  0  0  0  0  0  0  0  0  0  0  0
   56.6680   28.4680   45.3390 C   0  0  0  0  0  0  0  0  0  0  0  0
   56.0760   29.6290   44.8530 O   0  0  0  0  0  0  0  0  0  0  0  0
   56.6570   30.1670   43.7440 C   0  0  0  0  0  0  0  0  0  0  0  0
   57.1140   31.5630   43.8320 C   0  0  0  0  0  0  0  0  0  0  0  0
   57.0780   32.0460   45.2080 N   0  0  0  0  0  0  0  0  0  0  0  0
   58.1450   31.3450   45.9050 C   0  0  0  0  0  0  0  0  0  0  0  0
   59.3550   32.2650   45.9950 C   0  0  0  0  0  0  0  0  0  0  0  0
   59.0970   33.3520   46.9110 N   0  0  0  0  0  0  0  0  0  0  0  0
   60.0070   34.4740   46.7010 C   0  0  0  0  0  0  0  0  0  0  0  0
   61.3740   33.9360   46.4050 C   0  0  0  0  0  0  0  0  0  0  0  0
   62.2120   33.8410   47.6330 C   0  0  0  0  0  0  0  0  0  0  0  0
   62.5820   32.4060   47.8940 C   0  0  0  0  0  0  0  0  0  0  0  0
   61.3990   31.6850   48.4820 C   0  0  0  0  0  0  0  0  0  0  0  0
   61.1060   30.3990   48.0900 C   0  0  0  0  0  0  0  0  0  0  0  0
   60.0120   29.7650   48.6490 C   0  0  0  0  0  0  0  0  0  0  0  0
   59.2620   30.4610   49.5810 C   0  0  0  0  0  0  0  0  0  0  0  0
   59.5420   31.7420   49.9820 C   0  0  0  0  0  0  0  0  0  0  0  0
   60.6390   32.3540   49.4090 C   0  0  0  0  0  0  0  0  0  0  0  0
   57.7410   33.8330   46.6770 C   0  0  0  0  0  0  0  0  0  0  0  0
   57.2410   33.4810   45.2850 C   0  0  0  0  0  0  0  0  0  0  0  0
   58.2330   26.0547   47.9031 H   0  0  0  0  0  0  0  0  0  0  0  0
   59.9612   26.2123   47.4394 H   0  0  0  0  0  0  0  0  0  0  0  0
   58.8958   27.6585   47.4394 H   0  0  0  0  0  0  0  0  0  0  0  0
   59.1255   25.4200   45.4795 H   0  0  0  0  0  0  0  0  0  0  0  0
   57.4972   26.1618   45.7646 H   0  0  0  0  0  0  0  0  0  0  0  0
   59.2622   29.0934   46.1851 H   0  0  0  0  0  0  0  0  0  0  0  0
   60.3694   27.6486   46.4009 H   0  0  0  0  0  0  0  0  0  0  0  0
   61.6416   29.4197   45.5346 H   0  0  0  0  0  0  0  0  0  0  0  0
   61.3849   28.2030   44.2382 H   0  0  0  0  0  0  0  0  0  0  0  0
   60.4372   29.7290   44.2382 H   0  0  0  0  0  0  0  0  0  0  0  0
   58.0622   28.9532   43.8972 H   0  0  0  0  0  0  0  0  0  0  0  0
   57.3030   27.2128   43.9079 H   0  0  0  0  0  0  0  0  0  0  0  0
   55.9145   27.6681   45.3888 H   0  0  0  0  0  0  0  0  0  0  0  0
   57.0727   28.6619   46.3433 H   0  0  0  0  0  0  0  0  0  0  0  0
   57.5317   29.5479   43.4958 H   0  0  0  0  0  0  0  0  0  0  0  0
   55.8611   30.1775   42.9848 H   0  0  0  0  0  0  0  0  0  0  0  0
   58.1460   31.6267   43.4566 H   0  0  0  0  0  0  0  0  0  0  0  0
   56.4408   32.1878   43.2266 H   0  0  0  0  0  0  0  0  0  0  0  0
   57.8103   31.0734   46.9170 H   0  0  0  0  0  0  0  0  0  0  0  0
   58.4108   30.4280   45.3587 H   0  0  0  0  0  0  0  0  0  0  0  0
   60.2218   31.6892   46.3515 H   0  0  0  0  0  0  0  0  0  0  0  0
   59.5604   32.6813   44.9977 H   0  0  0  0  0  0  0  0  0  0  0  0
   59.6566   35.0809   45.8531 H   0  0  0  0  0  0  0  0  0  0  0  0
   60.0395   35.1036   47.6024 H   0  0  0  0  0  0  0  0  0  0  0  0
   61.2737   32.9330   45.9646 H   0  0  0  0  0  0  0  0  0  0  0  0
   61.8688   34.6279   45.7076 H   0  0  0  0  0  0  0  0  0  0  0  0
   63.1281   34.4342   47.4956 H   0  0  0  0  0  0  0  0  0  0  0  0
   61.6417   34.2284   48.4901 H   0  0  0  0  0  0  0  0  0  0  0  0
   62.8731   31.9241   46.9490 H   0  0  0  0  0  0  0  0  0  0  0  0
   63.4251   32.3659   48.5993 H   0  0  0  0  0  0  0  0  0  0  0  0
   61.7310   29.8846   47.3452 H   0  0  0  0  0  0  0  0  0  0  0  0
   59.7454   28.7373   48.3614 H   0  0  0  0  0  0  0  0  0  0  0  0
   58.3910   29.9574   50.0257 H   0  0  0  0  0  0  0  0  0  0  0  0
   58.9200   32.2593   50.7274 H   0  0  0  0  0  0  0  0  0  0  0  0
   60.9051   33.3819   49.6965 H   0  0  0  0  0  0  0  0  0  0  0  0
   57.0701   33.3778   47.4204 H   0  0  0  0  0  0  0  0  0  0  0  0
   57.7506   34.9293   46.7660 H   0  0  0  0  0  0  0  0  0  0  0  0
   56.2755   33.9750   45.1011 H   0  0  0  0  0  0  0  0  0  0  0  0
   57.9623   33.8207   44.5271 H   0  0  0  0  0  0  0  0  0  0  0  0
  1  2  1  0
  2  3  1  0
  3  4  1  0
  4  5  1  0
  3  6  1  0
  6  7  1  0
  7  8  1  0
  8  9  1  0
  9 10  1  0
 10 11  1  0
 11 12  1  0
 12 13  1  0
 13 14  1  0
 14 15  1  0
 15 16  1  0
 16 17  1  0
 17 18  1  0
 18 19  1  0
 19 20  2  0
 20 21  1  0
 21 22  2  0
 22 23  1  0
 23 24  2  0
 14 25  1  0
 25 26  1  0
 26 11  1  0
 24 19  1  0
  1 27  1  0
  1 28  1  0
  1 29  1  0
  2 30  1  0
  2 31  1  0
  4 32  1  0
  4 33  1  0
  5 34  1  0
  5 35  1  0
  5 36  1  0
  6 37  1  0
  6 38  1  0
  7 39  1  0
  7 40  1  0
  9 41  1  0
  9 42  1  0
 10 43  1  0
 10 44  1  0
 12 45  1  0
 12 46  1  0
 13 47  1  0
 13 48  1  0
 15 49  1  0
 15 50  1  0
 16 51  1  0
 16 52  1  0
 17 53  1  0
 17 54  1  0
 18 55  1  0
 18 56  1  0
 20 57  1  0
 21 58  1  0
 22 59  1  0
 23 60  1  0
 24 61  1  0
 25 62  1  0
 25 63  1  0
 26 64  1  0
 26 65  1  0
M  END
>  <smiles>  (25) 
CCN(CC)CCOCCN1CCN(CCCCc2ccccc2)CC1

>  <score_type>  (25) 
oracle

>  <origin>  (25) 
adg

>  <m_score__min__energy>  (25) 
-7.3700000000000001

>  <m_primary>  (25) 
energy

$$$$
26:0
     RDKit          3D

 60 62  0  0  0  0  0  0  0  0999 V2000
   63.7530   25.1520   53.0600 C   0  0  0  0  0  0  0  0  0  0  0  0
   62.4130   25.5710   52.9860 O   0  0  0  0  0  0  0  0  0  0  0  0
   62.0350   26.6350   52.1880 C   0  0  0  0  0  0  0  0  0  0  0  0
   61.2080   26.3770   51.1290 C   0  0  0  0  0  0  0  0  0  0  0  0
   60.7840   27.4060   50.2760 C   0  0  0  0  0  0  0  0  0  0  0  0
   61.1680   28.7050   50.4550 C   0  0  0  0  0  0  0  0  0  0  0  0
   60.7960   29.8050   49.6550 N   0  0  0  0  0  0  0  0  0  0  0  0
   59.7930   29.8540   48.6770 C   0  0  0  0  0  0  0  0  0  0  0  0
   59.1370   28.7790   48.4840 O   0  0  0  0  0  0  0  0  0  0  0  0
   59.4180   30.9860   47.8590 C   0  0  0  0  0  0  0  0  0  0  0  0
   58.7880   30.7350   46.6310 C   0  0  0  0  0  0  0  0  0  0  0  0
   58.3840   31.7070   45.7780 C   0  0  0  0  0  0  0  0  0  0  0  0
   57.7370   31.3210   44.5350 C   0  0  0  0  0  0  0  0  0  0  0  0
   57.7410   31.8090   43.2870 C   0  0  0  0  0  0  0  0  0  0  0  0
   57.0270   31.2230   42.3240 C   0  0  0  0  0  0  0  0  0  0  0  0
   56.2860   30.1030   42.6460 C   0  0  0  0  0  0  0  0  0  0  0  0
   56.6170   29.8530   44.4400 S   0  0  0  0  0  0  0  0  0  0  0  0
   58.5780   33.0120   46.0810 C   0  0  0  0  0  0  0  0  0  0  0  0
   59.1980   33.3110   47.2860 C   0  0  0  0  0  0  0  0  0  0  0  0
   59.6150   32.3120   48.1680 C   0  0  0  0  0  0  0  0  0  0  0  0
   60.2090   32.6610   49.3120 O   0  0  0  0  0  0  0  0  0  0  0  0
   60.6810   33.8140   49.8810 C   0  0  0  0  0  0  0  0  0  0  0  0
   61.8840   34.4520   49.2360 C   0  0  0  0  0  0  0  0  0  0  0  0
   62.8850   33.4590   48.9960 N   0  0  0  0  0  0  0  0  0  0  0  0
   63.3460   33.3290   47.6570 C   0  0  0  0  0  0  0  0  0  0  0  0
   63.2060   31.9210   47.1140 C   0  0  0  0  0  0  0  0  0  0  0  0
   62.5310   31.0990   48.0150 O   0  0  0  0  0  0  0  0  0  0  0  0
   63.9270   33.4110   49.9800 C   0  0  0  0  0  0  0  0  0  0  0  0
   63.9000   32.2300   50.8900 C   0  0  0  0  0  0  0  0  0  0  0  0
   62.6390   31.6140   50.7130 O   0  0  0  0  0  0  0  0  0  0  0  0
   62.0150   28.9290   51.5510 C   0  0  0  0  0  0  0  0  0  0  0  0
   62.4330   27.9340   52.3850 C   0  0  0  0  0  0  0  0  0  0  0  0
   64.0504   25.0590   54.1150 H   0  0  0  0  0  0  0  0  0  0  0  0
   63.8605   24.1774   52.5615 H   0  0  0  0  0  0  0  0  0  0  0  0
   64.3966   25.8918   52.5615 H   0  0  0  0  0  0  0  0  0  0  0  0
   60.8705   25.3465   50.9439 H   0  0  0  0  0  0  0  0  0  0  0  0
   60.1200   27.1592   49.4345 H   0  0  0  0  0  0  0  0  0  0  0  0
   61.3410   30.6920   49.8190 H   0  0  0  0  0  0  0  0  0  0  0  0
   58.6117   29.6879   46.3439 H   0  0  0  0  0  0  0  0  0  0  0  0
   58.3392   32.7022   43.0539 H   0  0  0  0  0  0  0  0  0  0  0  0
   57.0286   31.6222   41.2990 H   0  0  0  0  0  0  0  0  0  0  0  0
   55.6465   29.5002   41.9844 H   0  0  0  0  0  0  0  0  0  0  0  0
   58.2550   33.8089   45.3949 H   0  0  0  0  0  0  0  0  0  0  0  0
   59.3657   34.3646   47.5539 H   0  0  0  0  0  0  0  0  0  0  0  0
   59.8648   34.5512   49.8632 H   0  0  0  0  0  0  0  0  0  0  0  0
   61.0179   33.5197   50.8859 H   0  0  0  0  0  0  0  0  0  0  0  0
   61.5871   34.9103   48.2811 H   0  0  0  0  0  0  0  0  0  0  0  0
   62.2900   35.2245   49.9057 H   0  0  0  0  0  0  0  0  0  0  0  0
   62.7638   34.0099   47.0187 H   0  0  0  0  0  0  0  0  0  0  0  0
   64.4177   33.5767   47.6536 H   0  0  0  0  0  0  0  0  0  0  0  0
   62.6443   31.9550   46.1688 H   0  0  0  0  0  0  0  0  0  0  0  0
   64.2126   31.5081   46.9518 H   0  0  0  0  0  0  0  0  0  0  0  0
   61.9960   31.6450   48.6430 H   0  0  0  0  0  0  0  0  0  0  0  0
   64.8917   33.4090   49.4515 H   0  0  0  0  0  0  0  0  0  0  0  0
   63.7741   34.2901   50.6233 H   0  0  0  0  0  0  0  0  0  0  0  0
   64.7056   31.5289   50.6264 H   0  0  0  0  0  0  0  0  0  0  0  0
   64.0514   32.5316   51.9370 H   0  0  0  0  0  0  0  0  0  0  0  0
   62.2290   32.0840   49.9200 H   0  0  0  0  0  0  0  0  0  0  0  0
   62.3581   29.9556   51.7469 H   0  0  0  0  0  0  0  0  0  0  0  0
   63.0982   28.1757   53.2271 H   0  0  0  0  0  0  0  0  0  0  0  0
  1  2  1  0
  2  3  1  0
  3  4  2  0
  4  5  1  0
  5  6  2  0
  6  7  1  0
  7  8  1  0
  8  9  2  0
  8 10  1  0
 10 11  2  0
 11 12  1  0
 12 13  1  0
 13 14  2  0
 14 15  1  0
 15 16  2  0
 16 17  1  0
 12 18  2  0
 18 19  1  0
 19 20  2  0
 20 21  1  0
 21 22  1  0
 22 23  1  0
 23 24  1  0
 24 25  1  0
 25 26  1  0
 26 27  1  0
 24 28  1  0
 28 29  1  0
 29 30  1  0
  6 31  1  0
 31 32  2  0
 32  3  1  0
 20 10  1  0
 17 13  1  0
  1 33  1  0
  1 34  1  0
  1 35  1  0
  4 36  1  0
  5 37  1  0
  7 38  1  0
 11 39  1  0
 14 40  1  0
 15 41  1  0
 16 42  1  0
 18 43  1  0
 19 44  1  0
 22 45  1  0
 22 46  1  0
 23 47  1  0
 23 48  1  0
 25 49  1  0
 25 50  1  0
 26 51  1  0
 26 52  1  0
 27 53  1  0
 28 54  1  0
 28 55  1  0
 29 56  1  0
 29 57  1  0
 30 58  1  0
 31 59  1  0
 32 60  1  0
M  END
>  <smiles>  (26) 
COc1ccc(NC(=O)c2cc(-c3cccs3)ccc2OCCN(CCO)CCO)cc1

>  <score_type>  (26) 
oracle

>  <origin>  (26) 
adg

>  <m_score__min__energy>  (26) 
-5.1699999999999999

>  <m_primary>  (26) 
energy

$$$$
27:0
     RDKit          3D

 41 43  0  0  0  0  0  0  0  0999 V2000
   60.1520   34.1710   49.6510 C   0  0  0  0  0  0  0  0  0  0  0  0
   59.5800   34.1140   48.2810 C   0  0  0  0  0  0  0  0  0  0  0  0
   58.6620   33.2160   47.7490 C   0  0  0  0  0  0  0  0  0  0  0  0
   58.4520   33.5780   46.4420 C   0  0  0  0  0  0  0  0  0  0  0  0
   57.5700   32.9060   45.5190 C   0  0  0  0  0  0  0  0  0  0  0  0
   56.6490   33.5950   44.9490 O   0  0  0  0  0  0  0  0  0  0  0  0
   57.7010   31.4960   45.2260 N   0  0  0  0  0  0  0  0  0  0  0  0
   58.7420   30.7760   45.8820 C   0  0  0  0  0  0  0  0  0  0  0  0
   58.5500   29.3150   46.0550 C   0  0  0  0  0  0  0  0  0  0  0  0
   57.5200   28.7180   45.2510 N   0  0  0  0  0  0  0  0  0  0  0  0
   57.4240   27.2900   45.2460 C   0  0  0  0  0  0  0  0  0  0  0  0
   57.7850   26.5250   44.1490 C   0  0  0  0  0  0  0  0  0  0  0  0
   57.6920   25.1430   44.1330 C   0  0  0  0  0  0  0  0  0  0  0  0
   57.2260   24.4600   45.2450 C   0  0  0  0  0  0  0  0  0  0  0  0
   56.8620   25.1910   46.3430 C   0  0  0  0  0  0  0  0  0  0  0  0
   56.9600   26.5780   46.3430 C   0  0  0  0  0  0  0  0  0  0  0  0
   56.5660   29.4400   44.4390 C   0  0  0  0  0  0  0  0  0  0  0  0
   56.7970   30.8960   44.3030 C   0  0  0  0  0  0  0  0  0  0  0  0
   59.2240   34.6610   46.2000 N   0  0  0  0  0  0  0  0  0  0  0  0
   59.2740   35.3310   44.9150 C   0  0  0  0  0  0  0  0  0  0  0  0
   59.8760   34.9520   47.3050 N   0  0  0  0  0  0  0  0  0  0  0  0
   59.3416   34.0902   50.3904 H   0  0  0  0  0  0  0  0  0  0  0  0
   60.8580   33.3388   49.7885 H   0  0  0  0  0  0  0  0  0  0  0  0
   60.6799   35.1262   49.7885 H   0  0  0  0  0  0  0  0  0  0  0  0
   58.1919   32.3731   48.2768 H   0  0  0  0  0  0  0  0  0  0  0  0
   59.6636   30.9221   45.2995 H   0  0  0  0  0  0  0  0  0  0  0  0
   58.7675   31.1820   46.9040 H   0  0  0  0  0  0  0  0  0  0  0  0
   59.5002   28.8187   45.8085 H   0  0  0  0  0  0  0  0  0  0  0  0
   58.2299   29.1783   47.0985 H   0  0  0  0  0  0  0  0  0  0  0  0
   58.1619   27.0373   43.2515 H   0  0  0  0  0  0  0  0  0  0  0  0
   57.9896   24.5849   43.2330 H   0  0  0  0  0  0  0  0  0  0  0  0
   57.1509   23.3626   45.2451 H   0  0  0  0  0  0  0  0  0  0  0  0
   56.4865   24.6740   47.2384 H   0  0  0  0  0  0  0  0  0  0  0  0
   56.6589   27.1308   47.2451 H   0  0  0  0  0  0  0  0  0  0  0  0
   56.5830   29.0013   43.4304 H   0  0  0  0  0  0  0  0  0  0  0  0
   55.6012   29.3410   44.9580 H   0  0  0  0  0  0  0  0  0  0  0  0
   57.1875   31.0770   43.2907 H   0  0  0  0  0  0  0  0  0  0  0  0
   55.8227   31.3609   44.5140 H   0  0  0  0  0  0  0  0  0  0  0  0
   59.3550   36.4169   45.0706 H   0  0  0  0  0  0  0  0  0  0  0  0
   60.1481   34.9753   44.3498 H   0  0  0  0  0  0  0  0  0  0  0  0
   58.3568   35.1090   44.3498 H   0  0  0  0  0  0  0  0  0  0  0  0
  1  2  1  0
  2  3  1  0
  3  4  2  0
  4  5  1  0
  5  6  2  0
  5  7  1  0
  7  8  1  0
  8  9  1  0
  9 10  1  0
 10 11  1  0
 11 12  2  0
 12 13  1  0
 13 14  2  0
 14 15  1  0
 15 16  2  0
 10 17  1  0
 17 18  1  0
  4 19  1  0
 19 20  1  0
 19 21  1  0
 21  2  2  0
 18  7  1  0
 16 11  1  0
  1 22  1  0
  1 23  1  0
  1 24  1  0
  3 25  1  0
  8 26  1  0
  8 27  1  0
  9 28  1  0
  9 29  1  0
 12 30  1  0
 13 31  1  0
 14 32  1  0
 15 33  1  0
 16 34  1  0
 17 35  1  0
 17 36  1  0
 18 37  1  0
 18 38  1  0
 20 39  1  0
 20 40  1  0
 20 41  1  0
M  END
>  <smiles>  (27) 
Cc1cc(C(=O)N2CCN(c3ccccc3)CC2)n(C)n1

>  <score_type>  (27) 
oracle

>  <origin>  (27) 
adg

>  <m_score__min__energy>  (27) 
-6.7199999999999998

>  <m_primary>  (27) 
energy

$$$$
28:0
     RDKit          3D

 42 45  0  0  0  0  0  0  0  0999 V2000
   61.1390   26.7940   48.7490 F   0  0  0  0  0  0  0  0  0  0  0  0
   60.4010   27.7020   48.0860 C   0  0  0  0  0  0  0  0  0  0  0  0
   60.3890   27.7230   46.7070 C   0  0  0  0  0  0  0  0  0  0  0  0
   59.6400   28.6440   46.0210 C   0  0  0  0  0  0  0  0  0  0  0  0
   58.8550   29.6040   46.6720 C   0  0  0  0  0  0  0  0  0  0  0  0
   58.1030   30.5410   45.8910 C   0  0  0  0  0  0  0  0  0  0  0  0
   56.9760   30.1960   45.2020 N   0  0  0  0  0  0  0  0  0  0  0  0
   56.5770   31.3120   44.6160 N   0  0  0  0  0  0  0  0  0  0  0  0
   57.3810   32.3280   44.8940 C   0  0  0  0  0  0  0  0  0  0  0  0
   58.3430   31.8310   45.7010 N   0  0  0  0  0  0  0  0  0  0  0  0
   59.3410   32.6540   46.1690 N   0  0  0  0  0  0  0  0  0  0  0  0
   60.0470   32.3880   47.3630 C   0  0  0  0  0  0  0  0  0  0  0  0
   59.6210   33.4600   48.3800 C   0  0  0  0  0  0  0  0  0  0  0  0
   60.7960   34.0520   49.0950 C   0  0  0  0  0  0  0  0  0  0  0  0
   61.9110   33.1150   49.4000 C   0  0  0  0  0  0  0  0  0  0  0  0
   62.2280   32.1050   48.3510 C   0  0  0  0  0  0  0  0  0  0  0  0
   61.5490   32.5440   47.0780 C   0  0  0  0  0  0  0  0  0  0  0  0
   59.6950   33.8550   45.4090 C   0  0  0  0  0  0  0  0  0  0  0  0
   58.4700   34.5910   44.9350 C   0  0  0  0  0  0  0  0  0  0  0  0
   57.4060   33.7010   44.5320 N   0  0  0  0  0  0  0  0  0  0  0  0
   58.8880   29.5580   48.0500 C   0  0  0  0  0  0  0  0  0  0  0  0
   59.6350   28.6380   48.7500 C   0  0  0  0  0  0  0  0  0  0  0  0
   60.9896   26.9896   46.1490 H   0  0  0  0  0  0  0  0  0  0  0  0
   59.6562   28.6284   44.9212 H   0  0  0  0  0  0  0  0  0  0  0  0
   59.8414   31.3760   47.7419 H   0  0  0  0  0  0  0  0  0  0  0  0
   59.0875   34.2619   47.8486 H   0  0  0  0  0  0  0  0  0  0  0  0
   58.9735   32.9803   49.1288 H   0  0  0  0  0  0  0  0  0  0  0  0
   61.1983   34.8621   48.4689 H   0  0  0  0  0  0  0  0  0  0  0  0
   60.4131   34.3865   50.0705 H   0  0  0  0  0  0  0  0  0  0  0  0
   62.8164   33.7156   49.5720 H   0  0  0  0  0  0  0  0  0  0  0  0
   61.5781   32.5364   50.2743 H   0  0  0  0  0  0  0  0  0  0  0  0
   63.3159   32.0522   48.1973 H   0  0  0  0  0  0  0  0  0  0  0  0
   61.8750   31.1082   48.6541 H   0  0  0  0  0  0  0  0  0  0  0  0
   61.7936   33.5918   46.8493 H   0  0  0  0  0  0  0  0  0  0  0  0
   61.8713   31.9518   46.2089 H   0  0  0  0  0  0  0  0  0  0  0  0
   60.2866   34.5232   46.0521 H   0  0  0  0  0  0  0  0  0  0  0  0
   60.2741   33.5458   44.5264 H   0  0  0  0  0  0  0  0  0  0  0  0
   58.1043   35.2290   45.7530 H   0  0  0  0  0  0  0  0  0  0  0  0
   58.7586   35.1839   44.0546 H   0  0  0  0  0  0  0  0  0  0  0  0
   56.6430   34.0930   43.9590 H   0  0  0  0  0  0  0  0  0  0  0  0
   58.2908   30.2891   48.6147 H   0  0  0  0  0  0  0  0  0  0  0  0
   59.6212   28.6491   49.8499 H   0  0  0  0  0  0  0  0  0  0  0  0
  1  2  1  0
  2  3  2  0
  3  4  1  0
  4  5  2  0
  5  6  1  0
  6  7  2  0
  7  8  1  0
  8  9  2  0
  9 10  1  0
 10 11  1  0
 11 12  1  0
 12 13  1  0
 13 14  1  0
 14 15  1  0
 15 16  1  0
 16 17  1  0
 11 18  1  0
 18 19  1  0
 19 20  1  0
  5 21  1  0
 21 22  2  0
 22  2  1  0
 10  6  1  0
 17 12  1  0
 20  9  1  0
  3 23  1  0
  4 24  1  0
 12 25  1  0
 13 26  1  0
 13 27  1  0
 14 28  1  0
 14 29  1  0
 15 30  1  0
 15 31  1  0
 16 32  1  0
 16 33  1  0
 17 34  1  0
 17 35  1  0
 18 36  1  0
 18 37  1  0
 19 38  1  0
 19 39  1  0
 20 40  1  0
 21 41  1  0
 22 42  1  0
M  END
>  <smiles>  (28) 
Fc1ccc(-c2nnc3n2N(C2CCCCC2)CCN3)cc1

>  <score_type>  (28) 
oracle

>  <origin>  (28) 
adg

>  <m_score__min__energy>  (28) 
-7.5199999999999996

>  <m_primary>  (28) 
energy

$$$$
29:0
     RDKit          3D

 48 50  0  0  0  0  0  0  0  0999 V2000
   56.6630   29.4270   42.6400 C   0  0  0  0  0  0  0  0  0  0  0  0
   55.4920   29.7210   43.5180 C   0  0  0  0  0  0  0  0  0  0  0  0
   55.8280   29.4900   44.8680 O   0  0  0  0  0  0  0  0  0  0  0  0
   56.9240   28.7800   45.2910 C   0  0  0  0  0  0  0  0  0  0  0  0
   57.0000   27.4120   45.3800 C   0  0  0  0  0  0  0  0  0  0  0  0
   58.1160   26.7260   45.8090 C   0  0  0  0  0  0  0  0  0  0  0  0
   59.2200   27.4610   46.1710 C   0  0  0  0  0  0  0  0  0  0  0  0
   60.3740   26.8950   46.6090 F   0  0  0  0  0  0  0  0  0  0  0  0
   59.1980   28.8460   46.1010 C   0  0  0  0  0  0  0  0  0  0  0  0
   60.2820   29.6030   46.4530 C   0  0  0  0  0  0  0  0  0  0  0  0
   60.2850   30.9780   46.3900 C   0  0  0  0  0  0  0  0  0  0  0  0
   59.1750   31.6020   45.9640 N   0  0  0  0  0  0  0  0  0  0  0  0
   59.0400   33.0320   45.8500 C   0  0  0  0  0  0  0  0  0  0  0  0
   59.1430   33.7710   47.1390 C   0  0  0  0  0  0  0  0  0  0  0  0
   60.3660   34.4810   47.3720 N   0  0  0  0  0  0  0  0  0  0  0  0
   60.8660   34.2240   48.6930 C   0  0  0  0  0  0  0  0  0  0  0  0
   61.4890   32.8570   48.7260 C   0  0  0  0  0  0  0  0  0  0  0  0
   62.7460   32.9350   48.0200 N   0  0  0  0  0  0  0  0  0  0  0  0
   63.3280   31.6430   47.7950 C   0  0  0  0  0  0  0  0  0  0  0  0
   62.6990   33.7800   46.8830 C   0  0  0  0  0  0  0  0  0  0  0  0
   61.3340   34.1170   46.3550 C   0  0  0  0  0  0  0  0  0  0  0  0
   58.0750   30.8710   45.6050 C   0  0  0  0  0  0  0  0  0  0  0  0
   57.0190   31.4570   45.2010 O   0  0  0  0  0  0  0  0  0  0  0  0
   58.0510   29.4990   45.6610 C   0  0  0  0  0  0  0  0  0  0  0  0
   57.5422   29.2063   43.2631 H   0  0  0  0  0  0  0  0  0  0  0  0
   56.4361   28.5579   42.0050 H   0  0  0  0  0  0  0  0  0  0  0  0
   56.8735   30.3002   42.0050 H   0  0  0  0  0  0  0  0  0  0  0  0
   55.1975   30.7733   43.3914 H   0  0  0  0  0  0  0  0  0  0  0  0
   54.6572   29.0621   43.2371 H   0  0  0  0  0  0  0  0  0  0  0  0
   56.1147   26.8267   45.0908 H   0  0  0  0  0  0  0  0  0  0  0  0
   58.1230   25.6272   45.8600 H   0  0  0  0  0  0  0  0  0  0  0  0
   61.1907   29.0904   46.8015 H   0  0  0  0  0  0  0  0  0  0  0  0
   61.1764   31.5526   46.6820 H   0  0  0  0  0  0  0  0  0  0  0  0
   59.8320   33.3987   45.1804 H   0  0  0  0  0  0  0  0  0  0  0  0
   58.0269   33.2189   45.4645 H   0  0  0  0  0  0  0  0  0  0  0  0
   58.3209   34.5011   47.1725 H   0  0  0  0  0  0  0  0  0  0  0  0
   59.1002   32.9993   47.9217 H   0  0  0  0  0  0  0  0  0  0  0  0
   61.6216   34.9795   48.9542 H   0  0  0  0  0  0  0  0  0  0  0  0
   60.0398   34.2722   49.4177 H   0  0  0  0  0  0  0  0  0  0  0  0
   61.6619   32.5483   49.7675 H   0  0  0  0  0  0  0  0  0  0  0  0
   60.8252   32.1176   48.2542 H   0  0  0  0  0  0  0  0  0  0  0  0
   63.5435   31.1645   48.7618 H   0  0  0  0  0  0  0  0  0  0  0  0
   62.6244   31.0181   47.2254 H   0  0  0  0  0  0  0  0  0  0  0  0
   64.2622   31.7558   47.2254 H   0  0  0  0  0  0  0  0  0  0  0  0
   63.1976   34.7242   47.1474 H   0  0  0  0  0  0  0  0  0  0  0  0
   63.1908   33.2135   46.0785 H   0  0  0  0  0  0  0  0  0  0  0  0
   61.4346   34.9627   45.6588 H   0  0  0  0  0  0  0  0  0  0  0  0
   60.9521   33.2047   45.8735 H   0  0  0  0  0  0  0  0  0  0  0  0
  1  2  1  0
  2  3  1  0
  3  4  1  0
  4  5  2  0
  5  6  1  0
  6  7  2  0
  7  8  1  0
  7  9  1  0
  9 10  1  0
 10 11  2  0
 11 12  1  0
 12 13  1  0
 13 14  1  0
 14 15  1  0
 15 16  1  0
 16 17  1  0
 17 18  1  0
 18 19  1  0
 18 20  1  0
 20 21  1  0
 12 22  1  0
 22 23  2  0
 22 24  1  0
 24  4  1  0
 24  9  2  0
 21 15  1  0
  1 25  1  0
  1 26  1  0
  1 27  1  0
  2 28  1  0
  2 29  1  0
  5 30  1  0
  6 31  1  0
 10 32  1  0
 11 33  1  0
 13 34  1  0
 13 35  1  0
 14 36  1  0
 14 37  1  0
 16 38  1  0
 16 39  1  0
 17 40  1  0
 17 41  1  0
 19 42  1  0
 19 43  1  0
 19 44  1  0
 20 45  1  0
 20 46  1  0
 21 47  1  0
 21 48  1  0
M  END
>  <smiles>  (29) 
CCOc1ccc(F)c2ccn(CCN3CCN(C)CC3)c(=O)c12

>  <score_type>  (29) 
oracle

>  <origin>  (29) 
adg

>  <m_score__min__energy>  (29) 
-7.7999999999999998

>  <m_primary>  (29) 
energy

$$$$
30:0
     RDKit          3D

 41 43  0  0  0  0  0  0  0  0999 V2000
   63.3780   31.9730   47.3940 C   0  0  0  0  0  0  0  0  0  0  0  0
   63.3630   33.4560   47.0010 C   0  0  0  0  0  0  0  0  0  0  0  0
   62.4930   34.2170   47.8330 N   0  0  0  0  0  0  0  0  0  0  0  0
   62.0510   33.4380   48.9510 C   0  0  0  0  0  0  0  0  0  0  0  0
   60.7010   33.9080   49.4080 C   0  0  0  0  0  0  0  0  0  0  0  0
   59.7330   33.3660   48.4730 N   0  0  0  0  0  0  0  0  0  0  0  0
   58.9720   32.2710   48.7090 C   0  0  0  0  0  0  0  0  0  0  0  0
   58.1770   32.0370   47.6290 N   0  0  0  0  0  0  0  0  0  0  0  0
   58.4180   32.9730   46.6960 C   0  0  0  0  0  0  0  0  0  0  0  0
   57.8950   33.1910   45.4300 C   0  0  0  0  0  0  0  0  0  0  0  0
   56.6480   32.0530   44.8680 S   0  0  0  0  0  0  0  0  0  0  0  0
   57.3280   30.7670   43.8000 C   0  0  0  0  0  0  0  0  0  0  0  0
   57.9020   29.7060   44.6720 C   0  0  0  0  0  0  0  0  0  0  0  0
   59.2510   29.6110   44.9330 C   0  0  0  0  0  0  0  0  0  0  0  0
   59.6490   28.5710   45.7740 C   0  0  0  0  0  0  0  0  0  0  0  0
   58.7460   27.6870   46.3140 C   0  0  0  0  0  0  0  0  0  0  0  0
   57.3920   27.7790   46.0550 C   0  0  0  0  0  0  0  0  0  0  0  0
   56.9800   28.8110   45.2170 C   0  0  0  0  0  0  0  0  0  0  0  0
   55.6530   28.9150   44.9580 F   0  0  0  0  0  0  0  0  0  0  0  0
   58.3450   34.2280   44.7130 N   0  0  0  0  0  0  0  0  0  0  0  0
   59.2870   35.0200   45.2430 C   0  0  0  0  0  0  0  0  0  0  0  0
   59.8080   34.8160   46.4840 N   0  0  0  0  0  0  0  0  0  0  0  0
   59.3890   33.7880   47.2460 C   0  0  0  0  0  0  0  0  0  0  0  0
   63.3789   31.8842   48.4904 H   0  0  0  0  0  0  0  0  0  0  0  0
   62.4848   31.4767   46.9867 H   0  0  0  0  0  0  0  0  0  0  0  0
   64.2810   31.4948   46.9867 H   0  0  0  0  0  0  0  0  0  0  0  0
   64.3829   33.8581   47.0910 H   0  0  0  0  0  0  0  0  0  0  0  0
   62.9971   33.5308   45.9663 H   0  0  0  0  0  0  0  0  0  0  0  0
   61.7000   34.6080   47.3090 H   0  0  0  0  0  0  0  0  0  0  0  0
   61.9866   32.3807   48.6545 H   0  0  0  0  0  0  0  0  0  0  0  0
   62.7697   33.5533   49.7758 H   0  0  0  0  0  0  0  0  0  0  0  0
   60.4949   33.5392   50.4236 H   0  0  0  0  0  0  0  0  0  0  0  0
   60.6527   35.0066   49.4356 H   0  0  0  0  0  0  0  0  0  0  0  0
   58.9929   31.6665   49.6277 H   0  0  0  0  0  0  0  0  0  0  0  0
   56.5313   30.3435   43.1708 H   0  0  0  0  0  0  0  0  0  0  0  0
   58.1046   31.1851   43.1426 H   0  0  0  0  0  0  0  0  0  0  0  0
   59.9758   30.3171   44.5016 H   0  0  0  0  0  0  0  0  0  0  0  0
   60.7168   28.4554   46.0116 H   0  0  0  0  0  0  0  0  0  0  0  0
   59.1114   26.8838   46.9708 H   0  0  0  0  0  0  0  0  0  0  0  0
   56.6731   27.0696   46.4908 H   0  0  0  0  0  0  0  0  0  0  0  0
   59.6547   35.8707   44.6504 H   0  0  0  0  0  0  0  0  0  0  0  0
  1  2  1  0
  2  3  1  0
  3  4  1  0
  4  5  1  0
  5  6  1  0
  6  7  1  0
  7  8  2  0
  8  9  1  0
  9 10  2  0
 10 11  1  0
 11 12  1  0
 12 13  1  0
 13 14  2  0
 14 15  1  0
 15 16  2  0
 16 17  1  0
 17 18  2  0
 18 19  1  0
 10 20  1  0
 20 21  2  0
 21 22  1  0
 22 23  2  0
 23  6  1  0
 23  9  1  0
 18 13  1  0
  1 24  1  0
  1 25  1  0
  1 26  1  0
  2 27  1  0
  2 28  1  0
  3 29  1  0
  4 30  1  0
  4 31  1  0
  5 32  1  0
  5 33  1  0
  7 34  1  0
 12 35  1  0
 12 36  1  0
 14 37  1  0
 15 38  1  0
 16 39  1  0
 17 40  1  0
 21 41  1  0
M  END
>  <smiles>  (30) 
CCNCCn1cnc2c(SCc3ccccc3F)ncnc21

>  <score_type>  (30) 
oracle

>  <origin>  (30) 
adg

>  <m_score__min__energy>  (30) 
-6.8899999999999997

>  <m_primary>  (30) 
energy

$$$$
31:0
     RDKit          3D

 45 46  0  0  0  0  0  0  0  0999 V2000
   63.7750   33.2870   47.1540 C   0  0  0  0  0  0  0  0  0  0  0  0
   62.6640   33.8330   47.9980 C   0  0  0  0  0  0  0  0  0  0  0  0
   61.3570   33.2090   47.6870 C   0  0  0  0  0  0  0  0  0  0  0  0
   60.1320   33.8510   47.4920 C   0  0  0  0  0  0  0  0  0  0  0  0
   59.1610   32.9190   47.2230 C   0  0  0  0  0  0  0  0  0  0  0  0
   57.7120   33.1010   46.9470 C   0  0  0  0  0  0  0  0  0  0  0  0
   57.4960   33.8110   45.6290 C   0  0  0  0  0  0  0  0  0  0  0  0
   59.7880   31.7270   47.2540 N   0  0  0  0  0  0  0  0  0  0  0  0
   59.2540   30.4250   47.0430 C   0  0  0  0  0  0  0  0  0  0  0  0
   59.4860   29.5190   48.0300 N   0  0  0  0  0  0  0  0  0  0  0  0
   59.0130   28.2750   47.8960 C   0  0  0  0  0  0  0  0  0  0  0  0
   58.2940   27.8600   46.7940 C   0  0  0  0  0  0  0  0  0  0  0  0
   57.7840   26.4630   46.6800 C   0  0  0  0  0  0  0  0  0  0  0  0
   58.8050   25.5400   46.0650 C   0  0  0  0  0  0  0  0  0  0  0  0
   58.0660   28.8060   45.7900 C   0  0  0  0  0  0  0  0  0  0  0  0
   57.3070   28.4150   44.5970 C   0  0  0  0  0  0  0  0  0  0  0  0
   57.3950   29.2920   43.4710 N   0  0  0  0  0  0  0  0  0  0  0  0
   56.8570   30.6070   43.5060 C   0  0  0  0  0  0  0  0  0  0  0  0
   57.0180   31.4240   42.2550 C   0  0  0  0  0  0  0  0  0  0  0  0
   56.2740   31.0940   44.5090 O   0  0  0  0  0  0  0  0  0  0  0  0
   58.5680   30.0620   45.9720 N   0  0  0  0  0  0  0  0  0  0  0  0
   61.0870   31.9050   47.5280 N   0  0  0  0  0  0  0  0  0  0  0  0
   64.5712   32.8957   47.8043 H   0  0  0  0  0  0  0  0  0  0  0  0
   63.3886   32.4762   46.5190 H   0  0  0  0  0  0  0  0  0  0  0  0
   64.1809   34.0883   46.5190 H   0  0  0  0  0  0  0  0  0  0  0  0
   62.9007   33.6475   49.0561 H   0  0  0  0  0  0  0  0  0  0  0  0
   62.5801   34.9090   47.7853 H   0  0  0  0  0  0  0  0  0  0  0  0
   59.9701   34.9377   47.5458 H   0  0  0  0  0  0  0  0  0  0  0  0
   57.2266   32.1147   46.9080 H   0  0  0  0  0  0  0  0  0  0  0  0
   57.2766   33.7134   47.7503 H   0  0  0  0  0  0  0  0  0  0  0  0
   57.1806   34.8477   45.8183 H   0  0  0  0  0  0  0  0  0  0  0  0
   58.4344   33.8122   45.0551 H   0  0  0  0  0  0  0  0  0  0  0  0
   56.7159   33.2894   45.0551 H   0  0  0  0  0  0  0  0  0  0  0  0
   59.2060   27.5502   48.7006 H   0  0  0  0  0  0  0  0  0  0  0  0
   57.5305   26.0939   47.6848 H   0  0  0  0  0  0  0  0  0  0  0  0
   56.8989   26.4756   46.0270 H   0  0  0  0  0  0  0  0  0  0  0  0
   59.3672   25.0318   46.8623 H   0  0  0  0  0  0  0  0  0  0  0  0
   58.2941   24.7911   45.4420 H   0  0  0  0  0  0  0  0  0  0  0  0
   59.4987   26.1236   45.4420 H   0  0  0  0  0  0  0  0  0  0  0  0
   57.6687   27.4258   44.2797 H   0  0  0  0  0  0  0  0  0  0  0  0
   56.2506   28.4376   44.9027 H   0  0  0  0  0  0  0  0  0  0  0  0
   57.8830   28.9090   42.6090 H   0  0  0  0  0  0  0  0  0  0  0  0
   57.2242   32.4704   42.5244 H   0  0  0  0  0  0  0  0  0  0  0  0
   57.8550   31.0262   41.6624 H   0  0  0  0  0  0  0  0  0  0  0  0
   56.0926   31.3735   41.6624 H   0  0  0  0  0  0  0  0  0  0  0  0
  1  2  1  0
  2  3  1  0
  3  4  1  0
  4  5  2  0
  5  6  1  0
  6  7  1  0
  5  8  1  0
  8  9  1  0
  9 10  2  0
 10 11  1  0
 11 12  2  0
 12 13  1  0
 13 14  1  0
 12 15  1  0
 15 16  1  0
 16 17  1  0
 17 18  1  0
 18 19  1  0
 18 20  2  0
 15 21  2  0
  8 22  1  0
 22  3  2  0
 21  9  1  0
  1 23  1  0
  1 24  1  0
  1 25  1  0
  2 26  1  0
  2 27  1  0
  4 28  1  0
  6 29  1  0
  6 30  1  0
  7 31  1  0
  7 32  1  0
  7 33  1  0
 11 34  1  0
 13 35  1  0
 13 36  1  0
 14 37  1  0
 14 38  1  0
 14 39  1  0
 16 40  1  0
 16 41  1  0
 17 42  1  0
 19 43  1  0
 19 44  1  0
 19 45  1  0
M  END
>  <smiles>  (31) 
CCc1cc(CC)n(-c2ncc(CC)c(CNC(C)=O)n2)n1

>  <score_type>  (31) 
oracle

>  <origin>  (31) 
adg

>  <m_score__min__energy>  (31) 
-7.0899999999999999

>  <m_primary>  (31) 
energy

$$$$
32:0
     RDKit          3D

 66 68  0  0  1  0  0  0  0  0999 V2000
   56.3160   29.9610   42.6790 C   0  0  0  0  0  0  0  0  0  0  0  0
   55.8880   30.0750   44.1130 C   0  0  0  0  0  0  0  0  0  0  0  0
   56.7340   30.8990   44.8680 N   0  0  0  0  0  0  0  0  0  0  0  0
   57.4000   31.9240   44.1320 C   0  0  0  0  0  0  0  0  0  0  0  0
   57.4780   33.2320   44.8340 C   0  0  0  0  0  0  0  0  0  0  0  0
   57.7790   30.1790   45.5870 C   0  0  0  0  0  0  0  0  0  0  0  0
   58.9070   29.7510   44.7830 C   0  0  0  0  0  0  0  0  0  0  0  0
   60.0240   29.1810   45.1590 C   0  0  0  0  0  0  0  0  0  0  0  0
   60.1900   28.1290   46.1880 C   0  0  0  0  0  0  0  0  0  0  0  0
   59.8960   28.5880   47.5300 N   0  0  0  0  0  0  0  0  0  0  0  0
   58.6170   28.2330   48.1050 C   0  0  0  0  0  0  0  0  0  0  0  0
   60.7790   29.3970   48.2940 C   0  0  0  0  0  0  0  0  0  0  0  0
   60.9830   29.2070   49.6330 C   0  0  0  0  0  0  0  0  0  0  0  0
   61.8190   29.9670   50.4210 C   0  0  0  0  0  0  0  0  0  0  0  0
   62.4920   30.9860   49.8400 C   0  0  0  0  0  0  0  0  0  0  0  0
   62.3120   31.2190   48.4820 C   0  0  0  0  0  0  0  0  0  0  0  0
   61.4910   30.4660   47.6950 C   0  0  0  0  0  0  0  0  0  0  0  0
   63.0300   32.2560   47.9550 C   0  0  0  0  0  0  0  0  0  0  0  0
   62.7770   32.7060   46.8120 N   0  0  0  0  0  0  0  0  0  0  0  0
   62.4690   34.0190   46.4070 C   0  0  0  0  0  0  0  0  0  0  0  0
   60.9020   33.8480   46.2000 C   0  0  0  0  0  0  0  0  0  0  0  0
   60.2580   33.5800   47.4870 C   0  0  0  0  0  0  0  0  0  0  0  0
   60.6250   34.2010   48.6770 C   0  0  0  0  0  0  0  0  0  0  0  0
   59.9480   33.8670   49.8570 C   0  0  0  0  0  0  0  0  0  0  0  0
   58.9330   32.9490   49.8870 C   0  0  0  0  0  0  0  0  0  0  0  0
   58.5630   32.3260   48.6980 C   0  0  0  0  0  0  0  0  0  0  0  0
   59.2250   32.6470   47.5250 C   0  0  0  0  0  0  0  0  0  0  0  0
   63.8910   33.0120   48.7040 N   0  0  0  0  0  0  0  0  0  0  0  0
   64.0070   32.7110   50.0000 C   0  0  0  0  0  0  0  0  0  0  0  0
   63.3290   31.7170   50.5990 N   0  0  0  0  0  0  0  0  0  0  0  0
   63.4550   31.3950   52.0050 C   0  0  0  0  0  0  0  0  0  0  0  0
   57.3781   29.6781   42.6347 H   0  0  0  0  0  0  0  0  0  0  0  0
   55.7106   29.1928   42.1756 H   0  0  0  0  0  0  0  0  0  0  0  0
   56.1730   30.9286   42.1756 H   0  0  0  0  0  0  0  0  0  0  0  0
   54.8709   30.4927   44.1441 H   0  0  0  0  0  0  0  0  0  0  0  0
   55.9286   29.0673   44.5521 H   0  0  0  0  0  0  0  0  0  0  0  0
   58.4250   31.5852   43.9207 H   0  0  0  0  0  0  0  0  0  0  0  0
   56.8074   32.0917   43.2206 H   0  0  0  0  0  0  0  0  0  0  0  0
   57.4681   33.0657   45.9213 H   0  0  0  0  0  0  0  0  0  0  0  0
   58.4084   33.7456   44.5501 H   0  0  0  0  0  0  0  0  0  0  0  0
   56.6153   33.8525   44.5501 H   0  0  0  0  0  0  0  0  0  0  0  0
   58.1594   30.8377   46.3816 H   0  0  0  0  0  0  0  0  0  0  0  0
   57.3085   29.2583   45.9625 H   0  0  0  0  0  0  0  0  0  0  0  0
   58.8105   29.9310   43.7021 H   0  0  0  0  0  0  0  0  0  0  0  0
   60.9406   29.5211   44.6548 H   0  0  0  0  0  0  0  0  0  0  0  0
   59.5130   27.2960   45.9479 H   0  0  0  0  0  0  0  0  0  0  0  0
   61.2463   27.8226   46.1728 H   0  0  0  0  0  0  0  0  0  0  0  0
   58.6900   28.2533   49.2024 H   0  0  0  0  0  0  0  0  0  0  0  0
   57.8540   28.9533   47.7749 H   0  0  0  0  0  0  0  0  0  0  0  0
   58.3344   27.2225   47.7749 H   0  0  0  0  0  0  0  0  0  0  0  0
   60.4375   28.3840   50.1179 H   0  0  0  0  0  0  0  0  0  0  0  0
   61.9359   29.7510   51.4932 H   0  0  0  0  0  0  0  0  0  0  0  0
   61.3842   30.6831   46.6219 H   0  0  0  0  0  0  0  0  0  0  0  0
   62.7047   34.7581   47.1868 H   0  0  0  0  0  0  0  0  0  0  0  0
   63.0259   34.3899   45.5339 H   0  0  0  0  0  0  0  0  0  0  0  0
   60.4876   34.7716   45.7696 H   0  0  0  0  0  0  0  0  0  0  0  0
   60.7156   33.0051   45.5182 H   0  0  0  0  0  0  0  0  0  0  0  0
   61.4358   34.9442   48.6909 H   0  0  0  0  0  0  0  0  0  0  0  0
   60.2430   34.3609   50.7946 H   0  0  0  0  0  0  0  0  0  0  0  0
   58.4206   32.7086   50.8302 H   0  0  0  0  0  0  0  0  0  0  0  0
   57.7507   31.5843   48.6906 H   0  0  0  0  0  0  0  0  0  0  0  0
   58.9248   32.1482   46.5917 H   0  0  0  0  0  0  0  0  0  0  0  0
   64.6967   33.3107   50.6121 H   0  0  0  0  0  0  0  0  0  0  0  0
   63.1199   32.2513   52.6087 H   0  0  0  0  0  0  0  0  0  0  0  0
   62.8340   30.5172   52.2372 H   0  0  0  0  0  0  0  0  0  0  0  0
   64.5068   31.1718   52.2372 H   0  0  0  0  0  0  0  0  0  0  0  0
  1  2  1  0
  2  3  1  0
  3  4  1  0
  4  5  1  0
  3  6  1  0
  6  7  1  0
  7  8  2  0
  8  9  1  0
  9 10  1  0
 10 11  1  0
 10 12  1  0
 12 13  2  0
 13 14  1  0
 14 15  2  0
 15 16  1  0
 16 17  2  0
 16 18  1  0
 18 19  2  0
 19 20  1  0
 20 21  1  0
 21 22  1  0
 22 23  2  0
 23 24  1  0
 24 25  2  0
 25 26  1  0
 26 27  2  0
 18 28  1  0
 28 29  2  0
 29 30  1  0
 30 31  1  0
 17 12  1  0
 27 22  1  0
 30 15  1  0
  1 32  1  0
  1 33  1  0
  1 34  1  0
  2 35  1  0
  2 36  1  0
  4 37  1  0
  4 38  1  0
  5 39  1  0
  5 40  1  0
  5 41  1  0
  6 42  1  0
  6 43  1  0
  7 44  1  0
  8 45  1  0
  9 46  1  0
  9 47  1  0
 11 48  1  0
 11 49  1  0
 11 50  1  0
 13 51  1  0
 14 52  1  0
 17 53  1  0
 20 54  1  0
 20 55  1  0
 21 56  1  0
 21 57  1  0
 23 58  1  0
 24 59  1  0
 25 60  1  0
 26 61  1  0
 27 62  1  0
 29 63  1  0
 31 64  1  0
 31 65  1  0
 31 66  1  0
M  END
>  <smiles>  (32) 
CCN(CC)CC=CCN(C)c1ccc2c(c1)c(=NCCc1ccccc1)ncn2C

>  <score_type>  (32) 
oracle

>  <origin>  (32) 
adg

>  <m_score__min__energy>  (32) 
-7.9299999999999997

>  <m_primary>  (32) 
energy

$$$$
33:0
     RDKit          3D

 54 56  0  0  0  0  0  0  0  0999 V2000
   63.3510   33.4930   46.7570 C   0  0  0  0  0  0  0  0  0  0  0  0
   62.8570   32.1180   47.1550 C   0  0  0  0  0  0  0  0  0  0  0  0
   63.0690   31.8900   48.5630 N   0  0  0  0  0  0  0  0  0  0  0  0
   63.7050   33.0470   49.1440 C   0  0  0  0  0  0  0  0  0  0  0  0
   61.8910   31.4810   49.2610 C   0  0  0  0  0  0  0  0  0  0  0  0
   61.0210   30.5610   48.3960 C   0  0  0  0  0  0  0  0  0  0  0  0
   59.6790   31.0740   48.2540 N   0  0  0  0  0  0  0  0  0  0  0  0
   59.2120   31.4460   46.9740 C   0  0  0  0  0  0  0  0  0  0  0  0
   59.2950   32.7340   46.4960 C   0  0  0  0  0  0  0  0  0  0  0  0
   59.8640   33.6710   47.3460 C   0  0  0  0  0  0  0  0  0  0  0  0
   59.9770   34.9690   46.9460 C   0  0  0  0  0  0  0  0  0  0  0  0
   59.5130   35.3070   45.6910 C   0  0  0  0  0  0  0  0  0  0  0  0
   58.9430   34.3600   44.8440 C   0  0  0  0  0  0  0  0  0  0  0  0
   58.8260   33.0540   45.2370 C   0  0  0  0  0  0  0  0  0  0  0  0
   58.2650   32.1340   44.4110 N   0  0  0  0  0  0  0  0  0  0  0  0
   57.7870   32.4640   43.0860 C   0  0  0  0  0  0  0  0  0  0  0  0
   58.1790   30.8620   44.8760 C   0  0  0  0  0  0  0  0  0  0  0  0
   57.6230   29.8380   44.1330 C   0  0  0  0  0  0  0  0  0  0  0  0
   57.5280   28.5410   44.6050 C   0  0  0  0  0  0  0  0  0  0  0  0
   57.9960   28.2170   45.8610 C   0  0  0  0  0  0  0  0  0  0  0  0
   57.9100   26.9080   46.3570 N   0  0  0  0  0  0  0  0  0  0  0  0
   58.9350   26.4120   47.2590 C   0  0  0  0  0  0  0  0  0  0  0  0
   56.8120   26.0430   45.9810 C   0  0  0  0  0  0  0  0  0  0  0  0
   58.5540   29.2190   46.6210 C   0  0  0  0  0  0  0  0  0  0  0  0
   58.6420   30.5080   46.1380 C   0  0  0  0  0  0  0  0  0  0  0  0
   63.5628   34.0825   47.6613 H   0  0  0  0  0  0  0  0  0  0  0  0
   64.2698   33.3940   46.1603 H   0  0  0  0  0  0  0  0  0  0  0  0
   62.5793   34.0014   46.1603 H   0  0  0  0  0  0  0  0  0  0  0  0
   61.7820   32.0423   46.9344 H   0  0  0  0  0  0  0  0  0  0  0  0
   63.4167   31.3616   46.5852 H   0  0  0  0  0  0  0  0  0  0  0  0
   63.6654   32.9750   50.2409 H   0  0  0  0  0  0  0  0  0  0  0  0
   64.7544   33.0915   48.8171 H   0  0  0  0  0  0  0  0  0  0  0  0
   63.1802   33.9568   48.8171 H   0  0  0  0  0  0  0  0  0  0  0  0
   62.1845   30.9421   50.1739 H   0  0  0  0  0  0  0  0  0  0  0  0
   61.3059   32.3787   49.5096 H   0  0  0  0  0  0  0  0  0  0  0  0
   61.4767   30.4736   47.3986 H   0  0  0  0  0  0  0  0  0  0  0  0
   60.9627   29.5799   48.8900 H   0  0  0  0  0  0  0  0  0  0  0  0
   59.1020   31.1460   49.1330 H   0  0  0  0  0  0  0  0  0  0  0  0
   60.2231   33.3672   48.3404 H   0  0  0  0  0  0  0  0  0  0  0  0
   60.4258   35.7265   47.6054 H   0  0  0  0  0  0  0  0  0  0  0  0
   59.5954   36.3500   45.3514 H   0  0  0  0  0  0  0  0  0  0  0  0
   58.5834   34.6642   43.8499 H   0  0  0  0  0  0  0  0  0  0  0  0
   56.8842   33.0873   43.1666 H   0  0  0  0  0  0  0  0  0  0  0  0
   58.5669   33.0169   42.5420 H   0  0  0  0  0  0  0  0  0  0  0  0
   57.5464   31.5387   42.5420 H   0  0  0  0  0  0  0  0  0  0  0  0
   57.2408   30.0631   43.1264 H   0  0  0  0  0  0  0  0  0  0  0  0
   57.0756   27.7622   43.9735 H   0  0  0  0  0  0  0  0  0  0  0  0
   58.6141   26.5673   48.2996 H   0  0  0  0  0  0  0  0  0  0  0  0
   59.0923   25.3381   47.0802 H   0  0  0  0  0  0  0  0  0  0  0  0
   59.8748   26.9550   47.0802 H   0  0  0  0  0  0  0  0  0  0  0  0
   56.3222   25.6572   46.8872 H   0  0  0  0  0  0  0  0  0  0  0  0
   56.0839   26.6128   45.3850 H   0  0  0  0  0  0  0  0  0  0  0  0
   57.1955   25.2017   45.3850 H   0  0  0  0  0  0  0  0  0  0  0  0
   58.9349   28.9891   47.6270 H   0  0  0  0  0  0  0  0  0  0  0  0
  1  2  1  0
  2  3  1  0
  3  4  1  0
  3  5  1  0
  5  6  1  0
  6  7  1  0
  7  8  1  0
  8  9  2  0
  9 10  1  0
 10 11  2  0
 11 12  1  0
 12 13  2  0
 13 14  1  0
 14 15  2  0
 15 16  1  0
 15 17  1  0
 17 18  2  0
 18 19  1  0
 19 20  2  0
 20 21  1  0
 21 22  1  0
 21 23  1  0
 20 24  1  0
 24 25  2  0
 25  8  1  0
 14  9  1  0
 25 17  1  0
  1 26  1  0
  1 27  1  0
  1 28  1  0
  2 29  1  0
  2 30  1  0
  4 31  1  0
  4 32  1  0
  4 33  1  0
  5 34  1  0
  5 35  1  0
  6 36  1  0
  6 37  1  0
  7 38  1  0
 10 39  1  0
 11 40  1  0
 12 41  1  0
 13 42  1  0
 16 43  1  0
 16 44  1  0
 16 45  1  0
 18 46  1  0
 19 47  1  0
 22 48  1  0
 22 49  1  0
 22 50  1  0
 23 51  1  0
 23 52  1  0
 23 53  1  0
 24 54  1  0
M  CHG  1  15   1
M  END
>  <smiles>  (33) 
CCN(C)CCNc1c2ccccc2[n+](C)c2ccc(N(C)C)cc12

>  <score_type>  (33) 
oracle

>  <origin>  (33) 
adg

>  <m_score__min__energy>  (33) 
-5.71

>  <m_primary>  (33) 
energy

$$$$
34:0
     RDKit          3D

 57 59  0  0  0  0  0  0  0  0999 V2000
   63.7060   32.3830   47.7360 C   0  0  0  0  0  0  0  0  0  0  0  0
   63.2500   33.8360   47.6670 C   0  0  0  0  0  0  0  0  0  0  0  0
   62.7080   34.3050   48.8980 N   0  0  0  0  0  0  0  0  0  0  0  0
   63.1780   33.6120   50.0540 C   0  0  0  0  0  0  0  0  0  0  0  0
   61.2960   34.5650   48.8640 C   0  0  0  0  0  0  0  0  0  0  0  0
   60.5420   33.7090   47.9220 C   0  0  0  0  0  0  0  0  0  0  0  0
   60.2980   32.3700   48.1250 C   0  0  0  0  0  0  0  0  0  0  0  0
   59.5900   31.5890   47.2160 C   0  0  0  0  0  0  0  0  0  0  0  0
   59.1060   32.1400   46.0690 C   0  0  0  0  0  0  0  0  0  0  0  0
   58.3730   31.4190   45.0390 C   0  0  0  0  0  0  0  0  0  0  0  0
   58.0860   32.0350   43.8390 C   0  0  0  0  0  0  0  0  0  0  0  0
   57.4110   31.4040   42.8140 C   0  0  0  0  0  0  0  0  0  0  0  0
   57.1150   32.0880   41.5270 C   0  0  0  0  0  0  0  0  0  0  0  0
   57.0070   30.0830   43.0180 C   0  0  0  0  0  0  0  0  0  0  0  0
   57.3060   29.4700   44.2390 C   0  0  0  0  0  0  0  0  0  0  0  0
   57.0200   28.2190   44.6360 N   0  0  0  0  0  0  0  0  0  0  0  0
   57.5040   28.0530   45.8910 C   0  0  0  0  0  0  0  0  0  0  0  0
   57.4000   26.8120   46.6580 C   0  0  0  0  0  0  0  0  0  0  0  0
   57.4520   25.5920   45.9630 N   0  0  0  0  0  0  0  0  0  0  0  0
   58.7800   25.0520   45.9530 C   0  0  0  0  0  0  0  0  0  0  0  0
   56.4950   24.5920   46.2100 C   0  0  0  0  0  0  0  0  0  0  0  0
   55.0830   24.9250   45.8050 C   0  0  0  0  0  0  0  0  0  0  0  0
   54.8190   26.2560   45.6230 O   0  0  0  0  0  0  0  0  0  0  0  0
   58.0890   29.2670   46.2170 C   0  0  0  0  0  0  0  0  0  0  0  0
   57.9660   30.1400   45.1970 N   0  0  0  0  0  0  0  0  0  0  0  0
   59.3350   33.4890   45.8350 C   0  0  0  0  0  0  0  0  0  0  0  0
   60.0380   34.2600   46.7420 C   0  0  0  0  0  0  0  0  0  0  0  0
   63.8016   32.0783   48.7886 H   0  0  0  0  0  0  0  0  0  0  0  0
   62.9658   31.7422   47.2346 H   0  0  0  0  0  0  0  0  0  0  0  0
   64.6796   32.2801   47.2346 H   0  0  0  0  0  0  0  0  0  0  0  0
   64.1141   34.4630   47.4022 H   0  0  0  0  0  0  0  0  0  0  0  0
   62.4536   33.8969   46.9107 H   0  0  0  0  0  0  0  0  0  0  0  0
   62.8273   34.1291   50.9593 H   0  0  0  0  0  0  0  0  0  0  0  0
   62.7911   32.5823   50.0468 H   0  0  0  0  0  0  0  0  0  0  0  0
   64.2778   33.5906   50.0468 H   0  0  0  0  0  0  0  0  0  0  0  0
   60.8917   34.4046   49.8744 H   0  0  0  0  0  0  0  0  0  0  0  0
   61.1747   35.6009   48.5145 H   0  0  0  0  0  0  0  0  0  0  0  0
   60.6779   31.8977   49.0429 H   0  0  0  0  0  0  0  0  0  0  0  0
   59.4209   30.5224   47.4252 H   0  0  0  0  0  0  0  0  0  0  0  0
   58.4096   33.0760   43.6923 H   0  0  0  0  0  0  0  0  0  0  0  0
   56.6856   33.0803   41.7294 H   0  0  0  0  0  0  0  0  0  0  0  0
   58.0445   32.2015   40.9498 H   0  0  0  0  0  0  0  0  0  0  0  0
   56.3960   31.4881   40.9498 H   0  0  0  0  0  0  0  0  0  0  0  0
   56.4642   29.5352   42.2336 H   0  0  0  0  0  0  0  0  0  0  0  0
   58.2260   26.8082   47.3845 H   0  0  0  0  0  0  0  0  0  0  0  0
   56.3852   26.8395   47.0817 H   0  0  0  0  0  0  0  0  0  0  0  0
   59.1263   24.9112   46.9875 H   0  0  0  0  0  0  0  0  0  0  0  0
   58.7780   24.0833   45.4319 H   0  0  0  0  0  0  0  0  0  0  0  0
   59.4546   25.7472   45.4319 H   0  0  0  0  0  0  0  0  0  0  0  0
   56.8001   23.6891   45.6607 H   0  0  0  0  0  0  0  0  0  0  0  0
   56.4712   24.4630   47.3021 H   0  0  0  0  0  0  0  0  0  0  0  0
   54.8705   24.4052   44.8591 H   0  0  0  0  0  0  0  0  0  0  0  0
   54.4456   24.6030   46.6417 H   0  0  0  0  0  0  0  0  0  0  0  0
   55.6240   26.6570   45.1950 H   0  0  0  0  0  0  0  0  0  0  0  0
   58.5843   29.4871   47.1742 H   0  0  0  0  0  0  0  0  0  0  0  0
   58.9512   33.9516   44.9138 H   0  0  0  0  0  0  0  0  0  0  0  0
   60.2033   35.3267   46.5303 H   0  0  0  0  0  0  0  0  0  0  0  0
  1  2  1  0
  2  3  1  0
  3  4  1  0
  3  5  1  0
  5  6  1  0
  6  7  2  0
  7  8  1  0
  8  9  2  0
  9 10  1  0
 10 11  2  0
 11 12  1  0
 12 13  1  0
 12 14  2  0
 14 15  1  0
 15 16  2  0
 16 17  1  0
 17 18  1  0
 18 19  1  0
 19 20  1  0
 19 21  1  0
 21 22  1  0
 22 23  1  0
 17 24  2  0
 24 25  1  0
  9 26  1  0
 26 27  2  0
 27  6  1  0
 25 10  1  0
 25 15  1  0
  1 28  1  0
  1 29  1  0
  1 30  1  0
  2 31  1  0
  2 32  1  0
  4 33  1  0
  4 34  1  0
  4 35  1  0
  5 36  1  0
  5 37  1  0
  7 38  1  0
  8 39  1  0
 11 40  1  0
 13 41  1  0
 13 42  1  0
 13 43  1  0
 14 44  1  0
 18 45  1  0
 18 46  1  0
 20 47  1  0
 20 48  1  0
 20 49  1  0
 21 50  1  0
 21 51  1  0
 22 52  1  0
 22 53  1  0
 23 54  1  0
 24 55  1  0
 26 56  1  0
 27 57  1  0
M  END
>  <smiles>  (34) 
CCN(C)Cc1ccc(-c2cc(C)cc3nc(CN(C)CCO)cn23)cc1

>  <score_type>  (34) 
oracle

>  <origin>  (34) 
adg

>  <m_score__min__energy>  (34) 
-8.1400000000000006

>  <m_primary>  (34) 
energy

$$$$
35:0
     RDKit          3D

 32 32  0  0  1  0  0  0  0  0999 V2000
   59.8850   35.4540   46.1220 C   0  0  0  0  0  0  0  0  0  0  0  0
   59.5880   34.0130   46.3350 C   0  0  0  0  0  0  0  0  0  0  0  0
   60.4600   33.2430   47.0540 C   0  0  0  0  0  0  0  0  0  0  0  0
   60.2000   31.9080   47.2600 C   0  0  0  0  0  0  0  0  0  0  0  0
   59.0680   31.2960   46.7610 C   0  0  0  0  0  0  0  0  0  0  0  0
   58.8860   29.8620   47.0400 C   0  0  0  0  0  0  0  0  0  0  0  0
   58.7110   29.0430   45.8340 C   0  0  0  0  0  0  0  0  0  0  0  0
   57.5490   28.7030   45.3720 N   0  0  0  0  0  0  0  0  0  0  0  0
   57.2050   28.9650   43.9990 C   0  0  0  0  0  0  0  0  0  0  0  0
   55.8230   29.6010   44.0250 C   0  0  0  0  0  0  0  0  0  0  0  0
   55.1870   29.3450   45.2170 O   0  0  0  0  0  0  0  0  0  0  0  0
   58.1830   32.0650   46.0350 C   0  0  0  0  0  0  0  0  0  0  0  0
   57.0420   31.4520   45.5310 O   0  0  0  0  0  0  0  0  0  0  0  0
   58.4470   33.4030   45.8290 C   0  0  0  0  0  0  0  0  0  0  0  0
   57.4990   34.2440   45.0470 C   0  0  0  0  0  0  0  0  0  0  0  0
   59.9882   35.9549   47.0959 H   0  0  0  0  0  0  0  0  0  0  0  0
   60.8229   35.5553   45.5563 H   0  0  0  0  0  0  0  0  0  0  0  0
   59.0636   35.9179   45.5563 H   0  0  0  0  0  0  0  0  0  0  0  0
   61.3735   33.6933   47.4695 H   0  0  0  0  0  0  0  0  0  0  0  0
   60.9170   31.3092   47.8408 H   0  0  0  0  0  0  0  0  0  0  0  0
   59.7721   29.4984   47.5810 H   0  0  0  0  0  0  0  0  0  0  0  0
   57.9635   29.7644   47.6312 H   0  0  0  0  0  0  0  0  0  0  0  0
   59.6086   28.7019   45.2973 H   0  0  0  0  0  0  0  0  0  0  0  0
   57.9340   29.6539   43.5474 H   0  0  0  0  0  0  0  0  0  0  0  0
   57.2120   28.0427   43.3996 H   0  0  0  0  0  0  0  0  0  0  0  0
   55.9248   30.6888   43.8976 H   0  0  0  0  0  0  0  0  0  0  0  0
   55.2238   29.1727   43.2080 H   0  0  0  0  0  0  0  0  0  0  0  0
   55.7370   29.7170   45.9480 H   0  0  0  0  0  0  0  0  0  0  0  0
   56.7670   30.5960   46.0300 H   0  0  0  0  0  0  0  0  0  0  0  0
   56.8582   34.8125   45.7370 H   0  0  0  0  0  0  0  0  0  0  0  0
   58.0653   34.9422   44.4132 H   0  0  0  0  0  0  0  0  0  0  0  0
   56.8732   33.5985   44.4132 H   0  0  0  0  0  0  0  0  0  0  0  0
  1  2  1  0
  2  3  2  0
  3  4  1  0
  4  5  2  0
  5  6  1  0
  6  7  1  0
  7  8  2  0
  8  9  1  0
  9 10  1  0
 10 11  1  0
  5 12  1  0
 12 13  1  0
 12 14  2  0
 14 15  1  0
 14  2  1  0
  1 16  1  0
  1 17  1  0
  1 18  1  0
  3 19  1  0
  4 20  1  0
  6 21  1  0
  6 22  1  0
  7 23  1  0
  9 24  1  0
  9 25  1  0
 10 26  1  0
 10 27  1  0
 11 28  1  0
 13 29  1  0
 15 30  1  0
 15 31  1  0
 15 32  1  0
M  END
>  <smiles>  (35) 
Cc1ccc(CC=NCCO)c(O)c1C

>  <score_type>  (35) 
oracle

>  <origin>  (35) 
adg

>  <m_score__min__energy>  (35) 
-6.2999999999999998

>  <m_primary>  (35) 
energy

$$$$
36:0
     RDKit          3D

 53 55  0  0  0  0  0  0  0  0999 V2000
   61.7870   30.6480   50.9550 C   0  0  0  0  0  0  0  0  0  0  0  0
   60.8730   29.6490   50.3500 C   0  0  0  0  0  0  0  0  0  0  0  0
   59.8240   30.1320   49.5160 N   0  0  0  0  0  0  0  0  0  0  0  0
   58.8740   31.0030   50.0940 C   0  0  0  0  0  0  0  0  0  0  0  0
   58.6350   32.3080   49.4300 C   0  0  0  0  0  0  0  0  0  0  0  0
   59.2680   29.1430   48.6370 C   0  0  0  0  0  0  0  0  0  0  0  0
   60.1060   28.6340   47.5500 C   0  0  0  0  0  0  0  0  0  0  0  0
   60.7500   29.5600   46.6550 N   0  0  0  0  0  0  0  0  0  0  0  0
   60.4880   30.9440   46.5940 C   0  0  0  0  0  0  0  0  0  0  0  0
   61.4800   31.7810   47.1300 C   0  0  0  0  0  0  0  0  0  0  0  0
   62.6230   31.2200   47.6820 C   0  0  0  0  0  0  0  0  0  0  0  0
   63.6370   31.9900   48.2300 C   0  0  0  0  0  0  0  0  0  0  0  0
   63.4500   33.3560   48.1980 C   0  0  0  0  0  0  0  0  0  0  0  0
   62.3140   33.9240   47.6520 C   0  0  0  0  0  0  0  0  0  0  0  0
   61.3010   33.1680   47.1050 C   0  0  0  0  0  0  0  0  0  0  0  0
   60.2190   33.7510   46.5900 N   0  0  0  0  0  0  0  0  0  0  0  0
   59.9870   35.1730   46.5500 C   0  0  0  0  0  0  0  0  0  0  0  0
   59.2450   32.9540   46.0640 C   0  0  0  0  0  0  0  0  0  0  0  0
   58.0910   33.4770   45.5220 C   0  0  0  0  0  0  0  0  0  0  0  0
   57.0800   32.6820   44.9930 C   0  0  0  0  0  0  0  0  0  0  0  0
   57.2290   31.3250   45.0100 C   0  0  0  0  0  0  0  0  0  0  0  0
   56.2390   30.4960   44.4920 O   0  0  0  0  0  0  0  0  0  0  0  0
   56.4500   29.7320   43.3180 C   0  0  0  0  0  0  0  0  0  0  0  0
   58.3800   30.8040   45.5480 C   0  0  0  0  0  0  0  0  0  0  0  0
   59.3940   31.5610   46.0760 C   0  0  0  0  0  0  0  0  0  0  0  0
   61.7274   30.5828   52.0515 H   0  0  0  0  0  0  0  0  0  0  0  0
   62.8184   30.4448   50.6311 H   0  0  0  0  0  0  0  0  0  0  0  0
   61.4931   31.6573   50.6311 H   0  0  0  0  0  0  0  0  0  0  0  0
   61.4869   28.9664   49.7440 H   0  0  0  0  0  0  0  0  0  0  0  0
   60.3583   29.1882   51.2060 H   0  0  0  0  0  0  0  0  0  0  0  0
   57.9131   30.4683   50.1211 H   0  0  0  0  0  0  0  0  0  0  0  0
   59.3002   31.2656   51.0735 H   0  0  0  0  0  0  0  0  0  0  0  0
   58.4923   33.0871   50.1933 H   0  0  0  0  0  0  0  0  0  0  0  0
   59.5012   32.5640   48.8022 H   0  0  0  0  0  0  0  0  0  0  0  0
   57.7343   32.2404   48.8022 H   0  0  0  0  0  0  0  0  0  0  0  0
   58.9789   28.2814   49.2568 H   0  0  0  0  0  0  0  0  0  0  0  0
   58.4454   29.6645   48.1257 H   0  0  0  0  0  0  0  0  0  0  0  0
   60.9016   28.0330   48.0146 H   0  0  0  0  0  0  0  0  0  0  0  0
   59.3926   28.1038   46.9019 H   0  0  0  0  0  0  0  0  0  0  0  0
   61.4740   29.1480   46.0000 H   0  0  0  0  0  0  0  0  0  0  0  0
   62.7281   30.1250   47.6848 H   0  0  0  0  0  0  0  0  0  0  0  0
   64.5398   31.5371   48.6658 H   0  0  0  0  0  0  0  0  0  0  0  0
   64.2264   34.0119   48.6187 H   0  0  0  0  0  0  0  0  0  0  0  0
   62.2156   35.0196   47.6545 H   0  0  0  0  0  0  0  0  0  0  0  0
   59.9233   35.5631   47.5765 H   0  0  0  0  0  0  0  0  0  0  0  0
   60.8167   35.6652   46.0215 H   0  0  0  0  0  0  0  0  0  0  0  0
   59.0439   35.3759   46.0215 H   0  0  0  0  0  0  0  0  0  0  0  0
   57.9642   34.5696   45.5072 H   0  0  0  0  0  0  0  0  0  0  0  0
   56.1745   33.1393   44.5676 H   0  0  0  0  0  0  0  0  0  0  0  0
   56.7334   28.7057   43.5944 H   0  0  0  0  0  0  0  0  0  0  0  0
   55.5245   29.7094   42.7240 H   0  0  0  0  0  0  0  0  0  0  0  0
   57.2559   30.1876   42.7240 H   0  0  0  0  0  0  0  0  0  0  0  0
   58.4959   29.7101   45.5559 H   0  0  0  0  0  0  0  0  0  0  0  0
  1  2  1  0
  2  3  1  0
  3  4  1  0
  4  5  1  0
  3  6  1  0
  6  7  1  0
  7  8  1  0
  8  9  1  0
  9 10  2  0
 10 11  1  0
 11 12  2  0
 12 13  1  0
 13 14  2  0
 14 15  1  0
 15 16  2  0
 16 17  1  0
 16 18  1  0
 18 19  2  0
 19 20  1  0
 20 21  2  0
 21 22  1  0
 22 23  1  0
 21 24  1  0
 24 25  2  0
 25  9  1  0
 15 10  1  0
 25 18  1  0
  1 26  1  0
  1 27  1  0
  1 28  1  0
  2 29  1  0
  2 30  1  0
  4 31  1  0
  4 32  1  0
  5 33  1  0
  5 34  1  0
  5 35  1  0
  6 36  1  0
  6 37  1  0
  7 38  1  0
  7 39  1  0
  8 40  1  0
 11 41  1  0
 12 42  1  0
 13 43  1  0
 14 44  1  0
 17 45  1  0
 17 46  1  0
 17 47  1  0
 19 48  1  0
 20 49  1  0
 23 50  1  0
 23 51  1  0
 23 52  1  0
 24 53  1  0
M  CHG  1  16   1
M  END
>  <smiles>  (36) 
CCN(CC)CCNc1c2ccccc2[n+](C)c2ccc(OC)cc12

>  <score_type>  (36) 
oracle

>  <origin>  (36) 
adg

>  <m_score__min__energy>  (36) 
-5.8099999999999996

>  <m_primary>  (36) 
energy

$$$$
