0:0
     RDKit          3D

 60 63  0  0  0  0  0  0  0  0999 V2000
   64.0720   32.9990   46.7890 C   0  0  0  0  0  0  0  0  0  0  0  0
   62.7190   33.4250   47.2770 C   0  0  0  0  0  0  0  0  0  0  0  0
   61.6410   33.5020   46.3850 C   0  0  0  0  0  0  0  0  0  0  0  0
   60.3650   33.8570   46.8440 C   0  0  0  0  0  0  0  0  0  0  0  0
   59.1960   33.8890   45.8970 C   0  0  0  0  0  0  0  0  0  0  0  0
   58.2030   32.8860   46.2950 N   0  0  0  0  0  0  0  0  0  0  0  0
   57.3930   33.0940   47.4940 C   0  0  0  0  0  0  0  0  0  0  0  0
   58.1370   31.6310   45.5990 C   0  0  0  0  0  0  0  0  0  0  0  0
   57.2860   31.5050   44.4920 C   0  0  0  0  0  0  0  0  0  0  0  0
   57.2290   30.2940   43.7890 C   0  0  0  0  0  0  0  0  0  0  0  0
   56.3390   30.1520   42.5950 C   0  0  0  0  0  0  0  0  0  0  0  0
   58.0060   29.2470   44.1810 N   0  0  0  0  0  0  0  0  0  0  0  0
   58.8370   29.3320   45.2550 C   0  0  0  0  0  0  0  0  0  0  0  0
   59.6070   28.2310   45.6360 C   0  0  0  0  0  0  0  0  0  0  0  0
   60.4390   28.3220   46.7520 C   0  0  0  0  0  0  0  0  0  0  0  0
   60.4960   29.5180   47.4720 C   0  0  0  0  0  0  0  0  0  0  0  0
   59.7480   30.5900   47.0900 N   0  0  0  0  0  0  0  0  0  0  0  0
   58.9230   30.5310   45.9990 C   0  0  0  0  0  0  0  0  0  0  0  0
   60.1680   34.1070   48.2090 C   0  0  0  0  0  0  0  0  0  0  0  0
   61.2290   34.0160   49.1160 C   0  0  0  0  0  0  0  0  0  0  0  0
   60.9590   34.2620   50.4720 O   0  0  0  0  0  0  0  0  0  0  0  0
   60.4150   33.3210   51.4000 C   0  0  0  0  0  0  0  0  0  0  0  0
   59.2820   32.4960   50.7490 C   0  0  2  0  0  0  0  0  0  0  0  0
   58.3040   31.9270   51.7710 C   0  0  0  0  0  0  0  0  0  0  0  0
   57.7220   30.6990   51.0930 C   0  0  0  0  0  0  0  0  0  0  0  0
   58.5290   30.5160   49.8070 C   0  0  0  0  0  0  0  0  0  0  0  0
   59.7240   31.3720   49.8960 N   0  0  0  0  0  0  0  0  0  0  0  0
   60.8490   30.5980   50.4640 C   0  0  0  0  0  0  0  0  0  0  0  0
   62.5100   33.6660   48.6420 C   0  0  0  0  0  0  0  0  0  0  0  0
   64.7245   32.7936   47.6504 H   0  0  0  0  0  0  0  0  0  0  0  0
   63.9721   32.0888   46.1794 H   0  0  0  0  0  0  0  0  0  0  0  0
   64.5115   33.8022   46.1794 H   0  0  0  0  0  0  0  0  0  0  0  0
   61.7970   33.2826   45.3185 H   0  0  0  0  0  0  0  0  0  0  0  0
   58.7352   34.8876   45.9202 H   0  0  0  0  0  0  0  0  0  0  0  0
   59.5484   33.6654   44.8793 H   0  0  0  0  0  0  0  0  0  0  0  0
   58.0137   32.9346   48.3880 H   0  0  0  0  0  0  0  0  0  0  0  0
   57.0013   34.1219   47.4981 H   0  0  0  0  0  0  0  0  0  0  0  0
   56.5545   32.3820   47.4981 H   0  0  0  0  0  0  0  0  0  0  0  0
   56.6640   32.3553   44.1757 H   0  0  0  0  0  0  0  0  0  0  0  0
   55.3034   29.9868   42.9272 H   0  0  0  0  0  0  0  0  0  0  0  0
   56.3881   31.0693   41.9899 H   0  0  0  0  0  0  0  0  0  0  0  0
   56.6711   29.2955   41.9899 H   0  0  0  0  0  0  0  0  0  0  0  0
   59.5576   27.2960   45.0586 H   0  0  0  0  0  0  0  0  0  0  0  0
   61.0456   27.4586   47.0628 H   0  0  0  0  0  0  0  0  0  0  0  0
   61.1496   29.5943   48.3535 H   0  0  0  0  0  0  0  0  0  0  0  0
   59.8190   31.4600   47.6640 H   0  0  0  0  0  0  0  0  0  0  0  0
   59.1657   34.3784   48.5719 H   0  0  0  0  0  0  0  0  0  0  0  0
   61.2124   32.6393   51.7308 H   0  0  0  0  0  0  0  0  0  0  0  0
   60.0005   33.8722   52.2570 H   0  0  0  0  0  0  0  0  0  0  0  0
   58.7945   33.2442   50.1067 H   0  0  0  0  0  0  0  0  0  0  0  0
   58.8273   31.6488   52.6977 H   0  0  0  0  0  0  0  0  0  0  0  0
   57.5299   32.6530   52.0603 H   0  0  0  0  0  0  0  0  0  0  0  0
   57.8277   29.8165   51.7411 H   0  0  0  0  0  0  0  0  0  0  0  0
   56.6485   30.8198   50.8854 H   0  0  0  0  0  0  0  0  0  0  0  0
   58.8304   29.4634   49.7017 H   0  0  0  0  0  0  0  0  0  0  0  0
   57.9232   30.7941   48.9320 H   0  0  0  0  0  0  0  0  0  0  0  0
   60.7998   30.6319   51.5624 H   0  0  0  0  0  0  0  0  0  0  0  0
   60.7829   29.5533   50.1260 H   0  0  0  0  0  0  0  0  0  0  0  0
   61.8011   31.0332   50.1260 H   0  0  0  0  0  0  0  0  0  0  0  0
   63.3500   33.5816   49.3472 H   0  0  0  0  0  0  0  0  0  0  0  0
  1  2  1  0
  2  3  2  0
  3  4  1  0
  4  5  1  0
  5  6  1  0
  6  7  1  0
  6  8  1  0
  8  9  2  0
  9 10  1  0
 10 11  1  0
 10 12  2  0
 12 13  1  0
 13 14  2  0
 14 15  1  0
 15 16  2  0
 16 17  1  0
 17 18  2  0
  4 19  2  0
 19 20  1  0
 20 21  1  0
 21 22  1  0
 22 23  1  0
 23 24  1  0
 24 25  1  0
 25 26  1  0
 26 27  1  0
 27 28  1  0
 20 29  2  0
 29  2  1  0
 18  8  1  0
 27 23  1  0
 18 13  1  0
  1 30  1  0
  1 31  1  0
  1 32  1  0
  3 33  1  0
  5 34  1  0
  5 35  1  0
  7 36  1  0
  7 37  1  0
  7 38  1  0
  9 39  1  0
 11 40  1  0
 11 41  1  0
 11 42  1  0
 14 43  1  0
 15 44  1  0
 16 45  1  0
 17 46  1  0
 19 47  1  0
 22 48  1  0
 22 49  1  0
 23 50  1  6
 24 51  1  0
 24 52  1  0
 25 53  1  0
 25 54  1  0
 26 55  1  0
 26 56  1  0
 28 57  1  0
 28 58  1  0
 28 59  1  0
 29 60  1  0
M  CHG  1  17   1
M  END
>  <UniqueID>  (1) 
1

>  <SMILES>  (1) 
Cc1cc(CN(C)c2cc(C)nc3ccc[nH+]c23)cc(OC[C@@H]2CCCN2C)c1

>  <Energy>  (1) 
73.15650229000198

>  <Genealogy>  (1) 
Cc1cc(CN(C)c2cc(C)nc3ccc[nH+]c23)cc(OCC2CCCN2C)c1 (protonated)
Cc1cc(CN(C)c2cc(C)nc3ccc[nH+]c23)cc(OC[C@@H]2CCCN2C)c1 (chirality)
Cc1cc(CN(C)c2cc(C)nc3ccc[nH+]c23)cc(OC[C@@H]2CCCN2C)c1 (3D coordinates assigned)
Cc1cc(CN(C)c2cc(C)nc3ccc[nH+]c23)cc(OC[C@@H]2CCCN2C)c1 (nonaromatic ring conformer: 73.15650229000198 kcal/mol)

>  <smiles>  (1) 
Cc1cc(CN(C)c2cc(C)nc3cccnc23)cc(OCC2CCCN2C)c1

>  <score_type>  (1) 
oracle

>  <origin>  (1) 
adg

>  <m_score__min__energy>  (1) 
-7.2300000000000004

>  <m_primary>  (1) 
energy

$$$$
1:0
     RDKit          3D

 32 33  0  0  0  0  0  0  0  0999 V2000
   61.1290   30.6720   47.6190 C   0  0  0  0  0  0  0  0  0  0  0  0
   62.0580   31.7760   47.4090 N   0  0  0  0  0  0  0  0  0  0  0  0
   63.3440   31.6390   47.1430 N   0  0  0  0  0  0  0  0  0  0  0  0
   63.8620   32.8480   46.9960 N   0  0  0  0  0  0  0  0  0  0  0  0
   62.9380   33.7850   47.1520 N   0  0  0  0  0  0  0  0  0  0  0  0
   61.8070   33.0990   47.4000 C   0  0  0  0  0  0  0  0  0  0  0  0
   60.2110   33.8610   47.7060 S   0  0  0  0  0  0  0  0  0  0  0  0
   60.1420   34.7630   46.1130 C   0  0  0  0  0  0  0  0  0  0  0  0
   58.8360   34.5270   45.3420 C   0  0  0  0  0  0  0  0  0  0  0  0
   57.8290   33.6670   46.1080 C   0  0  0  0  0  0  0  0  0  0  0  0
   57.0230   32.9250   45.1960 O   0  0  0  0  0  0  0  0  0  0  0  0
   57.2490   31.5860   44.8450 C   0  0  0  0  0  0  0  0  0  0  0  0
   56.3160   30.8290   44.1080 C   0  0  0  0  0  0  0  0  0  0  0  0
   56.5900   29.4980   43.7830 C   0  0  0  0  0  0  0  0  0  0  0  0
   57.7920   28.9090   44.1890 C   0  0  0  0  0  0  0  0  0  0  0  0
   58.1650   27.0890   43.7440 Br  0  0  0  0  0  0  0  0  0  0  0  0
   58.7210   29.6540   44.9210 C   0  0  0  0  0  0  0  0  0  0  0  0
   58.4490   30.9870   45.2470 C   0  0  0  0  0  0  0  0  0  0  0  0
   60.9916   30.5087   48.6981 H   0  0  0  0  0  0  0  0  0  0  0  0
   60.1601   30.9155   47.1587 H   0  0  0  0  0  0  0  0  0  0  0  0
   61.5345   29.7589   47.1587 H   0  0  0  0  0  0  0  0  0  0  0  0
   64.8660   33.0380   46.7830 H   0  0  0  0  0  0  0  0  0  0  0  0
   60.2386   35.8397   46.3162 H   0  0  0  0  0  0  0  0  0  0  0  0
   60.9643   34.3858   45.4873 H   0  0  0  0  0  0  0  0  0  0  0  0
   58.3734   35.5026   45.1316 H   0  0  0  0  0  0  0  0  0  0  0  0
   59.0946   33.9841   44.4209 H   0  0  0  0  0  0  0  0  0  0  0  0
   58.3710   32.9702   46.7643 H   0  0  0  0  0  0  0  0  0  0  0  0
   57.1814   34.3217   46.7096 H   0  0  0  0  0  0  0  0  0  0  0  0
   55.3689   31.2877   43.7876 H   0  0  0  0  0  0  0  0  0  0  0  0
   55.8589   28.9121   43.2066 H   0  0  0  0  0  0  0  0  0  0  0  0
   59.6666   29.1918   45.2409 H   0  0  0  0  0  0  0  0  0  0  0  0
   59.1833   31.5688   45.8234 H   0  0  0  0  0  0  0  0  0  0  0  0
  1  2  1  0
  2  3  1  0
  3  4  2  0
  4  5  1  0
  5  6  2  0
  6  7  1  0
  7  8  1  0
  8  9  1  0
  9 10  1  0
 10 11  1  0
 11 12  1  0
 12 13  2  0
 13 14  1  0
 14 15  2  0
 15 16  1  0
 15 17  1  0
 17 18  2  0
  6  2  1  0
 18 12  1  0
  1 19  1  0
  1 20  1  0
  1 21  1  0
  4 22  1  0
  8 23  1  0
  8 24  1  0
  9 25  1  0
  9 26  1  0
 10 27  1  0
 10 28  1  0
 13 29  1  0
 14 30  1  0
 17 31  1  0
 18 32  1  0
M  CHG  1   4   1
M  END
>  <UniqueID>  (2) 
2

>  <SMILES>  (2) 
Cn1n[nH+]nc1SCCCOc1ccc(Br)cc1

>  <Energy>  (2) 
63.93179764367801

>  <Genealogy>  (2) 
Cn1n[nH+]nc1SCCCOc1ccc(Br)cc1 (protonated)
Cn1n[nH+]nc1SCCCOc1ccc(Br)cc1 (3D coordinates assigned)
Cn1n[nH+]nc1SCCCOc1ccc(Br)cc1 (optimized conformer: 63.93179764367801 kcal/mol)

>  <smiles>  (2) 
Cn1nnnc1SCCCOc1ccc(Br)cc1

>  <score_type>  (2) 
oracle

>  <origin>  (2) 
adg

>  <m_score__min__energy>  (2) 
-6.0499999999999998

>  <m_primary>  (2) 
energy

$$$$
2:0
     RDKit          3D

 73 75  0  0  0  0  0  0  0  0999 V2000
   58.8970   34.1700   53.1270 C   0  0  0  0  0  0  0  0  0  0  0  0
   58.9120   33.9040   51.6220 C   0  0  0  0  0  0  0  0  0  0  0  0
   59.0050   32.4520   51.3530 N   0  0  0  0  0  0  0  0  0  0  0  0
   57.7120   31.9380   50.8680 C   0  0  0  0  0  0  0  0  0  0  0  0
   59.4440   31.7000   52.5510 C   0  0  0  0  0  0  0  0  0  0  0  0
   60.8580   31.1440   52.3330 C   0  0  0  0  0  0  0  0  0  0  0  0
   61.2950   31.4160   51.0150 O   0  0  0  0  0  0  0  0  0  0  0  0
   61.9790   30.2990   50.4780 C   0  0  0  0  0  0  0  0  0  0  0  0
   61.1470   29.6940   49.3430 C   0  0  0  0  0  0  0  0  0  0  0  0
   59.9890   30.5240   49.0000 N   0  0  0  0  0  0  0  0  0  0  0  0
   59.7060   30.9110   47.6450 C   0  0  0  0  0  0  0  0  0  0  0  0
   59.4600   29.9090   46.6900 C   0  0  0  0  0  0  0  0  0  0  0  0
   59.7640   28.5580   46.9630 C   0  0  0  0  0  0  0  0  0  0  0  0
   59.5650   27.5750   45.9950 C   0  0  0  0  0  0  0  0  0  0  0  0
   59.0760   27.9210   44.7420 C   0  0  0  0  0  0  0  0  0  0  0  0
   58.7480   29.2470   44.4600 C   0  0  0  0  0  0  0  0  0  0  0  0
   58.8960   30.2620   45.4410 C   0  0  0  0  0  0  0  0  0  0  0  0
   58.4920   31.5600   45.2130 N   0  0  0  0  0  0  0  0  0  0  0  0
   57.5710   31.8540   44.0910 C   0  0  0  0  0  0  0  0  0  0  0  0
   58.9230   32.5780   46.0470 C   0  0  0  0  0  0  0  0  0  0  0  0
   58.7180   33.9320   45.7010 C   0  0  0  0  0  0  0  0  0  0  0  0
   59.0660   34.9560   46.5660 C   0  0  0  0  0  0  0  0  0  0  0  0
   59.7150   34.6780   47.7560 C   0  0  0  0  0  0  0  0  0  0  0  0
   60.0740   33.3560   48.1010 C   0  0  0  0  0  0  0  0  0  0  0  0
   60.9250   33.0970   49.2580 N   0  0  0  0  0  0  0  0  0  0  0  0
   61.7980   34.2140   49.6720 C   0  0  0  0  0  0  0  0  0  0  0  0
   63.2440   33.7510   49.9400 C   0  0  0  0  0  0  0  0  0  0  0  0
   63.9830   33.2390   48.6880 C   0  0  0  0  0  0  0  0  0  0  0  0
   63.0610   32.9380   47.5700 N   0  0  0  0  0  0  0  0  0  0  0  0
   63.3410   33.8380   46.4400 C   0  0  0  0  0  0  0  0  0  0  0  0
   63.2020   31.5390   47.1270 C   0  0  0  0  0  0  0  0  0  0  0  0
   59.5820   32.2790   47.2800 C   0  0  0  0  0  0  0  0  0  0  0  0
   58.9509   33.2142   53.6688 H   0  0  0  0  0  0  0  0  0  0  0  0
   59.7614   34.7942   53.3977 H   0  0  0  0  0  0  0  0  0  0  0  0
   57.9679   34.6930   53.3977 H   0  0  0  0  0  0  0  0  0  0  0  0
   57.9862   34.2962   51.1759 H   0  0  0  0  0  0  0  0  0  0  0  0
   59.7870   34.4041   51.1812 H   0  0  0  0  0  0  0  0  0  0  0  0
   57.0731   31.6840   51.7266 H   0  0  0  0  0  0  0  0  0  0  0  0
   57.2171   32.7078   50.2577 H   0  0  0  0  0  0  0  0  0  0  0  0
   57.8806   31.0385   50.2577 H   0  0  0  0  0  0  0  0  0  0  0  0
   59.4471   32.3719   53.4219 H   0  0  0  0  0  0  0  0  0  0  0  0
   58.7506   30.8644   52.7268 H   0  0  0  0  0  0  0  0  0  0  0  0
   61.5476   31.6156   53.0485 H   0  0  0  0  0  0  0  0  0  0  0  0
   60.8418   30.0549   52.4869 H   0  0  0  0  0  0  0  0  0  0  0  0
   62.9560   30.6195   50.0870 H   0  0  0  0  0  0  0  0  0  0  0  0
   62.1308   29.5462   51.2655 H   0  0  0  0  0  0  0  0  0  0  0  0
   61.7848   29.5911   48.4527 H   0  0  0  0  0  0  0  0  0  0  0  0
   60.7725   28.7173   49.6834 H   0  0  0  0  0  0  0  0  0  0  0  0
   59.6070   31.1310   49.7590 H   0  0  0  0  0  0  0  0  0  0  0  0
   60.1619   28.2780   47.9495 H   0  0  0  0  0  0  0  0  0  0  0  0
   59.7955   26.5240   46.2238 H   0  0  0  0  0  0  0  0  0  0  0  0
   58.9471   27.1477   43.9704 H   0  0  0  0  0  0  0  0  0  0  0  0
   58.3687   29.5103   43.4616 H   0  0  0  0  0  0  0  0  0  0  0  0
   56.5945   32.1657   44.4902 H   0  0  0  0  0  0  0  0  0  0  0  0
   57.9903   32.6629   43.4747 H   0  0  0  0  0  0  0  0  0  0  0  0
   57.4441   30.9517   43.4747 H   0  0  0  0  0  0  0  0  0  0  0  0
   58.2733   34.1779   44.7254 H   0  0  0  0  0  0  0  0  0  0  0  0
   58.8249   35.9971   46.3053 H   0  0  0  0  0  0  0  0  0  0  0  0
   59.9556   35.5007   48.4454 H   0  0  0  0  0  0  0  0  0  0  0  0
   61.5600   32.3010   49.0190 H   0  0  0  0  0  0  0  0  0  0  0  0
   60.3120   32.8520   50.0670 H   0  0  0  0  0  0  0  0  0  0  0  0
   61.8099   34.9699   48.8730 H   0  0  0  0  0  0  0  0  0  0  0  0
   61.3962   34.6292   50.6080 H   0  0  0  0  0  0  0  0  0  0  0  0
   63.8084   34.6011   50.3508 H   0  0  0  0  0  0  0  0  0  0  0  0
   63.1815   32.9046   50.6398 H   0  0  0  0  0  0  0  0  0  0  0  0
   64.6963   34.0093   48.3596 H   0  0  0  0  0  0  0  0  0  0  0  0
   64.4948   32.3042   48.9605 H   0  0  0  0  0  0  0  0  0  0  0  0
   63.6474   34.8227   46.8227 H   0  0  0  0  0  0  0  0  0  0  0  0
   64.1501   33.4152   45.8263 H   0  0  0  0  0  0  0  0  0  0  0  0
   62.4349   33.9488   45.8263 H   0  0  0  0  0  0  0  0  0  0  0  0
   63.2683   30.8810   48.0060 H   0  0  0  0  0  0  0  0  0  0  0  0
   62.3278   31.2560   46.5222 H   0  0  0  0  0  0  0  0  0  0  0  0
   64.1151   31.4361   46.5222 H   0  0  0  0  0  0  0  0  0  0  0  0
  1  2  1  0
  2  3  1  0
  3  4  1  0
  3  5  1  0
  5  6  1  0
  6  7  1  0
  7  8  1  0
  8  9  1  0
  9 10  1  0
 10 11  1  0
 11 12  2  0
 12 13  1  0
 13 14  2  0
 14 15  1  0
 15 16  2  0
 16 17  1  0
 17 18  2  0
 18 19  1  0
 18 20  1  0
 20 21  2  0
 21 22  1  0
 22 23  2  0
 23 24  1  0
 24 25  1  0
 25 26  1  0
 26 27  1  0
 27 28  1  0
 28 29  1  0
 29 30  1  0
 29 31  1  0
 24 32  2  0
 32 11  1  0
 17 12  1  0
 32 20  1  0
  1 33  1  0
  1 34  1  0
  1 35  1  0
  2 36  1  0
  2 37  1  0
  4 38  1  0
  4 39  1  0
  4 40  1  0
  5 41  1  0
  5 42  1  0
  6 43  1  0
  6 44  1  0
  8 45  1  0
  8 46  1  0
  9 47  1  0
  9 48  1  0
 10 49  1  0
 13 50  1  0
 14 51  1  0
 15 52  1  0
 16 53  1  0
 19 54  1  0
 19 55  1  0
 19 56  1  0
 21 57  1  0
 22 58  1  0
 23 59  1  0
 25 60  1  0
 25 61  1  0
 26 62  1  0
 26 63  1  0
 27 64  1  0
 27 65  1  0
 28 66  1  0
 28 67  1  0
 30 68  1  0
 30 69  1  0
 30 70  1  0
 31 71  1  0
 31 72  1  0
 31 73  1  0
M  CHG  2  18   1  25   1
M  END
>  <UniqueID>  (3) 
3

>  <SMILES>  (3) 
CCN(C)CCOCCNc1c2ccccc2[n+](C)c2cccc([NH2+]CCCN(C)C)c12

>  <Energy>  (3) 
107.34160589295384

>  <Genealogy>  (3) 
CCN(C)CCOCCNc1c2ccccc2[n+](C)c2cccc([NH2+]CCCN(C)C)c12 (protonated)
CCN(C)CCOCCNc1c2ccccc2[n+](C)c2cccc([NH2+]CCCN(C)C)c12 (3D coordinates assigned)
CCN(C)CCOCCNc1c2ccccc2[n+](C)c2cccc([NH2+]CCCN(C)C)c12 (optimized conformer: 107.34160589295384 kcal/mol)

>  <smiles>  (3) 
CCN(C)CCOCCNc1c2ccccc2[n+](C)c2cccc(NCCCN(C)C)c12

>  <score_type>  (3) 
oracle

>  <origin>  (3) 
adg

>  <m_score__min__energy>  (3) 
-3.1899999999999999

>  <m_primary>  (3) 
energy

$$$$
3:0
     RDKit          3D

 44 45  0  0  0  0  0  0  0  0999 V2000
   59.6470   34.2370   49.0380 C   0  0  0  0  0  0  0  0  0  0  0  0
   60.9410   33.5940   48.5480 C   0  0  0  0  0  0  0  0  0  0  0  0
   61.0770   33.7060   47.0540 C   0  0  0  0  0  0  0  0  0  0  0  0
   62.2210   33.8520   46.5450 O   0  0  0  0  0  0  0  0  0  0  0  0
   59.9270   33.6830   46.1950 N   0  0  0  0  0  0  0  0  0  0  0  0
   59.3120   34.8870   45.6370 C   0  0  0  0  0  0  0  0  0  0  0  0
   58.0160   34.4200   44.9330 C   0  0  0  0  0  0  0  0  0  0  0  0
   58.0560   32.9390   45.0850 C   0  0  0  0  0  0  0  0  0  0  0  0
   57.1720   32.0010   44.5510 C   0  0  0  0  0  0  0  0  0  0  0  0
   57.4330   30.6340   44.7550 C   0  0  0  0  0  0  0  0  0  0  0  0
   56.3500   29.4260   44.0690 S   0  0  0  0  0  0  0  0  0  0  0  0
   57.0550   28.7160   42.9480 O   0  0  0  0  0  0  0  0  0  0  0  0
   55.1200   30.0900   43.5140 O   0  0  0  0  0  0  0  0  0  0  0  0
   55.8930   28.2670   45.2790 N   0  0  0  0  0  0  0  0  0  0  0  0
   57.0660   27.5120   45.7160 C   0  0  0  0  0  0  0  0  0  0  0  0
   56.8350   26.0010   45.5190 C   0  0  0  0  0  0  0  0  0  0  0  0
   55.7850   25.4090   46.3810 N   0  0  0  0  0  0  0  0  0  0  0  0
   54.6970   24.7770   45.6190 C   0  0  0  0  0  0  0  0  0  0  0  0
   56.3150   24.5020   47.4100 C   0  0  0  0  0  0  0  0  0  0  0  0
   58.5890   30.2400   45.4610 C   0  0  0  0  0  0  0  0  0  0  0  0
   59.4670   31.2030   45.9820 C   0  0  0  0  0  0  0  0  0  0  0  0
   59.1560   32.5560   45.8040 C   0  0  0  0  0  0  0  0  0  0  0  0
   59.6343   34.2433   50.1379 H   0  0  0  0  0  0  0  0  0  0  0  0
   59.5866   35.2699   48.6647 H   0  0  0  0  0  0  0  0  0  0  0  0
   58.7872   33.6613   48.6647 H   0  0  0  0  0  0  0  0  0  0  0  0
   61.7944   34.0990   49.0241 H   0  0  0  0  0  0  0  0  0  0  0  0
   60.9207   32.5271   48.8152 H   0  0  0  0  0  0  0  0  0  0  0  0
   59.0746   35.6012   46.4392 H   0  0  0  0  0  0  0  0  0  0  0  0
   59.9893   35.3960   44.9355 H   0  0  0  0  0  0  0  0  0  0  0  0
   57.1270   34.8424   45.4242 H   0  0  0  0  0  0  0  0  0  0  0  0
   57.9570   34.7428   43.8831 H   0  0  0  0  0  0  0  0  0  0  0  0
   56.2881   32.3242   43.9815 H   0  0  0  0  0  0  0  0  0  0  0  0
   57.9396   27.8253   45.1255 H   0  0  0  0  0  0  0  0  0  0  0  0
   57.2412   27.7104   46.7837 H   0  0  0  0  0  0  0  0  0  0  0  0
   56.5494   25.8336   44.4700 H   0  0  0  0  0  0  0  0  0  0  0  0
   57.7770   25.5074   45.8000 H   0  0  0  0  0  0  0  0  0  0  0  0
   53.9613   24.3496   46.3162 H   0  0  0  0  0  0  0  0  0  0  0  0
   54.2069   25.5310   44.9855 H   0  0  0  0  0  0  0  0  0  0  0  0
   55.1092   23.9778   44.9855 H   0  0  0  0  0  0  0  0  0  0  0  0
   56.0810   24.9024   48.4075 H   0  0  0  0  0  0  0  0  0  0  0  0
   55.8548   23.5094   47.2961 H   0  0  0  0  0  0  0  0  0  0  0  0
   57.4057   24.4157   47.2961 H   0  0  0  0  0  0  0  0  0  0  0  0
   58.8037   29.1707   45.6041 H   0  0  0  0  0  0  0  0  0  0  0  0
   60.3789   30.9013   46.5181 H   0  0  0  0  0  0  0  0  0  0  0  0
  1  2  1  0
  2  3  1  0
  3  4  2  0
  3  5  1  0
  5  6  1  0
  6  7  1  0
  7  8  1  0
  8  9  2  0
  9 10  1  0
 10 11  1  0
 11 12  2  0
 11 13  2  0
 11 14  1  0
 14 15  1  0
 15 16  1  0
 16 17  1  0
 17 18  1  0
 17 19  1  0
 10 20  2  0
 20 21  1  0
 21 22  2  0
 22  5  1  0
 22  8  1  0
  1 23  1  0
  1 24  1  0
  1 25  1  0
  2 26  1  0
  2 27  1  0
  6 28  1  0
  6 29  1  0
  7 30  1  0
  7 31  1  0
  9 32  1  0
 15 33  1  0
 15 34  1  0
 16 35  1  0
 16 36  1  0
 18 37  1  0
 18 38  1  0
 18 39  1  0
 19 40  1  0
 19 41  1  0
 19 42  1  0
 20 43  1  0
 21 44  1  0
M  CHG  1  14  -1
M  END
>  <UniqueID>  (4) 
4

>  <SMILES>  (4) 
CCC(=O)N1CCc2cc(S(=O)(=O)[N-]CCN(C)C)ccc21

>  <Energy>  (4) 
58.651627308739485

>  <Genealogy>  (4) 
CCC(=O)N1CCc2cc(S(=O)(=O)[N-]CCN(C)C)ccc21 (protonated)
CCC(=O)N1CCc2cc(S(=O)(=O)[N-]CCN(C)C)ccc21 (3D coordinates assigned)
CCC(=O)N1CCc2cc(S(=O)(=O)[N-]CCN(C)C)ccc21 (nonaromatic ring conformer: 58.651627308739485 kcal/mol)

>  <smiles>  (4) 
CCC(=O)N1CCc2cc(S(=O)(=O)NCCN(C)C)ccc21

>  <score_type>  (4) 
oracle

>  <origin>  (4) 
adg

>  <m_score__min__energy>  (4) 
-9.5600000000000005

>  <m_primary>  (4) 
energy

$$$$
4:0
     RDKit          3D

 57 59  0  0  0  0  0  0  0  0999 V2000
   57.2220   21.8400   50.4560 C   0  0  0  0  0  0  0  0  0  0  0  0
   56.9540   20.8810   49.2900 C   0  0  0  0  0  0  0  0  0  0  0  0
   56.9880   21.6180   47.9970 N   0  0  0  0  0  0  0  0  0  0  0  0
   57.0230   20.6870   46.8440 C   0  0  0  0  0  0  0  0  0  0  0  0
   57.7400   21.3360   45.6590 C   0  0  0  0  0  0  0  0  0  0  0  0
   55.8370   22.5490   47.8920 C   0  0  0  0  0  0  0  0  0  0  0  0
   56.2810   23.8550   47.2670 C   0  0  0  0  0  0  0  0  0  0  0  0
   57.4410   24.4700   47.7720 C   0  0  0  0  0  0  0  0  0  0  0  0
   57.8880   25.6850   47.2570 C   0  0  0  0  0  0  0  0  0  0  0  0
   57.1920   26.3120   46.2150 C   0  0  0  0  0  0  0  0  0  0  0  0
   57.6550   27.6110   45.6770 C   0  0  0  0  0  0  0  0  0  0  0  0
   58.8730   27.9220   45.7790 O   0  0  0  0  0  0  0  0  0  0  0  0
   56.7480   28.5570   45.0910 N   0  0  0  0  0  0  0  0  0  0  0  0
   57.0920   29.8170   44.4860 C   0  0  0  0  0  0  0  0  0  0  0  0
   57.6350   30.8690   45.2510 C   0  0  0  0  0  0  0  0  0  0  0  0
   57.9500   32.1080   44.6620 C   0  0  0  0  0  0  0  0  0  0  0  0
   58.5490   33.2040   45.4690 C   0  0  0  0  0  0  0  0  0  0  0  0
   58.6110   33.1150   46.8750 C   0  0  0  0  0  0  0  0  0  0  0  0
   59.1810   34.1480   47.6280 C   0  0  0  0  0  0  0  0  0  0  0  0
   59.6880   35.2830   46.9910 C   0  0  0  0  0  0  0  0  0  0  0  0
   59.6290   35.3870   45.5980 C   0  0  0  0  0  0  0  0  0  0  0  0
   59.0700   34.3530   44.8390 C   0  0  0  0  0  0  0  0  0  0  0  0
   57.6840   32.2950   43.2940 C   0  0  0  0  0  0  0  0  0  0  0  0
   57.1250   31.2650   42.5330 C   0  0  0  0  0  0  0  0  0  0  0  0
   56.8250   30.0260   43.1180 C   0  0  0  0  0  0  0  0  0  0  0  0
   56.2690   28.9810   42.3060 N   0  0  0  0  0  0  0  0  0  0  0  0
   56.0550   25.6920   45.6770 C   0  0  0  0  0  0  0  0  0  0  0  0
   55.5870   24.4700   46.1910 C   0  0  0  0  0  0  0  0  0  0  0  0
   54.3500   23.8560   45.5880 C   0  0  0  0  0  0  0  0  0  0  0  0
   57.0738   21.3098   51.4083 H   0  0  0  0  0  0  0  0  0  0  0  0
   58.2572   22.2074   50.3981 H   0  0  0  0  0  0  0  0  0  0  0  0
   56.5272   22.6908   50.3981 H   0  0  0  0  0  0  0  0  0  0  0  0
   57.7249   20.0964   49.2809 H   0  0  0  0  0  0  0  0  0  0  0  0
   55.9590   20.4300   49.4189 H   0  0  0  0  0  0  0  0  0  0  0  0
   57.5577   19.7704   47.1338 H   0  0  0  0  0  0  0  0  0  0  0  0
   55.9915   20.4443   46.5487 H   0  0  0  0  0  0  0  0  0  0  0  0
   58.5076   22.0308   46.0307 H   0  0  0  0  0  0  0  0  0  0  0  0
   58.2168   20.5561   45.0471 H   0  0  0  0  0  0  0  0  0  0  0  0
   57.0113   21.8879   45.0471 H   0  0  0  0  0  0  0  0  0  0  0  0
   55.0558   22.0929   47.2661 H   0  0  0  0  0  0  0  0  0  0  0  0
   55.4407   22.7474   48.8988 H   0  0  0  0  0  0  0  0  0  0  0  0
   58.0026   23.9853   48.5842 H   0  0  0  0  0  0  0  0  0  0  0  0
   58.7925   26.1547   47.6708 H   0  0  0  0  0  0  0  0  0  0  0  0
   57.8155   30.7193   46.3257 H   0  0  0  0  0  0  0  0  0  0  0  0
   58.2083   32.2268   47.3839 H   0  0  0  0  0  0  0  0  0  0  0  0
   59.2298   34.0658   48.7238 H   0  0  0  0  0  0  0  0  0  0  0  0
   60.1335   36.0946   47.5850 H   0  0  0  0  0  0  0  0  0  0  0  0
   60.0230   36.2838   45.0976 H   0  0  0  0  0  0  0  0  0  0  0  0
   59.0367   34.4370   43.7427 H   0  0  0  0  0  0  0  0  0  0  0  0
   57.9177   33.2594   42.8193 H   0  0  0  0  0  0  0  0  0  0  0  0
   56.9182   31.4274   41.4649 H   0  0  0  0  0  0  0  0  0  0  0  0
   55.7640   29.1880   41.4150 H   0  0  0  0  0  0  0  0  0  0  0  0
   56.3620   27.9790   42.5910 H   0  0  0  0  0  0  0  0  0  0  0  0
   55.5218   26.1685   44.8411 H   0  0  0  0  0  0  0  0  0  0  0  0
   53.6773   23.5221   46.3917 H   0  0  0  0  0  0  0  0  0  0  0  0
   53.8356   24.6033   44.9661 H   0  0  0  0  0  0  0  0  0  0  0  0
   54.6342   22.9944   44.9661 H   0  0  0  0  0  0  0  0  0  0  0  0
  1  2  1  0
  2  3  1  0
  3  4  1  0
  4  5  1  0
  3  6  1  0
  6  7  1  0
  7  8  2  0
  8  9  1  0
  9 10  2  0
 10 11  1  0
 11 12  2  0
 11 13  1  0
 13 14  1  0
 14 15  2  0
 15 16  1  0
 16 17  1  0
 17 18  2  0
 18 19  1  0
 19 20  2  0
 20 21  1  0
 21 22  2  0
 16 23  2  0
 23 24  1  0
 24 25  2  0
 25 26  1  0
 10 27  1  0
 27 28  2  0
 28 29  1  0
 28  7  1  0
 25 14  1  0
 22 17  1  0
  1 30  1  0
  1 31  1  0
  1 32  1  0
  2 33  1  0
  2 34  1  0
  4 35  1  0
  4 36  1  0
  5 37  1  0
  5 38  1  0
  5 39  1  0
  6 40  1  0
  6 41  1  0
  8 42  1  0
  9 43  1  0
 15 44  1  0
 18 45  1  0
 19 46  1  0
 20 47  1  0
 21 48  1  0
 22 49  1  0
 23 50  1  0
 24 51  1  0
 26 52  1  0
 26 53  1  0
 27 54  1  0
 29 55  1  0
 29 56  1  0
 29 57  1  0
M  CHG  1  13  -1
M  END
>  <UniqueID>  (5) 
5

>  <SMILES>  (5) 
CCN(CC)Cc1ccc(C(=O)[N-]c2cc(-c3ccccc3)ccc2N)cc1C

>  <Energy>  (5) 
67.92568849790429

>  <Genealogy>  (5) 
CCN(CC)Cc1ccc(C(=O)[N-]c2cc(-c3ccccc3)ccc2N)cc1C (protonated)
CCN(CC)Cc1ccc(C(=O)[N-]c2cc(-c3ccccc3)ccc2N)cc1C (3D coordinates assigned)
CCN(CC)Cc1ccc(C(=O)[N-]c2cc(-c3ccccc3)ccc2N)cc1C (optimized conformer: 67.92568849790429 kcal/mol)

>  <smiles>  (5) 
CCN(CC)Cc1ccc(C(=O)Nc2cc(-c3ccccc3)ccc2N)cc1C

>  <score_type>  (5) 
oracle

>  <origin>  (5) 
adg

>  <m_score__min__energy>  (5) 
-10.19

>  <m_primary>  (5) 
energy

$$$$
5:0
     RDKit          3D

 74 77  0  0  0  0  0  0  0  0999 V2000
   58.9680   33.2420   51.2540 C   0  0  0  0  0  0  0  0  0  0  0  0
   58.1580   32.2500   50.4220 C   0  0  0  0  0  0  0  0  0  0  0  0
   58.3100   30.8800   50.9580 N   0  0  0  0  0  0  0  0  0  0  0  0
   57.0620   30.4520   51.6150 C   0  0  0  0  0  0  0  0  0  0  0  0
   58.6950   29.9220   49.8930 C   0  0  0  0  0  0  0  0  0  0  0  0
   60.2200   29.8490   49.7550 C   0  0  0  0  0  0  0  0  0  0  0  0
   60.8790   30.7540   50.6980 N   0  0  0  0  0  0  0  0  0  0  0  0
   62.2070   31.2320   50.4390 C   0  0  0  0  0  0  0  0  0  0  0  0
   63.2680   30.7970   51.2470 C   0  0  0  0  0  0  0  0  0  0  0  0
   64.5900   31.2170   50.9440 C   0  0  0  0  0  0  0  0  0  0  0  0
   64.8090   32.1430   49.9370 N   0  0  0  0  0  0  0  0  0  0  0  0
   66.1540   32.7310   49.7420 C   0  0  0  0  0  0  0  0  0  0  0  0
   63.7750   32.5200   49.0970 C   0  0  0  0  0  0  0  0  0  0  0  0
   63.9990   33.3310   47.9550 C   0  0  0  0  0  0  0  0  0  0  0  0
   62.9440   33.7380   47.1410 C   0  0  0  0  0  0  0  0  0  0  0  0
   61.6320   33.3520   47.4230 C   0  0  0  0  0  0  0  0  0  0  0  0
   60.5670   33.7920   46.5610 N   0  0  0  0  0  0  0  0  0  0  0  0
   59.4560   34.6310   47.0170 C   0  0  0  0  0  0  0  0  0  0  0  0
   58.1450   33.8380   47.1210 C   0  0  0  0  0  0  0  0  0  0  0  0
   57.5640   33.4380   45.7570 C   0  0  0  0  0  0  0  0  0  0  0  0
   58.5500   32.6310   44.9940 N   0  0  0  0  0  0  0  0  0  0  0  0
   58.0990   32.3280   43.6170 C   0  0  0  0  0  0  0  0  0  0  0  0
   57.1900   31.0820   43.5610 C   0  0  0  0  0  0  0  0  0  0  0  0
   56.7180   30.7340   44.8470 O   0  0  0  0  0  0  0  0  0  0  0  0
   57.8050   30.3400   45.6660 C   0  0  0  0  0  0  0  0  0  0  0  0
   58.9380   31.3930   45.6950 C   0  0  0  0  0  0  0  0  0  0  0  0
   61.3910   32.5340   48.5380 C   0  0  0  0  0  0  0  0  0  0  0  0
   62.4510   32.0920   49.3590 C   0  0  0  0  0  0  0  0  0  0  0  0
   65.7560   30.6810   51.7720 C   0  0  0  0  0  0  0  0  0  0  0  0
   65.4240   29.4190   52.5680 C   0  0  0  0  0  0  0  0  0  0  0  0
   64.1310   29.6250   53.3390 C   0  0  0  0  0  0  0  0  0  0  0  0
   62.9740   29.8040   52.3610 C   0  0  0  0  0  0  0  0  0  0  0  0
   58.8051   33.0425   52.3234 H   0  0  0  0  0  0  0  0  0  0  0  0
   60.0368   33.1309   51.0189 H   0  0  0  0  0  0  0  0  0  0  0  0
   58.6455   34.2670   51.0189 H   0  0  0  0  0  0  0  0  0  0  0  0
   57.0959   32.5347   50.4518 H   0  0  0  0  0  0  0  0  0  0  0  0
   58.5266   32.2699   49.3858 H   0  0  0  0  0  0  0  0  0  0  0  0
   57.1888   30.4955   52.7068 H   0  0  0  0  0  0  0  0  0  0  0  0
   56.2415   31.1201   51.3143 H   0  0  0  0  0  0  0  0  0  0  0  0
   56.8242   29.4210   51.3143 H   0  0  0  0  0  0  0  0  0  0  0  0
   58.3073   28.9245   50.1473 H   0  0  0  0  0  0  0  0  0  0  0  0
   58.2696   30.2649   48.9383 H   0  0  0  0  0  0  0  0  0  0  0  0
   60.5499   28.8190   49.9556 H   0  0  0  0  0  0  0  0  0  0  0  0
   60.4929   30.1506   48.7330 H   0  0  0  0  0  0  0  0  0  0  0  0
   60.4430   30.9830   51.6190 H   0  0  0  0  0  0  0  0  0  0  0  0
   66.6122   32.9313   50.7218 H   0  0  0  0  0  0  0  0  0  0  0  0
   66.7842   32.0263   49.1797 H   0  0  0  0  0  0  0  0  0  0  0  0
   66.0647   33.6722   49.1797 H   0  0  0  0  0  0  0  0  0  0  0  0
   65.0240   33.6442   47.7076 H   0  0  0  0  0  0  0  0  0  0  0  0
   63.1472   34.3715   46.2650 H   0  0  0  0  0  0  0  0  0  0  0  0
   60.5740   33.4610   45.5690 H   0  0  0  0  0  0  0  0  0  0  0  0
   59.7032   35.0410   48.0073 H   0  0  0  0  0  0  0  0  0  0  0  0
   59.3108   35.4347   46.2801 H   0  0  0  0  0  0  0  0  0  0  0  0
   58.3362   32.9227   47.7004 H   0  0  0  0  0  0  0  0  0  0  0  0
   57.4075   34.4925   47.6086 H   0  0  0  0  0  0  0  0  0  0  0  0
   56.6509   32.8444   45.9114 H   0  0  0  0  0  0  0  0  0  0  0  0
   57.3290   34.3489   45.1869 H   0  0  0  0  0  0  0  0  0  0  0  0
   57.5395   33.1922   43.2295 H   0  0  0  0  0  0  0  0  0  0  0  0
   58.9913   32.1221   43.0075 H   0  0  0  0  0  0  0  0  0  0  0  0
   56.3301   31.2945   42.9088 H   0  0  0  0  0  0  0  0  0  0  0  0
   57.7779   30.2400   43.1667 H   0  0  0  0  0  0  0  0  0  0  0  0
   57.4372   30.1894   46.6917 H   0  0  0  0  0  0  0  0  0  0  0  0
   58.2214   29.4130   45.2450 H   0  0  0  0  0  0  0  0  0  0  0  0
   59.1731   31.6349   46.7420 H   0  0  0  0  0  0  0  0  0  0  0  0
   59.8138   30.9686   45.1822 H   0  0  0  0  0  0  0  0  0  0  0  0
   60.3601   32.2327   48.7757 H   0  0  0  0  0  0  0  0  0  0  0  0
   66.5879   30.4511   51.0900 H   0  0  0  0  0  0  0  0  0  0  0  0
   66.0121   31.4612   52.5040 H   0  0  0  0  0  0  0  0  0  0  0  0
   65.3066   28.5712   51.8770 H   0  0  0  0  0  0  0  0  0  0  0  0
   66.2401   29.2091   53.2750 H   0  0  0  0  0  0  0  0  0  0  0  0
   63.9403   28.7478   53.9748 H   0  0  0  0  0  0  0  0  0  0  0  0
   64.2200   30.5234   53.9674 H   0  0  0  0  0  0  0  0  0  0  0  0
   62.7483   28.8280   51.9066 H   0  0  0  0  0  0  0  0  0  0  0  0
   62.1250   30.2040   52.9347 H   0  0  0  0  0  0  0  0  0  0  0  0
  1  2  1  0
  2  3  1  0
  3  4  1  0
  3  5  1  0
  5  6  1  0
  6  7  1  0
  7  8  1  0
  8  9  2  0
  9 10  1  0
 10 11  2  0
 11 12  1  0
 11 13  1  0
 13 14  2  0
 14 15  1  0
 15 16  2  0
 16 17  1  0
 17 18  1  0
 18 19  1  0
 19 20  1  0
 20 21  1  0
 21 22  1  0
 22 23  1  0
 23 24  1  0
 24 25  1  0
 25 26  1  0
 16 27  1  0
 27 28  2  0
 10 29  1  0
 29 30  1  0
 30 31  1  0
 31 32  1  0
 28  8  1  0
 32  9  1  0
 28 13  1  0
 26 21  1  0
  1 33  1  0
  1 34  1  0
  1 35  1  0
  2 36  1  0
  2 37  1  0
  4 38  1  0
  4 39  1  0
  4 40  1  0
  5 41  1  0
  5 42  1  0
  6 43  1  0
  6 44  1  0
  7 45  1  0
 12 46  1  0
 12 47  1  0
 12 48  1  0
 14 49  1  0
 15 50  1  0
 17 51  1  0
 18 52  1  0
 18 53  1  0
 19 54  1  0
 19 55  1  0
 20 56  1  0
 20 57  1  0
 22 58  1  0
 22 59  1  0
 23 60  1  0
 23 61  1  0
 25 62  1  0
 25 63  1  0
 26 64  1  0
 26 65  1  0
 27 66  1  0
 29 67  1  0
 29 68  1  0
 30 69  1  0
 30 70  1  0
 31 71  1  0
 31 72  1  0
 32 73  1  0
 32 74  1  0
M  CHG  1  11   1
M  END
>  <UniqueID>  (6) 
6

>  <SMILES>  (6) 
CCN(C)CCNc1c2c([n+](C)c3ccc(NCCCN4CCOCC4)cc13)CCCC2

>  <Energy>  (6) 
101.15981324205984

>  <Genealogy>  (6) 
CCN(C)CCNc1c2c([n+](C)c3ccc(NCCCN4CCOCC4)cc13)CCCC2 (3D coordinates assigned)
CCN(C)CCNc1c2c([n+](C)c3ccc(NCCCN4CCOCC4)cc13)CCCC2 (nonaromatic ring conformer: 101.15981324205984 kcal/mol)

>  <smiles>  (6) 
CCN(C)CCNc1c2c([n+](C)c3ccc(NCCCN4CCOCC4)cc13)CCCC2

>  <score_type>  (6) 
oracle

>  <origin>  (6) 
adg

>  <m_score__min__energy>  (6) 
-7.6500000000000004

>  <m_primary>  (6) 
energy

$$$$
6:0
     RDKit          3D

 68 70  0  0  0  0  0  0  0  0999 V2000
   58.7628   29.1701   52.7772 H   0  0  0  0  0  0  0  0  0  0  0  0
   58.8100   29.4940   51.7270 C   0  0  0  0  0  0  0  0  0  0  0  0
   57.7800   30.0980   51.2310 N   0  0  0  0  0  0  0  0  0  0  0  0
   56.8280   30.8810   51.9860 C   0  0  0  0  0  0  0  0  0  0  0  0
   57.0049   30.7355   53.0619 H   0  0  0  0  0  0  0  0  0  0  0  0
   56.9479   31.9453   51.7353 H   0  0  0  0  0  0  0  0  0  0  0  0
   55.8068   30.5580   51.7353 H   0  0  0  0  0  0  0  0  0  0  0  0
   60.0790   29.2050   50.9490 C   0  0  0  0  0  0  0  0  0  0  0  0
   60.1017   28.1351   50.6943 H   0  0  0  0  0  0  0  0  0  0  0  0
   60.9333   29.4856   51.5827 H   0  0  0  0  0  0  0  0  0  0  0  0
   60.1640   29.9920   49.7020 N   0  0  0  0  0  0  0  0  0  0  0  0
   61.0400   30.5640   49.7250 H   0  0  0  0  0  0  0  0  0  0  0  0
   59.3330   30.6130   49.7420 H   0  0  0  0  0  0  0  0  0  0  0  0
   60.1360   29.2240   48.4620 C   0  0  0  0  0  0  0  0  0  0  0  0
   60.7570   27.9590   48.4160 C   0  0  0  0  0  0  0  0  0  0  0  0
   61.3916   27.6377   49.2551 H   0  0  0  0  0  0  0  0  0  0  0  0
   60.5820   27.1140   47.3330 C   0  0  0  0  0  0  0  0  0  0  0  0
   61.0698   26.1282   47.3228 H   0  0  0  0  0  0  0  0  0  0  0  0
   59.7960   27.5050   46.2640 C   0  0  0  0  0  0  0  0  0  0  0  0
   59.5908   26.7899   45.4538 H   0  0  0  0  0  0  0  0  0  0  0  0
   59.2520   28.8080   46.1950 C   0  0  0  0  0  0  0  0  0  0  0  0
   59.5310   29.7310   47.2510 C   0  0  0  0  0  0  0  0  0  0  0  0
   59.2310   31.1090   47.0140 C   0  0  0  0  0  0  0  0  0  0  0  0
   59.5630   32.1270   47.9720 N   0  0  0  0  0  0  0  0  0  0  0  0
   60.5710   32.3150   48.1590 H   0  0  0  0  0  0  0  0  0  0  0  0
   58.5200   32.7970   48.7610 C   0  0  0  0  0  0  0  0  0  0  0  0
   57.6012   32.1928   48.7332 H   0  0  0  0  0  0  0  0  0  0  0  0
   58.3335   33.7921   48.3308 H   0  0  0  0  0  0  0  0  0  0  0  0
   58.9680   32.9630   50.2110 C   0  0  0  0  0  0  0  0  0  0  0  0
   58.3069   32.3812   50.8701 H   0  0  0  0  0  0  0  0  0  0  0  0
   58.9188   34.0243   50.4958 H   0  0  0  0  0  0  0  0  0  0  0  0
   60.2940   32.4960   50.3390 O   0  0  0  0  0  0  0  0  0  0  0  0
   61.1950   33.5790   50.3630 C   0  0  0  0  0  0  0  0  0  0  0  0
   61.6735   33.6361   51.3518 H   0  0  0  0  0  0  0  0  0  0  0  0
   60.6501   34.5138   50.1649 H   0  0  0  0  0  0  0  0  0  0  0  0
   62.2730   33.3740   49.2820 C   0  0  0  0  0  0  0  0  0  0  0  0
   63.2141   33.8109   49.6473 H   0  0  0  0  0  0  0  0  0  0  0  0
   61.8996   33.8620   48.3696 H   0  0  0  0  0  0  0  0  0  0  0  0
   62.5260   31.9540   48.9300 N   0  0  0  0  0  0  0  0  0  0  0  0
   63.4420   31.2410   49.8510 C   0  0  0  0  0  0  0  0  0  0  0  0
   63.7033   30.2677   49.4101 H   0  0  0  0  0  0  0  0  0  0  0  0
   62.9265   31.1139   50.8144 H   0  0  0  0  0  0  0  0  0  0  0  0
   64.7260   32.0310   50.1010 C   0  0  0  0  0  0  0  0  0  0  0  0
   64.8896   32.1316   51.1841 H   0  0  0  0  0  0  0  0  0  0  0  0
   65.5770   31.5001   49.6494 H   0  0  0  0  0  0  0  0  0  0  0  0
   64.6357   33.0300   49.6494 H   0  0  0  0  0  0  0  0  0  0  0  0
   62.9320   31.7820   47.5160 C   0  0  0  0  0  0  0  0  0  0  0  0
   63.7704   31.0721   47.4593 H   0  0  0  0  0  0  0  0  0  0  0  0
   62.0818   31.3938   46.9359 H   0  0  0  0  0  0  0  0  0  0  0  0
   63.3660   33.1280   46.9420 C   0  0  0  0  0  0  0  0  0  0  0  0
   63.5900   33.8226   47.7651 H   0  0  0  0  0  0  0  0  0  0  0  0
   64.2652   32.9901   46.3236 H   0  0  0  0  0  0  0  0  0  0  0  0
   62.5556   33.5414   46.3236 H   0  0  0  0  0  0  0  0  0  0  0  0
   58.7510   31.5100   45.7470 C   0  0  0  0  0  0  0  0  0  0  0  0
   58.6840   32.8780   45.3910 C   0  0  0  0  0  0  0  0  0  0  0  0
   59.0301   33.6412   46.1036 H   0  0  0  0  0  0  0  0  0  0  0  0
   58.1860   33.2720   44.1510 C   0  0  0  0  0  0  0  0  0  0  0  0
   58.1152   34.3410   43.9015 H   0  0  0  0  0  0  0  0  0  0  0  0
   57.7790   32.3160   43.2300 C   0  0  0  0  0  0  0  0  0  0  0  0
   57.3766   32.6294   42.2554 H   0  0  0  0  0  0  0  0  0  0  0  0
   57.8790   30.9620   43.5370 C   0  0  0  0  0  0  0  0  0  0  0  0
   57.5790   30.2141   42.7883 H   0  0  0  0  0  0  0  0  0  0  0  0
   58.3620   30.5300   44.8010 C   0  0  0  0  0  0  0  0  0  0  0  0
   58.5040   29.1950   45.1020 N   0  0  0  0  0  0  0  0  0  0  0  0
   57.8570   28.1700   44.2520 C   0  0  0  0  0  0  0  0  0  0  0  0
   57.3789   27.4126   44.8906 H   0  0  0  0  0  0  0  0  0  0  0  0
   57.0962   28.6473   43.6169 H   0  0  0  0  0  0  0  0  0  0  0  0
   58.6152   27.6885   43.6169 H   0  0  0  0  0  0  0  0  0  0  0  0
  1  2  1  0
  2  3  2  0
  3  4  1  0
  4  5  1  0
  4  6  1  0
  4  7  1  0
  2  8  1  0
  8  9  1  0
  8 10  1  0
  8 11  1  0
 11 12  1  0
 11 13  1  0
 11 14  1  0
 14 15  2  0
 15 16  1  0
 15 17  1  0
 17 18  1  0
 17 19  2  0
 19 20  1  0
 19 21  1  0
 21 22  2  0
 22 23  1  0
 23 24  1  0
 24 25  1  0
 24 26  1  0
 26 27  1  0
 26 28  1  0
 26 29  1  0
 29 30  1  0
 29 31  1  0
 29 32  1  0
 32 33  1  0
 33 34  1  0
 33 35  1  0
 33 36  1  0
 36 37  1  0
 36 38  1  0
 36 39  1  0
 39 40  1  0
 40 41  1  0
 40 42  1  0
 40 43  1  0
 43 44  1  0
 43 45  1  0
 43 46  1  0
 39 47  1  0
 47 48  1  0
 47 49  1  0
 47 50  1  0
 50 51  1  0
 50 52  1  0
 50 53  1  0
 23 54  2  0
 54 55  1  0
 55 56  1  0
 55 57  2  0
 57 58  1  0
 57 59  1  0
 59 60  1  0
 59 61  2  0
 61 62  1  0
 61 63  1  0
 63 64  2  0
 64 65  1  0
 65 66  1  0
 65 67  1  0
 65 68  1  0
 22 14  1  0
 63 54  1  0
 64 21  1  0
M  CHG  2  11   1  64   1
M  END
>  <UniqueID>  (7) 
7

>  <SMILES>  (7) 
CCN(CC)CCOCCNc1c2ccccc2[n+](C)c2cccc([NH2+]C/C=N\C)c12

>  <Energy>  (7) 
111.30843436319631

>  <Genealogy>  (7) 
CCN(CC)CCOCCNc1c2ccccc2[n+](C)c2cccc([NH2+]CC=NC)c12 (protonated)
CCN(CC)CCOCCNc1c2ccccc2[n+](C)c2cccc([NH2+]C/C=N\C)c12 (cis-trans isomerization)
CCN(CC)CCOCCNc1c2ccccc2[n+](C)c2cccc([NH2+]C/C=N\C)c12 (3D coordinates assigned)
CCN(CC)CCOCCNc1c2ccccc2[n+](C)c2cccc([NH2+]C/C=N\C)c12 (optimized conformer: 111.30843436319631 kcal/mol)

>  <smiles>  (7) 
CCN(CC)CCOCCNc1c2ccccc2[n+](C)c2cccc(NCC=NC)c12

>  <score_type>  (7) 
oracle

>  <origin>  (7) 
adg

>  <m_score__min__energy>  (7) 
-2.96

>  <m_primary>  (7) 
energy

$$$$
7:0
     RDKit          3D

 45 45  0  0  0  0  0  0  0  0999 V2000
   59.1850   34.5720   45.3190 C   0  0  0  0  0  0  0  0  0  0  0  0
   59.1840   34.2120   46.8130 C   0  0  0  0  0  0  0  0  0  0  0  0
   60.5020   33.7740   47.3290 N   0  0  0  0  0  0  0  0  0  0  0  0
   60.7870   34.2650   48.6930 C   0  0  0  0  0  0  0  0  0  0  0  0
   59.6860   33.8340   49.6590 C   0  0  0  0  0  0  0  0  0  0  0  0
   61.6070   34.0150   46.3710 C   0  0  0  0  0  0  0  0  0  0  0  0
   62.9520   33.7970   47.0620 C   0  0  0  0  0  0  0  0  0  0  0  0
   63.2760   32.4190   47.0600 O   0  0  0  0  0  0  0  0  0  0  0  0
   63.4850   31.9510   48.3760 C   0  0  0  0  0  0  0  0  0  0  0  0
   62.2010   31.3030   48.9010 C   0  0  0  0  0  0  0  0  0  0  0  0
   61.1410   31.3140   47.8810 N   0  0  0  0  0  0  0  0  0  0  0  0
   60.7690   29.9410   47.5070 C   0  0  0  0  0  0  0  0  0  0  0  0
   59.6640   29.9550   46.4810 C   0  0  0  0  0  0  0  0  0  0  0  0
   59.5580   28.9160   45.5430 C   0  0  0  0  0  0  0  0  0  0  0  0
   58.5570   28.9490   44.5660 C   0  0  0  0  0  0  0  0  0  0  0  0
   57.6620   30.0220   44.5140 C   0  0  0  0  0  0  0  0  0  0  0  0
   56.2980   30.0650   43.1790 Br  0  0  0  0  0  0  0  0  0  0  0  0
   57.7720   31.0670   45.4370 C   0  0  0  0  0  0  0  0  0  0  0  0
   58.7730   31.0380   46.4140 C   0  0  0  0  0  0  0  0  0  0  0  0
   59.1881   35.6661   45.2055 H   0  0  0  0  0  0  0  0  0  0  0  0
   60.0820   34.1513   44.8411 H   0  0  0  0  0  0  0  0  0  0  0  0
   58.2857   34.1563   44.8411 H   0  0  0  0  0  0  0  0  0  0  0  0
   58.8671   35.0985   47.3820 H   0  0  0  0  0  0  0  0  0  0  0  0
   58.4965   33.3620   46.9347 H   0  0  0  0  0  0  0  0  0  0  0  0
   61.7483   33.8520   49.0326 H   0  0  0  0  0  0  0  0  0  0  0  0
   60.8315   35.3639   48.6728 H   0  0  0  0  0  0  0  0  0  0  0  0
   60.0326   33.9697   50.6941 H   0  0  0  0  0  0  0  0  0  0  0  0
   58.7887   34.4472   49.4894 H   0  0  0  0  0  0  0  0  0  0  0  0
   59.4435   32.7746   49.4894 H   0  0  0  0  0  0  0  0  0  0  0  0
   61.5146   33.3181   45.5249 H   0  0  0  0  0  0  0  0  0  0  0  0
   61.5509   35.0516   46.0072 H   0  0  0  0  0  0  0  0  0  0  0  0
   63.7327   34.3562   46.5255 H   0  0  0  0  0  0  0  0  0  0  0  0
   62.8877   34.1528   48.1009 H   0  0  0  0  0  0  0  0  0  0  0  0
   64.2963   31.2081   48.3758 H   0  0  0  0  0  0  0  0  0  0  0  0
   63.7593   32.7959   49.0248 H   0  0  0  0  0  0  0  0  0  0  0  0
   62.4150   30.2618   49.1842 H   0  0  0  0  0  0  0  0  0  0  0  0
   61.8519   31.8790   49.7707 H   0  0  0  0  0  0  0  0  0  0  0  0
   61.4830   31.8190   47.0290 H   0  0  0  0  0  0  0  0  0  0  0  0
   60.2980   31.8060   48.2620 H   0  0  0  0  0  0  0  0  0  0  0  0
   61.6474   29.4297   47.0863 H   0  0  0  0  0  0  0  0  0  0  0  0
   60.4156   29.4110   48.4038 H   0  0  0  0  0  0  0  0  0  0  0  0
   60.2641   28.0732   45.5762 H   0  0  0  0  0  0  0  0  0  0  0  0
   58.4740   28.1292   43.8373 H   0  0  0  0  0  0  0  0  0  0  0  0
   57.0703   31.9131   45.3947 H   0  0  0  0  0  0  0  0  0  0  0  0
   58.8623   31.8665   47.1321 H   0  0  0  0  0  0  0  0  0  0  0  0
  1  2  1  0
  2  3  1  0
  3  4  1  0
  4  5  1  0
  3  6  1  0
  6  7  1  0
  7  8  1  0
  8  9  1  0
  9 10  1  0
 10 11  1  0
 11 12  1  0
 12 13  1  0
 13 14  2  0
 14 15  1  0
 15 16  2  0
 16 17  1  0
 16 18  1  0
 18 19  2  0
 19 13  1  0
  1 20  1  0
  1 21  1  0
  1 22  1  0
  2 23  1  0
  2 24  1  0
  4 25  1  0
  4 26  1  0
  5 27  1  0
  5 28  1  0
  5 29  1  0
  6 30  1  0
  6 31  1  0
  7 32  1  0
  7 33  1  0
  9 34  1  0
  9 35  1  0
 10 36  1  0
 10 37  1  0
 11 38  1  0
 11 39  1  0
 12 40  1  0
 12 41  1  0
 14 42  1  0
 15 43  1  0
 18 44  1  0
 19 45  1  0
M  CHG  1  11   1
M  END
>  <UniqueID>  (8) 
8

>  <SMILES>  (8) 
CCN(CC)CCOCC[NH2+]Cc1ccc(Br)cc1

>  <Energy>  (8) 
39.829155420112045

>  <Genealogy>  (8) 
CCN(CC)CCOCC[NH2+]Cc1ccc(Br)cc1 (protonated)
CCN(CC)CCOCC[NH2+]Cc1ccc(Br)cc1 (3D coordinates assigned)
CCN(CC)CCOCC[NH2+]Cc1ccc(Br)cc1 (optimized conformer: 39.829155420112045 kcal/mol)

>  <smiles>  (8) 
CCN(CC)CCOCCNCc1ccc(Br)cc1

>  <score_type>  (8) 
oracle

>  <origin>  (8) 
adg

>  <m_score__min__energy>  (8) 
-4.1799999999999997

>  <m_primary>  (8) 
energy

$$$$
8:0
     RDKit          3D

 48 49  0  0  0  0  0  0  0  0999 V2000
   55.3300   30.0350   53.8090 C   0  0  0  0  0  0  0  0  0  0  0  0
   55.7060   30.0980   52.3590 C   0  0  0  0  0  0  0  0  0  0  0  0
   54.8640   30.5410   51.5340 O   0  0  0  0  0  0  0  0  0  0  0  0
   57.0050   29.7200   51.8850 N   0  0  0  0  0  0  0  0  0  0  0  0
   57.9840   30.5470   51.2360 C   0  0  0  0  0  0  0  0  0  0  0  0
   58.0480   31.9350   51.4480 C   0  0  0  0  0  0  0  0  0  0  0  0
   59.0480   32.6970   50.8350 C   0  0  0  0  0  0  0  0  0  0  0  0
   60.0210   32.0810   50.0310 C   0  0  0  0  0  0  0  0  0  0  0  0
   61.1340   32.9000   49.4180 C   0  0  0  0  0  0  0  0  0  0  0  0
   61.1050   32.8610   47.8900 C   0  0  0  0  0  0  0  0  0  0  0  0
   60.3120   33.9250   47.3980 O   0  0  0  0  0  0  0  0  0  0  0  0
   58.9390   33.6440   47.5920 C   0  0  0  0  0  0  0  0  0  0  0  0
   58.4760   32.5530   46.6530 C   0  0  0  0  0  0  0  0  0  0  0  0
   57.9920   32.8000   45.4090 C   0  0  0  0  0  0  0  0  0  0  0  0
   57.9030   34.1840   44.8660 C   0  0  0  0  0  0  0  0  0  0  0  0
   58.9360   34.8140   44.5200 O   0  0  0  0  0  0  0  0  0  0  0  0
   56.6600   34.7800   44.6910 O   0  0  0  0  0  0  0  0  0  0  0  0
   57.3090   31.6670   44.6520 C   0  0  1  0  0  0  0  0  0  0  0  0
   57.4080   31.8630   43.1900 C   0  0  0  0  0  0  0  0  0  0  0  0
   57.4840   32.0170   42.0460 N   0  0  0  0  0  0  0  0  0  0  0  0
   57.8850   30.2720   45.0140 C   0  0  2  0  0  0  0  0  0  0  0  0
   56.9470   29.1870   44.5400 C   0  0  0  0  0  0  0  0  0  0  0  0
   55.5610   29.2540   44.8660 N   0  0  0  0  0  0  0  0  0  0  0  0
   57.3830   28.2210   43.8570 O   0  0  0  0  0  0  0  0  0  0  0  0
   58.1620   30.1570   46.5000 C   0  0  0  0  0  0  0  0  0  0  0  0
   58.2930   28.8260   47.1840 C   0  0  0  0  0  0  0  0  0  0  0  0
   58.4620   31.2190   47.1840 N   0  0  0  0  0  0  0  0  0  0  0  0
   59.9730   30.6900   49.8460 C   0  0  0  0  0  0  0  0  0  0  0  0
   58.9610   29.9320   50.4440 C   0  0  0  0  0  0  0  0  0  0  0  0
   56.2273   30.1853   54.4273 H   0  0  0  0  0  0  0  0  0  0  0  0
   54.5950   30.8225   54.0318 H   0  0  0  0  0  0  0  0  0  0  0  0
   54.8919   29.0509   54.0318 H   0  0  0  0  0  0  0  0  0  0  0  0
   57.3084   32.4242   52.0989 H   0  0  0  0  0  0  0  0  0  0  0  0
   59.0726   33.7866   50.9837 H   0  0  0  0  0  0  0  0  0  0  0  0
   61.0286   33.9441   49.7478 H   0  0  0  0  0  0  0  0  0  0  0  0
   62.0911   32.4705   49.7488 H   0  0  0  0  0  0  0  0  0  0  0  0
   62.1298   32.9600   47.5027 H   0  0  0  0  0  0  0  0  0  0  0  0
   60.6745   31.9043   47.5593 H   0  0  0  0  0  0  0  0  0  0  0  0
   58.7811   33.3171   48.6304 H   0  0  0  0  0  0  0  0  0  0  0  0
   58.3599   34.5561   47.3853 H   0  0  0  0  0  0  0  0  0  0  0  0
   56.2535   31.6943   44.9605 H   0  0  0  0  0  0  0  0  0  0  0  0
   58.8486   30.1474   44.4983 H   0  0  0  0  0  0  0  0  0  0  0  0
   55.1590   28.6580   45.6240 H   0  0  0  0  0  0  0  0  0  0  0  0
   58.2787   28.9711   48.2743 H   0  0  0  0  0  0  0  0  0  0  0  0
   57.4543   28.1782   46.8893 H   0  0  0  0  0  0  0  0  0  0  0  0
   59.2419   28.3541   46.8893 H   0  0  0  0  0  0  0  0  0  0  0  0
   60.7353   30.1937   49.2275 H   0  0  0  0  0  0  0  0  0  0  0  0
   58.9325   28.8431   50.2907 H   0  0  0  0  0  0  0  0  0  0  0  0
  1  2  1  0
  2  3  2  0
  2  4  1  0
  4  5  1  0
  5  6  2  0
  6  7  1  0
  7  8  2  0
  8  9  1  0
  9 10  1  0
 10 11  1  0
 11 12  1  0
 12 13  1  0
 13 14  2  0
 14 15  1  0
 15 16  2  0
 15 17  1  0
 14 18  1  0
 18 19  1  0
 19 20  3  0
 18 21  1  0
 21 22  1  0
 22 23  1  0
 22 24  2  0
 21 25  1  0
 25 26  1  0
 25 27  2  0
  8 28  1  0
 28 29  2  0
 29  5  1  0
 27 13  1  0
  1 30  1  0
  1 31  1  0
  1 32  1  0
  6 33  1  0
  7 34  1  0
  9 35  1  0
  9 36  1  0
 10 37  1  0
 10 38  1  0
 12 39  1  0
 12 40  1  0
 18 41  1  1
 21 42  1  6
 23 43  1  0
 26 44  1  0
 26 45  1  0
 26 46  1  0
 28 47  1  0
 29 48  1  0
M  CHG  3   4  -1  17  -1  23  -1
M  END
>  <UniqueID>  (9) 
9

>  <SMILES>  (9) 
CC(=O)[N-]c1ccc(CCOCC2=C(C(=O)[O-])[C@@H](C#N)[C@H](C([NH-])=O)C(C)=N2)cc1

>  <Energy>  (9) 
54.53024522870553

>  <Genealogy>  (9) 
CC(=O)[N-]c1ccc(CCOCC2=C(C(=O)[O-])C(C#N)C(C([NH-])=O)C(C)=N2)cc1 (protonated)
CC(=O)[N-]c1ccc(CCOCC2=C(C(=O)[O-])[C@@H](C#N)[C@H](C([NH-])=O)C(C)=N2)cc1 (chirality)
CC(=O)[N-]c1ccc(CCOCC2=C(C(=O)[O-])[C@@H](C#N)[C@H](C([NH-])=O)C(C)=N2)cc1 (3D coordinates assigned)
CC(=O)[N-]c1ccc(CCOCC2=C(C(=O)[O-])[C@@H](C#N)[C@H](C([NH-])=O)C(C)=N2)cc1 (nonaromatic ring conformer: 54.53024522870553 kcal/mol)

>  <smiles>  (9) 
CC(=O)Nc1ccc(CCOCC2=C(C(=O)[O-])C(C#N)C(C(N)=O)C(C)=N2)cc1

>  <score_type>  (9) 
oracle

>  <origin>  (9) 
adg

>  <m_score__min__energy>  (9) 
-12.33

>  <m_primary>  (9) 
energy

$$$$
9:0
     RDKit          3D

 41 43  0  0  0  0  0  0  0  0999 V2000
   57.3060   27.6740   45.7850 C   0  0  0  0  0  0  0  0  0  0  0  0
   57.0040   28.9310   45.1160 N   0  0  0  0  0  0  0  0  0  0  0  0
   57.8970   29.8820   44.7880 C   0  0  0  0  0  0  0  0  0  0  0  0
   57.2030   30.9360   44.2330 C   0  0  0  0  0  0  0  0  0  0  0  0
   57.7740   32.2000   43.6650 C   0  0  0  0  0  0  0  0  0  0  0  0
   57.7600   33.2850   44.6700 N   0  0  0  0  0  0  0  0  0  0  0  0
   57.6170   32.7440   46.0480 C   0  0  0  0  0  0  0  0  0  0  0  0
   58.9660   32.5950   46.7660 C   0  0  0  0  0  0  0  0  0  0  0  0
   59.6920   33.9550   46.9020 C   0  0  0  0  0  0  0  0  0  0  0  0
   61.1080   33.7650   46.8230 O   0  0  0  0  0  0  0  0  0  0  0  0
   62.0130   33.6780   47.8970 C   0  0  0  0  0  0  0  0  0  0  0  0
   63.3000   33.2060   47.6120 C   0  0  0  0  0  0  0  0  0  0  0  0
   64.2570   33.0790   48.6230 C   0  0  0  0  0  0  0  0  0  0  0  0
   63.9380   33.4330   49.9330 C   0  0  0  0  0  0  0  0  0  0  0  0
   62.6640   33.9190   50.2340 C   0  0  0  0  0  0  0  0  0  0  0  0
   61.7000   34.0500   49.2280 C   0  0  0  0  0  0  0  0  0  0  0  0
   60.4940   34.5660   49.5670 F   0  0  0  0  0  0  0  0  0  0  0  0
   59.2670   34.9410   45.7940 C   0  0  0  0  0  0  0  0  0  0  0  0
   58.9240   34.1960   44.4990 C   0  0  0  0  0  0  0  0  0  0  0  0
   55.8750   30.5540   44.2540 C   0  0  0  0  0  0  0  0  0  0  0  0
   55.7780   29.3290   44.8080 N   0  0  0  0  0  0  0  0  0  0  0  0
   57.2707   27.8208   46.8746 H   0  0  0  0  0  0  0  0  0  0  0  0
   56.5645   26.9158   45.4930 H   0  0  0  0  0  0  0  0  0  0  0  0
   58.3110   27.3354   45.4930 H   0  0  0  0  0  0  0  0  0  0  0  0
   58.9857   29.8283   44.9360 H   0  0  0  0  0  0  0  0  0  0  0  0
   58.8113   32.0160   43.3484 H   0  0  0  0  0  0  0  0  0  0  0  0
   57.1588   32.5085   42.8069 H   0  0  0  0  0  0  0  0  0  0  0  0
   56.9812   33.4270   46.6305 H   0  0  0  0  0  0  0  0  0  0  0  0
   57.1693   31.7424   45.9682 H   0  0  0  0  0  0  0  0  0  0  0  0
   58.7921   32.1811   47.7702 H   0  0  0  0  0  0  0  0  0  0  0  0
   59.6012   31.9239   46.1692 H   0  0  0  0  0  0  0  0  0  0  0  0
   59.4141   34.3775   47.8789 H   0  0  0  0  0  0  0  0  0  0  0  0
   63.5614   32.9316   46.5793 H   0  0  0  0  0  0  0  0  0  0  0  0
   65.2617   32.6997   48.3848 H   0  0  0  0  0  0  0  0  0  0  0  0
   64.6897   33.3295   50.7294 H   0  0  0  0  0  0  0  0  0  0  0  0
   62.4166   34.2006   51.2682 H   0  0  0  0  0  0  0  0  0  0  0  0
   58.3831   35.5022   46.1313 H   0  0  0  0  0  0  0  0  0  0  0  0
   60.1042   35.6257   45.5936 H   0  0  0  0  0  0  0  0  0  0  0  0
   58.6860   34.9331   43.7179 H   0  0  0  0  0  0  0  0  0  0  0  0
   59.7946   33.5849   44.2185 H   0  0  0  0  0  0  0  0  0  0  0  0
   55.0324   31.1534   43.8788 H   0  0  0  0  0  0  0  0  0  0  0  0
  1  2  1  0
  2  3  1  0
  3  4  2  0
  4  5  1  0
  5  6  1  0
  6  7  1  0
  7  8  1  0
  8  9  1  0
  9 10  1  0
 10 11  1  0
 11 12  2  0
 12 13  1  0
 13 14  2  0
 14 15  1  0
 15 16  2  0
 16 17  1  0
  9 18  1  0
 18 19  1  0
  4 20  1  0
 20 21  2  0
 21  2  1  0
 19  6  1  0
 16 11  1  0
  1 22  1  0
  1 23  1  0
  1 24  1  0
  3 25  1  0
  5 26  1  0
  5 27  1  0
  7 28  1  0
  7 29  1  0
  8 30  1  0
  8 31  1  0
  9 32  1  0
 12 33  1  0
 13 34  1  0
 14 35  1  0
 15 36  1  0
 18 37  1  0
 18 38  1  0
 19 39  1  0
 19 40  1  0
 20 41  1  0
M  END
>  <UniqueID>  (10) 
10

>  <SMILES>  (10) 
Cn1cc(CN2CCC(Oc3ccccc3F)CC2)cn1

>  <Energy>  (10) 
81.63869243098024

>  <Genealogy>  (10) 
Cn1cc(CN2CCC(Oc3ccccc3F)CC2)cn1 (3D coordinates assigned)
Cn1cc(CN2CCC(Oc3ccccc3F)CC2)cn1 (nonaromatic ring conformer: 81.63869243098024 kcal/mol)

>  <smiles>  (10) 
Cn1cc(CN2CCC(Oc3ccccc3F)CC2)cn1

>  <score_type>  (10) 
oracle

>  <origin>  (10) 
adg

>  <m_score__min__energy>  (10) 
-7.2400000000000002

>  <m_primary>  (10) 
energy

$$$$
10:0
     RDKit          3D

 28 29  0  0  0  0  0  0  0  0999 V2000
   58.5210   32.1580   49.3530 Cl  0  0  0  0  0  0  0  0  0  0  0  0
   58.8870   33.1440   47.9400 C   0  0  0  0  0  0  0  0  0  0  0  0
   57.8210   33.4680   47.0900 C   0  0  0  0  0  0  0  0  0  0  0  0
   58.0380   34.2150   45.9330 C   0  0  0  0  0  0  0  0  0  0  0  0
   59.3250   34.6380   45.6090 C   0  0  0  0  0  0  0  0  0  0  0  0
   60.3980   34.3250   46.4460 C   0  0  0  0  0  0  0  0  0  0  0  0
   60.2000   33.5920   47.6360 C   0  0  0  0  0  0  0  0  0  0  0  0
   61.3920   33.2270   48.5210 C   0  0  0  0  0  0  0  0  0  0  0  0
   61.7950   31.7490   48.3280 C   0  0  0  0  0  0  0  0  0  0  0  0
   62.7360   31.5310   47.1280 C   0  0  0  0  0  0  0  0  0  0  0  0
   63.8110   32.5430   46.9980 N   0  0  0  0  0  0  0  0  0  0  0  0
   63.9170   33.4670   48.1370 C   0  0  0  0  0  0  0  0  0  0  0  0
   62.5920   34.2040   48.3680 C   0  0  0  0  0  0  0  0  0  0  0  0
   56.8040   33.1299   47.3379 H   0  0  0  0  0  0  0  0  0  0  0  0
   57.1932   34.4702   45.2763 H   0  0  0  0  0  0  0  0  0  0  0  0
   59.4965   35.2201   44.6915 H   0  0  0  0  0  0  0  0  0  0  0  0
   61.4118   34.6543   46.1742 H   0  0  0  0  0  0  0  0  0  0  0  0
   61.0630   33.3442   49.5641 H   0  0  0  0  0  0  0  0  0  0  0  0
   62.3043   31.4031   49.2396 H   0  0  0  0  0  0  0  0  0  0  0  0
   60.8740   31.1811   48.1300 H   0  0  0  0  0  0  0  0  0  0  0  0
   63.2061   30.5423   47.2352 H   0  0  0  0  0  0  0  0  0  0  0  0
   62.1151   31.6164   46.2240 H   0  0  0  0  0  0  0  0  0  0  0  0
   63.6620   33.1030   46.1260 H   0  0  0  0  0  0  0  0  0  0  0  0
   64.7310   32.0530   46.8910 H   0  0  0  0  0  0  0  0  0  0  0  0
   64.1741   32.8961   49.0414 H   0  0  0  0  0  0  0  0  0  0  0  0
   64.6985   34.2091   47.9164 H   0  0  0  0  0  0  0  0  0  0  0  0
   62.6772   34.8059   49.2848 H   0  0  0  0  0  0  0  0  0  0  0  0
   62.4010   34.8364   47.4885 H   0  0  0  0  0  0  0  0  0  0  0  0
  1  2  1  0
  2  3  2  0
  3  4  1  0
  4  5  2  0
  5  6  1  0
  6  7  2  0
  7  8  1  0
  8  9  1  0
  9 10  1  0
 10 11  1  0
 11 12  1  0
 12 13  1  0
  7  2  1  0
 13  8  1  0
  3 14  1  0
  4 15  1  0
  5 16  1  0
  6 17  1  0
  8 18  1  0
  9 19  1  0
  9 20  1  0
 10 21  1  0
 10 22  1  0
 11 23  1  0
 11 24  1  0
 12 25  1  0
 12 26  1  0
 13 27  1  0
 13 28  1  0
M  CHG  1  11   1
M  END
>  <UniqueID>  (11) 
11

>  <SMILES>  (11) 
Clc1ccccc1C1CC[NH2+]CC1

>  <Energy>  (11) 
38.45229458622739

>  <Genealogy>  (11) 
Clc1ccccc1C1CC[NH2+]CC1 (protonated)
Clc1ccccc1C1CC[NH2+]CC1 (3D coordinates assigned)
Clc1ccccc1C1CC[NH2+]CC1 (nonaromatic ring conformer: 38.45229458622739 kcal/mol)

>  <smiles>  (11) 
Clc1ccccc1C1CCNCC1

>  <score_type>  (11) 
oracle

>  <origin>  (11) 
adg

>  <m_score__min__energy>  (11) 
-4.5199999999999996

>  <m_primary>  (11) 
energy

$$$$
11:0
     RDKit          3D

 55 57  0  0  0  0  0  0  0  0999 V2000
   63.6280   32.7520   47.0860 C   0  0  0  0  0  0  0  0  0  0  0  0
   62.5380   33.8160   46.9570 C   0  0  0  0  0  0  0  0  0  0  0  0
   61.2490   33.3210   47.4760 N   0  0  0  0  0  0  0  0  0  0  0  0
   60.1300   33.4900   46.5590 C   0  0  0  0  0  0  0  0  0  0  0  0
   59.7910   34.7740   46.0850 C   0  0  0  0  0  0  0  0  0  0  0  0
   58.8520   34.9390   45.0790 C   0  0  0  0  0  0  0  0  0  0  0  0
   58.2510   33.8320   44.4970 C   0  0  0  0  0  0  0  0  0  0  0  0
   58.5090   32.5260   44.9720 C   0  0  0  0  0  0  0  0  0  0  0  0
   59.3370   32.3750   46.1210 C   0  0  0  0  0  0  0  0  0  0  0  0
   59.3100   31.1310   46.8000 C   0  0  0  0  0  0  0  0  0  0  0  0
   59.8260   31.0060   48.1330 N   0  0  0  0  0  0  0  0  0  0  0  0
   61.0460   30.2360   48.3790 C   0  0  0  0  0  0  0  0  0  0  0  0
   61.8610   30.8340   49.5300 C   0  0  0  0  0  0  0  0  0  0  0  0
   61.3910   32.2120   49.8240 N   0  0  0  0  0  0  0  0  0  0  0  0
   62.5120   33.0710   50.2450 C   0  0  0  0  0  0  0  0  0  0  0  0
   60.3260   32.2390   50.8490 C   0  0  0  0  0  0  0  0  0  0  0  0
   59.4310   33.4670   50.6900 C   0  0  0  0  0  0  0  0  0  0  0  0
   58.5960   30.0480   46.2520 C   0  0  0  0  0  0  0  0  0  0  0  0
   58.5460   28.8050   46.9210 C   0  0  0  0  0  0  0  0  0  0  0  0
   57.8110   27.7430   46.4010 C   0  0  0  0  0  0  0  0  0  0  0  0
   57.1020   27.9030   45.2170 C   0  0  0  0  0  0  0  0  0  0  0  0
   57.1360   29.1200   44.5390 C   0  0  0  0  0  0  0  0  0  0  0  0
   57.9030   30.2110   45.0260 C   0  0  0  0  0  0  0  0  0  0  0  0
   57.9430   31.4220   44.3650 N   0  0  0  0  0  0  0  0  0  0  0  0
   57.4080   31.5300   42.9870 C   0  0  0  0  0  0  0  0  0  0  0  0
   63.8268   32.5579   48.1503 H   0  0  0  0  0  0  0  0  0  0  0  0
   63.2934   31.8235   46.6002 H   0  0  0  0  0  0  0  0  0  0  0  0
   64.5481   33.1089   46.6002 H   0  0  0  0  0  0  0  0  0  0  0  0
   62.8367   34.7075   47.5280 H   0  0  0  0  0  0  0  0  0  0  0  0
   62.4145   34.0625   45.8921 H   0  0  0  0  0  0  0  0  0  0  0  0
   61.3900   32.3000   47.6500 H   0  0  0  0  0  0  0  0  0  0  0  0
   61.0320   33.8150   48.3690 H   0  0  0  0  0  0  0  0  0  0  0  0
   60.2793   35.6583   46.5203 H   0  0  0  0  0  0  0  0  0  0  0  0
   58.5824   35.9505   44.7410 H   0  0  0  0  0  0  0  0  0  0  0  0
   57.5619   33.9733   43.6513 H   0  0  0  0  0  0  0  0  0  0  0  0
   59.4600   31.6560   48.8640 H   0  0  0  0  0  0  0  0  0  0  0  0
   60.7713   29.2019   48.6343 H   0  0  0  0  0  0  0  0  0  0  0  0
   61.6620   30.2624   47.4680 H   0  0  0  0  0  0  0  0  0  0  0  0
   61.7384   30.2084   50.4265 H   0  0  0  0  0  0  0  0  0  0  0  0
   62.9218   30.8686   49.2410 H   0  0  0  0  0  0  0  0  0  0  0  0
   62.5557   33.1045   51.3436 H   0  0  0  0  0  0  0  0  0  0  0  0
   63.4548   32.6619   49.8528 H   0  0  0  0  0  0  0  0  0  0  0  0
   62.3622   34.0877   49.8528 H   0  0  0  0  0  0  0  0  0  0  0  0
   59.7109   31.3325   50.7501 H   0  0  0  0  0  0  0  0  0  0  0  0
   60.8005   32.2822   51.8405 H   0  0  0  0  0  0  0  0  0  0  0  0
   59.1526   33.8489   51.6833 H   0  0  0  0  0  0  0  0  0  0  0  0
   59.9738   34.2471   50.1361 H   0  0  0  0  0  0  0  0  0  0  0  0
   58.5222   33.1891   50.1361 H   0  0  0  0  0  0  0  0  0  0  0  0
   59.0950   28.6743   47.8652 H   0  0  0  0  0  0  0  0  0  0  0  0
   57.7917   26.7774   46.9275 H   0  0  0  0  0  0  0  0  0  0  0  0
   56.5122   27.0667   44.8136 H   0  0  0  0  0  0  0  0  0  0  0  0
   56.5585   29.2374   43.6102 H   0  0  0  0  0  0  0  0  0  0  0  0
   56.3305   31.7475   43.0280 H   0  0  0  0  0  0  0  0  0  0  0  0
   57.9259   32.3417   42.4551 H   0  0  0  0  0  0  0  0  0  0  0  0
   57.5705   30.5809   42.4551 H   0  0  0  0  0  0  0  0  0  0  0  0
  1  2  1  0
  2  3  1  0
  3  4  1  0
  4  5  2  0
  5  6  1  0
  6  7  2  0
  7  8  1  0
  8  9  2  0
  9 10  1  0
 10 11  1  0
 11 12  1  0
 12 13  1  0
 13 14  1  0
 14 15  1  0
 14 16  1  0
 16 17  1  0
 10 18  2  0
 18 19  1  0
 19 20  2  0
 20 21  1  0
 21 22  2  0
 22 23  1  0
 23 24  2  0
 24 25  1  0
  9  4  1  0
 23 18  1  0
 24  8  1  0
  1 26  1  0
  1 27  1  0
  1 28  1  0
  2 29  1  0
  2 30  1  0
  3 31  1  0
  3 32  1  0
  5 33  1  0
  6 34  1  0
  7 35  1  0
 11 36  1  0
 12 37  1  0
 12 38  1  0
 13 39  1  0
 13 40  1  0
 15 41  1  0
 15 42  1  0
 15 43  1  0
 16 44  1  0
 16 45  1  0
 17 46  1  0
 17 47  1  0
 17 48  1  0
 19 49  1  0
 20 50  1  0
 21 51  1  0
 22 52  1  0
 25 53  1  0
 25 54  1  0
 25 55  1  0
M  CHG  2   3   1  24   1
M  END
>  <UniqueID>  (12) 
12

>  <SMILES>  (12) 
CC[NH2+]c1cccc2c1c(NCCN(C)CC)c1ccccc1[n+]2C

>  <Energy>  (12) 
91.44875702252766

>  <Genealogy>  (12) 
CC[NH2+]c1cccc2c1c(NCCN(C)CC)c1ccccc1[n+]2C (protonated)
CC[NH2+]c1cccc2c1c(NCCN(C)CC)c1ccccc1[n+]2C (3D coordinates assigned)
CC[NH2+]c1cccc2c1c(NCCN(C)CC)c1ccccc1[n+]2C (optimized conformer: 91.44875702252766 kcal/mol)

>  <smiles>  (12) 
CCNc1cccc2c1c(NCCN(C)CC)c1ccccc1[n+]2C

>  <score_type>  (12) 
oracle

>  <origin>  (12) 
adg

>  <m_score__min__energy>  (12) 
-3.4500000000000002

>  <m_primary>  (12) 
energy

$$$$
12:0
     RDKit          3D

 71 75  0  0  0  0  0  0  0  0999 V2000
   65.5290   31.9800   50.1700 C   0  0  0  0  0  0  0  0  0  0  0  0
   64.7930   33.3160   49.9810 C   0  0  0  0  0  0  0  0  0  0  0  0
   63.5320   33.2330   49.1960 N   0  0  0  0  0  0  0  0  0  0  0  0
   62.7040   34.4580   49.2990 C   0  0  0  0  0  0  0  0  0  0  0  0
   61.4210   34.2030   50.0910 C   0  0  0  0  0  0  0  0  0  0  0  0
   63.7240   32.8370   47.7790 C   0  0  0  0  0  0  0  0  0  0  0  0
   62.6330   31.8750   47.2680 C   0  0  0  0  0  0  0  0  0  0  0  0
   61.5960   31.5810   48.2770 N   0  0  0  0  0  0  0  0  0  0  0  0
   60.2750   31.4520   47.6690 C   0  0  0  0  0  0  0  0  0  0  0  0
   59.7480   32.5130   46.8880 C   0  0  0  0  0  0  0  0  0  0  0  0
   60.0960   33.8610   47.1400 C   0  0  0  0  0  0  0  0  0  0  0  0
   59.6610   34.8840   46.3040 C   0  0  0  0  0  0  0  0  0  0  0  0
   58.8900   34.5910   45.1900 C   0  0  0  0  0  0  0  0  0  0  0  0
   58.4930   33.2800   44.9430 C   0  0  0  0  0  0  0  0  0  0  0  0
   58.8590   32.2220   45.8160 C   0  0  0  0  0  0  0  0  0  0  0  0
   58.4120   30.9310   45.6120 N   0  0  0  0  0  0  0  0  0  0  0  0
   57.3390   30.6630   44.6250 C   0  0  0  0  0  0  0  0  0  0  0  0
   58.9100   29.8950   46.3760 C   0  0  0  0  0  0  0  0  0  0  0  0
   58.6850   28.5420   46.0200 C   0  0  0  0  0  0  0  0  0  0  0  0
   59.0870   27.5060   46.8520 C   0  0  0  0  0  0  0  0  0  0  0  0
   59.6470   27.7850   48.0900 C   0  0  0  0  0  0  0  0  0  0  0  0
   59.9010   29.1060   48.4760 C   0  0  0  0  0  0  0  0  0  0  0  0
   60.1720   29.3430   49.8750 N   0  0  0  0  0  0  0  0  0  0  0  0
   59.6530   30.4700   50.6070 C   0  0  0  0  0  0  0  0  0  0  0  0
   58.3000   30.7860   50.4570 C   0  0  0  0  0  0  0  0  0  0  0  0
   57.7370   31.8340   51.1620 C   0  0  0  0  0  0  0  0  0  0  0  0
   58.4770   32.5760   52.0320 N   0  0  0  0  0  0  0  0  0  0  0  0
   57.7970   33.6750   52.7400 C   0  0  0  0  0  0  0  0  0  0  0  0
   59.8130   32.2930   52.2380 C   0  0  0  0  0  0  0  0  0  0  0  0
   60.5750   33.0460   53.1600 C   0  0  0  0  0  0  0  0  0  0  0  0
   61.9210   32.7830   53.3660 C   0  0  0  0  0  0  0  0  0  0  0  0
   62.5500   31.7730   52.6570 C   0  0  0  0  0  0  0  0  0  0  0  0
   61.8460   30.9950   51.7360 C   0  0  0  0  0  0  0  0  0  0  0  0
   62.8370   29.8040   50.8890 Cl  0  0  0  0  0  0  0  0  0  0  0  0
   60.4500   31.2260   51.5180 C   0  0  0  0  0  0  0  0  0  0  0  0
   59.6910   30.1640   47.5330 C   0  0  0  0  0  0  0  0  0  0  0  0
   65.6430   31.7730   51.2443 H   0  0  0  0  0  0  0  0  0  0  0  0
   64.9487   31.1721   49.7005 H   0  0  0  0  0  0  0  0  0  0  0  0
   66.5220   32.0388   49.7005 H   0  0  0  0  0  0  0  0  0  0  0  0
   64.5496   33.7154   50.9766 H   0  0  0  0  0  0  0  0  0  0  0  0
   65.4718   33.9624   49.4053 H   0  0  0  0  0  0  0  0  0  0  0  0
   63.2867   35.2416   49.8053 H   0  0  0  0  0  0  0  0  0  0  0  0
   62.4250   34.7722   48.2824 H   0  0  0  0  0  0  0  0  0  0  0  0
   61.6402   34.2466   51.1681 H   0  0  0  0  0  0  0  0  0  0  0  0
   60.6749   34.9704   49.8373 H   0  0  0  0  0  0  0  0  0  0  0  0
   61.0250   33.2086   49.8373 H   0  0  0  0  0  0  0  0  0  0  0  0
   63.7106   33.7441   47.1569 H   0  0  0  0  0  0  0  0  0  0  0  0
   64.6859   32.3075   47.7133 H   0  0  0  0  0  0  0  0  0  0  0  0
   62.1486   32.3301   46.3915 H   0  0  0  0  0  0  0  0  0  0  0  0
   63.1266   30.9236   47.0206 H   0  0  0  0  0  0  0  0  0  0  0  0
   61.8750   30.7030   48.7420 H   0  0  0  0  0  0  0  0  0  0  0  0
   61.6360   32.2810   49.0440 H   0  0  0  0  0  0  0  0  0  0  0  0
   60.7212   34.1041   48.0118 H   0  0  0  0  0  0  0  0  0  0  0  0
   59.9293   35.9272   46.5273 H   0  0  0  0  0  0  0  0  0  0  0  0
   58.5918   35.3949   44.5009 H   0  0  0  0  0  0  0  0  0  0  0  0
   57.8838   33.0594   44.0541 H   0  0  0  0  0  0  0  0  0  0  0  0
   56.4036   30.4294   45.1546 H   0  0  0  0  0  0  0  0  0  0  0  0
   57.1909   31.5518   43.9940 H   0  0  0  0  0  0  0  0  0  0  0  0
   57.6262   29.8090   43.9940 H   0  0  0  0  0  0  0  0  0  0  0  0
   58.1837   28.3089   45.0690 H   0  0  0  0  0  0  0  0  0  0  0  0
   58.9612   26.4621   46.5290 H   0  0  0  0  0  0  0  0  0  0  0  0
   59.8937   26.9602   48.7747 H   0  0  0  0  0  0  0  0  0  0  0  0
   60.4440   28.5150   50.4510 H   0  0  0  0  0  0  0  0  0  0  0  0
   57.6761   30.1947   49.7707 H   0  0  0  0  0  0  0  0  0  0  0  0
   56.6729   32.0725   51.0176 H   0  0  0  0  0  0  0  0  0  0  0  0
   57.8900   33.5247   53.8257 H   0  0  0  0  0  0  0  0  0  0  0  0
   58.2605   34.6329   52.4614 H   0  0  0  0  0  0  0  0  0  0  0  0
   56.7329   33.6877   52.4614 H   0  0  0  0  0  0  0  0  0  0  0  0
   60.0911   33.8563   53.7251 H   0  0  0  0  0  0  0  0  0  0  0  0
   62.4908   33.3783   54.0947 H   0  0  0  0  0  0  0  0  0  0  0  0
   63.6204   31.5809   52.8221 H   0  0  0  0  0  0  0  0  0  0  0  0
  1  2  1  0
  2  3  1  0
  3  4  1  0
  4  5  1  0
  3  6  1  0
  6  7  1  0
  7  8  1  0
  8  9  1  0
  9 10  2  0
 10 11  1  0
 11 12  2  0
 12 13  1  0
 13 14  2  0
 14 15  1  0
 15 16  2  0
 16 17  1  0
 16 18  1  0
 18 19  2  0
 19 20  1  0
 20 21  2  0
 21 22  1  0
 22 23  1  0
 23 24  1  0
 24 25  2  0
 25 26  1  0
 26 27  2  0
 27 28  1  0
 27 29  1  0
 29 30  2  0
 30 31  1  0
 31 32  2  0
 32 33  1  0
 33 34  1  0
 33 35  2  0
 22 36  2  0
 36  9  1  0
 15 10  1  0
 36 18  1  0
 35 24  1  0
 35 29  1  0
  1 37  1  0
  1 38  1  0
  1 39  1  0
  2 40  1  0
  2 41  1  0
  4 42  1  0
  4 43  1  0
  5 44  1  0
  5 45  1  0
  5 46  1  0
  6 47  1  0
  6 48  1  0
  7 49  1  0
  7 50  1  0
  8 51  1  0
  8 52  1  0
 11 53  1  0
 12 54  1  0
 13 55  1  0
 14 56  1  0
 17 57  1  0
 17 58  1  0
 17 59  1  0
 19 60  1  0
 20 61  1  0
 21 62  1  0
 23 63  1  0
 25 64  1  0
 26 65  1  0
 28 66  1  0
 28 67  1  0
 28 68  1  0
 30 69  1  0
 31 70  1  0
 32 71  1  0
M  CHG  3   8   1  16   1  27   1
M  END
>  <UniqueID>  (13) 
13

>  <SMILES>  (13) 
CCN(CC)CC[NH2+]c1c2ccccc2[n+](C)c2cccc(Nc3cc[n+](C)c4cccc(Cl)c34)c12

>  <Energy>  (13) 
142.77816813994343

>  <Genealogy>  (13) 
CCN(CC)CC[NH2+]c1c2ccccc2[n+](C)c2cccc(Nc3cc[n+](C)c4cccc(Cl)c34)c12 (protonated)
CCN(CC)CC[NH2+]c1c2ccccc2[n+](C)c2cccc(Nc3cc[n+](C)c4cccc(Cl)c34)c12 (3D coordinates assigned)
CCN(CC)CC[NH2+]c1c2ccccc2[n+](C)c2cccc(Nc3cc[n+](C)c4cccc(Cl)c34)c12 (optimized conformer: 142.77816813994343 kcal/mol)

>  <smiles>  (13) 
CCN(CC)CCNc1c2ccccc2[n+](C)c2cccc(Nc3cc[n+](C)c4cccc(Cl)c34)c12

>  <score_type>  (13) 
oracle

>  <origin>  (13) 
adg

>  <m_score__min__energy>  (13) 
-4.7699999999999996

>  <m_primary>  (13) 
energy

$$$$
13:0
     RDKit          3D

 83 87  0  0  0  0  0  0  0  0999 V2000
   57.6080   31.8850   44.1870 C   0  0  0  0  0  0  0  0  0  0  0  0
   57.8890   32.0610   45.6860 C   0  0  0  0  0  0  0  0  0  0  0  0
   58.9850   33.0320   45.9530 N   0  0  1  0  0  0  0  0  0  0  0  0
   59.2590   33.8150   44.7310 C   0  0  0  0  0  0  0  0  0  0  0  0
   58.6140   33.9240   47.0880 C   0  0  0  0  0  0  0  0  0  0  0  0
   59.8040   34.3380   47.9860 C   0  0  0  0  0  0  0  0  0  0  0  0
   60.9990   33.6120   47.7490 O   0  0  0  0  0  0  0  0  0  0  0  0
   61.7890   34.1400   46.6920 C   0  0  0  0  0  0  0  0  0  0  0  0
   63.2990   33.8690   46.8180 C   0  0  0  0  0  0  0  0  0  0  0  0
   63.5960   32.4500   47.0250 N   0  0  0  0  0  0  0  0  0  0  0  0
   62.9030   31.6550   47.9980 C   0  0  0  0  0  0  0  0  0  0  0  0
   63.2750   31.6060   49.3630 C   0  0  0  0  0  0  0  0  0  0  0  0
   64.2980   32.4340   49.8680 C   0  0  0  0  0  0  0  0  0  0  0  0
   64.7180   32.3200   51.1910 C   0  0  0  0  0  0  0  0  0  0  0  0
   64.1180   31.3930   52.0390 C   0  0  0  0  0  0  0  0  0  0  0  0
   63.0620   30.6000   51.5830 C   0  0  0  0  0  0  0  0  0  0  0  0
   62.5760   30.7190   50.2560 C   0  0  0  0  0  0  0  0  0  0  0  0
   61.4660   30.0110   49.8160 N   0  0  0  0  0  0  0  0  0  0  0  0
   60.5640   29.3100   50.7480 C   0  0  0  0  0  0  0  0  0  0  0  0
   61.1730   30.0450   48.4760 C   0  0  0  0  0  0  0  0  0  0  0  0
   61.8470   30.8590   47.5940 C   0  0  0  0  0  0  0  0  0  0  0  0
   61.3690   30.7500   46.3720 O   0  0  0  0  0  0  0  0  0  0  0  0
   60.4030   29.8620   46.4210 C   0  0  0  0  0  0  0  0  0  0  0  0
   59.6330   29.4210   45.3520 C   0  0  0  0  0  0  0  0  0  0  0  0
   58.6660   28.4360   45.5980 C   0  0  0  0  0  0  0  0  0  0  0  0
   58.4900   27.8980   46.8920 C   0  0  0  0  0  0  0  0  0  0  0  0
   57.4930   26.9250   47.0620 O   0  0  0  0  0  0  0  0  0  0  0  0
   56.6630   26.4270   46.0160 C   0  0  0  0  0  0  0  0  0  0  0  0
   56.8070   24.8910   45.9620 C   0  0  0  0  0  0  0  0  0  0  0  0
   57.2820   24.3130   44.6600 N   0  0  0  0  0  0  0  0  0  0  0  0
   57.7520   25.4680   43.8440 C   0  0  0  0  0  0  0  0  0  0  0  0
   58.4490   23.3840   44.8580 C   0  0  0  0  0  0  0  0  0  0  0  0
   58.0530   21.8980   44.8590 C   0  0  0  0  0  0  0  0  0  0  0  0
   57.4120   21.4990   43.5220 C   0  0  0  0  0  0  0  0  0  0  0  0
   56.6060   22.6410   42.8830 C   0  0  0  0  0  0  0  0  0  0  0  0
   56.1390   23.6640   43.9300 C   0  0  0  0  0  0  0  0  0  0  0  0
   59.3010   28.3550   47.9640 C   0  0  0  0  0  0  0  0  0  0  0  0
   60.2300   29.3700   47.7020 C   0  0  0  0  0  0  0  0  0  0  0  0
   56.6827   31.3055   44.0530 H   0  0  0  0  0  0  0  0  0  0  0  0
   57.4932   32.8729   43.7170 H   0  0  0  0  0  0  0  0  0  0  0  0
   58.4467   31.3506   43.7170 H   0  0  0  0  0  0  0  0  0  0  0  0
   56.9724   32.4208   46.1763 H   0  0  0  0  0  0  0  0  0  0  0  0
   58.2050   31.0848   46.0825 H   0  0  0  0  0  0  0  0  0  0  0  0
   59.8630   32.5050   46.1940 H   0  0  0  0  0  0  0  0  0  0  0  0
   59.6104   34.8193   45.0101 H   0  0  0  0  0  0  0  0  0  0  0  0
   60.0331   33.3078   44.1364 H   0  0  0  0  0  0  0  0  0  0  0  0
   58.3376   33.9011   44.1364 H   0  0  0  0  0  0  0  0  0  0  0  0
   58.1599   34.8368   46.6749 H   0  0  0  0  0  0  0  0  0  0  0  0
   57.9218   33.3534   47.7246 H   0  0  0  0  0  0  0  0  0  0  0  0
   60.0099   35.4047   47.8136 H   0  0  0  0  0  0  0  0  0  0  0  0
   59.5053   34.1200   49.0220 H   0  0  0  0  0  0  0  0  0  0  0  0
   61.4391   33.6960   45.7484 H   0  0  0  0  0  0  0  0  0  0  0  0
   61.6660   35.2325   46.7291 H   0  0  0  0  0  0  0  0  0  0  0  0
   63.7961   34.2030   45.8953 H   0  0  0  0  0  0  0  0  0  0  0  0
   63.6666   34.4202   47.6961 H   0  0  0  0  0  0  0  0  0  0  0  0
   64.5090   32.0870   46.6690 H   0  0  0  0  0  0  0  0  0  0  0  0
   64.7698   33.1784   49.2098 H   0  0  0  0  0  0  0  0  0  0  0  0
   65.5263   32.9644   51.5671 H   0  0  0  0  0  0  0  0  0  0  0  0
   64.4771   31.2844   53.0730 H   0  0  0  0  0  0  0  0  0  0  0  0
   62.5997   29.8710   52.2648 H   0  0  0  0  0  0  0  0  0  0  0  0
   60.8573   29.5380   51.7834 H   0  0  0  0  0  0  0  0  0  0  0  0
   59.5297   29.6437   50.5780 H   0  0  0  0  0  0  0  0  0  0  0  0
   60.6320   28.2253   50.5780 H   0  0  0  0  0  0  0  0  0  0  0  0
   59.7778   29.8325   44.3422 H   0  0  0  0  0  0  0  0  0  0  0  0
   58.0353   28.0771   44.7713 H   0  0  0  0  0  0  0  0  0  0  0  0
   55.6148   26.6941   46.2157 H   0  0  0  0  0  0  0  0  0  0  0  0
   56.9658   26.8669   45.0543 H   0  0  0  0  0  0  0  0  0  0  0  0
   57.5236   24.5939   46.7419 H   0  0  0  0  0  0  0  0  0  0  0  0
   55.7905   24.4958   46.1051 H   0  0  0  0  0  0  0  0  0  0  0  0
   58.0817   26.2782   44.5110 H   0  0  0  0  0  0  0  0  0  0  0  0
   58.5925   25.1507   43.2093 H   0  0  0  0  0  0  0  0  0  0  0  0
   56.9287   25.8277   43.2093 H   0  0  0  0  0  0  0  0  0  0  0  0
   59.1704   23.5521   44.0448 H   0  0  0  0  0  0  0  0  0  0  0  0
   58.8774   23.6067   45.8464 H   0  0  0  0  0  0  0  0  0  0  0  0
   58.9522   21.2861   45.0237 H   0  0  0  0  0  0  0  0  0  0  0  0
   57.3208   21.7308   45.6627 H   0  0  0  0  0  0  0  0  0  0  0  0
   58.2091   21.1992   42.8258 H   0  0  0  0  0  0  0  0  0  0  0  0
   56.7136   20.6733   43.7232 H   0  0  0  0  0  0  0  0  0  0  0  0
   57.2385   23.1525   42.1426 H   0  0  0  0  0  0  0  0  0  0  0  0
   55.7143   22.2063   42.4077 H   0  0  0  0  0  0  0  0  0  0  0  0
   55.5569   24.4467   43.4215 H   0  0  0  0  0  0  0  0  0  0  0  0
   55.5344   23.1244   44.6738 H   0  0  0  0  0  0  0  0  0  0  0  0
   59.2026   27.9243   48.9714 H   0  0  0  0  0  0  0  0  0  0  0  0
  1  2  1  0
  2  3  1  0
  3  4  1  0
  3  5  1  0
  5  6  1  0
  6  7  1  0
  7  8  1  0
  8  9  1  0
  9 10  1  0
 10 11  1  0
 11 12  2  0
 12 13  1  0
 13 14  2  0
 14 15  1  0
 15 16  2  0
 16 17  1  0
 17 18  2  0
 18 19  1  0
 18 20  1  0
 20 21  2  0
 21 22  1  0
 22 23  1  0
 23 24  2  0
 24 25  1  0
 25 26  2  0
 26 27  1  0
 27 28  1  0
 28 29  1  0
 29 30  1  0
 30 31  1  0
 30 32  1  0
 32 33  1  0
 33 34  1  0
 34 35  1  0
 35 36  1  0
 26 37  1  0
 37 38  2  0
 21 11  1  0
 38 23  1  0
 17 12  1  0
 38 20  1  0
 36 30  1  0
  1 39  1  0
  1 40  1  0
  1 41  1  0
  2 42  1  0
  2 43  1  0
  3 44  1  1
  4 45  1  0
  4 46  1  0
  4 47  1  0
  5 48  1  0
  5 49  1  0
  6 50  1  0
  6 51  1  0
  8 52  1  0
  8 53  1  0
  9 54  1  0
  9 55  1  0
 10 56  1  0
 13 57  1  0
 14 58  1  0
 15 59  1  0
 16 60  1  0
 19 61  1  0
 19 62  1  0
 19 63  1  0
 24 64  1  0
 25 65  1  0
 28 66  1  0
 28 67  1  0
 29 68  1  0
 29 69  1  0
 31 70  1  0
 31 71  1  0
 31 72  1  0
 32 73  1  0
 32 74  1  0
 33 75  1  0
 33 76  1  0
 34 77  1  0
 34 78  1  0
 35 79  1  0
 35 80  1  0
 36 81  1  0
 36 82  1  0
 37 83  1  0
M  CHG  3   3   1  18   1  30   1
M  END
>  <UniqueID>  (14) 
14

>  <SMILES>  (14) 
CC[N@@H+](C)CCOCCNc1c2ccccc2[n+](C)c2c1oc1ccc(OCC[N+]3(C)CCCCC3)cc12

>  <Energy>  (14) 
171.50400621093615

>  <Genealogy>  (14) 
CC[NH+](C)CCOCCNc1c2ccccc2[n+](C)c2c1oc1ccc(OCC[N+]3(C)CCCCC3)cc12 (protonated)
CC[N@@H+](C)CCOCCNc1c2ccccc2[n+](C)c2c1oc1ccc(OCC[N+]3(C)CCCCC3)cc12 (chirality)
CC[N@@H+](C)CCOCCNc1c2ccccc2[n+](C)c2c1oc1ccc(OCC[N+]3(C)CCCCC3)cc12 (3D coordinates assigned)
CC[N@@H+](C)CCOCCNc1c2ccccc2[n+](C)c2c1oc1ccc(OCC[N+]3(C)CCCCC3)cc12 (nonaromatic ring conformer: 171.50400621093615 kcal/mol)

>  <smiles>  (14) 
CCN(C)CCOCCNc1c2ccccc2[n+](C)c2c1oc1ccc(OCC[N+]3(C)CCCCC3)cc12

>  <score_type>  (14) 
oracle

>  <origin>  (14) 
adg

>  <m_score__min__energy>  (14) 
-4.3799999999999999

>  <m_primary>  (14) 
energy

$$$$
14:0
     RDKit          3D

 43 45  0  0  0  0  0  0  0  0999 V2000
   55.8050   29.7160   43.4100 C   0  0  0  0  0  0  0  0  0  0  0  0
   56.9530   30.2150   44.1600 N   0  0  0  0  0  0  0  0  0  0  0  0
   56.9450   31.3510   44.8390 N   0  0  0  0  0  0  0  0  0  0  0  0
   58.1410   31.4640   45.4520 C   0  0  0  0  0  0  0  0  0  0  0  0
   58.5080   32.5810   46.2870 N   0  0  0  0  0  0  0  0  0  0  0  0
   58.5810   32.3880   47.7410 C   0  0  0  0  0  0  0  0  0  0  0  0
   59.4570   33.4630   48.3870 C   0  0  0  0  0  0  0  0  0  0  0  0
   59.0590   34.7520   47.9670 O   0  0  0  0  0  0  0  0  0  0  0  0
   59.3180   34.8960   46.5860 C   0  0  0  0  0  0  0  0  0  0  0  0
   58.4370   33.9530   45.7620 C   0  0  0  0  0  0  0  0  0  0  0  0
   58.9310   30.3610   45.1610 C   0  0  0  0  0  0  0  0  0  0  0  0
   58.1380   29.5920   44.3340 C   0  0  0  0  0  0  0  0  0  0  0  0
   58.4990   28.2510   43.7710 C   0  0  0  0  0  0  0  0  0  0  0  0
   57.4220   27.2960   44.0590 N   0  0  0  0  0  0  0  0  0  0  0  0
   57.8690   26.2470   44.9830 C   0  0  0  0  0  0  0  0  0  0  0  0
   58.5690   26.8600   46.1670 C   0  0  0  0  0  0  0  0  0  0  0  0
   59.9130   26.5470   46.4270 C   0  0  0  0  0  0  0  0  0  0  0  0
   60.5810   27.1440   47.5000 C   0  0  0  0  0  0  0  0  0  0  0  0
   59.9130   28.0580   48.3200 C   0  0  0  0  0  0  0  0  0  0  0  0
   60.7540   28.8100   49.6640 Cl  0  0  0  0  0  0  0  0  0  0  0  0
   58.5740   28.3770   48.0660 C   0  0  0  0  0  0  0  0  0  0  0  0
   57.9040   27.7820   46.9930 C   0  0  0  0  0  0  0  0  0  0  0  0
   55.0277   29.3781   44.1112 H   0  0  0  0  0  0  0  0  0  0  0  0
   55.4029   30.5206   42.7767 H   0  0  0  0  0  0  0  0  0  0  0  0
   56.1190   28.8732   42.7767 H   0  0  0  0  0  0  0  0  0  0  0  0
   57.5673   32.4462   48.1641 H   0  0  0  0  0  0  0  0  0  0  0  0
   59.0241   31.4020   47.9446 H   0  0  0  0  0  0  0  0  0  0  0  0
   59.3638   33.3951   49.4809 H   0  0  0  0  0  0  0  0  0  0  0  0
   60.5008   33.2986   48.0814 H   0  0  0  0  0  0  0  0  0  0  0  0
   59.1112   35.9343   46.2874 H   0  0  0  0  0  0  0  0  0  0  0  0
   60.3723   34.6442   46.3987 H   0  0  0  0  0  0  0  0  0  0  0  0
   57.3949   34.3025   45.8058 H   0  0  0  0  0  0  0  0  0  0  0  0
   58.7969   33.9521   44.7225 H   0  0  0  0  0  0  0  0  0  0  0  0
   59.9527   30.1488   45.5089 H   0  0  0  0  0  0  0  0  0  0  0  0
   58.6345   28.3342   42.6826 H   0  0  0  0  0  0  0  0  0  0  0  0
   59.4348   27.8993   44.2300 H   0  0  0  0  0  0  0  0  0  0  0  0
   56.6440   27.8220   44.5220 H   0  0  0  0  0  0  0  0  0  0  0  0
   56.9968   25.6751   45.3327 H   0  0  0  0  0  0  0  0  0  0  0  0
   58.5692   25.5808   44.4577 H   0  0  0  0  0  0  0  0  0  0  0  0
   60.4424   25.8289   45.7835 H   0  0  0  0  0  0  0  0  0  0  0  0
   61.6336   26.8943   47.6993 H   0  0  0  0  0  0  0  0  0  0  0  0
   58.0485   29.0964   48.7112 H   0  0  0  0  0  0  0  0  0  0  0  0
   56.8524   28.0365   46.7946 H   0  0  0  0  0  0  0  0  0  0  0  0
  1  2  1  0
  2  3  1  0
  3  4  2  0
  4  5  1  0
  5  6  1  0
  6  7  1  0
  7  8  1  0
  8  9  1  0
  9 10  1  0
  4 11  1  0
 11 12  2  0
 12 13  1  0
 13 14  1  0
 14 15  1  0
 15 16  1  0
 16 17  2  0
 17 18  1  0
 18 19  2  0
 19 20  1  0
 19 21  1  0
 21 22  2  0
 12  2  1  0
 22 16  1  0
 10  5  1  0
  1 23  1  0
  1 24  1  0
  1 25  1  0
  6 26  1  0
  6 27  1  0
  7 28  1  0
  7 29  1  0
  9 30  1  0
  9 31  1  0
 10 32  1  0
 10 33  1  0
 11 34  1  0
 13 35  1  0
 13 36  1  0
 14 37  1  0
 15 38  1  0
 15 39  1  0
 17 40  1  0
 18 41  1  0
 21 42  1  0
 22 43  1  0
M  END
>  <UniqueID>  (15) 
15

>  <SMILES>  (15) 
Cn1nc(N2CCOCC2)cc1CNCc1ccc(Cl)cc1

>  <Energy>  (15) 
71.76600584136071

>  <Genealogy>  (15) 
Cn1nc(N2CCOCC2)cc1CNCc1ccc(Cl)cc1 (3D coordinates assigned)
Cn1nc(N2CCOCC2)cc1CNCc1ccc(Cl)cc1 (nonaromatic ring conformer: 71.76600584136071 kcal/mol)

>  <smiles>  (15) 
Cn1nc(N2CCOCC2)cc1CNCc1ccc(Cl)cc1

>  <score_type>  (15) 
oracle

>  <origin>  (15) 
adg

>  <m_score__min__energy>  (15) 
-7.46

>  <m_primary>  (15) 
energy

$$$$
15:0
     RDKit          3D

 42 43  0  0  0  0  0  0  0  0999 V2000
   57.7600   31.8630   43.3270 C   0  0  0  0  0  0  0  0  0  0  0  0
   57.2250   31.5800   44.7240 C   0  0  0  0  0  0  0  0  0  0  0  0
   56.2690   30.4660   44.6760 N   0  0  0  0  0  0  0  0  0  0  0  0
   56.6900   29.4040   43.7450 C   0  0  0  0  0  0  0  0  0  0  0  0
   57.5920   28.3500   44.4020 C   0  0  0  0  0  0  0  0  0  0  0  0
   57.6820   28.5960   45.7920 O   0  0  0  0  0  0  0  0  0  0  0  0
   57.3950   27.4210   46.5250 C   0  0  0  0  0  0  0  0  0  0  0  0
   57.3990   26.2100   45.5910 C   0  0  0  0  0  0  0  0  0  0  0  0
   56.3110   25.2470   45.9650 C   0  0  0  0  0  0  0  0  0  0  0  0
   55.1160   25.6430   46.0120 O   0  0  0  0  0  0  0  0  0  0  0  0
   56.6080   23.8560   46.1610 N   0  0  0  0  0  0  0  0  0  0  0  0
   56.7650   23.4080   47.5520 C   0  0  0  0  0  0  0  0  0  0  0  0
   56.2640   21.9820   47.7340 C   0  0  0  0  0  0  0  0  0  0  0  0
   57.3790   20.8780   46.8360 S   0  0  0  0  0  0  0  0  0  0  0  0
   56.9790   21.5630   45.2220 C   0  0  0  0  0  0  0  0  0  0  0  0
   56.9490   20.7140   44.1560 N   0  0  0  0  0  0  0  0  0  0  0  0
   56.7710   21.1590   42.8860 C   0  0  0  0  0  0  0  0  0  0  0  0
   56.6190   22.5190   42.6380 C   0  0  0  0  0  0  0  0  0  0  0  0
   56.6150   23.4130   43.7060 C   0  0  0  0  0  0  0  0  0  0  0  0
   56.7590   22.9500   45.0320 C   0  0  0  0  0  0  0  0  0  0  0  0
   58.7300   32.3761   43.4028 H   0  0  0  0  0  0  0  0  0  0  0  0
   57.8882   30.9148   42.7844 H   0  0  0  0  0  0  0  0  0  0  0  0
   57.0483   32.5026   42.7844 H   0  0  0  0  0  0  0  0  0  0  0  0
   58.0609   31.3151   45.3881 H   0  0  0  0  0  0  0  0  0  0  0  0
   56.7169   32.4776   45.1064 H   0  0  0  0  0  0  0  0  0  0  0  0
   56.1560   30.0680   45.6370 H   0  0  0  0  0  0  0  0  0  0  0  0
   55.7913   28.9026   43.3565 H   0  0  0  0  0  0  0  0  0  0  0  0
   57.2736   29.8820   42.9444 H   0  0  0  0  0  0  0  0  0  0  0  0
   57.1662   27.3496   44.2350 H   0  0  0  0  0  0  0  0  0  0  0  0
   58.5968   28.4039   43.9577 H   0  0  0  0  0  0  0  0  0  0  0  0
   58.1581   27.2824   47.3050 H   0  0  0  0  0  0  0  0  0  0  0  0
   56.4021   27.5172   46.9886 H   0  0  0  0  0  0  0  0  0  0  0  0
   57.2396   26.5509   44.5574 H   0  0  0  0  0  0  0  0  0  0  0  0
   58.3690   25.6988   45.6795 H   0  0  0  0  0  0  0  0  0  0  0  0
   57.8299   23.4511   47.8242 H   0  0  0  0  0  0  0  0  0  0  0  0
   56.1707   24.0699   48.1990 H   0  0  0  0  0  0  0  0  0  0  0  0
   56.2612   21.7210   48.8026 H   0  0  0  0  0  0  0  0  0  0  0  0
   55.2385   21.8855   47.3479 H   0  0  0  0  0  0  0  0  0  0  0  0
   57.0960   19.6900   44.3100 H   0  0  0  0  0  0  0  0  0  0  0  0
   56.7469   20.4427   42.0515 H   0  0  0  0  0  0  0  0  0  0  0  0
   56.5029   22.8854   41.6073 H   0  0  0  0  0  0  0  0  0  0  0  0
   56.4986   24.4899   43.5146 H   0  0  0  0  0  0  0  0  0  0  0  0
  1  2  1  0
  2  3  1  0
  3  4  1  0
  4  5  1  0
  5  6  1  0
  6  7  1  0
  7  8  1  0
  8  9  1  0
  9 10  2  0
  9 11  1  0
 11 12  1  0
 12 13  1  0
 13 14  1  0
 14 15  1  0
 15 16  2  0
 16 17  1  0
 17 18  2  0
 18 19  1  0
 19 20  2  0
 20 11  1  0
 20 15  1  0
  1 21  1  0
  1 22  1  0
  1 23  1  0
  2 24  1  0
  2 25  1  0
  3 26  1  0
  4 27  1  0
  4 28  1  0
  5 29  1  0
  5 30  1  0
  7 31  1  0
  7 32  1  0
  8 33  1  0
  8 34  1  0
 12 35  1  0
 12 36  1  0
 13 37  1  0
 13 38  1  0
 16 39  1  0
 17 40  1  0
 18 41  1  0
 19 42  1  0
M  CHG  1  16   1
M  END
>  <UniqueID>  (16) 
16

>  <SMILES>  (16) 
CCNCCOCCC(=O)N1CCSc2[nH+]cccc21

>  <Energy>  (16) 
48.50741171519342

>  <Genealogy>  (16) 
CCNCCOCCC(=O)N1CCSc2[nH+]cccc21 (protonated)
CCNCCOCCC(=O)N1CCSc2[nH+]cccc21 (3D coordinates assigned)
CCNCCOCCC(=O)N1CCSc2[nH+]cccc21 (nonaromatic ring conformer: 48.50741171519342 kcal/mol)

>  <smiles>  (16) 
CCNCCOCCC(=O)N1CCSc2ncccc21

>  <score_type>  (16) 
oracle

>  <origin>  (16) 
adg

>  <m_score__min__energy>  (16) 
-5.3600000000000003

>  <m_primary>  (16) 
energy

$$$$
16:0
     RDKit          3D

 63 65  0  0  0  0  0  0  0  0999 V2000
   65.5710   31.6280   50.7710 C   0  0  0  0  0  0  0  0  0  0  0  0
   65.3760   32.7670   49.7610 C   0  0  0  0  0  0  0  0  0  0  0  0
   64.0660   32.6860   49.0560 N   0  0  0  0  0  0  0  0  0  0  0  0
   64.1110   33.4250   47.7650 C   0  0  0  0  0  0  0  0  0  0  0  0
   62.7630   33.4350   47.0320 C   0  0  0  0  0  0  0  0  0  0  0  0
   62.9490   33.1110   49.9470 C   0  0  0  0  0  0  0  0  0  0  0  0
   61.9750   31.9870   50.3570 C   0  0  0  0  0  0  0  0  0  0  0  0
   62.1780   30.8510   49.5410 O   0  0  0  0  0  0  0  0  0  0  0  0
   61.1960   29.8750   49.8130 C   0  0  0  0  0  0  0  0  0  0  0  0
   59.9920   30.1140   48.9030 C   0  0  0  0  0  0  0  0  0  0  0  0
   60.3840   30.7560   47.6460 N   0  0  0  0  0  0  0  0  0  0  0  0
   59.5300   30.7780   46.4860 C   0  0  0  0  0  0  0  0  0  0  0  0
   59.0170   32.0020   46.0190 C   0  0  0  0  0  0  0  0  0  0  0  0
   59.3500   33.2150   46.6590 C   0  0  0  0  0  0  0  0  0  0  0  0
   58.7830   34.4180   46.2460 C   0  0  0  0  0  0  0  0  0  0  0  0
   57.8680   34.4330   45.1990 C   0  0  0  0  0  0  0  0  0  0  0  0
   57.5410   33.2490   44.5370 C   0  0  0  0  0  0  0  0  0  0  0  0
   58.1370   32.0140   44.9060 C   0  0  0  0  0  0  0  0  0  0  0  0
   57.8630   30.8440   44.2230 N   0  0  0  0  0  0  0  0  0  0  0  0
   57.1900   30.9010   42.9030 C   0  0  0  0  0  0  0  0  0  0  0  0
   58.2610   29.6260   44.7470 C   0  0  0  0  0  0  0  0  0  0  0  0
   57.7910   28.4000   44.2150 C   0  0  0  0  0  0  0  0  0  0  0  0
   58.2650   27.1650   44.6830 C   0  0  0  0  0  0  0  0  0  0  0  0
   57.7510   25.8940   44.0510 C   0  0  0  0  0  0  0  0  0  0  0  0
   59.2550   27.1370   45.6850 C   0  0  0  0  0  0  0  0  0  0  0  0
   59.8240   25.8350   46.1890 C   0  0  0  0  0  0  0  0  0  0  0  0
   59.6780   28.3400   46.2650 C   0  0  0  0  0  0  0  0  0  0  0  0
   59.1540   29.5800   45.8460 C   0  0  0  0  0  0  0  0  0  0  0  0
   65.5024   32.0286   51.7932 H   0  0  0  0  0  0  0  0  0  0  0  0
   64.7899   30.8680   50.6219 H   0  0  0  0  0  0  0  0  0  0  0  0
   66.5604   31.1711   50.6219 H   0  0  0  0  0  0  0  0  0  0  0  0
   65.4298   33.7264   50.2964 H   0  0  0  0  0  0  0  0  0  0  0  0
   66.1691   32.6817   49.0036 H   0  0  0  0  0  0  0  0  0  0  0  0
   63.8830   31.6770   48.8350 H   0  0  0  0  0  0  0  0  0  0  0  0
   64.4080   34.4648   47.9666 H   0  0  0  0  0  0  0  0  0  0  0  0
   64.8343   32.9095   47.1161 H   0  0  0  0  0  0  0  0  0  0  0  0
   61.9455   33.4411   47.7680 H   0  0  0  0  0  0  0  0  0  0  0  0
   62.6952   34.3337   46.4013 H   0  0  0  0  0  0  0  0  0  0  0  0
   62.6819   32.5374   46.4013 H   0  0  0  0  0  0  0  0  0  0  0  0
   63.3862   33.5341   50.8634 H   0  0  0  0  0  0  0  0  0  0  0  0
   62.3554   33.8353   49.3699 H   0  0  0  0  0  0  0  0  0  0  0  0
   62.1522   31.7168   51.4085 H   0  0  0  0  0  0  0  0  0  0  0  0
   60.9411   32.3414   50.2324 H   0  0  0  0  0  0  0  0  0  0  0  0
   61.6089   28.8733   49.6229 H   0  0  0  0  0  0  0  0  0  0  0  0
   60.8855   29.9435   50.8660 H   0  0  0  0  0  0  0  0  0  0  0  0
   59.5179   29.1474   48.6773 H   0  0  0  0  0  0  0  0  0  0  0  0
   59.2927   30.7823   49.4267 H   0  0  0  0  0  0  0  0  0  0  0  0
   61.2330   31.3630   47.6420 H   0  0  0  0  0  0  0  0  0  0  0  0
   60.0660   33.2101   47.4941 H   0  0  0  0  0  0  0  0  0  0  0  0
   59.0591   35.3569   46.7483 H   0  0  0  0  0  0  0  0  0  0  0  0
   57.4009   35.3804   44.8920 H   0  0  0  0  0  0  0  0  0  0  0  0
   56.8095   33.2727   43.7158 H   0  0  0  0  0  0  0  0  0  0  0  0
   56.1036   30.9930   43.0490 H   0  0  0  0  0  0  0  0  0  0  0  0
   57.5593   31.7711   42.3404 H   0  0  0  0  0  0  0  0  0  0  0  0
   57.4078   29.9812   42.3404 H   0  0  0  0  0  0  0  0  0  0  0  0
   57.0359   28.4166   43.4153 H   0  0  0  0  0  0  0  0  0  0  0  0
   57.4634   25.1828   44.8393 H   0  0  0  0  0  0  0  0  0  0  0  0
   56.8749   26.1233   43.4266 H   0  0  0  0  0  0  0  0  0  0  0  0
   58.5402   25.4498   43.4266 H   0  0  0  0  0  0  0  0  0  0  0  0
   59.8235   25.8360   47.2890 H   0  0  0  0  0  0  0  0  0  0  0  0
   59.2088   24.9998   45.8229 H   0  0  0  0  0  0  0  0  0  0  0  0
   60.8548   25.7192   45.8229 H   0  0  0  0  0  0  0  0  0  0  0  0
   60.4343   28.3167   47.0635 H   0  0  0  0  0  0  0  0  0  0  0  0
  1  2  1  0
  2  3  1  0
  3  4  1  0
  4  5  1  0
  3  6  1  0
  6  7  1  0
  7  8  1  0
  8  9  1  0
  9 10  1  0
 10 11  1  0
 11 12  1  0
 12 13  2  0
 13 14  1  0
 14 15  2  0
 15 16  1  0
 16 17  2  0
 17 18  1  0
 18 19  2  0
 19 20  1  0
 19 21  1  0
 21 22  2  0
 22 23  1  0
 23 24  1  0
 23 25  2  0
 25 26  1  0
 25 27  1  0
 27 28  2  0
 28 12  1  0
 18 13  1  0
 28 21  1  0
  1 29  1  0
  1 30  1  0
  1 31  1  0
  2 32  1  0
  2 33  1  0
  3 34  1  0
  4 35  1  0
  4 36  1  0
  5 37  1  0
  5 38  1  0
  5 39  1  0
  6 40  1  0
  6 41  1  0
  7 42  1  0
  7 43  1  0
  9 44  1  0
  9 45  1  0
 10 46  1  0
 10 47  1  0
 11 48  1  0
 14 49  1  0
 15 50  1  0
 16 51  1  0
 17 52  1  0
 20 53  1  0
 20 54  1  0
 20 55  1  0
 22 56  1  0
 24 57  1  0
 24 58  1  0
 24 59  1  0
 26 60  1  0
 26 61  1  0
 26 62  1  0
 27 63  1  0
M  CHG  2   3   1  19   1
M  END
>  <UniqueID>  (17) 
17

>  <SMILES>  (17) 
CC[NH+](CC)CCOCCNc1c2ccccc2[n+](C)c2cc(C)c(C)cc12

>  <Energy>  (17) 
92.46281899475895

>  <Genealogy>  (17) 
CC[NH+](CC)CCOCCNc1c2ccccc2[n+](C)c2cc(C)c(C)cc12 (protonated)
CC[NH+](CC)CCOCCNc1c2ccccc2[n+](C)c2cc(C)c(C)cc12 (3D coordinates assigned)
CC[NH+](CC)CCOCCNc1c2ccccc2[n+](C)c2cc(C)c(C)cc12 (optimized conformer: 92.46281899475895 kcal/mol)

>  <smiles>  (17) 
CCN(CC)CCOCCNc1c2ccccc2[n+](C)c2cc(C)c(C)cc12

>  <score_type>  (17) 
oracle

>  <origin>  (17) 
adg

>  <m_score__min__energy>  (17) 
-4.1900000000000004

>  <m_primary>  (17) 
energy

$$$$
17:0
     RDKit          3D

 72 76  0  0  0  0  0  0  0  0999 V2000
   61.8650   33.8080   51.3820 C   0  0  0  0  0  0  0  0  0  0  0  0
   61.9640   32.3180   51.4710 C   0  0  0  0  0  0  0  0  0  0  0  0
   60.8830   31.5090   51.3150 N   0  0  0  0  0  0  0  0  0  0  0  0
   61.3930   30.2790   51.5010 C   0  0  0  0  0  0  0  0  0  0  0  0
   60.7110   29.0650   51.4690 C   0  0  0  0  0  0  0  0  0  0  0  0
   61.4480   27.8930   51.7170 C   0  0  0  0  0  0  0  0  0  0  0  0
   62.8330   27.9610   51.9900 C   0  0  0  0  0  0  0  0  0  0  0  0
   63.4930   29.2050   52.0170 C   0  0  0  0  0  0  0  0  0  0  0  0
   62.7310   30.3490   51.7630 C   0  0  0  0  0  0  0  0  0  0  0  0
   63.1120   31.6390   51.7460 N   0  0  0  0  0  0  0  0  0  0  0  0
   64.4390   32.1910   52.0400 C   0  0  0  0  0  0  0  0  0  0  0  0
   65.3320   32.1860   50.7960 C   0  0  0  0  0  0  0  0  0  0  0  0
   64.5160   32.1280   49.5740 N   0  0  0  0  0  0  0  0  0  0  0  0
   64.1200   33.4660   49.1040 C   0  0  0  0  0  0  0  0  0  0  0  0
   63.6310   33.4530   47.6360 C   0  0  0  0  0  0  0  0  0  0  0  0
   63.7470   32.1280   47.0030 N   0  0  0  0  0  0  0  0  0  0  0  0
   62.5190   31.3180   47.0630 C   0  0  0  0  0  0  0  0  0  0  0  0
   62.0660   31.0350   48.5070 C   0  0  0  0  0  0  0  0  0  0  0  0
   60.6430   31.3550   48.7430 N   0  0  0  0  0  0  0  0  0  0  0  0
   59.8650   31.3330   47.5110 C   0  0  0  0  0  0  0  0  0  0  0  0
   59.4110   30.1110   46.9410 C   0  0  0  0  0  0  0  0  0  0  0  0
   58.6890   30.1310   45.7280 C   0  0  0  0  0  0  0  0  0  0  0  0
   58.2530   31.3210   45.1910 N   0  0  0  0  0  0  0  0  0  0  0  0
   57.2110   31.3130   44.1400 C   0  0  0  0  0  0  0  0  0  0  0  0
   58.7740   32.5140   45.6450 C   0  0  0  0  0  0  0  0  0  0  0  0
   58.5420   33.7280   44.9460 C   0  0  0  0  0  0  0  0  0  0  0  0
   59.0330   34.9400   45.4230 C   0  0  0  0  0  0  0  0  0  0  0  0
   59.7680   34.9780   46.5990 C   0  0  0  0  0  0  0  0  0  0  0  0
   60.0380   33.8030   47.2940 C   0  0  0  0  0  0  0  0  0  0  0  0
   59.5710   32.5470   46.8250 C   0  0  0  0  0  0  0  0  0  0  0  0
   58.3870   28.7930   45.0650 C   0  0  0  0  0  0  0  0  0  0  0  0
   59.5930   27.8470   45.1680 C   0  0  0  0  0  0  0  0  0  0  0  0
   60.1730   27.7330   46.5930 C   0  0  0  0  0  0  0  0  0  0  0  0
   59.5800   28.7410   47.5850 C   0  0  0  0  0  0  0  0  0  0  0  0
   61.8366   34.2348   52.3954 H   0  0  0  0  0  0  0  0  0  0  0  0
   62.7390   34.2020   50.8426 H   0  0  0  0  0  0  0  0  0  0  0  0
   60.9466   34.0829   50.8426 H   0  0  0  0  0  0  0  0  0  0  0  0
   59.6324   29.0242   51.2569 H   0  0  0  0  0  0  0  0  0  0  0  0
   60.9426   26.9161   51.6983 H   0  0  0  0  0  0  0  0  0  0  0  0
   63.3986   27.0374   52.1824 H   0  0  0  0  0  0  0  0  0  0  0  0
   64.5699   29.2738   52.2304 H   0  0  0  0  0  0  0  0  0  0  0  0
   64.3259   33.2257   52.3957 H   0  0  0  0  0  0  0  0  0  0  0  0
   64.9128   31.5644   52.8099 H   0  0  0  0  0  0  0  0  0  0  0  0
   65.9385   33.1036   50.7826 H   0  0  0  0  0  0  0  0  0  0  0  0
   65.9832   31.3002   50.8302 H   0  0  0  0  0  0  0  0  0  0  0  0
   65.0650   31.6570   48.8170 H   0  0  0  0  0  0  0  0  0  0  0  0
   63.3071   33.8393   49.7441 H   0  0  0  0  0  0  0  0  0  0  0  0
   65.0053   34.1167   49.1576 H   0  0  0  0  0  0  0  0  0  0  0  0
   62.5750   33.7602   47.6155 H   0  0  0  0  0  0  0  0  0  0  0  0
   64.2709   34.1457   47.0696 H   0  0  0  0  0  0  0  0  0  0  0  0
   64.5220   31.5970   47.4650 H   0  0  0  0  0  0  0  0  0  0  0  0
   61.7151   31.8578   46.5410 H   0  0  0  0  0  0  0  0  0  0  0  0
   62.7345   30.3506   46.5859 H   0  0  0  0  0  0  0  0  0  0  0  0
   62.2245   29.9676   48.7205 H   0  0  0  0  0  0  0  0  0  0  0  0
   62.6609   31.6812   49.1692 H   0  0  0  0  0  0  0  0  0  0  0  0
   60.5460   32.2400   49.2790 H   0  0  0  0  0  0  0  0  0  0  0  0
   60.2420   30.6610   49.4130 H   0  0  0  0  0  0  0  0  0  0  0  0
   56.2164   31.3054   44.6098 H   0  0  0  0  0  0  0  0  0  0  0  0
   57.3142   32.2120   43.5145 H   0  0  0  0  0  0  0  0  0  0  0  0
   57.3280   30.4157   43.5145 H   0  0  0  0  0  0  0  0  0  0  0  0
   57.9637   33.7104   44.0105 H   0  0  0  0  0  0  0  0  0  0  0  0
   58.8380   35.8688   44.8668 H   0  0  0  0  0  0  0  0  0  0  0  0
   60.1385   35.9398   46.9832 H   0  0  0  0  0  0  0  0  0  0  0  0
   60.6240   33.8482   48.2238 H   0  0  0  0  0  0  0  0  0  0  0  0
   57.5226   28.3305   45.5639 H   0  0  0  0  0  0  0  0  0  0  0  0
   58.1673   28.9687   44.0016 H   0  0  0  0  0  0  0  0  0  0  0  0
   59.2774   26.8454   44.8405 H   0  0  0  0  0  0  0  0  0  0  0  0
   60.3857   28.2669   44.5314 H   0  0  0  0  0  0  0  0  0  0  0  0
   59.9736   26.7185   46.9685 H   0  0  0  0  0  0  0  0  0  0  0  0
   61.2487   27.9508   46.5195 H   0  0  0  0  0  0  0  0  0  0  0  0
   58.5973   28.3785   47.9211 H   0  0  0  0  0  0  0  0  0  0  0  0
   60.2687   28.8385   48.4371 H   0  0  0  0  0  0  0  0  0  0  0  0
  1  2  1  0
  2  3  2  0
  3  4  1  0
  4  5  2  0
  5  6  1  0
  6  7  2  0
  7  8  1  0
  8  9  2  0
  9 10  1  0
 10 11  1  0
 11 12  1  0
 12 13  1  0
 13 14  1  0
 14 15  1  0
 15 16  1  0
 16 17  1  0
 17 18  1  0
 18 19  1  0
 19 20  1  0
 20 21  2  0
 21 22  1  0
 22 23  2  0
 23 24  1  0
 23 25  1  0
 25 26  2  0
 26 27  1  0
 27 28  2  0
 28 29  1  0
 29 30  2  0
 22 31  1  0
 31 32  1  0
 32 33  1  0
 33 34  1  0
 10  2  1  0
 30 20  1  0
  9  4  1  0
 34 21  1  0
 30 25  1  0
  1 35  1  0
  1 36  1  0
  1 37  1  0
  5 38  1  0
  6 39  1  0
  7 40  1  0
  8 41  1  0
 11 42  1  0
 11 43  1  0
 12 44  1  0
 12 45  1  0
 13 46  1  0
 14 47  1  0
 14 48  1  0
 15 49  1  0
 15 50  1  0
 16 51  1  0
 17 52  1  0
 17 53  1  0
 18 54  1  0
 18 55  1  0
 19 56  1  0
 19 57  1  0
 24 58  1  0
 24 59  1  0
 24 60  1  0
 26 61  1  0
 27 62  1  0
 28 63  1  0
 29 64  1  0
 31 65  1  0
 31 66  1  0
 32 67  1  0
 32 68  1  0
 33 69  1  0
 33 70  1  0
 34 71  1  0
 34 72  1  0
M  CHG  2  19   1  23   1
M  END
>  <UniqueID>  (18) 
18

>  <SMILES>  (18) 
Cc1nc2ccccc2n1CCNCCNCC[NH2+]c1c2c([n+](C)c3ccccc13)CCCC2

>  <Energy>  (18) 
139.52418679764904

>  <Genealogy>  (18) 
Cc1nc2ccccc2n1CCNCCNCC[NH2+]c1c2c([n+](C)c3ccccc13)CCCC2 (protonated)
Cc1nc2ccccc2n1CCNCCNCC[NH2+]c1c2c([n+](C)c3ccccc13)CCCC2 (3D coordinates assigned)
Cc1nc2ccccc2n1CCNCCNCC[NH2+]c1c2c([n+](C)c3ccccc13)CCCC2 (nonaromatic ring conformer: 139.52418679764904 kcal/mol)

>  <smiles>  (18) 
Cc1nc2ccccc2n1CCNCCNCCNc1c2c([n+](C)c3ccccc13)CCCC2

>  <score_type>  (18) 
oracle

>  <origin>  (18) 
adg

>  <m_score__min__energy>  (18) 
-5.4699999999999998

>  <m_primary>  (18) 
energy

$$$$
18:0
     RDKit          3D

 56 58  0  0  0  0  0  0  0  0999 V2000
   63.3800   33.8330   46.3910 C   0  0  0  0  0  0  0  0  0  0  0  0
   63.6670   33.1380   47.7280 C   0  0  0  0  0  0  0  0  0  0  0  0
   62.5730   33.3480   48.7150 N   0  0  0  0  0  0  0  0  0  0  0  0
   62.7930   34.5540   49.5560 C   0  0  0  0  0  0  0  0  0  0  0  0
   63.3980   34.2780   50.9360 C   0  0  0  0  0  0  0  0  0  0  0  0
   62.1450   32.1440   49.4990 C   0  0  0  0  0  0  0  0  0  0  0  0
   60.6490   31.7600   49.4450 C   0  0  0  0  0  0  0  0  0  0  0  0
   60.0160   32.3710   48.3460 O   0  0  0  0  0  0  0  0  0  0  0  0
   59.2950   33.5060   48.7750 C   0  0  0  0  0  0  0  0  0  0  0  0
   59.5730   34.6620   47.8200 C   0  0  0  0  0  0  0  0  0  0  0  0
   60.3000   34.1770   46.6390 N   0  0  0  0  0  0  0  0  0  0  0  0
   59.4600   34.1940   45.4320 C   0  0  0  0  0  0  0  0  0  0  0  0
   58.7350   32.8890   45.2330 C   0  0  0  0  0  0  0  0  0  0  0  0
   57.6930   32.7820   44.2980 C   0  0  0  0  0  0  0  0  0  0  0  0
   57.0190   31.5690   44.1530 C   0  0  0  0  0  0  0  0  0  0  0  0
   57.3820   30.4700   44.9410 C   0  0  0  0  0  0  0  0  0  0  0  0
   56.7210   29.2390   44.8230 C   0  0  0  0  0  0  0  0  0  0  0  0
   57.1020   28.1650   45.6340 C   0  0  0  0  0  0  0  0  0  0  0  0
   58.1610   28.3070   46.5420 C   0  0  0  0  0  0  0  0  0  0  0  0
   58.8150   29.5350   46.6760 C   0  0  0  0  0  0  0  0  0  0  0  0
   58.4320   30.6180   45.8770 C   0  0  0  0  0  0  0  0  0  0  0  0
   59.0710   31.8130   45.9960 N   0  0  0  0  0  0  0  0  0  0  0  0
   58.5500   27.2030   47.3090 O   0  0  0  0  0  0  0  0  0  0  0  0
   58.0890   25.8860   46.9950 C   0  0  0  0  0  0  0  0  0  0  0  0
   56.6210   25.9300   46.5500 C   0  0  0  0  0  0  0  0  0  0  0  0
   56.4360   26.9380   45.5540 O   0  0  0  0  0  0  0  0  0  0  0  0
   62.9664   34.8346   46.5798 H   0  0  0  0  0  0  0  0  0  0  0  0
   64.3141   33.9242   45.8172 H   0  0  0  0  0  0  0  0  0  0  0  0
   62.6538   33.2386   45.8172 H   0  0  0  0  0  0  0  0  0  0  0  0
   63.7809   32.0586   47.5493 H   0  0  0  0  0  0  0  0  0  0  0  0
   64.5872   33.5731   48.1450 H   0  0  0  0  0  0  0  0  0  0  0  0
   61.7330   33.6140   48.1470 H   0  0  0  0  0  0  0  0  0  0  0  0
   63.4721   35.2288   49.0142 H   0  0  0  0  0  0  0  0  0  0  0  0
   61.7989   34.9887   49.7370 H   0  0  0  0  0  0  0  0  0  0  0  0
   62.6928   34.5997   51.7165 H   0  0  0  0  0  0  0  0  0  0  0  0
   63.5950   33.2009   51.0412 H   0  0  0  0  0  0  0  0  0  0  0  0
   64.3406   34.8352   51.0412 H   0  0  0  0  0  0  0  0  0  0  0  0
   62.7208   31.2843   49.1256 H   0  0  0  0  0  0  0  0  0  0  0  0
   62.3313   32.4097   50.5500 H   0  0  0  0  0  0  0  0  0  0  0  0
   60.5601   30.6676   49.3510 H   0  0  0  0  0  0  0  0  0  0  0  0
   60.1625   32.1053   50.3692 H   0  0  0  0  0  0  0  0  0  0  0  0
   58.2185   33.2799   48.7767 H   0  0  0  0  0  0  0  0  0  0  0  0
   59.6079   33.7818   49.7928 H   0  0  0  0  0  0  0  0  0  0  0  0
   58.6194   35.1088   47.5022 H   0  0  0  0  0  0  0  0  0  0  0  0
   60.1859   35.4159   48.3358 H   0  0  0  0  0  0  0  0  0  0  0  0
   60.6260   33.1980   46.8170 H   0  0  0  0  0  0  0  0  0  0  0  0
   58.7190   35.0016   45.5259 H   0  0  0  0  0  0  0  0  0  0  0  0
   60.1152   34.3555   44.5633 H   0  0  0  0  0  0  0  0  0  0  0  0
   57.4098   33.6493   43.6835 H   0  0  0  0  0  0  0  0  0  0  0  0
   56.2035   31.4762   43.4206 H   0  0  0  0  0  0  0  0  0  0  0  0
   55.9054   29.1183   44.0949 H   0  0  0  0  0  0  0  0  0  0  0  0
   59.6285   29.6497   47.4075 H   0  0  0  0  0  0  0  0  0  0  0  0
   58.7027   25.4705   46.1822 H   0  0  0  0  0  0  0  0  0  0  0  0
   58.1735   25.2532   47.8908 H   0  0  0  0  0  0  0  0  0  0  0  0
   56.3383   24.9519   46.1336 H   0  0  0  0  0  0  0  0  0  0  0  0
   55.9898   26.1653   47.4196 H   0  0  0  0  0  0  0  0  0  0  0  0
  1  2  1  0
  2  3  1  0
  3  4  1  0
  4  5  1  0
  3  6  1  0
  6  7  1  0
  7  8  1  0
  8  9  1  0
  9 10  1  0
 10 11  1  0
 11 12  1  0
 12 13  1  0
 13 14  2  0
 14 15  1  0
 15 16  2  0
 16 17  1  0
 17 18  2  0
 18 19  1  0
 19 20  2  0
 20 21  1  0
 21 22  2  0
 19 23  1  0
 23 24  1  0
 24 25  1  0
 25 26  1  0
 22 13  1  0
 21 16  1  0
 26 18  1  0
  1 27  1  0
  1 28  1  0
  1 29  1  0
  2 30  1  0
  2 31  1  0
  3 32  1  0
  4 33  1  0
  4 34  1  0
  5 35  1  0
  5 36  1  0
  5 37  1  0
  6 38  1  0
  6 39  1  0
  7 40  1  0
  7 41  1  0
  9 42  1  0
  9 43  1  0
 10 44  1  0
 10 45  1  0
 11 46  1  0
 12 47  1  0
 12 48  1  0
 14 49  1  0
 15 50  1  0
 17 51  1  0
 20 52  1  0
 24 53  1  0
 24 54  1  0
 25 55  1  0
 25 56  1  0
M  CHG  1   3   1
M  END
>  <UniqueID>  (19) 
19

>  <SMILES>  (19) 
CC[NH+](CC)CCOCCNCc1ccc2cc3c(cc2n1)OCCO3

>  <Energy>  (19) 
66.70201207083846

>  <Genealogy>  (19) 
CC[NH+](CC)CCOCCNCc1ccc2cc3c(cc2n1)OCCO3 (protonated)
CC[NH+](CC)CCOCCNCc1ccc2cc3c(cc2n1)OCCO3 (3D coordinates assigned)
CC[NH+](CC)CCOCCNCc1ccc2cc3c(cc2n1)OCCO3 (nonaromatic ring conformer: 66.70201207083846 kcal/mol)

>  <smiles>  (19) 
CCN(CC)CCOCCNCc1ccc2cc3c(cc2n1)OCCO3

>  <score_type>  (19) 
oracle

>  <origin>  (19) 
adg

>  <m_score__min__energy>  (19) 
-4.6799999999999997

>  <m_primary>  (19) 
energy

$$$$
19:0
     RDKit          3D

 70 73  0  0  0  0  0  0  0  0999 V2000
   64.1280   32.2990   49.1710 C   0  0  0  0  0  0  0  0  0  0  0  0
   63.1910   31.9890   47.9940 C   0  0  0  0  0  0  0  0  0  0  0  0
   62.4140   33.1500   47.4950 N   0  0  0  0  0  0  0  0  0  0  0  0
   63.0830   33.8300   46.3710 C   0  0  0  0  0  0  0  0  0  0  0  0
   62.0140   34.1170   48.5410 C   0  0  0  0  0  0  0  0  0  0  0  0
   60.5040   34.4170   48.5030 C   0  0  0  0  0  0  0  0  0  0  0  0
   59.7040   33.2340   48.8250 N   0  0  0  0  0  0  0  0  0  0  0  0
   59.5280   32.1890   47.8560 C   0  0  0  0  0  0  0  0  0  0  0  0
   58.9820   32.5050   46.5990 C   0  0  0  0  0  0  0  0  0  0  0  0
   58.6470   33.8360   46.2730 C   0  0  0  0  0  0  0  0  0  0  0  0
   58.0590   34.1450   45.0480 C   0  0  0  0  0  0  0  0  0  0  0  0
   57.7810   33.1340   44.1360 C   0  0  0  0  0  0  0  0  0  0  0  0
   58.1160   31.8150   44.4310 C   0  0  0  0  0  0  0  0  0  0  0  0
   58.7580   31.4740   45.6500 C   0  0  0  0  0  0  0  0  0  0  0  0
   59.1400   30.1790   45.9320 N   0  0  0  0  0  0  0  0  0  0  0  0
   59.1760   29.1680   44.8510 C   0  0  0  0  0  0  0  0  0  0  0  0
   59.5270   29.8310   47.2140 C   0  0  0  0  0  0  0  0  0  0  0  0
   59.6410   28.4740   47.6000 C   0  0  0  0  0  0  0  0  0  0  0  0
   60.0960   28.1200   48.8620 C   0  0  0  0  0  0  0  0  0  0  0  0
   60.4660   29.0990   49.7720 C   0  0  0  0  0  0  0  0  0  0  0  0
   60.3440   30.4610   49.4510 C   0  0  0  0  0  0  0  0  0  0  0  0
   60.7570   31.4500   50.3630 O   0  0  0  0  0  0  0  0  0  0  0  0
   61.2050   31.2380   51.7030 C   0  0  0  0  0  0  0  0  0  0  0  0
   60.4640   32.1590   52.7070 C   0  0  0  0  0  0  0  0  0  0  0  0
   59.0590   31.7600   53.0530 N   0  0  0  0  0  0  0  0  0  0  0  0
   58.7790   32.0520   54.4840 C   0  0  0  0  0  0  0  0  0  0  0  0
   58.9390   30.2800   52.8440 C   0  0  0  0  0  0  0  0  0  0  0  0
   57.5030   29.8610   52.4680 C   0  0  0  0  0  0  0  0  0  0  0  0
   57.0290   30.4500   51.2660 O   0  0  0  0  0  0  0  0  0  0  0  0
   57.6670   31.6780   50.9480 C   0  0  0  0  0  0  0  0  0  0  0  0
   58.0710   32.4910   52.1920 C   0  0  0  0  0  0  0  0  0  0  0  0
   59.8040   30.8390   48.1850 C   0  0  0  0  0  0  0  0  0  0  0  0
   63.5972   32.1234   50.1183 H   0  0  0  0  0  0  0  0  0  0  0  0
   65.0110   31.6451   49.1188 H   0  0  0  0  0  0  0  0  0  0  0  0
   64.4468   33.3505   49.1188 H   0  0  0  0  0  0  0  0  0  0  0  0
   63.8006   31.6029   47.1638 H   0  0  0  0  0  0  0  0  0  0  0  0
   62.4553   31.2613   48.3672 H   0  0  0  0  0  0  0  0  0  0  0  0
   63.8039   34.5628   46.7625 H   0  0  0  0  0  0  0  0  0  0  0  0
   63.6124   33.0874   45.7559 H   0  0  0  0  0  0  0  0  0  0  0  0
   62.3319   34.3472   45.7559 H   0  0  0  0  0  0  0  0  0  0  0  0
   62.2683   33.6995   49.5264 H   0  0  0  0  0  0  0  0  0  0  0  0
   62.5520   35.0586   48.3566 H   0  0  0  0  0  0  0  0  0  0  0  0
   60.2800   35.2076   49.2343 H   0  0  0  0  0  0  0  0  0  0  0  0
   60.2454   34.7359   47.4825 H   0  0  0  0  0  0  0  0  0  0  0  0
   59.2440   33.1260   49.7570 H   0  0  0  0  0  0  0  0  0  0  0  0
   58.8525   34.6401   46.9949 H   0  0  0  0  0  0  0  0  0  0  0  0
   57.8149   35.1892   44.8029 H   0  0  0  0  0  0  0  0  0  0  0  0
   57.2954   33.3762   43.1792 H   0  0  0  0  0  0  0  0  0  0  0  0
   57.8787   31.0227   43.7058 H   0  0  0  0  0  0  0  0  0  0  0  0
   59.2119   28.1609   45.2919 H   0  0  0  0  0  0  0  0  0  0  0  0
   58.2739   29.2640   44.2290 H   0  0  0  0  0  0  0  0  0  0  0  0
   60.0690   29.3279   44.2290 H   0  0  0  0  0  0  0  0  0  0  0  0
   59.3635   27.6849   46.8857 H   0  0  0  0  0  0  0  0  0  0  0  0
   60.1636   27.0584   49.1420 H   0  0  0  0  0  0  0  0  0  0  0  0
   60.8595   28.8055   50.7564 H   0  0  0  0  0  0  0  0  0  0  0  0
   61.0214   30.1891   51.9787 H   0  0  0  0  0  0  0  0  0  0  0  0
   62.2783   31.4747   51.7477 H   0  0  0  0  0  0  0  0  0  0  0  0
   61.0475   32.1787   53.6393 H   0  0  0  0  0  0  0  0  0  0  0  0
   60.3803   33.1354   52.2074 H   0  0  0  0  0  0  0  0  0  0  0  0
   59.4007   31.4037   55.1190 H   0  0  0  0  0  0  0  0  0  0  0  0
   59.0129   33.1058   54.6958 H   0  0  0  0  0  0  0  0  0  0  0  0
   57.7163   31.8625   54.6958 H   0  0  0  0  0  0  0  0  0  0  0  0
   59.6196   29.9800   52.0336 H   0  0  0  0  0  0  0  0  0  0  0  0
   59.2001   29.7824   53.7896 H   0  0  0  0  0  0  0  0  0  0  0  0
   57.4806   28.7675   52.3504 H   0  0  0  0  0  0  0  0  0  0  0  0
   56.8453   30.2117   53.2770 H   0  0  0  0  0  0  0  0  0  0  0  0
   58.5728   31.4603   50.3631 H   0  0  0  0  0  0  0  0  0  0  0  0
   56.9453   32.2844   50.3810 H   0  0  0  0  0  0  0  0  0  0  0  0
   58.5212   33.4395   51.8640 H   0  0  0  0  0  0  0  0  0  0  0  0
   57.1646   32.6629   52.7910 H   0  0  0  0  0  0  0  0  0  0  0  0
  1  2  1  0
  2  3  1  0
  3  4  1  0
  3  5  1  0
  5  6  1  0
  6  7  1  0
  7  8  1  0
  8  9  2  0
  9 10  1  0
 10 11  2  0
 11 12  1  0
 12 13  2  0
 13 14  1  0
 14 15  2  0
 15 16  1  0
 15 17  1  0
 17 18  2  0
 18 19  1  0
 19 20  2  0
 20 21  1  0
 21 22  1  0
 22 23  1  0
 23 24  1  0
 24 25  1  0
 25 26  1  0
 25 27  1  0
 27 28  1  0
 28 29  1  0
 29 30  1  0
 30 31  1  0
 21 32  2  0
 32  8  1  0
 14  9  1  0
 32 17  1  0
 31 25  1  0
  1 33  1  0
  1 34  1  0
  1 35  1  0
  2 36  1  0
  2 37  1  0
  4 38  1  0
  4 39  1  0
  4 40  1  0
  5 41  1  0
  5 42  1  0
  6 43  1  0
  6 44  1  0
  7 45  1  0
 10 46  1  0
 11 47  1  0
 12 48  1  0
 13 49  1  0
 16 50  1  0
 16 51  1  0
 16 52  1  0
 18 53  1  0
 19 54  1  0
 20 55  1  0
 23 56  1  0
 23 57  1  0
 24 58  1  0
 24 59  1  0
 26 60  1  0
 26 61  1  0
 26 62  1  0
 27 63  1  0
 27 64  1  0
 28 65  1  0
 28 66  1  0
 30 67  1  0
 30 68  1  0
 31 69  1  0
 31 70  1  0
M  CHG  2  15   1  25   1
M  END
>  <UniqueID>  (20) 
20

>  <SMILES>  (20) 
CCN(C)CCNc1c2ccccc2[n+](C)c2cccc(OCC[N+]3(C)CCOCC3)c12

>  <Energy>  (20) 
127.0127556582617

>  <Genealogy>  (20) 
CCN(C)CCNc1c2ccccc2[n+](C)c2cccc(OCC[N+]3(C)CCOCC3)c12 (3D coordinates assigned)
CCN(C)CCNc1c2ccccc2[n+](C)c2cccc(OCC[N+]3(C)CCOCC3)c12 (nonaromatic ring conformer: 127.0127556582617 kcal/mol)

>  <smiles>  (20) 
CCN(C)CCNc1c2ccccc2[n+](C)c2cccc(OCC[N+]3(C)CCOCC3)c12

>  <score_type>  (20) 
oracle

>  <origin>  (20) 
adg

>  <m_score__min__energy>  (20) 
-5.0800000000000001

>  <m_primary>  (20) 
energy

$$$$
20:0
     RDKit          3D

 57 60  0  0  0  0  0  0  0  0999 V2000
   58.1600   27.3870   43.4630 C   0  0  0  0  0  0  0  0  0  0  0  0
   57.4860   28.2340   44.5400 C   0  0  0  0  0  0  0  0  0  0  0  0
   58.2690   29.4460   44.8310 N   0  0  0  0  0  0  0  0  0  0  0  0
   58.2230   30.5720   43.8810 C   0  0  0  0  0  0  0  0  0  0  0  0
   57.0790   31.5340   44.2160 C   0  0  0  0  0  0  0  0  0  0  0  0
   57.2210   31.9880   45.5490 O   0  0  0  0  0  0  0  0  0  0  0  0
   57.3220   33.3950   45.5870 C   0  0  0  0  0  0  0  0  0  0  0  0
   57.9110   33.8140   46.9300 C   0  0  0  0  0  0  0  0  0  0  0  0
   58.5960   32.6920   47.5720 N   0  0  0  0  0  0  0  0  0  0  0  0
   59.6370   32.9420   48.5240 C   0  0  0  0  0  0  0  0  0  0  0  0
   60.9470   33.2810   48.1330 C   0  0  0  0  0  0  0  0  0  0  0  0
   61.2720   33.4480   46.7730 C   0  0  0  0  0  0  0  0  0  0  0  0
   62.5780   33.7370   46.3870 C   0  0  0  0  0  0  0  0  0  0  0  0
   63.5800   33.8560   47.3450 C   0  0  0  0  0  0  0  0  0  0  0  0
   63.2810   33.7180   48.7010 C   0  0  0  0  0  0  0  0  0  0  0  0
   61.9570   33.4590   49.1350 C   0  0  0  0  0  0  0  0  0  0  0  0
   61.6350   33.3640   50.4820 N   0  0  0  0  0  0  0  0  0  0  0  0
   62.6360   33.6700   51.5240 C   0  0  0  0  0  0  0  0  0  0  0  0
   60.3630   32.9710   50.8360 C   0  0  0  0  0  0  0  0  0  0  0  0
   59.8970   32.6890   52.1390 C   0  0  0  0  0  0  0  0  0  0  0  0
   58.5590   32.3090   52.1730 C   0  0  0  0  0  0  0  0  0  0  0  0
   57.9480   32.3010   50.6040 S   0  0  0  0  0  0  0  0  0  0  0  0
   59.3830   32.7870   49.8760 C   0  0  0  0  0  0  0  0  0  0  0  0
   59.0600   29.5280   46.0410 C   0  0  0  0  0  0  0  0  0  0  0  0
   60.3800   30.0180   46.0010 C   0  0  0  0  0  0  0  0  0  0  0  0
   61.1360   30.1170   47.1730 C   0  0  0  0  0  0  0  0  0  0  0  0
   60.5870   29.7280   48.3950 C   0  0  0  0  0  0  0  0  0  0  0  0
   59.2810   29.2370   48.4490 C   0  0  0  0  0  0  0  0  0  0  0  0
   58.5200   29.1350   47.2800 C   0  0  0  0  0  0  0  0  0  0  0  0
   58.7773   26.6112   43.9396 H   0  0  0  0  0  0  0  0  0  0  0  0
   57.3913   26.9106   42.8368 H   0  0  0  0  0  0  0  0  0  0  0  0
   58.7969   28.0290   42.8368 H   0  0  0  0  0  0  0  0  0  0  0  0
   56.4853   28.5285   44.1910 H   0  0  0  0  0  0  0  0  0  0  0  0
   57.4151   27.6356   45.4603 H   0  0  0  0  0  0  0  0  0  0  0  0
   59.1764   31.1188   43.9265 H   0  0  0  0  0  0  0  0  0  0  0  0
   58.0544   30.1689   42.8715 H   0  0  0  0  0  0  0  0  0  0  0  0
   57.1098   32.3936   43.5304 H   0  0  0  0  0  0  0  0  0  0  0  0
   56.1167   31.0126   44.1062 H   0  0  0  0  0  0  0  0  0  0  0  0
   57.9769   33.7399   44.7733 H   0  0  0  0  0  0  0  0  0  0  0  0
   56.3251   33.8428   45.4622 H   0  0  0  0  0  0  0  0  0  0  0  0
   58.6302   34.6306   46.7689 H   0  0  0  0  0  0  0  0  0  0  0  0
   57.0921   34.1471   47.5846 H   0  0  0  0  0  0  0  0  0  0  0  0
   58.5550   31.7420   47.1390 H   0  0  0  0  0  0  0  0  0  0  0  0
   60.4869   33.3492   46.0088 H   0  0  0  0  0  0  0  0  0  0  0  0
   62.8183   33.8716   45.3220 H   0  0  0  0  0  0  0  0  0  0  0  0
   64.6144   34.0602   47.0315 H   0  0  0  0  0  0  0  0  0  0  0  0
   64.0858   33.8117   49.4450 H   0  0  0  0  0  0  0  0  0  0  0  0
   62.1848   33.5321   52.5177 H   0  0  0  0  0  0  0  0  0  0  0  0
   63.4969   32.9940   51.4152 H   0  0  0  0  0  0  0  0  0  0  0  0
   62.9718   34.7118   51.4152 H   0  0  0  0  0  0  0  0  0  0  0  0
   60.5284   32.7624   53.0368 H   0  0  0  0  0  0  0  0  0  0  0  0
   57.9910   32.0545   53.0800 H   0  0  0  0  0  0  0  0  0  0  0  0
   60.8194   30.3251   45.0405 H   0  0  0  0  0  0  0  0  0  0  0  0
   62.1655   30.5023   47.1314 H   0  0  0  0  0  0  0  0  0  0  0  0
   61.1830   29.8081   49.3161 H   0  0  0  0  0  0  0  0  0  0  0  0
   58.8497   28.9297   49.4131 H   0  0  0  0  0  0  0  0  0  0  0  0
   57.4926   28.7450   47.3292 H   0  0  0  0  0  0  0  0  0  0  0  0
  1  2  1  0
  2  3  1  0
  3  4  1  0
  4  5  1  0
  5  6  1  0
  6  7  1  0
  7  8  1  0
  8  9  1  0
  9 10  1  0
 10 11  1  0
 11 12  2  0
 12 13  1  0
 13 14  2  0
 14 15  1  0
 15 16  2  0
 16 17  1  0
 17 18  1  0
 17 19  2  0
 19 20  1  0
 20 21  2  0
 21 22  1  0
 22 23  1  0
  3 24  1  0
 24 25  2  0
 25 26  1  0
 26 27  2  0
 27 28  1  0
 28 29  2  0
 23 10  2  0
 29 24  1  0
 16 11  1  0
 23 19  1  0
  1 30  1  0
  1 31  1  0
  1 32  1  0
  2 33  1  0
  2 34  1  0
  4 35  1  0
  4 36  1  0
  5 37  1  0
  5 38  1  0
  7 39  1  0
  7 40  1  0
  8 41  1  0
  8 42  1  0
  9 43  1  0
 12 44  1  0
 13 45  1  0
 14 46  1  0
 15 47  1  0
 18 48  1  0
 18 49  1  0
 18 50  1  0
 20 51  1  0
 21 52  1  0
 25 53  1  0
 26 54  1  0
 27 55  1  0
 28 56  1  0
 29 57  1  0
M  CHG  1  17   1
M  END
>  <UniqueID>  (21) 
21

>  <SMILES>  (21) 
CCN(CCOCCNc1c2ccccc2[n+](C)c2ccsc12)c1ccccc1

>  <Energy>  (21) 
104.87670502549788

>  <Genealogy>  (21) 
CCN(CCOCCNc1c2ccccc2[n+](C)c2ccsc12)c1ccccc1 (3D coordinates assigned)
CCN(CCOCCNc1c2ccccc2[n+](C)c2ccsc12)c1ccccc1 (optimized conformer: 104.87670502549788 kcal/mol)

>  <smiles>  (21) 
CCN(CCOCCNc1c2ccccc2[n+](C)c2ccsc12)c1ccccc1

>  <score_type>  (21) 
oracle

>  <origin>  (21) 
adg

>  <m_score__min__energy>  (21) 
-6.1900000000000004

>  <m_primary>  (21) 
energy

$$$$
21:0
     RDKit          3D

 31 33  0  0  0  0  0  0  0  0999 V2000
   59.6330   27.4340   47.6530 C   0  0  0  0  0  0  0  0  0  0  0  0
   58.6320   27.4970   46.9920 C   0  0  0  0  0  0  0  0  0  0  0  0
   57.3970   27.6000   46.1600 C   0  0  0  0  0  0  0  0  0  0  0  0
   57.3510   28.6240   45.2550 N   0  0  0  0  0  0  0  0  0  0  0  0
   57.3040   29.6470   44.3490 C   0  0  0  0  0  0  0  0  0  0  0  0
   56.9020   29.6960   43.0470 C   0  0  0  0  0  0  0  0  0  0  0  0
   56.9260   30.8220   42.2420 C   0  0  0  0  0  0  0  0  0  0  0  0
   57.3940   31.9740   42.8190 C   0  0  0  0  0  0  0  0  0  0  0  0
   57.8190   32.0290   44.1170 C   0  0  0  0  0  0  0  0  0  0  0  0
   58.2660   33.2400   44.5930 C   0  0  0  0  0  0  0  0  0  0  0  0
   58.6930   33.2880   45.9070 C   0  0  0  0  0  0  0  0  0  0  0  0
   59.1400   34.5090   46.3710 C   0  0  0  0  0  0  0  0  0  0  0  0
   59.5780   34.5740   47.7030 C   0  0  0  0  0  0  0  0  0  0  0  0
   59.5150   33.4070   48.4120 C   0  0  0  0  0  0  0  0  0  0  0  0
   59.0660   32.2050   47.9300 C   0  0  0  0  0  0  0  0  0  0  0  0
   58.6460   32.1710   46.6320 N   0  0  0  0  0  0  0  0  0  0  0  0
   58.2110   30.9810   46.1790 C   0  0  0  0  0  0  0  0  0  0  0  0
   57.7750   30.8940   44.8620 C   0  0  0  0  0  0  0  0  0  0  0  0
   60.5497   27.3763   48.2583 H   0  0  0  0  0  0  0  0  0  0  0  0
   57.2906   26.6575   45.6029 H   0  0  0  0  0  0  0  0  0  0  0  0
   56.5844   27.8063   46.8722 H   0  0  0  0  0  0  0  0  0  0  0  0
   56.6450   27.8300   44.4410 H   0  0  0  0  0  0  0  0  0  0  0  0
   56.5276   28.7636   42.5992 H   0  0  0  0  0  0  0  0  0  0  0  0
   56.5877   30.7938   41.1957 H   0  0  0  0  0  0  0  0  0  0  0  0
   57.4290   32.8913   42.2129 H   0  0  0  0  0  0  0  0  0  0  0  0
   58.2830   34.1347   43.9533 H   0  0  0  0  0  0  0  0  0  0  0  0
   59.1524   35.3969   45.7218 H   0  0  0  0  0  0  0  0  0  0  0  0
   59.9497   35.5081   48.1495 H   0  0  0  0  0  0  0  0  0  0  0  0
   59.8534   33.4349   49.4583 H   0  0  0  0  0  0  0  0  0  0  0  0
   59.0451   31.3055   48.5629 H   0  0  0  0  0  0  0  0  0  0  0  0
   58.2007   30.0982   46.8352 H   0  0  0  0  0  0  0  0  0  0  0  0
  1  2  3  0
  2  3  1  0
  3  4  1  0
  4  5  1  0
  5  6  2  0
  6  7  1  0
  7  8  2  0
  8  9  1  0
  9 10  2  0
 10 11  1  0
 11 12  2  0
 12 13  1  0
 13 14  2  0
 14 15  1  0
 15 16  2  0
 16 17  1  0
 17 18  2  0
 18  5  1  0
 18  9  1  0
 16 11  1  0
  1 19  1  0
  3 20  1  0
  3 21  1  0
  4 22  1  0
  6 23  1  0
  7 24  1  0
  8 25  1  0
 10 26  1  0
 12 27  1  0
 13 28  1  0
 14 29  1  0
 15 30  1  0
 17 31  1  0
M  CHG  1  16   1
M  END
>  <UniqueID>  (22) 
22

>  <SMILES>  (22) 
C#CCNc1cccc2cc3cccc[n+]3cc12

>  <Energy>  (22) 
202.538671103545

>  <Genealogy>  (22) 
C#CCNc1cccc2cc3cccc[n+]3cc12 (3D coordinates assigned)
C#CCNc1cccc2cc3cccc[n+]3cc12 (optimized conformer: 202.538671103545 kcal/mol)

>  <smiles>  (22) 
C#CCNc1cccc2cc3cccc[n+]3cc12

>  <score_type>  (22) 
oracle

>  <origin>  (22) 
adg

>  <m_score__min__energy>  (22) 
-5.0999999999999996

>  <m_primary>  (22) 
energy

$$$$
22:0
     RDKit          3D

 25 26  0  0  0  0  0  0  0  0999 V2000
   61.5260   33.8410   48.0520 C   0  0  0  0  0  0  0  0  0  0  0  0
   60.2490   34.3330   48.7240 C   0  0  0  0  0  0  0  0  0  0  0  0
   59.2890   34.8100   47.7270 N   0  0  0  0  0  0  0  0  0  0  0  0
   58.8900   34.0770   46.5510 C   0  0  0  0  0  0  0  0  0  0  0  0
   59.2680   34.5600   45.2870 C   0  0  0  0  0  0  0  0  0  0  0  0
   58.9000   33.8820   44.1230 C   0  0  0  0  0  0  0  0  0  0  0  0
   58.1410   32.7090   44.2070 C   0  0  0  0  0  0  0  0  0  0  0  0
   57.7530   32.0040   43.0630 C   0  0  0  0  0  0  0  0  0  0  0  0
   56.9940   30.8410   43.2010 C   0  0  0  0  0  0  0  0  0  0  0  0
   56.6410   30.4120   44.4840 C   0  0  0  0  0  0  0  0  0  0  0  0
   55.9570   29.3640   44.6300 O   0  0  0  0  0  0  0  0  0  0  0  0
   57.0230   31.1020   45.5560 O   0  0  0  0  0  0  0  0  0  0  0  0
   57.7480   32.2160   45.4690 C   0  0  0  0  0  0  0  0  0  0  0  0
   58.1200   32.8990   46.6320 C   0  0  0  0  0  0  0  0  0  0  0  0
   62.2597   33.5583   48.8213 H   0  0  0  0  0  0  0  0  0  0  0  0
   61.2969   32.9668   47.4249 H   0  0  0  0  0  0  0  0  0  0  0  0
   61.9427   34.6429   47.4249 H   0  0  0  0  0  0  0  0  0  0  0  0
   59.7984   33.5058   49.2920 H   0  0  0  0  0  0  0  0  0  0  0  0
   60.5022   35.1654   49.3970 H   0  0  0  0  0  0  0  0  0  0  0  0
   58.8600   35.7490   47.8950 H   0  0  0  0  0  0  0  0  0  0  0  0
   59.8611   35.4835   45.2134 H   0  0  0  0  0  0  0  0  0  0  0  0
   59.2066   34.2697   43.1403 H   0  0  0  0  0  0  0  0  0  0  0  0
   58.0432   32.3627   42.0644 H   0  0  0  0  0  0  0  0  0  0  0  0
   56.6786   30.2710   42.3146 H   0  0  0  0  0  0  0  0  0  0  0  0
   57.8099   32.5147   47.6149 H   0  0  0  0  0  0  0  0  0  0  0  0
  1  2  1  0
  2  3  1  0
  3  4  1  0
  4  5  2  0
  5  6  1  0
  6  7  2  0
  7  8  1  0
  8  9  2  0
  9 10  1  0
 10 11  2  0
 10 12  1  0
 12 13  1  0
 13 14  2  0
 14  4  1  0
 13  7  1  0
  1 15  1  0
  1 16  1  0
  1 17  1  0
  2 18  1  0
  2 19  1  0
  3 20  1  0
  5 21  1  0
  6 22  1  0
  8 23  1  0
  9 24  1  0
 14 25  1  0
M  END
>  <UniqueID>  (23) 
23

>  <SMILES>  (23) 
CCNc1ccc2ccc(=O)oc2c1

>  <Energy>  (23) 
26.54990894488192

>  <Genealogy>  (23) 
CCNc1ccc2ccc(=O)oc2c1 (3D coordinates assigned)
CCNc1ccc2ccc(=O)oc2c1 (optimized conformer: 26.54990894488192 kcal/mol)

>  <smiles>  (23) 
CCNc1ccc2ccc(=O)oc2c1

>  <score_type>  (23) 
oracle

>  <origin>  (23) 
adg

>  <m_score__min__energy>  (23) 
-6.2800000000000002

>  <m_primary>  (23) 
energy

$$$$
23:0
     RDKit          3D

101107  0  0  0  0  0  0  0  0999 V2000
   59.0070   34.9550   44.8810 C   0  0  0  0  0  0  0  0  0  0  0  0
   60.0110   35.2140   46.0080 C   0  0  0  0  0  0  0  0  0  0  0  0
   60.9770   34.1100   46.1630 N   0  0  0  0  0  0  0  0  0  0  0  0
   60.6550   33.2120   47.2980 C   0  0  0  0  0  0  0  0  0  0  0  0
   59.2170   33.3980   47.8100 C   0  0  0  0  0  0  0  0  0  0  0  0
   58.6680   32.1360   48.3110 N   0  0  0  0  0  0  0  0  0  0  0  0
   58.7630   30.9220   47.5420 C   0  0  0  0  0  0  0  0  0  0  0  0
   58.2910   30.8850   46.2170 C   0  0  0  0  0  0  0  0  0  0  0  0
   57.7470   32.0380   45.6080 C   0  0  0  0  0  0  0  0  0  0  0  0
   57.3090   32.0030   44.2870 C   0  0  0  0  0  0  0  0  0  0  0  0
   57.4150   30.8320   43.5460 C   0  0  0  0  0  0  0  0  0  0  0  0
   57.9400   29.6790   44.1290 C   0  0  0  0  0  0  0  0  0  0  0  0
   58.3550   29.6680   45.4860 C   0  0  0  0  0  0  0  0  0  0  0  0
   58.8190   28.5150   46.0950 N   0  0  0  0  0  0  0  0  0  0  0  0
   58.6230   27.2040   45.4360 C   0  0  0  0  0  0  0  0  0  0  0  0
   59.4510   28.5890   47.3250 C   0  0  0  0  0  0  0  0  0  0  0  0
   60.1790   27.4950   47.8600 C   0  0  0  0  0  0  0  0  0  0  0  0
   60.7810   27.5730   49.1160 C   0  0  0  0  0  0  0  0  0  0  0  0
   60.6890   28.7450   49.8740 C   0  0  0  0  0  0  0  0  0  0  0  0
   61.2470   28.8650   51.1530 O   0  0  0  0  0  0  0  0  0  0  0  0
   61.3830   30.0800   51.8870 C   0  0  0  0  0  0  0  0  0  0  0  0
   62.1440   31.0870   51.0010 C   0  0  0  0  0  0  0  0  0  0  0  0
   63.4980   31.5220   51.4790 N   0  0  1  0  0  0  0  0  0  0  0  0
   64.3690   30.3160   51.3850 C   0  0  0  0  0  0  0  0  0  0  0  0
   64.0530   32.5850   50.5810 C   0  0  0  0  0  0  0  0  0  0  0  0
   65.2450   33.3210   51.2290 C   0  0  0  0  0  0  0  0  0  0  0  0
   64.8790   34.0330   52.5010 N   0  0  2  0  0  0  0  0  0  0  0  0
   64.6510   35.4750   52.2070 C   0  0  0  0  0  0  0  0  0  0  0  0
   65.9690   33.8930   53.5270 C   0  0  0  0  0  0  0  0  0  0  0  0
   66.8310   32.6450   53.3890 C   0  0  0  0  0  0  0  0  0  0  0  0
   68.0880   32.7170   52.7730 C   0  0  0  0  0  0  0  0  0  0  0  0
   68.8420   31.5650   52.5740 C   0  0  0  0  0  0  0  0  0  0  0  0
   68.3570   30.3160   52.9880 C   0  0  0  0  0  0  0  0  0  0  0  0
   69.0960   29.1650   52.7240 C   0  0  0  0  0  0  0  0  0  0  0  0
   68.5710   27.9140   53.0350 C   0  0  0  0  0  0  0  0  0  0  0  0
   69.2750   26.7540   52.6780 C   0  0  0  0  0  0  0  0  0  0  0  0
   68.7400   25.4940   52.9430 C   0  0  0  0  0  0  0  0  0  0  0  0
   67.4900   25.3840   53.5520 C   0  0  0  0  0  0  0  0  0  0  0  0
   66.7780   26.5300   53.9160 C   0  0  0  0  0  0  0  0  0  0  0  0
   67.3190   27.8250   53.6990 C   0  0  0  0  0  0  0  0  0  0  0  0
   66.6600   28.9770   54.0880 N   0  0  0  0  0  0  0  0  0  0  0  0
   65.4990   28.8910   55.0050 C   0  0  0  0  0  0  0  0  0  0  0  0
   67.1050   30.2110   53.6430 C   0  0  0  0  0  0  0  0  0  0  0  0
   66.3350   31.3930   53.7940 C   0  0  0  0  0  0  0  0  0  0  0  0
   63.6050   33.4920   53.0870 C   0  0  0  0  0  0  0  0  0  0  0  0
   63.4620   31.9630   52.9160 C   0  0  0  0  0  0  0  0  0  0  0  0
   60.0180   29.8470   49.3460 C   0  0  0  0  0  0  0  0  0  0  0  0
   59.4000   29.7900   48.0800 C   0  0  0  0  0  0  0  0  0  0  0  0
   58.0276   34.7023   45.3133 H   0  0  0  0  0  0  0  0  0  0  0  0
   58.9118   35.8580   44.2601 H   0  0  0  0  0  0  0  0  0  0  0  0
   59.3605   34.1186   44.2601 H   0  0  0  0  0  0  0  0  0  0  0  0
   60.5635   36.1384   45.7838 H   0  0  0  0  0  0  0  0  0  0  0  0
   59.4462   35.3009   46.9479 H   0  0  0  0  0  0  0  0  0  0  0  0
   61.9440   34.5020   46.2310 H   0  0  0  0  0  0  0  0  0  0  0  0
   60.9440   33.5450   45.2830 H   0  0  0  0  0  0  0  0  0  0  0  0
   60.7797   32.1698   46.9690 H   0  0  0  0  0  0  0  0  0  0  0  0
   61.3375   33.4613   48.1239 H   0  0  0  0  0  0  0  0  0  0  0  0
   59.2185   34.1375   48.6243 H   0  0  0  0  0  0  0  0  0  0  0  0
   58.5908   33.7440   46.9745 H   0  0  0  0  0  0  0  0  0  0  0  0
   58.3890   32.0740   49.3150 H   0  0  0  0  0  0  0  0  0  0  0  0
   57.6688   32.9724   46.1832 H   0  0  0  0  0  0  0  0  0  0  0  0
   56.8777   32.9050   43.8283 H   0  0  0  0  0  0  0  0  0  0  0  0
   57.0840   30.8146   42.4971 H   0  0  0  0  0  0  0  0  0  0  0  0
   58.0339   28.7631   43.5271 H   0  0  0  0  0  0  0  0  0  0  0  0
   58.5062   26.4227   46.2014 H   0  0  0  0  0  0  0  0  0  0  0  0
   57.7203   27.2404   44.8084 H   0  0  0  0  0  0  0  0  0  0  0  0
   59.4969   26.9748   44.8084 H   0  0  0  0  0  0  0  0  0  0  0  0
   60.2704   26.5687   47.2739 H   0  0  0  0  0  0  0  0  0  0  0  0
   61.3316   26.7073   49.5128 H   0  0  0  0  0  0  0  0  0  0  0  0
   60.3888   30.4789   52.1368 H   0  0  0  0  0  0  0  0  0  0  0  0
   61.9322   29.9023   52.8234 H   0  0  0  0  0  0  0  0  0  0  0  0
   62.2731   30.6270   50.0102 H   0  0  0  0  0  0  0  0  0  0  0  0
   61.5294   31.9993   51.0099 H   0  0  0  0  0  0  0  0  0  0  0  0
   64.6215   29.9663   52.3969 H   0  0  0  0  0  0  0  0  0  0  0  0
   63.8360   29.5200   50.8444 H   0  0  0  0  0  0  0  0  0  0  0  0
   65.2922   30.5717   50.8444 H   0  0  0  0  0  0  0  0  0  0  0  0
   63.2602   33.3155   50.3625 H   0  0  0  0  0  0  0  0  0  0  0  0
   64.4108   32.1009   49.6603 H   0  0  0  0  0  0  0  0  0  0  0  0
   65.6306   34.0611   50.5124 H   0  0  0  0  0  0  0  0  0  0  0  0
   65.9991   32.5618   51.4840 H   0  0  0  0  0  0  0  0  0  0  0  0
   64.5629   36.0323   53.1513 H   0  0  0  0  0  0  0  0  0  0  0  0
   65.4980   35.8692   51.6263 H   0  0  0  0  0  0  0  0  0  0  0  0
   63.7237   35.5887   51.6263 H   0  0  0  0  0  0  0  0  0  0  0  0
   66.6263   34.7714   53.4476 H   0  0  0  0  0  0  0  0  0  0  0  0
   65.4638   33.8098   54.5006 H   0  0  0  0  0  0  0  0  0  0  0  0
   68.4808   33.6907   52.4448 H   0  0  0  0  0  0  0  0  0  0  0  0
   69.8264   31.6343   52.0881 H   0  0  0  0  0  0  0  0  0  0  0  0
   70.0946   29.2448   52.2697 H   0  0  0  0  0  0  0  0  0  0  0  0
   70.2551   26.8392   52.1860 H   0  0  0  0  0  0  0  0  0  0  0  0
   69.3027   24.5884   52.6723 H   0  0  0  0  0  0  0  0  0  0  0  0
   67.0622   24.3895   53.7469 H   0  0  0  0  0  0  0  0  0  0  0  0
   65.7846   26.4276   54.3771 H   0  0  0  0  0  0  0  0  0  0  0  0
   65.8517   28.9171   56.0466 H   0  0  0  0  0  0  0  0  0  0  0  0
   64.8254   29.7417   54.8245 H   0  0  0  0  0  0  0  0  0  0  0  0
   64.9581   27.9503   54.8245 H   0  0  0  0  0  0  0  0  0  0  0  0
   65.3300   31.3288   54.2367 H   0  0  0  0  0  0  0  0  0  0  0  0
   62.7549   33.9812   52.5890 H   0  0  0  0  0  0  0  0  0  0  0  0
   63.6251   33.7014   54.1667 H   0  0  0  0  0  0  0  0  0  0  0  0
   62.5025   31.6504   53.3537 H   0  0  0  0  0  0  0  0  0  0  0  0
   64.3191   31.4957   53.4230 H   0  0  0  0  0  0  0  0  0  0  0  0
   59.9698   30.7790   49.9283 H   0  0  0  0  0  0  0  0  0  0  0  0
  1  2  1  0
  2  3  1  0
  3  4  1  0
  4  5  1  0
  5  6  1  0
  6  7  1  0
  7  8  2  0
  8  9  1  0
  9 10  2  0
 10 11  1  0
 11 12  2  0
 12 13  1  0
 13 14  2  0
 14 15  1  0
 14 16  1  0
 16 17  2  0
 17 18  1  0
 18 19  2  0
 19 20  1  0
 20 21  1  0
 21 22  1  0
 23 22  1  6
 23 24  1  0
 23 25  1  0
 25 26  1  0
 26 27  1  0
 27 28  1  6
 27 29  1  0
 29 30  1  0
 30 31  2  0
 31 32  1  0
 32 33  2  0
 33 34  1  0
 34 35  2  0
 35 36  1  0
 36 37  2  0
 37 38  1  0
 38 39  2  0
 39 40  1  0
 40 41  2  0
 41 42  1  0
 41 43  1  0
 43 44  2  0
 27 45  1  0
 45 46  1  0
 19 47  1  0
 47 48  2  0
 48  7  1  0
 13  8  1  0
 48 16  1  0
 46 23  1  0
 44 30  1  0
 43 33  1  0
 40 35  1  0
  1 49  1  0
  1 50  1  0
  1 51  1  0
  2 52  1  0
  2 53  1  0
  3 54  1  0
  3 55  1  0
  4 56  1  0
  4 57  1  0
  5 58  1  0
  5 59  1  0
  6 60  1  0
  9 61  1  0
 10 62  1  0
 11 63  1  0
 12 64  1  0
 15 65  1  0
 15 66  1  0
 15 67  1  0
 17 68  1  0
 18 69  1  0
 21 70  1  0
 21 71  1  0
 22 72  1  0
 22 73  1  0
 24 74  1  0
 24 75  1  0
 24 76  1  0
 25 77  1  0
 25 78  1  0
 26 79  1  0
 26 80  1  0
 28 81  1  0
 28 82  1  0
 28 83  1  0
 29 84  1  0
 29 85  1  0
 31 86  1  0
 32 87  1  0
 34 88  1  0
 36 89  1  0
 37 90  1  0
 38 91  1  0
 39 92  1  0
 42 93  1  0
 42 94  1  0
 42 95  1  0
 44 96  1  0
 45 97  1  0
 45 98  1  0
 46 99  1  0
 46100  1  0
 47101  1  0
M  CHG  5   3   1  14   1  23   1  27   1  41   1
M  END
>  <UniqueID>  (24) 
24

>  <SMILES>  (24) 
CC[NH2+]CCNc1c2ccccc2[n+](C)c2ccc(OCC[N+]3(C)CC[N+](C)(Cc4ccc5cc6ccccc6[n+](C)c5c4)CC3)cc12

>  <Energy>  (24) 
184.14914052670284

>  <Genealogy>  (24) 
CC[NH2+]CCNc1c2ccccc2[n+](C)c2ccc(OCC[N+]3(C)CC[N+](C)(Cc4ccc5cc6ccccc6[n+](C)c5c4)CC3)cc12 (protonated)
CC[NH2+]CCNc1c2ccccc2[n+](C)c2ccc(OCC[N+]3(C)CC[N+](C)(Cc4ccc5cc6ccccc6[n+](C)c5c4)CC3)cc12 (3D coordinates assigned)
CC[NH2+]CCNc1c2ccccc2[n+](C)c2ccc(OCC[N+]3(C)CC[N+](C)(Cc4ccc5cc6ccccc6[n+](C)c5c4)CC3)cc12 (nonaromatic ring conformer: 184.14914052670284 kcal/mol)

>  <smiles>  (24) 
CCNCCNc1c2ccccc2[n+](C)c2ccc(OCC[N+]3(C)CC[N+](C)(Cc4ccc5cc6ccccc6[n+](C)c5c4)CC3)cc12

>  <score_type>  (24) 
oracle

>  <origin>  (24) 
adg

>  <m_score__min__energy>  (24) 
-2.7999999999999998

>  <m_primary>  (24) 
energy

$$$$
24:0
     RDKit          3D

 71 75  0  0  0  0  0  0  0  0999 V2000
   56.9930   32.6890   45.2400 C   0  0  0  0  0  0  0  0  0  0  0  0
   57.5020   33.9070   46.0030 C   0  0  0  0  0  0  0  0  0  0  0  0
   58.8010   34.3390   45.4620 N   0  0  0  0  0  0  0  0  0  0  0  0
   59.2100   33.8660   44.1380 C   0  0  0  0  0  0  0  0  0  0  0  0
   59.7520   35.1150   46.2360 C   0  0  0  0  0  0  0  0  0  0  0  0
   60.0300   36.2820   45.8460 O   0  0  0  0  0  0  0  0  0  0  0  0
   60.3320   34.5840   47.5480 C   0  0  1  0  0  0  0  0  0  0  0  0
   59.2600   34.2720   48.6050 C   0  0  0  0  0  0  0  0  0  0  0  0
   59.8870   34.0610   50.0120 C   0  0  1  0  0  0  0  0  0  0  0  0
   59.1960   32.8840   50.7320 C   0  0  0  0  0  0  0  0  0  0  0  0
   59.9370   32.4390   51.9760 C   0  0  0  0  0  0  0  0  0  0  0  0
   60.3620   31.2890   52.0350 O   0  0  0  0  0  0  0  0  0  0  0  0
   60.1710   33.3600   53.0790 N   0  0  0  0  0  0  0  0  0  0  0  0
   59.0090   34.2560   53.2520 C   0  0  0  0  0  0  0  0  0  0  0  0
   59.3050   35.3600   54.2960 C   0  0  0  0  0  0  0  0  0  0  0  0
   60.3390   34.9230   55.3500 C   0  0  0  0  0  0  0  0  0  0  0  0
   60.2580   33.4180   55.6130 C   0  0  0  0  0  0  0  0  0  0  0  0
   60.4750   32.5990   54.3200 C   0  0  0  0  0  0  0  0  0  0  0  0
   61.3930   33.8670   49.9770 C   0  0  0  0  0  0  0  0  0  0  0  0
   62.0760   34.1800   50.9930 O   0  0  0  0  0  0  0  0  0  0  0  0
   62.0520   33.3290   48.8090 N   0  0  0  0  0  0  0  0  0  0  0  0
   63.0390   32.2550   49.0450 C   0  0  0  0  0  0  0  0  0  0  0  0
   62.3360   30.8900   48.9970 C   0  0  0  0  0  0  0  0  0  0  0  0
   61.3120   30.8650   47.8990 C   0  0  0  0  0  0  0  0  0  0  0  0
   60.7730   31.9920   47.2750 C   0  0  0  0  0  0  0  0  0  0  0  0
   59.7350   31.6260   46.4760 N   0  0  0  0  0  0  0  0  0  0  0  0
   59.6290   30.2910   46.5980 C   0  0  0  0  0  0  0  0  0  0  0  0
   58.6860   29.4660   45.9900 C   0  0  0  0  0  0  0  0  0  0  0  0
   58.7260   28.0890   46.2850 C   0  0  0  0  0  0  0  0  0  0  0  0
   57.5760   27.0020   45.5330 Cl  0  0  0  0  0  0  0  0  0  0  0  0
   59.6920   27.5780   47.1850 C   0  0  0  0  0  0  0  0  0  0  0  0
   60.6230   28.4380   47.7920 C   0  0  0  0  0  0  0  0  0  0  0  0
   60.5660   29.7920   47.4650 C   0  0  0  0  0  0  0  0  0  0  0  0
   61.3620   33.3900   47.4900 C   0  0  1  0  0  0  0  0  0  0  0  0
   62.4030   33.6690   46.3810 C   0  0  0  0  0  0  0  0  0  0  0  0
   56.6705   31.9172   45.9544 H   0  0  0  0  0  0  0  0  0  0  0  0
   56.1420   32.9818   44.6076 H   0  0  0  0  0  0  0  0  0  0  0  0
   57.7993   32.2892   44.6076 H   0  0  0  0  0  0  0  0  0  0  0  0
   56.7760   34.7274   45.9038 H   0  0  0  0  0  0  0  0  0  0  0  0
   57.6252   33.6409   47.0632 H   0  0  0  0  0  0  0  0  0  0  0  0
   59.9258   33.0382   44.2493 H   0  0  0  0  0  0  0  0  0  0  0  0
   58.3264   33.5148   43.5850 H   0  0  0  0  0  0  0  0  0  0  0  0
   59.6851   34.6897   43.5850 H   0  0  0  0  0  0  0  0  0  0  0  0
   60.9350   35.4556   47.8426 H   0  0  0  0  0  0  0  0  0  0  0  0
   58.5508   35.1115   48.6526 H   0  0  0  0  0  0  0  0  0  0  0  0
   58.7497   33.3423   48.3131 H   0  0  0  0  0  0  0  0  0  0  0  0
   59.7145   34.9879   50.5787 H   0  0  0  0  0  0  0  0  0  0  0  0
   58.1812   33.1956   51.0202 H   0  0  0  0  0  0  0  0  0  0  0  0
   59.1797   32.0334   50.0347 H   0  0  0  0  0  0  0  0  0  0  0  0
   60.9960   33.9620   52.8480 H   0  0  0  0  0  0  0  0  0  0  0  0
   58.7732   34.7284   52.2870 H   0  0  0  0  0  0  0  0  0  0  0  0
   58.1576   33.6579   53.6089 H   0  0  0  0  0  0  0  0  0  0  0  0
   59.6915   36.2459   53.7707 H   0  0  0  0  0  0  0  0  0  0  0  0
   58.3649   35.5767   54.8244 H   0  0  0  0  0  0  0  0  0  0  0  0
   61.3476   35.1702   54.9873 H   0  0  0  0  0  0  0  0  0  0  0  0
   60.1243   35.4531   56.2896 H   0  0  0  0  0  0  0  0  0  0  0  0
   61.0321   33.1417   56.3441 H   0  0  0  0  0  0  0  0  0  0  0  0
   59.2530   33.1909   55.9981 H   0  0  0  0  0  0  0  0  0  0  0  0
   61.5265   32.2782   54.2832 H   0  0  0  0  0  0  0  0  0  0  0  0
   59.7804   31.7468   54.3558 H   0  0  0  0  0  0  0  0  0  0  0  0
   63.8159   32.2943   48.2672 H   0  0  0  0  0  0  0  0  0  0  0  0
   63.5007   32.3937   50.0337 H   0  0  0  0  0  0  0  0  0  0  0  0
   63.0833   30.1040   48.8132 H   0  0  0  0  0  0  0  0  0  0  0  0
   61.8313   30.7154   49.9587 H   0  0  0  0  0  0  0  0  0  0  0  0
   59.0850   32.2180   45.9260 H   0  0  0  0  0  0  0  0  0  0  0  0
   57.9334   29.8767   45.3009 H   0  0  0  0  0  0  0  0  0  0  0  0
   59.7139   26.5016   47.4105 H   0  0  0  0  0  0  0  0  0  0  0  0
   61.3717   28.0556   48.5014 H   0  0  0  0  0  0  0  0  0  0  0  0
   63.3682   33.9277   46.8408 H   0  0  0  0  0  0  0  0  0  0  0  0
   62.5231   32.7714   45.7567 H   0  0  0  0  0  0  0  0  0  0  0  0
   62.0581   34.5064   45.7567 H   0  0  0  0  0  0  0  0  0  0  0  0
  1  2  1  0
  2  3  1  0
  3  4  1  0
  3  5  1  0
  5  6  2  0
  5  7  1  0
  7  8  1  0
  8  9  1  0
  9 10  1  0
 10 11  1  0
 11 12  2  0
 11 13  1  0
 13 14  1  0
 14 15  1  0
 15 16  1  0
 16 17  1  0
 17 18  1  0
  9 19  1  0
 19 20  2  0
 19 21  1  0
 21 22  1  0
 22 23  1  0
 23 24  1  0
 24 25  2  0
 25 26  1  0
 26 27  1  0
 27 28  2  0
 28 29  1  0
 29 30  1  0
 29 31  2  0
 31 32  1  0
 32 33  2  0
 25 34  1  0
 34 35  1  6
 34  7  1  0
 18 13  1  0
 34 21  1  0
 33 24  1  0
 33 27  1  0
  1 36  1  0
  1 37  1  0
  1 38  1  0
  2 39  1  0
  2 40  1  0
  4 41  1  0
  4 42  1  0
  4 43  1  0
  7 44  1  1
  8 45  1  0
  8 46  1  0
  9 47  1  1
 10 48  1  0
 10 49  1  0
 13 50  1  0
 14 51  1  0
 14 52  1  0
 15 53  1  0
 15 54  1  0
 16 55  1  0
 16 56  1  0
 17 57  1  0
 17 58  1  0
 18 59  1  0
 18 60  1  0
 22 61  1  0
 22 62  1  0
 23 63  1  0
 23 64  1  0
 26 65  1  0
 28 66  1  0
 31 67  1  0
 32 68  1  0
 35 69  1  0
 35 70  1  0
 35 71  1  0
M  CHG  1  13   1
M  END
>  <UniqueID>  (25) 
25

>  <SMILES>  (25) 
CCN(C)C(=O)[C@H]1C[C@@H](CC(=O)[NH+]2CCCCC2)C(=O)N2CCc3c([nH]c4cc(Cl)ccc34)C12C

>  <Energy>  (25) 
129.12641990570785

>  <Genealogy>  (25) 
CCN(C)C(=O)C1CC(CC(=O)[NH+]2CCCCC2)C(=O)N2CCc3c([nH]c4cc(Cl)ccc34)C12C (protonated)
CCN(C)C(=O)[C@H]1C[C@@H](CC(=O)[NH+]2CCCCC2)C(=O)N2CCc3c([nH]c4cc(Cl)ccc34)C12C (chirality)
CCN(C)C(=O)[C@H]1C[C@@H](CC(=O)[NH+]2CCCCC2)C(=O)N2CCc3c([nH]c4cc(Cl)ccc34)C12C (3D coordinates assigned)
CCN(C)C(=O)[C@H]1C[C@@H](CC(=O)[NH+]2CCCCC2)C(=O)N2CCc3c([nH]c4cc(Cl)ccc34)C12C (nonaromatic ring conformer: 129.12641990570785 kcal/mol)

>  <smiles>  (25) 
CCN(C)C(=O)C1CC(CC(=O)N2CCCCC2)C(=O)N2CCc3c([nH]c4cc(Cl)ccc34)C12C

>  <score_type>  (25) 
oracle

>  <origin>  (25) 
adg

>  <m_score__min__energy>  (25) 
-6.8399999999999999

>  <m_primary>  (25) 
energy

$$$$
25:0
     RDKit          3D

 48 50  0  0  0  0  0  0  0  0999 V2000
   61.4520   30.5090   47.3350 C   0  0  0  0  0  0  0  0  0  0  0  0
   61.5800   31.1970   48.5730 O   0  0  0  0  0  0  0  0  0  0  0  0
   62.8110   31.6160   49.0890 C   0  0  0  0  0  0  0  0  0  0  0  0
   63.3720   30.9540   50.1410 N   0  0  0  0  0  0  0  0  0  0  0  0
   64.5810   31.3040   50.6520 C   0  0  0  0  0  0  0  0  0  0  0  0
   65.2950   32.3640   50.0930 C   0  0  0  0  0  0  0  0  0  0  0  0
   64.7470   33.0630   49.0170 C   0  0  0  0  0  0  0  0  0  0  0  0
   63.4870   32.7090   48.5110 C   0  0  0  0  0  0  0  0  0  0  0  0
   62.9110   33.4680   47.3750 C   0  0  0  0  0  0  0  0  0  0  0  0
   63.6390   33.7260   46.3770 O   0  0  0  0  0  0  0  0  0  0  0  0
   61.5400   33.9100   47.3820 N   0  0  0  0  0  0  0  0  0  0  0  0
   60.9910   34.5470   48.5910 C   0  0  0  0  0  0  0  0  0  0  0  0
   59.7480   33.8030   49.0860 C   0  0  0  0  0  0  0  0  0  0  0  0
   58.9960   33.0980   47.9530 C   0  0  0  0  0  0  0  0  0  0  0  0
   58.4520   34.0570   46.9700 N   0  0  0  0  0  0  0  0  0  0  0  0
   57.3010   33.4840   46.2320 C   0  0  0  0  0  0  0  0  0  0  0  0
   57.7030   32.6160   45.0530 C   0  0  0  0  0  0  0  0  0  0  0  0
   57.7490   33.0510   43.7400 C   0  0  0  0  0  0  0  0  0  0  0  0
   58.1800   31.9820   42.9830 C   0  0  0  0  0  0  0  0  0  0  0  0
   58.3730   30.9310   43.8550 C   0  0  0  0  0  0  0  0  0  0  0  0
   58.0680   31.3130   45.1120 N   0  0  0  0  0  0  0  0  0  0  0  0
   58.1880   30.4550   46.2890 C   0  0  0  0  0  0  0  0  0  0  0  0
   59.4920   34.5960   46.0640 C   0  0  0  0  0  0  0  0  0  0  0  0
   60.7700   33.7520   46.1390 C   0  0  0  0  0  0  0  0  0  0  0  0
   61.2539   29.4440   47.5261 H   0  0  0  0  0  0  0  0  0  0  0  0
   60.6186   30.9397   46.7606 H   0  0  0  0  0  0  0  0  0  0  0  0
   62.3846   30.6111   46.7606 H   0  0  0  0  0  0  0  0  0  0  0  0
   64.9972   30.7512   51.5071 H   0  0  0  0  0  0  0  0  0  0  0  0
   66.2790   32.6456   50.4960 H   0  0  0  0  0  0  0  0  0  0  0  0
   65.3052   33.8953   48.5634 H   0  0  0  0  0  0  0  0  0  0  0  0
   61.7554   34.5366   49.3819 H   0  0  0  0  0  0  0  0  0  0  0  0
   60.7062   35.5805   48.3444 H   0  0  0  0  0  0  0  0  0  0  0  0
   60.0587   33.0500   49.8252 H   0  0  0  0  0  0  0  0  0  0  0  0
   59.0674   34.5461   49.5270 H   0  0  0  0  0  0  0  0  0  0  0  0
   59.6881   32.4156   47.4380 H   0  0  0  0  0  0  0  0  0  0  0  0
   58.1518   32.5488   48.3954 H   0  0  0  0  0  0  0  0  0  0  0  0
   56.7116   32.8709   46.9296 H   0  0  0  0  0  0  0  0  0  0  0  0
   56.7255   34.3296   45.8272 H   0  0  0  0  0  0  0  0  0  0  0  0
   57.4916   34.0550   43.3716 H   0  0  0  0  0  0  0  0  0  0  0  0
   58.3391   31.9699   41.8946 H   0  0  0  0  0  0  0  0  0  0  0  0
   58.7240   29.9289   43.5676 H   0  0  0  0  0  0  0  0  0  0  0  0
   58.1024   31.0669   47.1991 H   0  0  0  0  0  0  0  0  0  0  0  0
   57.3865   29.7017   46.2769 H   0  0  0  0  0  0  0  0  0  0  0  0
   59.1654   29.9506   46.2769 H   0  0  0  0  0  0  0  0  0  0  0  0
   59.1122   34.5844   45.0317 H   0  0  0  0  0  0  0  0  0  0  0  0
   59.7301   35.6246   46.3729 H   0  0  0  0  0  0  0  0  0  0  0  0
   60.4872   32.6933   46.0436 H   0  0  0  0  0  0  0  0  0  0  0  0
   61.4210   34.1018   45.3243 H   0  0  0  0  0  0  0  0  0  0  0  0
  1  2  1  0
  2  3  1  0
  3  4  2  0
  4  5  1  0
  5  6  2  0
  6  7  1  0
  7  8  2  0
  8  9  1  0
  9 10  2  0
  9 11  1  0
 11 12  1  0
 12 13  1  0
 13 14  1  0
 14 15  1  0
 15 16  1  0
 16 17  1  0
 17 18  2  0
 18 19  1  0
 19 20  2  0
 20 21  1  0
 21 22  1  0
 15 23  1  0
 23 24  1  0
  8  3  1  0
 24 11  1  0
 21 17  1  0
  1 25  1  0
  1 26  1  0
  1 27  1  0
  5 28  1  0
  6 29  1  0
  7 30  1  0
 12 31  1  0
 12 32  1  0
 13 33  1  0
 13 34  1  0
 14 35  1  0
 14 36  1  0
 16 37  1  0
 16 38  1  0
 18 39  1  0
 19 40  1  0
 20 41  1  0
 22 42  1  0
 22 43  1  0
 22 44  1  0
 23 45  1  0
 23 46  1  0
 24 47  1  0
 24 48  1  0
M  END
>  <UniqueID>  (26) 
26

>  <SMILES>  (26) 
COc1ncccc1C(=O)N1CCCN(Cc2cccn2C)CC1

>  <Energy>  (26) 
84.4259794673885

>  <Genealogy>  (26) 
COc1ncccc1C(=O)N1CCCN(Cc2cccn2C)CC1 (3D coordinates assigned)
COc1ncccc1C(=O)N1CCCN(Cc2cccn2C)CC1 (nonaromatic ring conformer: 84.4259794673885 kcal/mol)

>  <smiles>  (26) 
COc1ncccc1C(=O)N1CCCN(Cc2cccn2C)CC1

>  <score_type>  (26) 
oracle

>  <origin>  (26) 
adg

>  <m_score__min__energy>  (26) 
-5.6600000000000001

>  <m_primary>  (26) 
energy

$$$$
