0:0
     RDKit          3D

 45 48  0  0  0  0  0  0  0  0999 V2000
   54.7210   29.9410   53.3280 C   0  0  0  0  0  0  0  0  0  0  0  0
   55.9890   30.5150   53.6240 O   0  0  0  0  0  0  0  0  0  0  0  0
   56.8810   30.9310   52.6320 C   0  0  0  0  0  0  0  0  0  0  0  0
   57.3540   32.2450   52.6420 C   0  0  0  0  0  0  0  0  0  0  0  0
   58.2450   32.6620   51.6510 C   0  0  0  0  0  0  0  0  0  0  0  0
   58.6650   31.7640   50.6570 C   0  0  0  0  0  0  0  0  0  0  0  0
   59.6010   32.1890   49.5850 C   0  0  0  0  0  0  0  0  0  0  0  0
   60.9270   32.2890   49.8600 N   0  0  0  0  0  0  0  0  0  0  0  0
   61.8050   32.7450   48.9320 C   0  0  0  0  0  0  0  0  0  0  0  0
   63.1540   32.9270   49.2720 C   0  0  0  0  0  0  0  0  0  0  0  0
   64.0200   33.4580   48.3740 N   0  0  0  0  0  0  0  0  0  0  0  0
   63.6160   33.8350   47.1370 C   0  0  0  0  0  0  0  0  0  0  0  0
   62.2880   33.6640   46.7450 C   0  0  0  0  0  0  0  0  0  0  0  0
   61.3540   33.0650   47.6280 C   0  0  0  0  0  0  0  0  0  0  0  0
   60.0310   32.8220   47.2850 N   0  0  0  0  0  0  0  0  0  0  0  0
   59.5680   32.9350   45.8660 C   0  0  0  0  0  0  0  0  0  0  0  0
   58.8260   31.6750   45.3320 C   0  0  0  0  0  0  0  0  0  0  0  0
   57.6250   32.0610   44.4630 C   0  0  0  0  0  0  0  0  0  0  0  0
   56.6820   32.9060   45.2070 N   0  0  0  0  0  0  0  0  0  0  0  0
   57.2750   34.1360   45.7750 C   0  0  0  0  0  0  0  0  0  0  0  0
   58.8050   34.2560   45.6210 C   0  0  0  0  0  0  0  0  0  0  0  0
   59.1410   32.5030   48.2920 C   0  0  0  0  0  0  0  0  0  0  0  0
   57.8990   32.5130   48.0790 O   0  0  0  0  0  0  0  0  0  0  0  0
   58.1570   30.4550   50.6800 C   0  0  0  0  0  0  0  0  0  0  0  0
   57.2910   30.0740   51.6560 N   0  0  0  0  0  0  0  0  0  0  0  0
   54.1977   29.7041   54.2661 H   0  0  0  0  0  0  0  0  0  0  0  0
   54.1221   30.6558   52.7445 H   0  0  0  0  0  0  0  0  0  0  0  0
   54.8629   29.0194   52.7445 H   0  0  0  0  0  0  0  0  0  0  0  0
   57.0273   32.9459   53.4243 H   0  0  0  0  0  0  0  0  0  0  0  0
   58.6187   33.6966   51.6492 H   0  0  0  0  0  0  0  0  0  0  0  0
   61.2720   32.0380   50.8160 H   0  0  0  0  0  0  0  0  0  0  0  0
   63.5106   32.6376   50.2715 H   0  0  0  0  0  0  0  0  0  0  0  0
   64.3396   34.2787   46.4373 H   0  0  0  0  0  0  0  0  0  0  0  0
   61.9643   33.9951   45.7472 H   0  0  0  0  0  0  0  0  0  0  0  0
   60.4791   32.9762   45.2510 H   0  0  0  0  0  0  0  0  0  0  0  0
   59.5253   31.0758   44.7305 H   0  0  0  0  0  0  0  0  0  0  0  0
   58.4591   31.0978   46.1935 H   0  0  0  0  0  0  0  0  0  0  0  0
   57.9826   32.6127   43.5811 H   0  0  0  0  0  0  0  0  0  0  0  0
   57.1041   31.1409   44.1595 H   0  0  0  0  0  0  0  0  0  0  0  0
   56.2670   32.3360   45.9810 H   0  0  0  0  0  0  0  0  0  0  0  0
   56.8133   34.9997   45.2741 H   0  0  0  0  0  0  0  0  0  0  0  0
   57.0778   34.1000   46.8566 H   0  0  0  0  0  0  0  0  0  0  0  0
   59.0238   34.5970   44.5983 H   0  0  0  0  0  0  0  0  0  0  0  0
   59.1467   34.9671   46.3875 H   0  0  0  0  0  0  0  0  0  0  0  0
   58.4610   29.7355   49.9055 H   0  0  0  0  0  0  0  0  0  0  0  0
  1  2  1  0
  2  3  1  0
  3  4  2  0
  4  5  1  0
  5  6  2  0
  6  7  1  0
  7  8  2  0
  8  9  1  0
  9 10  2  0
 10 11  1  0
 11 12  2  0
 12 13  1  0
 13 14  2  0
 14 15  1  0
 15 16  1  0
 16 17  1  0
 17 18  1  0
 18 19  1  0
 19 20  1  0
 20 21  1  0
 15 22  1  0
 22 23  2  0
  6 24  1  0
 24 25  2  0
 25  3  1  0
 22  7  1  0
 14  9  1  0
 21 16  1  0
  1 26  1  0
  1 27  1  0
  1 28  1  0
  4 29  1  0
  5 30  1  0
  8 31  1  0
 10 32  1  0
 12 33  1  0
 13 34  1  0
 16 35  1  0
 17 36  1  0
 17 37  1  0
 18 38  1  0
 18 39  1  0
 19 40  1  0
 20 41  1  0
 20 42  1  0
 21 43  1  0
 21 44  1  0
 24 45  1  0
M  CHG  1   8   1
M  END
>  <UniqueID>  (1) 
1

>  <SMILES>  (1) 
COc1ccc(-c2[nH+]c3cnccc3n(C3CCNCC3)c2=O)cn1

>  <Energy>  (1) 
81.95601412074089

>  <Genealogy>  (1) 
COc1ccc(-c2[nH+]c3cnccc3n(C3CCNCC3)c2=O)cn1 (protonated)
COc1ccc(-c2[nH+]c3cnccc3n(C3CCNCC3)c2=O)cn1 (3D coordinates assigned)
COc1ccc(-c2[nH+]c3cnccc3n(C3CCNCC3)c2=O)cn1 (nonaromatic ring conformer: 81.95601412074089 kcal/mol)

>  <smiles>  (1) 
COc1ccc(-c2nc3cnccc3n(C3CCNCC3)c2=O)cn1

>  <score_type>  (1) 
oracle

>  <origin>  (1) 
adg

>  <m_score__min__energy>  (1) 
-5.8799999999999999

>  <m_primary>  (1) 
energy

$$$$
1:0
     RDKit          3D

 46 48  0  0  0  0  0  0  0  0999 V2000
   59.7270   28.5970   44.7400 C   0  0  0  0  0  0  0  0  0  0  0  0
   58.4900   29.2490   45.0120 O   0  0  0  0  0  0  0  0  0  0  0  0
   58.2640   30.6300   44.8920 C   0  0  0  0  0  0  0  0  0  0  0  0
   58.0270   31.2130   43.6320 C   0  0  0  0  0  0  0  0  0  0  0  0
   57.8110   32.5830   43.5110 C   0  0  0  0  0  0  0  0  0  0  0  0
   57.8160   33.3930   44.6410 C   0  0  0  0  0  0  0  0  0  0  0  0
   58.0280   32.8430   45.9140 C   0  0  0  0  0  0  0  0  0  0  0  0
   58.0240   33.7680   47.1110 C   0  0  0  0  0  0  0  0  0  0  0  0
   59.1870   34.6560   47.0870 N   0  0  0  0  0  0  0  0  0  0  0  0
   60.5320   34.2450   47.4020 C   0  0  0  0  0  0  0  0  0  0  0  0
   61.4390   33.8400   46.4040 C   0  0  0  0  0  0  0  0  0  0  0  0
   62.7360   33.4390   46.7400 C   0  0  0  0  0  0  0  0  0  0  0  0
   63.1480   33.4430   48.0790 C   0  0  0  0  0  0  0  0  0  0  0  0
   64.4070   33.0530   48.4290 N   0  0  0  0  0  0  0  0  0  0  0  0
   64.8130   33.0530   49.7340 C   0  0  0  0  0  0  0  0  0  0  0  0
   66.2120   32.6200   50.0800 C   0  0  0  0  0  0  0  0  0  0  0  0
   63.9080   33.4760   50.7350 C   0  0  0  0  0  0  0  0  0  0  0  0
   64.2860   33.5050   52.1860 C   0  0  0  0  0  0  0  0  0  0  0  0
   62.6550   33.8590   50.3760 N   0  0  0  0  0  0  0  0  0  0  0  0
   62.2500   33.8540   49.0810 C   0  0  0  0  0  0  0  0  0  0  0  0
   60.9530   34.2540   48.7420 C   0  0  0  0  0  0  0  0  0  0  0  0
   58.2720   31.4550   46.0510 C   0  0  0  0  0  0  0  0  0  0  0  0
   58.5170   30.9610   47.3470 O   0  0  0  0  0  0  0  0  0  0  0  0
   59.7530   30.4760   47.8580 C   0  0  0  0  0  0  0  0  0  0  0  0
   60.2206   28.3368   45.6880 H   0  0  0  0  0  0  0  0  0  0  0  0
   59.5390   27.6808   44.1610 H   0  0  0  0  0  0  0  0  0  0  0  0
   60.3766   29.2699   44.1610 H   0  0  0  0  0  0  0  0  0  0  0  0
   58.0124   30.5787   42.7334 H   0  0  0  0  0  0  0  0  0  0  0  0
   57.6360   33.0255   42.5193 H   0  0  0  0  0  0  0  0  0  0  0  0
   57.6521   34.4756   44.5358 H   0  0  0  0  0  0  0  0  0  0  0  0
   57.1067   34.3749   47.0944 H   0  0  0  0  0  0  0  0  0  0  0  0
   58.0646   33.1594   48.0264 H   0  0  0  0  0  0  0  0  0  0  0  0
   59.0120   35.6640   46.8720 H   0  0  0  0  0  0  0  0  0  0  0  0
   61.1244   33.8390   45.3499 H   0  0  0  0  0  0  0  0  0  0  0  0
   63.4337   33.1200   45.9517 H   0  0  0  0  0  0  0  0  0  0  0  0
   65.0740   32.7490   47.6830 H   0  0  0  0  0  0  0  0  0  0  0  0
   66.3251   32.5850   51.1736 H   0  0  0  0  0  0  0  0  0  0  0  0
   66.4012   31.6212   49.6597 H   0  0  0  0  0  0  0  0  0  0  0  0
   66.9323   33.3372   49.6597 H   0  0  0  0  0  0  0  0  0  0  0  0
   63.3780   33.4353   52.8029 H   0  0  0  0  0  0  0  0  0  0  0  0
   64.9474   32.6550   52.4097 H   0  0  0  0  0  0  0  0  0  0  0  0
   64.8100   34.4460   52.4097 H   0  0  0  0  0  0  0  0  0  0  0  0
   60.2578   34.5779   49.5306 H   0  0  0  0  0  0  0  0  0  0  0  0
   59.7248   30.4871   48.9576 H   0  0  0  0  0  0  0  0  0  0  0  0
   59.9169   29.4469   47.5058 H   0  0  0  0  0  0  0  0  0  0  0  0
   60.5730   31.1190   47.5058 H   0  0  0  0  0  0  0  0  0  0  0  0
  1  2  1  0
  2  3  1  0
  3  4  2  0
  4  5  1  0
  5  6  2  0
  6  7  1  0
  7  8  1  0
  8  9  1  0
  9 10  1  0
 10 11  2  0
 11 12  1  0
 12 13  2  0
 13 14  1  0
 14 15  2  0
 15 16  1  0
 15 17  1  0
 17 18  1  0
 17 19  2  0
 19 20  1  0
 20 21  2  0
  7 22  2  0
 22 23  1  0
 23 24  1  0
 22  3  1  0
 21 10  1  0
 20 13  1  0
  1 25  1  0
  1 26  1  0
  1 27  1  0
  4 28  1  0
  5 29  1  0
  6 30  1  0
  8 31  1  0
  8 32  1  0
  9 33  1  0
 11 34  1  0
 12 35  1  0
 14 36  1  0
 16 37  1  0
 16 38  1  0
 16 39  1  0
 18 40  1  0
 18 41  1  0
 18 42  1  0
 21 43  1  0
 24 44  1  0
 24 45  1  0
 24 46  1  0
M  CHG  1  14   1
M  END
>  <UniqueID>  (2) 
2

>  <SMILES>  (2) 
COc1cccc(CNc2ccc3[nH+]c(C)c(C)nc3c2)c1OC

>  <Energy>  (2) 
53.03068579365398

>  <Genealogy>  (2) 
COc1cccc(CNc2ccc3[nH+]c(C)c(C)nc3c2)c1OC (protonated)
COc1cccc(CNc2ccc3[nH+]c(C)c(C)nc3c2)c1OC (3D coordinates assigned)
COc1cccc(CNc2ccc3[nH+]c(C)c(C)nc3c2)c1OC (optimized conformer: 53.03068579365398 kcal/mol)

>  <smiles>  (2) 
COc1cccc(CNc2ccc3nc(C)c(C)nc3c2)c1OC

>  <score_type>  (2) 
oracle

>  <origin>  (2) 
adg

>  <m_score__min__energy>  (2) 
-6.6500000000000004

>  <m_primary>  (2) 
energy

$$$$
2:0
     RDKit          3D

 33 33  0  0  0  0  0  0  0  0999 V2000
   57.0230   30.8930   46.3450 H   0  0  0  0  0  0  0  0  0  0  0  0
   57.8440   30.4670   46.7550 O   0  0  0  0  0  0  0  0  0  0  0  0
   59.0570   31.1430   46.9070 C   0  0  0  0  0  0  0  0  0  0  0  0
   60.1720   30.5190   47.5050 C   0  0  0  0  0  0  0  0  0  0  0  0
   60.0910   28.7290   48.1850 Br  0  0  0  0  0  0  0  0  0  0  0  0
   61.3850   31.2100   47.6090 C   0  0  0  0  0  0  0  0  0  0  0  0
   62.2528   30.7244   48.0793 H   0  0  0  0  0  0  0  0  0  0  0  0
   61.4990   32.5120   47.1190 C   0  0  0  0  0  0  0  0  0  0  0  0
   63.1620   33.4410   47.2550 Br  0  0  0  0  0  0  0  0  0  0  0  0
   60.3970   33.1370   46.5300 C   0  0  0  0  0  0  0  0  0  0  0  0
   60.4926   34.1597   46.1363 H   0  0  0  0  0  0  0  0  0  0  0  0
   59.1710   32.4660   46.4390 C   0  0  0  0  0  0  0  0  0  0  0  0
   58.0260   33.1530   45.8130 C   0  0  0  0  0  0  0  0  0  0  0  0
   57.8721   34.2211   46.0265 H   0  0  0  0  0  0  0  0  0  0  0  0
   57.1900   32.5500   45.0190 N   0  0  0  0  0  0  0  0  0  0  0  0
   57.4430   32.2340   43.6160 C   0  0  0  0  0  0  0  0  0  0  0  0
   58.5262   32.2562   43.4256 H   0  0  0  0  0  0  0  0  0  0  0  0
   56.9411   32.9768   42.9786 H   0  0  0  0  0  0  0  0  0  0  0  0
   56.9000   30.8440   43.2970 C   0  0  0  0  0  0  0  0  0  0  0  0
   57.7386   30.1650   43.0831 H   0  0  0  0  0  0  0  0  0  0  0  0
   56.2388   30.9057   42.4200 H   0  0  0  0  0  0  0  0  0  0  0  0
   56.1380   30.3310   44.4420 N   0  0  0  0  0  0  0  0  0  0  0  0
   56.3390   30.9550   45.2600 H   0  0  0  0  0  0  0  0  0  0  0  0
   56.5620   28.9700   44.8070 C   0  0  0  0  0  0  0  0  0  0  0  0
   55.9023   28.2435   44.3099 H   0  0  0  0  0  0  0  0  0  0  0  0
   56.4988   28.8676   45.9004 H   0  0  0  0  0  0  0  0  0  0  0  0
   58.0110   28.7050   44.3780 C   0  0  0  0  0  0  0  0  0  0  0  0
   58.6500   28.6960   45.2733 H   0  0  0  0  0  0  0  0  0  0  0  0
   58.3099   29.5031   43.6825 H   0  0  0  0  0  0  0  0  0  0  0  0
   58.1600   27.3690   43.6530 C   0  0  0  0  0  0  0  0  0  0  0  0
   58.2503   26.5590   44.3918 H   0  0  0  0  0  0  0  0  0  0  0  0
   57.2759   27.1933   43.0225 H   0  0  0  0  0  0  0  0  0  0  0  0
   59.0611   27.3924   43.0225 H   0  0  0  0  0  0  0  0  0  0  0  0
  1  2  1  0
  2  3  1  0
  3  4  2  0
  4  5  1  0
  4  6  1  0
  6  7  1  0
  6  8  2  0
  8  9  1  0
  8 10  1  0
 10 11  1  0
 10 12  2  0
 12 13  1  0
 13 14  1  0
 13 15  2  0
 15 16  1  0
 16 17  1  0
 16 18  1  0
 16 19  1  0
 19 20  1  0
 19 21  1  0
 19 22  1  0
 22 23  1  0
 22 24  1  0
 24 25  1  0
 24 26  1  0
 24 27  1  0
 27 28  1  0
 27 29  1  0
 27 30  1  0
 30 31  1  0
 30 32  1  0
 30 33  1  0
 12  3  1  0
M  END
>  <UniqueID>  (3) 
3

>  <SMILES>  (3) 
CCCNCC/N=C\c1cc(Br)cc(Br)c1O

>  <Energy>  (3) 
31.23070140984784

>  <Genealogy>  (3) 
CCCNCC/N=C\c1cc(Br)cc(Br)c1O (cis-trans isomerization)
CCCNCC/N=C\c1cc(Br)cc(Br)c1O (3D coordinates assigned)
CCCNCC/N=C\c1cc(Br)cc(Br)c1O (optimized conformer: 31.23070140984784 kcal/mol)

>  <smiles>  (3) 
CCCNCCN=Cc1cc(Br)cc(Br)c1O

>  <score_type>  (3) 
oracle

>  <origin>  (3) 
adg

>  <m_score__min__energy>  (3) 
-5.75

>  <m_primary>  (3) 
energy

$$$$
3:0
     RDKit          3D

 49 52  0  0  0  0  0  0  0  0999 V2000
   57.3180   24.5790   44.4350 C   0  0  0  0  0  0  0  0  0  0  0  0
   57.0740   25.2070   45.7250 N   0  0  0  0  0  0  0  0  0  0  0  0
   56.3320   26.4240   45.8670 C   0  0  0  0  0  0  0  0  0  0  0  0
   55.0800   26.3780   46.0120 O   0  0  0  0  0  0  0  0  0  0  0  0
   57.0150   27.6940   45.8480 N   0  0  0  0  0  0  0  0  0  0  0  0
   56.3710   28.8470   45.1870 C   0  0  0  0  0  0  0  0  0  0  0  0
   57.3970   29.8790   44.7140 C   0  0  0  0  0  0  0  0  0  0  0  0
   58.3190   30.1760   45.8040 N   0  0  0  0  0  0  0  0  0  0  0  0
   58.7770   29.2360   46.6470 C   0  0  0  0  0  0  0  0  0  0  0  0
   59.7440   29.7770   47.4890 C   0  0  0  0  0  0  0  0  0  0  0  0
   60.5450   29.0850   48.5260 C   0  0  0  0  0  0  0  0  0  0  0  0
   60.7610   27.6750   48.4860 N   0  0  0  0  0  0  0  0  0  0  0  0
   61.0740   29.7550   49.4520 O   0  0  0  0  0  0  0  0  0  0  0  0
   59.8480   31.1180   47.1300 C   0  0  0  0  0  0  0  0  0  0  0  0
   60.8200   32.0950   47.6570 C   0  0  0  0  0  0  0  0  0  0  0  0
   62.1230   32.0910   47.1360 C   0  0  0  0  0  0  0  0  0  0  0  0
   63.0760   32.9930   47.6090 C   0  0  0  0  0  0  0  0  0  0  0  0
   62.7390   33.9070   48.6080 C   0  0  0  0  0  0  0  0  0  0  0  0
   61.4430   33.9280   49.1290 C   0  0  0  0  0  0  0  0  0  0  0  0
   60.4660   33.0390   48.6510 C   0  0  0  0  0  0  0  0  0  0  0  0
   59.0820   33.0940   49.2480 C   0  0  0  0  0  0  0  0  0  0  0  0
   58.9640   31.3300   46.0780 C   0  0  0  0  0  0  0  0  0  0  0  0
   58.8660   32.5800   45.2430 C   0  0  0  0  0  0  0  0  0  0  0  0
   58.4900   33.8520   45.9930 C   0  0  0  0  0  0  0  0  0  0  0  0
   57.4620   33.1580   45.1230 C   0  0  0  0  0  0  0  0  0  0  0  0
   58.2880   27.8170   46.5880 C   0  0  0  0  0  0  0  0  0  0  0  0
   57.7124   23.5639   44.5901 H   0  0  0  0  0  0  0  0  0  0  0  0
   56.3758   24.5239   43.8699 H   0  0  0  0  0  0  0  0  0  0  0  0
   58.0502   25.1745   43.8699 H   0  0  0  0  0  0  0  0  0  0  0  0
   55.8022   28.4864   44.3173 H   0  0  0  0  0  0  0  0  0  0  0  0
   55.7096   29.3340   45.9187 H   0  0  0  0  0  0  0  0  0  0  0  0
   57.9576   29.4744   43.8584 H   0  0  0  0  0  0  0  0  0  0  0  0
   56.8793   30.8000   44.4078 H   0  0  0  0  0  0  0  0  0  0  0  0
   60.5670   27.1180   47.6280 H   0  0  0  0  0  0  0  0  0  0  0  0
   61.2500   27.2010   49.2780 H   0  0  0  0  0  0  0  0  0  0  0  0
   62.3946   31.3717   46.3493 H   0  0  0  0  0  0  0  0  0  0  0  0
   64.0946   32.9838   47.1939 H   0  0  0  0  0  0  0  0  0  0  0  0
   63.4945   34.6117   48.9857 H   0  0  0  0  0  0  0  0  0  0  0  0
   61.1853   34.6470   49.9206 H   0  0  0  0  0  0  0  0  0  0  0  0
   59.1557   33.0911   50.3455 H   0  0  0  0  0  0  0  0  0  0  0  0
   58.5761   34.0130   48.9169 H   0  0  0  0  0  0  0  0  0  0  0  0
   58.5048   32.2181   48.9169 H   0  0  0  0  0  0  0  0  0  0  0  0
   59.6661   32.3012   44.5414 H   0  0  0  0  0  0  0  0  0  0  0  0
   58.3856   33.8339   47.0879 H   0  0  0  0  0  0  0  0  0  0  0  0
   58.9000   34.8712   46.0483 H   0  0  0  0  0  0  0  0  0  0  0  0
   56.6117   32.6366   45.5868 H   0  0  0  0  0  0  0  0  0  0  0  0
   56.8178   33.4659   44.2862 H   0  0  0  0  0  0  0  0  0  0  0  0
   59.0494   27.2008   46.0874 H   0  0  0  0  0  0  0  0  0  0  0  0
   58.1122   27.4780   47.6196 H   0  0  0  0  0  0  0  0  0  0  0  0
  1  2  1  0
  2  3  1  0
  3  4  2  0
  3  5  1  0
  5  6  1  0
  6  7  1  0
  7  8  1  0
  8  9  1  0
  9 10  2  0
 10 11  1  0
 11 12  1  0
 11 13  2  0
 10 14  1  0
 14 15  1  0
 15 16  2  0
 16 17  1  0
 17 18  2  0
 18 19  1  0
 19 20  2  0
 20 21  1  0
 14 22  2  0
 22 23  1  0
 23 24  1  0
 24 25  1  0
  9 26  1  0
 26  5  1  0
 22  8  1  0
 25 23  1  0
 20 15  1  0
  1 27  1  0
  1 28  1  0
  1 29  1  0
  6 30  1  0
  6 31  1  0
  7 32  1  0
  7 33  1  0
 12 34  1  0
 12 35  1  0
 16 36  1  0
 17 37  1  0
 18 38  1  0
 19 39  1  0
 21 40  1  0
 21 41  1  0
 21 42  1  0
 23 43  1  0
 24 44  1  0
 24 45  1  0
 25 46  1  0
 25 47  1  0
 26 48  1  0
 26 49  1  0
M  CHG  1   2  -1
M  END
>  <UniqueID>  (4) 
4

>  <SMILES>  (4) 
C[N-]C(=O)N1CCn2c(c(C(N)=O)c(-c3ccccc3C)c2C2CC2)C1

>  <Energy>  (4) 
349.79987033811534

>  <Genealogy>  (4) 
C[N-]C(=O)N1CCn2c(c(C(N)=O)c(-c3ccccc3C)c2C2CC2)C1 (protonated)
C[N-]C(=O)N1CCn2c(c(C(N)=O)c(-c3ccccc3C)c2C2CC2)C1 (3D coordinates assigned)
C[N-]C(=O)N1CCn2c(c(C(N)=O)c(-c3ccccc3C)c2C2CC2)C1 (nonaromatic ring conformer: 349.79987033811534 kcal/mol)

>  <smiles>  (4) 
CNC(=O)N1CCn2c(c(C(N)=O)c(-c3ccccc3C)c2C2CC2)C1

>  <score_type>  (4) 
oracle

>  <origin>  (4) 
adg

>  <m_score__min__energy>  (4) 
-9.5600000000000005

>  <m_primary>  (4) 
energy

$$$$
4:0
     RDKit          3D

 48 50  0  0  0  0  0  0  0  0999 V2000
   65.1050   32.3840   50.1430 C   0  0  0  0  0  0  0  0  0  0  0  0
   64.8460   33.2280   49.0250 O   0  0  0  0  0  0  0  0  0  0  0  0
   63.5740   33.4420   48.4730 C   0  0  0  0  0  0  0  0  0  0  0  0
   62.4840   33.5650   49.3420 C   0  0  0  0  0  0  0  0  0  0  0  0
   61.1960   33.7790   48.8410 C   0  0  0  0  0  0  0  0  0  0  0  0
   60.9810   33.8660   47.4580 C   0  0  0  0  0  0  0  0  0  0  0  0
   59.6000   34.1240   46.9100 C   0  0  0  0  0  0  0  0  0  0  0  0
   59.3310   33.2760   45.7290 N   0  0  0  0  0  0  0  0  0  0  0  0
   59.2300   31.8410   46.1020 C   0  0  0  0  0  0  0  0  0  0  0  0
   57.7710   31.3640   46.2020 C   0  0  0  0  0  0  0  0  0  0  0  0
   57.0380   31.5290   44.9210 N   0  0  0  0  0  0  0  0  0  0  0  0
   57.0060   30.2660   44.1510 C   0  0  0  0  0  0  0  0  0  0  0  0
   56.0860   29.2300   44.8130 C   0  0  0  0  0  0  0  0  0  0  0  0
   56.8790   28.1500   45.3970 N   0  0  0  0  0  0  0  0  0  0  0  0
   58.3230   28.1620   45.5700 C   0  0  0  0  0  0  0  0  0  0  0  0
   58.6610   26.8320   46.2880 C   0  0  0  0  0  0  0  0  0  0  0  0
   57.3910   26.1590   46.5410 N   0  0  0  0  0  0  0  0  0  0  0  0
   56.3790   26.9750   45.9960 C   0  0  0  0  0  0  0  0  0  0  0  0
   55.1550   26.6860   46.0550 O   0  0  0  0  0  0  0  0  0  0  0  0
   57.5500   32.6570   44.0990 C   0  0  0  0  0  0  0  0  0  0  0  0
   58.1530   33.7640   44.9700 C   0  0  0  0  0  0  0  0  0  0  0  0
   62.0710   33.7480   46.5830 C   0  0  0  0  0  0  0  0  0  0  0  0
   63.3590   33.5340   47.0840 C   0  0  0  0  0  0  0  0  0  0  0  0
   64.9329   32.9449   51.0735 H   0  0  0  0  0  0  0  0  0  0  0  0
   64.4324   31.5142   50.1094 H   0  0  0  0  0  0  0  0  0  0  0  0
   66.1497   32.0412   50.1094 H   0  0  0  0  0  0  0  0  0  0  0  0
   62.6416   33.4927   50.4282 H   0  0  0  0  0  0  0  0  0  0  0  0
   60.3481   33.8795   49.5346 H   0  0  0  0  0  0  0  0  0  0  0  0
   58.8564   33.9014   47.6894 H   0  0  0  0  0  0  0  0  0  0  0  0
   59.5355   35.1791   46.6056 H   0  0  0  0  0  0  0  0  0  0  0  0
   59.7469   31.2402   45.3392 H   0  0  0  0  0  0  0  0  0  0  0  0
   59.6924   31.7179   47.0924 H   0  0  0  0  0  0  0  0  0  0  0  0
   57.7645   30.2996   46.4793 H   0  0  0  0  0  0  0  0  0  0  0  0
   57.2660   31.9787   46.9617 H   0  0  0  0  0  0  0  0  0  0  0  0
   56.6377   30.4749   43.1358 H   0  0  0  0  0  0  0  0  0  0  0  0
   58.0254   29.8538   44.1191 H   0  0  0  0  0  0  0  0  0  0  0  0
   55.4990   29.7187   45.6046 H   0  0  0  0  0  0  0  0  0  0  0  0
   55.4129   28.8094   44.0514 H   0  0  0  0  0  0  0  0  0  0  0  0
   58.8274   28.2115   44.5937 H   0  0  0  0  0  0  0  0  0  0  0  0
   58.6591   29.0360   46.1472 H   0  0  0  0  0  0  0  0  0  0  0  0
   59.3005   26.2070   45.6474 H   0  0  0  0  0  0  0  0  0  0  0  0
   59.2060   27.0154   47.2258 H   0  0  0  0  0  0  0  0  0  0  0  0
   58.3252   32.2780   43.4167 H   0  0  0  0  0  0  0  0  0  0  0  0
   56.7056   33.0836   43.5377 H   0  0  0  0  0  0  0  0  0  0  0  0
   58.4643   34.5980   44.3238 H   0  0  0  0  0  0  0  0  0  0  0  0
   57.3891   34.0918   45.6904 H   0  0  0  0  0  0  0  0  0  0  0  0
   61.9119   33.8242   45.4972 H   0  0  0  0  0  0  0  0  0  0  0  0
   64.2075   33.4371   46.3907 H   0  0  0  0  0  0  0  0  0  0  0  0
  1  2  1  0
  2  3  1  0
  3  4  2  0
  4  5  1  0
  5  6  2  0
  6  7  1  0
  7  8  1  0
  8  9  1  0
  9 10  1  0
 10 11  1  0
 11 12  1  0
 12 13  1  0
 13 14  1  0
 14 15  1  0
 15 16  1  0
 16 17  1  0
 17 18  1  0
 18 19  2  0
 11 20  1  0
 20 21  1  0
  6 22  1  0
 22 23  2  0
 23  3  1  0
 21  8  1  0
 18 14  1  0
  1 24  1  0
  1 25  1  0
  1 26  1  0
  4 27  1  0
  5 28  1  0
  7 29  1  0
  7 30  1  0
  9 31  1  0
  9 32  1  0
 10 33  1  0
 10 34  1  0
 12 35  1  0
 12 36  1  0
 13 37  1  0
 13 38  1  0
 15 39  1  0
 15 40  1  0
 16 41  1  0
 16 42  1  0
 20 43  1  0
 20 44  1  0
 21 45  1  0
 21 46  1  0
 22 47  1  0
 23 48  1  0
M  CHG  1  17  -1
M  END
>  <UniqueID>  (5) 
5

>  <SMILES>  (5) 
COc1ccc(CN2CCN(CCN3CC[N-]C3=O)CC2)cc1

>  <Energy>  (5) 
70.90816658827988

>  <Genealogy>  (5) 
COc1ccc(CN2CCN(CCN3CC[N-]C3=O)CC2)cc1 (protonated)
COc1ccc(CN2CCN(CCN3CC[N-]C3=O)CC2)cc1 (3D coordinates assigned)
COc1ccc(CN2CCN(CCN3CC[N-]C3=O)CC2)cc1 (nonaromatic ring conformer: 70.90816658827988 kcal/mol)

>  <smiles>  (5) 
COc1ccc(CN2CCN(CCN3CCNC3=O)CC2)cc1

>  <score_type>  (5) 
oracle

>  <origin>  (5) 
adg

>  <m_score__min__energy>  (5) 
-9.7200000000000006

>  <m_primary>  (5) 
energy

$$$$
5:0
     RDKit          3D

 35 36  0  0  0  0  0  0  0  0999 V2000
   64.3680   33.1440   48.9630 C   0  0  0  0  0  0  0  0  0  0  0  0
   63.4040   33.4290   47.9540 O   0  0  0  0  0  0  0  0  0  0  0  0
   62.3420   32.5800   47.6110 C   0  0  0  0  0  0  0  0  0  0  0  0
   62.3180   31.2920   48.1570 C   0  0  0  0  0  0  0  0  0  0  0  0
   61.2820   30.4070   47.8470 C   0  0  0  0  0  0  0  0  0  0  0  0
   60.2450   30.7960   46.9810 C   0  0  0  0  0  0  0  0  0  0  0  0
   59.1440   29.8570   46.6510 C   0  0  0  0  0  0  0  0  0  0  0  0
   58.0430   30.2850   45.8950 C   0  0  0  0  0  0  0  0  0  0  0  0
   56.9970   29.4010   45.5790 C   0  0  0  0  0  0  0  0  0  0  0  0
   55.8860   29.8120   44.8240 O   0  0  0  0  0  0  0  0  0  0  0  0
   55.8240   29.8040   43.4020 C   0  0  0  0  0  0  0  0  0  0  0  0
   57.0540   28.0660   46.0280 C   0  0  0  0  0  0  0  0  0  0  0  0
   56.0140   27.1900   45.7130 O   0  0  0  0  0  0  0  0  0  0  0  0
   58.1610   27.6250   46.7930 C   0  0  0  0  0  0  0  0  0  0  0  0
   58.3090   26.3140   47.2810 O   0  0  0  0  0  0  0  0  0  0  0  0
   58.0910   25.1120   46.5500 C   0  0  0  0  0  0  0  0  0  0  0  0
   59.1880   28.5260   47.0930 C   0  0  0  0  0  0  0  0  0  0  0  0
   60.2700   32.0910   46.4320 C   0  0  0  0  0  0  0  0  0  0  0  0
   61.3070   32.9750   46.7440 C   0  0  0  0  0  0  0  0  0  0  0  0
   63.9116   33.2789   49.9547 H   0  0  0  0  0  0  0  0  0  0  0  0
   64.7138   32.1052   48.8568 H   0  0  0  0  0  0  0  0  0  0  0  0
   65.2231   33.8278   48.8568 H   0  0  0  0  0  0  0  0  0  0  0  0
   63.1221   30.9731   48.8365 H   0  0  0  0  0  0  0  0  0  0  0  0
   61.2778   29.3976   48.2842 H   0  0  0  0  0  0  0  0  0  0  0  0
   57.9975   31.3267   45.5446 H   0  0  0  0  0  0  0  0  0  0  0  0
   54.7805   29.6694   43.0812 H   0  0  0  0  0  0  0  0  0  0  0  0
   56.2069   30.7590   43.0129 H   0  0  0  0  0  0  0  0  0  0  0  0
   56.4367   28.9775   43.0129 H   0  0  0  0  0  0  0  0  0  0  0  0
   55.1450   27.4990   45.2950 H   0  0  0  0  0  0  0  0  0  0  0  0
   57.9398   24.2784   47.2517 H   0  0  0  0  0  0  0  0  0  0  0  0
   57.1986   25.2247   45.9168 H   0  0  0  0  0  0  0  0  0  0  0  0
   58.9661   24.9041   45.9168 H   0  0  0  0  0  0  0  0  0  0  0  0
   60.0479   28.1841   47.6877 H   0  0  0  0  0  0  0  0  0  0  0  0
   59.4669   32.4106   45.7516 H   0  0  0  0  0  0  0  0  0  0  0  0
   61.3137   33.9853   46.3090 H   0  0  0  0  0  0  0  0  0  0  0  0
  1  2  1  0
  2  3  1  0
  3  4  2  0
  4  5  1  0
  5  6  2  0
  6  7  1  0
  7  8  2  0
  8  9  1  0
  9 10  1  0
 10 11  1  0
  9 12  2  0
 12 13  1  0
 12 14  1  0
 14 15  1  0
 15 16  1  0
 14 17  2  0
  6 18  1  0
 18 19  2  0
 19  3  1  0
 17  7  1  0
  1 20  1  0
  1 21  1  0
  1 22  1  0
  4 23  1  0
  5 24  1  0
  8 25  1  0
 11 26  1  0
 11 27  1  0
 11 28  1  0
 13 29  1  0
 16 30  1  0
 16 31  1  0
 16 32  1  0
 17 33  1  0
 18 34  1  0
 19 35  1  0
M  END
>  <UniqueID>  (6) 
6

>  <SMILES>  (6) 
COc1ccc(-c2cc(OC)c(O)c(OC)c2)cc1

>  <Energy>  (6) 
41.9552737868416

>  <Genealogy>  (6) 
COc1ccc(-c2cc(OC)c(O)c(OC)c2)cc1 (3D coordinates assigned)
COc1ccc(-c2cc(OC)c(O)c(OC)c2)cc1 (optimized conformer: 41.9552737868416 kcal/mol)

>  <smiles>  (6) 
COc1ccc(-c2cc(OC)c(O)c(OC)c2)cc1

>  <score_type>  (6) 
oracle

>  <origin>  (6) 
adg

>  <m_score__min__energy>  (6) 
-5.8099999999999996

>  <m_primary>  (6) 
energy

$$$$
6:0
     RDKit          3D

 28 30  0  0  0  0  0  0  0  0999 V2000
   62.0100   34.2160   49.8970 C   0  0  0  0  0  0  0  0  0  0  0  0
   60.7500   34.5890   49.3490 O   0  0  0  0  0  0  0  0  0  0  0  0
   60.2050   34.0480   48.1750 C   0  0  0  0  0  0  0  0  0  0  0  0
   59.4090   34.8700   47.3710 C   0  0  0  0  0  0  0  0  0  0  0  0
   58.8430   34.3780   46.1920 C   0  0  0  0  0  0  0  0  0  0  0  0
   59.0610   33.0480   45.7980 C   0  0  0  0  0  0  0  0  0  0  0  0
   58.4790   32.5480   44.5800 N   0  0  0  0  0  0  0  0  0  0  0  0
   58.5310   33.1510   43.3920 N   0  0  0  0  0  0  0  0  0  0  0  0
   57.8870   32.4610   42.4500 N   0  0  0  0  0  0  0  0  0  0  0  0
   57.4050   31.3740   43.0800 C   0  0  0  0  0  0  0  0  0  0  0  0
   56.6240   30.3380   42.5860 C   0  0  0  0  0  0  0  0  0  0  0  0
   56.2240   29.3490   43.5060 C   0  0  0  0  0  0  0  0  0  0  0  0
   56.6130   29.4480   44.8650 C   0  0  0  0  0  0  0  0  0  0  0  0
   57.3800   30.4970   45.2950 N   0  0  0  0  0  0  0  0  0  0  0  0
   57.7700   31.4260   44.3850 C   0  0  0  0  0  0  0  0  0  0  0  0
   59.8650   32.2230   46.6030 C   0  0  0  0  0  0  0  0  0  0  0  0
   60.4320   32.7160   47.7810 C   0  0  0  0  0  0  0  0  0  0  0  0
   61.9517   34.2332   50.9953 H   0  0  0  0  0  0  0  0  0  0  0  0
   62.2709   33.2021   49.5595 H   0  0  0  0  0  0  0  0  0  0  0  0
   62.7808   34.9245   49.5595 H   0  0  0  0  0  0  0  0  0  0  0  0
   59.2269   35.9130   47.6693 H   0  0  0  0  0  0  0  0  0  0  0  0
   58.2220   35.0375   45.5679 H   0  0  0  0  0  0  0  0  0  0  0  0
   59.0290   34.0500   43.2040 H   0  0  0  0  0  0  0  0  0  0  0  0
   56.3314   30.2916   41.5266 H   0  0  0  0  0  0  0  0  0  0  0  0
   55.6101   28.5005   43.1697 H   0  0  0  0  0  0  0  0  0  0  0  0
   56.2958   28.6751   45.5806 H   0  0  0  0  0  0  0  0  0  0  0  0
   60.0494   31.1808   46.3033 H   0  0  0  0  0  0  0  0  0  0  0  0
   61.0586   32.0602   48.4033 H   0  0  0  0  0  0  0  0  0  0  0  0
  1  2  1  0
  2  3  1  0
  3  4  2  0
  4  5  1  0
  5  6  2  0
  6  7  1  0
  7  8  1  0
  8  9  2  0
  9 10  1  0
 10 11  2  0
 11 12  1  0
 12 13  2  0
 13 14  1  0
 14 15  2  0
  6 16  1  0
 16 17  2  0
 17  3  1  0
 15  7  1  0
 15 10  1  0
  1 18  1  0
  1 19  1  0
  1 20  1  0
  4 21  1  0
  5 22  1  0
  8 23  1  0
 11 24  1  0
 12 25  1  0
 13 26  1  0
 16 27  1  0
 17 28  1  0
M  CHG  1   8   1
M  END
>  <UniqueID>  (7) 
7

>  <SMILES>  (7) 
COc1ccc(-n2[nH+]nc3cccnc32)cc1

>  <Energy>  (7) 
81.64953378962768

>  <Genealogy>  (7) 
COc1ccc(-n2[nH+]nc3cccnc32)cc1 (protonated)
COc1ccc(-n2[nH+]nc3cccnc32)cc1 (3D coordinates assigned)
COc1ccc(-n2[nH+]nc3cccnc32)cc1 (optimized conformer: 81.64953378962768 kcal/mol)

>  <smiles>  (7) 
COc1ccc(-n2nnc3cccnc32)cc1

>  <score_type>  (7) 
oracle

>  <origin>  (7) 
adg

>  <m_score__min__energy>  (7) 
-5.1799999999999997

>  <m_primary>  (7) 
energy

$$$$
7:0
     RDKit          3D

 46 47  0  0  0  0  0  0  0  0999 V2000
   66.3200   32.7460   50.1360 C   0  0  0  0  0  0  0  0  0  0  0  0
   65.2970   33.4370   49.4230 O   0  0  0  0  0  0  0  0  0  0  0  0
   64.1290   32.8330   48.9330 C   0  0  0  0  0  0  0  0  0  0  0  0
   63.4300   31.9620   49.7740 C   0  0  0  0  0  0  0  0  0  0  0  0
   62.2610   31.3370   49.3350 C   0  0  0  0  0  0  0  0  0  0  0  0
   61.7600   31.5760   48.0410 C   0  0  0  0  0  0  0  0  0  0  0  0
   60.5150   30.8940   47.5940 C   0  0  0  0  0  0  0  0  0  0  0  0
   59.8910   29.8510   48.2860 C   0  0  0  0  0  0  0  0  0  0  0  0
   58.5380   29.3750   47.4080 S   0  0  0  0  0  0  0  0  0  0  0  0
   58.7890   30.5080   46.1900 C   0  0  0  0  0  0  0  0  0  0  0  0
   57.9790   30.6650   45.0050 N   0  0  0  0  0  0  0  0  0  0  0  0
   57.3780   31.9760   44.7010 C   0  0  0  0  0  0  0  0  0  0  0  0
   58.4620   33.0460   44.5230 C   0  0  0  0  0  0  0  0  0  0  0  0
   58.3110   34.0890   45.5620 N   0  0  0  0  0  0  0  0  0  0  0  0
   57.5950   33.5760   46.7420 C   0  0  0  0  0  0  0  0  0  0  0  0
   59.6120   34.6530   45.9570 C   0  0  0  0  0  0  0  0  0  0  0  0
   57.7250   29.5120   44.1680 C   0  0  0  0  0  0  0  0  0  0  0  0
   56.9850   29.6380   43.1520 O   0  0  0  0  0  0  0  0  0  0  0  0
   58.3060   28.1810   44.4720 C   0  0  0  0  0  0  0  0  0  0  0  0
   57.6730   27.2870   45.2410 C   0  0  0  0  0  0  0  0  0  0  0  0
   56.2640   27.4540   45.6360 C   0  0  0  0  0  0  0  0  0  0  0  0
   55.7060   26.5690   46.3360 O   0  0  0  0  0  0  0  0  0  0  0  0
   55.5380   28.5740   45.2460 O   0  0  0  0  0  0  0  0  0  0  0  0
   59.8970   31.2440   46.4320 N   0  0  0  0  0  0  0  0  0  0  0  0
   62.4700   32.4490   47.1940 C   0  0  0  0  0  0  0  0  0  0  0  0
   63.6420   33.0720   47.6350 C   0  0  0  0  0  0  0  0  0  0  0  0
   66.1533   32.8586   51.2174 H   0  0  0  0  0  0  0  0  0  0  0  0
   66.2953   31.6788   49.8704 H   0  0  0  0  0  0  0  0  0  0  0  0
   67.3008   33.1674   49.8704 H   0  0  0  0  0  0  0  0  0  0  0  0
   63.8040   31.7674   50.7900 H   0  0  0  0  0  0  0  0  0  0  0  0
   61.7257   30.6505   50.0074 H   0  0  0  0  0  0  0  0  0  0  0  0
   60.2270   29.4172   49.2394 H   0  0  0  0  0  0  0  0  0  0  0  0
   56.7932   31.8977   43.7726 H   0  0  0  0  0  0  0  0  0  0  0  0
   56.7293   32.2686   45.5398 H   0  0  0  0  0  0  0  0  0  0  0  0
   59.4541   32.5798   44.6148 H   0  0  0  0  0  0  0  0  0  0  0  0
   58.3595   33.5056   43.5289 H   0  0  0  0  0  0  0  0  0  0  0  0
   58.0923   33.9323   47.6562 H   0  0  0  0  0  0  0  0  0  0  0  0
   56.5558   33.9363   46.7257 H   0  0  0  0  0  0  0  0  0  0  0  0
   57.6020   32.4761   46.7257 H   0  0  0  0  0  0  0  0  0  0  0  0
   59.6807   34.6828   47.0544 H   0  0  0  0  0  0  0  0  0  0  0  0
   60.4210   34.0248   45.5559 H   0  0  0  0  0  0  0  0  0  0  0  0
   59.7065   35.6729   45.5559 H   0  0  0  0  0  0  0  0  0  0  0  0
   59.2887   27.9206   44.0518 H   0  0  0  0  0  0  0  0  0  0  0  0
   58.2223   26.3997   45.5889 H   0  0  0  0  0  0  0  0  0  0  0  0
   62.0995   32.6426   46.1765 H   0  0  0  0  0  0  0  0  0  0  0  0
   64.1859   33.7525   46.9633 H   0  0  0  0  0  0  0  0  0  0  0  0
  1  2  1  0
  2  3  1  0
  3  4  2  0
  4  5  1  0
  5  6  2  0
  6  7  1  0
  7  8  2  0
  8  9  1  0
  9 10  1  0
 10 11  1  0
 11 12  1  0
 12 13  1  0
 13 14  1  0
 14 15  1  0
 14 16  1  0
 11 17  1  0
 17 18  2  0
 17 19  1  0
 19 20  2  3
 20 21  1  0
 21 22  2  0
 21 23  1  0
 10 24  2  0
  6 25  1  0
 25 26  2  0
 26  3  1  0
 24  7  1  0
  1 27  1  0
  1 28  1  0
  1 29  1  0
  4 30  1  0
  5 31  1  0
  8 32  1  0
 12 33  1  0
 12 34  1  0
 13 35  1  0
 13 36  1  0
 15 37  1  0
 15 38  1  0
 15 39  1  0
 16 40  1  0
 16 41  1  0
 16 42  1  0
 19 43  1  0
 20 44  1  0
 25 45  1  0
 26 46  1  0
M  CHG  1  23  -1
M  END
>  <UniqueID>  (8) 
8

>  <SMILES>  (8) 
COc1ccc(-c2csc(N(CCN(C)C)C(=O)C=CC(=O)[O-])n2)cc1

>  <Energy>  (8) 
78.4710978023431

>  <Genealogy>  (8) 
COc1ccc(-c2csc(N(CCN(C)C)C(=O)C=CC(=O)[O-])n2)cc1 (protonated)
COc1ccc(-c2csc(N(CCN(C)C)C(=O)C=CC(=O)[O-])n2)cc1 (3D coordinates assigned)
COc1ccc(-c2csc(N(CCN(C)C)C(=O)C=CC(=O)[O-])n2)cc1 (optimized conformer: 78.4710978023431 kcal/mol)

>  <smiles>  (8) 
COc1ccc(-c2csc(N(CCN(C)C)C(=O)C=CC(=O)O)n2)cc1

>  <score_type>  (8) 
oracle

>  <origin>  (8) 
adg

>  <m_score__min__energy>  (8) 
-10.24

>  <m_primary>  (8) 
energy

$$$$
8:0
     RDKit          3D

 51 53  0  0  0  0  0  0  0  0999 V2000
   63.3680   33.8520   46.4400 C   0  0  0  0  0  0  0  0  0  0  0  0
   63.4080   33.6110   47.9430 C   0  0  0  0  0  0  0  0  0  0  0  0
   62.1370   33.1620   48.3840 O   0  0  0  0  0  0  0  0  0  0  0  0
   62.0710   31.7500   48.4700 C   0  0  0  0  0  0  0  0  0  0  0  0
   61.7010   31.1220   47.1180 C   0  0  0  0  0  0  0  0  0  0  0  0
   60.3580   30.3900   47.1820 C   0  0  0  0  0  0  0  0  0  0  0  0
   59.9060   30.0390   45.8290 N   0  0  0  0  0  0  0  0  0  0  0  0
   60.5730   28.9460   45.0950 C   0  0  0  0  0  0  0  0  0  0  0  0
   59.6260   27.8600   44.7910 N   0  0  0  0  0  0  0  0  0  0  0  0
   58.2480   28.1410   44.4770 C   0  0  0  0  0  0  0  0  0  0  0  0
   57.4650   27.1960   44.0520 N   0  0  0  0  0  0  0  0  0  0  0  0
   57.7790   29.5130   44.7380 C   0  0  0  0  0  0  0  0  0  0  0  0
   56.6340   30.2430   44.4340 C   0  0  0  0  0  0  0  0  0  0  0  0
   55.4240   29.7870   43.6850 C   0  0  0  0  0  0  0  0  0  0  0  0
   56.7970   31.5150   44.8670 N   0  0  0  0  0  0  0  0  0  0  0  0
   57.9940   31.6100   45.4320 N   0  0  0  0  0  0  0  0  0  0  0  0
   58.5400   32.8550   45.8950 C   0  0  0  0  0  0  0  0  0  0  0  0
   59.0150   33.7860   44.9530 C   0  0  0  0  0  0  0  0  0  0  0  0
   59.5520   35.0050   45.3730 C   0  0  0  0  0  0  0  0  0  0  0  0
   59.6330   35.2990   46.7350 C   0  0  0  0  0  0  0  0  0  0  0  0
   59.1850   34.3740   47.6840 C   0  0  0  0  0  0  0  0  0  0  0  0
   58.6410   33.1410   47.2740 C   0  0  0  0  0  0  0  0  0  0  0  0
   58.2140   32.1760   48.2020 O   0  0  0  0  0  0  0  0  0  0  0  0
   58.5890   32.1530   49.5750 C   0  0  0  0  0  0  0  0  0  0  0  0
   58.5940   30.4030   45.3680 C   0  0  0  0  0  0  0  0  0  0  0  0
   63.1908   34.9199   46.2445 H   0  0  0  0  0  0  0  0  0  0  0  0
   64.3282   33.5522   45.9949 H   0  0  0  0  0  0  0  0  0  0  0  0
   62.5562   33.2581   45.9949 H   0  0  0  0  0  0  0  0  0  0  0  0
   64.1662   32.8476   48.1719 H   0  0  0  0  0  0  0  0  0  0  0  0
   63.6645   34.5486   48.4579 H   0  0  0  0  0  0  0  0  0  0  0  0
   63.0513   31.3647   48.7871 H   0  0  0  0  0  0  0  0  0  0  0  0
   61.2920   31.4840   49.1996 H   0  0  0  0  0  0  0  0  0  0  0  0
   61.6376   31.9175   46.3609 H   0  0  0  0  0  0  0  0  0  0  0  0
   62.4786   30.3894   46.8561 H   0  0  0  0  0  0  0  0  0  0  0  0
   60.4729   29.4715   47.7763 H   0  0  0  0  0  0  0  0  0  0  0  0
   59.6120   31.0494   47.6496 H   0  0  0  0  0  0  0  0  0  0  0  0
   60.9811   29.3417   44.1532 H   0  0  0  0  0  0  0  0  0  0  0  0
   61.3794   28.5419   45.7246 H   0  0  0  0  0  0  0  0  0  0  0  0
   59.9970   26.8920   44.6620 H   0  0  0  0  0  0  0  0  0  0  0  0
   57.1130   27.2030   43.0680 H   0  0  0  0  0  0  0  0  0  0  0  0
   57.1820   26.3980   44.6550 H   0  0  0  0  0  0  0  0  0  0  0  0
   54.6407   29.4918   44.3986 H   0  0  0  0  0  0  0  0  0  0  0  0
   55.0536   30.6072   43.0525 H   0  0  0  0  0  0  0  0  0  0  0  0
   55.6870   28.9263   43.0525 H   0  0  0  0  0  0  0  0  0  0  0  0
   58.9631   33.5524   43.8793 H   0  0  0  0  0  0  0  0  0  0  0  0
   59.9109   35.7331   44.6307 H   0  0  0  0  0  0  0  0  0  0  0  0
   60.0508   36.2620   47.0636 H   0  0  0  0  0  0  0  0  0  0  0  0
   59.2579   34.6107   48.7558 H   0  0  0  0  0  0  0  0  0  0  0  0
   57.6872   32.2083   50.2024 H   0  0  0  0  0  0  0  0  0  0  0  0
   59.1298   31.2200   49.7918 H   0  0  0  0  0  0  0  0  0  0  0  0
   59.2398   33.0129   49.7918 H   0  0  0  0  0  0  0  0  0  0  0  0
  1  2  1  0
  2  3  1  0
  3  4  1  0
  4  5  1  0
  5  6  1  0
  6  7  1  0
  7  8  1  0
  8  9  1  0
  9 10  1  0
 10 11  2  0
 10 12  1  0
 12 13  1  0
 13 14  1  0
 13 15  2  0
 15 16  1  0
 16 17  1  0
 17 18  2  0
 18 19  1  0
 19 20  2  0
 20 21  1  0
 21 22  2  0
 22 23  1  0
 23 24  1  0
 16 25  1  0
 25  7  1  0
 25 12  2  0
 22 17  1  0
  1 26  1  0
  1 27  1  0
  1 28  1  0
  2 29  1  0
  2 30  1  0
  4 31  1  0
  4 32  1  0
  5 33  1  0
  5 34  1  0
  6 35  1  0
  6 36  1  0
  8 37  1  0
  8 38  1  0
  9 39  1  0
 11 40  1  0
 11 41  1  0
 14 42  1  0
 14 43  1  0
 14 44  1  0
 18 45  1  0
 19 46  1  0
 20 47  1  0
 21 48  1  0
 24 49  1  0
 24 50  1  0
 24 51  1  0
M  CHG  1  11   1
M  END
>  <UniqueID>  (9) 
9

>  <SMILES>  (9) 
CCOCCCN1CNC(=[NH2+])c2c(C)nn(-c3ccccc3OC)c21

>  <Energy>  (9) 
93.61435800341754

>  <Genealogy>  (9) 
CCOCCCN1CNC(=[NH2+])c2c(C)nn(-c3ccccc3OC)c21 (protonated)
CCOCCCN1CNC(=[NH2+])c2c(C)nn(-c3ccccc3OC)c21 (3D coordinates assigned)
CCOCCCN1CNC(=[NH2+])c2c(C)nn(-c3ccccc3OC)c21 (nonaromatic ring conformer: 93.61435800341754 kcal/mol)

>  <smiles>  (9) 
CCOCCCN1CNC(=N)c2c(C)nn(-c3ccccc3OC)c21

>  <score_type>  (9) 
oracle

>  <origin>  (9) 
adg

>  <m_score__min__energy>  (9) 
-5.9199999999999999

>  <m_primary>  (9) 
energy

$$$$
9:0
     RDKit          3D

 31 33  0  0  0  0  0  0  0  0999 V2000
   55.1160   26.7070   46.0600 O   0  0  0  0  0  0  0  0  0  0  0  0
   55.7400   25.5330   45.6400 C   0  0  0  0  0  0  0  0  0  0  0  0
   54.9740   24.4900   45.0990 C   0  0  0  0  0  0  0  0  0  0  0  0
   55.5900   23.3120   44.6690 C   0  0  0  0  0  0  0  0  0  0  0  0
   56.9750   23.1690   44.7730 C   0  0  0  0  0  0  0  0  0  0  0  0
   57.7470   24.2020   45.3110 C   0  0  0  0  0  0  0  0  0  0  0  0
   57.1380   25.3880   45.7580 C   0  0  0  0  0  0  0  0  0  0  0  0
   57.9930   26.5050   46.3020 C   0  0  0  0  0  0  0  0  0  0  0  0
   57.7600   27.7710   45.5230 C   0  0  0  0  0  0  0  0  0  0  0  0
   57.5290   28.9890   46.1740 C   0  0  0  0  0  0  0  0  0  0  0  0
   57.2890   30.1120   45.4480 N   0  0  0  0  0  0  0  0  0  0  0  0
   57.2730   30.0800   44.0900 C   0  0  0  0  0  0  0  0  0  0  0  0
   56.9710   31.3230   43.3140 C   0  0  0  0  0  0  0  0  0  0  0  0
   58.1490   31.8910   42.5370 C   0  0  0  0  0  0  0  0  0  0  0  0
   57.6820   32.5730   43.8110 C   0  0  0  0  0  0  0  0  0  0  0  0
   57.4700   28.9030   43.4380 N   0  0  0  0  0  0  0  0  0  0  0  0
   57.7140   27.7560   44.1240 C   0  0  0  0  0  0  0  0  0  0  0  0
   54.3780   26.6980   46.7550 H   0  0  0  0  0  0  0  0  0  0  0  0
   53.8829   24.6000   45.0128 H   0  0  0  0  0  0  0  0  0  0  0  0
   54.9834   22.4966   44.2482 H   0  0  0  0  0  0  0  0  0  0  0  0
   57.4589   22.2422   44.4311 H   0  0  0  0  0  0  0  0  0  0  0  0
   58.8384   24.0867   45.3853 H   0  0  0  0  0  0  0  0  0  0  0  0
   57.7363   26.6767   47.3578 H   0  0  0  0  0  0  0  0  0  0  0  0
   59.0517   26.2203   46.2118 H   0  0  0  0  0  0  0  0  0  0  0  0
   57.5418   29.0366   47.2729 H   0  0  0  0  0  0  0  0  0  0  0  0
   55.9304   31.0605   43.0728 H   0  0  0  0  0  0  0  0  0  0  0  0
   59.1082   31.3528   42.5213 H   0  0  0  0  0  0  0  0  0  0  0  0
   58.3123   32.2128   41.4979 H   0  0  0  0  0  0  0  0  0  0  0  0
   58.3030   32.5285   44.7179 H   0  0  0  0  0  0  0  0  0  0  0  0
   57.3671   33.5930   44.0764 H   0  0  0  0  0  0  0  0  0  0  0  0
   57.8757   26.8141   43.5793 H   0  0  0  0  0  0  0  0  0  0  0  0
  1  2  1  0
  2  3  2  0
  3  4  1  0
  4  5  2  0
  5  6  1  0
  6  7  2  0
  7  8  1  0
  8  9  1  0
  9 10  2  0
 10 11  1  0
 11 12  2  0
 12 13  1  0
 13 14  1  0
 14 15  1  0
 12 16  1  0
 16 17  2  0
  7  2  1  0
 17  9  1  0
 15 13  1  0
  1 18  1  0
  3 19  1  0
  4 20  1  0
  5 21  1  0
  6 22  1  0
  8 23  1  0
  8 24  1  0
 10 25  1  0
 13 26  1  0
 14 27  1  0
 14 28  1  0
 15 29  1  0
 15 30  1  0
 17 31  1  0
M  END
>  <UniqueID>  (10) 
10

>  <SMILES>  (10) 
Oc1ccccc1Cc1cnc(C2CC2)nc1

>  <Energy>  (10) 
295.4055229646096

>  <Genealogy>  (10) 
Oc1ccccc1Cc1cnc(C2CC2)nc1 (3D coordinates assigned)
Oc1ccccc1Cc1cnc(C2CC2)nc1 (nonaromatic ring conformer: 295.4055229646096 kcal/mol)

>  <smiles>  (10) 
Oc1ccccc1Cc1cnc(C2CC2)nc1

>  <score_type>  (10) 
oracle

>  <origin>  (10) 
adg

>  <m_score__min__energy>  (10) 
-7.6600000000000001

>  <m_primary>  (10) 
energy

$$$$
10:0
     RDKit          3D

 53 55  0  0  0  0  0  0  0  0999 V2000
   57.1140   29.8820   43.9620 C   0  0  0  0  0  0  0  0  0  0  0  0
   58.0930   30.7950   44.5720 N   0  0  0  0  0  0  0  0  0  0  0  0
   57.8330   32.1940   44.1640 C   0  0  0  0  0  0  0  0  0  0  0  0
   56.6720   32.8250   44.9500 C   0  0  0  0  0  0  0  0  0  0  0  0
   57.0520   34.1830   45.5520 C   0  0  0  0  0  0  0  0  0  0  0  0
   58.3290   34.0810   46.2660 N   0  0  0  0  0  0  0  0  0  0  0  0
   58.3310   33.5310   47.4840 N   0  0  0  0  0  0  0  0  0  0  0  0
   59.4700   33.3750   48.2050 C   0  0  0  0  0  0  0  0  0  0  0  0
   60.6940   33.7930   47.6720 C   0  0  0  0  0  0  0  0  0  0  0  0
   61.9200   33.6230   48.4130 N   0  0  0  0  0  0  0  0  0  0  0  0
   61.9050   33.4060   49.8650 C   0  0  0  0  0  0  0  0  0  0  0  0
   62.7600   32.1780   50.2370 C   0  0  0  0  0  0  0  0  0  0  0  0
   63.8500   31.8950   49.2810 N   0  0  0  0  0  0  0  0  0  0  0  0
   64.3290   33.1040   48.5980 C   0  0  0  0  0  0  0  0  0  0  0  0
   63.2150   33.7030   47.7270 C   0  0  0  0  0  0  0  0  0  0  0  0
   60.7020   34.3480   46.3880 C   0  0  0  0  0  0  0  0  0  0  0  0
   59.5030   34.4880   45.6890 C   0  0  0  0  0  0  0  0  0  0  0  0
   59.5160   34.9880   44.5310 O   0  0  0  0  0  0  0  0  0  0  0  0
   58.2200   30.5860   46.0370 C   0  0  0  0  0  0  0  0  0  0  0  0
   58.7000   29.1960   46.4390 C   0  0  0  0  0  0  0  0  0  0  0  0
   57.8050   28.1130   46.3500 C   0  0  0  0  0  0  0  0  0  0  0  0
   58.2060   26.8240   46.7030 C   0  0  0  0  0  0  0  0  0  0  0  0
   59.5010   26.5960   47.1690 C   0  0  0  0  0  0  0  0  0  0  0  0
   60.3940   27.6600   47.2950 C   0  0  0  0  0  0  0  0  0  0  0  0
   60.0050   28.9610   46.9430 C   0  0  0  0  0  0  0  0  0  0  0  0
   60.9500   30.0320   47.1480 C   0  0  0  0  0  0  0  0  0  0  0  0
   61.7110   30.8890   47.3110 N   0  0  0  0  0  0  0  0  0  0  0  0
   56.5555   29.3611   44.7537 H   0  0  0  0  0  0  0  0  0  0  0  0
   56.4147   30.4579   43.3381 H   0  0  0  0  0  0  0  0  0  0  0  0
   57.6398   29.1442   43.3381 H   0  0  0  0  0  0  0  0  0  0  0  0
   58.7422   32.7881   44.3382 H   0  0  0  0  0  0  0  0  0  0  0  0
   57.5548   32.1879   43.0998 H   0  0  0  0  0  0  0  0  0  0  0  0
   55.8185   32.9649   44.2703 H   0  0  0  0  0  0  0  0  0  0  0  0
   56.4167   32.1475   45.7782 H   0  0  0  0  0  0  0  0  0  0  0  0
   57.1451   34.9249   44.7452 H   0  0  0  0  0  0  0  0  0  0  0  0
   56.2691   34.4937   46.2594 H   0  0  0  0  0  0  0  0  0  0  0  0
   59.4309   32.9210   49.2062 H   0  0  0  0  0  0  0  0  0  0  0  0
   62.3115   34.2958   50.3681 H   0  0  0  0  0  0  0  0  0  0  0  0
   60.8684   33.2282   50.1872 H   0  0  0  0  0  0  0  0  0  0  0  0
   63.2051   32.3532   51.2276 H   0  0  0  0  0  0  0  0  0  0  0  0
   62.0893   31.3063   50.2232 H   0  0  0  0  0  0  0  0  0  0  0  0
   63.5000   31.2230   48.5590 H   0  0  0  0  0  0  0  0  0  0  0  0
   64.6404   33.8452   49.3487 H   0  0  0  0  0  0  0  0  0  0  0  0
   65.1806   32.8371   47.9549 H   0  0  0  0  0  0  0  0  0  0  0  0
   63.4481   34.7574   47.5175 H   0  0  0  0  0  0  0  0  0  0  0  0
   63.1540   33.1318   46.7889 H   0  0  0  0  0  0  0  0  0  0  0  0
   61.6489   34.6724   45.9319 H   0  0  0  0  0  0  0  0  0  0  0  0
   58.9366   31.3232   46.4282 H   0  0  0  0  0  0  0  0  0  0  0  0
   57.2103   30.7016   46.4578 H   0  0  0  0  0  0  0  0  0  0  0  0
   56.7772   28.2850   45.9979 H   0  0  0  0  0  0  0  0  0  0  0  0
   57.4994   25.9857   46.6136 H   0  0  0  0  0  0  0  0  0  0  0  0
   59.8178   25.5773   47.4370 H   0  0  0  0  0  0  0  0  0  0  0  0
   61.4107   27.4776   47.6731 H   0  0  0  0  0  0  0  0  0  0  0  0
  1  2  1  0
  2  3  1  0
  3  4  1  0
  4  5  1  0
  5  6  1  0
  6  7  1  0
  7  8  2  0
  8  9  1  0
  9 10  1  0
 10 11  1  0
 11 12  1  0
 12 13  1  0
 13 14  1  0
 14 15  1  0
  9 16  2  0
 16 17  1  0
 17 18  2  0
  2 19  1  0
 19 20  1  0
 20 21  2  0
 21 22  1  0
 22 23  2  0
 23 24  1  0
 24 25  2  0
 25 26  1  0
 26 27  3  0
 17  6  1  0
 25 20  1  0
 15 10  1  0
  1 28  1  0
  1 29  1  0
  1 30  1  0
  3 31  1  0
  3 32  1  0
  4 33  1  0
  4 34  1  0
  5 35  1  0
  5 36  1  0
  8 37  1  0
 11 38  1  0
 11 39  1  0
 12 40  1  0
 12 41  1  0
 13 42  1  0
 14 43  1  0
 14 44  1  0
 15 45  1  0
 15 46  1  0
 16 47  1  0
 19 48  1  0
 19 49  1  0
 21 50  1  0
 22 51  1  0
 23 52  1  0
 24 53  1  0
M  END
>  <UniqueID>  (11) 
11

>  <SMILES>  (11) 
CN(CCCn1ncc(N2CCNCC2)cc1=O)Cc1ccccc1C#N

>  <Energy>  (11) 
65.74816289373292

>  <Genealogy>  (11) 
CN(CCCn1ncc(N2CCNCC2)cc1=O)Cc1ccccc1C#N (3D coordinates assigned)
CN(CCCn1ncc(N2CCNCC2)cc1=O)Cc1ccccc1C#N (nonaromatic ring conformer: 65.74816289373292 kcal/mol)

>  <smiles>  (11) 
CN(CCCn1ncc(N2CCNCC2)cc1=O)Cc1ccccc1C#N

>  <score_type>  (11) 
oracle

>  <origin>  (11) 
adg

>  <m_score__min__energy>  (11) 
-7.8300000000000001

>  <m_primary>  (11) 
energy

$$$$
11:0
     RDKit          3D

 30 31  0  0  0  0  0  0  0  0999 V2000
   66.5940   32.3760   50.7510 C   0  0  0  0  0  0  0  0  0  0  0  0
   65.2240   32.9800   50.4590 C   0  0  0  0  0  0  0  0  0  0  0  0
   65.0040   33.0920   49.0170 N   0  0  0  0  0  0  0  0  0  0  0  0
   63.7190   33.2800   48.3940 C   0  0  0  0  0  0  0  0  0  0  0  0
   63.5850   33.6640   47.0490 C   0  0  0  0  0  0  0  0  0  0  0  0
   62.3180   33.8300   46.4900 C   0  0  0  0  0  0  0  0  0  0  0  0
   61.1750   33.6070   47.2730 C   0  0  0  0  0  0  0  0  0  0  0  0
   59.8190   33.7720   46.6910 C   0  0  0  0  0  0  0  0  0  0  0  0
   58.6890   33.2880   47.3740 C   0  0  0  0  0  0  0  0  0  0  0  0
   57.4110   33.4430   46.8280 C   0  0  0  0  0  0  0  0  0  0  0  0
   57.2480   34.0830   45.5970 C   0  0  0  0  0  0  0  0  0  0  0  0
   58.3630   34.5680   44.9090 C   0  0  0  0  0  0  0  0  0  0  0  0
   59.6430   34.4150   45.4510 C   0  0  0  0  0  0  0  0  0  0  0  0
   61.3260   33.2280   48.5770 N   0  0  0  0  0  0  0  0  0  0  0  0
   62.5530   33.0620   49.1400 C   0  0  0  0  0  0  0  0  0  0  0  0
   66.7417   32.3109   51.8391 H   0  0  0  0  0  0  0  0  0  0  0  0
   66.6518   31.3690   50.3122 H   0  0  0  0  0  0  0  0  0  0  0  0
   67.3765   33.0126   50.3122 H   0  0  0  0  0  0  0  0  0  0  0  0
   64.4455   32.3360   50.8939 H   0  0  0  0  0  0  0  0  0  0  0  0
   65.1796   33.9857   50.9023 H   0  0  0  0  0  0  0  0  0  0  0  0
   65.8500   33.0450   48.4040 H   0  0  0  0  0  0  0  0  0  0  0  0
   64.4818   33.8342   46.4352 H   0  0  0  0  0  0  0  0  0  0  0  0
   62.2150   34.1349   45.4381 H   0  0  0  0  0  0  0  0  0  0  0  0
   58.8112   32.7842   48.3442 H   0  0  0  0  0  0  0  0  0  0  0  0
   56.5327   33.0604   47.3686 H   0  0  0  0  0  0  0  0  0  0  0  0
   56.2419   34.2051   45.1694 H   0  0  0  0  0  0  0  0  0  0  0  0
   58.2338   35.0711   43.9393 H   0  0  0  0  0  0  0  0  0  0  0  0
   60.5174   34.7993   44.9053 H   0  0  0  0  0  0  0  0  0  0  0  0
   60.4850   33.0760   49.1800 H   0  0  0  0  0  0  0  0  0  0  0  0
   62.6309   32.7531   50.1929 H   0  0  0  0  0  0  0  0  0  0  0  0
  1  2  1  0
  2  3  1  0
  3  4  1  0
  4  5  2  0
  5  6  1  0
  6  7  2  0
  7  8  1  0
  8  9  2  0
  9 10  1  0
 10 11  2  0
 11 12  1  0
 12 13  2  0
  7 14  1  0
 14 15  2  0
 15  4  1  0
 13  8  1  0
  1 16  1  0
  1 17  1  0
  1 18  1  0
  2 19  1  0
  2 20  1  0
  3 21  1  0
  5 22  1  0
  6 23  1  0
  9 24  1  0
 10 25  1  0
 11 26  1  0
 12 27  1  0
 13 28  1  0
 14 29  1  0
 15 30  1  0
M  CHG  1  14   1
M  END
>  <UniqueID>  (12) 
12

>  <SMILES>  (12) 
CCNc1ccc(-c2ccccc2)[nH+]c1

>  <Energy>  (12) 
32.45247703727806

>  <Genealogy>  (12) 
CCNc1ccc(-c2ccccc2)[nH+]c1 (protonated)
CCNc1ccc(-c2ccccc2)[nH+]c1 (3D coordinates assigned)
CCNc1ccc(-c2ccccc2)[nH+]c1 (optimized conformer: 32.45247703727806 kcal/mol)

>  <smiles>  (12) 
CCNc1ccc(-c2ccccc2)nc1

>  <score_type>  (12) 
oracle

>  <origin>  (12) 
adg

>  <m_score__min__energy>  (12) 
-4.3600000000000003

>  <m_primary>  (12) 
energy

$$$$
12:0
     RDKit          3D

 52 55  0  0  0  0  0  0  0  0999 V2000
   56.6380   30.3430   43.8700 C   0  0  0  0  0  0  0  0  0  0  0  0
   57.1680   30.8800   45.0760 O   0  0  0  0  0  0  0  0  0  0  0  0
   57.7290   32.1600   45.1960 C   0  0  0  0  0  0  0  0  0  0  0  0
   57.0110   33.3330   44.8940 C   0  0  0  0  0  0  0  0  0  0  0  0
   57.6140   34.5850   45.0490 C   0  0  0  0  0  0  0  0  0  0  0  0
   58.9260   34.6820   45.5190 C   0  0  0  0  0  0  0  0  0  0  0  0
   59.6470   33.5220   45.8420 C   0  0  0  0  0  0  0  0  0  0  0  0
   61.0460   33.6220   46.3960 C   0  0  0  0  0  0  0  0  0  0  0  0
   61.0360   33.8920   47.8340 N   0  0  0  0  0  0  0  0  0  0  0  0
   60.4310   33.0840   48.8550 C   0  0  0  0  0  0  0  0  0  0  0  0
   60.2110   33.6060   49.9810 O   0  0  0  0  0  0  0  0  0  0  0  0
   59.9740   31.6660   48.5970 C   0  0  0  0  0  0  0  0  0  0  0  0
   61.1050   30.7640   48.0490 C   0  0  0  0  0  0  0  0  0  0  0  0
   60.7910   29.2620   48.2250 C   0  0  0  0  0  0  0  0  0  0  0  0
   59.3480   29.0490   48.4170 N   0  0  0  0  0  0  0  0  0  0  0  0
   58.5550   28.3200   47.4620 C   0  0  0  0  0  0  0  0  0  0  0  0
   57.8090   28.8960   46.4910 N   0  0  0  0  0  0  0  0  0  0  0  0
   57.0870   28.0280   45.7830 N   0  0  0  0  0  0  0  0  0  0  0  0
   57.2510   26.7460   46.1830 C   0  0  0  0  0  0  0  0  0  0  0  0
   56.5460   25.5990   45.5850 C   0  0  0  0  0  0  0  0  0  0  0  0
   57.1630   24.7980   44.6100 C   0  0  0  0  0  0  0  0  0  0  0  0
   56.4600   23.7230   44.0620 C   0  0  0  0  0  0  0  0  0  0  0  0
   55.1570   23.4550   44.4850 C   0  0  0  0  0  0  0  0  0  0  0  0
   54.5740   24.2720   45.4560 C   0  0  0  0  0  0  0  0  0  0  0  0
   55.2730   25.3140   45.9790 N   0  0  0  0  0  0  0  0  0  0  0  0
   58.3260   26.6480   47.4790 S   0  0  0  0  0  0  0  0  0  0  0  0
   58.6920   29.7110   49.5550 C   0  0  0  0  0  0  0  0  0  0  0  0
   59.3680   31.0570   49.8750 C   0  0  0  0  0  0  0  0  0  0  0  0
   59.0500   32.2650   45.6470 C   0  0  0  0  0  0  0  0  0  0  0  0
   55.8838   29.5788   44.1092 H   0  0  0  0  0  0  0  0  0  0  0  0
   56.1710   31.1484   43.2841 H   0  0  0  0  0  0  0  0  0  0  0  0
   57.4494   29.8866   43.2841 H   0  0  0  0  0  0  0  0  0  0  0  0
   55.9734   33.2643   44.5353 H   0  0  0  0  0  0  0  0  0  0  0  0
   57.0528   35.4976   44.7997 H   0  0  0  0  0  0  0  0  0  0  0  0
   59.3951   35.6700   45.6362 H   0  0  0  0  0  0  0  0  0  0  0  0
   61.5709   32.6726   46.2144 H   0  0  0  0  0  0  0  0  0  0  0  0
   61.5576   34.4553   45.8922 H   0  0  0  0  0  0  0  0  0  0  0  0
   59.2009   31.7152   47.8161 H   0  0  0  0  0  0  0  0  0  0  0  0
   61.2384   30.9748   46.9777 H   0  0  0  0  0  0  0  0  0  0  0  0
   62.0198   30.9865   48.6180 H   0  0  0  0  0  0  0  0  0  0  0  0
   61.1197   28.7173   47.3276 H   0  0  0  0  0  0  0  0  0  0  0  0
   61.3233   28.8923   49.1138 H   0  0  0  0  0  0  0  0  0  0  0  0
   57.7480   29.9240   46.3210 H   0  0  0  0  0  0  0  0  0  0  0  0
   58.1900   25.0154   44.2813 H   0  0  0  0  0  0  0  0  0  0  0  0
   56.9325   23.0882   43.2979 H   0  0  0  0  0  0  0  0  0  0  0  0
   54.5961   22.6103   44.0586 H   0  0  0  0  0  0  0  0  0  0  0  0
   53.5478   24.0721   45.7981 H   0  0  0  0  0  0  0  0  0  0  0  0
   57.6352   29.8892   49.3071 H   0  0  0  0  0  0  0  0  0  0  0  0
   58.7764   29.0582   50.4363 H   0  0  0  0  0  0  0  0  0  0  0  0
   58.6202   31.7498   50.2882 H   0  0  0  0  0  0  0  0  0  0  0  0
   60.1710   30.8896   50.6080 H   0  0  0  0  0  0  0  0  0  0  0  0
   59.6281   31.3518   45.8514 H   0  0  0  0  0  0  0  0  0  0  0  0
  1  2  1  0
  2  3  1  0
  3  4  2  0
  4  5  1  0
  5  6  2  0
  6  7  1  0
  7  8  1  0
  8  9  1  0
  9 10  1  0
 10 11  2  0
 10 12  1  0
 12 13  1  0
 13 14  1  0
 14 15  1  0
 15 16  1  0
 16 17  2  0
 17 18  1  0
 18 19  2  0
 19 20  1  0
 20 21  2  0
 21 22  1  0
 22 23  2  0
 23 24  1  0
 24 25  2  0
 19 26  1  0
 15 27  1  0
 27 28  1  0
  7 29  2  0
 29  3  1  0
 28 12  1  0
 26 16  1  0
 25 20  1  0
  1 30  1  0
  1 31  1  0
  1 32  1  0
  4 33  1  0
  5 34  1  0
  6 35  1  0
  8 36  1  0
  8 37  1  0
 12 38  1  0
 13 39  1  0
 13 40  1  0
 14 41  1  0
 14 42  1  0
 17 43  1  0
 21 44  1  0
 22 45  1  0
 23 46  1  0
 24 47  1  0
 27 48  1  0
 27 49  1  0
 28 50  1  0
 28 51  1  0
 29 52  1  0
M  CHG  2   9  -1  17   1
M  END
>  <UniqueID>  (13) 
13

>  <SMILES>  (13) 
COc1cccc(C[N-]C(=O)C2CCN(c3[nH+]nc(-c4ccccn4)s3)CC2)c1

>  <Energy>  (13) 
89.32883197124778

>  <Genealogy>  (13) 
COc1cccc(C[N-]C(=O)C2CCN(c3[nH+]nc(-c4ccccn4)s3)CC2)c1 (protonated)
COc1cccc(C[N-]C(=O)C2CCN(c3[nH+]nc(-c4ccccn4)s3)CC2)c1 (3D coordinates assigned)
COc1cccc(C[N-]C(=O)C2CCN(c3[nH+]nc(-c4ccccn4)s3)CC2)c1 (nonaromatic ring conformer: 89.32883197124778 kcal/mol)

>  <smiles>  (13) 
COc1cccc(CNC(=O)C2CCN(c3nnc(-c4ccccn4)s3)CC2)c1

>  <score_type>  (13) 
oracle

>  <origin>  (13) 
adg

>  <m_score__min__energy>  (13) 
-9.2599999999999998

>  <m_primary>  (13) 
energy

$$$$
13:0
     RDKit          3D

 48 50  0  0  0  0  0  0  0  0999 V2000
   63.3250   34.5970   50.7970 C   0  0  0  0  0  0  0  0  0  0  0  0
   62.8600   34.5310   49.4520 O   0  0  0  0  0  0  0  0  0  0  0  0
   62.2840   33.3930   48.8680 C   0  0  0  0  0  0  0  0  0  0  0  0
   61.1640   32.8240   49.4840 C   0  0  0  0  0  0  0  0  0  0  0  0
   60.5530   31.6900   48.9430 C   0  0  0  0  0  0  0  0  0  0  0  0
   61.0560   31.0980   47.7700 C   0  0  0  0  0  0  0  0  0  0  0  0
   60.4110   29.8960   47.1850 C   0  0  0  0  0  0  0  0  0  0  0  0
   59.9630   28.8360   47.9010 N   0  0  0  0  0  0  0  0  0  0  0  0
   59.4060   27.8650   47.1250 C   0  0  0  0  0  0  0  0  0  0  0  0
   58.8680   26.5940   47.7090 C   0  0  0  0  0  0  0  0  0  0  0  0
   59.4330   28.1370   45.7550 C   0  0  0  0  0  0  0  0  0  0  0  0
   58.8620   27.2970   44.6520 C   0  0  0  0  0  0  0  0  0  0  0  0
   57.9140   28.1260   43.7820 C   0  0  0  0  0  0  0  0  0  0  0  0
   56.9890   28.8800   44.6190 N   0  0  0  0  0  0  0  0  0  0  0  0
   56.5030   30.1840   44.2820 C   0  0  0  0  0  0  0  0  0  0  0  0
   55.3060   30.5010   44.5170 O   0  0  0  0  0  0  0  0  0  0  0  0
   57.4120   31.1570   43.6030 C   0  0  0  0  0  0  0  0  0  0  0  0
   57.8780   32.1930   44.5870 C   0  0  0  0  0  0  0  0  0  0  0  0
   57.7700   31.9570   45.9690 C   0  0  0  0  0  0  0  0  0  0  0  0
   58.1710   32.9370   46.8830 C   0  0  0  0  0  0  0  0  0  0  0  0
   58.6710   34.1590   46.4270 C   0  0  0  0  0  0  0  0  0  0  0  0
   59.0570   35.1080   47.3150 F   0  0  0  0  0  0  0  0  0  0  0  0
   58.7680   34.4070   45.0540 C   0  0  0  0  0  0  0  0  0  0  0  0
   58.3680   33.4310   44.1360 C   0  0  0  0  0  0  0  0  0  0  0  0
   60.1410   29.6480   45.5380 S   0  0  0  0  0  0  0  0  0  0  0  0
   62.1780   31.6750   47.1490 C   0  0  0  0  0  0  0  0  0  0  0  0
   62.7890   32.8090   47.6930 C   0  0  0  0  0  0  0  0  0  0  0  0
   62.4753   34.4764   51.4851 H   0  0  0  0  0  0  0  0  0  0  0  0
   64.0556   33.7936   50.9722 H   0  0  0  0  0  0  0  0  0  0  0  0
   63.8032   35.5720   50.9722 H   0  0  0  0  0  0  0  0  0  0  0  0
   60.7606   33.2739   50.4032 H   0  0  0  0  0  0  0  0  0  0  0  0
   59.6716   31.2565   49.4382 H   0  0  0  0  0  0  0  0  0  0  0  0
   60.0530   28.7480   48.9380 H   0  0  0  0  0  0  0  0  0  0  0  0
   58.8939   26.6552   48.8070 H   0  0  0  0  0  0  0  0  0  0  0  0
   57.8305   26.4470   47.3743 H   0  0  0  0  0  0  0  0  0  0  0  0
   59.4847   25.7468   47.3743 H   0  0  0  0  0  0  0  0  0  0  0  0
   59.6824   26.9124   44.0283 H   0  0  0  0  0  0  0  0  0  0  0  0
   58.2992   26.4625   45.0956 H   0  0  0  0  0  0  0  0  0  0  0  0
   58.5018   28.8255   43.1694 H   0  0  0  0  0  0  0  0  0  0  0  0
   57.3391   27.4487   43.1333 H   0  0  0  0  0  0  0  0  0  0  0  0
   58.2829   30.6210   43.1976 H   0  0  0  0  0  0  0  0  0  0  0  0
   56.8673   31.6524   42.7858 H   0  0  0  0  0  0  0  0  0  0  0  0
   57.3691   30.9992   46.3323 H   0  0  0  0  0  0  0  0  0  0  0  0
   58.0924   32.7449   47.9633 H   0  0  0  0  0  0  0  0  0  0  0  0
   59.1593   35.3707   44.6960 H   0  0  0  0  0  0  0  0  0  0  0  0
   58.4370   33.6327   43.0569 H   0  0  0  0  0  0  0  0  0  0  0  0
   62.5789   31.2300   46.2264 H   0  0  0  0  0  0  0  0  0  0  0  0
   63.6692   33.2464   47.1991 H   0  0  0  0  0  0  0  0  0  0  0  0
  1  2  1  0
  2  3  1  0
  3  4  2  0
  4  5  1  0
  5  6  2  0
  6  7  1  0
  7  8  2  0
  8  9  1  0
  9 10  1  0
  9 11  2  0
 11 12  1  0
 12 13  1  0
 13 14  1  0
 14 15  1  0
 15 16  2  0
 15 17  1  0
 17 18  1  0
 18 19  2  0
 19 20  1  0
 20 21  2  0
 21 22  1  0
 21 23  1  0
 23 24  2  0
 11 25  1  0
  6 26  1  0
 26 27  2  0
 27  3  1  0
 25  7  1  0
 24 18  1  0
  1 28  1  0
  1 29  1  0
  1 30  1  0
  4 31  1  0
  5 32  1  0
  8 33  1  0
 10 34  1  0
 10 35  1  0
 10 36  1  0
 12 37  1  0
 12 38  1  0
 13 39  1  0
 13 40  1  0
 17 41  1  0
 17 42  1  0
 19 43  1  0
 20 44  1  0
 23 45  1  0
 24 46  1  0
 26 47  1  0
 27 48  1  0
M  CHG  2   8   1  14  -1
M  END
>  <UniqueID>  (14) 
14

>  <SMILES>  (14) 
COc1ccc(-c2[nH+]c(C)c(CC[N-]C(=O)Cc3ccc(F)cc3)s2)cc1

>  <Energy>  (14) 
72.58827937289225

>  <Genealogy>  (14) 
COc1ccc(-c2[nH+]c(C)c(CC[N-]C(=O)Cc3ccc(F)cc3)s2)cc1 (protonated)
COc1ccc(-c2[nH+]c(C)c(CC[N-]C(=O)Cc3ccc(F)cc3)s2)cc1 (3D coordinates assigned)
COc1ccc(-c2[nH+]c(C)c(CC[N-]C(=O)Cc3ccc(F)cc3)s2)cc1 (optimized conformer: 72.58827937289225 kcal/mol)

>  <smiles>  (14) 
COc1ccc(-c2nc(C)c(CCNC(=O)Cc3ccc(F)cc3)s2)cc1

>  <score_type>  (14) 
oracle

>  <origin>  (14) 
adg

>  <m_score__min__energy>  (14) 
-8.4399999999999995

>  <m_primary>  (14) 
energy

$$$$
14:0
     RDKit          3D

 31 32  0  0  0  0  0  0  0  0999 V2000
   56.3320   24.4410   47.1410 C   0  0  0  0  0  0  0  0  0  0  0  0
   55.6730   25.5540   46.5480 O   0  0  0  0  0  0  0  0  0  0  0  0
   56.3150   26.4260   45.6650 C   0  0  0  0  0  0  0  0  0  0  0  0
   57.2760   26.0220   44.9550 O   0  0  0  0  0  0  0  0  0  0  0  0
   55.9000   27.7960   45.6210 N   0  0  0  0  0  0  0  0  0  0  0  0
   56.5870   28.8810   44.9790 C   0  0  0  0  0  0  0  0  0  0  0  0
   55.9210   29.7390   44.0840 C   0  0  0  0  0  0  0  0  0  0  0  0
   56.6100   30.7750   43.4510 C   0  0  0  0  0  0  0  0  0  0  0  0
   57.9650   30.9750   43.7100 C   0  0  0  0  0  0  0  0  0  0  0  0
   58.6330   30.1480   44.6150 C   0  0  0  0  0  0  0  0  0  0  0  0
   57.9520   29.1060   45.2680 C   0  0  0  0  0  0  0  0  0  0  0  0
   58.6550   28.2760   46.2090 N   0  0  0  0  0  0  0  0  0  0  0  0
   58.5190   28.4080   47.6500 C   0  0  0  0  0  0  0  0  0  0  0  0
   59.6780   27.6170   48.2420 C   0  0  0  0  0  0  0  0  0  0  0  0
   60.1640   26.6980   47.1240 C   0  0  0  0  0  0  0  0  0  0  0  0
   59.7140   27.3570   45.8270 C   0  0  0  0  0  0  0  0  0  0  0  0
   56.2816   24.5261   48.2365 H   0  0  0  0  0  0  0  0  0  0  0  0
   55.8391   23.5107   46.8224 H   0  0  0  0  0  0  0  0  0  0  0  0
   57.3848   24.4258   46.8224 H   0  0  0  0  0  0  0  0  0  0  0  0
   54.8498   29.5922   43.8818 H   0  0  0  0  0  0  0  0  0  0  0  0
   56.0826   31.4349   42.7464 H   0  0  0  0  0  0  0  0  0  0  0  0
   58.5082   31.7849   43.2011 H   0  0  0  0  0  0  0  0  0  0  0  0
   59.7013   30.3132   44.8188 H   0  0  0  0  0  0  0  0  0  0  0  0
   58.5836   29.4652   47.9470 H   0  0  0  0  0  0  0  0  0  0  0  0
   57.5468   28.0345   48.0042 H   0  0  0  0  0  0  0  0  0  0  0  0
   60.4838   28.2957   48.5582 H   0  0  0  0  0  0  0  0  0  0  0  0
   59.3689   27.0472   49.1307 H   0  0  0  0  0  0  0  0  0  0  0  0
   61.2601   26.6091   47.1493 H   0  0  0  0  0  0  0  0  0  0  0  0
   59.7563   25.6815   47.2267 H   0  0  0  0  0  0  0  0  0  0  0  0
   60.5486   27.9029   45.3628 H   0  0  0  0  0  0  0  0  0  0  0  0
   59.3678   26.6169   45.0905 H   0  0  0  0  0  0  0  0  0  0  0  0
  1  2  1  0
  2  3  1  0
  3  4  2  0
  3  5  1  0
  5  6  1  0
  6  7  2  0
  7  8  1  0
  8  9  2  0
  9 10  1  0
 10 11  2  0
 11 12  1  0
 12 13  1  0
 13 14  1  0
 14 15  1  0
 15 16  1  0
 11  6  1  0
 16 12  1  0
  1 17  1  0
  1 18  1  0
  1 19  1  0
  7 20  1  0
  8 21  1  0
  9 22  1  0
 10 23  1  0
 13 24  1  0
 13 25  1  0
 14 26  1  0
 14 27  1  0
 15 28  1  0
 15 29  1  0
 16 30  1  0
 16 31  1  0
M  CHG  1   5  -1
M  END
>  <UniqueID>  (15) 
15

>  <SMILES>  (15) 
COC(=O)[N-]c1ccccc1N1CCCC1

>  <Energy>  (15) 
36.50600584793337

>  <Genealogy>  (15) 
COC(=O)[N-]c1ccccc1N1CCCC1 (protonated)
COC(=O)[N-]c1ccccc1N1CCCC1 (3D coordinates assigned)
COC(=O)[N-]c1ccccc1N1CCCC1 (nonaromatic ring conformer: 36.50600584793337 kcal/mol)

>  <smiles>  (15) 
COC(=O)Nc1ccccc1N1CCCC1

>  <score_type>  (15) 
oracle

>  <origin>  (15) 
adg

>  <m_score__min__energy>  (15) 
-7.3600000000000003

>  <m_primary>  (15) 
energy

$$$$
15:0
     RDKit          3D

 42 44  0  0  0  0  0  0  0  0999 V2000
   59.2300   32.9840   49.6160 C   0  0  0  0  0  0  0  0  0  0  0  0
   58.9760   33.4520   48.2140 C   0  0  0  0  0  0  0  0  0  0  0  0
   59.6380   34.5830   47.7140 C   0  0  0  0  0  0  0  0  0  0  0  0
   59.4360   34.9920   46.3940 C   0  0  0  0  0  0  0  0  0  0  0  0
   60.0800   36.0890   45.9220 F   0  0  0  0  0  0  0  0  0  0  0  0
   58.5780   34.2710   45.5580 C   0  0  0  0  0  0  0  0  0  0  0  0
   58.4010   34.6760   44.2750 F   0  0  0  0  0  0  0  0  0  0  0  0
   57.9150   33.1300   46.0430 C   0  0  0  0  0  0  0  0  0  0  0  0
   57.0210   32.3250   45.1320 C   0  0  0  0  0  0  0  0  0  0  0  0
   57.3860   30.8950   45.1740 N   0  0  0  0  0  0  0  0  0  0  0  0
   56.8850   30.1740   43.9740 C   0  0  0  0  0  0  0  0  0  0  0  0
   57.6260   28.8470   43.7120 C   0  0  0  0  0  0  0  0  0  0  0  0
   58.2730   28.3650   44.9370 N   0  0  0  0  0  0  0  0  0  0  0  0
   57.9880   27.0510   45.4520 C   0  0  0  0  0  0  0  0  0  0  0  0
   59.0310   26.1270   45.6400 C   0  0  0  0  0  0  0  0  0  0  0  0
   58.7620   24.8440   46.1230 C   0  0  0  0  0  0  0  0  0  0  0  0
   57.4500   24.4700   46.4230 C   0  0  0  0  0  0  0  0  0  0  0  0
   56.4060   25.3790   46.2390 C   0  0  0  0  0  0  0  0  0  0  0  0
   56.6680   26.6660   45.7540 C   0  0  0  0  0  0  0  0  0  0  0  0
   55.6400   27.5380   45.6090 F   0  0  0  0  0  0  0  0  0  0  0  0
   59.1560   29.2750   45.6760 C   0  0  0  0  0  0  0  0  0  0  0  0
   58.8450   30.7340   45.3240 C   0  0  0  0  0  0  0  0  0  0  0  0
   58.1290   32.7190   47.3690 C   0  0  0  0  0  0  0  0  0  0  0  0
   58.8296   33.7217   50.3270 H   0  0  0  0  0  0  0  0  0  0  0  0
   58.7340   32.0151   49.7747 H   0  0  0  0  0  0  0  0  0  0  0  0
   60.3127   32.8719   49.7747 H   0  0  0  0  0  0  0  0  0  0  0  0
   60.3195   35.1506   48.3647 H   0  0  0  0  0  0  0  0  0  0  0  0
   55.9763   32.4408   45.4565 H   0  0  0  0  0  0  0  0  0  0  0  0
   57.1432   32.6914   44.1020 H   0  0  0  0  0  0  0  0  0  0  0  0
   55.8164   29.9558   44.1175 H   0  0  0  0  0  0  0  0  0  0  0  0
   57.0595   30.8243   43.1041 H   0  0  0  0  0  0  0  0  0  0  0  0
   56.9047   28.0931   43.3637 H   0  0  0  0  0  0  0  0  0  0  0  0
   58.3981   29.0176   42.9473 H   0  0  0  0  0  0  0  0  0  0  0  0
   60.0660   26.4163   45.4051 H   0  0  0  0  0  0  0  0  0  0  0  0
   59.5842   24.1276   46.2672 H   0  0  0  0  0  0  0  0  0  0  0  0
   57.2393   23.4598   46.8040 H   0  0  0  0  0  0  0  0  0  0  0  0
   55.3735   25.0827   46.4761 H   0  0  0  0  0  0  0  0  0  0  0  0
   59.0083   29.1244   46.7556 H   0  0  0  0  0  0  0  0  0  0  0  0
   60.1987   29.0585   45.4003 H   0  0  0  0  0  0  0  0  0  0  0  0
   59.2073   31.3919   46.1277 H   0  0  0  0  0  0  0  0  0  0  0  0
   59.3458   31.0024   44.3821 H   0  0  0  0  0  0  0  0  0  0  0  0
   57.6287   31.8156   47.7479 H   0  0  0  0  0  0  0  0  0  0  0  0
  1  2  1  0
  2  3  2  0
  3  4  1  0
  4  5  1  0
  4  6  2  0
  6  7  1  0
  6  8  1  0
  8  9  1  0
  9 10  1  0
 10 11  1  0
 11 12  1  0
 12 13  1  0
 13 14  1  0
 14 15  2  0
 15 16  1  0
 16 17  2  0
 17 18  1  0
 18 19  2  0
 19 20  1  0
 13 21  1  0
 21 22  1  0
  8 23  2  0
 23  2  1  0
 22 10  1  0
 19 14  1  0
  1 24  1  0
  1 25  1  0
  1 26  1  0
  3 27  1  0
  9 28  1  0
  9 29  1  0
 11 30  1  0
 11 31  1  0
 12 32  1  0
 12 33  1  0
 15 34  1  0
 16 35  1  0
 17 36  1  0
 18 37  1  0
 21 38  1  0
 21 39  1  0
 22 40  1  0
 22 41  1  0
 23 42  1  0
M  END
>  <UniqueID>  (16) 
16

>  <SMILES>  (16) 
Cc1cc(F)c(F)c(CN2CCN(c3ccccc3F)CC2)c1

>  <Energy>  (16) 
53.57965402505964

>  <Genealogy>  (16) 
Cc1cc(F)c(F)c(CN2CCN(c3ccccc3F)CC2)c1 (3D coordinates assigned)
Cc1cc(F)c(F)c(CN2CCN(c3ccccc3F)CC2)c1 (nonaromatic ring conformer: 53.57965402505964 kcal/mol)

>  <smiles>  (16) 
Cc1cc(F)c(F)c(CN2CCN(c3ccccc3F)CC2)c1

>  <score_type>  (16) 
oracle

>  <origin>  (16) 
adg

>  <m_score__min__energy>  (16) 
-7.5800000000000001

>  <m_primary>  (16) 
energy

$$$$
16:0
     RDKit          3D

 41 43  0  0  0  0  0  0  0  0999 V2000
   63.0200   33.8410   46.3680 Cl  0  0  0  0  0  0  0  0  0  0  0  0
   63.2080   32.9410   47.8650 C   0  0  0  0  0  0  0  0  0  0  0  0
   64.2930   33.2070   48.6400 N   0  0  0  0  0  0  0  0  0  0  0  0
   64.5290   32.5490   49.8030 C   0  0  0  0  0  0  0  0  0  0  0  0
   63.6440   31.5640   50.2380 C   0  0  0  0  0  0  0  0  0  0  0  0
   62.5200   31.2660   49.4670 C   0  0  0  0  0  0  0  0  0  0  0  0
   62.2830   31.9490   48.2600 C   0  0  0  0  0  0  0  0  0  0  0  0
   61.1260   31.6570   47.4480 N   0  0  0  0  0  0  0  0  0  0  0  0
   60.7670   30.3170   46.9810 C   0  0  0  0  0  0  0  0  0  0  0  0
   59.6020   30.3860   46.0370 C   0  0  0  0  0  0  0  0  0  0  0  0
   58.8870   29.2290   45.7010 C   0  0  0  0  0  0  0  0  0  0  0  0
   57.7960   29.3250   44.8360 C   0  0  0  0  0  0  0  0  0  0  0  0
   57.4240   30.5680   44.3210 C   0  0  0  0  0  0  0  0  0  0  0  0
   58.1530   31.7090   44.6860 C   0  0  0  0  0  0  0  0  0  0  0  0
   57.7940   33.0570   44.1280 C   0  0  0  0  0  0  0  0  0  0  0  0
   58.0340   34.1240   45.1240 N   0  0  0  0  0  0  0  0  0  0  0  0
   57.3680   33.8240   46.4130 C   0  0  0  0  0  0  0  0  0  0  0  0
   58.3610   33.3070   47.4700 C   0  0  0  0  0  0  0  0  0  0  0  0
   59.4100   34.2220   47.7560 O   0  0  0  0  0  0  0  0  0  0  0  0
   59.7740   35.0380   46.6510 C   0  0  0  0  0  0  0  0  0  0  0  0
   59.4830   34.3970   45.2850 C   0  0  0  0  0  0  0  0  0  0  0  0
   59.2190   31.5870   45.5240 N   0  0  0  0  0  0  0  0  0  0  0  0
   65.4185   32.7929   50.4023 H   0  0  0  0  0  0  0  0  0  0  0  0
   63.8299   31.0269   51.1798 H   0  0  0  0  0  0  0  0  0  0  0  0
   61.8148   30.4923   49.8049 H   0  0  0  0  0  0  0  0  0  0  0  0
   60.5180   32.4410   47.1220 H   0  0  0  0  0  0  0  0  0  0  0  0
   61.6283   29.8714   46.4617 H   0  0  0  0  0  0  0  0  0  0  0  0
   60.4875   29.7002   47.8479 H   0  0  0  0  0  0  0  0  0  0  0  0
   59.1828   28.2538   46.1152 H   0  0  0  0  0  0  0  0  0  0  0  0
   57.2302   28.4228   44.5605 H   0  0  0  0  0  0  0  0  0  0  0  0
   56.5676   30.6516   43.6357 H   0  0  0  0  0  0  0  0  0  0  0  0
   58.4080   33.2524   43.2365 H   0  0  0  0  0  0  0  0  0  0  0  0
   56.7254   33.0550   43.8671 H   0  0  0  0  0  0  0  0  0  0  0  0
   56.8945   34.7425   46.7901 H   0  0  0  0  0  0  0  0  0  0  0  0
   56.6220   33.0357   46.2340 H   0  0  0  0  0  0  0  0  0  0  0  0
   57.8081   33.1090   48.4001 H   0  0  0  0  0  0  0  0  0  0  0  0
   58.8262   32.3982   47.0605 H   0  0  0  0  0  0  0  0  0  0  0  0
   59.2137   35.9822   46.7176 H   0  0  0  0  0  0  0  0  0  0  0  0
   60.8620   35.1895   46.7089 H   0  0  0  0  0  0  0  0  0  0  0  0
   59.8106   35.0819   44.4891 H   0  0  0  0  0  0  0  0  0  0  0  0
   60.0284   33.4438   45.2217 H   0  0  0  0  0  0  0  0  0  0  0  0
  1  2  1  0
  2  3  2  0
  3  4  1  0
  4  5  2  0
  5  6  1  0
  6  7  2  0
  7  8  1  0
  8  9  1  0
  9 10  1  0
 10 11  2  0
 11 12  1  0
 12 13  2  0
 13 14  1  0
 14 15  1  0
 15 16  1  0
 16 17  1  0
 17 18  1  0
 18 19  1  0
 19 20  1  0
 20 21  1  0
 14 22  2  0
  7  2  1  0
 22 10  1  0
 21 16  1  0
  4 23  1  0
  5 24  1  0
  6 25  1  0
  8 26  1  0
  9 27  1  0
  9 28  1  0
 11 29  1  0
 12 30  1  0
 13 31  1  0
 15 32  1  0
 15 33  1  0
 17 34  1  0
 17 35  1  0
 18 36  1  0
 18 37  1  0
 20 38  1  0
 20 39  1  0
 21 40  1  0
 21 41  1  0
M  END
>  <UniqueID>  (17) 
17

>  <SMILES>  (17) 
Clc1ncccc1NCc1cccc(CN2CCOCC2)n1

>  <Energy>  (17) 
57.33483364795924

>  <Genealogy>  (17) 
Clc1ncccc1NCc1cccc(CN2CCOCC2)n1 (3D coordinates assigned)
Clc1ncccc1NCc1cccc(CN2CCOCC2)n1 (nonaromatic ring conformer: 57.33483364795924 kcal/mol)

>  <smiles>  (17) 
Clc1ncccc1NCc1cccc(CN2CCOCC2)n1

>  <score_type>  (17) 
oracle

>  <origin>  (17) 
adg

>  <m_score__min__energy>  (17) 
-7.7300000000000004

>  <m_primary>  (17) 
energy

$$$$
17:0
     RDKit          3D

 46 49  0  0  0  0  0  0  0  0999 V2000
   56.4646   30.7005   41.9127 H   0  0  0  0  0  0  0  0  0  0  0  0
   56.9110   30.8900   42.9000 C   0  0  0  0  0  0  0  0  0  0  0  0
   57.7940   32.0850   43.0350 C   0  0  0  0  0  0  0  0  0  0  0  0
   58.2090   32.6060   41.9640 O   0  0  0  0  0  0  0  0  0  0  0  0
   58.2230   32.6650   44.3000 N   0  0  2  0  0  0  0  0  0  0  0  0
   58.7880   31.9230   44.7820 H   0  0  0  0  0  0  0  0  0  0  0  0
   57.0740   32.9160   45.1980 C   0  0  0  0  0  0  0  0  0  0  0  0
   56.4427   33.7061   44.7653 H   0  0  0  0  0  0  0  0  0  0  0  0
   56.4977   31.9852   45.3056 H   0  0  0  0  0  0  0  0  0  0  0  0
   57.5600   33.3610   46.5850 C   0  0  0  0  0  0  0  0  0  0  0  0
   56.6886   33.6738   47.1791 H   0  0  0  0  0  0  0  0  0  0  0  0
   58.0810   32.5073   47.0430 H   0  0  0  0  0  0  0  0  0  0  0  0
   58.5640   34.5400   46.5200 C   0  0  1  0  0  0  0  0  0  0  0  0
   58.0709   35.3914   47.0119 H   0  0  0  0  0  0  0  0  0  0  0  0
   59.8290   34.2180   47.2730 C   0  0  0  0  0  0  0  0  0  0  0  0
   60.9990   33.8810   46.6710 N   0  0  0  0  0  0  0  0  0  0  0  0
   61.9600   33.6050   47.5900 C   0  0  0  0  0  0  0  0  0  0  0  0
   63.2640   33.2180   47.2770 C   0  0  0  0  0  0  0  0  0  0  0  0
   63.5882   33.1335   46.2293 H   0  0  0  0  0  0  0  0  0  0  0  0
   64.1560   32.9380   48.3300 C   0  0  0  0  0  0  0  0  0  0  0  0
   65.1880   32.6312   48.1044 H   0  0  0  0  0  0  0  0  0  0  0  0
   63.7360   33.0480   49.6710 C   0  0  0  0  0  0  0  0  0  0  0  0
   64.4426   32.8288   50.4850 H   0  0  0  0  0  0  0  0  0  0  0  0
   62.4200   33.4360   49.9740 C   0  0  0  0  0  0  0  0  0  0  0  0
   62.0801   33.5195   51.0168 H   0  0  0  0  0  0  0  0  0  0  0  0
   61.5580   33.7120   48.9140 C   0  0  0  0  0  0  0  0  0  0  0  0
   59.9460   34.1750   48.9650 S   0  0  0  0  0  0  0  0  0  0  0  0
   58.8750   34.9960   45.0790 C   0  0  0  0  0  0  0  0  0  0  0  0
   58.0150   35.5673   44.6996 H   0  0  0  0  0  0  0  0  0  0  0  0
   59.7900   35.6053   45.1187 H   0  0  0  0  0  0  0  0  0  0  0  0
   59.1470   33.8210   44.1160 C   0  0  0  0  0  0  0  0  0  0  0  0
   59.0428   34.1873   43.0840 H   0  0  0  0  0  0  0  0  0  0  0  0
   60.1621   33.4572   44.3335 H   0  0  0  0  0  0  0  0  0  0  0  0
   56.6170   30.0270   43.8860 C   0  0  0  0  0  0  0  0  0  0  0  0
   55.5566   29.8926   44.1459 H   0  0  0  0  0  0  0  0  0  0  0  0
   57.6210   29.2380   44.6540 C   0  0  0  0  0  0  0  0  0  0  0  0
   57.8790   27.9160   44.2380 C   0  0  0  0  0  0  0  0  0  0  0  0
   57.3461   27.5066   43.3671 H   0  0  0  0  0  0  0  0  0  0  0  0
   58.8040   27.1190   44.9190 C   0  0  0  0  0  0  0  0  0  0  0  0
   58.9949   26.0896   44.5814 H   0  0  0  0  0  0  0  0  0  0  0  0
   59.4870   27.6270   46.0280 C   0  0  0  0  0  0  0  0  0  0  0  0
   60.6420   26.6220   46.8860 Cl  0  0  0  0  0  0  0  0  0  0  0  0
   59.2420   28.9350   46.4550 C   0  0  0  0  0  0  0  0  0  0  0  0
   59.7794   29.3353   47.3273 H   0  0  0  0  0  0  0  0  0  0  0  0
   58.3170   29.7380   45.7790 C   0  0  0  0  0  0  0  0  0  0  0  0
   58.1298   30.7653   46.1249 H   0  0  0  0  0  0  0  0  0  0  0  0
  1  2  1  0
  2  3  1  0
  3  4  2  0
  3  5  1  0
  5  6  1  6
  5  7  1  0
  7  8  1  0
  7  9  1  0
  7 10  1  0
 10 11  1  0
 10 12  1  0
 10 13  1  0
 13 14  1  6
 13 15  1  0
 15 16  2  0
 16 17  1  0
 17 18  2  0
 18 19  1  0
 18 20  1  0
 20 21  1  0
 20 22  2  0
 22 23  1  0
 22 24  1  0
 24 25  1  0
 24 26  2  0
 26 27  1  0
 13 28  1  0
 28 29  1  0
 28 30  1  0
 28 31  1  0
 31 32  1  0
 31 33  1  0
  2 34  2  0
 34 35  1  0
 34 36  1  0
 36 37  2  0
 37 38  1  0
 37 39  1  0
 39 40  1  0
 39 41  2  0
 41 42  1  0
 41 43  1  0
 43 44  1  0
 43 45  2  0
 45 46  1  0
 31  5  1  0
 45 36  1  0
 27 15  1  0
 26 17  1  0
M  CHG  1   5   1
M  END
>  <UniqueID>  (18) 
18

>  <SMILES>  (18) 
O=C(/C=C/c1ccc(Cl)cc1)[NH+]1CCC(c2nc3ccccc3s2)CC1

>  <Energy>  (18) 
100.31680724501851

>  <Genealogy>  (18) 
O=C(C=Cc1ccc(Cl)cc1)[NH+]1CCC(c2nc3ccccc3s2)CC1 (protonated)
O=C(/C=C/c1ccc(Cl)cc1)[NH+]1CCC(c2nc3ccccc3s2)CC1 (cis-trans isomerization)
O=C(/C=C/c1ccc(Cl)cc1)[NH+]1CCC(c2nc3ccccc3s2)CC1 (3D coordinates assigned)
O=C(/C=C/c1ccc(Cl)cc1)[NH+]1CCC(c2nc3ccccc3s2)CC1 (nonaromatic ring conformer: 100.31680724501851 kcal/mol)

>  <smiles>  (18) 
O=C(C=Cc1ccc(Cl)cc1)N1CCC(c2nc3ccccc3s2)CC1

>  <score_type>  (18) 
oracle

>  <origin>  (18) 
adg

>  <m_score__min__energy>  (18) 
-7.8799999999999999

>  <m_primary>  (18) 
energy

$$$$
18:0
     RDKit          3D

 52 55  0  0  0  0  0  0  0  0999 V2000
   57.9250   29.5000   45.6010 C   0  0  0  0  0  0  0  0  0  0  0  0
   58.3830   28.9620   46.9630 C   0  0  0  0  0  0  0  0  0  0  0  0
   59.8110   28.5570   47.0070 N   0  0  0  0  0  0  0  0  0  0  0  0
   60.6490   29.3740   46.0990 C   0  0  0  0  0  0  0  0  0  0  0  0
   60.9680   28.5930   44.8290 C   0  0  0  0  0  0  0  0  0  0  0  0
   60.3830   28.5070   48.3730 C   0  0  0  0  0  0  0  0  0  0  0  0
   59.4550   29.1540   49.4090 C   0  0  0  0  0  0  0  0  0  0  0  0
   60.0840   30.3500   49.9680 N   0  0  0  0  0  0  0  0  0  0  0  0
   60.8170   31.2470   49.1240 C   0  0  0  0  0  0  0  0  0  0  0  0
   62.1840   31.5410   49.3310 C   0  0  0  0  0  0  0  0  0  0  0  0
   62.9130   30.9000   50.3520 C   0  0  0  0  0  0  0  0  0  0  0  0
   64.2440   31.2330   50.5910 C   0  0  0  0  0  0  0  0  0  0  0  0
   64.8690   32.2110   49.8220 C   0  0  0  0  0  0  0  0  0  0  0  0
   64.1830   32.8400   48.7840 C   0  0  0  0  0  0  0  0  0  0  0  0
   62.8420   32.4970   48.4820 C   0  0  0  0  0  0  0  0  0  0  0  0
   62.1630   33.0700   47.4140 N   0  0  0  0  0  0  0  0  0  0  0  0
   62.8590   33.8470   46.3750 C   0  0  0  0  0  0  0  0  0  0  0  0
   60.8170   32.8300   47.3080 C   0  0  0  0  0  0  0  0  0  0  0  0
   60.1620   31.9250   48.1100 C   0  0  0  0  0  0  0  0  0  0  0  0
   58.8850   31.8400   47.8010 O   0  0  0  0  0  0  0  0  0  0  0  0
   58.6750   32.6930   46.8230 C   0  0  0  0  0  0  0  0  0  0  0  0
   57.4580   32.9620   46.2010 C   0  0  0  0  0  0  0  0  0  0  0  0
   57.4270   33.9600   45.2130 C   0  0  0  0  0  0  0  0  0  0  0  0
   58.5980   34.6730   44.8820 C   0  0  0  0  0  0  0  0  0  0  0  0
   59.8170   34.3860   45.5220 C   0  0  0  0  0  0  0  0  0  0  0  0
   59.8370   33.3570   46.4720 C   0  0  0  0  0  0  0  0  0  0  0  0
   57.2188   30.3296   45.7531 H   0  0  0  0  0  0  0  0  0  0  0  0
   58.7978   29.8603   45.0367 H   0  0  0  0  0  0  0  0  0  0  0  0
   57.4300   28.6959   45.0367 H   0  0  0  0  0  0  0  0  0  0  0  0
   58.2237   29.7479   47.7160 H   0  0  0  0  0  0  0  0  0  0  0  0
   57.7907   28.0565   47.1613 H   0  0  0  0  0  0  0  0  0  0  0  0
   60.1065   30.2933   45.8333 H   0  0  0  0  0  0  0  0  0  0  0  0
   61.5898   29.6265   46.6101 H   0  0  0  0  0  0  0  0  0  0  0  0
   61.3714   27.6055   45.0974 H   0  0  0  0  0  0  0  0  0  0  0  0
   60.0499   28.4654   44.2367 H   0  0  0  0  0  0  0  0  0  0  0  0
   61.7129   29.1447   44.2367 H   0  0  0  0  0  0  0  0  0  0  0  0
   60.5471   27.4554   48.6510 H   0  0  0  0  0  0  0  0  0  0  0  0
   61.3285   29.0691   48.3660 H   0  0  0  0  0  0  0  0  0  0  0  0
   58.5076   29.4334   48.9249 H   0  0  0  0  0  0  0  0  0  0  0  0
   59.2629   28.4355   50.2194 H   0  0  0  0  0  0  0  0  0  0  0  0
   60.3570   30.3110   50.9770 H   0  0  0  0  0  0  0  0  0  0  0  0
   62.4260   30.1286   50.9667 H   0  0  0  0  0  0  0  0  0  0  0  0
   64.8027   30.7222   51.3891 H   0  0  0  0  0  0  0  0  0  0  0  0
   65.9117   32.4894   50.0350 H   0  0  0  0  0  0  0  0  0  0  0  0
   64.6907   33.6145   48.1904 H   0  0  0  0  0  0  0  0  0  0  0  0
   63.5207   34.5857   46.8510 H   0  0  0  0  0  0  0  0  0  0  0  0
   63.4572   33.1687   45.7488 H   0  0  0  0  0  0  0  0  0  0  0  0
   62.1192   34.3672   45.7488 H   0  0  0  0  0  0  0  0  0  0  0  0
   56.5476   32.4089   46.4756 H   0  0  0  0  0  0  0  0  0  0  0  0
   56.4838   34.1868   44.6944 H   0  0  0  0  0  0  0  0  0  0  0  0
   58.5575   35.4612   44.1158 H   0  0  0  0  0  0  0  0  0  0  0  0
   60.7286   34.9534   45.2833 H   0  0  0  0  0  0  0  0  0  0  0  0
  1  2  1  0
  2  3  1  0
  3  4  1  0
  4  5  1  0
  3  6  1  0
  6  7  1  0
  7  8  1  0
  8  9  1  0
  9 10  2  0
 10 11  1  0
 11 12  2  0
 12 13  1  0
 13 14  2  0
 14 15  1  0
 15 16  2  0
 16 17  1  0
 16 18  1  0
 18 19  2  0
 19 20  1  0
 20 21  1  0
 21 22  2  0
 22 23  1  0
 23 24  2  0
 24 25  1  0
 25 26  2  0
 19  9  1  0
 26 21  1  0
 15 10  1  0
 26 18  1  0
  1 27  1  0
  1 28  1  0
  1 29  1  0
  2 30  1  0
  2 31  1  0
  4 32  1  0
  4 33  1  0
  5 34  1  0
  5 35  1  0
  5 36  1  0
  6 37  1  0
  6 38  1  0
  7 39  1  0
  7 40  1  0
  8 41  1  0
 11 42  1  0
 12 43  1  0
 13 44  1  0
 14 45  1  0
 17 46  1  0
 17 47  1  0
 17 48  1  0
 22 49  1  0
 23 50  1  0
 24 51  1  0
 25 52  1  0
M  CHG  1  16   1
M  END
>  <UniqueID>  (19) 
19

>  <SMILES>  (19) 
CCN(CC)CCNc1c2ccccc2[n+](C)c2c1oc1ccccc12

>  <Energy>  (19) 
116.51479568581468

>  <Genealogy>  (19) 
CCN(CC)CCNc1c2ccccc2[n+](C)c2c1oc1ccccc12 (3D coordinates assigned)
CCN(CC)CCNc1c2ccccc2[n+](C)c2c1oc1ccccc12 (optimized conformer: 116.51479568581468 kcal/mol)

>  <smiles>  (19) 
CCN(CC)CCNc1c2ccccc2[n+](C)c2c1oc1ccccc12

>  <score_type>  (19) 
oracle

>  <origin>  (19) 
adg

>  <m_score__min__energy>  (19) 
-5.9199999999999999

>  <m_primary>  (19) 
energy

$$$$
19:0
     RDKit          3D

 40 41  0  0  0  0  0  0  0  0999 V2000
   62.6460   33.8710   48.6540 C   0  0  0  0  0  0  0  0  0  0  0  0
   61.3050   34.3410   48.7590 O   0  0  0  0  0  0  0  0  0  0  0  0
   60.3070   34.1160   47.7990 C   0  0  0  0  0  0  0  0  0  0  0  0
   60.4100   34.5870   46.4760 C   0  0  0  0  0  0  0  0  0  0  0  0
   59.3900   34.3310   45.5550 C   0  0  0  0  0  0  0  0  0  0  0  0
   58.2460   33.6150   45.9430 C   0  0  0  0  0  0  0  0  0  0  0  0
   57.1660   33.3030   44.9430 C   0  0  0  0  0  0  0  0  0  0  0  0
   57.3500   31.9250   44.3900 C   0  0  0  0  0  0  0  0  0  0  0  0
   57.1230   30.8900   45.1450 N   0  0  0  0  0  0  0  0  0  0  0  0
   56.6190   29.6190   44.7010 C   0  0  0  0  0  0  0  0  0  0  0  0
   55.3950   29.3670   44.8800 O   0  0  0  0  0  0  0  0  0  0  0  0
   57.4930   28.5640   44.0690 C   0  0  0  0  0  0  0  0  0  0  0  0
   58.2450   27.7440   45.1290 C   0  0  0  0  0  0  0  0  0  0  0  0
   58.9780   28.6270   46.0590 N   0  0  0  0  0  0  0  0  0  0  0  0
   58.5440   28.7200   47.3550 C   0  0  0  0  0  0  0  0  0  0  0  0
   59.2160   29.5260   48.2780 C   0  0  0  0  0  0  0  0  0  0  0  0
   60.3400   30.2430   47.8740 C   0  0  0  0  0  0  0  0  0  0  0  0
   60.7830   30.1450   46.5560 C   0  0  0  0  0  0  0  0  0  0  0  0
   60.0920   29.3260   45.6520 C   0  0  0  0  0  0  0  0  0  0  0  0
   60.5100   29.2400   44.4660 O   0  0  0  0  0  0  0  0  0  0  0  0
   58.1460   33.1440   47.2610 C   0  0  0  0  0  0  0  0  0  0  0  0
   59.1690   33.3970   48.1800 C   0  0  0  0  0  0  0  0  0  0  0  0
   63.0632   33.7248   49.6613 H   0  0  0  0  0  0  0  0  0  0  0  0
   62.6580   32.9151   48.1098 H   0  0  0  0  0  0  0  0  0  0  0  0
   63.2521   34.6103   48.1098 H   0  0  0  0  0  0  0  0  0  0  0  0
   61.2970   35.1589   46.1658 H   0  0  0  0  0  0  0  0  0  0  0  0
   59.4841   34.6925   44.5204 H   0  0  0  0  0  0  0  0  0  0  0  0
   56.1852   33.3675   45.4368 H   0  0  0  0  0  0  0  0  0  0  0  0
   57.2224   34.0290   44.1185 H   0  0  0  0  0  0  0  0  0  0  0  0
   57.6761   31.7874   43.3485 H   0  0  0  0  0  0  0  0  0  0  0  0
   56.8621   27.8866   43.4748 H   0  0  0  0  0  0  0  0  0  0  0  0
   58.2355   29.0678   43.4328 H   0  0  0  0  0  0  0  0  0  0  0  0
   57.5213   27.1427   45.6989 H   0  0  0  0  0  0  0  0  0  0  0  0
   58.9701   27.0927   44.6190 H   0  0  0  0  0  0  0  0  0  0  0  0
   57.6562   28.1537   47.6729 H   0  0  0  0  0  0  0  0  0  0  0  0
   58.8598   29.5938   49.3165 H   0  0  0  0  0  0  0  0  0  0  0  0
   60.8750   30.8829   48.5911 H   0  0  0  0  0  0  0  0  0  0  0  0
   61.6696   30.7070   46.2271 H   0  0  0  0  0  0  0  0  0  0  0  0
   57.2588   32.5732   47.5726 H   0  0  0  0  0  0  0  0  0  0  0  0
   59.0782   33.0273   49.2120 H   0  0  0  0  0  0  0  0  0  0  0  0
  1  2  1  0
  2  3  1  0
  3  4  2  0
  4  5  1  0
  5  6  2  0
  6  7  1  0
  7  8  1  0
  8  9  2  3
  9 10  1  0
 10 11  2  0
 10 12  1  0
 12 13  1  0
 13 14  1  0
 14 15  1  0
 15 16  2  0
 16 17  1  0
 17 18  2  0
 18 19  1  0
 19 20  2  0
  6 21  1  0
 21 22  2  0
 22  3  1  0
 19 14  1  0
  1 23  1  0
  1 24  1  0
  1 25  1  0
  4 26  1  0
  5 27  1  0
  7 28  1  0
  7 29  1  0
  8 30  1  0
 12 31  1  0
 12 32  1  0
 13 33  1  0
 13 34  1  0
 15 35  1  0
 16 36  1  0
 17 37  1  0
 18 38  1  0
 21 39  1  0
 22 40  1  0
M  END
>  <UniqueID>  (20) 
20

>  <SMILES>  (20) 
COc1ccc(CC=NC(=O)CCn2ccccc2=O)cc1

>  <Energy>  (20) 
39.36514587601599

>  <Genealogy>  (20) 
COc1ccc(CC=NC(=O)CCn2ccccc2=O)cc1 (3D coordinates assigned)
COc1ccc(CC=NC(=O)CCn2ccccc2=O)cc1 (optimized conformer: 39.36514587601599 kcal/mol)

>  <smiles>  (20) 
COc1ccc(CC=NC(=O)CCn2ccccc2=O)cc1

>  <score_type>  (20) 
oracle

>  <origin>  (20) 
adg

>  <m_score__min__energy>  (20) 
-7.9800000000000004

>  <m_primary>  (20) 
energy

$$$$
20:0
     RDKit          3D

 37 39  0  0  0  0  0  0  0  0999 V2000
   55.4170   26.3450   46.0060 O   0  0  0  0  0  0  0  0  0  0  0  0
   56.3090   27.2080   45.7830 C   0  0  0  0  0  0  0  0  0  0  0  0
   57.7210   26.9450   46.1850 C   0  0  0  0  0  0  0  0  0  0  0  0
   58.3860   28.2140   46.4710 N   0  0  0  0  0  0  0  0  0  0  0  0
   59.6440   28.2710   47.1680 C   0  0  0  0  0  0  0  0  0  0  0  0
   60.2530   27.1970   47.4310 O   0  0  0  0  0  0  0  0  0  0  0  0
   60.2300   29.5610   47.6150 C   0  0  0  0  0  0  0  0  0  0  0  0
   61.0220   30.3510   46.7580 C   0  0  0  0  0  0  0  0  0  0  0  0
   61.5550   31.5650   47.2040 C   0  0  0  0  0  0  0  0  0  0  0  0
   61.3170   32.0000   48.5080 C   0  0  0  0  0  0  0  0  0  0  0  0
   60.5510   31.2180   49.3740 C   0  0  0  0  0  0  0  0  0  0  0  0
   60.0080   30.0080   48.9320 C   0  0  0  0  0  0  0  0  0  0  0  0
   55.9780   28.4530   45.2380 O   0  0  0  0  0  0  0  0  0  0  0  0
   56.6460   29.0010   44.1060 C   0  0  0  0  0  0  0  0  0  0  0  0
   57.2550   30.3130   44.4790 C   0  0  0  0  0  0  0  0  0  0  0  0
   57.3980   30.7200   45.7640 N   0  0  0  0  0  0  0  0  0  0  0  0
   57.8890   31.9830   45.8230 C   0  0  0  0  0  0  0  0  0  0  0  0
   58.1490   32.6750   47.0070 C   0  0  0  0  0  0  0  0  0  0  0  0
   58.6600   33.9820   46.9270 C   0  0  0  0  0  0  0  0  0  0  0  0
   58.8950   34.5810   45.6730 C   0  0  0  0  0  0  0  0  0  0  0  0
   58.6220   33.8800   44.4890 C   0  0  0  0  0  0  0  0  0  0  0  0
   58.1210   32.5840   44.5960 C   0  0  0  0  0  0  0  0  0  0  0  0
   57.7010   31.5160   43.3710 S   0  0  0  0  0  0  0  0  0  0  0  0
   57.7351   26.3119   47.0844 H   0  0  0  0  0  0  0  0  0  0  0  0
   58.2468   26.4294   45.3679 H   0  0  0  0  0  0  0  0  0  0  0  0
   57.8460   29.0860   46.2830 H   0  0  0  0  0  0  0  0  0  0  0  0
   61.2225   30.0107   45.7313 H   0  0  0  0  0  0  0  0  0  0  0  0
   62.1640   32.1789   46.5241 H   0  0  0  0  0  0  0  0  0  0  0  0
   61.7325   32.9582   48.8533 H   0  0  0  0  0  0  0  0  0  0  0  0
   60.3742   31.5545   50.4063 H   0  0  0  0  0  0  0  0  0  0  0  0
   59.4018   29.3994   49.6191 H   0  0  0  0  0  0  0  0  0  0  0  0
   57.4356   28.3102   43.7754 H   0  0  0  0  0  0  0  0  0  0  0  0
   55.9249   29.1488   43.2886 H   0  0  0  0  0  0  0  0  0  0  0  0
   57.9577   32.2066   47.9837 H   0  0  0  0  0  0  0  0  0  0  0  0
   58.8779   34.5409   47.8490 H   0  0  0  0  0  0  0  0  0  0  0  0
   59.2949   35.6045   45.6225 H   0  0  0  0  0  0  0  0  0  0  0  0
   58.7982   34.3396   43.5053 H   0  0  0  0  0  0  0  0  0  0  0  0
  1  2  2  0
  2  3  1  0
  3  4  1  0
  4  5  1  0
  5  6  2  0
  5  7  1  0
  7  8  2  0
  8  9  1  0
  9 10  2  0
 10 11  1  0
 11 12  2  0
  2 13  1  0
 13 14  1  0
 14 15  1  0
 15 16  2  0
 16 17  1  0
 17 18  2  0
 18 19  1  0
 19 20  2  0
 20 21  1  0
 21 22  2  0
 22 23  1  0
 12  7  1  0
 23 15  1  0
 22 17  1  0
  3 24  1  0
  3 25  1  0
  4 26  1  0
  8 27  1  0
  9 28  1  0
 10 29  1  0
 11 30  1  0
 12 31  1  0
 14 32  1  0
 14 33  1  0
 18 34  1  0
 19 35  1  0
 20 36  1  0
 21 37  1  0
M  END
>  <UniqueID>  (21) 
21

>  <SMILES>  (21) 
O=C(CNC(=O)c1ccccc1)OCc1nc2ccccc2s1

>  <Energy>  (21) 
66.63301609406595

>  <Genealogy>  (21) 
O=C(CNC(=O)c1ccccc1)OCc1nc2ccccc2s1 (3D coordinates assigned)
O=C(CNC(=O)c1ccccc1)OCc1nc2ccccc2s1 (optimized conformer: 66.63301609406595 kcal/mol)

>  <smiles>  (21) 
O=C(CNC(=O)c1ccccc1)OCc1nc2ccccc2s1

>  <score_type>  (21) 
oracle

>  <origin>  (21) 
adg

>  <m_score__min__energy>  (21) 
-7.4100000000000001

>  <m_primary>  (21) 
energy

$$$$
21:0
     RDKit          3D

 34 35  0  0  0  0  0  0  0  0999 V2000
   58.1790   27.3050   44.3630 C   0  0  0  0  0  0  0  0  0  0  0  0
   58.9240   28.2280   45.3250 C   0  0  0  0  0  0  0  0  0  0  0  0
   57.9770   28.9280   46.3070 C   0  0  0  0  0  0  0  0  0  0  0  0
   56.8440   29.5280   45.6050 N   0  0  0  0  0  0  0  0  0  0  0  0
   57.0500   30.4250   44.5120 C   0  0  0  0  0  0  0  0  0  0  0  0
   57.5880   31.6930   44.3430 C   0  0  0  0  0  0  0  0  0  0  0  0
   58.1080   32.7110   45.2060 N   0  0  0  0  0  0  0  0  0  0  0  0
   57.9080   34.1210   44.8560 C   0  0  0  0  0  0  0  0  0  0  0  0
   59.1350   34.9640   45.2440 C   0  0  0  0  0  0  0  0  0  0  0  0
   59.8630   34.4630   46.5090 C   0  0  0  0  0  0  0  0  0  0  0  0
   58.9780   33.5590   47.3720 C   0  0  0  0  0  0  0  0  0  0  0  0
   58.5280   32.3360   46.5630 C   0  0  0  0  0  0  0  0  0  0  0  0
   57.3930   31.5880   42.9790 C   0  0  0  0  0  0  0  0  0  0  0  0
   57.6270   32.3280   41.9870 O   0  0  0  0  0  0  0  0  0  0  0  0
   56.8060   30.3530   43.1540 C   0  0  0  0  0  0  0  0  0  0  0  0
   56.2860   29.4980   42.3890 O   0  0  0  0  0  0  0  0  0  0  0  0
   57.5898   26.5751   44.9375 H   0  0  0  0  0  0  0  0  0  0  0  0
   57.5064   27.9017   43.7293 H   0  0  0  0  0  0  0  0  0  0  0  0
   58.9042   26.7735   43.7293 H   0  0  0  0  0  0  0  0  0  0  0  0
   59.6500   27.6317   45.8972 H   0  0  0  0  0  0  0  0  0  0  0  0
   59.4251   29.0042   44.7280 H   0  0  0  0  0  0  0  0  0  0  0  0
   57.6015   28.1908   47.0319 H   0  0  0  0  0  0  0  0  0  0  0  0
   58.5328   29.7258   46.8213 H   0  0  0  0  0  0  0  0  0  0  0  0
   55.9350   29.0130   45.6220 H   0  0  0  0  0  0  0  0  0  0  0  0
   57.7436   34.2027   43.7714 H   0  0  0  0  0  0  0  0  0  0  0  0
   57.0343   34.4988   45.4074 H   0  0  0  0  0  0  0  0  0  0  0  0
   59.8464   34.9467   44.4052 H   0  0  0  0  0  0  0  0  0  0  0  0
   58.7690   35.9772   45.4664 H   0  0  0  0  0  0  0  0  0  0  0  0
   60.7545   33.8962   46.2025 H   0  0  0  0  0  0  0  0  0  0  0  0
   60.1325   35.3429   47.1117 H   0  0  0  0  0  0  0  0  0  0  0  0
   59.5477   33.2242   48.2514 H   0  0  0  0  0  0  0  0  0  0  0  0
   58.0911   34.1243   47.6942 H   0  0  0  0  0  0  0  0  0  0  0  0
   59.3650   31.6256   46.4943 H   0  0  0  0  0  0  0  0  0  0  0  0
   57.6681   31.8809   47.0763 H   0  0  0  0  0  0  0  0  0  0  0  0
  1  2  1  0
  2  3  1  0
  3  4  1  0
  4  5  1  0
  5  6  2  0
  6  7  1  0
  7  8  1  0
  8  9  1  0
  9 10  1  0
 10 11  1  0
 11 12  1  0
  6 13  1  0
 13 14  2  0
 13 15  1  0
 15 16  2  0
 15  5  1  0
 12  7  1  0
  1 17  1  0
  1 18  1  0
  1 19  1  0
  2 20  1  0
  2 21  1  0
  3 22  1  0
  3 23  1  0
  4 24  1  0
  8 25  1  0
  8 26  1  0
  9 27  1  0
  9 28  1  0
 10 29  1  0
 10 30  1  0
 11 31  1  0
 11 32  1  0
 12 33  1  0
 12 34  1  0
M  END
>  <UniqueID>  (22) 
22

>  <SMILES>  (22) 
CCCNc1c(N2CCCCC2)c(=O)c1=O

>  <Energy>  (22) 
21.681862166226257

>  <Genealogy>  (22) 
CCCNc1c(N2CCCCC2)c(=O)c1=O (3D coordinates assigned)
CCCNc1c(N2CCCCC2)c(=O)c1=O (nonaromatic ring conformer: 21.681862166226257 kcal/mol)

>  <smiles>  (22) 
CCCNc1c(N2CCCCC2)c(=O)c1=O

>  <score_type>  (22) 
oracle

>  <origin>  (22) 
adg

>  <m_score__min__energy>  (22) 
-6.0800000000000001

>  <m_primary>  (22) 
energy

$$$$
22:0
     RDKit          3D

 49 50  0  0  0  0  0  0  0  0999 V2000
   68.1380   33.7880   50.7550 C   0  0  0  0  0  0  0  0  0  0  0  0
   66.9490   33.1200   51.3140 N   0  0  0  0  0  0  0  0  0  0  0  0
   67.1940   31.6780   51.5080 C   0  0  0  0  0  0  0  0  0  0  0  0
   66.4440   33.7800   52.5440 C   0  0  0  0  0  0  0  0  0  0  0  0
   65.6810   35.1010   52.2960 C   0  0  0  0  0  0  0  0  0  0  0  0
   64.2500   34.8430   51.8060 C   0  0  0  0  0  0  0  0  0  0  0  0
   64.1400   33.5220   51.1930 N   0  0  0  0  0  0  0  0  0  0  0  0
   64.1870   33.2980   49.7770 C   0  0  0  0  0  0  0  0  0  0  0  0
   65.2940   33.0740   49.2170 O   0  0  0  0  0  0  0  0  0  0  0  0
   62.9750   33.3450   48.9970 N   0  0  0  0  0  0  0  0  0  0  0  0
   63.0090   33.0370   47.5580 C   0  0  0  0  0  0  0  0  0  0  0  0
   61.7170   32.3360   47.1250 C   0  0  0  0  0  0  0  0  0  0  0  0
   60.4360   33.0850   47.5730 C   0  0  0  0  0  0  0  0  0  0  0  0
   59.5960   33.5370   46.4380 N   0  0  0  0  0  0  0  0  0  0  0  0
   59.6340   34.8100   45.9800 C   0  0  0  0  0  0  0  0  0  0  0  0
   58.8020   34.9660   44.8960 C   0  0  0  0  0  0  0  0  0  0  0  0
   58.2260   33.7400   44.6650 C   0  0  0  0  0  0  0  0  0  0  0  0
   58.7300   32.8660   45.6180 C   0  0  0  0  0  0  0  0  0  0  0  0
   58.3010   31.4160   45.6980 C   0  0  0  0  0  0  0  0  0  0  0  0
   57.0810   31.2230   45.0920 F   0  0  0  0  0  0  0  0  0  0  0  0
   58.1690   31.0300   47.0220 F   0  0  0  0  0  0  0  0  0  0  0  0
   59.2470   30.5950   45.1180 F   0  0  0  0  0  0  0  0  0  0  0  0
   60.6790   34.2190   48.5870 C   0  0  0  0  0  0  0  0  0  0  0  0
   61.7330   33.8220   49.6290 C   0  0  0  0  0  0  0  0  0  0  0  0
   68.7767   34.1468   51.5756 H   0  0  0  0  0  0  0  0  0  0  0  0
   68.7023   33.0748   50.1361 H   0  0  0  0  0  0  0  0  0  0  0  0
   67.8224   34.6409   50.1361 H   0  0  0  0  0  0  0  0  0  0  0  0
   66.1880   33.2020   50.5950 H   0  0  0  0  0  0  0  0  0  0  0  0
   67.2320   31.4541   52.5843 H   0  0  0  0  0  0  0  0  0  0  0  0
   66.3809   31.1020   51.0422 H   0  0  0  0  0  0  0  0  0  0  0  0
   68.1518   31.4029   51.0422 H   0  0  0  0  0  0  0  0  0  0  0  0
   65.7646   33.0815   53.0544 H   0  0  0  0  0  0  0  0  0  0  0  0
   67.3279   34.0378   53.1459 H   0  0  0  0  0  0  0  0  0  0  0  0
   65.6392   35.6710   53.2359 H   0  0  0  0  0  0  0  0  0  0  0  0
   66.2148   35.6658   51.5175 H   0  0  0  0  0  0  0  0  0  0  0  0
   63.5603   34.9020   52.6609 H   0  0  0  0  0  0  0  0  0  0  0  0
   63.9937   35.6027   51.0529 H   0  0  0  0  0  0  0  0  0  0  0  0
   63.1200   33.9729   46.9907 H   0  0  0  0  0  0  0  0  0  0  0  0
   63.8590   32.3678   47.3589 H   0  0  0  0  0  0  0  0  0  0  0  0
   61.7116   32.2597   46.0277 H   0  0  0  0  0  0  0  0  0  0  0  0
   61.7036   31.3479   47.6081 H   0  0  0  0  0  0  0  0  0  0  0  0
   59.8630   32.3196   48.1169 H   0  0  0  0  0  0  0  0  0  0  0  0
   60.2477   35.6120   46.4161 H   0  0  0  0  0  0  0  0  0  0  0  0
   58.6311   35.8910   44.3257 H   0  0  0  0  0  0  0  0  0  0  0  0
   57.5017   33.4970   43.8736 H   0  0  0  0  0  0  0  0  0  0  0  0
   61.0273   35.1124   48.0481 H   0  0  0  0  0  0  0  0  0  0  0  0
   59.7337   34.4231   49.1112 H   0  0  0  0  0  0  0  0  0  0  0  0
   61.9646   34.6980   50.2527 H   0  0  0  0  0  0  0  0  0  0  0  0
   61.3216   33.0020   50.2359 H   0  0  0  0  0  0  0  0  0  0  0  0
  1  2  1  0
  2  3  1  0
  2  4  1  0
  4  5  1  0
  5  6  1  0
  6  7  1  0
  7  8  1  0
  8  9  2  0
  8 10  1  0
 10 11  1  0
 11 12  1  0
 12 13  1  0
 13 14  1  0
 14 15  1  0
 15 16  2  0
 16 17  1  0
 17 18  2  0
 18 19  1  0
 19 20  1  0
 19 21  1  0
 19 22  1  0
 13 23  1  0
 23 24  1  0
 24 10  1  0
 18 14  1  0
  1 25  1  0
  1 26  1  0
  1 27  1  0
  2 28  1  0
  3 29  1  0
  3 30  1  0
  3 31  1  0
  4 32  1  0
  4 33  1  0
  5 34  1  0
  5 35  1  0
  6 36  1  0
  6 37  1  0
 11 38  1  0
 11 39  1  0
 12 40  1  0
 12 41  1  0
 13 42  1  0
 15 43  1  0
 16 44  1  0
 17 45  1  0
 23 46  1  0
 23 47  1  0
 24 48  1  0
 24 49  1  0
M  CHG  2   2   1   7  -1
M  END
>  <UniqueID>  (23) 
23

>  <SMILES>  (23) 
C[NH+](C)CCC[N-]C(=O)N1CCC(n2cccc2C(F)(F)F)CC1

>  <Energy>  (23) 
79.16447638153959

>  <Genealogy>  (23) 
C[NH+](C)CCC[N-]C(=O)N1CCC(n2cccc2C(F)(F)F)CC1 (protonated)
C[NH+](C)CCC[N-]C(=O)N1CCC(n2cccc2C(F)(F)F)CC1 (3D coordinates assigned)
C[NH+](C)CCC[N-]C(=O)N1CCC(n2cccc2C(F)(F)F)CC1 (nonaromatic ring conformer: 79.16447638153959 kcal/mol)

>  <smiles>  (23) 
CN(C)CCCNC(=O)N1CCC(n2cccc2C(F)(F)F)CC1

>  <score_type>  (23) 
oracle

>  <origin>  (23) 
adg

>  <m_score__min__energy>  (23) 
-5.6799999999999997

>  <m_primary>  (23) 
energy

$$$$
23:0
     RDKit          3D

 42 44  0  0  0  0  0  0  0  0999 V2000
   59.0940   29.4090   44.5480 C   0  0  0  0  0  0  0  0  0  0  0  0
   57.6340   29.7270   44.5440 C   0  0  0  0  0  0  0  0  0  0  0  0
   56.6670   28.8030   44.6790 N   0  0  0  0  0  0  0  0  0  0  0  0
   55.5240   29.5190   44.6310 C   0  0  0  0  0  0  0  0  0  0  0  0
   55.7190   30.8460   44.4750 N   0  0  0  0  0  0  0  0  0  0  0  0
   57.0560   30.9720   44.4190 C   0  0  0  0  0  0  0  0  0  0  0  0
   57.7590   32.2930   44.2740 C   0  0  0  0  0  0  0  0  0  0  0  0
   58.7290   32.4880   45.3700 N   0  0  0  0  0  0  0  0  0  0  0  0
   58.1490   32.0690   46.6610 C   0  0  0  0  0  0  0  0  0  0  0  0
   59.2550   31.9600   47.7230 C   0  0  0  0  0  0  0  0  0  0  0  0
   60.3380   33.0480   47.5350 C   0  0  0  0  0  0  0  0  0  0  0  0
   61.1280   33.3260   48.8210 C   0  0  0  0  0  0  0  0  0  0  0  0
   60.3530   33.5560   49.9770 C   0  0  0  0  0  0  0  0  0  0  0  0
   60.9560   33.8070   51.2040 C   0  0  0  0  0  0  0  0  0  0  0  0
   62.3040   33.8370   51.3050 N   0  0  0  0  0  0  0  0  0  0  0  0
   63.1010   33.6480   50.2230 C   0  0  0  0  0  0  0  0  0  0  0  0
   62.5560   33.4250   48.9380 C   0  0  0  0  0  0  0  0  0  0  0  0
   63.5420   33.2100   47.8000 C   0  0  0  0  0  0  0  0  0  0  0  0
   63.3050   32.0080   47.1540 F   0  0  0  0  0  0  0  0  0  0  0  0
   63.3990   34.2240   46.8710 F   0  0  0  0  0  0  0  0  0  0  0  0
   64.8460   33.1610   48.2460 F   0  0  0  0  0  0  0  0  0  0  0  0
   59.8060   34.2870   46.7920 C   0  0  0  0  0  0  0  0  0  0  0  0
   59.2130   33.8950   45.4190 C   0  0  0  0  0  0  0  0  0  0  0  0
   59.4495   29.3316   45.5861 H   0  0  0  0  0  0  0  0  0  0  0  0
   59.2625   28.4531   44.0304 H   0  0  0  0  0  0  0  0  0  0  0  0
   59.6448   30.2082   44.0304 H   0  0  0  0  0  0  0  0  0  0  0  0
   54.5259   29.0637   44.7115 H   0  0  0  0  0  0  0  0  0  0  0  0
   58.2914   32.3156   43.3117 H   0  0  0  0  0  0  0  0  0  0  0  0
   57.0115   33.0990   44.3141 H   0  0  0  0  0  0  0  0  0  0  0  0
   57.4051   32.8120   46.9845 H   0  0  0  0  0  0  0  0  0  0  0  0
   57.6672   31.0877   46.5391 H   0  0  0  0  0  0  0  0  0  0  0  0
   58.8044   32.0741   48.7200 H   0  0  0  0  0  0  0  0  0  0  0  0
   59.7356   30.9761   47.6178 H   0  0  0  0  0  0  0  0  0  0  0  0
   61.0990   32.6432   46.8516 H   0  0  0  0  0  0  0  0  0  0  0  0
   59.2554   33.5364   49.9064 H   0  0  0  0  0  0  0  0  0  0  0  0
   60.3350   33.9816   52.0950 H   0  0  0  0  0  0  0  0  0  0  0  0
   62.7420   34.0120   52.2370 H   0  0  0  0  0  0  0  0  0  0  0  0
   64.1936   33.6688   50.3485 H   0  0  0  0  0  0  0  0  0  0  0  0
   59.0224   34.7626   47.4001 H   0  0  0  0  0  0  0  0  0  0  0  0
   60.6412   34.9838   46.6279 H   0  0  0  0  0  0  0  0  0  0  0  0
   58.3675   34.5635   45.1995 H   0  0  0  0  0  0  0  0  0  0  0  0
   60.0183   33.9900   44.6757 H   0  0  0  0  0  0  0  0  0  0  0  0
  1  2  1  0
  2  3  1  0
  3  4  2  0
  4  5  1  0
  5  6  1  0
  6  7  1  0
  7  8  1  0
  8  9  1  0
  9 10  1  0
 10 11  1  0
 11 12  1  0
 12 13  2  0
 13 14  1  0
 14 15  2  0
 15 16  1  0
 16 17  2  0
 17 18  1  0
 18 19  1  0
 18 20  1  0
 18 21  1  0
 11 22  1  0
 22 23  1  0
  6  2  2  0
 23  8  1  0
 17 12  1  0
  1 24  1  0
  1 25  1  0
  1 26  1  0
  4 27  1  0
  7 28  1  0
  7 29  1  0
  9 30  1  0
  9 31  1  0
 10 32  1  0
 10 33  1  0
 11 34  1  0
 13 35  1  0
 14 36  1  0
 15 37  1  0
 16 38  1  0
 22 39  1  0
 22 40  1  0
 23 41  1  0
 23 42  1  0
M  CHG  2   5  -1  15   1
M  END
>  <UniqueID>  (24) 
24

>  <SMILES>  (24) 
Cc1nc[n-]c1CN1CCC(c2cc[nH+]cc2C(F)(F)F)CC1

>  <Energy>  (24) 
87.8964877082564

>  <Genealogy>  (24) 
Cc1nc[n-]c1CN1CCC(c2cc[nH+]cc2C(F)(F)F)CC1 (protonated)
Cc1nc[n-]c1CN1CCC(c2cc[nH+]cc2C(F)(F)F)CC1 (3D coordinates assigned)
Cc1nc[n-]c1CN1CCC(c2cc[nH+]cc2C(F)(F)F)CC1 (nonaromatic ring conformer: 87.8964877082564 kcal/mol)

>  <smiles>  (24) 
Cc1nc[nH]c1CN1CCC(c2ccncc2C(F)(F)F)CC1

>  <score_type>  (24) 
oracle

>  <origin>  (24) 
adg

>  <m_score__min__energy>  (24) 
-7.2699999999999996

>  <m_primary>  (24) 
energy

$$$$
24:0
     RDKit          3D

 47 50  0  0  0  0  0  0  0  0999 V2000
   58.1140   32.3450   42.1280 C   0  0  0  0  0  0  0  0  0  0  0  0
   57.3990   32.6640   43.3180 O   0  0  0  0  0  0  0  0  0  0  0  0
   58.0020   33.0260   44.5310 C   0  0  0  0  0  0  0  0  0  0  0  0
   58.2940   34.3680   44.8600 C   0  0  0  0  0  0  0  0  0  0  0  0
   58.9220   34.6890   46.0760 C   0  0  0  0  0  0  0  0  0  0  0  0
   59.2670   33.6670   46.9660 C   0  0  0  0  0  0  0  0  0  0  0  0
   58.9700   32.3880   46.6220 N   0  0  0  0  0  0  0  0  0  0  0  0
   58.3540   32.0410   45.4690 C   0  0  0  0  0  0  0  0  0  0  0  0
   58.1770   30.6490   45.4150 C   0  0  0  0  0  0  0  0  0  0  0  0
   57.4930   29.8580   44.3390 C   0  0  0  0  0  0  0  0  0  0  0  0
   58.7670   30.1630   46.5850 C   0  0  0  0  0  0  0  0  0  0  0  0
   58.9600   28.8830   47.1150 C   0  0  0  0  0  0  0  0  0  0  0  0
   58.6170   27.6980   46.3820 N   0  0  0  0  0  0  0  0  0  0  0  0
   59.6400   26.9930   45.6100 C   0  0  0  0  0  0  0  0  0  0  0  0
   59.8740   25.6190   46.2450 C   0  0  0  0  0  0  0  0  0  0  0  0
   58.6540   24.9050   46.3560 O   0  0  0  0  0  0  0  0  0  0  0  0
   57.7760   25.5760   47.2440 C   0  0  0  0  0  0  0  0  0  0  0  0
   57.3950   26.9570   46.7000 C   0  0  0  0  0  0  0  0  0  0  0  0
   59.5580   28.7830   48.3420 N   0  0  0  0  0  0  0  0  0  0  0  0
   59.9740   29.8920   49.0300 C   0  0  0  0  0  0  0  0  0  0  0  0
   60.7420   29.7210   50.5950 S   0  0  0  0  0  0  0  0  0  0  0  0
   59.7950   30.5140   51.8730 C   0  0  0  0  0  0  0  0  0  0  0  0
   61.0060   28.1000   50.9480 O   0  0  0  0  0  0  0  0  0  0  0  0
   59.8080   31.1380   48.5000 N   0  0  0  0  0  0  0  0  0  0  0  0
   59.2100   31.2500   47.2910 C   0  0  0  0  0  0  0  0  0  0  0  0
   59.0893   31.9099   42.3917 H   0  0  0  0  0  0  0  0  0  0  0  0
   57.5365   31.6192   41.5367 H   0  0  0  0  0  0  0  0  0  0  0  0
   58.2684   33.2596   41.5367 H   0  0  0  0  0  0  0  0  0  0  0  0
   58.0271   35.1709   44.1570 H   0  0  0  0  0  0  0  0  0  0  0  0
   59.1407   35.7377   46.3259 H   0  0  0  0  0  0  0  0  0  0  0  0
   59.7659   33.8936   47.9198 H   0  0  0  0  0  0  0  0  0  0  0  0
   56.8394   29.1021   44.7989 H   0  0  0  0  0  0  0  0  0  0  0  0
   56.8897   30.5335   43.7147 H   0  0  0  0  0  0  0  0  0  0  0  0
   58.2485   29.3585   43.7147 H   0  0  0  0  0  0  0  0  0  0  0  0
   59.2994   26.8678   44.5716 H   0  0  0  0  0  0  0  0  0  0  0  0
   60.5758   27.5711   45.6118 H   0  0  0  0  0  0  0  0  0  0  0  0
   60.5725   25.0455   45.6180 H   0  0  0  0  0  0  0  0  0  0  0  0
   60.2941   25.7610   47.2517 H   0  0  0  0  0  0  0  0  0  0  0  0
   56.8635   24.9748   47.3704 H   0  0  0  0  0  0  0  0  0  0  0  0
   58.2870   25.7081   48.2091 H   0  0  0  0  0  0  0  0  0  0  0  0
   56.7873   26.8403   45.7906 H   0  0  0  0  0  0  0  0  0  0  0  0
   56.8133   27.5062   47.4550 H   0  0  0  0  0  0  0  0  0  0  0  0
   59.7230   27.8370   48.7560 H   0  0  0  0  0  0  0  0  0  0  0  0
   60.1714   30.1988   52.8574 H   0  0  0  0  0  0  0  0  0  0  0  0
   59.8904   31.6056   51.7763 H   0  0  0  0  0  0  0  0  0  0  0  0
   58.7371   30.2284   51.7763 H   0  0  0  0  0  0  0  0  0  0  0  0
   61.7890   28.1040   51.5540 H   0  0  0  0  0  0  0  0  0  0  0  0
  1  2  1  0
  2  3  1  0
  3  4  2  0
  4  5  1  0
  5  6  2  0
  6  7  1  0
  7  8  1  0
  8  9  2  0
  9 10  1  0
  9 11  1  0
 11 12  2  0
 12 13  1  0
 13 14  1  0
 14 15  1  0
 15 16  1  0
 16 17  1  0
 17 18  1  0
 12 19  1  0
 19 20  2  0
 20 21  1  0
 21 22  1  0
 21 23  1  1
 20 24  1  0
 24 25  2  0
  8  3  1  0
 25 11  1  0
 25  7  1  0
 18 13  1  0
  1 26  1  0
  1 27  1  0
  1 28  1  0
  4 29  1  0
  5 30  1  0
  6 31  1  0
 10 32  1  0
 10 33  1  0
 10 34  1  0
 14 35  1  0
 14 36  1  0
 15 37  1  0
 15 38  1  0
 17 39  1  0
 17 40  1  0
 18 41  1  0
 18 42  1  0
 19 43  1  0
 22 44  1  0
 22 45  1  0
 22 46  1  0
 23 47  1  0
M  CHG  2  19   1  21   1
M  END
>  <UniqueID>  (25) 
25

>  <SMILES>  (25) 
COc1cccn2c1c(C)c1c(N3CCOCC3)[nH+]c([S@@+](C)O)nc12

>  <Energy>  (25) 
94.03852405126331

>  <Genealogy>  (25) 
COc1cccn2c1c(C)c1c(N3CCOCC3)[nH+]c([S+](C)O)nc12 (protonated)
COc1cccn2c1c(C)c1c(N3CCOCC3)[nH+]c([S@@+](C)O)nc12 (chirality)
COc1cccn2c1c(C)c1c(N3CCOCC3)[nH+]c([S@@+](C)O)nc12 (3D coordinates assigned)
COc1cccn2c1c(C)c1c(N3CCOCC3)[nH+]c([S@@+](C)O)nc12 (nonaromatic ring conformer: 94.03852405126331 kcal/mol)

>  <smiles>  (25) 
COc1cccn2c1c(C)c1c(N3CCOCC3)nc([S+](C)[O-])nc12

>  <score_type>  (25) 
oracle

>  <origin>  (25) 
adg

>  <m_score__min__energy>  (25) 
-3.79

>  <m_primary>  (25) 
energy

$$$$
25:0
     RDKit          3D

 49 51  0  0  0  0  0  0  0  0999 V2000
   56.1040   29.8480   43.3660 C   0  0  0  0  0  0  0  0  0  0  0  0
   56.2570   30.1370   44.7500 O   0  0  0  0  0  0  0  0  0  0  0  0
   57.4470   29.9670   45.4730 C   0  0  0  0  0  0  0  0  0  0  0  0
   58.1430   31.0540   46.0330 C   0  0  0  0  0  0  0  0  0  0  0  0
   59.3240   30.8570   46.7680 C   0  0  0  0  0  0  0  0  0  0  0  0
   60.0480   32.0470   47.2980 C   0  0  0  0  0  0  0  0  0  0  0  0
   59.3800   32.8900   47.9590 O   0  0  0  0  0  0  0  0  0  0  0  0
   61.4680   32.2870   47.1070 N   0  0  0  0  0  0  0  0  0  0  0  0
   62.2510   31.8360   48.2790 C   0  0  0  0  0  0  0  0  0  0  0  0
   63.6560   32.4670   48.2940 C   0  0  0  0  0  0  0  0  0  0  0  0
   64.0800   32.7540   46.9780 O   0  0  0  0  0  0  0  0  0  0  0  0
   63.3060   33.8090   46.4290 C   0  0  0  0  0  0  0  0  0  0  0  0
   61.7930   33.6730   46.7210 C   0  0  0  0  0  0  0  0  0  0  0  0
   59.8120   29.5490   46.9260 C   0  0  0  0  0  0  0  0  0  0  0  0
   59.1220   28.4660   46.3800 C   0  0  0  0  0  0  0  0  0  0  0  0
   57.9530   28.6690   45.6450 C   0  0  0  0  0  0  0  0  0  0  0  0
   57.3050   27.5460   45.0440 N   0  0  0  0  0  0  0  0  0  0  0  0
   56.6390   26.2750   46.0130 S   0  0  0  0  0  0  0  0  0  0  0  0
   57.3630   26.2370   47.3300 O   0  0  0  0  0  0  0  0  0  0  0  0
   55.1790   26.5230   46.2750 O   0  0  0  0  0  0  0  0  0  0  0  0
   56.8570   24.7370   45.1780 C   0  0  0  0  0  0  0  0  0  0  0  0
   58.0800   24.0570   45.2560 C   0  0  0  0  0  0  0  0  0  0  0  0
   58.2670   22.8620   44.5570 C   0  0  0  0  0  0  0  0  0  0  0  0
   57.2310   22.3320   43.7740 C   0  0  0  0  0  0  0  0  0  0  0  0
   57.4390   21.0690   42.9910 C   0  0  0  0  0  0  0  0  0  0  0  0
   56.0140   23.0230   43.6800 C   0  0  0  0  0  0  0  0  0  0  0  0
   55.8250   24.2160   44.3840 C   0  0  0  0  0  0  0  0  0  0  0  0
   55.5923   28.8815   43.2476 H   0  0  0  0  0  0  0  0  0  0  0  0
   55.5069   30.6397   42.8899 H   0  0  0  0  0  0  0  0  0  0  0  0
   57.0944   29.7993   42.8899 H   0  0  0  0  0  0  0  0  0  0  0  0
   57.7563   32.0743   45.8931 H   0  0  0  0  0  0  0  0  0  0  0  0
   61.7580   31.6880   46.2960 H   0  0  0  0  0  0  0  0  0  0  0  0
   61.7191   32.1253   49.1974 H   0  0  0  0  0  0  0  0  0  0  0  0
   62.3633   30.7433   48.2201 H   0  0  0  0  0  0  0  0  0  0  0  0
   63.6287   33.3991   48.8775 H   0  0  0  0  0  0  0  0  0  0  0  0
   64.3616   31.7568   48.7497 H   0  0  0  0  0  0  0  0  0  0  0  0
   63.6598   34.7597   46.8545 H   0  0  0  0  0  0  0  0  0  0  0  0
   63.4320   33.7717   45.3369 H   0  0  0  0  0  0  0  0  0  0  0  0
   61.5196   34.3519   47.5422 H   0  0  0  0  0  0  0  0  0  0  0  0
   61.2289   33.9329   45.8131 H   0  0  0  0  0  0  0  0  0  0  0  0
   60.7444   29.3775   47.4839 H   0  0  0  0  0  0  0  0  0  0  0  0
   59.5022   27.4447   46.5300 H   0  0  0  0  0  0  0  0  0  0  0  0
   58.8959   24.4659   45.8701 H   0  0  0  0  0  0  0  0  0  0  0  0
   59.2303   22.3348   44.6209 H   0  0  0  0  0  0  0  0  0  0  0  0
   57.5778   20.2264   43.6844 H   0  0  0  0  0  0  0  0  0  0  0  0
   56.5596   20.8814   42.3573 H   0  0  0  0  0  0  0  0  0  0  0  0
   58.3321   21.1733   42.3573 H   0  0  0  0  0  0  0  0  0  0  0  0
   55.2051   22.6247   43.0499 H   0  0  0  0  0  0  0  0  0  0  0  0
   54.8644   24.7474   44.3150 H   0  0  0  0  0  0  0  0  0  0  0  0
  1  2  1  0
  2  3  1  0
  3  4  2  0
  4  5  1  0
  5  6  1  0
  6  7  2  0
  6  8  1  0
  8  9  1  0
  9 10  1  0
 10 11  1  0
 11 12  1  0
 12 13  1  0
  5 14  2  0
 14 15  1  0
 15 16  2  0
 16 17  1  0
 17 18  1  0
 18 19  2  0
 18 20  2  0
 18 21  1  0
 21 22  2  0
 22 23  1  0
 23 24  2  0
 24 25  1  0
 24 26  1  0
 26 27  2  0
 16  3  1  0
 27 21  1  0
 13  8  1  0
  1 28  1  0
  1 29  1  0
  1 30  1  0
  4 31  1  0
  8 32  1  0
  9 33  1  0
  9 34  1  0
 10 35  1  0
 10 36  1  0
 12 37  1  0
 12 38  1  0
 13 39  1  0
 13 40  1  0
 14 41  1  0
 15 42  1  0
 22 43  1  0
 23 44  1  0
 25 45  1  0
 25 46  1  0
 25 47  1  0
 26 48  1  0
 27 49  1  0
M  CHG  2   8   1  17  -1
M  END
>  <UniqueID>  (26) 
26

>  <SMILES>  (26) 
COc1cc(C(=O)[NH+]2CCOCC2)ccc1[N-]S(=O)(=O)c1ccc(C)cc1

>  <Energy>  (26) 
76.16566346230049

>  <Genealogy>  (26) 
COc1cc(C(=O)[NH+]2CCOCC2)ccc1[N-]S(=O)(=O)c1ccc(C)cc1 (protonated)
COc1cc(C(=O)[NH+]2CCOCC2)ccc1[N-]S(=O)(=O)c1ccc(C)cc1 (3D coordinates assigned)
COc1cc(C(=O)[NH+]2CCOCC2)ccc1[N-]S(=O)(=O)c1ccc(C)cc1 (nonaromatic ring conformer: 76.16566346230049 kcal/mol)

>  <smiles>  (26) 
COc1cc(C(=O)N2CCOCC2)ccc1NS(=O)(=O)c1ccc(C)cc1

>  <score_type>  (26) 
oracle

>  <origin>  (26) 
adg

>  <m_score__min__energy>  (26) 
-9.0500000000000007

>  <m_primary>  (26) 
energy

$$$$
26:0
     RDKit          3D

 49 51  0  0  0  0  0  0  0  0999 V2000
   60.4900   30.3930   47.8470 C   0  0  0  0  0  0  0  0  0  0  0  0
   59.0490   30.8650   47.6930 C   0  0  0  0  0  0  0  0  0  0  0  0
   58.5030   30.4700   46.3530 C   0  0  0  0  0  0  0  0  0  0  0  0
   58.6440   29.2360   45.8300 N   0  0  0  0  0  0  0  0  0  0  0  0
   58.1060   29.2470   44.6200 N   0  0  0  0  0  0  0  0  0  0  0  0
   58.0800   28.0790   43.7460 C   0  0  0  0  0  0  0  0  0  0  0  0
   57.6150   30.4760   44.3480 C   0  0  0  0  0  0  0  0  0  0  0  0
   56.9900   30.8900   43.0470 C   0  0  0  0  0  0  0  0  0  0  0  0
   57.8720   31.2960   45.4330 C   0  0  0  0  0  0  0  0  0  0  0  0
   57.5480   32.7580   45.5850 C   0  0  0  0  0  0  0  0  0  0  0  0
   58.7900   33.5530   45.6720 N   0  0  0  0  0  0  0  0  0  0  0  0
   58.9040   34.4380   44.5000 C   0  0  0  0  0  0  0  0  0  0  0  0
   58.8370   34.3400   46.9230 C   0  0  0  0  0  0  0  0  0  0  0  0
   60.1180   34.0580   47.6600 C   0  0  0  0  0  0  0  0  0  0  0  0
   60.1930   34.1790   49.0530 C   0  0  0  0  0  0  0  0  0  0  0  0
   61.3970   33.9300   49.7150 C   0  0  0  0  0  0  0  0  0  0  0  0
   62.5320   33.5560   48.9740 C   0  0  0  0  0  0  0  0  0  0  0  0
   63.7970   33.2910   49.6120 N   0  0  0  0  0  0  0  0  0  0  0  0
   64.0600   33.4580   50.9240 C   0  0  0  0  0  0  0  0  0  0  0  0
   65.3780   33.1200   51.1580 C   0  0  0  0  0  0  0  0  0  0  0  0
   65.8770   32.7520   49.9240 C   0  0  0  0  0  0  0  0  0  0  0  0
   64.8970   32.8670   49.0080 N   0  0  0  0  0  0  0  0  0  0  0  0
   62.4330   33.4560   47.6180 N   0  0  0  0  0  0  0  0  0  0  0  0
   61.2720   33.6940   46.9540 C   0  0  0  0  0  0  0  0  0  0  0  0
   60.7371   30.3121   48.9158 H   0  0  0  0  0  0  0  0  0  0  0  0
   60.6069   29.4096   47.3682 H   0  0  0  0  0  0  0  0  0  0  0  0
   61.1660   31.1167   47.3682 H   0  0  0  0  0  0  0  0  0  0  0  0
   58.4333   30.4094   48.4825 H   0  0  0  0  0  0  0  0  0  0  0  0
   59.0249   31.9616   47.7759 H   0  0  0  0  0  0  0  0  0  0  0  0
   58.0596   27.1644   44.3568 H   0  0  0  0  0  0  0  0  0  0  0  0
   57.1825   28.1160   43.1111 H   0  0  0  0  0  0  0  0  0  0  0  0
   58.9783   28.0760   43.1111 H   0  0  0  0  0  0  0  0  0  0  0  0
   56.0882   31.4873   43.2471 H   0  0  0  0  0  0  0  0  0  0  0  0
   57.7079   31.4918   42.4704 H   0  0  0  0  0  0  0  0  0  0  0  0
   56.7160   29.9942   42.4704 H   0  0  0  0  0  0  0  0  0  0  0  0
   56.9636   33.0923   44.7151 H   0  0  0  0  0  0  0  0  0  0  0  0
   56.9666   32.9012   46.5078 H   0  0  0  0  0  0  0  0  0  0  0  0
   59.0378   35.4767   44.8365 H   0  0  0  0  0  0  0  0  0  0  0  0
   59.7705   34.1344   43.8941 H   0  0  0  0  0  0  0  0  0  0  0  0
   57.9889   34.3638   43.8941 H   0  0  0  0  0  0  0  0  0  0  0  0
   58.7840   35.4118   46.6814 H   0  0  0  0  0  0  0  0  0  0  0  0
   57.9848   34.0586   47.5591 H   0  0  0  0  0  0  0  0  0  0  0  0
   59.3013   34.4709   49.6272 H   0  0  0  0  0  0  0  0  0  0  0  0
   61.4572   34.0258   50.8092 H   0  0  0  0  0  0  0  0  0  0  0  0
   63.3431   33.8059   51.6823 H   0  0  0  0  0  0  0  0  0  0  0  0
   65.9140   33.1396   52.1184 H   0  0  0  0  0  0  0  0  0  0  0  0
   66.9060   32.4196   49.7226 H   0  0  0  0  0  0  0  0  0  0  0  0
   65.0060   32.6760   47.9890 H   0  0  0  0  0  0  0  0  0  0  0  0
   61.2379   33.6006   45.8585 H   0  0  0  0  0  0  0  0  0  0  0  0
  1  2  1  0
  2  3  1  0
  3  4  2  0
  4  5  1  0
  5  6  1  0
  5  7  1  0
  7  8  1  0
  7  9  2  0
  9 10  1  0
 10 11  1  0
 11 12  1  0
 11 13  1  0
 13 14  1  0
 14 15  2  0
 15 16  1  0
 16 17  2  0
 17 18  1  0
 18 19  1  0
 19 20  2  0
 20 21  1  0
 21 22  2  0
 17 23  1  0
 23 24  2  0
  9  3  1  0
 24 14  1  0
 22 18  1  0
  1 25  1  0
  1 26  1  0
  1 27  1  0
  2 28  1  0
  2 29  1  0
  6 30  1  0
  6 31  1  0
  6 32  1  0
  8 33  1  0
  8 34  1  0
  8 35  1  0
 10 36  1  0
 10 37  1  0
 12 38  1  0
 12 39  1  0
 12 40  1  0
 13 41  1  0
 13 42  1  0
 15 43  1  0
 16 44  1  0
 19 45  1  0
 20 46  1  0
 21 47  1  0
 22 48  1  0
 24 49  1  0
M  CHG  1  22   1
M  END
>  <UniqueID>  (27) 
27

>  <SMILES>  (27) 
CCc1nn(C)c(C)c1CN(C)Cc1ccc(-n2ccc[nH+]2)nc1

>  <Energy>  (27) 
107.14282651991884

>  <Genealogy>  (27) 
CCc1nn(C)c(C)c1CN(C)Cc1ccc(-n2ccc[nH+]2)nc1 (protonated)
CCc1nn(C)c(C)c1CN(C)Cc1ccc(-n2ccc[nH+]2)nc1 (3D coordinates assigned)
CCc1nn(C)c(C)c1CN(C)Cc1ccc(-n2ccc[nH+]2)nc1 (optimized conformer: 107.14282651991884 kcal/mol)

>  <smiles>  (27) 
CCc1nn(C)c(C)c1CN(C)Cc1ccc(-n2cccn2)nc1

>  <score_type>  (27) 
oracle

>  <origin>  (27) 
adg

>  <m_score__min__energy>  (27) 
-6.3399999999999999

>  <m_primary>  (27) 
energy

$$$$
27:0
     RDKit          3D

 56 60  0  0  0  0  0  0  0  0999 V2000
   57.1560   32.6260   40.5120 C   0  0  0  0  0  0  0  0  0  0  0  0
   57.3960   32.0450   41.8700 C   0  0  0  0  0  0  0  0  0  0  0  0
   56.7850   30.8500   42.2630 C   0  0  0  0  0  0  0  0  0  0  0  0
   57.0120   30.3600   43.5460 C   0  0  0  0  0  0  0  0  0  0  0  0
   57.8350   31.0800   44.4230 C   0  0  0  0  0  0  0  0  0  0  0  0
   58.0960   30.6190   45.7620 N   0  0  0  0  0  0  0  0  0  0  0  0
   58.2940   31.6030   46.8300 C   0  0  0  0  0  0  0  0  0  0  0  0
   59.2050   31.0770   47.9100 C   0  0  0  0  0  0  0  0  0  0  0  0
   59.4640   29.6950   48.0040 C   0  0  0  0  0  0  0  0  0  0  0  0
   60.3450   29.2410   48.9350 N   0  0  0  0  0  0  0  0  0  0  0  0
   60.9800   30.0860   49.7790 C   0  0  0  0  0  0  0  0  0  0  0  0
   60.7330   31.4180   49.7230 N   0  0  0  0  0  0  0  0  0  0  0  0
   59.8410   31.9380   48.8370 C   0  0  0  0  0  0  0  0  0  0  0  0
   59.6080   33.3230   48.8890 O   0  0  0  0  0  0  0  0  0  0  0  0
   60.2500   34.2970   48.0630 C   0  0  0  0  0  0  0  0  0  0  0  0
   59.2530   34.9510   47.1150 C   0  0  0  0  0  0  0  0  0  0  0  0
   59.9910   34.3520   45.9270 C   0  0  0  0  0  0  0  0  0  0  0  0
   60.9830   33.6890   46.8700 C   0  0  0  0  0  0  0  0  0  0  0  0
   58.8310   28.7620   47.1020 N   0  0  0  0  0  0  0  0  0  0  0  0
   59.0730   27.3170   47.2330 C   0  0  0  0  0  0  0  0  0  0  0  0
   59.0720   26.6450   45.8560 C   0  0  0  0  0  0  0  0  0  0  0  0
   57.7690   25.9300   45.6220 C   0  0  0  0  0  0  0  0  0  0  0  0
   57.6880   24.8750   44.7040 C   0  0  0  0  0  0  0  0  0  0  0  0
   56.4850   24.1870   44.5350 C   0  0  0  0  0  0  0  0  0  0  0  0
   55.3730   24.5560   45.2940 C   0  0  0  0  0  0  0  0  0  0  0  0
   55.4690   25.5750   46.1900 N   0  0  0  0  0  0  0  0  0  0  0  0
   56.6280   26.2610   46.3710 C   0  0  0  0  0  0  0  0  0  0  0  0
   57.8290   29.2290   46.1400 C   0  0  0  0  0  0  0  0  0  0  0  0
   58.3830   32.2510   43.9940 N   0  0  0  0  0  0  0  0  0  0  0  0
   58.1690   32.7180   42.7620 N   0  0  0  0  0  0  0  0  0  0  0  0
   56.7379   33.6382   40.6149 H   0  0  0  0  0  0  0  0  0  0  0  0
   58.1070   32.6763   39.9614 H   0  0  0  0  0  0  0  0  0  0  0  0
   56.4467   31.9905   39.9614 H   0  0  0  0  0  0  0  0  0  0  0  0
   56.1325   30.3035   41.5662 H   0  0  0  0  0  0  0  0  0  0  0  0
   56.5494   29.4157   43.8689 H   0  0  0  0  0  0  0  0  0  0  0  0
   58.7392   32.5120   46.3993 H   0  0  0  0  0  0  0  0  0  0  0  0
   57.3151   31.8202   47.2824 H   0  0  0  0  0  0  0  0  0  0  0  0
   61.6985   29.6916   50.5126 H   0  0  0  0  0  0  0  0  0  0  0  0
   61.2210   32.0530   50.3930 H   0  0  0  0  0  0  0  0  0  0  0  0
   60.8111   34.8823   48.8064 H   0  0  0  0  0  0  0  0  0  0  0  0
   58.2202   34.5904   47.2306 H   0  0  0  0  0  0  0  0  0  0  0  0
   59.0642   36.0335   47.1653 H   0  0  0  0  0  0  0  0  0  0  0  0
   59.3908   33.6434   45.3374 H   0  0  0  0  0  0  0  0  0  0  0  0
   60.3477   34.9989   45.1119 H   0  0  0  0  0  0  0  0  0  0  0  0
   60.9632   32.5895   46.8429 H   0  0  0  0  0  0  0  0  0  0  0  0
   62.0644   33.8444   46.7414 H   0  0  0  0  0  0  0  0  0  0  0  0
   60.0492   27.1557   47.7137 H   0  0  0  0  0  0  0  0  0  0  0  0
   58.2716   26.8763   47.8442 H   0  0  0  0  0  0  0  0  0  0  0  0
   59.2096   27.4111   45.0788 H   0  0  0  0  0  0  0  0  0  0  0  0
   59.8926   25.9135   45.8154 H   0  0  0  0  0  0  0  0  0  0  0  0
   58.5725   24.5886   44.1161 H   0  0  0  0  0  0  0  0  0  0  0  0
   56.4141   23.3621   43.8108 H   0  0  0  0  0  0  0  0  0  0  0  0
   54.4192   24.0228   45.1675 H   0  0  0  0  0  0  0  0  0  0  0  0
   56.6726   27.0779   47.1063 H   0  0  0  0  0  0  0  0  0  0  0  0
   57.8654   28.5953   45.2416 H   0  0  0  0  0  0  0  0  0  0  0  0
   56.8331   29.1692   46.6033 H   0  0  0  0  0  0  0  0  0  0  0  0
  1  2  1  0
  2  3  2  0
  3  4  1  0
  4  5  2  0
  5  6  1  0
  6  7  1  0
  7  8  1  0
  8  9  2  0
  9 10  1  0
 10 11  2  0
 11 12  1  0
 12 13  2  0
 13 14  1  0
 14 15  1  0
 15 16  1  0
 16 17  1  0
 17 18  1  0
  9 19  1  0
 19 20  1  0
 20 21  1  0
 21 22  1  0
 22 23  2  0
 23 24  1  0
 24 25  2  0
 25 26  1  0
 26 27  2  0
 19 28  1  0
  5 29  1  0
 29 30  2  0
 30  2  1  0
 28  6  1  0
 13  8  1  0
 18 15  1  0
 27 22  1  0
  1 31  1  0
  1 32  1  0
  1 33  1  0
  3 34  1  0
  4 35  1  0
  7 36  1  0
  7 37  1  0
 11 38  1  0
 12 39  1  0
 15 40  1  0
 16 41  1  0
 16 42  1  0
 17 43  1  0
 17 44  1  0
 18 45  1  0
 18 46  1  0
 20 47  1  0
 20 48  1  0
 21 49  1  0
 21 50  1  0
 23 51  1  0
 24 52  1  0
 25 53  1  0
 27 54  1  0
 28 55  1  0
 28 56  1  0
M  CHG  1  12   1
M  END
>  <UniqueID>  (28) 
28

>  <SMILES>  (28) 
Cc1ccc(N2Cc3c(nc[nH+]c3OC3CCC3)N(CCc3cccnc3)C2)nn1

>  <Energy>  (28) 
130.1594909955092

>  <Genealogy>  (28) 
Cc1ccc(N2Cc3c(nc[nH+]c3OC3CCC3)N(CCc3cccnc3)C2)nn1 (protonated)
Cc1ccc(N2Cc3c(nc[nH+]c3OC3CCC3)N(CCc3cccnc3)C2)nn1 (3D coordinates assigned)
Cc1ccc(N2Cc3c(nc[nH+]c3OC3CCC3)N(CCc3cccnc3)C2)nn1 (nonaromatic ring conformer: 130.1594909955092 kcal/mol)

>  <smiles>  (28) 
Cc1ccc(N2Cc3c(OC4CCC4)ncnc3N(CCc3cccnc3)C2)nn1

>  <score_type>  (28) 
oracle

>  <origin>  (28) 
adg

>  <m_score__min__energy>  (28) 
-8.1199999999999992

>  <m_primary>  (28) 
energy

$$$$
28:0
     RDKit          3D

 47 50  0  0  0  0  0  0  0  0999 V2000
   60.7570   33.2090   47.1000 C   0  0  0  0  0  0  0  0  0  0  0  0
   59.6840   32.7800   46.3140 C   0  0  0  0  0  0  0  0  0  0  0  0
   59.5120   31.4150   46.0220 C   0  0  0  0  0  0  0  0  0  0  0  0
   58.4030   30.9700   45.2080 N   0  0  0  0  0  0  0  0  0  0  0  0
   57.6710   31.9320   44.3690 C   0  0  0  0  0  0  0  0  0  0  0  0
   57.0680   31.2330   43.1460 C   0  0  0  0  0  0  0  0  0  0  0  0
   56.1490   30.0610   43.5380 C   0  0  0  0  0  0  0  0  0  0  0  0
   56.5100   29.4130   44.8870 C   0  0  0  0  0  0  0  0  0  0  0  0
   58.0000   29.5550   45.2180 C   0  0  0  0  0  0  0  0  0  0  0  0
   60.4350   30.4890   46.5430 C   0  0  0  0  0  0  0  0  0  0  0  0
   61.5080   30.9200   47.3280 C   0  0  0  0  0  0  0  0  0  0  0  0
   61.6870   32.2840   47.5960 C   0  0  0  0  0  0  0  0  0  0  0  0
   62.8060   32.7240   48.4500 C   0  0  0  0  0  0  0  0  0  0  0  0
   64.0950   32.6530   48.0720 N   0  0  0  0  0  0  0  0  0  0  0  0
   64.8440   33.1090   49.0630 N   0  0  0  0  0  0  0  0  0  0  0  0
   63.9920   33.4710   50.0450 C   0  0  0  0  0  0  0  0  0  0  0  0
   62.7050   33.2360   49.6980 N   0  0  0  0  0  0  0  0  0  0  0  0
   61.5030   33.6010   50.4530 C   0  0  0  0  0  0  0  0  0  0  0  0
   61.5000   32.9570   51.8490 C   0  0  0  0  0  0  0  0  0  0  0  0
   62.4220   33.6390   52.8810 C   0  0  0  0  0  0  0  0  0  0  0  0
   63.9180   33.3810   52.6260 C   0  0  0  0  0  0  0  0  0  0  0  0
   64.4610   34.0640   51.3510 C   0  0  0  0  0  0  0  0  0  0  0  0
   60.8727   34.2783   47.3309 H   0  0  0  0  0  0  0  0  0  0  0  0
   58.9678   33.5163   45.9203 H   0  0  0  0  0  0  0  0  0  0  0  0
   56.8625   32.3858   44.9610 H   0  0  0  0  0  0  0  0  0  0  0  0
   58.3719   32.7066   44.0245 H   0  0  0  0  0  0  0  0  0  0  0  0
   56.4816   31.9661   42.5727 H   0  0  0  0  0  0  0  0  0  0  0  0
   57.8966   30.8260   42.5479 H   0  0  0  0  0  0  0  0  0  0  0  0
   55.1163   30.4351   43.5982 H   0  0  0  0  0  0  0  0  0  0  0  0
   56.2716   29.2859   42.7671 H   0  0  0  0  0  0  0  0  0  0  0  0
   55.9231   29.8978   45.6811 H   0  0  0  0  0  0  0  0  0  0  0  0
   56.2805   28.3394   44.8178 H   0  0  0  0  0  0  0  0  0  0  0  0
   58.1900   29.1326   46.2157 H   0  0  0  0  0  0  0  0  0  0  0  0
   58.5839   29.0159   44.4575 H   0  0  0  0  0  0  0  0  0  0  0  0
   60.3108   29.4169   46.3305 H   0  0  0  0  0  0  0  0  0  0  0  0
   62.2160   30.1846   47.7378 H   0  0  0  0  0  0  0  0  0  0  0  0
   64.4680   32.2930   47.1660 H   0  0  0  0  0  0  0  0  0  0  0  0
   61.4682   34.6949   50.5635 H   0  0  0  0  0  0  0  0  0  0  0  0
   60.6239   33.2361   49.9016 H   0  0  0  0  0  0  0  0  0  0  0  0
   60.4712   32.9875   52.2372 H   0  0  0  0  0  0  0  0  0  0  0  0
   61.8860   31.9353   51.7182 H   0  0  0  0  0  0  0  0  0  0  0  0
   62.2438   34.7239   52.8451 H   0  0  0  0  0  0  0  0  0  0  0  0
   62.1811   33.2115   53.8655 H   0  0  0  0  0  0  0  0  0  0  0  0
   64.4866   33.7566   53.4894 H   0  0  0  0  0  0  0  0  0  0  0  0
   64.0359   32.2967   52.4831 H   0  0  0  0  0  0  0  0  0  0  0  0
   64.1517   35.1194   51.3742 H   0  0  0  0  0  0  0  0  0  0  0  0
   65.5513   33.9203   51.3731 H   0  0  0  0  0  0  0  0  0  0  0  0
  1  2  2  0
  2  3  1  0
  3  4  1  0
  4  5  1  0
  5  6  1  0
  6  7  1  0
  7  8  1  0
  8  9  1  0
  3 10  2  0
 10 11  1  0
 11 12  2  0
 12 13  1  0
 13 14  2  0
 14 15  1  0
 15 16  2  0
 16 17  1  0
 17 18  1  0
 18 19  1  0
 19 20  1  0
 20 21  1  0
 21 22  1  0
 12  1  1  0
 17 13  1  0
  9  4  1  0
 22 16  1  0
  1 23  1  0
  2 24  1  0
  5 25  1  0
  5 26  1  0
  6 27  1  0
  6 28  1  0
  7 29  1  0
  7 30  1  0
  8 31  1  0
  8 32  1  0
  9 33  1  0
  9 34  1  0
 10 35  1  0
 11 36  1  0
 14 37  1  0
 18 38  1  0
 18 39  1  0
 19 40  1  0
 19 41  1  0
 20 42  1  0
 20 43  1  0
 21 44  1  0
 21 45  1  0
 22 46  1  0
 22 47  1  0
M  CHG  1  14   1
M  END
>  <UniqueID>  (29) 
29

>  <SMILES>  (29) 
c1cc(N2CCCCC2)ccc1-c1[nH+]nc2n1CCCCC2

>  <Energy>  (29) 
98.1535780590174

>  <Genealogy>  (29) 
c1cc(N2CCCCC2)ccc1-c1[nH+]nc2n1CCCCC2 (protonated)
c1cc(N2CCCCC2)ccc1-c1[nH+]nc2n1CCCCC2 (3D coordinates assigned)
c1cc(N2CCCCC2)ccc1-c1[nH+]nc2n1CCCCC2 (nonaromatic ring conformer: 98.1535780590174 kcal/mol)

>  <smiles>  (29) 
c1cc(N2CCCCC2)ccc1-c1nnc2n1CCCCC2

>  <score_type>  (29) 
oracle

>  <origin>  (29) 
adg

>  <m_score__min__energy>  (29) 
-4.4199999999999999

>  <m_primary>  (29) 
energy

$$$$
29:0
     RDKit          3D

 31 33  0  0  0  0  0  0  0  0999 V2000
   61.4950   34.2240   49.0050 C   0  0  0  0  0  0  0  0  0  0  0  0
   60.0250   34.5840   48.8080 C   0  0  0  0  0  0  0  0  0  0  0  0
   59.5050   33.9830   47.5650 N   0  0  0  0  0  0  0  0  0  0  0  0
   59.6210   34.7290   46.4090 C   0  0  0  0  0  0  0  0  0  0  0  0
   59.1400   34.2550   45.1810 C   0  0  0  0  0  0  0  0  0  0  0  0
   58.5440   33.0070   45.1740 C   0  0  0  0  0  0  0  0  0  0  0  0
   58.4370   32.2450   46.3150 C   0  0  0  0  0  0  0  0  0  0  0  0
   57.7970   31.0770   46.0600 N   0  0  0  0  0  0  0  0  0  0  0  0
   57.5120   31.1160   44.7400 C   0  0  0  0  0  0  0  0  0  0  0  0
   56.8490   30.1440   43.9920 C   0  0  0  0  0  0  0  0  0  0  0  0
   56.6490   30.3890   42.6220 C   0  0  0  0  0  0  0  0  0  0  0  0
   57.1050   31.5910   42.0330 C   0  0  0  0  0  0  0  0  0  0  0  0
   57.7700   32.5590   42.8090 C   0  0  0  0  0  0  0  0  0  0  0  0
   57.9570   32.2850   44.1620 C   0  0  0  0  0  0  0  0  0  0  0  0
   58.9480   32.7130   47.5380 C   0  0  0  0  0  0  0  0  0  0  0  0
   58.8230   31.8660   48.7830 C   0  0  0  0  0  0  0  0  0  0  0  0
   61.7181   34.1694   50.0807 H   0  0  0  0  0  0  0  0  0  0  0  0
   61.6995   33.2492   48.5381 H   0  0  0  0  0  0  0  0  0  0  0  0
   62.1268   34.9940   48.5381 H   0  0  0  0  0  0  0  0  0  0  0  0
   59.4431   34.2078   49.6623 H   0  0  0  0  0  0  0  0  0  0  0  0
   59.9343   35.6780   48.7378 H   0  0  0  0  0  0  0  0  0  0  0  0
   60.1017   35.7174   46.4529 H   0  0  0  0  0  0  0  0  0  0  0  0
   59.2326   34.8508   44.2610 H   0  0  0  0  0  0  0  0  0  0  0  0
   57.5530   30.3100   46.7230 H   0  0  0  0  0  0  0  0  0  0  0  0
   56.4933   29.2139   44.4594 H   0  0  0  0  0  0  0  0  0  0  0  0
   56.1336   29.6396   42.0033 H   0  0  0  0  0  0  0  0  0  0  0  0
   56.9388   31.7709   40.9606 H   0  0  0  0  0  0  0  0  0  0  0  0
   58.1292   33.4982   42.3630 H   0  0  0  0  0  0  0  0  0  0  0  0
   58.9174   32.5058   49.6728 H   0  0  0  0  0  0  0  0  0  0  0  0
   57.8418   31.3689   48.7913 H   0  0  0  0  0  0  0  0  0  0  0  0
   59.6188   31.1066   48.7913 H   0  0  0  0  0  0  0  0  0  0  0  0
  1  2  1  0
  2  3  1  0
  3  4  2  0
  4  5  1  0
  5  6  2  0
  6  7  1  0
  7  8  1  0
  8  9  1  0
  9 10  2  0
 10 11  1  0
 11 12  2  0
 12 13  1  0
 13 14  2  0
  7 15  2  0
 15 16  1  0
 15  3  1  0
 14  6  1  0
 14  9  1  0
  1 17  1  0
  1 18  1  0
  1 19  1  0
  2 20  1  0
  2 21  1  0
  4 22  1  0
  5 23  1  0
  8 24  1  0
 10 25  1  0
 11 26  1  0
 12 27  1  0
 13 28  1  0
 16 29  1  0
 16 30  1  0
 16 31  1  0
M  CHG  1   3   1
M  END
>  <UniqueID>  (30) 
30

>  <SMILES>  (30) 
CC[n+]1ccc2c([nH]c3ccccc32)c1C

>  <Energy>  (30) 
75.44626515279698

>  <Genealogy>  (30) 
CC[n+]1ccc2c([nH]c3ccccc32)c1C (3D coordinates assigned)
CC[n+]1ccc2c([nH]c3ccccc32)c1C (optimized conformer: 75.44626515279698 kcal/mol)

>  <smiles>  (30) 
CC[n+]1ccc2c([nH]c3ccccc32)c1C

>  <score_type>  (30) 
oracle

>  <origin>  (30) 
adg

>  <m_score__min__energy>  (30) 
-4.7800000000000002

>  <m_primary>  (30) 
energy

$$$$
30:0
     RDKit          3D

 64 67  0  0  0  0  0  0  0  0999 V2000
   56.5895   32.0334   43.0934 H   0  0  0  0  0  0  0  0  0  0  0  0
   57.0060   31.2150   43.6990 C   0  0  0  0  0  0  0  0  0  0  0  0
   58.3560   31.2340   44.0630 C   0  0  0  0  0  0  0  0  0  0  0  0
   58.9987   32.0666   43.7411 H   0  0  0  0  0  0  0  0  0  0  0  0
   58.8920   30.1980   44.8350 C   0  0  0  0  0  0  0  0  0  0  0  0
   59.9544   30.2162   45.1195 H   0  0  0  0  0  0  0  0  0  0  0  0
   58.0710   29.1330   45.2470 C   0  0  0  0  0  0  0  0  0  0  0  0
   58.5640   28.0590   46.0010 C   0  0  0  0  0  0  0  0  0  0  0  0
   59.9160   28.0000   46.3520 O   0  0  0  0  0  0  0  0  0  0  0  0
   60.3970   27.1870   47.4180 C   0  0  0  0  0  0  0  0  0  0  0  0
   61.4514   26.9312   47.2370 H   0  0  0  0  0  0  0  0  0  0  0  0
   59.8002   26.2647   47.4736 H   0  0  0  0  0  0  0  0  0  0  0  0
   60.2770   27.9530   48.7390 C   0  0  0  0  0  0  0  0  0  0  0  0
   61.2661   28.0028   49.2178 H   0  0  0  0  0  0  0  0  0  0  0  0
   59.5626   27.4254   49.3881 H   0  0  0  0  0  0  0  0  0  0  0  0
   59.7830   29.3210   48.5090 N   0  0  0  0  0  0  0  0  0  0  0  0
   60.0290   29.6140   47.5340 H   0  0  0  0  0  0  0  0  0  0  0  0
   58.7410   29.3360   48.5970 H   0  0  0  0  0  0  0  0  0  0  0  0
   60.3570   30.3060   49.4410 C   0  0  0  0  0  0  0  0  0  0  0  0
   60.9734   29.7741   50.1807 H   0  0  0  0  0  0  0  0  0  0  0  0
   59.5222   30.8398   49.9188 H   0  0  0  0  0  0  0  0  0  0  0  0
   61.2240   31.3400   48.7360 C   0  0  0  0  0  0  0  0  0  0  0  0
   62.6070   31.2940   48.9830 C   0  0  0  0  0  0  0  0  0  0  0  0
   63.0094   30.5322   49.6670 H   0  0  0  0  0  0  0  0  0  0  0  0
   63.4760   32.1970   48.3760 C   0  0  0  0  0  0  0  0  0  0  0  0
   64.5547   32.1442   48.5849 H   0  0  0  0  0  0  0  0  0  0  0  0
   62.9850   33.1660   47.5060 C   0  0  0  0  0  0  0  0  0  0  0  0
   63.6770   33.8787   47.0337 H   0  0  0  0  0  0  0  0  0  0  0  0
   61.6140   33.2380   47.2290 C   0  0  0  0  0  0  0  0  0  0  0  0
   61.1350   34.2200   46.3480 C   0  0  0  0  0  0  0  0  0  0  0  0
   61.8378   34.9302   45.8878 H   0  0  0  0  0  0  0  0  0  0  0  0
   59.7760   34.3020   46.0520 C   0  0  0  0  0  0  0  0  0  0  0  0
   59.4145   35.0783   45.3616 H   0  0  0  0  0  0  0  0  0  0  0  0
   58.8700   33.4090   46.6230 C   0  0  0  0  0  0  0  0  0  0  0  0
   57.5120   33.5410   46.2920 O   0  0  0  0  0  0  0  0  0  0  0  0
   57.0180   34.2800   45.1790 C   0  0  0  0  0  0  0  0  0  0  0  0
   56.4405   35.1439   45.5397 H   0  0  0  0  0  0  0  0  0  0  0  0
   57.8627   34.6325   44.5689 H   0  0  0  0  0  0  0  0  0  0  0  0
   56.3693   33.6342   44.5689 H   0  0  0  0  0  0  0  0  0  0  0  0
   59.3400   32.4160   47.5050 C   0  0  0  0  0  0  0  0  0  0  0  0
   58.6274   31.7030   47.9452 H   0  0  0  0  0  0  0  0  0  0  0  0
   60.7110   32.3200   47.8340 C   0  0  0  0  0  0  0  0  0  0  0  0
   57.7180   27.0560   46.3660 N   0  0  0  0  0  0  0  0  0  0  0  0
   56.4070   27.0560   45.9980 C   0  0  0  0  0  0  0  0  0  0  0  0
   55.6210   26.0750   46.3300 N   0  0  0  0  0  0  0  0  0  0  0  0
   55.4300   24.8460   45.5570 C   0  0  0  0  0  0  0  0  0  0  0  0
   55.3762   23.9959   46.2530 H   0  0  0  0  0  0  0  0  0  0  0  0
   54.5000   24.9546   44.9797 H   0  0  0  0  0  0  0  0  0  0  0  0
   56.5720   24.5960   44.5610 C   0  0  0  0  0  0  0  0  0  0  0  0
   56.3073   25.0418   43.5908 H   0  0  0  0  0  0  0  0  0  0  0  0
   57.4899   25.0542   44.9578 H   0  0  0  0  0  0  0  0  0  0  0  0
   56.8090   23.1450   44.3790 N   0  0  0  0  0  0  0  0  0  0  0  0
   56.5020   22.7230   43.0010 C   0  0  0  0  0  0  0  0  0  0  0  0
   55.8550   21.8337   43.0254 H   0  0  0  0  0  0  0  0  0  0  0  0
   55.9846   23.5385   42.4744 H   0  0  0  0  0  0  0  0  0  0  0  0
   57.4372   22.4818   42.4744 H   0  0  0  0  0  0  0  0  0  0  0  0
   58.2060   22.8040   44.6980 C   0  0  0  0  0  0  0  0  0  0  0  0
   58.3356   22.7724   45.7899 H   0  0  0  0  0  0  0  0  0  0  0  0
   58.4499   21.8200   44.2712 H   0  0  0  0  0  0  0  0  0  0  0  0
   58.8758   23.5650   44.2712 H   0  0  0  0  0  0  0  0  0  0  0  0
   55.9170   28.0810   45.2550 N   0  0  0  0  0  0  0  0  0  0  0  0
   56.7100   29.1160   44.8750 C   0  0  0  0  0  0  0  0  0  0  0  0
   56.1840   30.1580   44.1030 C   0  0  0  0  0  0  0  0  0  0  0  0
   55.1228   30.1457   43.8136 H   0  0  0  0  0  0  0  0  0  0  0  0
  1  2  1  0
  2  3  2  0
  3  4  1  0
  3  5  1  0
  5  6  1  0
  5  7  2  0
  7  8  1  0
  8  9  1  0
  9 10  1  0
 10 11  1  0
 10 12  1  0
 10 13  1  0
 13 14  1  0
 13 15  1  0
 13 16  1  0
 16 17  1  0
 16 18  1  0
 16 19  1  0
 19 20  1  0
 19 21  1  0
 19 22  1  0
 22 23  2  0
 23 24  1  0
 23 25  1  0
 25 26  1  0
 25 27  2  0
 27 28  1  0
 27 29  1  0
 29 30  2  0
 30 31  1  0
 30 32  1  0
 32 33  1  0
 32 34  2  0
 34 35  1  0
 35 36  1  0
 36 37  1  0
 36 38  1  0
 36 39  1  0
 34 40  1  0
 40 41  1  0
 40 42  2  0
  8 43  2  0
 43 44  1  0
 44 45  2  0
 45 46  1  0
 46 47  1  0
 46 48  1  0
 46 49  1  0
 49 50  1  0
 49 51  1  0
 49 52  1  0
 52 53  1  0
 53 54  1  0
 53 55  1  0
 53 56  1  0
 52 57  1  0
 57 58  1  0
 57 59  1  0
 57 60  1  0
 44 61  1  0
 61 62  1  0
 62 63  2  0
 63 64  1  0
 63  2  1  0
 62  7  1  0
 42 22  1  0
 42 29  1  0
M  CHG  2  16   1  61  -1
M  END
>  <UniqueID>  (31) 
31

>  <SMILES>  (31) 
COc1ccc2cccc(C[NH2+]CCOc3n/c(=N\CCN(C)C)[n-]c4ccccc34)c2c1

>  <Energy>  (31) 
74.01706509310706

>  <Genealogy>  (31) 
COc1ccc2cccc(C[NH2+]CCOc3nc(=NCCN(C)C)[n-]c4ccccc34)c2c1 (protonated)
COc1ccc2cccc(C[NH2+]CCOc3n/c(=N\CCN(C)C)[n-]c4ccccc34)c2c1 (cis-trans isomerization)
COc1ccc2cccc(C[NH2+]CCOc3n/c(=N\CCN(C)C)[n-]c4ccccc34)c2c1 (3D coordinates assigned)
COc1ccc2cccc(C[NH2+]CCOc3n/c(=N\CCN(C)C)[n-]c4ccccc34)c2c1 (optimized conformer: 74.01706509310706 kcal/mol)

>  <smiles>  (31) 
COc1ccc2cccc(CNCCOc3nc(=NCCN(C)C)[nH]c4ccccc34)c2c1

>  <score_type>  (31) 
oracle

>  <origin>  (31) 
adg

>  <m_score__min__energy>  (31) 
-9.2799999999999994

>  <m_primary>  (31) 
energy

$$$$
31:0
     RDKit          3D

 54 55  0  0  0  0  0  0  0  0999 V2000
   57.5560   31.9620   41.9220 C   0  0  0  0  0  0  0  0  0  0  0  0
   57.8270   31.4980   43.3530 C   0  0  0  0  0  0  0  0  0  0  0  0
   56.6700   30.6710   43.9490 C   0  0  0  0  0  0  0  0  0  0  0  0
   56.9620   30.0930   45.2720 N   0  0  0  0  0  0  0  0  0  0  0  0
   58.2090   29.3180   45.2920 C   0  0  0  0  0  0  0  0  0  0  0  0
   59.2790   30.0870   46.0700 C   0  0  0  0  0  0  0  0  0  0  0  0
   58.8310   30.3500   47.4840 C   0  0  0  0  0  0  0  0  0  0  0  0
   58.6580   29.3690   48.2590 O   0  0  0  0  0  0  0  0  0  0  0  0
   58.5960   31.6920   47.9590 N   0  0  0  0  0  0  0  0  0  0  0  0
   58.5890   31.9740   49.4010 C   0  0  0  0  0  0  0  0  0  0  0  0
   59.8130   31.3790   50.0930 C   0  0  0  0  0  0  0  0  0  0  0  0
   58.7150   32.7990   47.0450 C   0  0  0  0  0  0  0  0  0  0  0  0
   57.6170   33.1720   46.2580 C   0  0  0  0  0  0  0  0  0  0  0  0
   57.7400   34.2040   45.3290 C   0  0  0  0  0  0  0  0  0  0  0  0
   58.9660   34.8540   45.1900 C   0  0  0  0  0  0  0  0  0  0  0  0
   60.0260   34.4900   45.9620 N   0  0  0  0  0  0  0  0  0  0  0  0
   59.9310   33.4920   46.8860 C   0  0  0  0  0  0  0  0  0  0  0  0
   61.0650   33.1860   47.7110 N   0  0  0  0  0  0  0  0  0  0  0  0
   61.9200   32.0420   47.3800 C   0  0  0  0  0  0  0  0  0  0  0  0
   63.3680   32.5020   47.1650 C   0  0  0  0  0  0  0  0  0  0  0  0
   63.8570   33.5220   48.2200 C   0  0  0  0  0  0  0  0  0  0  0  0
   62.8390   33.7790   49.3400 C   0  0  0  0  0  0  0  0  0  0  0  0
   61.4690   34.1400   48.7530 C   0  0  0  0  0  0  0  0  0  0  0  0
   57.0013   32.9117   41.9433 H   0  0  0  0  0  0  0  0  0  0  0  0
   58.5114   32.1071   41.3964 H   0  0  0  0  0  0  0  0  0  0  0  0
   56.9603   31.2011   41.3964 H   0  0  0  0  0  0  0  0  0  0  0  0
   58.7366   30.8795   43.3543 H   0  0  0  0  0  0  0  0  0  0  0  0
   57.9410   32.3986   43.9742 H   0  0  0  0  0  0  0  0  0  0  0  0
   55.7912   31.3256   44.0445 H   0  0  0  0  0  0  0  0  0  0  0  0
   56.4990   29.8266   43.2651 H   0  0  0  0  0  0  0  0  0  0  0  0
   57.0070   30.8500   45.9920 H   0  0  0  0  0  0  0  0  0  0  0  0
   58.0293   28.3478   45.7782 H   0  0  0  0  0  0  0  0  0  0  0  0
   58.5541   29.1547   44.2604 H   0  0  0  0  0  0  0  0  0  0  0  0
   60.2054   29.4942   46.0901 H   0  0  0  0  0  0  0  0  0  0  0  0
   59.4510   31.0520   45.5707 H   0  0  0  0  0  0  0  0  0  0  0  0
   58.5872   33.0636   49.5522 H   0  0  0  0  0  0  0  0  0  0  0  0
   57.6890   31.5168   49.8379 H   0  0  0  0  0  0  0  0  0  0  0  0
   59.6842   31.4416   51.1836 H   0  0  0  0  0  0  0  0  0  0  0  0
   59.9257   30.3256   49.7970 H   0  0  0  0  0  0  0  0  0  0  0  0
   60.7110   31.9411   49.7970 H   0  0  0  0  0  0  0  0  0  0  0  0
   56.6561   32.6493   46.3736 H   0  0  0  0  0  0  0  0  0  0  0  0
   56.8794   34.5024   44.7123 H   0  0  0  0  0  0  0  0  0  0  0  0
   59.0766   35.6638   44.4538 H   0  0  0  0  0  0  0  0  0  0  0  0
   60.9270   35.0060   45.8490 H   0  0  0  0  0  0  0  0  0  0  0  0
   61.8891   31.3154   48.2053 H   0  0  0  0  0  0  0  0  0  0  0  0
   61.5517   31.5770   46.4536 H   0  0  0  0  0  0  0  0  0  0  0  0
   64.0229   31.6191   47.2052 H   0  0  0  0  0  0  0  0  0  0  0  0
   63.4046   33.0060   46.1879 H   0  0  0  0  0  0  0  0  0  0  0  0
   64.7832   33.1381   48.6725 H   0  0  0  0  0  0  0  0  0  0  0  0
   64.0130   34.4779   47.6985 H   0  0  0  0  0  0  0  0  0  0  0  0
   62.7412   32.8719   49.9545 H   0  0  0  0  0  0  0  0  0  0  0  0
   63.1935   34.6193   49.9549 H   0  0  0  0  0  0  0  0  0  0  0  0
   60.7201   34.1288   49.5586 H   0  0  0  0  0  0  0  0  0  0  0  0
   61.5388   35.1397   48.2994 H   0  0  0  0  0  0  0  0  0  0  0  0
  1  2  1  0
  2  3  1  0
  3  4  1  0
  4  5  1  0
  5  6  1  0
  6  7  1  0
  7  8  2  0
  7  9  1  0
  9 10  1  0
 10 11  1  0
  9 12  1  0
 12 13  2  0
 13 14  1  0
 14 15  2  0
 15 16  1  0
 16 17  2  0
 17 18  1  0
 18 19  1  0
 19 20  1  0
 20 21  1  0
 21 22  1  0
 22 23  1  0
 17 12  1  0
 23 18  1  0
  1 24  1  0
  1 25  1  0
  1 26  1  0
  2 27  1  0
  2 28  1  0
  3 29  1  0
  3 30  1  0
  4 31  1  0
  5 32  1  0
  5 33  1  0
  6 34  1  0
  6 35  1  0
 10 36  1  0
 10 37  1  0
 11 38  1  0
 11 39  1  0
 11 40  1  0
 13 41  1  0
 14 42  1  0
 15 43  1  0
 16 44  1  0
 19 45  1  0
 19 46  1  0
 20 47  1  0
 20 48  1  0
 21 49  1  0
 21 50  1  0
 22 51  1  0
 22 52  1  0
 23 53  1  0
 23 54  1  0
M  CHG  1  16   1
M  END
>  <UniqueID>  (32) 
32

>  <SMILES>  (32) 
CCCNCCC(=O)N(CC)c1ccc[nH+]c1N1CCCCC1

>  <Energy>  (32) 
54.71166606924899

>  <Genealogy>  (32) 
CCCNCCC(=O)N(CC)c1ccc[nH+]c1N1CCCCC1 (protonated)
CCCNCCC(=O)N(CC)c1ccc[nH+]c1N1CCCCC1 (3D coordinates assigned)
CCCNCCC(=O)N(CC)c1ccc[nH+]c1N1CCCCC1 (nonaromatic ring conformer: 54.71166606924899 kcal/mol)

>  <smiles>  (32) 
CCCNCCC(=O)N(CC)c1cccnc1N1CCCCC1

>  <score_type>  (32) 
oracle

>  <origin>  (32) 
adg

>  <m_score__min__energy>  (32) 
-5.6799999999999997

>  <m_primary>  (32) 
energy

$$$$
32:0
     RDKit          3D

 47 49  0  0  0  0  0  0  0  0999 V2000
   63.7205   32.1611   48.3680 H   0  0  0  0  0  0  0  0  0  0  0  0
   62.8790   32.8000   48.0620 C   0  0  0  0  0  0  0  0  0  0  0  0
   62.8320   33.3150   46.7670 C   0  0  0  0  0  0  0  0  0  0  0  0
   63.6342   33.0784   46.0525 H   0  0  0  0  0  0  0  0  0  0  0  0
   61.7690   34.1300   46.3760 C   0  0  0  0  0  0  0  0  0  0  0  0
   61.7328   34.5263   45.3505 H   0  0  0  0  0  0  0  0  0  0  0  0
   60.7440   34.4480   47.2840 C   0  0  0  0  0  0  0  0  0  0  0  0
   59.6000   35.3320   46.8440 C   0  0  0  0  0  0  0  0  0  0  0  0
   59.1833   35.8455   47.7230 H   0  0  0  0  0  0  0  0  0  0  0  0
   59.9815   36.0631   46.1160 H   0  0  0  0  0  0  0  0  0  0  0  0
   58.5450   34.5440   46.2050 N   0  0  0  0  0  0  0  0  0  0  0  0
   58.4700   33.2440   46.1260 C   0  0  0  0  0  0  0  0  0  0  0  0
   58.2880   32.6600   44.8680 C   0  0  0  0  0  0  0  0  0  0  0  0
   58.1988   33.2939   43.9734 H   0  0  0  0  0  0  0  0  0  0  0  0
   58.2200   31.2720   44.7510 C   0  0  0  0  0  0  0  0  0  0  0  0
   58.0750   30.8106   43.7630 H   0  0  0  0  0  0  0  0  0  0  0  0
   58.3360   30.4650   45.8890 C   0  0  0  0  0  0  0  0  0  0  0  0
   58.2620   28.9870   45.7770 C   0  0  0  0  0  0  0  0  0  0  0  0
   59.4030   28.2160   46.0550 C   0  0  0  0  0  0  0  0  0  0  0  0
   60.3350   28.7126   46.3628 H   0  0  0  0  0  0  0  0  0  0  0  0
   59.3640   26.8260   45.9440 C   0  0  0  0  0  0  0  0  0  0  0  0
   60.2626   26.2336   46.1711 H   0  0  0  0  0  0  0  0  0  0  0  0
   58.1870   26.1810   45.5450 C   0  0  0  0  0  0  0  0  0  0  0  0
   58.1390   24.6830   45.4630 C   0  0  0  0  0  0  0  0  0  0  0  0
   58.1255   24.2604   46.4785 H   0  0  0  0  0  0  0  0  0  0  0  0
   57.2305   24.3741   44.9252 H   0  0  0  0  0  0  0  0  0  0  0  0
   59.0259   24.3166   44.9252 H   0  0  0  0  0  0  0  0  0  0  0  0
   57.0350   26.9390   45.2940 C   0  0  0  0  0  0  0  0  0  0  0  0
   56.1022   26.4326   45.0052 H   0  0  0  0  0  0  0  0  0  0  0  0
   57.0600   28.3440   45.4080 C   0  0  0  0  0  0  0  0  0  0  0  0
   55.9110   29.1220   45.1820 O   0  0  0  0  0  0  0  0  0  0  0  0
   55.5780   29.7350   43.9410 C   0  0  0  0  0  0  0  0  0  0  0  0
   55.0607   30.6873   44.1296 H   0  0  0  0  0  0  0  0  0  0  0  0
   56.4972   29.9244   43.3673 H   0  0  0  0  0  0  0  0  0  0  0  0
   54.9188   29.0670   43.3673 H   0  0  0  0  0  0  0  0  0  0  0  0
   58.5010   31.0850   47.1370 C   0  0  0  0  0  0  0  0  0  0  0  0
   58.5793   30.4697   48.0455 H   0  0  0  0  0  0  0  0  0  0  0  0
   58.5650   32.4420   47.2330 N   0  0  0  0  0  0  0  0  0  0  0  0
   58.6780   32.8450   48.1880 H   0  0  0  0  0  0  0  0  0  0  0  0
   60.7800   33.9150   48.5910 C   0  0  0  0  0  0  0  0  0  0  0  0
   59.7340   34.2190   49.4790 O   0  0  0  0  0  0  0  0  0  0  0  0
   59.5360   33.5900   50.7410 C   0  0  0  0  0  0  0  0  0  0  0  0
   59.7610   34.3048   51.5463 H   0  0  0  0  0  0  0  0  0  0  0  0
   58.4903   33.2593   50.8258 H   0  0  0  0  0  0  0  0  0  0  0  0
   60.2037   32.7200   50.8258 H   0  0  0  0  0  0  0  0  0  0  0  0
   61.8610   33.0930   48.9710 C   0  0  0  0  0  0  0  0  0  0  0  0
   61.9022   32.6803   49.9898 H   0  0  0  0  0  0  0  0  0  0  0  0
  1  2  1  0
  2  3  2  0
  3  4  1  0
  3  5  1  0
  5  6  1  0
  5  7  2  0
  7  8  1  0
  8  9  1  0
  8 10  1  0
  8 11  1  0
 11 12  2  0
 12 13  1  0
 13 14  1  0
 13 15  2  0
 15 16  1  0
 15 17  1  0
 17 18  1  0
 18 19  2  0
 19 20  1  0
 19 21  1  0
 21 22  1  0
 21 23  2  0
 23 24  1  0
 24 25  1  0
 24 26  1  0
 24 27  1  0
 23 28  1  0
 28 29  1  0
 28 30  2  0
 30 31  1  0
 31 32  1  0
 32 33  1  0
 32 34  1  0
 32 35  1  0
 17 36  2  0
 36 37  1  0
 36 38  1  0
 38 39  1  0
  7 40  1  0
 40 41  1  0
 41 42  1  0
 42 43  1  0
 42 44  1  0
 42 45  1  0
 40 46  2  0
 46 47  1  0
 46  2  1  0
 38 12  1  0
 30 18  1  0
M  END
>  <UniqueID>  (33) 
33

>  <SMILES>  (33) 
COc1ccccc1C/N=c1/ccc(-c2ccc(C)cc2OC)c[nH]1

>  <Energy>  (33) 
55.52789238656764

>  <Genealogy>  (33) 
COc1ccccc1C/N=c1/ccc(-c2ccc(C)cc2OC)c[nH]1 (cis-trans isomerization)
COc1ccccc1C/N=c1/ccc(-c2ccc(C)cc2OC)c[nH]1 (3D coordinates assigned)
COc1ccccc1C/N=c1/ccc(-c2ccc(C)cc2OC)c[nH]1 (optimized conformer: 55.52789238656764 kcal/mol)

>  <smiles>  (33) 
COc1ccccc1CN=c1ccc(-c2ccc(C)cc2OC)c[nH]1

>  <score_type>  (33) 
oracle

>  <origin>  (33) 
adg

>  <m_score__min__energy>  (33) 
-7.7599999999999998

>  <m_primary>  (33) 
energy

$$$$
33:0
     RDKit          3D

 45 46  0  0  0  0  0  0  0  0999 V2000
   55.1192   30.4594   44.0322 H   0  0  0  0  0  0  0  0  0  0  0  0
   55.8990   29.8390   44.4980 C   0  0  0  0  0  0  0  0  0  0  0  0
   55.5900   28.6130   44.9760 N   0  0  0  0  0  0  0  0  0  0  0  0
   56.5070   27.8220   45.5920 C   0  0  0  0  0  0  0  0  0  0  0  0
   56.0930   26.5720   46.0820 C   0  0  0  0  0  0  0  0  0  0  0  0
   54.7640   26.1700   45.8660 O   0  0  0  0  0  0  0  0  0  0  0  0
   54.3580   24.8300   45.6020 C   0  0  0  0  0  0  0  0  0  0  0  0
   54.1978   24.3013   46.5532 H   0  0  0  0  0  0  0  0  0  0  0  0
   53.4218   24.8375   45.0245 H   0  0  0  0  0  0  0  0  0  0  0  0
   55.1409   24.3167   45.0245 H   0  0  0  0  0  0  0  0  0  0  0  0
   57.0080   25.7670   46.7760 C   0  0  0  0  0  0  0  0  0  0  0  0
   56.7001   24.7763   47.1416 H   0  0  0  0  0  0  0  0  0  0  0  0
   58.3030   26.2180   47.0030 C   0  0  0  0  0  0  0  0  0  0  0  0
   59.0054   25.5919   47.5727 H   0  0  0  0  0  0  0  0  0  0  0  0
   58.7210   27.4560   46.5160 C   0  0  0  0  0  0  0  0  0  0  0  0
   59.7425   27.8044   46.7284 H   0  0  0  0  0  0  0  0  0  0  0  0
   57.8520   28.2710   45.7530 C   0  0  0  0  0  0  0  0  0  0  0  0
   58.2090   29.5390   45.1750 C   0  0  0  0  0  0  0  0  0  0  0  0
   59.4180   30.0260   45.0610 N   0  0  0  0  0  0  0  0  0  0  0  0
   60.5270   30.1510   46.0000 C   0  0  0  0  0  0  0  0  0  0  0  0
   61.4642   30.2941   45.4421 H   0  0  0  0  0  0  0  0  0  0  0  0
   60.5949   29.2365   46.6075 H   0  0  0  0  0  0  0  0  0  0  0  0
   60.2920   31.3560   46.9200 C   0  0  0  0  0  0  0  0  0  0  0  0
   61.2540   31.6513   47.3643 H   0  0  0  0  0  0  0  0  0  0  0  0
   59.5643   31.0497   47.6860 H   0  0  0  0  0  0  0  0  0  0  0  0
   59.7010   32.5670   46.1800 C   0  0  0  0  0  0  0  0  0  0  0  0
   59.1902   32.2200   45.2697 H   0  0  0  0  0  0  0  0  0  0  0  0
   60.5180   33.2560   45.9196 H   0  0  0  0  0  0  0  0  0  0  0  0
   58.7290   33.2830   47.0410 N   0  0  0  0  0  0  0  0  0  0  0  0
   57.4150   33.4830   46.3860 C   0  0  0  0  0  0  0  0  0  0  0  0
   56.8845   34.2914   46.9105 H   0  0  0  0  0  0  0  0  0  0  0  0
   56.8777   32.5248   46.4417 H   0  0  0  0  0  0  0  0  0  0  0  0
   57.5190   33.8550   44.9000 C   0  0  0  0  0  0  0  0  0  0  0  0
   57.8141   34.9105   44.8060 H   0  0  0  0  0  0  0  0  0  0  0  0
   58.2737   33.2187   44.4147 H   0  0  0  0  0  0  0  0  0  0  0  0
   56.5437   33.7023   44.4147 H   0  0  0  0  0  0  0  0  0  0  0  0
   59.2640   34.5290   47.6320 C   0  0  0  0  0  0  0  0  0  0  0  0
   59.9252   35.0184   46.9017 H   0  0  0  0  0  0  0  0  0  0  0  0
   58.4196   35.1857   47.8885 H   0  0  0  0  0  0  0  0  0  0  0  0
   60.0550   34.2360   48.9030 C   0  0  0  0  0  0  0  0  0  0  0  0
   59.4348   34.4657   49.7820 H   0  0  0  0  0  0  0  0  0  0  0  0
   60.3383   33.1733   48.9218 H   0  0  0  0  0  0  0  0  0  0  0  0
   60.9623   34.8577   48.9218 H   0  0  0  0  0  0  0  0  0  0  0  0
   57.1980   30.3160   44.5940 C   0  0  0  0  0  0  0  0  0  0  0  0
   57.4377   31.3180   44.2087 H   0  0  0  0  0  0  0  0  0  0  0  0
  1  2  1  0
  2  3  1  0
  3  4  1  0
  4  5  2  0
  5  6  1  0
  6  7  1  0
  7  8  1  0
  7  9  1  0
  7 10  1  0
  5 11  1  0
 11 12  1  0
 11 13  2  0
 13 14  1  0
 13 15  1  0
 15 16  1  0
 15 17  2  0
 17 18  1  0
 18 19  2  0
 19 20  1  0
 20 21  1  0
 20 22  1  0
 20 23  1  0
 23 24  1  0
 23 25  1  0
 23 26  1  0
 26 27  1  0
 26 28  1  0
 26 29  1  0
 29 30  1  0
 30 31  1  0
 30 32  1  0
 30 33  1  0
 33 34  1  0
 33 35  1  0
 33 36  1  0
 29 37  1  0
 37 38  1  0
 37 39  1  0
 37 40  1  0
 40 41  1  0
 40 42  1  0
 40 43  1  0
 18 44  1  0
 44 45  1  0
 44  2  2  0
 17  4  1  0
M  CHG  1   3  -1
M  END
>  <UniqueID>  (34) 
34

>  <SMILES>  (34) 
CCN(CC)CCC/N=c1/cc[n-]c2c(OC)cccc12

>  <Energy>  (34) 
59.41168857087503

>  <Genealogy>  (34) 
CCN(CC)CCCN=c1cc[n-]c2c(OC)cccc12 (protonated)
CCN(CC)CCC/N=c1/cc[n-]c2c(OC)cccc12 (cis-trans isomerization)
CCN(CC)CCC/N=c1/cc[n-]c2c(OC)cccc12 (3D coordinates assigned)
CCN(CC)CCC/N=c1/cc[n-]c2c(OC)cccc12 (optimized conformer: 59.41168857087503 kcal/mol)

>  <smiles>  (34) 
CCN(CC)CCCN=c1cc[nH]c2c(OC)cccc12

>  <score_type>  (34) 
oracle

>  <origin>  (34) 
adg

>  <m_score__min__energy>  (34) 
-8.9399999999999995

>  <m_primary>  (34) 
energy

$$$$
34:0
     RDKit          3D

 28 30  0  0  0  0  0  0  0  0999 V2000
   53.3620   25.0680   53.7710 C   0  0  0  0  0  0  0  0  0  0  0  0
   55.0150   24.8670   54.5060 S   0  0  0  0  0  0  0  0  0  0  0  0
   55.4170   26.6100   54.3690 C   0  0  0  0  0  0  0  0  0  0  0  0
   56.6000   27.1010   54.9290 C   0  0  0  0  0  0  0  0  0  0  0  0
   56.9140   28.4570   54.8210 C   0  0  0  0  0  0  0  0  0  0  0  0
   56.0440   29.3300   54.1620 C   0  0  0  0  0  0  0  0  0  0  0  0
   54.8400   28.8530   53.6060 C   0  0  0  0  0  0  0  0  0  0  0  0
   53.9040   29.7610   52.8940 C   0  0  0  0  0  0  0  0  0  0  0  0
   52.8840   30.4620   53.5840 C   0  0  0  0  0  0  0  0  0  0  0  0
   52.0520   31.2850   52.8310 C   0  0  0  0  0  0  0  0  0  0  0  0
   50.9860   32.0800   53.2000 C   0  0  0  0  0  0  0  0  0  0  0  0
   50.4750   32.7000   52.1070 N   0  0  0  0  0  0  0  0  0  0  0  0
   51.2280   32.2830   51.0630 C   0  0  0  0  0  0  0  0  0  0  0  0
   51.0210   32.6910   49.7520 O   0  0  0  0  0  0  0  0  0  0  0  0
   52.2040   31.4130   51.4840 C   0  0  0  0  0  0  0  0  0  0  0  0
   53.1960   30.7200   50.8060 C   0  0  0  0  0  0  0  0  0  0  0  0
   54.0200   29.9090   51.5320 N   0  0  0  0  0  0  0  0  0  0  0  0
   54.5410   27.4820   53.7110 C   0  0  0  0  0  0  0  0  0  0  0  0
   52.6133   25.1590   54.5717 H   0  0  0  0  0  0  0  0  0  0  0  0
   53.3453   25.9748   53.1485 H   0  0  0  0  0  0  0  0  0  0  0  0
   53.1285   24.1916   53.1485 H   0  0  0  0  0  0  0  0  0  0  0  0
   57.2838   26.4186   55.4550 H   0  0  0  0  0  0  0  0  0  0  0  0
   57.8491   28.8395   55.2560 H   0  0  0  0  0  0  0  0  0  0  0  0
   56.3006   30.3962   54.0767 H   0  0  0  0  0  0  0  0  0  0  0  0
   52.7550   30.3597   54.6716 H   0  0  0  0  0  0  0  0  0  0  0  0
   50.6074   32.1939   54.2265 H   0  0  0  0  0  0  0  0  0  0  0  0
   53.3151   30.8208   49.7171 H   0  0  0  0  0  0  0  0  0  0  0  0
   53.6108   27.0918   53.2723 H   0  0  0  0  0  0  0  0  0  0  0  0
  1  2  1  0
  2  3  1  0
  3  4  2  0
  4  5  1  0
  5  6  2  0
  6  7  1  0
  7  8  1  0
  8  9  2  0
  9 10  1  0
 10 11  2  0
 11 12  1  0
 12 13  1  0
 13 14  1  0
 13 15  2  0
 15 16  1  0
 16 17  2  0
  7 18  2  0
 18  3  1  0
 17  8  1  0
 15 10  1  0
  1 19  1  0
  1 20  1  0
  1 21  1  0
  4 22  1  0
  5 23  1  0
  6 24  1  0
  9 25  1  0
 11 26  1  0
 16 27  1  0
 18 28  1  0
M  CHG  2  12  -1  14  -1
M  END
>  <UniqueID>  (35) 
35

>  <SMILES>  (35) 
CSc1cccc(-c2cc3c[n-]c([O-])c3cn2)c1

>  <Energy>  (35) 
65.93912977101712

>  <Genealogy>  (35) 
CSc1cccc(-c2cc3c[n-]c([O-])c3cn2)c1 (protonated)
CSc1cccc(-c2cc3c[n-]c([O-])c3cn2)c1 (3D coordinates assigned)
CSc1cccc(-c2cc3c[n-]c([O-])c3cn2)c1 (optimized conformer: 65.93912977101712 kcal/mol)

>  <smiles>  (35) 
CSc1cccc(-c2cc3c[nH]c(O)c3cn2)c1

>  <score_type>  (35) 
oracle

>  <origin>  (35) 
adg

>  <m_score__min__energy>  (35) 
-12.91

>  <m_primary>  (35) 
energy

$$$$
35:0
     RDKit          3D

 24 25  0  0  0  0  0  0  0  0999 V2000
   63.1470   33.6630   47.4220 C   0  0  0  0  0  0  0  0  0  0  0  0
   61.8350   34.2110   47.5020 O   0  0  0  0  0  0  0  0  0  0  0  0
   60.7180   33.6910   46.8320 C   0  0  0  0  0  0  0  0  0  0  0  0
   59.7550   34.5160   46.2180 C   0  0  0  0  0  0  0  0  0  0  0  0
   58.6570   33.9540   45.5610 C   0  0  0  0  0  0  0  0  0  0  0  0
   58.5040   32.5610   45.5040 C   0  0  0  0  0  0  0  0  0  0  0  0
   57.4040   31.9890   44.8450 C   0  0  0  0  0  0  0  0  0  0  0  0
   57.2510   30.5920   44.7900 C   0  0  0  0  0  0  0  0  0  0  0  0
   56.1210   30.0100   44.1120 N   0  0  0  0  0  0  0  0  0  0  0  0
   56.0090   30.0970   42.8720 O   0  0  0  0  0  0  0  0  0  0  0  0
   55.1460   29.3470   44.8210 O   0  0  0  0  0  0  0  0  0  0  0  0
   58.2170   29.7730   45.4040 C   0  0  0  0  0  0  0  0  0  0  0  0
   59.3140   30.3350   46.0620 C   0  0  0  0  0  0  0  0  0  0  0  0
   59.4660   31.7270   46.1180 C   0  0  0  0  0  0  0  0  0  0  0  0
   60.5660   32.3000   46.7760 C   0  0  0  0  0  0  0  0  0  0  0  0
   63.5386   33.4995   48.4369 H   0  0  0  0  0  0  0  0  0  0  0  0
   63.1118   32.7044   46.8837 H   0  0  0  0  0  0  0  0  0  0  0  0
   63.8041   34.3619   46.8837 H   0  0  0  0  0  0  0  0  0  0  0  0
   59.8681   35.6095   46.2560 H   0  0  0  0  0  0  0  0  0  0  0  0
   57.9096   34.6069   45.0866 H   0  0  0  0  0  0  0  0  0  0  0  0
   56.6557   32.6389   44.3678 H   0  0  0  0  0  0  0  0  0  0  0  0
   58.1072   28.6792   45.3654 H   0  0  0  0  0  0  0  0  0  0  0  0
   60.0610   29.6825   46.5377 H   0  0  0  0  0  0  0  0  0  0  0  0
   61.3153   31.6503   47.2519 H   0  0  0  0  0  0  0  0  0  0  0  0
  1  2  1  0
  2  3  1  0
  3  4  2  0
  4  5  1  0
  5  6  2  0
  6  7  1  0
  7  8  2  0
  8  9  1  0
  9 10  2  0
  9 11  1  0
  8 12  1  0
 12 13  2  0
 13 14  1  0
 14 15  2  0
 15  3  1  0
 14  6  1  0
  1 16  1  0
  1 17  1  0
  1 18  1  0
  4 19  1  0
  5 20  1  0
  7 21  1  0
 12 22  1  0
 13 23  1  0
 15 24  1  0
M  CHG  2   9   1  11  -1
M  END
>  <UniqueID>  (36) 
36

>  <SMILES>  (36) 
COc1ccc2cc([N+](=O)[O-])ccc2c1

>  <Energy>  (36) 
28.26350168266781

>  <Genealogy>  (36) 
COc1ccc2cc([N+](=O)[O-])ccc2c1 (3D coordinates assigned)
COc1ccc2cc([N+](=O)[O-])ccc2c1 (optimized conformer: 28.26350168266781 kcal/mol)

>  <smiles>  (36) 
COc1ccc2cc([N+](=O)[O-])ccc2c1

>  <score_type>  (36) 
oracle

>  <origin>  (36) 
adg

>  <m_score__min__energy>  (36) 
-6.0599999999999996

>  <m_primary>  (36) 
energy

$$$$
36:0
     RDKit          3D

 49 51  0  0  0  0  0  0  0  0999 V2000
   60.7620   28.8780   45.2280 C   0  0  0  0  0  0  0  0  0  0  0  0
   59.4710   28.1420   45.4780 C   0  0  0  0  0  0  0  0  0  0  0  0
   59.4950   26.7360   45.4870 C   0  0  0  0  0  0  0  0  0  0  0  0
   58.3370   26.0040   45.7440 C   0  0  0  0  0  0  0  0  0  0  0  0
   57.1240   26.6590   45.9850 C   0  0  0  0  0  0  0  0  0  0  0  0
   55.9050   25.8730   46.2720 C   0  0  0  0  0  0  0  0  0  0  0  0
   54.7830   26.3600   45.9640 O   0  0  0  0  0  0  0  0  0  0  0  0
   55.9680   24.5760   46.8990 N   0  0  0  0  0  0  0  0  0  0  0  0
   54.8700   23.6290   46.6890 C   0  0  0  0  0  0  0  0  0  0  0  0
   57.0330   24.2660   47.8610 C   0  0  0  0  0  0  0  0  0  0  0  0
   57.0890   28.0600   45.9880 C   0  0  0  0  0  0  0  0  0  0  0  0
   58.2430   28.8180   45.7140 C   0  0  0  0  0  0  0  0  0  0  0  0
   58.1250   30.2990   45.6900 C   0  0  0  0  0  0  0  0  0  0  0  0
   57.1370   30.8910   44.9630 N   0  0  0  0  0  0  0  0  0  0  0  0
   57.0280   32.2420   44.8970 C   0  0  0  0  0  0  0  0  0  0  0  0
   57.9370   33.0490   45.5770 C   0  0  0  0  0  0  0  0  0  0  0  0
   58.9540   32.4360   46.3230 C   0  0  0  0  0  0  0  0  0  0  0  0
   59.9380   33.2140   47.0360 N   0  0  0  0  0  0  0  0  0  0  0  0
   59.6090   33.8940   48.2920 C   0  0  0  0  0  0  0  0  0  0  0  0
   60.5690   33.4670   49.4080 C   0  0  0  0  0  0  0  0  0  0  0  0
   61.8300   34.3570   49.4390 C   0  0  0  0  0  0  0  0  0  0  0  0
   62.6820   34.2550   48.3070 O   0  0  0  0  0  0  0  0  0  0  0  0
   62.3660   33.2280   47.3750 C   0  0  0  0  0  0  0  0  0  0  0  0
   61.2200   33.5230   46.3920 C   0  0  0  0  0  0  0  0  0  0  0  0
   59.0250   31.0780   46.3470 N   0  0  0  0  0  0  0  0  0  0  0  0
   61.2256   29.1423   46.1899 H   0  0  0  0  0  0  0  0  0  0  0  0
   61.4462   28.2342   44.6558 H   0  0  0  0  0  0  0  0  0  0  0  0
   60.5566   29.7947   44.6558 H   0  0  0  0  0  0  0  0  0  0  0  0
   60.4391   26.2074   45.2888 H   0  0  0  0  0  0  0  0  0  0  0  0
   58.3768   24.9048   45.7575 H   0  0  0  0  0  0  0  0  0  0  0  0
   54.4826   23.2949   47.6628 H   0  0  0  0  0  0  0  0  0  0  0  0
   54.0649   24.1207   46.1233 H   0  0  0  0  0  0  0  0  0  0  0  0
   55.2381   22.7604   46.1233 H   0  0  0  0  0  0  0  0  0  0  0  0
   56.6465   24.3785   48.8847 H   0  0  0  0  0  0  0  0  0  0  0  0
   57.3742   23.2313   47.7095 H   0  0  0  0  0  0  0  0  0  0  0  0
   57.8762   24.9560   47.7095 H   0  0  0  0  0  0  0  0  0  0  0  0
   56.1431   28.5764   46.2084 H   0  0  0  0  0  0  0  0  0  0  0  0
   56.2212   32.7001   44.3061 H   0  0  0  0  0  0  0  0  0  0  0  0
   57.8587   34.1452   45.5298 H   0  0  0  0  0  0  0  0  0  0  0  0
   59.6873   34.9813   48.1450 H   0  0  0  0  0  0  0  0  0  0  0  0
   58.5842   33.6206   48.5838 H   0  0  0  0  0  0  0  0  0  0  0  0
   60.0511   33.5466   50.3752 H   0  0  0  0  0  0  0  0  0  0  0  0
   60.8823   32.4301   49.2165 H   0  0  0  0  0  0  0  0  0  0  0  0
   61.5032   35.4039   49.5232 H   0  0  0  0  0  0  0  0  0  0  0  0
   62.4246   34.0061   50.2953 H   0  0  0  0  0  0  0  0  0  0  0  0
   63.2703   33.0241   46.7828 H   0  0  0  0  0  0  0  0  0  0  0  0
   62.0176   32.3800   47.9828 H   0  0  0  0  0  0  0  0  0  0  0  0
   61.2426   34.5858   46.1093 H   0  0  0  0  0  0  0  0  0  0  0  0
   61.3387   32.9038   45.4906 H   0  0  0  0  0  0  0  0  0  0  0  0
  1  2  1  0
  2  3  2  0
  3  4  1  0
  4  5  2  0
  5  6  1  0
  6  7  2  0
  6  8  1  0
  8  9  1  0
  8 10  1  0
  5 11  1  0
 11 12  2  0
 12 13  1  0
 13 14  2  0
 14 15  1  0
 15 16  2  0
 16 17  1  0
 17 18  1  0
 18 19  1  0
 19 20  1  0
 20 21  1  0
 21 22  1  0
 22 23  1  0
 23 24  1  0
 17 25  2  0
 12  2  1  0
 25 13  1  0
 24 18  1  0
  1 26  1  0
  1 27  1  0
  1 28  1  0
  3 29  1  0
  4 30  1  0
  9 31  1  0
  9 32  1  0
  9 33  1  0
 10 34  1  0
 10 35  1  0
 10 36  1  0
 11 37  1  0
 15 38  1  0
 16 39  1  0
 19 40  1  0
 19 41  1  0
 20 42  1  0
 20 43  1  0
 21 44  1  0
 21 45  1  0
 23 46  1  0
 23 47  1  0
 24 48  1  0
 24 49  1  0
M  END
>  <UniqueID>  (37) 
37

>  <SMILES>  (37) 
Cc1ccc(C(=O)N(C)C)cc1-c1nccc(N2CCCOCC2)n1

>  <Energy>  (37) 
74.06009945260459

>  <Genealogy>  (37) 
Cc1ccc(C(=O)N(C)C)cc1-c1nccc(N2CCCOCC2)n1 (3D coordinates assigned)
Cc1ccc(C(=O)N(C)C)cc1-c1nccc(N2CCCOCC2)n1 (nonaromatic ring conformer: 74.06009945260459 kcal/mol)

>  <smiles>  (37) 
Cc1ccc(C(=O)N(C)C)cc1-c1nccc(N2CCCOCC2)n1

>  <score_type>  (37) 
oracle

>  <origin>  (37) 
adg

>  <m_score__min__energy>  (37) 
-6.0899999999999999

>  <m_primary>  (37) 
energy

$$$$
37:0
     RDKit          3D

 53 56  0  0  0  0  0  0  0  0999 V2000
   59.3950   34.5870   47.8240 C   0  0  0  0  0  0  0  0  0  0  0  0
   59.6560   34.4120   46.3840 N   0  0  0  0  0  0  0  0  0  0  0  0
   60.3710   33.1500   46.0880 C   0  0  0  0  0  0  0  0  0  0  0  0
   61.0650   32.5210   47.3110 C   0  0  0  0  0  0  0  0  0  0  0  0
   60.1980   31.5090   47.9080 N   0  0  0  0  0  0  0  0  0  0  0  0
   59.8510   31.5060   49.1870 N   0  0  0  0  0  0  0  0  0  0  0  0
   59.1440   30.3790   49.4280 C   0  0  0  0  0  0  0  0  0  0  0  0
   58.6240   30.0350   50.7650 C   0  0  0  0  0  0  0  0  0  0  0  0
   59.3580   29.2670   51.6840 C   0  0  0  0  0  0  0  0  0  0  0  0
   58.8170   28.9710   52.8970 N   0  0  0  0  0  0  0  0  0  0  0  0
   57.5710   29.3970   53.2330 C   0  0  0  0  0  0  0  0  0  0  0  0
   56.8290   30.1420   52.3170 C   0  0  0  0  0  0  0  0  0  0  0  0
   57.3700   30.4390   51.1080 N   0  0  0  0  0  0  0  0  0  0  0  0
   59.0820   29.6330   48.2570 C   0  0  0  0  0  0  0  0  0  0  0  0
   59.7370   30.3860   47.3200 C   0  0  0  0  0  0  0  0  0  0  0  0
   60.0390   29.8970   45.9360 C   0  0  0  0  0  0  0  0  0  0  0  0
   59.2020   28.6370   45.6230 C   0  0  0  0  0  0  0  0  0  0  0  0
   59.1430   27.6780   46.7550 N   0  0  0  0  0  0  0  0  0  0  0  0
   60.4590   27.0830   47.0470 C   0  0  0  0  0  0  0  0  0  0  0  0
   58.5250   28.2680   47.9670 C   0  0  0  0  0  0  0  0  0  0  0  0
   58.4290   34.5780   45.5770 C   0  0  0  0  0  0  0  0  0  0  0  0
   58.0310   33.2630   44.9640 C   0  0  0  0  0  0  0  0  0  0  0  0
   58.2590   33.0200   43.6020 C   0  0  0  0  0  0  0  0  0  0  0  0
   57.8680   31.8070   43.0330 C   0  0  0  0  0  0  0  0  0  0  0  0
   57.2450   30.8480   43.8330 C   0  0  0  0  0  0  0  0  0  0  0  0
   57.0210   31.0990   45.1500 N   0  0  0  0  0  0  0  0  0  0  0  0
   57.3940   32.2730   45.7270 C   0  0  0  0  0  0  0  0  0  0  0  0
   60.1716   34.0662   48.4033 H   0  0  0  0  0  0  0  0  0  0  0  0
   59.4095   35.6587   48.0717 H   0  0  0  0  0  0  0  0  0  0  0  0
   58.4091   34.1667   48.0717 H   0  0  0  0  0  0  0  0  0  0  0  0
   59.6442   32.4254   45.6922 H   0  0  0  0  0  0  0  0  0  0  0  0
   61.1623   33.3949   45.3643 H   0  0  0  0  0  0  0  0  0  0  0  0
   62.0083   32.0523   46.9941 H   0  0  0  0  0  0  0  0  0  0  0  0
   61.2710   33.3056   48.0540 H   0  0  0  0  0  0  0  0  0  0  0  0
   60.3645   28.9069   51.4246 H   0  0  0  0  0  0  0  0  0  0  0  0
   59.3650   28.4000   53.5770 H   0  0  0  0  0  0  0  0  0  0  0  0
   57.1507   29.1559   54.2205 H   0  0  0  0  0  0  0  0  0  0  0  0
   55.8155   30.4855   52.5716 H   0  0  0  0  0  0  0  0  0  0  0  0
   59.7939   30.6861   45.2099 H   0  0  0  0  0  0  0  0  0  0  0  0
   61.1076   29.6449   45.8688 H   0  0  0  0  0  0  0  0  0  0  0  0
   58.1768   28.9506   45.3767 H   0  0  0  0  0  0  0  0  0  0  0  0
   59.6895   28.1212   44.7826 H   0  0  0  0  0  0  0  0  0  0  0  0
   60.5992   27.0196   48.1362 H   0  0  0  0  0  0  0  0  0  0  0  0
   60.5101   26.0742   46.6114 H   0  0  0  0  0  0  0  0  0  0  0  0
   61.2501   27.7110   46.6114 H   0  0  0  0  0  0  0  0  0  0  0  0
   57.4392   28.3502   47.8113 H   0  0  0  0  0  0  0  0  0  0  0  0
   58.7481   27.6140   48.8228 H   0  0  0  0  0  0  0  0  0  0  0  0
   57.6151   34.9395   46.2227 H   0  0  0  0  0  0  0  0  0  0  0  0
   58.6217   35.3054   44.7746 H   0  0  0  0  0  0  0  0  0  0  0  0
   58.7465   33.7862   42.9813 H   0  0  0  0  0  0  0  0  0  0  0  0
   58.0488   31.6091   41.9662 H   0  0  0  0  0  0  0  0  0  0  0  0
   56.9346   29.8870   43.3969 H   0  0  0  0  0  0  0  0  0  0  0  0
   57.1956   32.4466   46.7949 H   0  0  0  0  0  0  0  0  0  0  0  0
  1  2  1  0
  2  3  1  0
  3  4  1  0
  4  5  1  0
  5  6  1  0
  6  7  2  0
  7  8  1  0
  8  9  2  0
  9 10  1  0
 10 11  2  0
 11 12  1  0
 12 13  2  0
  7 14  1  0
 14 15  2  0
 15 16  1  0
 16 17  1  0
 17 18  1  0
 18 19  1  0
 18 20  1  0
  2 21  1  0
 21 22  1  0
 22 23  2  0
 23 24  1  0
 24 25  2  0
 25 26  1  0
 26 27  2  0
 15  5  1  0
 27 22  1  0
 13  8  1  0
 20 14  1  0
  1 28  1  0
  1 29  1  0
  1 30  1  0
  3 31  1  0
  3 32  1  0
  4 33  1  0
  4 34  1  0
  9 35  1  0
 10 36  1  0
 11 37  1  0
 12 38  1  0
 16 39  1  0
 16 40  1  0
 17 41  1  0
 17 42  1  0
 19 43  1  0
 19 44  1  0
 19 45  1  0
 20 46  1  0
 20 47  1  0
 21 48  1  0
 21 49  1  0
 23 50  1  0
 24 51  1  0
 25 52  1  0
 27 53  1  0
M  CHG  1  10   1
M  END
>  <UniqueID>  (38) 
38

>  <SMILES>  (38) 
CN(CCn1nc(-c2c[nH+]ccn2)c2c1CCN(C)C2)Cc1cccnc1

>  <Energy>  (38) 
98.44072420264735

>  <Genealogy>  (38) 
CN(CCn1nc(-c2c[nH+]ccn2)c2c1CCN(C)C2)Cc1cccnc1 (protonated)
CN(CCn1nc(-c2c[nH+]ccn2)c2c1CCN(C)C2)Cc1cccnc1 (3D coordinates assigned)
CN(CCn1nc(-c2c[nH+]ccn2)c2c1CCN(C)C2)Cc1cccnc1 (nonaromatic ring conformer: 98.44072420264735 kcal/mol)

>  <smiles>  (38) 
CN(CCn1nc(-c2cnccn2)c2c1CCN(C)C2)Cc1cccnc1

>  <score_type>  (38) 
oracle

>  <origin>  (38) 
adg

>  <m_score__min__energy>  (38) 
-6.7000000000000002

>  <m_primary>  (38) 
energy

$$$$
38:0
     RDKit          3D

 63 65  0  0  0  0  0  0  0  0999 V2000
   58.6230   34.5860   47.5030 C   0  0  0  0  0  0  0  0  0  0  0  0
   57.6570   33.5240   46.9540 C   0  0  0  0  0  0  0  0  0  0  0  0
   58.1790   32.7720   45.7830 N   0  0  0  0  0  0  0  0  0  0  0  0
   59.4830   33.3340   45.3390 C   0  0  0  0  0  0  0  0  0  0  0  0
   59.3330   34.6350   44.5470 C   0  0  0  0  0  0  0  0  0  0  0  0
   57.1720   32.7020   44.6820 C   0  0  0  0  0  0  0  0  0  0  0  0
   57.7630   32.1870   43.3430 C   0  0  0  0  0  0  0  0  0  0  0  0
   57.1180   30.8820   42.8320 C   0  0  0  0  0  0  0  0  0  0  0  0
   55.8920   30.4270   43.6420 C   0  0  0  0  0  0  0  0  0  0  0  0
   56.2660   29.6350   44.8710 C   0  0  0  0  0  0  0  0  0  0  0  0
   55.5260   28.6860   45.2430 O   0  0  0  0  0  0  0  0  0  0  0  0
   57.4470   29.9180   45.6310 N   0  0  0  0  0  0  0  0  0  0  0  0
   58.8010   29.4530   45.3390 C   0  0  0  0  0  0  0  0  0  0  0  0
   59.5310   29.0820   46.6340 C   0  0  0  0  0  0  0  0  0  0  0  0
   58.9090   29.7230   47.8880 C   0  0  0  0  0  0  0  0  0  0  0  0
   59.2510   31.1390   48.0000 N   0  0  0  0  0  0  0  0  0  0  0  0
   59.8010   31.9120   48.9100 C   0  0  0  0  0  0  0  0  0  0  0  0
   59.1860   32.3280   50.1470 C   0  0  0  0  0  0  0  0  0  0  0  0
   57.9680   31.8220   50.6680 C   0  0  0  0  0  0  0  0  0  0  0  0
   57.4190   32.3230   51.8510 C   0  0  0  0  0  0  0  0  0  0  0  0
   58.0750   33.3140   52.5690 C   0  0  0  0  0  0  0  0  0  0  0  0
   59.3030   33.7900   52.1230 C   0  0  0  0  0  0  0  0  0  0  0  0
   59.8670   33.2970   50.9410 C   0  0  0  0  0  0  0  0  0  0  0  0
   61.0870   33.7580   50.5790 N   0  0  0  0  0  0  0  0  0  0  0  0
   61.7160   33.3430   49.4590 C   0  0  0  0  0  0  0  0  0  0  0  0
   62.9790   33.8650   49.1540 C   0  0  0  0  0  0  0  0  0  0  0  0
   63.6390   33.4720   47.9910 C   0  0  0  0  0  0  0  0  0  0  0  0
   63.0410   32.5590   47.1240 C   0  0  0  0  0  0  0  0  0  0  0  0
   61.7800   32.0330   47.4180 C   0  0  0  0  0  0  0  0  0  0  0  0
   61.0940   32.4130   48.5970 C   0  0  0  0  0  0  0  0  0  0  0  0
   58.6042   34.5653   48.6026 H   0  0  0  0  0  0  0  0  0  0  0  0
   59.6425   34.3720   47.1496 H   0  0  0  0  0  0  0  0  0  0  0  0
   58.3137   35.5807   47.1496 H   0  0  0  0  0  0  0  0  0  0  0  0
   57.4422   32.8046   47.7580 H   0  0  0  0  0  0  0  0  0  0  0  0
   56.7600   34.0602   46.6107 H   0  0  0  0  0  0  0  0  0  0  0  0
   58.3640   31.8070   46.1430 H   0  0  0  0  0  0  0  0  0  0  0  0
   60.0999   33.5334   46.2276 H   0  0  0  0  0  0  0  0  0  0  0  0
   59.9511   32.5944   44.6727 H   0  0  0  0  0  0  0  0  0  0  0  0
   59.2356   35.4798   45.2447 H   0  0  0  0  0  0  0  0  0  0  0  0
   60.2200   34.7830   43.9135 H   0  0  0  0  0  0  0  0  0  0  0  0
   58.4356   34.5772   43.9135 H   0  0  0  0  0  0  0  0  0  0  0  0
   56.3633   32.0233   44.9909 H   0  0  0  0  0  0  0  0  0  0  0  0
   56.8091   33.7254   44.5062 H   0  0  0  0  0  0  0  0  0  0  0  0
   57.6193   32.9657   42.5795 H   0  0  0  0  0  0  0  0  0  0  0  0
   58.8244   31.9655   43.5284 H   0  0  0  0  0  0  0  0  0  0  0  0
   56.8045   31.0372   41.7891 H   0  0  0  0  0  0  0  0  0  0  0  0
   57.8767   30.0922   42.9352 H   0  0  0  0  0  0  0  0  0  0  0  0
   55.3275   31.3175   43.9557 H   0  0  0  0  0  0  0  0  0  0  0  0
   55.2914   29.7711   42.9946 H   0  0  0  0  0  0  0  0  0  0  0  0
   58.7475   28.5685   44.6873 H   0  0  0  0  0  0  0  0  0  0  0  0
   59.3543   30.2604   44.8371 H   0  0  0  0  0  0  0  0  0  0  0  0
   59.5025   27.9885   46.7500 H   0  0  0  0  0  0  0  0  0  0  0  0
   60.5595   29.4628   46.5491 H   0  0  0  0  0  0  0  0  0  0  0  0
   57.8148   29.6243   47.8329 H   0  0  0  0  0  0  0  0  0  0  0  0
   59.3088   29.2038   48.7715 H   0  0  0  0  0  0  0  0  0  0  0  0
   57.4445   31.0183   50.1295 H   0  0  0  0  0  0  0  0  0  0  0  0
   56.4592   31.9292   52.2166 H   0  0  0  0  0  0  0  0  0  0  0  0
   57.6252   33.7208   53.4867 H   0  0  0  0  0  0  0  0  0  0  0  0
   59.8345   34.5589   52.7029 H   0  0  0  0  0  0  0  0  0  0  0  0
   63.4521   34.5880   49.8348 H   0  0  0  0  0  0  0  0  0  0  0  0
   64.6324   33.8826   47.7572 H   0  0  0  0  0  0  0  0  0  0  0  0
   63.5630   32.2516   46.2058 H   0  0  0  0  0  0  0  0  0  0  0  0
   61.3151   31.3157   46.7257 H   0  0  0  0  0  0  0  0  0  0  0  0
  1  2  1  0
  2  3  1  0
  3  4  1  0
  4  5  1  0
  3  6  1  0
  6  7  1  0
  7  8  1  0
  8  9  1  0
  9 10  1  0
 10 11  2  0
 10 12  1  0
 12 13  1  0
 13 14  1  0
 14 15  1  0
 15 16  1  0
 16 17  2  3
 17 18  1  0
 18 19  2  0
 19 20  1  0
 20 21  2  0
 21 22  1  0
 22 23  2  0
 23 24  1  0
 24 25  1  0
 25 26  2  0
 26 27  1  0
 27 28  2  0
 28 29  1  0
 29 30  2  0
 30 17  1  0
 23 18  1  0
 30 25  1  0
  1 31  1  0
  1 32  1  0
  1 33  1  0
  2 34  1  0
  2 35  1  0
  3 36  1  0
  4 37  1  0
  4 38  1  0
  5 39  1  0
  5 40  1  0
  5 41  1  0
  6 42  1  0
  6 43  1  0
  7 44  1  0
  7 45  1  0
  8 46  1  0
  8 47  1  0
  9 48  1  0
  9 49  1  0
 13 50  1  0
 13 51  1  0
 14 52  1  0
 14 53  1  0
 15 54  1  0
 15 55  1  0
 19 56  1  0
 20 57  1  0
 21 58  1  0
 22 59  1  0
 26 60  1  0
 27 61  1  0
 28 62  1  0
 29 63  1  0
M  CHG  3   3   1  12  -1  24  -1
M  END
>  <UniqueID>  (39) 
39

>  <SMILES>  (39) 
CC[NH+](CC)CCCCC(=O)[N-]CCCN=c1c2ccccc2[n-]c2ccccc12

>  <Energy>  (39) 
83.49264365701619

>  <Genealogy>  (39) 
CC[NH+](CC)CCCCC(=O)[N-]CCCN=c1c2ccccc2[n-]c2ccccc12 (protonated)
CC[NH+](CC)CCCCC(=O)[N-]CCCN=c1c2ccccc2[n-]c2ccccc12 (3D coordinates assigned)
CC[NH+](CC)CCCCC(=O)[N-]CCCN=c1c2ccccc2[n-]c2ccccc12 (optimized conformer: 83.49264365701619 kcal/mol)

>  <smiles>  (39) 
CCN(CC)CCCCC(=O)NCCCN=c1c2ccccc2[nH]c2ccccc12

>  <score_type>  (39) 
oracle

>  <origin>  (39) 
adg

>  <m_score__min__energy>  (39) 
-8.1899999999999995

>  <m_primary>  (39) 
energy

$$$$
39:0
     RDKit          3D

 42 45  0  0  0  0  0  0  0  0999 V2000
   59.6650   29.8060   49.4310 C   0  0  0  0  0  0  0  0  0  0  0  0
   58.8270   30.9520   49.3340 O   0  0  0  0  0  0  0  0  0  0  0  0
   58.4840   31.7820   50.4140 C   0  0  0  0  0  0  0  0  0  0  0  0
   57.4270   31.4680   51.2910 C   0  0  0  0  0  0  0  0  0  0  0  0
   57.1140   32.3200   52.3530 C   0  0  0  0  0  0  0  0  0  0  0  0
   57.8440   33.4930   52.5510 C   0  0  0  0  0  0  0  0  0  0  0  0
   58.8940   33.8160   51.6880 C   0  0  0  0  0  0  0  0  0  0  0  0
   59.2300   32.9560   50.6330 C   0  0  0  0  0  0  0  0  0  0  0  0
   60.3150   33.3320   49.7110 C   0  0  0  0  0  0  0  0  0  0  0  0
   61.6110   33.2110   50.1010 N   0  0  0  0  0  0  0  0  0  0  0  0
   62.2930   33.4190   48.9680 C   0  0  0  0  0  0  0  0  0  0  0  0
   63.6660   33.3310   48.7750 C   0  0  0  0  0  0  0  0  0  0  0  0
   64.1420   33.4700   47.4610 C   0  0  0  0  0  0  0  0  0  0  0  0
   63.2270   33.6560   46.4020 C   0  0  0  0  0  0  0  0  0  0  0  0
   61.8830   33.7230   46.6480 N   0  0  0  0  0  0  0  0  0  0  0  0
   61.4380   33.6400   47.9340 C   0  0  0  0  0  0  0  0  0  0  0  0
   60.1610   33.6480   48.3810 N   0  0  0  0  0  0  0  0  0  0  0  0
   58.9250   33.8630   47.5810 C   0  0  0  0  0  0  0  0  0  0  0  0
   59.1090   34.7980   46.3810 C   0  0  0  0  0  0  0  0  0  0  0  0
   58.0700   34.3690   45.3670 C   0  0  0  0  0  0  0  0  0  0  0  0
   57.9830   32.8650   45.5160 C   0  0  0  0  0  0  0  0  0  0  0  0
   58.3950   32.5570   46.9530 C   0  0  0  0  0  0  0  0  0  0  0  0
   59.8392   29.5678   50.4907 H   0  0  0  0  0  0  0  0  0  0  0  0
   59.1768   28.9520   48.9387 H   0  0  0  0  0  0  0  0  0  0  0  0
   60.6268   30.0123   48.9387 H   0  0  0  0  0  0  0  0  0  0  0  0
   56.8451   30.5470   51.1387 H   0  0  0  0  0  0  0  0  0  0  0  0
   56.2896   32.0656   53.0353 H   0  0  0  0  0  0  0  0  0  0  0  0
   57.5926   34.1630   53.3864 H   0  0  0  0  0  0  0  0  0  0  0  0
   59.4589   34.7481   51.8367 H   0  0  0  0  0  0  0  0  0  0  0  0
   64.3525   33.1594   49.6172 H   0  0  0  0  0  0  0  0  0  0  0  0
   65.2225   33.4341   47.2579 H   0  0  0  0  0  0  0  0  0  0  0  0
   63.5979   33.7478   45.3705 H   0  0  0  0  0  0  0  0  0  0  0  0
   61.2300   33.7950   45.8420 H   0  0  0  0  0  0  0  0  0  0  0  0
   58.2358   34.2951   48.3215 H   0  0  0  0  0  0  0  0  0  0  0  0
   58.9445   35.8436   46.6803 H   0  0  0  0  0  0  0  0  0  0  0  0
   60.1277   34.7372   45.9703 H   0  0  0  0  0  0  0  0  0  0  0  0
   57.0988   34.8370   45.5855 H   0  0  0  0  0  0  0  0  0  0  0  0
   58.3389   34.6703   44.3438 H   0  0  0  0  0  0  0  0  0  0  0  0
   56.9541   32.5221   45.3321 H   0  0  0  0  0  0  0  0  0  0  0  0
   58.6335   32.3514   44.7928 H   0  0  0  0  0  0  0  0  0  0  0  0
   57.5264   32.1937   47.5218 H   0  0  0  0  0  0  0  0  0  0  0  0
   59.1717   31.7783   46.9719 H   0  0  0  0  0  0  0  0  0  0  0  0
  1  2  1  0
  2  3  1  0
  3  4  2  0
  4  5  1  0
  5  6  2  0
  6  7  1  0
  7  8  2  0
  8  9  1  0
  9 10  2  0
 10 11  1  0
 11 12  2  0
 12 13  1  0
 13 14  2  0
 14 15  1  0
 15 16  2  0
 16 17  1  0
 17 18  1  0
 18 19  1  0
 19 20  1  0
 20 21  1  0
 21 22  1  0
  8  3  1  0
 17  9  1  0
 22 18  1  0
 16 11  1  0
  1 23  1  0
  1 24  1  0
  1 25  1  0
  4 26  1  0
  5 27  1  0
  6 28  1  0
  7 29  1  0
 12 30  1  0
 13 31  1  0
 14 32  1  0
 15 33  1  0
 18 34  1  0
 19 35  1  0
 19 36  1  0
 20 37  1  0
 20 38  1  0
 21 39  1  0
 21 40  1  0
 22 41  1  0
 22 42  1  0
M  CHG  1  15   1
M  END
>  <UniqueID>  (40) 
40

>  <SMILES>  (40) 
COc1ccccc1-c1nc2ccc[nH+]c2n1C1CCCC1

>  <Energy>  (40) 
98.11923364603993

>  <Genealogy>  (40) 
COc1ccccc1-c1nc2ccc[nH+]c2n1C1CCCC1 (protonated)
COc1ccccc1-c1nc2ccc[nH+]c2n1C1CCCC1 (3D coordinates assigned)
COc1ccccc1-c1nc2ccc[nH+]c2n1C1CCCC1 (nonaromatic ring conformer: 98.11923364603993 kcal/mol)

>  <smiles>  (40) 
COc1ccccc1-c1nc2cccnc2n1C1CCCC1

>  <score_type>  (40) 
oracle

>  <origin>  (40) 
adg

>  <m_score__min__energy>  (40) 
-5.9100000000000001

>  <m_primary>  (40) 
energy

$$$$
40:0
     RDKit          3D

 37 38  0  0  0  0  0  0  0  0999 V2000
   58.5170   31.8090   49.7450 C   0  0  0  0  0  0  0  0  0  0  0  0
   59.6010   31.4060   50.0830 C   0  0  0  0  0  0  0  0  0  0  0  0
   60.9200   30.9160   50.4960 C   0  0  0  0  0  0  0  0  0  0  0  0
   61.5980   31.9200   51.3060 N   0  0  0  0  0  0  0  0  0  0  0  0
   62.3340   33.0210   50.7590 C   0  0  0  0  0  0  0  0  0  0  0  0
   62.9050   33.8310   51.5400 O   0  0  0  0  0  0  0  0  0  0  0  0
   62.4300   33.2210   49.2860 C   0  0  0  0  0  0  0  0  0  0  0  0
   63.5680   32.7790   48.5990 C   0  0  0  0  0  0  0  0  0  0  0  0
   63.6710   32.9470   47.2580 N   0  0  0  0  0  0  0  0  0  0  0  0
   62.6820   33.5440   46.5490 C   0  0  0  0  0  0  0  0  0  0  0  0
   61.5570   34.0000   47.1730 N   0  0  0  0  0  0  0  0  0  0  0  0
   60.4900   34.6140   46.3620 C   0  0  0  0  0  0  0  0  0  0  0  0
   59.4590   33.5830   45.9880 C   0  0  0  0  0  0  0  0  0  0  0  0
   59.6310   32.2380   46.3520 C   0  0  0  0  0  0  0  0  0  0  0  0
   58.6870   31.2790   45.9730 C   0  0  0  0  0  0  0  0  0  0  0  0
   57.5650   31.6430   45.2210 C   0  0  0  0  0  0  0  0  0  0  0  0
   56.6470   30.6430   44.8660 O   0  0  0  0  0  0  0  0  0  0  0  0
   56.5800   30.0340   43.5810 C   0  0  0  0  0  0  0  0  0  0  0  0
   57.3960   32.9910   44.8480 C   0  0  0  0  0  0  0  0  0  0  0  0
   58.3380   33.9500   45.2270 C   0  0  0  0  0  0  0  0  0  0  0  0
   61.4110   33.8410   48.5290 C   0  0  0  0  0  0  0  0  0  0  0  0
   60.3620   34.2510   49.0980 O   0  0  0  0  0  0  0  0  0  0  0  0
   57.5273   32.1769   49.4364 H   0  0  0  0  0  0  0  0  0  0  0  0
   60.7976   29.9954   51.0855 H   0  0  0  0  0  0  0  0  0  0  0  0
   61.5235   30.7100   49.5997 H   0  0  0  0  0  0  0  0  0  0  0  0
   64.3844   32.2917   49.1522 H   0  0  0  0  0  0  0  0  0  0  0  0
   64.5250   32.6060   46.7620 H   0  0  0  0  0  0  0  0  0  0  0  0
   62.7870   33.6621   45.4604 H   0  0  0  0  0  0  0  0  0  0  0  0
   60.0084   35.4148   46.9423 H   0  0  0  0  0  0  0  0  0  0  0  0
   60.9319   35.0276   45.4435 H   0  0  0  0  0  0  0  0  0  0  0  0
   60.5122   31.9375   46.9378 H   0  0  0  0  0  0  0  0  0  0  0  0
   58.8278   30.2289   46.2687 H   0  0  0  0  0  0  0  0  0  0  0  0
   56.4604   28.9466   43.6964 H   0  0  0  0  0  0  0  0  0  0  0  0
   55.7212   30.4406   43.0269 H   0  0  0  0  0  0  0  0  0  0  0  0
   57.5067   30.2442   43.0269 H   0  0  0  0  0  0  0  0  0  0  0  0
   56.5184   33.2895   44.2558 H   0  0  0  0  0  0  0  0  0  0  0  0
   58.2006   34.9994   44.9273 H   0  0  0  0  0  0  0  0  0  0  0  0
  1  2  3  0
  2  3  1  0
  3  4  1  0
  4  5  1  0
  5  6  2  0
  5  7  1  0
  7  8  2  0
  8  9  1  0
  9 10  2  0
 10 11  1  0
 11 12  1  0
 12 13  1  0
 13 14  2  0
 14 15  1  0
 15 16  2  0
 16 17  1  0
 17 18  1  0
 16 19  1  0
 19 20  2  0
 11 21  1  0
 21 22  2  0
 21  7  1  0
 20 13  1  0
  1 23  1  0
  3 24  1  0
  3 25  1  0
  8 26  1  0
  9 27  1  0
 10 28  1  0
 12 29  1  0
 12 30  1  0
 14 31  1  0
 15 32  1  0
 18 33  1  0
 18 34  1  0
 18 35  1  0
 19 36  1  0
 20 37  1  0
M  CHG  2   4  -1   9   1
M  END
>  <UniqueID>  (41) 
41

>  <SMILES>  (41) 
C#CC[N-]C(=O)c1c[nH+]cn(Cc2ccc(OC)cc2)c1=O

>  <Energy>  (41) 
36.16169748846186

>  <Genealogy>  (41) 
C#CC[N-]C(=O)c1c[nH+]cn(Cc2ccc(OC)cc2)c1=O (protonated)
C#CC[N-]C(=O)c1c[nH+]cn(Cc2ccc(OC)cc2)c1=O (3D coordinates assigned)
C#CC[N-]C(=O)c1c[nH+]cn(Cc2ccc(OC)cc2)c1=O (optimized conformer: 36.16169748846186 kcal/mol)

>  <smiles>  (41) 
C#CCNC(=O)c1cncn(Cc2ccc(OC)cc2)c1=O

>  <score_type>  (41) 
oracle

>  <origin>  (41) 
adg

>  <m_score__min__energy>  (41) 
-7.5899999999999999

>  <m_primary>  (41) 
energy

$$$$
41:0
     RDKit          3D

 48 50  0  0  0  0  0  0  0  0999 V2000
   56.5470   30.5370   44.0850 C   0  0  0  0  0  0  0  0  0  0  0  0
   57.2700   30.9340   45.2450 O   0  0  0  0  0  0  0  0  0  0  0  0
   57.9220   32.1690   45.3930 C   0  0  0  0  0  0  0  0  0  0  0  0
   57.4970   33.3210   44.7040 C   0  0  0  0  0  0  0  0  0  0  0  0
   58.1550   34.5360   44.8880 C   0  0  0  0  0  0  0  0  0  0  0  0
   59.2540   34.6180   45.7430 C   0  0  0  0  0  0  0  0  0  0  0  0
   59.7100   33.4810   46.4270 C   0  0  0  0  0  0  0  0  0  0  0  0
   60.9280   33.5900   47.2620 C   0  0  0  0  0  0  0  0  0  0  0  0
   60.8220   33.8080   48.6450 C   0  0  0  0  0  0  0  0  0  0  0  0
   61.9710   33.8840   49.4370 C   0  0  0  0  0  0  0  0  0  0  0  0
   63.2350   33.7550   48.8520 C   0  0  0  0  0  0  0  0  0  0  0  0
   64.3490   33.8270   49.6220 F   0  0  0  0  0  0  0  0  0  0  0  0
   63.3500   33.5560   47.4740 C   0  0  0  0  0  0  0  0  0  0  0  0
   62.2020   33.4770   46.6790 C   0  0  0  0  0  0  0  0  0  0  0  0
   59.0220   32.2510   46.2690 C   0  0  0  0  0  0  0  0  0  0  0  0
   59.4170   31.0820   47.0080 N   0  0  0  0  0  0  0  0  0  0  0  0
   60.6970   30.4230   46.7550 C   0  0  0  0  0  0  0  0  0  0  0  0
   60.5450   29.3780   45.6370 C   0  0  0  0  0  0  0  0  0  0  0  0
   59.1410   28.9290   45.4700 N   0  0  0  0  0  0  0  0  0  0  0  0
   58.9630   28.1690   44.2050 C   0  0  0  0  0  0  0  0  0  0  0  0
   57.7840   27.1870   44.3050 C   0  0  0  0  0  0  0  0  0  0  0  0
   57.9470   26.2030   45.3190 O   0  0  0  0  0  0  0  0  0  0  0  0
   58.7550   26.6350   46.4050 C   0  0  0  0  0  0  0  0  0  0  0  0
   58.6900   28.1530   46.6560 C   0  0  0  0  0  0  0  0  0  0  0  0
   55.6199   30.0279   44.3872 H   0  0  0  0  0  0  0  0  0  0  0  0
   56.2989   31.4254   43.4857 H   0  0  0  0  0  0  0  0  0  0  0  0
   57.1635   29.8509   43.4857 H   0  0  0  0  0  0  0  0  0  0  0  0
   56.6405   33.2618   44.0163 H   0  0  0  0  0  0  0  0  0  0  0  0
   57.8061   35.4338   44.3568 H   0  0  0  0  0  0  0  0  0  0  0  0
   59.7669   35.5811   45.8820 H   0  0  0  0  0  0  0  0  0  0  0  0
   59.8301   33.9195   49.1072 H   0  0  0  0  0  0  0  0  0  0  0  0
   61.8813   34.0454   50.5214 H   0  0  0  0  0  0  0  0  0  0  0  0
   64.3446   33.4613   47.0137 H   0  0  0  0  0  0  0  0  0  0  0  0
   62.2965   33.3259   45.5935 H   0  0  0  0  0  0  0  0  0  0  0  0
   58.9830   30.9280   47.9460 H   0  0  0  0  0  0  0  0  0  0  0  0
   61.4391   31.1756   46.4503 H   0  0  0  0  0  0  0  0  0  0  0  0
   61.0289   29.9188   47.6746 H   0  0  0  0  0  0  0  0  0  0  0  0
   60.8894   29.8205   44.6906 H   0  0  0  0  0  0  0  0  0  0  0  0
   61.1472   28.5002   45.9141 H   0  0  0  0  0  0  0  0  0  0  0  0
   58.5390   29.7860   45.4200 H   0  0  0  0  0  0  0  0  0  0  0  0
   58.7711   28.8771   43.3854 H   0  0  0  0  0  0  0  0  0  0  0  0
   59.8801   27.5924   44.0141 H   0  0  0  0  0  0  0  0  0  0  0  0
   56.8708   27.7609   44.5209 H   0  0  0  0  0  0  0  0  0  0  0  0
   57.7258   26.6539   43.3446 H   0  0  0  0  0  0  0  0  0  0  0  0
   58.4194   26.1172   47.3157 H   0  0  0  0  0  0  0  0  0  0  0  0
   59.7971   26.3949   46.1473 H   0  0  0  0  0  0  0  0  0  0  0  0
   57.6517   28.4311   46.8896 H   0  0  0  0  0  0  0  0  0  0  0  0
   59.3611   28.3898   47.4948 H   0  0  0  0  0  0  0  0  0  0  0  0
  1  2  1  0
  2  3  1  0
  3  4  2  0
  4  5  1  0
  5  6  2  0
  6  7  1  0
  7  8  1  0
  8  9  2  0
  9 10  1  0
 10 11  2  0
 11 12  1  0
 11 13  1  0
 13 14  2  0
  7 15  2  0
 15 16  1  0
 16 17  1  0
 17 18  1  0
 18 19  1  0
 19 20  1  0
 20 21  1  0
 21 22  1  0
 22 23  1  0
 23 24  1  0
 15  3  1  0
 24 19  1  0
 14  8  1  0
  1 25  1  0
  1 26  1  0
  1 27  1  0
  4 28  1  0
  5 29  1  0
  6 30  1  0
  9 31  1  0
 10 32  1  0
 13 33  1  0
 14 34  1  0
 16 35  1  0
 17 36  1  0
 17 37  1  0
 18 38  1  0
 18 39  1  0
 19 40  1  0
 20 41  1  0
 20 42  1  0
 21 43  1  0
 21 44  1  0
 23 45  1  0
 23 46  1  0
 24 47  1  0
 24 48  1  0
M  CHG  1  19   1
M  END
>  <UniqueID>  (42) 
42

>  <SMILES>  (42) 
COc1cccc(-c2ccc(F)cc2)c1NCC[NH+]1CCOCC1

>  <Energy>  (42) 
71.64878139635967

>  <Genealogy>  (42) 
COc1cccc(-c2ccc(F)cc2)c1NCC[NH+]1CCOCC1 (protonated)
COc1cccc(-c2ccc(F)cc2)c1NCC[NH+]1CCOCC1 (3D coordinates assigned)
COc1cccc(-c2ccc(F)cc2)c1NCC[NH+]1CCOCC1 (nonaromatic ring conformer: 71.64878139635967 kcal/mol)

>  <smiles>  (42) 
COc1cccc(-c2ccc(F)cc2)c1NCCN1CCOCC1

>  <score_type>  (42) 
oracle

>  <origin>  (42) 
adg

>  <m_score__min__energy>  (42) 
-5.21

>  <m_primary>  (42) 
energy

$$$$
42:0
     RDKit          3D

 27 29  0  0  0  0  0  0  0  0999 V2000
   59.9580   33.8430   50.8360 C   0  0  0  0  0  0  0  0  0  0  0  0
   59.5410   33.4370   49.4530 C   0  0  0  0  0  0  0  0  0  0  0  0
   58.9790   32.1740   49.2290 C   0  0  0  0  0  0  0  0  0  0  0  0
   58.5540   31.8080   47.9480 C   0  0  0  0  0  0  0  0  0  0  0  0
   58.6810   32.7020   46.8680 C   0  0  0  0  0  0  0  0  0  0  0  0
   58.2190   32.2980   45.5150 C   0  0  0  0  0  0  0  0  0  0  0  0
   58.4900   33.0870   44.3650 C   0  0  0  0  0  0  0  0  0  0  0  0
   58.0410   32.6700   43.1000 C   0  0  0  0  0  0  0  0  0  0  0  0
   57.3430   31.4740   43.0430 C   0  0  0  0  0  0  0  0  0  0  0  0
   56.8230   30.8700   41.9570 N   0  0  0  0  0  0  0  0  0  0  0  0
   56.2620   29.7530   42.4150 N   0  0  0  0  0  0  0  0  0  0  0  0
   56.4430   29.6850   43.7540 C   0  0  0  0  0  0  0  0  0  0  0  0
   57.1230   30.7660   44.1510 N   0  0  0  0  0  0  0  0  0  0  0  0
   57.5310   31.1250   45.3650 N   0  0  0  0  0  0  0  0  0  0  0  0
   59.2210   33.9810   47.1080 C   0  0  0  0  0  0  0  0  0  0  0  0
   59.6430   34.3450   48.3900 C   0  0  0  0  0  0  0  0  0  0  0  0
   59.3750   33.2754   51.5762 H   0  0  0  0  0  0  0  0  0  0  0  0
   61.0289   33.6321   50.9728 H   0  0  0  0  0  0  0  0  0  0  0  0
   59.7758   34.9191   50.9728 H   0  0  0  0  0  0  0  0  0  0  0  0
   58.8714   31.4666   50.0645 H   0  0  0  0  0  0  0  0  0  0  0  0
   58.1164   30.8124   47.7827 H   0  0  0  0  0  0  0  0  0  0  0  0
   59.0528   34.0269   44.4649 H   0  0  0  0  0  0  0  0  0  0  0  0
   58.2349   33.2660   42.1960 H   0  0  0  0  0  0  0  0  0  0  0  0
   55.7670   29.0520   41.8220 H   0  0  0  0  0  0  0  0  0  0  0  0
   56.0893   28.8745   44.4081 H   0  0  0  0  0  0  0  0  0  0  0  0
   59.3113   34.6991   46.2797 H   0  0  0  0  0  0  0  0  0  0  0  0
   60.0571   35.3488   48.5655 H   0  0  0  0  0  0  0  0  0  0  0  0
  1  2  1  0
  2  3  2  0
  3  4  1  0
  4  5  2  0
  5  6  1  0
  6  7  1  0
  7  8  2  0
  8  9  1  0
  9 10  2  0
 10 11  1  0
 11 12  2  0
 12 13  1  0
 13 14  1  0
  5 15  1  0
 15 16  2  0
 16  2  1  0
 14  6  2  0
 13  9  1  0
  1 17  1  0
  1 18  1  0
  1 19  1  0
  3 20  1  0
  4 21  1  0
  7 22  1  0
  8 23  1  0
 11 24  1  0
 12 25  1  0
 15 26  1  0
 16 27  1  0
M  CHG  1  11   1
M  END
>  <UniqueID>  (43) 
43

>  <SMILES>  (43) 
Cc1ccc(-c2ccc3n[nH+]cn3n2)cc1

>  <Energy>  (43) 
76.06608798378967

>  <Genealogy>  (43) 
Cc1ccc(-c2ccc3n[nH+]cn3n2)cc1 (protonated)
Cc1ccc(-c2ccc3n[nH+]cn3n2)cc1 (3D coordinates assigned)
Cc1ccc(-c2ccc3n[nH+]cn3n2)cc1 (optimized conformer: 76.06608798378967 kcal/mol)

>  <smiles>  (43) 
Cc1ccc(-c2ccc3nncn3n2)cc1

>  <score_type>  (43) 
oracle

>  <origin>  (43) 
adg

>  <m_score__min__energy>  (43) 
-5.46

>  <m_primary>  (43) 
energy

$$$$
43:0
     RDKit          3D

 53 57  0  0  0  0  0  0  0  0999 V2000
   56.4280   24.8460   45.2190 C   0  0  0  0  0  0  0  0  0  0  0  0
   56.8310   25.5450   46.3920 O   0  0  0  0  0  0  0  0  0  0  0  0
   57.9770   26.3500   46.4800 C   0  0  0  0  0  0  0  0  0  0  0  0
   59.2620   25.8740   46.1520 C   0  0  0  0  0  0  0  0  0  0  0  0
   60.3730   26.7140   46.2650 C   0  0  0  0  0  0  0  0  0  0  0  0
   60.2150   28.0330   46.6960 C   0  0  0  0  0  0  0  0  0  0  0  0
   58.9380   28.5270   47.0010 C   0  0  0  0  0  0  0  0  0  0  0  0
   58.7690   29.8720   47.4740 N   0  0  0  0  0  0  0  0  0  0  0  0
   59.0420   30.2100   48.7260 N   0  0  0  0  0  0  0  0  0  0  0  0
   58.9680   31.5510   48.8300 C   0  0  0  0  0  0  0  0  0  0  0  0
   59.1780   32.2790   50.1030 C   0  0  0  0  0  0  0  0  0  0  0  0
   58.1760   32.7000   50.7450 O   0  0  0  0  0  0  0  0  0  0  0  0
   60.5160   32.4380   50.6440 N   0  0  0  0  0  0  0  0  0  0  0  0
   60.9690   33.8380   50.5100 C   0  0  0  0  0  0  0  0  0  0  0  0
   61.3170   34.1990   49.0440 C   0  0  0  0  0  0  0  0  0  0  0  0
   61.4720   33.0670   48.2070 O   0  0  0  0  0  0  0  0  0  0  0  0
   62.2530   32.0880   48.8550 C   0  0  0  0  0  0  0  0  0  0  0  0
   61.4920   31.4870   50.0530 C   0  0  0  0  0  0  0  0  0  0  0  0
   58.6620   32.0870   47.5870 C   0  0  0  0  0  0  0  0  0  0  0  0
   58.4930   30.9910   46.7570 C   0  0  0  0  0  0  0  0  0  0  0  0
   58.0380   31.0790   45.3380 C   0  0  0  0  0  0  0  0  0  0  0  0
   57.3710   30.0110   44.7050 C   0  0  0  0  0  0  0  0  0  0  0  0
   56.9630   30.1190   43.3730 C   0  0  0  0  0  0  0  0  0  0  0  0
   57.1820   31.3010   42.6660 C   0  0  0  0  0  0  0  0  0  0  0  0
   57.7840   32.3900   43.2970 C   0  0  0  0  0  0  0  0  0  0  0  0
   58.1910   32.2930   44.6340 C   0  0  0  0  0  0  0  0  0  0  0  0
   58.8480   33.7060   45.4520 S   0  0  0  0  0  0  0  0  0  0  0  0
   60.3310   33.7850   45.2220 O   0  0  0  0  0  0  0  0  0  0  0  0
   58.1880   34.9590   44.9490 O   0  0  0  0  0  0  0  0  0  0  0  0
   58.5070   33.5260   47.1940 C   0  0  0  0  0  0  0  0  0  0  0  0
   57.8290   27.6740   46.9110 C   0  0  0  0  0  0  0  0  0  0  0  0
   55.8974   23.9257   45.5047 H   0  0  0  0  0  0  0  0  0  0  0  0
   55.7595   25.4847   44.6230 H   0  0  0  0  0  0  0  0  0  0  0  0
   57.3157   24.5875   44.6230 H   0  0  0  0  0  0  0  0  0  0  0  0
   59.3910   24.8379   45.8059 H   0  0  0  0  0  0  0  0  0  0  0  0
   61.3747   26.3353   46.0138 H   0  0  0  0  0  0  0  0  0  0  0  0
   61.0943   28.6863   46.7966 H   0  0  0  0  0  0  0  0  0  0  0  0
   60.4710   32.2220   51.6700 H   0  0  0  0  0  0  0  0  0  0  0  0
   60.1673   34.5054   50.8591 H   0  0  0  0  0  0  0  0  0  0  0  0
   61.8799   33.9591   51.1146 H   0  0  0  0  0  0  0  0  0  0  0  0
   60.5087   34.8248   48.6378 H   0  0  0  0  0  0  0  0  0  0  0  0
   62.2827   34.7254   49.0599 H   0  0  0  0  0  0  0  0  0  0  0  0
   62.4923   31.2864   48.1407 H   0  0  0  0  0  0  0  0  0  0  0  0
   63.1758   32.5597   49.2237 H   0  0  0  0  0  0  0  0  0  0  0  0
   60.9505   30.5918   49.7133 H   0  0  0  0  0  0  0  0  0  0  0  0
   62.2318   31.2428   50.8295 H   0  0  0  0  0  0  0  0  0  0  0  0
   57.1700   29.0851   45.2639 H   0  0  0  0  0  0  0  0  0  0  0  0
   56.4676   29.2692   42.8806 H   0  0  0  0  0  0  0  0  0  0  0  0
   56.8801   31.3747   41.6108 H   0  0  0  0  0  0  0  0  0  0  0  0
   57.9395   33.3275   42.7431 H   0  0  0  0  0  0  0  0  0  0  0  0
   59.2122   34.1419   47.7714 H   0  0  0  0  0  0  0  0  0  0  0  0
   57.4781   33.8545   47.4024 H   0  0  0  0  0  0  0  0  0  0  0  0
   56.8311   28.0492   47.1821 H   0  0  0  0  0  0  0  0  0  0  0  0
  1  2  1  0
  2  3  1  0
  3  4  2  0
  4  5  1  0
  5  6  2  0
  6  7  1  0
  7  8  1  0
  8  9  1  0
  9 10  2  0
 10 11  1  0
 11 12  2  0
 11 13  1  0
 13 14  1  0
 14 15  1  0
 15 16  1  0
 16 17  1  0
 17 18  1  0
 10 19  1  0
 19 20  2  0
 20 21  1  0
 21 22  2  0
 22 23  1  0
 23 24  2  0
 24 25  1  0
 25 26  2  0
 26 27  1  0
 27 28  2  0
 27 29  2  0
 27 30  1  0
  7 31  2  0
 31  3  1  0
 20  8  1  0
 26 21  1  0
 18 13  1  0
 30 19  1  0
  1 32  1  0
  1 33  1  0
  1 34  1  0
  4 35  1  0
  5 36  1  0
  6 37  1  0
 13 38  1  0
 14 39  1  0
 14 40  1  0
 15 41  1  0
 15 42  1  0
 17 43  1  0
 17 44  1  0
 18 45  1  0
 18 46  1  0
 22 47  1  0
 23 48  1  0
 24 49  1  0
 25 50  1  0
 30 51  1  0
 30 52  1  0
 31 53  1  0
M  CHG  1  13   1
M  END
>  <UniqueID>  (44) 
44

>  <SMILES>  (44) 
COc1cccc(-n2nc(C(=O)[NH+]3CCOCC3)c3c2-c2ccccc2S(=O)(=O)C3)c1

>  <Energy>  (44) 
113.61916873683235

>  <Genealogy>  (44) 
COc1cccc(-n2nc(C(=O)[NH+]3CCOCC3)c3c2-c2ccccc2S(=O)(=O)C3)c1 (protonated)
COc1cccc(-n2nc(C(=O)[NH+]3CCOCC3)c3c2-c2ccccc2S(=O)(=O)C3)c1 (3D coordinates assigned)
COc1cccc(-n2nc(C(=O)[NH+]3CCOCC3)c3c2-c2ccccc2S(=O)(=O)C3)c1 (nonaromatic ring conformer: 113.61916873683235 kcal/mol)

>  <smiles>  (44) 
COc1cccc(-n2nc(C(=O)N3CCOCC3)c3c2-c2ccccc2S(=O)(=O)C3)c1

>  <score_type>  (44) 
oracle

>  <origin>  (44) 
adg

>  <m_score__min__energy>  (44) 
-7.7000000000000002

>  <m_primary>  (44) 
energy

$$$$
44:0
     RDKit          3D

 46 47  0  0  1  0  0  0  0  0999 V2000
   62.2130   31.0390   49.3140 O   0  0  0  0  0  0  0  0  0  0  0  0
   61.8480   31.4020   47.8740 S   0  0  0  0  0  0  0  0  0  0  0  0
   63.1400   31.2130   47.1050 O   0  0  0  0  0  0  0  0  0  0  0  0
   60.6290   30.3130   47.2690 C   0  0  0  0  0  0  0  0  0  0  0  0
   60.8060   29.7700   46.0100 C   0  0  0  0  0  0  0  0  0  0  0  0
   59.9140   28.9010   45.4220 C   0  0  0  0  0  0  0  0  0  0  0  0
   58.7860   28.5500   46.1170 C   0  0  0  0  0  0  0  0  0  0  0  0
   58.5680   29.0730   47.3860 C   0  0  0  0  0  0  0  0  0  0  0  0
   59.4980   29.9540   47.9520 C   0  0  0  0  0  0  0  0  0  0  0  0
   59.1820   30.6520   49.6800 Br  0  0  0  0  0  0  0  0  0  0  0  0
   61.4280   33.0300   47.8560 N   0  0  0  0  0  0  0  0  0  0  0  0
   61.5930   33.6550   46.6210 C   0  0  0  0  0  0  0  0  0  0  0  0
   60.2770   34.0210   45.9710 C   0  0  0  0  0  0  0  0  0  0  0  0
   59.2720   34.1940   46.9210 N   0  0  0  0  0  0  0  0  0  0  0  0
   57.9270   33.9290   46.5940 C   0  0  0  0  0  0  0  0  0  0  0  0
   57.8640   32.4960   46.0310 C   0  0  0  0  0  0  0  0  0  0  0  0
   57.0490   32.4340   44.7890 C   0  0  0  0  0  0  0  0  0  0  0  0
   57.6140   31.4060   43.8480 C   0  0  0  0  0  0  0  0  0  0  0  0
   56.8850   30.1240   43.8790 C   0  0  0  0  0  0  0  0  0  0  0  0
   57.0030   29.1190   42.9440 O   0  0  0  0  0  0  0  0  0  0  0  0
   56.0510   29.8890   44.8650 N   0  0  0  0  0  0  0  0  0  0  0  0
   55.5300   28.6020   45.0300 O   0  0  0  0  0  0  0  0  0  0  0  0
   59.5960   34.5710   48.2420 C   0  0  0  0  0  0  0  0  0  0  0  0
   60.5710   33.5470   48.8310 C   0  0  0  0  0  0  0  0  0  0  0  0
   61.7092   30.0474   45.4468 H   0  0  0  0  0  0  0  0  0  0  0  0
   60.1027   28.4973   44.4163 H   0  0  0  0  0  0  0  0  0  0  0  0
   58.0564   27.8573   45.6722 H   0  0  0  0  0  0  0  0  0  0  0  0
   57.6636   28.7946   47.9468 H   0  0  0  0  0  0  0  0  0  0  0  0
   62.1806   34.5733   46.7671 H   0  0  0  0  0  0  0  0  0  0  0  0
   62.1060   32.9451   45.9555 H   0  0  0  0  0  0  0  0  0  0  0  0
   60.4036   34.9581   45.4091 H   0  0  0  0  0  0  0  0  0  0  0  0
   59.9820   33.2007   45.3000 H   0  0  0  0  0  0  0  0  0  0  0  0
   57.2987   34.0076   47.4935 H   0  0  0  0  0  0  0  0  0  0  0  0
   57.5569   34.6539   45.8540 H   0  0  0  0  0  0  0  0  0  0  0  0
   58.8853   32.1552   45.8057 H   0  0  0  0  0  0  0  0  0  0  0  0
   57.3929   31.8490   46.7857 H   0  0  0  0  0  0  0  0  0  0  0  0
   56.0148   32.1616   45.0463 H   0  0  0  0  0  0  0  0  0  0  0  0
   57.0671   33.4183   44.2983 H   0  0  0  0  0  0  0  0  0  0  0  0
   57.5706   31.8078   42.8249 H   0  0  0  0  0  0  0  0  0  0  0  0
   58.6460   31.2020   44.1695 H   0  0  0  0  0  0  0  0  0  0  0  0
   56.4780   28.2440   43.0330 H   0  0  0  0  0  0  0  0  0  0  0  0
   56.0170   27.8960   44.4790 H   0  0  0  0  0  0  0  0  0  0  0  0
   60.0655   35.5657   48.2364 H   0  0  0  0  0  0  0  0  0  0  0  0
   58.6815   34.6054   48.8523 H   0  0  0  0  0  0  0  0  0  0  0  0
   61.1725   34.0354   49.6118 H   0  0  0  0  0  0  0  0  0  0  0  0
   59.9845   32.7152   49.2483 H   0  0  0  0  0  0  0  0  0  0  0  0
  1  2  2  0
  2  3  2  0
  2  4  1  0
  4  5  2  0
  5  6  1  0
  6  7  2  0
  7  8  1  0
  8  9  2  0
  9 10  1  0
  2 11  1  0
 11 12  1  0
 12 13  1  0
 13 14  1  0
 14 15  1  0
 15 16  1  0
 16 17  1  0
 17 18  1  0
 18 19  1  0
 19 20  1  0
 19 21  2  0
 21 22  1  0
 14 23  1  0
 23 24  1  0
  9  4  1  0
 24 11  1  0
  5 25  1  0
  6 26  1  0
  7 27  1  0
  8 28  1  0
 12 29  1  0
 12 30  1  0
 13 31  1  0
 13 32  1  0
 15 33  1  0
 15 34  1  0
 16 35  1  0
 16 36  1  0
 17 37  1  0
 17 38  1  0
 18 39  1  0
 18 40  1  0
 20 41  1  0
 22 42  1  0
 23 43  1  0
 23 44  1  0
 24 45  1  0
 24 46  1  0
M  END
>  <smiles>  (45) 
O=S(=O)(c1ccccc1Br)N1CCN(CCCCC(O)=NO)CC1

>  <score_type>  (45) 
oracle

>  <origin>  (45) 
adg

>  <m_score__min__energy>  (45) 
-9.2300000000000004

>  <m_primary>  (45) 
energy

$$$$
45:0
     RDKit          3D

 42 44  0  0  0  0  0  0  0  0999 V2000
   58.5740   22.7150   45.3020 C   0  0  0  0  0  0  0  0  0  0  0  0
   57.7240   22.9010   46.4900 N   0  0  0  0  0  0  0  0  0  0  0  0
   56.7860   21.7740   46.6170 C   0  0  0  0  0  0  0  0  0  0  0  0
   57.0080   24.1990   46.4430 C   0  0  0  0  0  0  0  0  0  0  0  0
   57.2150   24.8650   45.0790 C   0  0  0  0  0  0  0  0  0  0  0  0
   57.4610   26.3470   45.2160 C   0  0  0  0  0  0  0  0  0  0  0  0
   58.7130   26.8820   44.8670 C   0  0  0  0  0  0  0  0  0  0  0  0
   58.9400   28.2580   44.9430 C   0  0  0  0  0  0  0  0  0  0  0  0
   57.9200   29.1210   45.3670 C   0  0  0  0  0  0  0  0  0  0  0  0
   58.1570   30.5800   45.4300 C   0  0  0  0  0  0  0  0  0  0  0  0
   57.1990   31.4470   44.8680 C   0  0  0  0  0  0  0  0  0  0  0  0
   56.0590   30.9380   44.2540 O   0  0  0  0  0  0  0  0  0  0  0  0
   57.3740   32.8310   44.9310 C   0  0  0  0  0  0  0  0  0  0  0  0
   58.4960   33.3740   45.5530 C   0  0  0  0  0  0  0  0  0  0  0  0
   59.4680   32.5360   46.1150 C   0  0  0  0  0  0  0  0  0  0  0  0
   60.6020   33.0900   46.7310 C   0  0  0  0  0  0  0  0  0  0  0  0
   61.5820   32.2610   47.2770 C   0  0  0  0  0  0  0  0  0  0  0  0
   61.4440   30.8740   47.2090 C   0  0  0  0  0  0  0  0  0  0  0  0
   60.3220   30.3070   46.6010 C   0  0  0  0  0  0  0  0  0  0  0  0
   59.3100   31.1250   46.0540 C   0  0  0  0  0  0  0  0  0  0  0  0
   56.6640   28.5940   45.7030 C   0  0  0  0  0  0  0  0  0  0  0  0
   56.4320   27.2160   45.6280 C   0  0  0  0  0  0  0  0  0  0  0  0
   55.1750   26.7200   45.9590 O   0  0  0  0  0  0  0  0  0  0  0  0
   59.6030   22.4898   45.6190 H   0  0  0  0  0  0  0  0  0  0  0  0
   58.1850   21.8807   44.6998 H   0  0  0  0  0  0  0  0  0  0  0  0
   58.5690   23.6355   44.6998 H   0  0  0  0  0  0  0  0  0  0  0  0
   56.6096   21.5620   47.6819 H   0  0  0  0  0  0  0  0  0  0  0  0
   55.8334   22.0334   46.1320 H   0  0  0  0  0  0  0  0  0  0  0  0
   57.2140   20.8843   46.1320 H   0  0  0  0  0  0  0  0  0  0  0  0
   55.9335   24.0279   46.6051 H   0  0  0  0  0  0  0  0  0  0  0  0
   57.4048   24.8579   47.2294 H   0  0  0  0  0  0  0  0  0  0  0  0
   58.0824   24.4034   44.5844 H   0  0  0  0  0  0  0  0  0  0  0  0
   56.3010   24.7216   44.4840 H   0  0  0  0  0  0  0  0  0  0  0  0
   59.5191   26.2128   44.5319 H   0  0  0  0  0  0  0  0  0  0  0  0
   59.9239   28.6664   44.6688 H   0  0  0  0  0  0  0  0  0  0  0  0
   56.6203   33.4974   44.4862 H   0  0  0  0  0  0  0  0  0  0  0  0
   58.6194   34.4659   45.6031 H   0  0  0  0  0  0  0  0  0  0  0  0
   60.7179   34.1826   46.7832 H   0  0  0  0  0  0  0  0  0  0  0  0
   62.4655   32.7015   47.7622 H   0  0  0  0  0  0  0  0  0  0  0  0
   62.2223   30.2246   47.6361 H   0  0  0  0  0  0  0  0  0  0  0  0
   60.2259   29.2125   46.5478 H   0  0  0  0  0  0  0  0  0  0  0  0
   55.8571   29.2677   46.0272 H   0  0  0  0  0  0  0  0  0  0  0  0
  1  2  1  0
  2  3  1  0
  2  4  1  0
  4  5  1  0
  5  6  1  0
  6  7  2  0
  7  8  1  0
  8  9  2  0
  9 10  1  0
 10 11  2  0
 11 12  1  0
 11 13  1  0
 13 14  2  0
 14 15  1  0
 15 16  2  0
 16 17  1  0
 17 18  2  0
 18 19  1  0
 19 20  2  0
  9 21  1  0
 21 22  2  0
 22 23  1  0
 22  6  1  0
 20 10  1  0
 20 15  1  0
  1 24  1  0
  1 25  1  0
  1 26  1  0
  3 27  1  0
  3 28  1  0
  3 29  1  0
  4 30  1  0
  4 31  1  0
  5 32  1  0
  5 33  1  0
  7 34  1  0
  8 35  1  0
 13 36  1  0
 14 37  1  0
 16 38  1  0
 17 39  1  0
 18 40  1  0
 19 41  1  0
 21 42  1  0
M  CHG  2  12  -1  23  -1
M  END
>  <UniqueID>  (46) 
45

>  <SMILES>  (46) 
CN(C)CCc1ccc(-c2c([O-])ccc3ccccc23)cc1[O-]

>  <Energy>  (46) 
56.59558989772043

>  <Genealogy>  (46) 
CN(C)CCc1ccc(-c2c([O-])ccc3ccccc23)cc1[O-] (protonated)
CN(C)CCc1ccc(-c2c([O-])ccc3ccccc23)cc1[O-] (3D coordinates assigned)
CN(C)CCc1ccc(-c2c([O-])ccc3ccccc23)cc1[O-] (optimized conformer: 56.59558989772043 kcal/mol)

>  <smiles>  (46) 
CN(C)CCc1ccc(-c2c(O)ccc3ccccc23)cc1O

>  <score_type>  (46) 
oracle

>  <origin>  (46) 
adg

>  <m_score__min__energy>  (46) 
-12.31

>  <m_primary>  (46) 
energy

$$$$
46:0
     RDKit          3D

 59 63  0  0  0  0  0  0  0  0999 V2000
   68.0310   33.8410   50.7060 C   0  0  0  0  0  0  0  0  0  0  0  0
   66.8070   33.6130   51.3970 O   0  0  0  0  0  0  0  0  0  0  0  0
   65.5580   33.4800   50.7730 C   0  0  0  0  0  0  0  0  0  0  0  0
   65.4440   32.5940   49.6970 C   0  0  0  0  0  0  0  0  0  0  0  0
   64.2210   32.4250   49.0410 C   0  0  0  0  0  0  0  0  0  0  0  0
   63.0850   33.1450   49.4520 C   0  0  0  0  0  0  0  0  0  0  0  0
   61.7860   32.9670   48.7550 C   0  0  0  0  0  0  0  0  0  0  0  0
   61.3260   33.9330   47.8420 C   0  0  0  0  0  0  0  0  0  0  0  0
   60.1040   33.7640   47.1880 C   0  0  0  0  0  0  0  0  0  0  0  0
   59.3180   32.6320   47.4420 C   0  0  0  0  0  0  0  0  0  0  0  0
   59.7720   31.6550   48.3310 C   0  0  0  0  0  0  0  0  0  0  0  0
   60.9960   31.8280   48.9960 C   0  0  0  0  0  0  0  0  0  0  0  0
   58.9560   30.5050   48.5950 N   0  0  0  0  0  0  0  0  0  0  0  0
   58.5450   30.2480   49.9790 C   0  0  0  0  0  0  0  0  0  0  0  0
   58.7020   29.5280   47.5600 C   0  0  0  0  0  0  0  0  0  0  0  0
   58.8370   28.1640   47.8800 C   0  0  0  0  0  0  0  0  0  0  0  0
   58.6100   27.1700   46.9330 C   0  0  0  0  0  0  0  0  0  0  0  0
   58.2370   27.5090   45.6270 C   0  0  0  0  0  0  0  0  0  0  0  0
   58.0080   26.5030   44.6220 N   0  0  0  0  0  0  0  0  0  0  0  0
   57.1560   25.3630   44.8120 C   0  0  0  0  0  0  0  0  0  0  0  0
   57.4590   24.1730   44.1350 C   0  0  0  0  0  0  0  0  0  0  0  0
   56.6690   23.0350   44.3150 C   0  0  0  0  0  0  0  0  0  0  0  0
   55.5620   23.0810   45.1640 C   0  0  0  0  0  0  0  0  0  0  0  0
   55.2330   24.2680   45.8220 C   0  0  0  0  0  0  0  0  0  0  0  0
   56.0140   25.4210   45.6450 C   0  0  0  0  0  0  0  0  0  0  0  0
   55.6130   26.6420   46.2790 N   0  0  0  0  0  0  0  0  0  0  0  0
   58.1130   28.8600   45.2850 C   0  0  0  0  0  0  0  0  0  0  0  0
   58.3220   29.8860   46.2290 C   0  0  0  0  0  0  0  0  0  0  0  0
   58.1640   31.3050   45.6950 C   0  0  0  0  0  0  0  0  0  0  0  0
   58.0140   32.4160   46.7350 C   0  0  0  0  0  0  0  0  0  0  0  0
   63.2020   34.0360   50.5330 C   0  0  0  0  0  0  0  0  0  0  0  0
   64.4240   34.2030   51.1890 C   0  0  0  0  0  0  0  0  0  0  0  0
   68.8409   33.9919   51.4349 H   0  0  0  0  0  0  0  0  0  0  0  0
   68.2633   32.9707   50.0747 H   0  0  0  0  0  0  0  0  0  0  0  0
   67.9343   34.7366   50.0747 H   0  0  0  0  0  0  0  0  0  0  0  0
   66.3245   32.0250   49.3638 H   0  0  0  0  0  0  0  0  0  0  0  0
   64.1467   31.7235   48.1970 H   0  0  0  0  0  0  0  0  0  0  0  0
   61.9333   34.8280   47.6418 H   0  0  0  0  0  0  0  0  0  0  0  0
   59.7570   34.5223   46.4707 H   0  0  0  0  0  0  0  0  0  0  0  0
   61.3404   31.0668   49.7115 H   0  0  0  0  0  0  0  0  0  0  0  0
   59.2721   30.7027   50.6679 H   0  0  0  0  0  0  0  0  0  0  0  0
   57.5511   30.6858   50.1536 H   0  0  0  0  0  0  0  0  0  0  0  0
   58.5035   29.1627   50.1536 H   0  0  0  0  0  0  0  0  0  0  0  0
   59.1284   27.8774   48.9013 H   0  0  0  0  0  0  0  0  0  0  0  0
   58.7243   26.1122   47.2121 H   0  0  0  0  0  0  0  0  0  0  0  0
   58.5900   26.5270   43.7540 H   0  0  0  0  0  0  0  0  0  0  0  0
   58.3248   24.1353   43.4575 H   0  0  0  0  0  0  0  0  0  0  0  0
   56.9193   22.1027   43.7877 H   0  0  0  0  0  0  0  0  0  0  0  0
   54.9479   22.1810   45.3150 H   0  0  0  0  0  0  0  0  0  0  0  0
   54.3551   24.2998   46.4841 H   0  0  0  0  0  0  0  0  0  0  0  0
   56.1460   27.0150   47.0950 H   0  0  0  0  0  0  0  0  0  0  0  0
   54.7510   27.1540   45.9890 H   0  0  0  0  0  0  0  0  0  0  0  0
   57.8454   29.1287   44.2524 H   0  0  0  0  0  0  0  0  0  0  0  0
   59.0524   31.5339   45.0881 H   0  0  0  0  0  0  0  0  0  0  0  0
   57.2161   31.3007   45.1370 H   0  0  0  0  0  0  0  0  0  0  0  0
   57.7125   33.3472   46.2331 H   0  0  0  0  0  0  0  0  0  0  0  0
   57.2480   32.1244   47.4687 H   0  0  0  0  0  0  0  0  0  0  0  0
   62.3228   34.6073   50.8656 H   0  0  0  0  0  0  0  0  0  0  0  0
   64.5005   34.9026   52.0344 H   0  0  0  0  0  0  0  0  0  0  0  0
  1  2  1  0
  2  3  1  0
  3  4  2  0
  4  5  1  0
  5  6  2  0
  6  7  1  0
  7  8  2  0
  8  9  1  0
  9 10  2  0
 10 11  1  0
 11 12  2  0
 11 13  1  0
 13 14  1  0
 13 15  1  0
 15 16  2  0
 16 17  1  0
 17 18  2  0
 18 19  1  0
 19 20  1  0
 20 21  2  0
 21 22  1  0
 22 23  2  0
 23 24  1  0
 24 25  2  0
 25 26  1  0
 18 27  1  0
 27 28  2  0
 28 29  1  0
 29 30  1  0
  6 31  1  0
 31 32  2  0
 32  3  1  0
 12  7  1  0
 28 15  1  0
 30 10  1  0
 25 20  1  0
  1 33  1  0
  1 34  1  0
  1 35  1  0
  4 36  1  0
  5 37  1  0
  8 38  1  0
  9 39  1  0
 12 40  1  0
 14 41  1  0
 14 42  1  0
 14 43  1  0
 16 44  1  0
 17 45  1  0
 19 46  1  0
 21 47  1  0
 22 48  1  0
 23 49  1  0
 24 50  1  0
 26 51  1  0
 26 52  1  0
 27 53  1  0
 29 54  1  0
 29 55  1  0
 30 56  1  0
 30 57  1  0
 31 58  1  0
 32 59  1  0
M  END
>  <UniqueID>  (47) 
46

>  <SMILES>  (47) 
COc1ccc(-c2ccc3c(c2)N(C)c2ccc(Nc4ccccc4N)cc2CC3)cc1

>  <Energy>  (47) 
93.01275019929827

>  <Genealogy>  (47) 
COc1ccc(-c2ccc3c(c2)N(C)c2ccc(Nc4ccccc4N)cc2CC3)cc1 (3D coordinates assigned)
COc1ccc(-c2ccc3c(c2)N(C)c2ccc(Nc4ccccc4N)cc2CC3)cc1 (nonaromatic ring conformer: 93.01275019929827 kcal/mol)

>  <smiles>  (47) 
COc1ccc(-c2ccc3c(c2)N(C)c2ccc(Nc4ccccc4N)cc2CC3)cc1

>  <score_type>  (47) 
oracle

>  <origin>  (47) 
adg

>  <m_score__min__energy>  (47) 
-7.4100000000000001

>  <m_primary>  (47) 
energy

$$$$
47:0
     RDKit          3D

 41 43  0  0  0  0  0  0  0  0999 V2000
   61.0840   31.6270   47.9160 C   0  0  0  0  0  0  0  0  0  0  0  0
   59.9270   31.4040   47.0230 N   0  0  0  0  0  0  0  0  0  0  0  0
   59.3960   30.1420   46.8920 C   0  0  0  0  0  0  0  0  0  0  0  0
   59.9100   29.0830   47.5640 N   0  0  0  0  0  0  0  0  0  0  0  0
   59.3990   27.8310   47.4500 C   0  0  0  0  0  0  0  0  0  0  0  0
   59.9390   26.8990   48.1060 O   0  0  0  0  0  0  0  0  0  0  0  0
   58.3170   27.5790   46.6380 N   0  0  0  0  0  0  0  0  0  0  0  0
   57.7740   26.2040   46.5550 C   0  0  0  0  0  0  0  0  0  0  0  0
   58.2180   25.4870   45.2630 C   0  0  0  0  0  0  0  0  0  0  0  0
   57.4010   25.8430   44.0770 N   0  0  0  0  0  0  0  0  0  0  0  0
   56.9850   24.6190   43.3670 C   0  0  0  0  0  0  0  0  0  0  0  0
   58.1450   26.7150   43.1480 C   0  0  0  0  0  0  0  0  0  0  0  0
   57.7430   28.5980   45.9150 C   0  0  0  0  0  0  0  0  0  0  0  0
   56.7560   28.3660   45.1610 O   0  0  0  0  0  0  0  0  0  0  0  0
   58.2460   29.9030   46.0100 C   0  0  0  0  0  0  0  0  0  0  0  0
   57.7070   30.9780   45.3110 C   0  0  0  0  0  0  0  0  0  0  0  0
   58.2590   32.2520   45.4570 C   0  0  0  0  0  0  0  0  0  0  0  0
   57.7020   33.3280   44.7440 C   0  0  0  0  0  0  0  0  0  0  0  0
   58.2330   34.6100   44.8710 C   0  0  0  0  0  0  0  0  0  0  0  0
   59.3230   34.8330   45.7080 C   0  0  0  0  0  0  0  0  0  0  0  0
   59.8900   33.7780   46.4240 C   0  0  0  0  0  0  0  0  0  0  0  0
   59.3750   32.4610   46.3190 C   0  0  0  0  0  0  0  0  0  0  0  0
   60.7558   31.5638   48.9640 H   0  0  0  0  0  0  0  0  0  0  0  0
   61.8485   30.8597   47.7242 H   0  0  0  0  0  0  0  0  0  0  0  0
   61.5085   32.6235   47.7242 H   0  0  0  0  0  0  0  0  0  0  0  0
   58.1303   25.6280   47.4218 H   0  0  0  0  0  0  0  0  0  0  0  0
   56.6761   26.2710   46.5476 H   0  0  0  0  0  0  0  0  0  0  0  0
   59.2647   25.7558   45.0579 H   0  0  0  0  0  0  0  0  0  0  0  0
   58.0894   24.4077   45.4319 H   0  0  0  0  0  0  0  0  0  0  0  0
   56.5290   26.3380   44.3770 H   0  0  0  0  0  0  0  0  0  0  0  0
   56.7209   23.8420   44.0995 H   0  0  0  0  0  0  0  0  0  0  0  0
   56.1115   24.8401   42.7360 H   0  0  0  0  0  0  0  0  0  0  0  0
   57.8123   24.2620   42.7360 H   0  0  0  0  0  0  0  0  0  0  0  0
   58.7537   27.4285   43.7228 H   0  0  0  0  0  0  0  0  0  0  0  0
   58.8012   26.1004   42.5143 H   0  0  0  0  0  0  0  0  0  0  0  0
   57.4347   27.2663   42.5143 H   0  0  0  0  0  0  0  0  0  0  0  0
   56.8463   30.8244   44.6435 H   0  0  0  0  0  0  0  0  0  0  0  0
   56.8410   33.1567   44.0812 H   0  0  0  0  0  0  0  0  0  0  0  0
   57.7908   35.4463   44.3097 H   0  0  0  0  0  0  0  0  0  0  0  0
   59.7395   35.8464   45.8054 H   0  0  0  0  0  0  0  0  0  0  0  0
   60.7509   33.9712   47.0809 H   0  0  0  0  0  0  0  0  0  0  0  0
  1  2  1  0
  2  3  1  0
  3  4  2  0
  4  5  1  0
  5  6  2  0
  5  7  1  0
  7  8  1  0
  8  9  1  0
  9 10  1  0
 10 11  1  0
 10 12  1  0
  7 13  1  0
 13 14  2  0
 13 15  1  0
 15 16  2  0
 16 17  1  0
 17 18  2  0
 18 19  1  0
 19 20  2  0
 20 21  1  0
 21 22  2  0
 22  2  1  0
 15  3  1  0
 22 17  1  0
  1 23  1  0
  1 24  1  0
  1 25  1  0
  8 26  1  0
  8 27  1  0
  9 28  1  0
  9 29  1  0
 10 30  1  0
 11 31  1  0
 11 32  1  0
 11 33  1  0
 12 34  1  0
 12 35  1  0
 12 36  1  0
 16 37  1  0
 18 38  1  0
 19 39  1  0
 20 40  1  0
 21 41  1  0
M  CHG  1  10   1
M  END
>  <UniqueID>  (48) 
47

>  <SMILES>  (48) 
Cn1c2nc(=O)n(CC[NH+](C)C)c(=O)c-2cc2ccccc21

>  <Energy>  (48) 
59.84248073316367

>  <Genealogy>  (48) 
Cn1c2nc(=O)n(CC[NH+](C)C)c(=O)c-2cc2ccccc21 (protonated)
Cn1c2nc(=O)n(CC[NH+](C)C)c(=O)c-2cc2ccccc21 (3D coordinates assigned)
Cn1c2nc(=O)n(CC[NH+](C)C)c(=O)c-2cc2ccccc21 (optimized conformer: 59.84248073316367 kcal/mol)

>  <smiles>  (48) 
CN(C)CCn1c(=O)nc2n(C)c3ccccc3cc-2c1=O

>  <score_type>  (48) 
oracle

>  <origin>  (48) 
adg

>  <m_score__min__energy>  (48) 
-5.0300000000000002

>  <m_primary>  (48) 
energy

$$$$
