0:0
     RDKit          3D

 55 57  0  0  0  0  0  0  0  0999 V2000
   62.9390   33.8400   46.3260 C   0  0  0  0  0  0  0  0  0  0  0  0
   63.8070   33.5490   47.5560 C   0  0  0  0  0  0  0  0  0  0  0  0
   63.7640   32.1180   47.9650 N   0  0  0  0  0  0  0  0  0  0  0  0
   64.1000   31.9630   49.4060 C   0  0  0  0  0  0  0  0  0  0  0  0
   64.1040   33.2750   50.2100 C   0  0  0  0  0  0  0  0  0  0  0  0
   62.4650   31.4930   47.5950 C   0  0  0  0  0  0  0  0  0  0  0  0
   61.6250   31.0530   48.8160 C   0  0  0  0  0  0  0  0  0  0  0  0
   60.2320   31.4810   48.6830 N   0  0  0  0  0  0  0  0  0  0  0  0
   59.6060   31.6740   47.4050 C   0  0  0  0  0  0  0  0  0  0  0  0
   59.2180   30.5670   46.6190 C   0  0  0  0  0  0  0  0  0  0  0  0
   58.6760   30.7910   45.3170 C   0  0  0  0  0  0  0  0  0  0  0  0
   58.4700   32.0840   44.8670 N   0  0  0  0  0  0  0  0  0  0  0  0
   57.8670   32.3390   43.5460 C   0  0  0  0  0  0  0  0  0  0  0  0
   58.8930   33.1370   45.6350 C   0  0  0  0  0  0  0  0  0  0  0  0
   59.4410   32.9550   46.8780 C   0  0  0  0  0  0  0  0  0  0  0  0
   59.8720   34.2410   47.4870 C   0  0  0  0  0  0  0  0  0  0  0  0
   59.6640   35.2740   46.3730 C   0  0  0  0  0  0  0  0  0  0  0  0
   58.8720   34.5780   45.2560 C   0  0  0  0  0  0  0  0  0  0  0  0
   58.2530   29.6050   44.4560 C   0  0  0  0  0  0  0  0  0  0  0  0
   58.8690   28.2780   44.8960 C   0  0  0  0  0  0  0  0  0  0  0  0
   58.6910   28.0900   46.3960 C   0  0  0  0  0  0  0  0  0  0  0  0
   59.4670   29.1680   47.1500 C   0  0  0  0  0  0  0  0  0  0  0  0
   61.9426   34.1740   46.6511 H   0  0  0  0  0  0  0  0  0  0  0  0
   63.4113   34.6289   45.7223 H   0  0  0  0  0  0  0  0  0  0  0  0
   62.8403   32.9258   45.7223 H   0  0  0  0  0  0  0  0  0  0  0  0
   64.8481   33.8172   47.3233 H   0  0  0  0  0  0  0  0  0  0  0  0
   63.4099   34.1449   48.3910 H   0  0  0  0  0  0  0  0  0  0  0  0
   64.5180   31.6160   47.4390 H   0  0  0  0  0  0  0  0  0  0  0  0
   63.3612   31.2857   49.8592 H   0  0  0  0  0  0  0  0  0  0  0  0
   65.1272   31.5715   49.4451 H   0  0  0  0  0  0  0  0  0  0  0  0
   64.1033   33.0458   51.2858 H   0  0  0  0  0  0  0  0  0  0  0  0
   65.0039   33.8558   49.9595 H   0  0  0  0  0  0  0  0  0  0  0  0
   63.2076   33.8613   49.9595 H   0  0  0  0  0  0  0  0  0  0  0  0
   61.8805   32.2216   47.0141 H   0  0  0  0  0  0  0  0  0  0  0  0
   62.6943   30.5867   47.0153 H   0  0  0  0  0  0  0  0  0  0  0  0
   61.6571   29.9565   48.8970 H   0  0  0  0  0  0  0  0  0  0  0  0
   62.0484   31.5215   49.7167 H   0  0  0  0  0  0  0  0  0  0  0  0
   59.6800   31.7070   49.5390 H   0  0  0  0  0  0  0  0  0  0  0  0
   56.8612   32.7643   43.6780 H   0  0  0  0  0  0  0  0  0  0  0  0
   58.4948   33.0487   42.9872 H   0  0  0  0  0  0  0  0  0  0  0  0
   57.7951   31.3942   42.9872 H   0  0  0  0  0  0  0  0  0  0  0  0
   59.2541   34.4836   48.3641 H   0  0  0  0  0  0  0  0  0  0  0  0
   60.9121   34.2102   47.8438 H   0  0  0  0  0  0  0  0  0  0  0  0
   59.0975   36.1350   46.7574 H   0  0  0  0  0  0  0  0  0  0  0  0
   60.6289   35.6449   45.9970 H   0  0  0  0  0  0  0  0  0  0  0  0
   57.8397   34.9558   45.2163 H   0  0  0  0  0  0  0  0  0  0  0  0
   59.3027   34.7576   44.2599 H   0  0  0  0  0  0  0  0  0  0  0  0
   57.1579   29.5130   44.5049 H   0  0  0  0  0  0  0  0  0  0  0  0
   58.6115   29.8038   43.4352 H   0  0  0  0  0  0  0  0  0  0  0  0
   58.3727   27.4526   44.3645 H   0  0  0  0  0  0  0  0  0  0  0  0
   59.9432   28.2838   44.6590 H   0  0  0  0  0  0  0  0  0  0  0  0
   57.6231   28.1649   46.6489 H   0  0  0  0  0  0  0  0  0  0  0  0
   59.0727   27.0996   46.6850 H   0  0  0  0  0  0  0  0  0  0  0  0
   59.1685   29.1377   48.2083 H   0  0  0  0  0  0  0  0  0  0  0  0
   60.5375   28.9537   47.0157 H   0  0  0  0  0  0  0  0  0  0  0  0
  1  2  1  0
  2  3  1  0
  3  4  1  0
  4  5  1  0
  3  6  1  0
  6  7  1  0
  7  8  1  0
  8  9  1  0
  9 10  2  0
 10 11  1  0
 11 12  2  0
 12 13  1  0
 12 14  1  0
 14 15  2  0
 15 16  1  0
 16 17  1  0
 17 18  1  0
 11 19  1  0
 19 20  1  0
 20 21  1  0
 21 22  1  0
 15  9  1  0
 22 10  1  0
 18 14  1  0
  1 23  1  0
  1 24  1  0
  1 25  1  0
  2 26  1  0
  2 27  1  0
  3 28  1  0
  4 29  1  0
  4 30  1  0
  5 31  1  0
  5 32  1  0
  5 33  1  0
  6 34  1  0
  6 35  1  0
  7 36  1  0
  7 37  1  0
  8 38  1  0
 13 39  1  0
 13 40  1  0
 13 41  1  0
 16 42  1  0
 16 43  1  0
 17 44  1  0
 17 45  1  0
 18 46  1  0
 18 47  1  0
 19 48  1  0
 19 49  1  0
 20 50  1  0
 20 51  1  0
 21 52  1  0
 21 53  1  0
 22 54  1  0
 22 55  1  0
M  CHG  2   3   1  12   1
M  END
>  <UniqueID>  (1) 
1

>  <SMILES>  (1) 
CC[NH+](CC)CCNc1c2c([n+](C)c3c1CCC3)CCCC2

>  <Energy>  (1) 
74.76099496599333

>  <Genealogy>  (1) 
CC[NH+](CC)CCNc1c2c([n+](C)c3c1CCC3)CCCC2 (protonated)
CC[NH+](CC)CCNc1c2c([n+](C)c3c1CCC3)CCCC2 (3D coordinates assigned)
CC[NH+](CC)CCNc1c2c([n+](C)c3c1CCC3)CCCC2 (nonaromatic ring conformer: 74.76099496599333 kcal/mol)

>  <smiles>  (1) 
CCN(CC)CCNc1c2c([n+](C)c3c1CCC3)CCCC2

>  <score_type>  (1) 
oracle

>  <origin>  (1) 
adg

>  <m_score__min__energy>  (1) 
-4.6299999999999999

>  <m_primary>  (1) 
energy

$$$$
1:0
     RDKit          3D

 37 38  0  0  0  0  0  0  0  0999 V2000
   58.1380   26.7090   42.5940 C   0  0  0  0  0  0  0  0  0  0  0  0
   57.8740   27.5880   43.8260 C   0  0  0  0  0  0  0  0  0  0  0  0
   59.0880   27.5220   44.7720 C   0  0  0  0  0  0  0  0  0  0  0  0
   57.5810   28.9850   43.4140 N   0  0  0  0  0  0  0  0  0  0  0  0
   58.4040   29.9820   44.1330 C   0  0  0  0  0  0  0  0  0  0  0  0
   57.6030   30.7550   45.2190 C   0  0  2  0  0  0  0  0  0  0  0  0
   57.0250   32.0970   44.6510 C   0  0  0  0  0  0  0  0  0  0  0  0
   57.2360   33.3160   45.5630 C   0  0  0  0  0  0  0  0  0  0  0  0
   58.6750   33.3820   45.9900 C   0  0  0  0  0  0  0  0  0  0  0  0
   59.3950   34.5850   45.9740 C   0  0  0  0  0  0  0  0  0  0  0  0
   60.7320   34.6040   46.3830 C   0  0  0  0  0  0  0  0  0  0  0  0
   61.3500   33.4270   46.8210 C   0  0  0  0  0  0  0  0  0  0  0  0
   63.1740   33.4600   47.3880 Br  0  0  0  0  0  0  0  0  0  0  0  0
   60.6310   32.2270   46.8500 C   0  0  0  0  0  0  0  0  0  0  0  0
   59.2930   32.2010   46.4280 C   0  0  0  0  0  0  0  0  0  0  0  0
   58.4680   30.9460   46.4950 C   0  0  0  0  0  0  0  0  0  0  0  0
   58.4402   25.7027   42.9195 H   0  0  0  0  0  0  0  0  0  0  0  0
   57.2212   26.6391   41.9902 H   0  0  0  0  0  0  0  0  0  0  0  0
   58.9416   27.1558   41.9902 H   0  0  0  0  0  0  0  0  0  0  0  0
   56.9916   27.2116   44.3642 H   0  0  0  0  0  0  0  0  0  0  0  0
   58.7410   27.5409   45.8157 H   0  0  0  0  0  0  0  0  0  0  0  0
   59.6462   26.5922   44.5879 H   0  0  0  0  0  0  0  0  0  0  0  0
   59.7437   28.3858   44.5879 H   0  0  0  0  0  0  0  0  0  0  0  0
   56.5680   29.2000   43.5600 H   0  0  0  0  0  0  0  0  0  0  0  0
   57.7560   29.0880   42.3870 H   0  0  0  0  0  0  0  0  0  0  0  0
   59.2422   29.4610   44.6189 H   0  0  0  0  0  0  0  0  0  0  0  0
   58.7538   30.7175   43.3936 H   0  0  0  0  0  0  0  0  0  0  0  0
   56.7294   30.1563   45.5161 H   0  0  0  0  0  0  0  0  0  0  0  0
   57.5128   32.3006   43.6863 H   0  0  0  0  0  0  0  0  0  0  0  0
   55.9377   31.9571   44.5608 H   0  0  0  0  0  0  0  0  0  0  0  0
   56.9742   34.2331   45.0149 H   0  0  0  0  0  0  0  0  0  0  0  0
   56.5948   33.2229   46.4519 H   0  0  0  0  0  0  0  0  0  0  0  0
   58.9084   35.5132   45.6399 H   0  0  0  0  0  0  0  0  0  0  0  0
   61.2994   35.5461   46.3605 H   0  0  0  0  0  0  0  0  0  0  0  0
   61.1145   31.3043   47.2035 H   0  0  0  0  0  0  0  0  0  0  0  0
   59.1413   30.0826   46.6012 H   0  0  0  0  0  0  0  0  0  0  0  0
   57.7907   31.0279   47.3579 H   0  0  0  0  0  0  0  0  0  0  0  0
  1  2  1  0
  2  3  1  0
  2  4  1  0
  4  5  1  0
  5  6  1  0
  6  7  1  0
  7  8  1  0
  8  9  1  0
  9 10  2  0
 10 11  1  0
 11 12  2  0
 12 13  1  0
 12 14  1  0
 14 15  2  0
 15 16  1  0
 16  6  1  0
 15  9  1  0
  1 17  1  0
  1 18  1  0
  1 19  1  0
  2 20  1  0
  3 21  1  0
  3 22  1  0
  3 23  1  0
  4 24  1  0
  4 25  1  0
  5 26  1  0
  5 27  1  0
  6 28  1  1
  7 29  1  0
  7 30  1  0
  8 31  1  0
  8 32  1  0
 10 33  1  0
 11 34  1  0
 14 35  1  0
 16 36  1  0
 16 37  1  0
M  CHG  1   4   1
M  END
>  <UniqueID>  (2) 
2

>  <SMILES>  (2) 
CC(C)[NH2+]C[C@@H]1CCc2ccc(Br)cc2C1

>  <Energy>  (2) 
40.7454193653676

>  <Genealogy>  (2) 
CC(C)[NH2+]CC1CCc2ccc(Br)cc2C1 (protonated)
CC(C)[NH2+]C[C@@H]1CCc2ccc(Br)cc2C1 (chirality)
CC(C)[NH2+]C[C@@H]1CCc2ccc(Br)cc2C1 (3D coordinates assigned)
CC(C)[NH2+]C[C@@H]1CCc2ccc(Br)cc2C1 (nonaromatic ring conformer: 40.7454193653676 kcal/mol)

>  <smiles>  (2) 
CC(C)NCC1CCc2ccc(Br)cc2C1

>  <score_type>  (2) 
oracle

>  <origin>  (2) 
adg

>  <m_score__min__energy>  (2) 
-5.2699999999999996

>  <m_primary>  (2) 
energy

$$$$
2:0
     RDKit          3D

 58 60  0  0  0  0  0  0  0  0999 V2000
   59.2121   25.3498   44.5989 H   0  0  0  0  0  0  0  0  0  0  0  0
   58.3720   25.6310   45.2510 C   0  0  0  0  0  0  0  0  0  0  0  0
   58.5750   26.6390   46.1240 C   0  0  0  0  0  0  0  0  0  0  0  0
   58.0510   28.0170   45.9430 C   0  0  0  0  0  0  0  0  0  0  0  0
   57.0900   28.2490   45.1610 O   0  0  0  0  0  0  0  0  0  0  0  0
   58.6380   29.1080   46.7450 C   0  0  0  0  0  0  0  0  0  0  0  0
   58.2480   30.4460   46.5690 C   0  0  0  0  0  0  0  0  0  0  0  0
   57.4571   30.6915   45.8450 H   0  0  0  0  0  0  0  0  0  0  0  0
   58.8550   31.4700   47.3050 C   0  0  0  0  0  0  0  0  0  0  0  0
   58.4240   32.7880   47.0830 O   0  0  0  0  0  0  0  0  0  0  0  0
   57.1080   33.1770   46.6850 C   0  0  0  0  0  0  0  0  0  0  0  0
   56.5835   33.6025   47.5532 H   0  0  0  0  0  0  0  0  0  0  0  0
   56.5847   32.2858   46.3083 H   0  0  0  0  0  0  0  0  0  0  0  0
   57.1440   34.2240   45.5620 C   0  0  0  0  0  0  0  0  0  0  0  0
   57.3273   35.2101   46.0138 H   0  0  0  0  0  0  0  0  0  0  0  0
   56.1750   34.1698   45.0442 H   0  0  0  0  0  0  0  0  0  0  0  0
   58.2340   33.9660   44.5000 C   0  0  0  0  0  0  0  0  0  0  0  0
   58.1563   34.7468   43.7290 H   0  0  0  0  0  0  0  0  0  0  0  0
   58.0558   32.9559   44.1027 H   0  0  0  0  0  0  0  0  0  0  0  0
   59.6080   33.9760   45.0310 N   0  0  0  0  0  0  0  0  0  0  0  0
   59.8330   33.0530   45.4660 H   0  0  0  0  0  0  0  0  0  0  0  0
   59.8350   35.0540   46.0030 C   0  0  0  0  0  0  0  0  0  0  0  0
   58.8679   35.3848   46.4095 H   0  0  0  0  0  0  0  0  0  0  0  0
   60.3386   35.8905   45.4964 H   0  0  0  0  0  0  0  0  0  0  0  0
   60.7240   34.5610   47.1520 C   0  0  0  0  0  0  0  0  0  0  0  0
   60.0848   34.0656   47.8977 H   0  0  0  0  0  0  0  0  0  0  0  0
   61.2396   35.4425   47.5606 H   0  0  0  0  0  0  0  0  0  0  0  0
   61.8130   33.5680   46.7090 C   0  0  0  0  0  0  0  0  0  0  0  0
   62.1027   33.8025   45.6741 H   0  0  0  0  0  0  0  0  0  0  0  0
   61.3929   32.5550   46.7952 H   0  0  0  0  0  0  0  0  0  0  0  0
   63.0610   33.6260   47.5910 C   0  0  0  0  0  0  0  0  0  0  0  0
   62.7627   33.6121   48.6497 H   0  0  0  0  0  0  0  0  0  0  0  0
   63.7007   32.7566   47.3789 H   0  0  0  0  0  0  0  0  0  0  0  0
   63.6173   34.5510   47.3789 H   0  0  0  0  0  0  0  0  0  0  0  0
   59.8740   31.1460   48.2220 C   0  0  0  0  0  0  0  0  0  0  0  0
   60.3662   31.9431   48.7985 H   0  0  0  0  0  0  0  0  0  0  0  0
   60.2620   29.8150   48.4020 C   0  0  0  0  0  0  0  0  0  0  0  0
   61.0603   29.5701   49.1181 H   0  0  0  0  0  0  0  0  0  0  0  0
   59.6420   28.7950   47.6780 C   0  0  0  0  0  0  0  0  0  0  0  0
   60.0370   27.4660   47.8750 O   0  0  0  0  0  0  0  0  0  0  0  0
   59.2550   26.3510   47.4410 C   0  0  0  0  0  0  0  0  0  0  0  0
   58.4891   26.1331   48.1999 H   0  0  0  0  0  0  0  0  0  0  0  0
   59.9242   25.4885   47.3056 H   0  0  0  0  0  0  0  0  0  0  0  0
   57.1120   24.8740   45.1000 C   0  0  0  0  0  0  0  0  0  0  0  0
   55.9290   25.2920   45.7350 C   0  0  0  0  0  0  0  0  0  0  0  0
   55.9410   26.1762   46.3893 H   0  0  0  0  0  0  0  0  0  0  0  0
   54.7400   24.5890   45.5380 C   0  0  0  0  0  0  0  0  0  0  0  0
   53.8221   24.9096   46.0526 H   0  0  0  0  0  0  0  0  0  0  0  0
   54.7110   23.4800   44.6900 C   0  0  0  0  0  0  0  0  0  0  0  0
   53.7722   22.9255   44.5447 H   0  0  0  0  0  0  0  0  0  0  0  0
   55.8800   23.0690   44.0200 C   0  0  0  0  0  0  0  0  0  0  0  0
   55.9000   21.9730   43.1460 O   0  0  0  0  0  0  0  0  0  0  0  0
   57.0140   21.1020   42.9750 C   0  0  0  0  0  0  0  0  0  0  0  0
   57.3988   20.8011   43.9606 H   0  0  0  0  0  0  0  0  0  0  0  0
   56.6985   20.2086   42.4162 H   0  0  0  0  0  0  0  0  0  0  0  0
   57.8049   21.6237   42.4162 H   0  0  0  0  0  0  0  0  0  0  0  0
   57.0700   23.7780   44.2250 C   0  0  0  0  0  0  0  0  0  0  0  0
   57.9831   23.4719   43.6935 H   0  0  0  0  0  0  0  0  0  0  0  0
  1  2  1  0
  2  3  2  0
  3  4  1  0
  4  5  2  0
  4  6  1  0
  6  7  2  0
  7  8  1  0
  7  9  1  0
  9 10  1  0
 10 11  1  0
 11 12  1  0
 11 13  1  0
 11 14  1  0
 14 15  1  0
 14 16  1  0
 14 17  1  0
 17 18  1  0
 17 19  1  0
 17 20  1  0
 20 21  1  0
 20 22  1  0
 22 23  1  0
 22 24  1  0
 22 25  1  0
 25 26  1  0
 25 27  1  0
 25 28  1  0
 28 29  1  0
 28 30  1  0
 28 31  1  0
 31 32  1  0
 31 33  1  0
 31 34  1  0
  9 35  2  0
 35 36  1  0
 35 37  1  0
 37 38  1  0
 37 39  2  0
 39 40  1  0
 40 41  1  0
 41 42  1  0
 41 43  1  0
  2 44  1  0
 44 45  2  0
 45 46  1  0
 45 47  1  0
 47 48  1  0
 47 49  2  0
 49 50  1  0
 49 51  1  0
 51 52  1  0
 52 53  1  0
 53 54  1  0
 53 55  1  0
 53 56  1  0
 51 57  2  0
 57 58  1  0
 41  3  1  0
 57 44  1  0
 39  6  1  0
M  END
>  <UniqueID>  (3) 
3

>  <SMILES>  (3) 
CCCCNCCCOc1ccc2c(c1)C(=O)/C(=C\c1cccc(OC)c1)CO2

>  <Energy>  (3) 
63.175934462053654

>  <Genealogy>  (3) 
CCCCNCCCOc1ccc2c(c1)C(=O)/C(=C\c1cccc(OC)c1)CO2 (cis-trans isomerization)
CCCCNCCCOc1ccc2c(c1)C(=O)/C(=C\c1cccc(OC)c1)CO2 (3D coordinates assigned)
CCCCNCCCOc1ccc2c(c1)C(=O)/C(=C\c1cccc(OC)c1)CO2 (nonaromatic ring conformer: 63.175934462053654 kcal/mol)

>  <smiles>  (3) 
CCCCNCCCOc1ccc2c(c1)C(=O)C(=Cc1cccc(OC)c1)CO2

>  <score_type>  (3) 
oracle

>  <origin>  (3) 
adg

>  <m_score__min__energy>  (3) 
-8.4499999999999993

>  <m_primary>  (3) 
energy

$$$$
3:0
     RDKit          3D

 49 49  0  0  0  0  0  0  0  0999 V2000
   62.5580   33.0810   47.1410 C   0  0  0  0  0  0  0  0  0  0  0  0
   62.4850   31.5870   47.4410 C   0  0  0  0  0  0  0  0  0  0  0  0
   61.0320   31.0920   47.5920 C   0  0  0  0  0  0  0  0  0  0  0  0
   60.4910   30.3950   46.3340 C   0  0  0  0  0  0  0  0  0  0  0  0
   59.0220   30.1540   46.4330 N   0  0  0  0  0  0  0  0  0  0  0  0
   58.7030   29.5040   47.7310 C   0  0  0  0  0  0  0  0  0  0  0  0
   58.6880   27.9600   47.6730 C   0  0  0  0  0  0  0  0  0  0  0  0
   60.0790   27.3120   47.7420 C   0  0  0  0  0  0  0  0  0  0  0  0
   60.4600   26.6080   46.4400 C   0  0  0  0  0  0  0  0  0  0  0  0
   58.5420   29.3240   45.2970 C   0  0  0  0  0  0  0  0  0  0  0  0
   57.7080   30.1340   44.2920 C   0  0  0  0  0  0  0  0  0  0  0  0
   56.9910   31.2240   44.9690 N   0  0  0  0  0  0  0  0  0  0  0  0
   57.3950   32.5410   44.4530 C   0  0  0  0  0  0  0  0  0  0  0  0
   58.1570   33.3260   45.4820 C   0  0  0  0  0  0  0  0  0  0  0  0
   58.8890   34.4750   45.2470 C   0  0  0  0  0  0  0  0  0  0  0  0
   59.4540   34.8120   46.4590 C   0  0  0  0  0  0  0  0  0  0  0  0
   59.0250   33.8490   47.3520 C   0  0  0  0  0  0  0  0  0  0  0  0
   59.4070   33.7650   48.7900 C   0  0  0  0  0  0  0  0  0  0  0  0
   58.2570   32.9750   46.7430 O   0  0  0  0  0  0  0  0  0  0  0  0
   62.5855   33.6438   48.0857 H   0  0  0  0  0  0  0  0  0  0  0  0
   63.4676   33.2944   46.5605 H   0  0  0  0  0  0  0  0  0  0  0  0
   61.6735   33.3821   46.5605 H   0  0  0  0  0  0  0  0  0  0  0  0
   62.9626   31.0367   46.6169 H   0  0  0  0  0  0  0  0  0  0  0  0
   63.0026   31.4091   48.3952 H   0  0  0  0  0  0  0  0  0  0  0  0
   60.9914   30.3803   48.4297 H   0  0  0  0  0  0  0  0  0  0  0  0
   60.4038   31.9777   47.7681 H   0  0  0  0  0  0  0  0  0  0  0  0
   60.6910   31.0307   45.4589 H   0  0  0  0  0  0  0  0  0  0  0  0
   60.9949   29.4223   46.2339 H   0  0  0  0  0  0  0  0  0  0  0  0
   59.4575   29.8152   48.4685 H   0  0  0  0  0  0  0  0  0  0  0  0
   57.6864   29.8223   48.0053 H   0  0  0  0  0  0  0  0  0  0  0  0
   58.0926   27.5891   48.5203 H   0  0  0  0  0  0  0  0  0  0  0  0
   58.2602   27.6852   46.6976 H   0  0  0  0  0  0  0  0  0  0  0  0
   60.8231   28.0946   47.9511 H   0  0  0  0  0  0  0  0  0  0  0  0
   60.0562   26.5537   48.5386 H   0  0  0  0  0  0  0  0  0  0  0  0
   60.9719   25.6621   46.6708 H   0  0  0  0  0  0  0  0  0  0  0  0
   59.5513   26.4001   45.8561 H   0  0  0  0  0  0  0  0  0  0  0  0
   61.1310   27.2551   45.8561 H   0  0  0  0  0  0  0  0  0  0  0  0
   59.4133   28.9023   44.7745 H   0  0  0  0  0  0  0  0  0  0  0  0
   57.8973   28.5331   45.7079 H   0  0  0  0  0  0  0  0  0  0  0  0
   58.3763   30.5606   43.5295 H   0  0  0  0  0  0  0  0  0  0  0  0
   56.9716   29.4644   43.8236 H   0  0  0  0  0  0  0  0  0  0  0  0
   57.1890   31.1910   45.9950 H   0  0  0  0  0  0  0  0  0  0  0  0
   58.0329   32.3978   43.5684 H   0  0  0  0  0  0  0  0  0  0  0  0
   56.4859   33.1035   44.1938 H   0  0  0  0  0  0  0  0  0  0  0  0
   58.9981   35.0094   44.2917 H   0  0  0  0  0  0  0  0  0  0  0  0
   60.1099   35.6693   46.6708 H   0  0  0  0  0  0  0  0  0  0  0  0
   58.5236   33.9593   49.4160 H   0  0  0  0  0  0  0  0  0  0  0  0
   59.7968   32.7597   49.0077 H   0  0  0  0  0  0  0  0  0  0  0  0
   60.1826   34.5141   49.0077 H   0  0  0  0  0  0  0  0  0  0  0  0
  1  2  1  0
  2  3  1  0
  3  4  1  0
  4  5  1  0
  5  6  1  0
  6  7  1  0
  7  8  1  0
  8  9  1  0
  5 10  1  0
 10 11  1  0
 11 12  1  0
 12 13  1  0
 13 14  1  0
 14 15  2  0
 15 16  1  0
 16 17  2  0
 17 18  1  0
 17 19  1  0
 19 14  1  0
  1 20  1  0
  1 21  1  0
  1 22  1  0
  2 23  1  0
  2 24  1  0
  3 25  1  0
  3 26  1  0
  4 27  1  0
  4 28  1  0
  6 29  1  0
  6 30  1  0
  7 31  1  0
  7 32  1  0
  8 33  1  0
  8 34  1  0
  9 35  1  0
  9 36  1  0
  9 37  1  0
 10 38  1  0
 10 39  1  0
 11 40  1  0
 11 41  1  0
 12 42  1  0
 13 43  1  0
 13 44  1  0
 15 45  1  0
 16 46  1  0
 18 47  1  0
 18 48  1  0
 18 49  1  0
M  END
>  <UniqueID>  (4) 
4

>  <SMILES>  (4) 
CCCCN(CCCC)CCNCc1ccc(C)o1

>  <Energy>  (4) 
60.91623570182744

>  <Genealogy>  (4) 
CCCCN(CCCC)CCNCc1ccc(C)o1 (3D coordinates assigned)
CCCCN(CCCC)CCNCc1ccc(C)o1 (optimized conformer: 60.91623570182744 kcal/mol)

>  <smiles>  (4) 
CCCCN(CCCC)CCNCc1ccc(C)o1

>  <score_type>  (4) 
oracle

>  <origin>  (4) 
adg

>  <m_score__min__energy>  (4) 
-6.54

>  <m_primary>  (4) 
energy

$$$$
4:0
     RDKit          3D

 24 23  0  0  0  0  0  0  0  0999 V2000
   59.3000   29.0370   44.8670 C   0  0  0  0  0  0  0  0  0  0  0  0
   58.5600   30.0110   45.7900 C   0  0  0  0  0  0  0  0  0  0  0  0
   57.5020   30.7830   45.0630 N   0  0  0  0  0  0  0  0  0  0  0  0
   57.9190   32.2060   44.9340 C   0  0  0  0  0  0  0  0  0  0  0  0
   57.3010   33.1200   46.0030 C   0  0  0  0  0  0  0  0  0  0  0  0
   57.2260   30.1940   43.7230 C   0  0  0  0  0  0  0  0  0  0  0  0
   55.7570   29.7710   43.5360 C   0  0  0  0  0  0  0  0  0  0  0  0
   55.1840   29.4220   44.7650 O   0  0  0  0  0  0  0  0  0  0  0  0
   59.8550   28.3065   45.4740 H   0  0  0  0  0  0  0  0  0  0  0  0
   58.5730   28.5093   44.2322 H   0  0  0  0  0  0  0  0  0  0  0  0
   60.0033   29.5960   44.2322 H   0  0  0  0  0  0  0  0  0  0  0  0
   58.0871   29.4398   46.6024 H   0  0  0  0  0  0  0  0  0  0  0  0
   59.2944   30.7299   46.1824 H   0  0  0  0  0  0  0  0  0  0  0  0
   56.6130   30.7720   45.6170 H   0  0  0  0  0  0  0  0  0  0  0  0
   59.0143   32.2580   45.0211 H   0  0  0  0  0  0  0  0  0  0  0  0
   57.5634   32.5622   43.9559 H   0  0  0  0  0  0  0  0  0  0  0  0
   57.5577   32.7403   47.0030 H   0  0  0  0  0  0  0  0  0  0  0  0
   57.6954   34.1401   45.8857 H   0  0  0  0  0  0  0  0  0  0  0  0
   56.2074   33.1340   45.8857 H   0  0  0  0  0  0  0  0  0  0  0  0
   57.4750   30.9411   42.9549 H   0  0  0  0  0  0  0  0  0  0  0  0
   57.8411   29.2866   43.6323 H   0  0  0  0  0  0  0  0  0  0  0  0
   55.1927   30.6079   43.0988 H   0  0  0  0  0  0  0  0  0  0  0  0
   55.7219   28.8979   42.8678 H   0  0  0  0  0  0  0  0  0  0  0  0
   54.3280   28.9650   44.5510 H   0  0  0  0  0  0  0  0  0  0  0  0
  1  2  1  0
  2  3  1  0
  3  4  1  0
  4  5  1  0
  3  6  1  0
  6  7  1  0
  7  8  1  0
  1  9  1  0
  1 10  1  0
  1 11  1  0
  2 12  1  0
  2 13  1  0
  3 14  1  0
  4 15  1  0
  4 16  1  0
  5 17  1  0
  5 18  1  0
  5 19  1  0
  6 20  1  0
  6 21  1  0
  7 22  1  0
  7 23  1  0
  8 24  1  0
M  CHG  1   3   1
M  END
>  <UniqueID>  (5) 
5

>  <SMILES>  (5) 
CC[NH+](CC)CCO

>  <Energy>  (5) 
22.895582121820638

>  <Genealogy>  (5) 
CC[NH+](CC)CCO (protonated)
CC[NH+](CC)CCO (3D coordinates assigned)
CC[NH+](CC)CCO (optimized conformer: 22.895582121820638 kcal/mol)

>  <smiles>  (5) 
CCN(CC)CC[O-]

>  <score_type>  (5) 
oracle

>  <origin>  (5) 
adg

>  <m_score__min__energy>  (5) 
-2.3399999999999999

>  <m_primary>  (5) 
energy

$$$$
5:0
     RDKit          3D

 52 54  0  0  0  0  0  0  0  0999 V2000
   61.9420   33.7480   46.3770 C   0  0  0  0  0  0  0  0  0  0  0  0
   63.4080   33.8330   46.7950 C   0  0  0  0  0  0  0  0  0  0  0  0
   63.7740   32.6900   47.6490 N   0  0  0  0  0  0  0  0  0  0  0  0
   64.3450   33.1280   48.9460 C   0  0  0  0  0  0  0  0  0  0  0  0
   63.3010   33.1620   50.0820 C   0  0  0  0  0  0  0  0  0  0  0  0
   61.9960   32.6680   49.6210 N   0  0  0  0  0  0  0  0  0  0  0  0
   61.0550   33.7830   49.4580 C   0  0  0  0  0  0  0  0  0  0  0  0
   59.6950   33.4670   50.1040 C   0  0  0  0  0  0  0  0  0  0  0  0
   58.9350   32.3000   49.4520 C   0  0  0  0  0  0  0  0  0  0  0  0
   59.6980   31.6930   48.3610 N   0  0  0  0  0  0  0  0  0  0  0  0
   59.1380   31.4410   47.0590 C   0  0  0  0  0  0  0  0  0  0  0  0
   59.1360   30.1450   46.4980 C   0  0  0  0  0  0  0  0  0  0  0  0
   59.6860   29.0510   47.2030 C   0  0  0  0  0  0  0  0  0  0  0  0
   59.6920   27.7760   46.6480 C   0  0  0  0  0  0  0  0  0  0  0  0
   59.1660   27.5660   45.3780 C   0  0  0  0  0  0  0  0  0  0  0  0
   58.6040   28.6250   44.6620 C   0  0  0  0  0  0  0  0  0  0  0  0
   58.5460   29.9320   45.2100 C   0  0  0  0  0  0  0  0  0  0  0  0
   57.9500   30.9820   44.5280 N   0  0  0  0  0  0  0  0  0  0  0  0
   57.2150   30.7480   43.2670 C   0  0  0  0  0  0  0  0  0  0  0  0
   58.0610   32.2540   45.0370 C   0  0  0  0  0  0  0  0  0  0  0  0
   57.6700   33.4500   44.3970 C   0  0  0  0  0  0  0  0  0  0  0  0
   57.9180   34.5880   45.1600 C   0  0  0  0  0  0  0  0  0  0  0  0
   58.6410   34.1290   46.6070 S   0  0  0  0  0  0  0  0  0  0  0  0
   58.6250   32.4780   46.2850 C   0  0  0  0  0  0  0  0  0  0  0  0
   61.3065   33.7112   47.2741 H   0  0  0  0  0  0  0  0  0  0  0  0
   61.6797   34.6324   45.7779 H   0  0  0  0  0  0  0  0  0  0  0  0
   61.7836   32.8392   45.7779 H   0  0  0  0  0  0  0  0  0  0  0  0
   64.0407   33.8284   45.8952 H   0  0  0  0  0  0  0  0  0  0  0  0
   63.5597   34.7620   47.3641 H   0  0  0  0  0  0  0  0  0  0  0  0
   62.9450   32.0680   47.7990 H   0  0  0  0  0  0  0  0  0  0  0  0
   64.4990   32.1290   47.1400 H   0  0  0  0  0  0  0  0  0  0  0  0
   65.1484   32.4318   49.2286 H   0  0  0  0  0  0  0  0  0  0  0  0
   64.7197   34.1535   48.8118 H   0  0  0  0  0  0  0  0  0  0  0  0
   63.6518   32.5290   50.9104 H   0  0  0  0  0  0  0  0  0  0  0  0
   63.1812   34.2041   50.4132 H   0  0  0  0  0  0  0  0  0  0  0  0
   61.6080   32.0490   50.3740 H   0  0  0  0  0  0  0  0  0  0  0  0
   61.4774   34.6805   49.9334 H   0  0  0  0  0  0  0  0  0  0  0  0
   60.8975   33.9494   48.3821 H   0  0  0  0  0  0  0  0  0  0  0  0
   59.8667   33.2171   51.1614 H   0  0  0  0  0  0  0  0  0  0  0  0
   59.0694   34.3617   49.9695 H   0  0  0  0  0  0  0  0  0  0  0  0
   58.7364   31.5340   50.2161 H   0  0  0  0  0  0  0  0  0  0  0  0
   57.9977   32.6954   49.0334 H   0  0  0  0  0  0  0  0  0  0  0  0
   60.6560   31.3350   48.5770 H   0  0  0  0  0  0  0  0  0  0  0  0
   60.1148   29.2099   48.2034 H   0  0  0  0  0  0  0  0  0  0  0  0
   60.1134   26.9324   47.2144 H   0  0  0  0  0  0  0  0  0  0  0  0
   59.1928   26.5596   44.9347 H   0  0  0  0  0  0  0  0  0  0  0  0
   58.1993   28.4425   43.6556 H   0  0  0  0  0  0  0  0  0  0  0  0
   56.1897   30.4216   43.4954 H   0  0  0  0  0  0  0  0  0  0  0  0
   57.1817   31.6800   42.6836 H   0  0  0  0  0  0  0  0  0  0  0  0
   57.7267   29.9683   42.6836 H   0  0  0  0  0  0  0  0  0  0  0  0
   57.2150   33.4799   43.3959 H   0  0  0  0  0  0  0  0  0  0  0  0
   57.6795   35.6203   44.8640 H   0  0  0  0  0  0  0  0  0  0  0  0
  1  2  1  0
  2  3  1  0
  3  4  1  0
  4  5  1  0
  5  6  1  0
  6  7  1  0
  7  8  1  0
  8  9  1  0
  9 10  1  0
 10 11  1  0
 11 12  2  0
 12 13  1  0
 13 14  2  0
 14 15  1  0
 15 16  2  0
 16 17  1  0
 17 18  2  0
 18 19  1  0
 18 20  1  0
 20 21  1  0
 21 22  2  0
 22 23  1  0
 23 24  1  0
 24 11  1  0
 17 12  1  0
 24 20  2  0
  1 25  1  0
  1 26  1  0
  1 27  1  0
  2 28  1  0
  2 29  1  0
  3 30  1  0
  3 31  1  0
  4 32  1  0
  4 33  1  0
  5 34  1  0
  5 35  1  0
  6 36  1  0
  7 37  1  0
  7 38  1  0
  8 39  1  0
  8 40  1  0
  9 41  1  0
  9 42  1  0
 10 43  1  0
 13 44  1  0
 14 45  1  0
 15 46  1  0
 16 47  1  0
 19 48  1  0
 19 49  1  0
 19 50  1  0
 21 51  1  0
 22 52  1  0
M  CHG  2   3   1  18   1
M  END
>  <UniqueID>  (6) 
6

>  <SMILES>  (6) 
CC[NH2+]CCNCCCNc1c2ccccc2[n+](C)c2ccsc12

>  <Energy>  (6) 
89.96621539911074

>  <Genealogy>  (6) 
CC[NH2+]CCNCCCNc1c2ccccc2[n+](C)c2ccsc12 (protonated)
CC[NH2+]CCNCCCNc1c2ccccc2[n+](C)c2ccsc12 (3D coordinates assigned)
CC[NH2+]CCNCCCNc1c2ccccc2[n+](C)c2ccsc12 (optimized conformer: 89.96621539911074 kcal/mol)

>  <smiles>  (6) 
CCNCCNCCCNc1c2ccccc2[n+](C)c2ccsc12

>  <score_type>  (6) 
oracle

>  <origin>  (6) 
adg

>  <m_score__min__energy>  (6) 
-4.7000000000000002

>  <m_primary>  (6) 
energy

$$$$
6:0
     RDKit          3D

 56 59  0  0  1  0  0  0  0  0999 V2000
   62.7720   31.9290   48.6900 C   0  0  0  0  0  0  0  0  0  0  0  0
   62.8900   33.3050   48.2770 N   0  0  0  0  0  0  0  0  0  0  0  0
   62.8130   33.5300   46.8760 C   0  0  0  0  0  0  0  0  0  0  0  0
   61.4090   33.4790   46.3810 C   0  0  0  0  0  0  0  0  0  0  0  0
   60.4120   34.0600   47.1790 N   0  0  0  0  0  0  0  0  0  0  0  0
   59.6120   35.0920   46.6430 C   0  0  0  0  0  0  0  0  0  0  0  0
   58.4210   34.5870   45.8370 C   0  0  0  0  0  0  0  0  0  0  0  0
   58.2520   33.1880   45.9460 N   0  0  0  0  0  0  0  0  0  0  0  0
   57.4210   32.5050   45.0340 C   0  0  0  0  0  0  0  0  0  0  0  0
   57.9170   31.1340   44.6340 C   0  0  0  0  0  0  0  0  0  0  0  0
   59.2180   30.9160   45.2390 N   0  0  0  0  0  0  0  0  0  0  0  0
   59.2880   30.4220   46.4280 C   0  0  0  0  0  0  0  0  0  0  0  0
   59.3720   31.1430   47.5470 N   0  0  0  0  0  0  0  0  0  0  0  0
   59.4800   30.5180   48.7410 C   0  0  0  0  0  0  0  0  0  0  0  0
   59.5820   31.2690   50.0290 C   0  0  0  0  0  0  0  0  0  0  0  0
   58.6740   30.9440   51.1600 C   0  0  0  0  0  0  0  0  0  0  0  0
   58.4190   32.1780   50.2860 C   0  0  0  0  0  0  0  0  0  0  0  0
   59.5070   29.1700   48.8440 N   0  0  0  0  0  0  0  0  0  0  0  0
   59.4240   28.3910   47.7530 C   0  0  0  0  0  0  0  0  0  0  0  0
   59.4480   26.9930   47.8320 C   0  0  0  0  0  0  0  0  0  0  0  0
   59.3620   26.2110   46.7000 C   0  0  0  0  0  0  0  0  0  0  0  0
   59.2500   26.8610   45.4920 C   0  0  0  0  0  0  0  0  0  0  0  0
   59.2240   28.2380   45.3760 C   0  0  0  0  0  0  0  0  0  0  0  0
   59.3120   29.0280   46.5240 C   0  0  0  0  0  0  0  0  0  0  0  0
   60.5820   34.0660   48.5930 C   0  0  0  0  0  0  0  0  0  0  0  0
   62.0210   34.1860   49.0240 C   0  0  0  0  0  0  0  0  0  0  0  0
   62.7674   31.8750   49.7887 H   0  0  0  0  0  0  0  0  0  0  0  0
   61.8344   31.5077   48.2982 H   0  0  0  0  0  0  0  0  0  0  0  0
   63.6242   31.3542   48.2982 H   0  0  0  0  0  0  0  0  0  0  0  0
   63.2333   34.5214   46.6515 H   0  0  0  0  0  0  0  0  0  0  0  0
   63.3812   32.7346   46.3715 H   0  0  0  0  0  0  0  0  0  0  0  0
   61.3864   33.9875   45.4059 H   0  0  0  0  0  0  0  0  0  0  0  0
   61.1604   32.4076   46.3638 H   0  0  0  0  0  0  0  0  0  0  0  0
   59.2341   35.7058   47.4739 H   0  0  0  0  0  0  0  0  0  0  0  0
   60.2475   35.6663   45.9528 H   0  0  0  0  0  0  0  0  0  0  0  0
   57.5102   35.0827   46.2040 H   0  0  0  0  0  0  0  0  0  0  0  0
   58.6082   34.8212   44.7786 H   0  0  0  0  0  0  0  0  0  0  0  0
   59.1390   32.7350   46.1840 H   0  0  0  0  0  0  0  0  0  0  0  0
   56.4286   32.3898   45.4943 H   0  0  0  0  0  0  0  0  0  0  0  0
   57.4036   33.1100   44.1155 H   0  0  0  0  0  0  0  0  0  0  0  0
   57.2114   30.3674   44.9868 H   0  0  0  0  0  0  0  0  0  0  0  0
   57.9968   31.0687   43.5388 H   0  0  0  0  0  0  0  0  0  0  0  0
   59.3430   32.1670   47.4980 H   0  0  0  0  0  0  0  0  0  0  0  0
   60.6773   31.3552   49.9759 H   0  0  0  0  0  0  0  0  0  0  0  0
   58.0029   30.0748   51.0962 H   0  0  0  0  0  0  0  0  0  0  0  0
   58.8024   30.7631   52.2374 H   0  0  0  0  0  0  0  0  0  0  0  0
   57.5671   32.1972   49.5904 H   0  0  0  0  0  0  0  0  0  0  0  0
   58.2891   33.2552   50.4668 H   0  0  0  0  0  0  0  0  0  0  0  0
   59.5372   26.5097   48.8161 H   0  0  0  0  0  0  0  0  0  0  0  0
   59.3821   25.1128   46.7597 H   0  0  0  0  0  0  0  0  0  0  0  0
   59.1778   26.2563   44.5760 H   0  0  0  0  0  0  0  0  0  0  0  0
   59.1346   28.7085   44.3857 H   0  0  0  0  0  0  0  0  0  0  0  0
   60.0221   34.9172   49.0076 H   0  0  0  0  0  0  0  0  0  0  0  0
   60.2109   33.1008   48.9680 H   0  0  0  0  0  0  0  0  0  0  0  0
   62.3515   35.2238   48.8700 H   0  0  0  0  0  0  0  0  0  0  0  0
   62.0809   33.8999   50.0845 H   0  0  0  0  0  0  0  0  0  0  0  0
  1  2  1  0
  2  3  1  0
  3  4  1  0
  4  5  1  0
  5  6  1  0
  6  7  1  0
  7  8  1  0
  8  9  1  0
  9 10  1  0
 10 11  1  0
 11 12  2  0
 12 13  1  0
 13 14  1  0
 14 15  1  0
 15 16  1  0
 16 17  1  0
 14 18  2  0
 18 19  1  0
 19 20  2  0
 20 21  1  0
 21 22  2  0
 22 23  1  0
 23 24  2  0
  5 25  1  0
 25 26  1  0
 26  2  1  0
 24 12  1  0
 17 15  1  0
 24 19  1  0
  1 27  1  0
  1 28  1  0
  1 29  1  0
  3 30  1  0
  3 31  1  0
  4 32  1  0
  4 33  1  0
  6 34  1  0
  6 35  1  0
  7 36  1  0
  7 37  1  0
  8 38  1  0
  9 39  1  0
  9 40  1  0
 10 41  1  0
 10 42  1  0
 13 43  1  0
 15 44  1  0
 16 45  1  0
 16 46  1  0
 17 47  1  0
 17 48  1  0
 20 49  1  0
 21 50  1  0
 22 51  1  0
 23 52  1  0
 25 53  1  0
 25 54  1  0
 26 55  1  0
 26 56  1  0
M  END
>  <smiles>  (7) 
CN1CCN(CCNCCN=c2[nH]c(C3CC3)nc3ccccc23)CC1

>  <score_type>  (7) 
oracle

>  <origin>  (7) 
adg

>  <m_score__min__energy>  (7) 
-7.6699999999999999

>  <m_primary>  (7) 
energy

$$$$
7:0
     RDKit          3D

 46 46  0  0  0  0  0  0  0  0999 V2000
   63.7270   33.4340   48.0610 C   0  0  0  0  0  0  0  0  0  0  0  0
   62.2440   33.7880   48.0080 C   0  0  0  0  0  0  0  0  0  0  0  0
   61.6910   33.6490   46.5830 C   0  0  0  0  0  0  0  0  0  0  0  0
   60.2090   33.6920   46.5770 N   0  0  0  0  0  0  0  0  0  0  0  0
   59.6810   35.0030   46.1270 C   0  0  0  0  0  0  0  0  0  0  0  0
   58.8140   34.8270   44.8740 C   0  0  0  0  0  0  0  0  0  0  0  0
   57.5650   33.9900   45.1350 C   0  0  0  0  0  0  0  0  0  0  0  0
   59.5870   33.2260   47.8420 C   0  0  0  0  0  0  0  0  0  0  0  0
   59.0870   31.8040   47.7750 C   0  0  0  0  0  0  0  0  0  0  0  0
   58.8230   31.1870   48.8430 O   0  0  0  0  0  0  0  0  0  0  0  0
   58.9580   31.1460   46.5050 N   0  0  0  0  0  0  0  0  0  0  0  0
   58.5050   29.7910   46.3690 C   0  0  0  0  0  0  0  0  0  0  0  0
   59.2160   28.7710   47.0120 C   0  0  0  0  0  0  0  0  0  0  0  0
   58.8060   27.4420   46.9040 C   0  0  0  0  0  0  0  0  0  0  0  0
   57.6900   27.1040   46.1220 C   0  0  0  0  0  0  0  0  0  0  0  0
   57.2130   25.6740   46.0490 C   0  0  0  0  0  0  0  0  0  0  0  0
   57.6550   24.9520   47.1440 F   0  0  0  0  0  0  0  0  0  0  0  0
   57.6880   25.0580   44.9040 F   0  0  0  0  0  0  0  0  0  0  0  0
   55.8300   25.6580   46.0280 F   0  0  0  0  0  0  0  0  0  0  0  0
   56.9740   28.1260   45.4750 C   0  0  0  0  0  0  0  0  0  0  0  0
   57.3880   29.4700   45.5720 C   0  0  0  0  0  0  0  0  0  0  0  0
   56.7290   30.4990   44.8800 O   0  0  0  0  0  0  0  0  0  0  0  0
   57.0140   30.8850   43.5400 C   0  0  0  0  0  0  0  0  0  0  0  0
   64.0484   33.3573   49.1102 H   0  0  0  0  0  0  0  0  0  0  0  0
   63.8924   32.4711   47.5555 H   0  0  0  0  0  0  0  0  0  0  0  0
   64.3095   34.2183   47.5555 H   0  0  0  0  0  0  0  0  0  0  0  0
   61.6896   33.1120   48.6756 H   0  0  0  0  0  0  0  0  0  0  0  0
   62.1237   34.8335   48.3280 H   0  0  0  0  0  0  0  0  0  0  0  0
   62.0765   34.4743   45.9663 H   0  0  0  0  0  0  0  0  0  0  0  0
   62.0132   32.6787   46.1772 H   0  0  0  0  0  0  0  0  0  0  0  0
   59.0724   35.4439   46.9302 H   0  0  0  0  0  0  0  0  0  0  0  0
   60.5259   35.6653   45.8869 H   0  0  0  0  0  0  0  0  0  0  0  0
   58.5038   35.8206   44.5183 H   0  0  0  0  0  0  0  0  0  0  0  0
   59.4185   34.2967   44.1234 H   0  0  0  0  0  0  0  0  0  0  0  0
   57.4122   33.8876   46.2195 H   0  0  0  0  0  0  0  0  0  0  0  0
   56.6912   34.4856   44.6868 H   0  0  0  0  0  0  0  0  0  0  0  0
   57.6912   32.9934   44.6868 H   0  0  0  0  0  0  0  0  0  0  0  0
   60.3357   33.2950   48.6449 H   0  0  0  0  0  0  0  0  0  0  0  0
   58.7145   33.8687   48.0311 H   0  0  0  0  0  0  0  0  0  0  0  0
   59.3770   31.6050   45.6660 H   0  0  0  0  0  0  0  0  0  0  0  0
   60.1064   29.0197   47.6081 H   0  0  0  0  0  0  0  0  0  0  0  0
   59.3604   26.6540   47.4348 H   0  0  0  0  0  0  0  0  0  0  0  0
   56.0799   27.8740   44.8859 H   0  0  0  0  0  0  0  0  0  0  0  0
   57.6674   31.7699   43.5444 H   0  0  0  0  0  0  0  0  0  0  0  0
   57.5200   30.0582   43.0200 H   0  0  0  0  0  0  0  0  0  0  0  0
   56.0749   31.1252   43.0200 H   0  0  0  0  0  0  0  0  0  0  0  0
  1  2  1  0
  2  3  1  0
  3  4  1  0
  4  5  1  0
  5  6  1  0
  6  7  1  0
  4  8  1  0
  8  9  1  0
  9 10  2  0
  9 11  1  0
 11 12  1  0
 12 13  2  0
 13 14  1  0
 14 15  2  0
 15 16  1  0
 16 17  1  0
 16 18  1  0
 16 19  1  0
 15 20  1  0
 20 21  2  0
 21 22  1  0
 22 23  1  0
 21 12  1  0
  1 24  1  0
  1 25  1  0
  1 26  1  0
  2 27  1  0
  2 28  1  0
  3 29  1  0
  3 30  1  0
  5 31  1  0
  5 32  1  0
  6 33  1  0
  6 34  1  0
  7 35  1  0
  7 36  1  0
  7 37  1  0
  8 38  1  0
  8 39  1  0
 11 40  1  0
 13 41  1  0
 14 42  1  0
 20 43  1  0
 23 44  1  0
 23 45  1  0
 23 46  1  0
M  END
>  <UniqueID>  (8) 
7

>  <SMILES>  (8) 
CCCN(CCC)CC(=O)Nc1ccc(C(F)(F)F)cc1OC

>  <Energy>  (8) 
44.78470244769307

>  <Genealogy>  (8) 
CCCN(CCC)CC(=O)Nc1ccc(C(F)(F)F)cc1OC (3D coordinates assigned)
CCCN(CCC)CC(=O)Nc1ccc(C(F)(F)F)cc1OC (optimized conformer: 44.78470244769307 kcal/mol)

>  <smiles>  (8) 
CCCN(CCC)CC(=O)Nc1ccc(C(F)(F)F)cc1OC

>  <score_type>  (8) 
oracle

>  <origin>  (8) 
adg

>  <m_score__min__energy>  (8) 
-5.5199999999999996

>  <m_primary>  (8) 
energy

$$$$
8:0
     RDKit          3D

 46 48  0  0  0  0  0  0  0  0999 V2000
   57.3960   31.3290   43.0010 C   0  0  0  0  0  0  0  0  0  0  0  0
   56.5750   30.1350   43.4620 C   0  0  0  0  0  0  0  0  0  0  0  0
   56.5790   30.0890   44.8740 O   0  0  0  0  0  0  0  0  0  0  0  0
   57.2640   28.9380   45.3330 C   0  0  0  0  0  0  0  0  0  0  0  0
   58.7700   29.1850   45.3360 C   0  0  0  0  0  0  0  0  0  0  0  0
   59.3820   28.3150   46.2660 O   0  0  0  0  0  0  0  0  0  0  0  0
   60.1780   29.0460   47.1790 C   0  0  0  0  0  0  0  0  0  0  0  0
   59.3940   30.2440   47.7160 C   0  0  0  0  0  0  0  0  0  0  0  0
   59.9480   31.4930   47.1840 N   0  0  0  0  0  0  0  0  0  0  0  0
   59.2750   32.4810   46.5430 C   0  0  0  0  0  0  0  0  0  0  0  0
   60.1290   33.5180   46.2040 C   0  0  0  0  0  0  0  0  0  0  0  0
   61.3630   33.1730   46.7120 C   0  0  0  0  0  0  0  0  0  0  0  0
   62.5780   33.8580   46.7100 C   0  0  0  0  0  0  0  0  0  0  0  0
   63.6780   33.2420   47.3310 C   0  0  0  0  0  0  0  0  0  0  0  0
   63.5400   31.9740   47.9390 C   0  0  0  0  0  0  0  0  0  0  0  0
   62.3010   31.3080   47.9300 C   0  0  0  0  0  0  0  0  0  0  0  0
   61.2210   31.9370   47.3000 C   0  0  0  0  0  0  0  0  0  0  0  0
   59.6970   34.7950   45.5490 C   0  0  0  0  0  0  0  0  0  0  0  0
   58.3250   34.6110   44.8720 C   0  0  0  0  0  0  0  0  0  0  0  0
   57.3310   33.8750   45.7940 C   0  0  0  0  0  0  0  0  0  0  0  0
   57.8230   32.4580   46.1500 C   0  0  0  0  0  0  0  0  0  0  0  0
   57.7721   31.8760   43.8781 H   0  0  0  0  0  0  0  0  0  0  0  0
   58.2450   30.9785   42.3957 H   0  0  0  0  0  0  0  0  0  0  0  0
   56.7648   31.9963   42.3957 H   0  0  0  0  0  0  0  0  0  0  0  0
   55.5414   30.2367   43.0997 H   0  0  0  0  0  0  0  0  0  0  0  0
   57.0102   29.2083   43.0597 H   0  0  0  0  0  0  0  0  0  0  0  0
   56.9328   28.7019   46.3550 H   0  0  0  0  0  0  0  0  0  0  0  0
   57.0404   28.0963   44.6610 H   0  0  0  0  0  0  0  0  0  0  0  0
   59.1760   28.9943   44.3316 H   0  0  0  0  0  0  0  0  0  0  0  0
   58.9726   30.2288   45.6179 H   0  0  0  0  0  0  0  0  0  0  0  0
   60.4638   28.3929   48.0167 H   0  0  0  0  0  0  0  0  0  0  0  0
   61.0794   29.4074   46.6624 H   0  0  0  0  0  0  0  0  0  0  0  0
   58.3409   30.1550   47.4111 H   0  0  0  0  0  0  0  0  0  0  0  0
   59.4680   30.2579   48.8134 H   0  0  0  0  0  0  0  0  0  0  0  0
   62.6721   34.8472   46.2382 H   0  0  0  0  0  0  0  0  0  0  0  0
   64.6533   33.7506   47.3438 H   0  0  0  0  0  0  0  0  0  0  0  0
   64.4085   31.5038   48.4233 H   0  0  0  0  0  0  0  0  0  0  0  0
   62.1844   30.3222   48.4040 H   0  0  0  0  0  0  0  0  0  0  0  0
   59.6232   35.5861   46.3097 H   0  0  0  0  0  0  0  0  0  0  0  0
   60.4382   35.0743   44.7857 H   0  0  0  0  0  0  0  0  0  0  0  0
   57.9146   35.6005   44.6222 H   0  0  0  0  0  0  0  0  0  0  0  0
   58.4672   34.0044   43.9654 H   0  0  0  0  0  0  0  0  0  0  0  0
   57.2102   34.4537   46.7217 H   0  0  0  0  0  0  0  0  0  0  0  0
   56.3741   33.7808   45.2598 H   0  0  0  0  0  0  0  0  0  0  0  0
   57.2280   32.0698   46.9898 H   0  0  0  0  0  0  0  0  0  0  0  0
   57.7062   31.8116   45.2677 H   0  0  0  0  0  0  0  0  0  0  0  0
  1  2  1  0
  2  3  1  0
  3  4  1  0
  4  5  1  0
  5  6  1  0
  6  7  1  0
  7  8  1  0
  8  9  1  0
  9 10  1  0
 10 11  2  0
 11 12  1  0
 12 13  2  0
 13 14  1  0
 14 15  2  0
 15 16  1  0
 16 17  2  0
 11 18  1  0
 18 19  1  0
 19 20  1  0
 20 21  1  0
 17  9  1  0
 21 10  1  0
 17 12  1  0
  1 22  1  0
  1 23  1  0
  1 24  1  0
  2 25  1  0
  2 26  1  0
  4 27  1  0
  4 28  1  0
  5 29  1  0
  5 30  1  0
  7 31  1  0
  7 32  1  0
  8 33  1  0
  8 34  1  0
 13 35  1  0
 14 36  1  0
 15 37  1  0
 16 38  1  0
 18 39  1  0
 18 40  1  0
 19 41  1  0
 19 42  1  0
 20 43  1  0
 20 44  1  0
 21 45  1  0
 21 46  1  0
M  END
>  <UniqueID>  (9) 
8

>  <SMILES>  (9) 
CCOCCOCCn1c2c(c3ccccc31)CCCC2

>  <Energy>  (9) 
76.18237998304639

>  <Genealogy>  (9) 
CCOCCOCCn1c2c(c3ccccc31)CCCC2 (3D coordinates assigned)
CCOCCOCCn1c2c(c3ccccc31)CCCC2 (nonaromatic ring conformer: 76.18237998304639 kcal/mol)

>  <smiles>  (9) 
CCOCCOCCn1c2c(c3ccccc31)CCCC2

>  <score_type>  (9) 
oracle

>  <origin>  (9) 
adg

>  <m_score__min__energy>  (9) 
-7.1699999999999999

>  <m_primary>  (9) 
energy

$$$$
9:0
     RDKit          3D

 43 45  0  0  0  0  0  0  0  0999 V2000
   58.9130   33.4510   51.7970 C   0  0  0  0  0  0  0  0  0  0  0  0
   57.8460   32.3670   51.6940 C   0  0  0  0  0  0  0  0  0  0  0  0
   57.8730   31.7700   50.4110 O   0  0  0  0  0  0  0  0  0  0  0  0
   59.1860   31.3800   50.0490 C   0  0  0  0  0  0  0  0  0  0  0  0
   59.4470   31.6440   48.5530 C   0  0  1  0  0  0  0  0  0  0  0  0
   58.4800   32.7280   48.0190 C   0  0  0  0  0  0  0  0  0  0  0  0
   58.9030   33.1940   46.6860 N   0  0  0  0  0  0  0  0  0  0  0  0
   57.9050   33.4720   45.6910 C   0  0  0  0  0  0  0  0  0  0  0  0
   57.2720   34.5610   45.7270 O   0  0  0  0  0  0  0  0  0  0  0  0
   57.5870   32.4920   44.6410 C   0  0  0  0  0  0  0  0  0  0  0  0
   57.9050   32.5970   43.2990 C   0  0  0  0  0  0  0  0  0  0  0  0
   57.4270   31.4450   42.7090 C   0  0  0  0  0  0  0  0  0  0  0  0
   56.8510   30.7150   43.7290 C   0  0  0  0  0  0  0  0  0  0  0  0
   56.2160   29.3740   43.5840 C   0  0  0  0  0  0  0  0  0  0  0  0
   56.9650   31.3570   44.8680 O   0  0  0  0  0  0  0  0  0  0  0  0
   60.2520   33.7620   46.5240 C   0  0  0  0  0  0  0  0  0  0  0  0
   61.2290   32.9830   47.3490 C   0  0  0  0  0  0  0  0  0  0  0  0
   60.8700   32.0680   48.3010 C   0  0  0  0  0  0  0  0  0  0  0  0
   61.9760   31.5020   48.8290 N   0  0  0  0  0  0  0  0  0  0  0  0
   62.9950   32.1350   48.2020 C   0  0  0  0  0  0  0  0  0  0  0  0
   62.5690   33.0530   47.3080 N   0  0  0  0  0  0  0  0  0  0  0  0
   63.3920   33.8380   46.3960 C   0  0  0  0  0  0  0  0  0  0  0  0
   59.1205   33.6618   52.8565 H   0  0  0  0  0  0  0  0  0  0  0  0
   59.8343   33.1066   51.3044 H   0  0  0  0  0  0  0  0  0  0  0  0
   58.5541   34.3667   51.3044 H   0  0  0  0  0  0  0  0  0  0  0  0
   58.0364   31.5972   52.4563 H   0  0  0  0  0  0  0  0  0  0  0  0
   56.8576   32.8220   51.8557 H   0  0  0  0  0  0  0  0  0  0  0  0
   59.9095   31.9533   50.6472 H   0  0  0  0  0  0  0  0  0  0  0  0
   59.2970   30.3024   50.2397 H   0  0  0  0  0  0  0  0  0  0  0  0
   59.2712   30.6987   48.0187 H   0  0  0  0  0  0  0  0  0  0  0  0
   57.4670   32.3050   47.9488 H   0  0  0  0  0  0  0  0  0  0  0  0
   58.4902   33.5825   48.7116 H   0  0  0  0  0  0  0  0  0  0  0  0
   58.4304   33.4273   42.8044 H   0  0  0  0  0  0  0  0  0  0  0  0
   57.4915   31.1664   41.6468 H   0  0  0  0  0  0  0  0  0  0  0  0
   56.0167   28.9530   44.5805 H   0  0  0  0  0  0  0  0  0  0  0  0
   55.2697   29.4741   43.0322 H   0  0  0  0  0  0  0  0  0  0  0  0
   56.8931   28.7054   43.0322 H   0  0  0  0  0  0  0  0  0  0  0  0
   60.5454   33.7116   45.4650 H   0  0  0  0  0  0  0  0  0  0  0  0
   60.2485   34.8106   46.8564 H   0  0  0  0  0  0  0  0  0  0  0  0
   64.0564   31.9242   48.3995 H   0  0  0  0  0  0  0  0  0  0  0  0
   64.0685   34.4832   46.9757 H   0  0  0  0  0  0  0  0  0  0  0  0
   63.9842   33.1616   45.7621 H   0  0  0  0  0  0  0  0  0  0  0  0
   62.7444   34.4615   45.7621 H   0  0  0  0  0  0  0  0  0  0  0  0
  1  2  1  0
  2  3  1  0
  3  4  1  0
  4  5  1  0
  5  6  1  0
  6  7  1  0
  7  8  1  0
  8  9  2  0
  8 10  1  0
 10 11  2  0
 11 12  1  0
 12 13  2  0
 13 14  1  0
 13 15  1  0
  7 16  1  0
 16 17  1  0
 17 18  2  0
 18 19  1  0
 19 20  2  0
 20 21  1  0
 21 22  1  0
 18  5  1  0
 15 10  1  0
 21 17  1  0
  1 23  1  0
  1 24  1  0
  1 25  1  0
  2 26  1  0
  2 27  1  0
  4 28  1  0
  4 29  1  0
  5 30  1  6
  6 31  1  0
  6 32  1  0
 11 33  1  0
 12 34  1  0
 14 35  1  0
 14 36  1  0
 14 37  1  0
 16 38  1  0
 16 39  1  0
 20 40  1  0
 22 41  1  0
 22 42  1  0
 22 43  1  0
M  END
>  <UniqueID>  (10) 
9

>  <SMILES>  (10) 
CCOC[C@H]1CN(C(=O)c2ccc(C)o2)Cc2c1ncn2C

>  <Energy>  (10) 
102.86762576401514

>  <Genealogy>  (10) 
CCOC[C@H]1CN(C(=O)c2ccc(C)o2)Cc2c1ncn2C (chirality)
CCOC[C@H]1CN(C(=O)c2ccc(C)o2)Cc2c1ncn2C (3D coordinates assigned)
CCOC[C@H]1CN(C(=O)c2ccc(C)o2)Cc2c1ncn2C (nonaromatic ring conformer: 102.86762576401514 kcal/mol)

>  <smiles>  (10) 
CCOCC1CN(C(=O)c2ccc(C)o2)Cc2c1ncn2C

>  <score_type>  (10) 
oracle

>  <origin>  (10) 
adg

>  <m_score__min__energy>  (10) 
-6.7800000000000002

>  <m_primary>  (10) 
energy

$$$$
10:0
     RDKit          3D

 82 85  0  0  0  0  0  0  0  0999 V2000
   63.4000   33.8510   46.3940 C   0  0  0  0  0  0  0  0  0  0  0  0
   61.9190   33.7450   46.7550 C   0  0  0  0  0  0  0  0  0  0  0  0
   61.6660   32.6840   47.7570 N   0  0  0  0  0  0  0  0  0  0  0  0
   62.8190   31.7820   48.0160 C   0  0  0  0  0  0  0  0  0  0  0  0
   63.3230   31.7960   49.4700 C   0  0  0  0  0  0  0  0  0  0  0  0
   61.0620   33.2210   49.0020 C   0  0  0  0  0  0  0  0  0  0  0  0
   59.6450   33.7500   48.7330 C   0  0  0  0  0  0  0  0  0  0  0  0
   58.6270   32.6890   48.8780 N   0  0  0  0  0  0  0  0  0  0  0  0
   58.8890   31.5760   47.9770 C   0  0  0  0  0  0  0  0  0  0  0  0
   59.4770   30.3720   48.4470 C   0  0  0  0  0  0  0  0  0  0  0  0
   59.6840   30.1290   49.8310 C   0  0  0  0  0  0  0  0  0  0  0  0
   60.2600   28.9320   50.2820 C   0  0  0  0  0  0  0  0  0  0  0  0
   60.5850   28.7160   51.6240 O   0  0  0  0  0  0  0  0  0  0  0  0
   61.7530   28.0650   52.1060 C   0  0  0  0  0  0  0  0  0  0  0  0
   63.0380   28.8520   51.7000 C   0  0  0  0  0  0  0  0  0  0  0  0
   64.3120   28.5020   52.4290 N   0  0  0  0  0  0  0  0  0  0  0  0
   64.3140   29.1290   53.7820 C   0  0  0  0  0  0  0  0  0  0  0  0
   65.4510   29.0780   51.6400 C   0  0  0  0  0  0  0  0  0  0  0  0
   66.8160   28.4700   52.0220 C   0  0  0  0  0  0  0  0  0  0  0  0
   66.8740   26.9810   51.8400 N   0  0  0  0  0  0  0  0  0  0  0  0
   67.5120   26.3590   53.0330 C   0  0  0  0  0  0  0  0  0  0  0  0
   67.7070   26.6610   50.6530 C   0  0  0  0  0  0  0  0  0  0  0  0
   65.5200   26.3880   51.6330 C   0  0  0  0  0  0  0  0  0  0  0  0
   64.4530   27.0030   52.5610 C   0  0  0  0  0  0  0  0  0  0  0  0
   60.5830   27.9420   49.3620 C   0  0  0  0  0  0  0  0  0  0  0  0
   60.3600   28.1390   48.0060 C   0  0  0  0  0  0  0  0  0  0  0  0
   59.8610   29.3690   47.5100 C   0  0  0  0  0  0  0  0  0  0  0  0
   59.7380   29.6000   46.1500 N   0  0  0  0  0  0  0  0  0  0  0  0
   60.4350   28.7090   45.1840 C   0  0  0  0  0  0  0  0  0  0  0  0
   58.9820   30.6640   45.6950 C   0  0  0  0  0  0  0  0  0  0  0  0
   58.6110   30.7770   44.3240 C   0  0  0  0  0  0  0  0  0  0  0  0
   57.8450   31.8530   43.8710 C   0  0  0  0  0  0  0  0  0  0  0  0
   57.3930   31.9540   42.1730 Cl  0  0  0  0  0  0  0  0  0  0  0  0
   57.4050   32.8190   44.7640 C   0  0  0  0  0  0  0  0  0  0  0  0
   57.7340   32.7270   46.1170 C   0  0  0  0  0  0  0  0  0  0  0  0
   58.5370   31.6650   46.6030 C   0  0  0  0  0  0  0  0  0  0  0  0
   63.9998   33.8939   47.3151 H   0  0  0  0  0  0  0  0  0  0  0  0
   63.6973   32.9718   45.8035 H   0  0  0  0  0  0  0  0  0  0  0  0
   63.5691   34.7635   45.8035 H   0  0  0  0  0  0  0  0  0  0  0  0
   61.5839   34.7087   47.1661 H   0  0  0  0  0  0  0  0  0  0  0  0
   61.3643   33.4876   45.8406 H   0  0  0  0  0  0  0  0  0  0  0  0
   62.5147   30.7546   47.7672 H   0  0  0  0  0  0  0  0  0  0  0  0
   63.6488   32.1463   47.3926 H   0  0  0  0  0  0  0  0  0  0  0  0
   62.4636   31.7721   50.1562 H   0  0  0  0  0  0  0  0  0  0  0  0
   63.9578   30.9151   49.6465 H   0  0  0  0  0  0  0  0  0  0  0  0
   63.9079   32.7107   49.6465 H   0  0  0  0  0  0  0  0  0  0  0  0
   61.0117   32.4197   49.7539 H   0  0  0  0  0  0  0  0  0  0  0  0
   61.6854   34.0497   49.3690 H   0  0  0  0  0  0  0  0  0  0  0  0
   59.4239   34.5558   49.4484 H   0  0  0  0  0  0  0  0  0  0  0  0
   59.6087   34.1198   47.6977 H   0  0  0  0  0  0  0  0  0  0  0  0
   58.5710   32.3410   49.8620 H   0  0  0  0  0  0  0  0  0  0  0  0
   57.6710   33.0820   48.7150 H   0  0  0  0  0  0  0  0  0  0  0  0
   59.3869   30.8941   50.5633 H   0  0  0  0  0  0  0  0  0  0  0  0
   61.7022   28.0000   53.2029 H   0  0  0  0  0  0  0  0  0  0  0  0
   61.8026   27.0594   51.6630 H   0  0  0  0  0  0  0  0  0  0  0  0
   63.2099   28.6770   50.6277 H   0  0  0  0  0  0  0  0  0  0  0  0
   62.8310   29.8979   51.9705 H   0  0  0  0  0  0  0  0  0  0  0  0
   64.3115   28.3422   54.5507 H   0  0  0  0  0  0  0  0  0  0  0  0
   65.2141   29.7508   53.8967 H   0  0  0  0  0  0  0  0  0  0  0  0
   63.4179   29.7565   53.8967 H   0  0  0  0  0  0  0  0  0  0  0  0
   65.2691   28.8881   50.5719 H   0  0  0  0  0  0  0  0  0  0  0  0
   65.4956   30.1541   51.8636 H   0  0  0  0  0  0  0  0  0  0  0  0
   67.5916   28.9294   51.3916 H   0  0  0  0  0  0  0  0  0  0  0  0
   66.9763   28.6743   53.0909 H   0  0  0  0  0  0  0  0  0  0  0  0
   67.0741   26.7859   53.9474 H   0  0  0  0  0  0  0  0  0  0  0  0
   67.3396   25.2727   53.0165 H   0  0  0  0  0  0  0  0  0  0  0  0
   68.5936   26.5589   53.0165 H   0  0  0  0  0  0  0  0  0  0  0  0
   68.6865   26.2847   50.9831 H   0  0  0  0  0  0  0  0  0  0  0  0
   67.2037   25.8922   50.0483 H   0  0  0  0  0  0  0  0  0  0  0  0
   67.8478   27.5690   50.0483 H   0  0  0  0  0  0  0  0  0  0  0  0
   65.2178   26.5567   50.5889 H   0  0  0  0  0  0  0  0  0  0  0  0
   65.5872   25.3157   51.8687 H   0  0  0  0  0  0  0  0  0  0  0  0
   63.4824   26.5424   52.3247 H   0  0  0  0  0  0  0  0  0  0  0  0
   64.7769   26.8040   53.5932 H   0  0  0  0  0  0  0  0  0  0  0  0
   61.0190   26.9943   49.7110 H   0  0  0  0  0  0  0  0  0  0  0  0
   60.5754   27.3224   47.3012 H   0  0  0  0  0  0  0  0  0  0  0  0
   61.0218   27.9589   45.7346 H   0  0  0  0  0  0  0  0  0  0  0  0
   59.6919   28.2012   44.5516 H   0  0  0  0  0  0  0  0  0  0  0  0
   61.1067   29.3080   44.5516 H   0  0  0  0  0  0  0  0  0  0  0  0
   58.9333   30.0040   43.6108 H   0  0  0  0  0  0  0  0  0  0  0  0
   56.7946   33.6605   44.4044 H   0  0  0  0  0  0  0  0  0  0  0  0
   57.3644   33.4906   46.8172 H   0  0  0  0  0  0  0  0  0  0  0  0
  1  2  1  0
  2  3  1  0
  3  4  1  0
  4  5  1  0
  3  6  1  0
  6  7  1  0
  7  8  1  0
  8  9  1  0
  9 10  2  0
 10 11  1  0
 11 12  2  0
 12 13  1  0
 13 14  1  0
 14 15  1  0
 15 16  1  0
 16 17  1  0
 16 18  1  0
 18 19  1  0
 19 20  1  0
 20 21  1  0
 20 22  1  0
 20 23  1  0
 23 24  1  0
 12 25  1  0
 25 26  2  0
 26 27  1  0
 27 28  2  0
 28 29  1  0
 28 30  1  0
 30 31  2  0
 31 32  1  0
 32 33  1  0
 32 34  2  0
 34 35  1  0
 35 36  2  0
 36  9  1  0
 27 10  1  0
 36 30  1  0
 24 16  1  0
  1 37  1  0
  1 38  1  0
  1 39  1  0
  2 40  1  0
  2 41  1  0
  4 42  1  0
  4 43  1  0
  5 44  1  0
  5 45  1  0
  5 46  1  0
  6 47  1  0
  6 48  1  0
  7 49  1  0
  7 50  1  0
  8 51  1  0
  8 52  1  0
 11 53  1  0
 14 54  1  0
 14 55  1  0
 15 56  1  0
 15 57  1  0
 17 58  1  0
 17 59  1  0
 17 60  1  0
 18 61  1  0
 18 62  1  0
 19 63  1  0
 19 64  1  0
 21 65  1  0
 21 66  1  0
 21 67  1  0
 22 68  1  0
 22 69  1  0
 22 70  1  0
 23 71  1  0
 23 72  1  0
 24 73  1  0
 24 74  1  0
 25 75  1  0
 26 76  1  0
 29 77  1  0
 29 78  1  0
 29 79  1  0
 31 80  1  0
 34 81  1  0
 35 82  1  0
M  CHG  4   8   1  16   1  20   1  28   1
M  END
>  <UniqueID>  (11) 
10

>  <SMILES>  (11) 
CCN(CC)CC[NH2+]c1c2cc(OCC[N+]3(C)CC[N+](C)(C)CC3)ccc2[n+](C)c2cc(Cl)ccc12

>  <Energy>  (11) 
147.42858499107288

>  <Genealogy>  (11) 
CCN(CC)CC[NH2+]c1c2cc(OCC[N+]3(C)CC[N+](C)(C)CC3)ccc2[n+](C)c2cc(Cl)ccc12 (protonated)
CCN(CC)CC[NH2+]c1c2cc(OCC[N+]3(C)CC[N+](C)(C)CC3)ccc2[n+](C)c2cc(Cl)ccc12 (3D coordinates assigned)
CCN(CC)CC[NH2+]c1c2cc(OCC[N+]3(C)CC[N+](C)(C)CC3)ccc2[n+](C)c2cc(Cl)ccc12 (nonaromatic ring conformer: 147.42858499107288 kcal/mol)

>  <smiles>  (11) 
CCN(CC)CCNc1c2cc(OCC[N+]3(C)CC[N+](C)(C)CC3)ccc2[n+](C)c2cc(Cl)ccc12

>  <score_type>  (11) 
oracle

>  <origin>  (11) 
adg

>  <m_score__min__energy>  (11) 
-2.9100000000000001

>  <m_primary>  (11) 
energy

$$$$
11:0
     RDKit          3D

 64 66  0  0  0  0  0  0  0  0999 V2000
   58.3560   21.8880   44.1000 C   0  0  0  0  0  0  0  0  0  0  0  0
   57.4140   21.2690   43.0710 C   0  0  0  0  0  0  0  0  0  0  0  0
   56.1250   21.9750   43.0580 N   0  0  0  0  0  0  0  0  0  0  0  0
   56.2630   23.3510   43.5550 C   0  0  0  0  0  0  0  0  0  0  0  0
   55.6870   23.4860   44.9700 C   0  0  0  0  0  0  0  0  0  0  0  0
   55.1450   24.8930   45.2570 C   0  0  0  0  0  0  0  0  0  0  0  0
   55.6120   25.3480   46.5130 O   0  0  0  0  0  0  0  0  0  0  0  0
   57.0070   25.1510   46.6240 C   0  0  0  0  0  0  0  0  0  0  0  0
   57.7330   26.3930   46.1250 C   0  0  0  0  0  0  0  0  0  0  0  0
   59.0890   26.3200   46.5160 O   0  0  0  0  0  0  0  0  0  0  0  0
   59.2750   26.9180   47.7840 C   0  0  0  0  0  0  0  0  0  0  0  0
   58.8060   28.3810   47.7560 C   0  0  0  0  0  0  0  0  0  0  0  0
   59.7410   29.2620   47.0470 N   0  0  0  0  0  0  0  0  0  0  0  0
   59.3360   30.4940   46.4330 C   0  0  0  0  0  0  0  0  0  0  0  0
   58.6390   30.4470   45.2150 C   0  0  0  0  0  0  0  0  0  0  0  0
   58.0610   31.6130   44.6920 C   0  0  0  0  0  0  0  0  0  0  0  0
   58.3180   32.8360   45.2690 N   0  0  0  0  0  0  0  0  0  0  0  0
   57.9550   34.0720   44.5430 C   0  0  0  0  0  0  0  0  0  0  0  0
   58.9330   32.9040   46.5060 C   0  0  0  0  0  0  0  0  0  0  0  0
   58.9820   34.1210   47.2280 C   0  0  0  0  0  0  0  0  0  0  0  0
   59.6460   34.2100   48.4440 C   0  0  0  0  0  0  0  0  0  0  0  0
   60.2850   33.1020   48.9740 C   0  0  0  0  0  0  0  0  0  0  0  0
   60.2350   31.8690   48.3200 C   0  0  0  0  0  0  0  0  0  0  0  0
   61.1680   30.5800   49.0860 Cl  0  0  0  0  0  0  0  0  0  0  0  0
   59.5110   31.7350   47.0940 C   0  0  0  0  0  0  0  0  0  0  0  0
   57.1590   31.4500   43.4770 C   0  0  0  0  0  0  0  0  0  0  0  0
   56.2760   30.1970   43.6160 C   0  0  0  0  0  0  0  0  0  0  0  0
   57.0500   28.9180   44.0140 C   0  0  0  0  0  0  0  0  0  0  0  0
   58.5130   29.1780   44.3990 C   0  0  0  0  0  0  0  0  0  0  0  0
   57.9980   21.6527   45.1131 H   0  0  0  0  0  0  0  0  0  0  0  0
   59.3677   21.4781   43.9642 H   0  0  0  0  0  0  0  0  0  0  0  0
   58.3813   22.9793   43.9642 H   0  0  0  0  0  0  0  0  0  0  0  0
   57.8733   21.3368   42.0738 H   0  0  0  0  0  0  0  0  0  0  0  0
   57.2389   20.2166   43.3389 H   0  0  0  0  0  0  0  0  0  0  0  0
   55.4870   21.4640   43.7130 H   0  0  0  0  0  0  0  0  0  0  0  0
   57.3291   23.6213   43.5735 H   0  0  0  0  0  0  0  0  0  0  0  0
   55.7061   24.0225   42.8850 H   0  0  0  0  0  0  0  0  0  0  0  0
   54.8668   22.7623   45.0866 H   0  0  0  0  0  0  0  0  0  0  0  0
   56.5038   23.2931   45.6811 H   0  0  0  0  0  0  0  0  0  0  0  0
   55.4870   25.5819   44.4705 H   0  0  0  0  0  0  0  0  0  0  0  0
   54.0457   24.8586   45.2729 H   0  0  0  0  0  0  0  0  0  0  0  0
   57.2697   24.9701   47.6767 H   0  0  0  0  0  0  0  0  0  0  0  0
   57.3053   24.2822   46.0188 H   0  0  0  0  0  0  0  0  0  0  0  0
   57.6674   26.4431   45.0281 H   0  0  0  0  0  0  0  0  0  0  0  0
   57.2695   27.2931   46.5552 H   0  0  0  0  0  0  0  0  0  0  0  0
   58.6929   26.3644   48.5355 H   0  0  0  0  0  0  0  0  0  0  0  0
   60.3443   26.8892   48.0405 H   0  0  0  0  0  0  0  0  0  0  0  0
   57.8287   28.4277   47.2534 H   0  0  0  0  0  0  0  0  0  0  0  0
   58.7451   28.7303   48.7973 H   0  0  0  0  0  0  0  0  0  0  0  0
   60.6400   28.8420   46.7220 H   0  0  0  0  0  0  0  0  0  0  0  0
   57.7215   34.8670   45.2665 H   0  0  0  0  0  0  0  0  0  0  0  0
   58.7985   34.3873   43.9112 H   0  0  0  0  0  0  0  0  0  0  0  0
   57.0750   33.8811   43.9112 H   0  0  0  0  0  0  0  0  0  0  0  0
   58.4848   35.0124   46.8179 H   0  0  0  0  0  0  0  0  0  0  0  0
   59.6645   35.1653   48.9890 H   0  0  0  0  0  0  0  0  0  0  0  0
   60.8380   33.1938   49.9204 H   0  0  0  0  0  0  0  0  0  0  0  0
   56.5147   32.3368   43.3846 H   0  0  0  0  0  0  0  0  0  0  0  0
   57.7893   31.3397   42.5822 H   0  0  0  0  0  0  0  0  0  0  0  0
   55.5158   30.3942   44.3862 H   0  0  0  0  0  0  0  0  0  0  0  0
   55.8384   30.0066   42.6249 H   0  0  0  0  0  0  0  0  0  0  0  0
   56.5411   28.4572   44.8735 H   0  0  0  0  0  0  0  0  0  0  0  0
   57.0612   28.2609   43.1319 H   0  0  0  0  0  0  0  0  0  0  0  0
   58.8856   28.3298   44.9921 H   0  0  0  0  0  0  0  0  0  0  0  0
   59.1041   29.2918   43.4783 H   0  0  0  0  0  0  0  0  0  0  0  0
  1  2  1  0
  2  3  1  0
  3  4  1  0
  4  5  1  0
  5  6  1  0
  6  7  1  0
  7  8  1  0
  8  9  1  0
  9 10  1  0
 10 11  1  0
 11 12  1  0
 12 13  1  0
 13 14  1  0
 14 15  2  0
 15 16  1  0
 16 17  2  0
 17 18  1  0
 17 19  1  0
 19 20  2  0
 20 21  1  0
 21 22  2  0
 22 23  1  0
 23 24  1  0
 23 25  2  0
 16 26  1  0
 26 27  1  0
 27 28  1  0
 28 29  1  0
 25 14  1  0
 29 15  1  0
 25 19  1  0
  1 30  1  0
  1 31  1  0
  1 32  1  0
  2 33  1  0
  2 34  1  0
  3 35  1  0
  4 36  1  0
  4 37  1  0
  5 38  1  0
  5 39  1  0
  6 40  1  0
  6 41  1  0
  8 42  1  0
  8 43  1  0
  9 44  1  0
  9 45  1  0
 11 46  1  0
 11 47  1  0
 12 48  1  0
 12 49  1  0
 13 50  1  0
 18 51  1  0
 18 52  1  0
 18 53  1  0
 20 54  1  0
 21 55  1  0
 22 56  1  0
 26 57  1  0
 26 58  1  0
 27 59  1  0
 27 60  1  0
 28 61  1  0
 28 62  1  0
 29 63  1  0
 29 64  1  0
M  CHG  1  17   1
M  END
>  <UniqueID>  (12) 
11

>  <SMILES>  (12) 
CCNCCCOCCOCCNc1c2c([n+](C)c3cccc(Cl)c13)CCCC2

>  <Energy>  (12) 
91.35243848891643

>  <Genealogy>  (12) 
CCNCCCOCCOCCNc1c2c([n+](C)c3cccc(Cl)c13)CCCC2 (3D coordinates assigned)
CCNCCCOCCOCCNc1c2c([n+](C)c3cccc(Cl)c13)CCCC2 (nonaromatic ring conformer: 91.35243848891643 kcal/mol)

>  <smiles>  (12) 
CCNCCCOCCOCCNc1c2c([n+](C)c3cccc(Cl)c13)CCCC2

>  <score_type>  (12) 
oracle

>  <origin>  (12) 
adg

>  <m_score__min__energy>  (12) 
-6.3300000000000001

>  <m_primary>  (12) 
energy

$$$$
12:0
     RDKit          3D

 57 59  0  0  0  0  0  0  0  0999 V2000
   63.4030   33.5420   46.8490 C   0  0  0  0  0  0  0  0  0  0  0  0
   63.2620   32.0550   47.1330 C   0  0  0  0  0  0  0  0  0  0  0  0
   62.3640   31.8740   48.2070 O   0  0  0  0  0  0  0  0  0  0  0  0
   63.0060   32.1310   49.4430 C   0  0  0  0  0  0  0  0  0  0  0  0
   62.5160   31.1660   50.5240 C   0  0  0  0  0  0  0  0  0  0  0  0
   61.6840   30.1750   49.9480 O   0  0  0  0  0  0  0  0  0  0  0  0
   61.6470   29.0200   50.7620 C   0  0  0  0  0  0  0  0  0  0  0  0
   60.1940   28.6660   51.0640 C   0  0  0  0  0  0  0  0  0  0  0  0
   59.3450   29.1570   50.0440 O   0  0  0  0  0  0  0  0  0  0  0  0
   58.6870   30.3460   50.4440 C   0  0  0  0  0  0  0  0  0  0  0  0
   58.8890   31.4620   49.4090 C   0  0  0  0  0  0  0  0  0  0  0  0
   59.8700   31.0730   48.3840 N   0  0  0  0  0  0  0  0  0  0  0  0
   59.3490   31.3460   47.0520 C   0  0  0  0  0  0  0  0  0  0  0  0
   59.3960   32.6590   46.5120 C   0  0  0  0  0  0  0  0  0  0  0  0
   60.0600   33.7160   47.1840 C   0  0  0  0  0  0  0  0  0  0  0  0
   60.0160   35.0190   46.6940 C   0  0  0  0  0  0  0  0  0  0  0  0
   59.3110   35.3020   45.5330 C   0  0  0  0  0  0  0  0  0  0  0  0
   58.6920   34.2770   44.8260 C   0  0  0  0  0  0  0  0  0  0  0  0
   58.7670   32.9280   45.2640 C   0  0  0  0  0  0  0  0  0  0  0  0
   58.2380   31.8990   44.5110 N   0  0  0  0  0  0  0  0  0  0  0  0
   57.8610   32.1370   43.0970 C   0  0  0  0  0  0  0  0  0  0  0  0
   58.1150   30.6330   45.0490 C   0  0  0  0  0  0  0  0  0  0  0  0
   57.3660   29.6230   44.3930 C   0  0  0  0  0  0  0  0  0  0  0  0
   57.3270   28.3200   44.8800 C   0  0  0  0  0  0  0  0  0  0  0  0
   58.0260   27.9870   46.0310 C   0  0  0  0  0  0  0  0  0  0  0  0
   58.0130   26.3300   46.6130 Cl  0  0  0  0  0  0  0  0  0  0  0  0
   58.7220   28.9690   46.7330 C   0  0  0  0  0  0  0  0  0  0  0  0
   58.7340   30.3160   46.2900 C   0  0  0  0  0  0  0  0  0  0  0  0
   63.4553   34.0935   47.7993 H   0  0  0  0  0  0  0  0  0  0  0  0
   64.3220   33.7194   46.2711 H   0  0  0  0  0  0  0  0  0  0  0  0
   62.5337   33.8890   46.2711 H   0  0  0  0  0  0  0  0  0  0  0  0
   62.8751   31.5441   46.2390 H   0  0  0  0  0  0  0  0  0  0  0  0
   64.2434   31.6326   47.3947 H   0  0  0  0  0  0  0  0  0  0  0  0
   64.0919   32.0091   49.3169 H   0  0  0  0  0  0  0  0  0  0  0  0
   62.7682   33.1586   49.7554 H   0  0  0  0  0  0  0  0  0  0  0  0
   63.3817   30.6828   51.0005 H   0  0  0  0  0  0  0  0  0  0  0  0
   61.9415   31.7274   51.2755 H   0  0  0  0  0  0  0  0  0  0  0  0
   62.1278   28.1828   50.2349 H   0  0  0  0  0  0  0  0  0  0  0  0
   62.1837   29.2132   51.7026 H   0  0  0  0  0  0  0  0  0  0  0  0
   60.0924   27.5724   51.1251 H   0  0  0  0  0  0  0  0  0  0  0  0
   59.9058   29.1261   52.0207 H   0  0  0  0  0  0  0  0  0  0  0  0
   57.6109   30.1436   50.5492 H   0  0  0  0  0  0  0  0  0  0  0  0
   59.1128   30.6764   51.4029 H   0  0  0  0  0  0  0  0  0  0  0  0
   57.9268   31.6755   48.9206 H   0  0  0  0  0  0  0  0  0  0  0  0
   59.2685   32.3530   49.9306 H   0  0  0  0  0  0  0  0  0  0  0  0
   60.7790   31.5610   48.5420 H   0  0  0  0  0  0  0  0  0  0  0  0
   60.1280   30.0670   48.4830 H   0  0  0  0  0  0  0  0  0  0  0  0
   60.6190   33.5036   48.1073 H   0  0  0  0  0  0  0  0  0  0  0  0
   60.5408   35.8247   47.2281 H   0  0  0  0  0  0  0  0  0  0  0  0
   59.2416   36.3385   45.1713 H   0  0  0  0  0  0  0  0  0  0  0  0
   58.1331   34.5157   43.9092 H   0  0  0  0  0  0  0  0  0  0  0  0
   56.9314   32.7239   43.0592 H   0  0  0  0  0  0  0  0  0  0  0  0
   58.6654   32.6913   42.5914 H   0  0  0  0  0  0  0  0  0  0  0  0
   57.7065   31.1724   42.5914 H   0  0  0  0  0  0  0  0  0  0  0  0
   56.8047   29.8746   43.4811 H   0  0  0  0  0  0  0  0  0  0  0  0
   56.7413   27.5533   44.3517 H   0  0  0  0  0  0  0  0  0  0  0  0
   59.2712   28.6948   47.6458 H   0  0  0  0  0  0  0  0  0  0  0  0
  1  2  1  0
  2  3  1  0
  3  4  1  0
  4  5  1  0
  5  6  1  0
  6  7  1  0
  7  8  1  0
  8  9  1  0
  9 10  1  0
 10 11  1  0
 11 12  1  0
 12 13  1  0
 13 14  2  0
 14 15  1  0
 15 16  2  0
 16 17  1  0
 17 18  2  0
 18 19  1  0
 19 20  2  0
 20 21  1  0
 20 22  1  0
 22 23  2  0
 23 24  1  0
 24 25  2  0
 25 26  1  0
 25 27  1  0
 27 28  2  0
 28 13  1  0
 19 14  1  0
 28 22  1  0
  1 29  1  0
  1 30  1  0
  1 31  1  0
  2 32  1  0
  2 33  1  0
  4 34  1  0
  4 35  1  0
  5 36  1  0
  5 37  1  0
  7 38  1  0
  7 39  1  0
  8 40  1  0
  8 41  1  0
 10 42  1  0
 10 43  1  0
 11 44  1  0
 11 45  1  0
 12 46  1  0
 12 47  1  0
 15 48  1  0
 16 49  1  0
 17 50  1  0
 18 51  1  0
 21 52  1  0
 21 53  1  0
 21 54  1  0
 23 55  1  0
 24 56  1  0
 27 57  1  0
M  CHG  2  12   1  20   1
M  END
>  <UniqueID>  (13) 
12

>  <SMILES>  (13) 
CCOCCOCCOCC[NH2+]c1c2ccccc2[n+](C)c2ccc(Cl)cc12

>  <Energy>  (13) 
84.98102995580055

>  <Genealogy>  (13) 
CCOCCOCCOCC[NH2+]c1c2ccccc2[n+](C)c2ccc(Cl)cc12 (protonated)
CCOCCOCCOCC[NH2+]c1c2ccccc2[n+](C)c2ccc(Cl)cc12 (3D coordinates assigned)
CCOCCOCCOCC[NH2+]c1c2ccccc2[n+](C)c2ccc(Cl)cc12 (optimized conformer: 84.98102995580055 kcal/mol)

>  <smiles>  (13) 
CCOCCOCCOCCNc1c2ccccc2[n+](C)c2ccc(Cl)cc12

>  <score_type>  (13) 
oracle

>  <origin>  (13) 
adg

>  <m_score__min__energy>  (13) 
-3.3100000000000001

>  <m_primary>  (13) 
energy

$$$$
13:0
     RDKit          3D

 26 27  0  0  0  0  0  0  0  0999 V2000
   59.6290   35.3950   45.7760 C   0  0  0  0  0  0  0  0  0  0  0  0
   58.9830   34.0400   45.6930 C   0  0  0  0  0  0  0  0  0  0  0  0
   58.5650   33.5380   44.4510 C   0  0  0  0  0  0  0  0  0  0  0  0
   57.9640   32.2790   44.3550 C   0  0  0  0  0  0  0  0  0  0  0  0
   57.4400   31.7150   42.7720 Cl  0  0  0  0  0  0  0  0  0  0  0  0
   57.7600   31.5030   45.5110 C   0  0  0  0  0  0  0  0  0  0  0  0
   57.1660   30.1970   45.4140 N   0  0  0  0  0  0  0  0  0  0  0  0
   57.9090   29.0020   45.1380 C   0  0  0  0  0  0  0  0  0  0  0  0
   59.1960   28.9530   45.1430 N   0  0  0  0  0  0  0  0  0  0  0  0
   59.6320   27.5890   44.8710 C   0  0  0  0  0  0  0  0  0  0  0  0
   58.3360   26.7740   44.7220 C   0  0  0  0  0  0  0  0  0  0  0  0
   57.2860   27.7560   44.9060 N   0  0  0  0  0  0  0  0  0  0  0  0
   58.1950   31.9980   46.7510 C   0  0  0  0  0  0  0  0  0  0  0  0
   58.7970   33.2570   46.8500 C   0  0  0  0  0  0  0  0  0  0  0  0
   59.3200   33.8190   48.4330 Cl  0  0  0  0  0  0  0  0  0  0  0  0
   59.7619   35.6738   46.8318 H   0  0  0  0  0  0  0  0  0  0  0  0
   60.6096   35.3648   45.2785 H   0  0  0  0  0  0  0  0  0  0  0  0
   58.9882   36.1378   45.2785 H   0  0  0  0  0  0  0  0  0  0  0  0
   58.7117   34.1414   43.5431 H   0  0  0  0  0  0  0  0  0  0  0  0
   56.1450   30.0920   45.6090 H   0  0  0  0  0  0  0  0  0  0  0  0
   60.2211   27.5501   43.9429 H   0  0  0  0  0  0  0  0  0  0  0  0
   60.2756   27.1955   45.6716 H   0  0  0  0  0  0  0  0  0  0  0  0
   58.2737   26.3163   43.7237 H   0  0  0  0  0  0  0  0  0  0  0  0
   58.2715   25.9431   45.4400 H   0  0  0  0  0  0  0  0  0  0  0  0
   56.2590   27.5740   44.8820 H   0  0  0  0  0  0  0  0  0  0  0  0
   58.0607   31.3879   47.6564 H   0  0  0  0  0  0  0  0  0  0  0  0
  1  2  1  0
  2  3  2  0
  3  4  1  0
  4  5  1  0
  4  6  2  0
  6  7  1  0
  7  8  1  0
  8  9  2  0
  9 10  1  0
 10 11  1  0
 11 12  1  0
  6 13  1  0
 13 14  2  0
 14 15  1  0
 14  2  1  0
 12  8  1  0
  1 16  1  0
  1 17  1  0
  1 18  1  0
  3 19  1  0
  7 20  1  0
 10 21  1  0
 10 22  1  0
 11 23  1  0
 11 24  1  0
 12 25  1  0
 13 26  1  0
M  END
>  <UniqueID>  (14) 
13

>  <SMILES>  (14) 
Cc1cc(Cl)c(NC2=NCCN2)cc1Cl

>  <Energy>  (14) 
41.88943699996797

>  <Genealogy>  (14) 
Cc1cc(Cl)c(NC2=NCCN2)cc1Cl (3D coordinates assigned)
Cc1cc(Cl)c(NC2=NCCN2)cc1Cl (nonaromatic ring conformer: 41.88943699996797 kcal/mol)

>  <smiles>  (14) 
Cc1cc(Cl)c(NC2=NCCN2)cc1Cl

>  <score_type>  (14) 
oracle

>  <origin>  (14) 
adg

>  <m_score__min__energy>  (14) 
-6.04

>  <m_primary>  (14) 
energy

$$$$
14:0
     RDKit          3D

 58 61  0  0  0  0  0  0  0  0999 V2000
   63.2400   33.9240   46.3630 C   0  0  0  0  0  0  0  0  0  0  0  0
   64.1400   33.1180   47.3020 C   0  0  0  0  0  0  0  0  0  0  0  0
   63.5670   32.8900   48.6480 N   0  0  0  0  0  0  0  0  0  0  0  0
   64.3330   33.4650   49.7790 C   0  0  0  0  0  0  0  0  0  0  0  0
   63.4770   34.1820   50.8380 C   0  0  0  0  0  0  0  0  0  0  0  0
   62.9730   31.5540   48.8690 C   0  0  0  0  0  0  0  0  0  0  0  0
   62.0270   31.1770   47.7230 C   0  0  0  0  0  0  0  0  0  0  0  0
   60.6350   31.1300   48.1770 N   0  0  0  0  0  0  0  0  0  0  0  0
   59.5690   31.2900   47.2340 C   0  0  0  0  0  0  0  0  0  0  0  0
   58.8030   30.1610   46.8660 C   0  0  0  0  0  0  0  0  0  0  0  0
   57.9370   30.2520   45.7580 C   0  0  0  0  0  0  0  0  0  0  0  0
   57.9490   31.3800   44.9680 N   0  0  0  0  0  0  0  0  0  0  0  0
   57.3920   31.3190   43.5980 C   0  0  0  0  0  0  0  0  0  0  0  0
   58.5140   32.5490   45.4330 C   0  0  0  0  0  0  0  0  0  0  0  0
   58.2810   33.7790   44.7720 C   0  0  0  0  0  0  0  0  0  0  0  0
   58.8710   34.9550   45.2100 C   0  0  0  0  0  0  0  0  0  0  0  0
   59.6670   34.9560   46.3420 C   0  0  0  0  0  0  0  0  0  0  0  0
   59.8830   33.7790   47.0750 C   0  0  0  0  0  0  0  0  0  0  0  0
   60.6350   33.9260   48.3750 C   0  0  0  0  0  0  0  0  0  0  0  0
   59.3350   32.5400   46.6010 C   0  0  0  0  0  0  0  0  0  0  0  0
   57.0250   29.1020   45.4730 C   0  0  0  0  0  0  0  0  0  0  0  0
   55.9560   29.2780   44.8280 O   0  0  0  0  0  0  0  0  0  0  0  0
   57.3220   27.7680   46.0270 C   0  0  0  0  0  0  0  0  0  0  0  0
   56.6670   26.6220   45.5420 C   0  0  0  0  0  0  0  0  0  0  0  0
   56.9430   25.3680   46.0910 C   0  0  0  0  0  0  0  0  0  0  0  0
   57.8670   25.2480   47.1300 C   0  0  0  0  0  0  0  0  0  0  0  0
   58.5160   26.3810   47.6240 C   0  0  0  0  0  0  0  0  0  0  0  0
   58.2500   27.6480   47.0740 C   0  0  0  0  0  0  0  0  0  0  0  0
   58.9100   28.8610   47.6040 C   0  0  0  0  0  0  0  0  0  0  0  0
   59.5370   28.7850   48.6950 O   0  0  0  0  0  0  0  0  0  0  0  0
   62.5502   34.5417   46.9568 H   0  0  0  0  0  0  0  0  0  0  0  0
   63.8606   34.5739   45.7286 H   0  0  0  0  0  0  0  0  0  0  0  0
   62.6622   33.2358   45.7286 H   0  0  0  0  0  0  0  0  0  0  0  0
   64.3321   32.1389   46.8389 H   0  0  0  0  0  0  0  0  0  0  0  0
   65.0560   33.7099   47.4456 H   0  0  0  0  0  0  0  0  0  0  0  0
   64.8773   32.6477   50.2747 H   0  0  0  0  0  0  0  0  0  0  0  0
   64.9969   34.2287   49.3477 H   0  0  0  0  0  0  0  0  0  0  0  0
   63.8202   33.8946   51.8428 H   0  0  0  0  0  0  0  0  0  0  0  0
   63.5762   35.2705   50.7141 H   0  0  0  0  0  0  0  0  0  0  0  0
   62.4228   33.8934   50.7141 H   0  0  0  0  0  0  0  0  0  0  0  0
   63.7788   30.8078   48.9305 H   0  0  0  0  0  0  0  0  0  0  0  0
   62.3969   31.5772   49.8058 H   0  0  0  0  0  0  0  0  0  0  0  0
   62.1178   31.9256   46.9221 H   0  0  0  0  0  0  0  0  0  0  0  0
   62.3067   30.1787   47.3554 H   0  0  0  0  0  0  0  0  0  0  0  0
   60.4030   30.7950   49.1380 H   0  0  0  0  0  0  0  0  0  0  0  0
   56.2998   31.1994   43.6512 H   0  0  0  0  0  0  0  0  0  0  0  0
   57.6333   32.2489   43.0623 H   0  0  0  0  0  0  0  0  0  0  0  0
   57.8289   30.4633   43.0623 H   0  0  0  0  0  0  0  0  0  0  0  0
   57.6190   33.8023   43.8938 H   0  0  0  0  0  0  0  0  0  0  0  0
   58.7057   35.8906   44.6556 H   0  0  0  0  0  0  0  0  0  0  0  0
   60.1376   35.8938   46.6723 H   0  0  0  0  0  0  0  0  0  0  0  0
   59.9409   33.7903   49.2175 H   0  0  0  0  0  0  0  0  0  0  0  0
   61.4285   33.1660   48.4276 H   0  0  0  0  0  0  0  0  0  0  0  0
   61.0838   34.9289   48.4276 H   0  0  0  0  0  0  0  0  0  0  0  0
   55.9342   26.7137   44.7268 H   0  0  0  0  0  0  0  0  0  0  0  0
   56.4317   24.4741   45.7042 H   0  0  0  0  0  0  0  0  0  0  0  0
   58.0842   24.2592   47.5603 H   0  0  0  0  0  0  0  0  0  0  0  0
   59.2388   26.2824   48.4473 H   0  0  0  0  0  0  0  0  0  0  0  0
  1  2  1  0
  2  3  1  0
  3  4  1  0
  4  5  1  0
  3  6  1  0
  6  7  1  0
  7  8  1  0
  8  9  1  0
  9 10  2  0
 10 11  1  0
 11 12  2  0
 12 13  1  0
 12 14  1  0
 14 15  2  0
 15 16  1  0
 16 17  2  0
 17 18  1  0
 18 19  1  0
 18 20  2  0
 11 21  1  0
 21 22  2  0
 21 23  1  0
 23 24  2  0
 24 25  1  0
 25 26  2  0
 26 27  1  0
 27 28  2  0
 28 29  1  0
 29 30  2  0
 20  9  1  0
 28 23  1  0
 29 10  1  0
 20 14  1  0
  1 31  1  0
  1 32  1  0
  1 33  1  0
  2 34  1  0
  2 35  1  0
  4 36  1  0
  4 37  1  0
  5 38  1  0
  5 39  1  0
  5 40  1  0
  6 41  1  0
  6 42  1  0
  7 43  1  0
  7 44  1  0
  8 45  1  0
 13 46  1  0
 13 47  1  0
 13 48  1  0
 15 49  1  0
 16 50  1  0
 17 51  1  0
 19 52  1  0
 19 53  1  0
 19 54  1  0
 24 55  1  0
 25 56  1  0
 26 57  1  0
 27 58  1  0
M  CHG  1  12   1
M  END
>  <UniqueID>  (15) 
14

>  <SMILES>  (15) 
CCN(CC)CCNc1c2c([n+](C)c3cccc(C)c13)C(=O)c1ccccc1C2=O

>  <Energy>  (15) 
104.9381090898735

>  <Genealogy>  (15) 
CCN(CC)CCNc1c2c([n+](C)c3cccc(C)c13)C(=O)c1ccccc1C2=O (3D coordinates assigned)
CCN(CC)CCNc1c2c([n+](C)c3cccc(C)c13)C(=O)c1ccccc1C2=O (nonaromatic ring conformer: 104.9381090898735 kcal/mol)

>  <smiles>  (15) 
CCN(CC)CCNc1c2c([n+](C)c3cccc(C)c13)C(=O)c1ccccc1C2=O

>  <score_type>  (15) 
oracle

>  <origin>  (15) 
adg

>  <m_score__min__energy>  (15) 
-7.4800000000000004

>  <m_primary>  (15) 
energy

$$$$
15:0
     RDKit          3D

 54 55  0  0  0  0  0  0  0  0999 V2000
   59.6560   29.2570   48.6990 C   0  0  0  0  0  0  0  0  0  0  0  0
   59.2930   30.7040   48.3520 C   0  0  0  0  0  0  0  0  0  0  0  0
   59.8580   31.1260   47.0540 N   0  0  0  0  0  0  0  0  0  0  0  0
   59.7460   30.0900   46.0080 C   0  0  0  0  0  0  0  0  0  0  0  0
   58.6370   30.4050   44.9950 C   0  0  0  0  0  0  0  0  0  0  0  0
   58.6190   31.7960   44.7560 O   0  0  0  0  0  0  0  0  0  0  0  0
   57.4600   32.3600   45.3330 C   0  0  0  0  0  0  0  0  0  0  0  0
   57.4810   33.8790   45.1370 C   0  0  0  0  0  0  0  0  0  0  0  0
   58.2890   34.5550   46.1760 N   0  0  0  0  0  0  0  0  0  0  0  0
   58.3390   33.7690   47.4340 C   0  0  0  0  0  0  0  0  0  0  0  0
   59.6300   34.0240   48.2200 C   0  0  0  0  0  0  0  0  0  0  0  0
   60.8150   33.5730   47.4520 N   0  0  0  0  0  0  0  0  0  0  0  0
   62.1250   34.0300   48.0100 C   0  0  0  0  0  0  0  0  0  0  0  0
   62.3900   33.6010   49.4860 C   0  0  0  0  0  0  0  0  0  0  0  0
   62.7930   32.1170   49.6570 C   0  0  0  0  0  0  0  0  0  0  0  0
   62.6270   31.2840   48.3800 C   0  0  0  0  0  0  0  0  0  0  0  0
   63.3300   31.9230   47.1670 C   0  0  0  0  0  0  0  0  0  0  0  0
   63.2930   33.4660   47.1680 C   0  0  0  0  0  0  0  0  0  0  0  0
   60.6920   33.8520   45.9930 C   0  0  0  0  0  0  0  0  0  0  0  0
   59.6320   34.9210   45.6670 C   0  0  0  0  0  0  0  0  0  0  0  0
   59.6857   29.1385   49.7922 H   0  0  0  0  0  0  0  0  0  0  0  0
   58.9003   28.5781   48.2770 H   0  0  0  0  0  0  0  0  0  0  0  0
   60.6426   29.0152   48.2770 H   0  0  0  0  0  0  0  0  0  0  0  0
   58.1975   30.7932   48.3071 H   0  0  0  0  0  0  0  0  0  0  0  0
   59.7165   31.3543   49.1316 H   0  0  0  0  0  0  0  0  0  0  0  0
   60.8650   31.3810   47.1910 H   0  0  0  0  0  0  0  0  0  0  0  0
   59.3730   31.9940   46.7260 H   0  0  0  0  0  0  0  0  0  0  0  0
   60.7049   30.0216   45.4733 H   0  0  0  0  0  0  0  0  0  0  0  0
   59.4929   29.1395   46.5005 H   0  0  0  0  0  0  0  0  0  0  0  0
   58.8339   29.8709   44.0537 H   0  0  0  0  0  0  0  0  0  0  0  0
   57.6642   30.0824   45.3945 H   0  0  0  0  0  0  0  0  0  0  0  0
   56.5668   31.9398   44.8476 H   0  0  0  0  0  0  0  0  0  0  0  0
   57.4353   32.1288   46.4081 H   0  0  0  0  0  0  0  0  0  0  0  0
   57.9096   34.1049   44.1494 H   0  0  0  0  0  0  0  0  0  0  0  0
   56.4476   34.2483   45.2128 H   0  0  0  0  0  0  0  0  0  0  0  0
   57.4800   34.0486   48.0617 H   0  0  0  0  0  0  0  0  0  0  0  0
   58.3079   32.7018   47.1691 H   0  0  0  0  0  0  0  0  0  0  0  0
   59.7211   35.1012   48.4231 H   0  0  0  0  0  0  0  0  0  0  0  0
   59.5855   33.4577   49.1620 H   0  0  0  0  0  0  0  0  0  0  0  0
   62.0678   35.1280   47.9767 H   0  0  0  0  0  0  0  0  0  0  0  0
   63.2019   34.2264   49.8857 H   0  0  0  0  0  0  0  0  0  0  0  0
   61.4413   33.7333   50.0268 H   0  0  0  0  0  0  0  0  0  0  0  0
   63.8486   32.0766   49.9637 H   0  0  0  0  0  0  0  0  0  0  0  0
   62.1205   31.6855   50.4130 H   0  0  0  0  0  0  0  0  0  0  0  0
   63.0556   30.2855   48.5512 H   0  0  0  0  0  0  0  0  0  0  0  0
   61.5520   31.2275   48.1535 H   0  0  0  0  0  0  0  0  0  0  0  0
   64.3819   31.6012   47.1664 H   0  0  0  0  0  0  0  0  0  0  0  0
   62.7877   31.5898   46.2699 H   0  0  0  0  0  0  0  0  0  0  0  0
   64.2402   33.8413   47.5827 H   0  0  0  0  0  0  0  0  0  0  0  0
   63.1467   33.7974   46.1294 H   0  0  0  0  0  0  0  0  0  0  0  0
   61.6664   34.2008   45.6204 H   0  0  0  0  0  0  0  0  0  0  0  0
   60.3743   32.9177   45.5071 H   0  0  0  0  0  0  0  0  0  0  0  0
   59.9369   35.8730   46.1260 H   0  0  0  0  0  0  0  0  0  0  0  0
   59.5653   35.0060   44.5723 H   0  0  0  0  0  0  0  0  0  0  0  0
  1  2  1  0
  2  3  1  0
  3  4  1  0
  4  5  1  0
  5  6  1  0
  6  7  1  0
  7  8  1  0
  8  9  1  0
  9 10  1  0
 10 11  1  0
 11 12  1  0
 12 13  1  0
 13 14  1  0
 14 15  1  0
 15 16  1  0
 16 17  1  0
 17 18  1  0
 12 19  1  0
 19 20  1  0
 20  9  1  0
 18 13  1  0
  1 21  1  0
  1 22  1  0
  1 23  1  0
  2 24  1  0
  2 25  1  0
  3 26  1  0
  3 27  1  0
  4 28  1  0
  4 29  1  0
  5 30  1  0
  5 31  1  0
  7 32  1  0
  7 33  1  0
  8 34  1  0
  8 35  1  0
 10 36  1  0
 10 37  1  0
 11 38  1  0
 11 39  1  0
 13 40  1  0
 14 41  1  0
 14 42  1  0
 15 43  1  0
 15 44  1  0
 16 45  1  0
 16 46  1  0
 17 47  1  0
 17 48  1  0
 18 49  1  0
 18 50  1  0
 19 51  1  0
 19 52  1  0
 20 53  1  0
 20 54  1  0
M  CHG  1   3   1
M  END
>  <UniqueID>  (16) 
15

>  <SMILES>  (16) 
CC[NH2+]CCOCCN1CCN(C2CCCCC2)CC1

>  <Energy>  (16) 
71.71594404218389

>  <Genealogy>  (16) 
CC[NH2+]CCOCCN1CCN(C2CCCCC2)CC1 (protonated)
CC[NH2+]CCOCCN1CCN(C2CCCCC2)CC1 (3D coordinates assigned)
CC[NH2+]CCOCCN1CCN(C2CCCCC2)CC1 (nonaromatic ring conformer: 71.71594404218389 kcal/mol)

>  <smiles>  (16) 
CCNCCOCCN1CCN(C2CCCCC2)CC1

>  <score_type>  (16) 
oracle

>  <origin>  (16) 
adg

>  <m_score__min__energy>  (16) 
-6

>  <m_primary>  (16) 
energy

$$$$
16:0
     RDKit          3D

 48 51  0  0  0  0  0  0  0  0999 V2000
   56.4320   30.1040   42.7860 C   0  0  0  0  0  0  0  0  0  0  0  0
   55.5050   30.0220   44.0020 C   0  0  0  0  0  0  0  0  0  0  0  0
   55.8740   28.9340   44.9220 N   0  0  0  0  0  0  0  0  0  0  0  0
   57.1800   28.3450   44.5940 C   0  0  0  0  0  0  0  0  0  0  0  0
   58.2970   29.0800   45.3360 C   0  0  0  0  0  0  0  0  0  0  0  0
   57.7780   30.2540   46.0360 N   0  0  0  0  0  0  0  0  0  0  0  0
   58.6750   31.1260   46.7400 C   0  0  0  0  0  0  0  0  0  0  0  0
   59.3910   30.6410   47.8280 C   0  0  0  0  0  0  0  0  0  0  0  0
   60.2980   31.4570   48.4910 C   0  0  0  0  0  0  0  0  0  0  0  0
   60.5320   32.7570   48.1370 N   0  0  0  0  0  0  0  0  0  0  0  0
   61.5060   33.5730   48.8820 C   0  0  0  0  0  0  0  0  0  0  0  0
   59.8270   33.2810   47.0640 C   0  0  0  0  0  0  0  0  0  0  0  0
   60.0170   34.6180   46.6380 C   0  0  0  0  0  0  0  0  0  0  0  0
   59.2830   35.1440   45.5740 C   0  0  0  0  0  0  0  0  0  0  0  0
   58.3420   34.3600   44.9140 C   0  0  0  0  0  0  0  0  0  0  0  0
   58.1350   33.0380   45.2990 C   0  0  0  0  0  0  0  0  0  0  0  0
   58.8760   32.4730   46.3560 C   0  0  0  0  0  0  0  0  0  0  0  0
   60.8990   30.6250   49.5140 C   0  0  0  0  0  0  0  0  0  0  0  0
   61.8360   30.7390   50.4230 O   0  0  0  0  0  0  0  0  0  0  0  0
   61.9350   29.5510   51.0030 C   0  0  0  0  0  0  0  0  0  0  0  0
   61.0160   28.6600   50.4400 C   0  0  0  0  0  0  0  0  0  0  0  0
   60.8730   27.2010   50.7160 C   0  0  0  0  0  0  0  0  0  0  0  0
   60.3740   29.3970   49.4770 C   0  0  0  0  0  0  0  0  0  0  0  0
   59.3620   29.2310   48.3980 C   0  0  0  0  0  0  0  0  0  0  0  0
   57.4744   30.1962   43.1251 H   0  0  0  0  0  0  0  0  0  0  0  0
   56.3229   29.1927   42.1797 H   0  0  0  0  0  0  0  0  0  0  0  0
   56.1646   30.9820   42.1797 H   0  0  0  0  0  0  0  0  0  0  0  0
   55.5536   30.9762   44.5471 H   0  0  0  0  0  0  0  0  0  0  0  0
   54.4891   29.8169   43.6335 H   0  0  0  0  0  0  0  0  0  0  0  0
   55.1400   28.1880   44.8810 H   0  0  0  0  0  0  0  0  0  0  0  0
   57.1844   27.2855   44.8896 H   0  0  0  0  0  0  0  0  0  0  0  0
   57.3508   28.4357   43.5111 H   0  0  0  0  0  0  0  0  0  0  0  0
   58.7523   28.3969   46.0682 H   0  0  0  0  0  0  0  0  0  0  0  0
   59.0452   29.4127   44.6015 H   0  0  0  0  0  0  0  0  0  0  0  0
   56.7980   30.1950   46.3970 H   0  0  0  0  0  0  0  0  0  0  0  0
   61.3464   33.4393   49.9621 H   0  0  0  0  0  0  0  0  0  0  0  0
   62.5263   33.2561   48.6201 H   0  0  0  0  0  0  0  0  0  0  0  0
   61.3727   34.6330   48.6201 H   0  0  0  0  0  0  0  0  0  0  0  0
   60.7540   35.2514   47.1534 H   0  0  0  0  0  0  0  0  0  0  0  0
   59.4493   36.1837   45.2555 H   0  0  0  0  0  0  0  0  0  0  0  0
   57.7590   34.7864   44.0844 H   0  0  0  0  0  0  0  0  0  0  0  0
   57.3855   32.4286   44.7728 H   0  0  0  0  0  0  0  0  0  0  0  0
   62.6388   29.3020   51.8109 H   0  0  0  0  0  0  0  0  0  0  0  0
   60.8566   27.0334   51.8030 H   0  0  0  0  0  0  0  0  0  0  0  0
   59.9346   26.8345   50.2742 H   0  0  0  0  0  0  0  0  0  0  0  0
   61.7224   26.6593   50.2742 H   0  0  0  0  0  0  0  0  0  0  0  0
   59.6694   28.4794   47.6559 H   0  0  0  0  0  0  0  0  0  0  0  0
   58.3749   28.8726   48.7254 H   0  0  0  0  0  0  0  0  0  0  0  0
  1  2  1  0
  2  3  1  0
  3  4  1  0
  4  5  1  0
  5  6  1  0
  6  7  1  0
  7  8  2  0
  8  9  1  0
  9 10  2  0
 10 11  1  0
 10 12  1  0
 12 13  2  0
 13 14  1  0
 14 15  2  0
 15 16  1  0
 16 17  2  0
  9 18  1  0
 18 19  1  0
 19 20  1  0
 20 21  2  0
 21 22  1  0
 21 23  1  0
 23 24  1  0
 17  7  1  0
 23 18  2  0
 24  8  1  0
 17 12  1  0
  1 25  1  0
  1 26  1  0
  1 27  1  0
  2 28  1  0
  2 29  1  0
  3 30  1  0
  4 31  1  0
  4 32  1  0
  5 33  1  0
  5 34  1  0
  6 35  1  0
 11 36  1  0
 11 37  1  0
 11 38  1  0
 13 39  1  0
 14 40  1  0
 15 41  1  0
 16 42  1  0
 20 43  1  0
 22 44  1  0
 22 45  1  0
 22 46  1  0
 24 47  1  0
 24 48  1  0
M  CHG  1  10   1
M  END
>  <UniqueID>  (17) 
16

>  <SMILES>  (17) 
CCNCCNc1c2c([n+](C)c3ccccc13)-c1occ(C)c1C2

>  <Energy>  (17) 
127.9643986181987

>  <Genealogy>  (17) 
CCNCCNc1c2c([n+](C)c3ccccc13)-c1occ(C)c1C2 (3D coordinates assigned)
CCNCCNc1c2c([n+](C)c3ccccc13)-c1occ(C)c1C2 (nonaromatic ring conformer: 127.9643986181987 kcal/mol)

>  <smiles>  (17) 
CCNCCNc1c2c([n+](C)c3ccccc13)-c1occ(C)c1C2

>  <score_type>  (17) 
oracle

>  <origin>  (17) 
adg

>  <m_score__min__energy>  (17) 
-6.0499999999999998

>  <m_primary>  (17) 
energy

$$$$
17:0
     RDKit          3D

 37 39  0  0  0  0  0  0  0  0999 V2000
   56.2710   29.4560   42.6250 C   0  0  0  0  0  0  0  0  0  0  0  0
   56.5670   30.8370   43.1860 C   0  0  0  0  0  0  0  0  0  0  0  0
   56.3600   30.8240   44.5810 O   0  0  0  0  0  0  0  0  0  0  0  0
   57.5760   31.0010   45.1750 N   0  0  0  0  0  0  0  0  0  0  0  0
   57.9250   32.3110   45.6520 C   0  0  0  0  0  0  0  0  0  0  0  0
   57.1370   33.2770   45.4620 O   0  0  0  0  0  0  0  0  0  0  0  0
   59.1890   32.5190   46.3730 C   0  0  0  0  0  0  0  0  0  0  0  0
   59.6120   33.8000   46.7600 C   0  0  0  0  0  0  0  0  0  0  0  0
   60.8050   33.9640   47.4680 C   0  0  0  0  0  0  0  0  0  0  0  0
   61.5920   32.8500   47.8090 C   0  0  0  0  0  0  0  0  0  0  0  0
   62.8230   33.0170   48.5450 N   0  0  0  0  0  0  0  0  0  0  0  0
   62.9590   33.4200   49.8260 C   0  0  0  0  0  0  0  0  0  0  0  0
   64.3010   33.4440   50.1350 C   0  0  0  0  0  0  0  0  0  0  0  0
   64.9970   33.0560   49.0520 N   0  0  0  0  0  0  0  0  0  0  0  0
   64.0800   32.8030   48.1000 C   0  0  0  0  0  0  0  0  0  0  0  0
   61.1600   31.5690   47.4200 C   0  0  0  0  0  0  0  0  0  0  0  0
   59.9670   31.4030   46.6990 C   0  0  0  0  0  0  0  0  0  0  0  0
   59.5340   30.0920   46.3170 N   0  0  0  0  0  0  0  0  0  0  0  0
   58.5050   29.8590   45.2940 C   0  0  1  0  0  0  0  0  0  0  0  0
   57.7370   28.5770   45.6290 C   0  0  0  0  0  0  0  0  0  0  0  0
   56.1193   28.7485   43.4535 H   0  0  0  0  0  0  0  0  0  0  0  0
   55.3615   29.4982   42.0077 H   0  0  0  0  0  0  0  0  0  0  0  0
   57.1179   29.1217   42.0077 H   0  0  0  0  0  0  0  0  0  0  0  0
   57.6120   31.1052   42.9714 H   0  0  0  0  0  0  0  0  0  0  0  0
   55.8994   31.5766   42.7198 H   0  0  0  0  0  0  0  0  0  0  0  0
   59.0015   34.6787   46.5047 H   0  0  0  0  0  0  0  0  0  0  0  0
   61.1313   34.9728   47.7611 H   0  0  0  0  0  0  0  0  0  0  0  0
   62.1372   33.6845   50.5077 H   0  0  0  0  0  0  0  0  0  0  0  0
   64.7314   33.7323   51.1054 H   0  0  0  0  0  0  0  0  0  0  0  0
   66.0340   32.9650   48.9670 H   0  0  0  0  0  0  0  0  0  0  0  0
   64.3246   32.4631   47.0828 H   0  0  0  0  0  0  0  0  0  0  0  0
   61.7635   30.6879   47.6836 H   0  0  0  0  0  0  0  0  0  0  0  0
   60.1160   29.2750   46.6130 H   0  0  0  0  0  0  0  0  0  0  0  0
   59.0067   29.7486   44.3213 H   0  0  0  0  0  0  0  0  0  0  0  0
   57.6697   28.4647   46.7212 H   0  0  0  0  0  0  0  0  0  0  0  0
   56.7244   28.6343   45.2032 H   0  0  0  0  0  0  0  0  0  0  0  0
   58.2653   27.7112   45.2032 H   0  0  0  0  0  0  0  0  0  0  0  0
  1  2  1  0
  2  3  1  0
  3  4  1  0
  4  5  1  0
  5  6  2  0
  5  7  1  0
  7  8  2  0
  8  9  1  0
  9 10  2  0
 10 11  1  0
 11 12  1  0
 12 13  2  0
 13 14  1  0
 14 15  2  0
 10 16  1  0
 16 17  2  0
 17 18  1  0
 18 19  1  0
 19 20  1  0
 19  4  1  0
 17  7  1  0
 15 11  1  0
  1 21  1  0
  1 22  1  0
  1 23  1  0
  2 24  1  0
  2 25  1  0
  8 26  1  0
  9 27  1  0
 12 28  1  0
 13 29  1  0
 14 30  1  0
 15 31  1  0
 16 32  1  0
 18 33  1  0
 19 34  1  6
 20 35  1  0
 20 36  1  0
 20 37  1  0
M  CHG  1  14   1
M  END
>  <UniqueID>  (18) 
17

>  <SMILES>  (18) 
CCON1C(=O)c2ccc(-n3cc[nH+]c3)cc2N[C@H]1C

>  <Energy>  (18) 
68.49256033336601

>  <Genealogy>  (18) 
CCON1C(=O)c2ccc(-n3cc[nH+]c3)cc2NC1C (protonated)
CCON1C(=O)c2ccc(-n3cc[nH+]c3)cc2N[C@H]1C (chirality)
CCON1C(=O)c2ccc(-n3cc[nH+]c3)cc2N[C@H]1C (3D coordinates assigned)
CCON1C(=O)c2ccc(-n3cc[nH+]c3)cc2N[C@H]1C (nonaromatic ring conformer: 68.49256033336601 kcal/mol)

>  <smiles>  (18) 
CCON1C(=O)c2ccc(-n3ccnc3)cc2NC1C

>  <score_type>  (18) 
oracle

>  <origin>  (18) 
adg

>  <m_score__min__energy>  (18) 
-5.6200000000000001

>  <m_primary>  (18) 
energy

$$$$
18:0
     RDKit          3D

 74 77  0  0  0  0  0  0  0  0999 V2000
   58.1470   26.7180   43.2180 C   0  0  0  0  0  0  0  0  0  0  0  0
   57.8290   28.1360   43.7110 C   0  0  0  0  0  0  0  0  0  0  0  0
   56.9740   28.8880   42.7770 N   0  0  0  0  0  0  0  0  0  0  0  0
   56.4180   30.1150   43.3820 C   0  0  0  0  0  0  0  0  0  0  0  0
   57.4890   30.8990   44.1640 C   0  0  0  0  0  0  0  0  0  0  0  0
   57.4710   30.5730   45.5980 N   0  0  0  0  0  0  0  0  0  0  0  0
   58.5770   30.8580   46.4730 C   0  0  0  0  0  0  0  0  0  0  0  0
   58.9730   32.1860   46.6990 C   0  0  0  0  0  0  0  0  0  0  0  0
   58.3700   33.2490   45.9940 C   0  0  0  0  0  0  0  0  0  0  0  0
   58.6910   34.5720   46.2870 C   0  0  0  0  0  0  0  0  0  0  0  0
   59.6090   34.8570   47.2910 C   0  0  0  0  0  0  0  0  0  0  0  0
   60.2430   33.8220   47.9780 C   0  0  0  0  0  0  0  0  0  0  0  0
   59.9750   32.4640   47.6680 C   0  0  0  0  0  0  0  0  0  0  0  0
   60.6420   31.4250   48.2960 N   0  0  0  0  0  0  0  0  0  0  0  0
   61.8770   31.6950   49.0730 C   0  0  0  0  0  0  0  0  0  0  0  0
   60.2000   30.1240   48.1440 C   0  0  0  0  0  0  0  0  0  0  0  0
   60.7030   29.0610   48.9400 C   0  0  0  0  0  0  0  0  0  0  0  0
   60.3170   27.7260   48.7090 C   0  0  0  0  0  0  0  0  0  0  0  0
   60.8240   26.6610   49.4700 O   0  0  0  0  0  0  0  0  0  0  0  0
   61.1560   26.7330   50.8530 C   0  0  0  0  0  0  0  0  0  0  0  0
   59.4190   27.4460   47.6720 C   0  0  0  0  0  0  0  0  0  0  0  0
   59.0180   26.1390   47.3740 O   0  0  0  0  0  0  0  0  0  0  0  0
   57.7600   25.8340   46.7860 C   0  0  0  0  0  0  0  0  0  0  0  0
   57.8740   24.5960   45.8740 C   0  0  0  0  0  0  0  0  0  0  0  0
   56.8840   23.4830   46.1180 N   0  0  0  0  0  0  0  0  0  0  0  0
   56.6430   23.3790   47.5880 C   0  0  0  0  0  0  0  0  0  0  0  0
   57.3110   22.1340   45.6420 C   0  0  0  0  0  0  0  0  0  0  0  0
   57.4420   21.9870   44.1110 C   0  0  0  0  0  0  0  0  0  0  0  0
   56.8100   23.1130   43.2890 C   0  0  0  0  0  0  0  0  0  0  0  0
   55.5580   23.7210   43.9340 C   0  0  0  0  0  0  0  0  0  0  0  0
   55.5760   23.8190   45.4810 C   0  0  0  0  0  0  0  0  0  0  0  0
   58.8920   28.4770   46.9060 C   0  0  0  0  0  0  0  0  0  0  0  0
   59.2130   29.8190   47.1730 C   0  0  0  0  0  0  0  0  0  0  0  0
   58.2959   26.0541   44.0823 H   0  0  0  0  0  0  0  0  0  0  0  0
   57.3102   26.3452   42.6091 H   0  0  0  0  0  0  0  0  0  0  0  0
   59.0629   26.7383   42.6091 H   0  0  0  0  0  0  0  0  0  0  0  0
   57.3123   28.0635   44.6794 H   0  0  0  0  0  0  0  0  0  0  0  0
   58.7824   28.6780   43.7959 H   0  0  0  0  0  0  0  0  0  0  0  0
   56.1900   28.2760   42.4490 H   0  0  0  0  0  0  0  0  0  0  0  0
   57.5610   29.1260   41.9460 H   0  0  0  0  0  0  0  0  0  0  0  0
   56.0182   30.7570   42.5832 H   0  0  0  0  0  0  0  0  0  0  0  0
   55.6248   29.8220   44.0856 H   0  0  0  0  0  0  0  0  0  0  0  0
   58.4798   30.6512   43.7556 H   0  0  0  0  0  0  0  0  0  0  0  0
   57.2720   31.9720   44.0561 H   0  0  0  0  0  0  0  0  0  0  0  0
   56.6310   30.0910   45.9960 H   0  0  0  0  0  0  0  0  0  0  0  0
   57.6374   33.0300   45.2032 H   0  0  0  0  0  0  0  0  0  0  0  0
   58.2185   35.3907   45.7244 H   0  0  0  0  0  0  0  0  0  0  0  0
   59.8363   35.9029   47.5447 H   0  0  0  0  0  0  0  0  0  0  0  0
   60.9632   34.0629   48.7738 H   0  0  0  0  0  0  0  0  0  0  0  0
   61.6516   31.6457   50.1485 H   0  0  0  0  0  0  0  0  0  0  0  0
   62.6393   30.9423   48.8232 H   0  0  0  0  0  0  0  0  0  0  0  0
   62.2556   32.6971   48.8232 H   0  0  0  0  0  0  0  0  0  0  0  0
   61.4086   29.2846   49.7537 H   0  0  0  0  0  0  0  0  0  0  0  0
   60.2572   26.5381   51.4565 H   0  0  0  0  0  0  0  0  0  0  0  0
   61.9240   25.9805   51.0854 H   0  0  0  0  0  0  0  0  0  0  0  0
   61.5433   27.7360   51.0854 H   0  0  0  0  0  0  0  0  0  0  0  0
   57.0285   25.6307   47.5820 H   0  0  0  0  0  0  0  0  0  0  0  0
   57.4339   26.6923   46.1802 H   0  0  0  0  0  0  0  0  0  0  0  0
   57.7466   24.9341   44.8350 H   0  0  0  0  0  0  0  0  0  0  0  0
   58.8596   24.1614   46.0971 H   0  0  0  0  0  0  0  0  0  0  0  0
   57.5212   23.7580   48.1313 H   0  0  0  0  0  0  0  0  0  0  0  0
   55.7593   23.9758   47.8578 H   0  0  0  0  0  0  0  0  0  0  0  0
   56.4710   22.3266   47.8578 H   0  0  0  0  0  0  0  0  0  0  0  0
   58.2901   21.9094   46.0902 H   0  0  0  0  0  0  0  0  0  0  0  0
   56.5167   21.4373   45.9481 H   0  0  0  0  0  0  0  0  0  0  0  0
   58.5131   21.9460   43.8640 H   0  0  0  0  0  0  0  0  0  0  0  0
   56.8929   21.0716   43.8454 H   0  0  0  0  0  0  0  0  0  0  0  0
   57.5567   23.9106   43.1612 H   0  0  0  0  0  0  0  0  0  0  0  0
   56.4961   22.6735   42.3307 H   0  0  0  0  0  0  0  0  0  0  0  0
   55.4314   24.7374   43.5329 H   0  0  0  0  0  0  0  0  0  0  0  0
   54.7327   23.0368   43.6876 H   0  0  0  0  0  0  0  0  0  0  0  0
   55.3147   24.8502   45.7609 H   0  0  0  0  0  0  0  0  0  0  0  0
   54.8551   23.0724   45.8454 H   0  0  0  0  0  0  0  0  0  0  0  0
   58.2111   28.2393   46.0754 H   0  0  0  0  0  0  0  0  0  0  0  0
  1  2  1  0
  2  3  1  0
  3  4  1  0
  4  5  1  0
  5  6  1  0
  6  7  1  0
  7  8  2  0
  8  9  1  0
  9 10  2  0
 10 11  1  0
 11 12  2  0
 12 13  1  0
 13 14  2  0
 14 15  1  0
 14 16  1  0
 16 17  2  0
 17 18  1  0
 18 19  1  0
 19 20  1  0
 18 21  2  0
 21 22  1  0
 22 23  1  0
 23 24  1  0
 24 25  1  0
 25 26  1  0
 25 27  1  0
 27 28  1  0
 28 29  1  0
 29 30  1  0
 30 31  1  0
 21 32  1  0
 32 33  2  0
 33  7  1  0
 13  8  1  0
 33 16  1  0
 31 25  1  0
  1 34  1  0
  1 35  1  0
  1 36  1  0
  2 37  1  0
  2 38  1  0
  3 39  1  0
  3 40  1  0
  4 41  1  0
  4 42  1  0
  5 43  1  0
  5 44  1  0
  6 45  1  0
  9 46  1  0
 10 47  1  0
 11 48  1  0
 12 49  1  0
 15 50  1  0
 15 51  1  0
 15 52  1  0
 17 53  1  0
 20 54  1  0
 20 55  1  0
 20 56  1  0
 23 57  1  0
 23 58  1  0
 24 59  1  0
 24 60  1  0
 26 61  1  0
 26 62  1  0
 26 63  1  0
 27 64  1  0
 27 65  1  0
 28 66  1  0
 28 67  1  0
 29 68  1  0
 29 69  1  0
 30 70  1  0
 30 71  1  0
 31 72  1  0
 31 73  1  0
 32 74  1  0
M  CHG  3   3   1  14   1  25   1
M  END
>  <UniqueID>  (19) 
18

>  <SMILES>  (19) 
CC[NH2+]CCNc1c2ccccc2[n+](C)c2cc(OC)c(OCC[N+]3(C)CCCCC3)cc12

>  <Energy>  (19) 
125.44738071059703

>  <Genealogy>  (19) 
CC[NH2+]CCNc1c2ccccc2[n+](C)c2cc(OC)c(OCC[N+]3(C)CCCCC3)cc12 (protonated)
CC[NH2+]CCNc1c2ccccc2[n+](C)c2cc(OC)c(OCC[N+]3(C)CCCCC3)cc12 (3D coordinates assigned)
CC[NH2+]CCNc1c2ccccc2[n+](C)c2cc(OC)c(OCC[N+]3(C)CCCCC3)cc12 (nonaromatic ring conformer: 125.44738071059703 kcal/mol)

>  <smiles>  (19) 
CCNCCNc1c2ccccc2[n+](C)c2cc(OC)c(OCC[N+]3(C)CCCCC3)cc12

>  <score_type>  (19) 
oracle

>  <origin>  (19) 
adg

>  <m_score__min__energy>  (19) 
-3.7000000000000002

>  <m_primary>  (19) 
energy

$$$$
19:0
     RDKit          3D

 57 58  0  0  0  0  0  0  0  0999 V2000
   58.9010   23.2750   45.3710 C   0  0  0  0  0  0  0  0  0  0  0  0
   58.4550   21.9630   44.7290 C   0  0  0  0  0  0  0  0  0  0  0  0
   57.1430   22.1230   44.0590 N   0  0  0  0  0  0  0  0  0  0  0  0
   56.9730   21.1090   42.9980 C   0  0  0  0  0  0  0  0  0  0  0  0
   57.0020   23.4820   43.4810 C   0  0  0  0  0  0  0  0  0  0  0  0
   55.5400   23.9400   43.5110 C   0  0  0  0  0  0  0  0  0  0  0  0
   54.7280   22.9930   44.1810 O   0  0  0  0  0  0  0  0  0  0  0  0
   53.8090   23.6390   45.0370 C   0  0  0  0  0  0  0  0  0  0  0  0
   54.5720   24.5410   45.9970 C   0  0  0  0  0  0  0  0  0  0  0  0
   54.4170   25.8810   45.6040 O   0  0  0  0  0  0  0  0  0  0  0  0
   55.3120   26.6060   46.3270 N   0  0  0  0  0  0  0  0  0  0  0  0
   56.7150   26.5470   46.0630 C   0  0  0  0  0  0  0  0  0  0  0  0
   57.4400   25.7180   46.6780 O   0  0  0  0  0  0  0  0  0  0  0  0
   57.3230   27.4550   45.0370 C   0  0  0  0  0  0  0  0  0  0  0  0
   58.6510   28.0550   45.5160 C   0  0  0  0  0  0  0  0  0  0  0  0
   58.4810   29.4710   45.9880 C   0  0  0  0  0  0  0  0  0  0  0  0
   58.6910   29.9390   47.2780 C   0  0  0  0  0  0  0  0  0  0  0  0
   58.5410   31.2850   47.3230 N   0  0  0  0  0  0  0  0  0  0  0  0
   58.7770   32.1300   48.4940 C   0  0  0  0  0  0  0  0  0  0  0  0
   58.8430   31.2770   49.7580 C   0  0  0  0  0  0  0  0  0  0  0  0
   58.2670   31.6780   46.0570 C   0  0  0  0  0  0  0  0  0  0  0  0
   58.0770   32.9770   45.5800 C   0  0  0  0  0  0  0  0  0  0  0  0
   57.8300   33.1450   44.2050 C   0  0  0  0  0  0  0  0  0  0  0  0
   57.7740   32.0260   43.3430 C   0  0  0  0  0  0  0  0  0  0  0  0
   57.5190   32.2080   41.9380 C   0  0  0  0  0  0  0  0  0  0  0  0
   57.3140   32.3580   40.8090 N   0  0  0  0  0  0  0  0  0  0  0  0
   57.9640   30.7270   43.8560 C   0  0  0  0  0  0  0  0  0  0  0  0
   58.2170   30.5920   45.2200 C   0  0  0  0  0  0  0  0  0  0  0  0
   58.8678   23.1772   46.4661 H   0  0  0  0  0  0  0  0  0  0  0  0
   59.9286   23.5073   45.0546 H   0  0  0  0  0  0  0  0  0  0  0  0
   58.2279   24.0854   45.0546 H   0  0  0  0  0  0  0  0  0  0  0  0
   59.2039   21.6527   43.9855 H   0  0  0  0  0  0  0  0  0  0  0  0
   58.3577   21.2010   45.5163 H   0  0  0  0  0  0  0  0  0  0  0  0
   56.8077   20.1228   43.4564 H   0  0  0  0  0  0  0  0  0  0  0  0
   56.1066   21.3731   42.3738 H   0  0  0  0  0  0  0  0  0  0  0  0
   57.8782   21.0761   42.3738 H   0  0  0  0  0  0  0  0  0  0  0  0
   57.6122   24.1868   44.0649 H   0  0  0  0  0  0  0  0  0  0  0  0
   57.3407   23.4558   42.4348 H   0  0  0  0  0  0  0  0  0  0  0  0
   55.4755   24.9049   44.0352 H   0  0  0  0  0  0  0  0  0  0  0  0
   55.1817   24.0407   42.4759 H   0  0  0  0  0  0  0  0  0  0  0  0
   53.1112   24.2438   44.4392 H   0  0  0  0  0  0  0  0  0  0  0  0
   53.2414   22.8879   45.6060 H   0  0  0  0  0  0  0  0  0  0  0  0
   54.1775   24.4096   47.0154 H   0  0  0  0  0  0  0  0  0  0  0  0
   55.6392   24.2751   45.9800 H   0  0  0  0  0  0  0  0  0  0  0  0
   57.5043   26.8802   44.1168 H   0  0  0  0  0  0  0  0  0  0  0  0
   56.6213   28.2828   44.8571 H   0  0  0  0  0  0  0  0  0  0  0  0
   59.0387   27.4463   46.3462 H   0  0  0  0  0  0  0  0  0  0  0  0
   59.3525   28.0571   44.6687 H   0  0  0  0  0  0  0  0  0  0  0  0
   58.9435   29.3064   48.1418 H   0  0  0  0  0  0  0  0  0  0  0  0
   59.7289   32.6667   48.3683 H   0  0  0  0  0  0  0  0  0  0  0  0
   57.9493   32.8482   48.5897 H   0  0  0  0  0  0  0  0  0  0  0  0
   58.7926   31.9284   50.6430 H   0  0  0  0  0  0  0  0  0  0  0  0
   57.9965   30.5747   49.7710 H   0  0  0  0  0  0  0  0  0  0  0  0
   59.7874   30.7132   49.7710 H   0  0  0  0  0  0  0  0  0  0  0  0
   58.1192   33.8419   46.2583 H   0  0  0  0  0  0  0  0  0  0  0  0
   57.6792   34.1555   43.7974 H   0  0  0  0  0  0  0  0  0  0  0  0
   57.9141   29.8459   43.1994 H   0  0  0  0  0  0  0  0  0  0  0  0
  1  2  1  0
  2  3  1  0
  3  4  1  0
  3  5  1  0
  5  6  1  0
  6  7  1  0
  7  8  1  0
  8  9  1  0
  9 10  1  0
 10 11  1  0
 11 12  1  0
 12 13  2  0
 12 14  1  0
 14 15  1  0
 15 16  1  0
 16 17  2  0
 17 18  1  0
 18 19  1  0
 19 20  1  0
 18 21  1  0
 21 22  2  0
 22 23  1  0
 23 24  2  0
 24 25  1  0
 25 26  3  0
 24 27  1  0
 27 28  2  0
 28 16  1  0
 28 21  1  0
  1 29  1  0
  1 30  1  0
  1 31  1  0
  2 32  1  0
  2 33  1  0
  4 34  1  0
  4 35  1  0
  4 36  1  0
  5 37  1  0
  5 38  1  0
  6 39  1  0
  6 40  1  0
  8 41  1  0
  8 42  1  0
  9 43  1  0
  9 44  1  0
 14 45  1  0
 14 46  1  0
 15 47  1  0
 15 48  1  0
 17 49  1  0
 19 50  1  0
 19 51  1  0
 20 52  1  0
 20 53  1  0
 20 54  1  0
 22 55  1  0
 23 56  1  0
 27 57  1  0
M  CHG  1  11  -1
M  END
>  <UniqueID>  (20) 
19

>  <SMILES>  (20) 
CCN(C)CCOCCO[N-]C(=O)CCc1cn(CC)c2ccc(C#N)cc12

>  <Energy>  (20) 
74.22731879549787

>  <Genealogy>  (20) 
CCN(C)CCOCCO[N-]C(=O)CCc1cn(CC)c2ccc(C#N)cc12 (protonated)
CCN(C)CCOCCO[N-]C(=O)CCc1cn(CC)c2ccc(C#N)cc12 (3D coordinates assigned)
CCN(C)CCOCCO[N-]C(=O)CCc1cn(CC)c2ccc(C#N)cc12 (optimized conformer: 74.22731879549787 kcal/mol)

>  <smiles>  (20) 
CCN(C)CCOCCONC(=O)CCc1cn(CC)c2ccc(C#N)cc12

>  <score_type>  (20) 
oracle

>  <origin>  (20) 
adg

>  <m_score__min__energy>  (20) 
-10.07

>  <m_primary>  (20) 
energy

$$$$
20:0
     RDKit          3D

104108  0  0  0  0  0  0  0  0999 V2000
   57.0290   31.2710   44.4600 C   0  0  0  0  0  0  0  0  0  0  0  0
   58.0700   31.8960   43.5230 C   0  0  0  0  0  0  0  0  0  0  0  0
   57.5250   31.9630   42.0890 C   0  0  0  0  0  0  0  0  0  0  0  0
   58.4870   33.2970   44.0170 C   0  0  0  0  0  0  0  0  0  0  0  0
   57.7260   33.7000   45.2990 C   0  0  0  0  0  0  0  0  0  0  0  0
   58.6030   34.5810   46.2170 C   0  0  0  0  0  0  0  0  0  0  0  0
   59.1370   33.8430   47.4810 C   0  0  2  0  0  0  0  0  0  0  0  0
   60.3630   34.5250   48.1210 C   0  0  0  0  0  0  0  0  0  0  0  0
   59.3550   32.2870   47.3400 C   0  0  1  0  0  0  0  0  0  0  0  0
   60.7470   31.9330   46.7210 C   0  0  0  0  0  0  0  0  0  0  0  0
   61.4870   31.0300   47.7230 C   0  0  0  0  0  0  0  0  0  0  0  0
   60.7110   31.2310   49.0070 C   0  0  2  0  0  0  0  0  0  0  0  0
   61.0610   30.4050   50.2690 C   0  0  2  0  0  0  0  0  0  0  0  0
   61.1910   28.8710   50.1570 C   0  0  0  0  0  0  0  0  0  0  0  0
   61.9370   28.3220   51.3910 C   0  0  0  0  0  0  0  0  0  0  0  0
   61.7790   29.2280   52.6050 C   0  0  0  0  0  0  0  0  0  0  0  0
   62.8260   29.3790   53.4490 C   0  0  0  0  0  0  0  0  0  0  0  0
   62.8300   30.3980   54.5440 C   0  0  1  0  0  0  0  0  0  0  0  0
   63.2250   31.6430   53.9820 O   0  0  0  0  0  0  0  0  0  0  0  0
   62.9480   32.7490   54.8350 C   0  0  0  0  0  0  0  0  0  0  0  0
   62.1720   33.8330   54.0730 C   0  0  0  0  0  0  0  0  0  0  0  0
   61.9820   33.4430   52.5940 C   0  0  0  0  0  0  0  0  0  0  0  0
   63.1740   33.8610   51.6970 C   0  0  0  0  0  0  0  0  0  0  0  0
   64.3070   32.9020   51.6960 N   0  0  0  0  0  0  0  0  0  0  0  0
   65.4880   33.5100   51.0200 C   0  0  0  0  0  0  0  0  0  0  0  0
   66.4290   32.4730   50.3520 C   0  0  0  0  0  0  0  0  0  0  0  0
   66.4370   31.1820   51.0670 N   0  0  0  0  0  0  0  0  0  0  0  0
   67.1800   31.2580   52.3360 C   0  0  0  0  0  0  0  0  0  0  0  0
   65.0820   30.5970   51.2310 C   0  0  0  0  0  0  0  0  0  0  0  0
   63.9440   31.6170   51.0610 C   0  0  0  0  0  0  0  0  0  0  0  0
   61.4220   30.5230   55.1240 C   0  0  0  0  0  0  0  0  0  0  0  0
   60.4440   30.9580   54.0240 C   0  0  0  0  0  0  0  0  0  0  0  0
   60.4390   29.9800   52.7870 C   0  0  2  0  0  0  0  0  0  0  0  0
   59.3590   28.9020   53.0700 C   0  0  0  0  0  0  0  0  0  0  0  0
   60.1350   30.8090   51.4600 C   0  0  2  0  0  0  0  0  0  0  0  0
   58.6330   30.8550   51.0370 C   0  0  0  0  0  0  0  0  0  0  0  0
   58.3940   31.7680   49.8140 C   0  0  0  0  0  0  0  0  0  0  0  0
   59.2370   31.3290   48.5890 C   0  0  1  0  0  0  0  0  0  0  0  0
   58.6530   29.9850   48.0550 C   0  0  0  0  0  0  0  0  0  0  0  0
   57.3233   31.4477   45.5051 H   0  0  0  0  0  0  0  0  0  0  0  0
   56.0462   31.7285   44.2735 H   0  0  0  0  0  0  0  0  0  0  0  0
   56.9708   30.1885   44.2735 H   0  0  0  0  0  0  0  0  0  0  0  0
   58.9658   31.2576   43.5263 H   0  0  0  0  0  0  0  0  0  0  0  0
   56.4336   32.0972   42.1174 H   0  0  0  0  0  0  0  0  0  0  0  0
   57.9851   32.8113   41.5611 H   0  0  0  0  0  0  0  0  0  0  0  0
   57.7659   31.0285   41.5611 H   0  0  0  0  0  0  0  0  0  0  0  0
   59.5663   33.2936   44.2292 H   0  0  0  0  0  0  0  0  0  0  0  0
   58.2426   34.0253   43.2297 H   0  0  0  0  0  0  0  0  0  0  0  0
   56.8231   34.2622   45.0183 H   0  0  0  0  0  0  0  0  0  0  0  0
   57.4587   32.7846   45.8472 H   0  0  0  0  0  0  0  0  0  0  0  0
   59.4653   34.9370   45.6341 H   0  0  0  0  0  0  0  0  0  0  0  0
   57.9649   35.4029   46.5739 H   0  0  0  0  0  0  0  0  0  0  0  0
   58.2910   33.9439   48.1767 H   0  0  0  0  0  0  0  0  0  0  0  0
   60.2784   34.4779   49.2167 H   0  0  0  0  0  0  0  0  0  0  0  0
   61.2792   34.0069   47.8014 H   0  0  0  0  0  0  0  0  0  0  0  0
   60.4060   35.5767   47.8014 H   0  0  0  0  0  0  0  0  0  0  0  0
   58.4754   32.0881   46.7101 H   0  0  0  0  0  0  0  0  0  0  0  0
   60.6092   31.4012   45.7680 H   0  0  0  0  0  0  0  0  0  0  0  0
   61.3260   32.8476   46.5252 H   0  0  0  0  0  0  0  0  0  0  0  0
   61.4558   29.9778   47.4037 H   0  0  0  0  0  0  0  0  0  0  0  0
   62.5544   31.2773   47.8204 H   0  0  0  0  0  0  0  0  0  0  0  0
   61.0536   32.1633   49.4797 H   0  0  0  0  0  0  0  0  0  0  0  0
   62.1078   30.6923   50.4471 H   0  0  0  0  0  0  0  0  0  0  0  0
   60.1883   28.4216   50.1058 H   0  0  0  0  0  0  0  0  0  0  0  0
   61.7554   28.6182   49.2473 H   0  0  0  0  0  0  0  0  0  0  0  0
   61.5348   27.3278   51.6355 H   0  0  0  0  0  0  0  0  0  0  0  0
   63.0077   28.2694   51.1443 H   0  0  0  0  0  0  0  0  0  0  0  0
   63.7051   28.7295   53.3254 H   0  0  0  0  0  0  0  0  0  0  0  0
   63.5229   30.1020   55.3454 H   0  0  0  0  0  0  0  0  0  0  0  0
   62.3462   32.4057   55.6894 H   0  0  0  0  0  0  0  0  0  0  0  0
   63.8993   33.1736   55.1882 H   0  0  0  0  0  0  0  0  0  0  0  0
   61.1846   33.9633   54.5399 H   0  0  0  0  0  0  0  0  0  0  0  0
   62.7467   34.7699   54.1163 H   0  0  0  0  0  0  0  0  0  0  0  0
   61.8636   32.3511   52.5324 H   0  0  0  0  0  0  0  0  0  0  0  0
   61.0924   33.9754   52.2262 H   0  0  0  0  0  0  0  0  0  0  0  0
   62.8084   33.9626   50.6645 H   0  0  0  0  0  0  0  0  0  0  0  0
   63.5616   34.8041   52.1097 H   0  0  0  0  0  0  0  0  0  0  0  0
   64.5800   32.7250   52.6910 H   0  0  0  0  0  0  0  0  0  0  0  0
   65.1261   34.2005   50.2440 H   0  0  0  0  0  0  0  0  0  0  0  0
   66.0746   34.0211   51.7976 H   0  0  0  0  0  0  0  0  0  0  0  0
   66.0917   32.3031   49.3189 H   0  0  0  0  0  0  0  0  0  0  0  0
   67.4509   32.8792   50.3792 H   0  0  0  0  0  0  0  0  0  0  0  0
   66.4759   31.1860   53.1780 H   0  0  0  0  0  0  0  0  0  0  0  0
   67.9010   30.4289   52.3890 H   0  0  0  0  0  0  0  0  0  0  0  0
   67.7182   32.2159   52.3890 H   0  0  0  0  0  0  0  0  0  0  0  0
   64.9528   29.8040   50.4797 H   0  0  0  0  0  0  0  0  0  0  0  0
   65.0195   30.2140   52.2603 H   0  0  0  0  0  0  0  0  0  0  0  0
   63.7610   31.7811   49.9888 H   0  0  0  0  0  0  0  0  0  0  0  0
   63.0365   31.2239   51.5425 H   0  0  0  0  0  0  0  0  0  0  0  0
   61.1064   29.5505   55.5297 H   0  0  0  0  0  0  0  0  0  0  0  0
   61.4249   31.2756   55.9262 H   0  0  0  0  0  0  0  0  0  0  0  0
   59.4300   30.9919   54.4490 H   0  0  0  0  0  0  0  0  0  0  0  0
   60.7695   31.9450   53.6637 H   0  0  0  0  0  0  0  0  0  0  0  0
   59.2377   28.7809   54.1566 H   0  0  0  0  0  0  0  0  0  0  0  0
   58.4024   29.2162   52.6270 H   0  0  0  0  0  0  0  0  0  0  0  0
   59.6714   27.9448   52.6270 H   0  0  0  0  0  0  0  0  0  0  0  0
   60.3816   31.8444   51.7378 H   0  0  0  0  0  0  0  0  0  0  0  0
   58.3051   29.8354   50.7863 H   0  0  0  0  0  0  0  0  0  0  0  0
   58.0592   31.2666   51.8804 H   0  0  0  0  0  0  0  0  0  0  0  0
   57.3283   31.7289   49.5443 H   0  0  0  0  0  0  0  0  0  0  0  0
   58.6976   32.7893   50.0874 H   0  0  0  0  0  0  0  0  0  0  0  0
   58.3742   29.3434   48.9039 H   0  0  0  0  0  0  0  0  0  0  0  0
   57.7627   30.1898   47.4423 H   0  0  0  0  0  0  0  0  0  0  0  0
   59.4102   29.4739   47.4423 H   0  0  0  0  0  0  0  0  0  0  0  0
  1  2  1  0
  2  3  1  0
  2  4  1  0
  4  5  1  0
  5  6  1  0
  6  7  1  0
  7  8  1  0
  7  9  1  0
  9 10  1  0
 10 11  1  0
 11 12  1  0
 12 13  1  0
 13 14  1  0
 14 15  1  0
 15 16  1  0
 16 17  2  0
 17 18  1  0
 18 19  1  0
 19 20  1  0
 20 21  1  0
 21 22  1  0
 22 23  1  0
 23 24  1  0
 24 25  1  0
 25 26  1  0
 26 27  1  0
 27 28  1  0
 27 29  1  0
 29 30  1  0
 18 31  1  0
 31 32  1  0
 32 33  1  0
 33 34  1  1
 33 35  1  0
 35 36  1  0
 36 37  1  0
 37 38  1  0
 38 39  1  6
 38  9  1  0
 38 12  1  0
 35 13  1  0
 33 16  1  0
 30 24  1  0
  1 40  1  0
  1 41  1  0
  1 42  1  0
  2 43  1  0
  3 44  1  0
  3 45  1  0
  3 46  1  0
  4 47  1  0
  4 48  1  0
  5 49  1  0
  5 50  1  0
  6 51  1  0
  6 52  1  0
  7 53  1  1
  8 54  1  0
  8 55  1  0
  8 56  1  0
  9 57  1  6
 10 58  1  0
 10 59  1  0
 11 60  1  0
 11 61  1  0
 12 62  1  1
 13 63  1  1
 14 64  1  0
 14 65  1  0
 15 66  1  0
 15 67  1  0
 17 68  1  0
 18 69  1  1
 20 70  1  0
 20 71  1  0
 21 72  1  0
 21 73  1  0
 22 74  1  0
 22 75  1  0
 23 76  1  0
 23 77  1  0
 24 78  1  0
 25 79  1  0
 25 80  1  0
 26 81  1  0
 26 82  1  0
 28 83  1  0
 28 84  1  0
 28 85  1  0
 29 86  1  0
 29 87  1  0
 30 88  1  0
 30 89  1  0
 31 90  1  0
 31 91  1  0
 32 92  1  0
 32 93  1  0
 34 94  1  0
 34 95  1  0
 34 96  1  0
 35 97  1  1
 36 98  1  0
 36 99  1  0
 37100  1  0
 37101  1  0
 39102  1  0
 39103  1  0
 39104  1  0
M  CHG  1  24   1
M  END
>  <UniqueID>  (21) 
20

>  <SMILES>  (21) 
CC(C)CCC[C@H](C)[C@H]1CCC2C3CCC4=CC(OCCCC[NH+]5CCN(C)CC5)CCC4(C)C3CCC21C

>  <Energy>  (21) 
157.1060019983432

>  <Genealogy>  (21) 
CC(C)CCCC(C)C1CCC2C3CCC4=CC(OCCCC[NH+]5CCN(C)CC5)CCC4(C)C3CCC12C (protonated)
CC(C)CCC[C@H](C)[C@H]1CCC2C3CCC4=CC(OCCCC[NH+]5CCN(C)CC5)CCC4(C)C3CCC21C (chirality)
CC(C)CCC[C@H](C)[C@H]1CCC2C3CCC4=CC(OCCCC[NH+]5CCN(C)CC5)CCC4(C)C3CCC21C (3D coordinates assigned)
CC(C)CCC[C@H](C)[C@H]1CCC2C3CCC4=CC(OCCCC[NH+]5CCN(C)CC5)CCC4(C)C3CCC21C (nonaromatic ring conformer: 157.1060019983432 kcal/mol)

>  <smiles>  (21) 
CC(C)CCCC(C)C1CCC2C3CCC4=CC(OCCCCN5CCN(C)CC5)CCC4(C)C3CCC12C

>  <score_type>  (21) 
oracle

>  <origin>  (21) 
adg

>  <m_score__min__energy>  (21) 
-9.0600000000000005

>  <m_primary>  (21) 
energy

$$$$
21:0
     RDKit          3D

 49 51  0  0  0  0  0  0  0  0999 V2000
   57.3120   34.5590   44.8730 C   0  0  0  0  0  0  0  0  0  0  0  0
   57.0810   33.4960   45.9420 C   0  0  0  0  0  0  0  0  0  0  0  0
   58.1130   32.4390   45.8890 N   0  0  0  0  0  0  0  0  0  0  0  0
   59.3890   32.6470   46.3910 C   0  0  0  0  0  0  0  0  0  0  0  0
   59.9550   34.2880   46.9030 S   0  0  0  0  0  0  0  0  0  0  0  0
   59.2650   34.2090   48.5990 C   0  0  0  0  0  0  0  0  0  0  0  0
   60.2090   33.5040   49.5760 C   0  0  0  0  0  0  0  0  0  0  0  0
   60.0000   31.9900   49.5630 C   0  0  0  0  0  0  0  0  0  0  0  0
   61.1720   31.3520   49.0610 O   0  0  0  0  0  0  0  0  0  0  0  0
   62.4840   31.6810   49.4320 C   0  0  0  0  0  0  0  0  0  0  0  0
   63.0580   31.2250   50.6330 C   0  0  0  0  0  0  0  0  0  0  0  0
   64.3680   31.5730   50.9660 C   0  0  0  0  0  0  0  0  0  0  0  0
   65.1310   32.3680   50.1010 C   0  0  0  0  0  0  0  0  0  0  0  0
   66.5260   32.7720   50.4780 C   0  0  0  0  0  0  0  0  0  0  0  0
   64.5560   32.8410   48.9110 C   0  0  0  0  0  0  0  0  0  0  0  0
   63.2340   32.4960   48.5680 C   0  0  0  0  0  0  0  0  0  0  0  0
   62.6290   32.9430   47.3830 O   0  0  0  0  0  0  0  0  0  0  0  0
   63.2300   33.8500   46.4640 C   0  0  0  0  0  0  0  0  0  0  0  0
   60.2670   31.6020   46.5060 N   0  0  0  0  0  0  0  0  0  0  0  0
   59.9280   30.3800   46.0320 C   0  0  0  0  0  0  0  0  0  0  0  0
   60.7480   29.2470   46.0500 C   0  0  0  0  0  0  0  0  0  0  0  0
   60.1320   28.1380   45.4740 C   0  0  0  0  0  0  0  0  0  0  0  0
   58.5810   28.5740   44.9540 S   0  0  0  0  0  0  0  0  0  0  0  0
   58.7000   30.1710   45.4600 C   0  0  0  0  0  0  0  0  0  0  0  0
   57.7740   31.2000   45.3910 C   0  0  0  0  0  0  0  0  0  0  0  0
   56.6370   30.9860   44.8850 O   0  0  0  0  0  0  0  0  0  0  0  0
   57.5219   35.5249   45.3557 H   0  0  0  0  0  0  0  0  0  0  0  0
   58.1680   34.2687   44.2461 H   0  0  0  0  0  0  0  0  0  0  0  0
   56.4127   34.6501   44.2461 H   0  0  0  0  0  0  0  0  0  0  0  0
   57.1094   33.9735   46.9325 H   0  0  0  0  0  0  0  0  0  0  0  0
   56.1014   33.0304   45.7588 H   0  0  0  0  0  0  0  0  0  0  0  0
   59.0862   35.2338   48.9566 H   0  0  0  0  0  0  0  0  0  0  0  0
   58.3304   33.6305   48.5563 H   0  0  0  0  0  0  0  0  0  0  0  0
   61.2483   33.7238   49.2904 H   0  0  0  0  0  0  0  0  0  0  0  0
   59.9950   33.8732   50.5898 H   0  0  0  0  0  0  0  0  0  0  0  0
   59.8012   31.6387   50.5862 H   0  0  0  0  0  0  0  0  0  0  0  0
   59.1439   31.7439   48.9175 H   0  0  0  0  0  0  0  0  0  0  0  0
   62.4709   30.5906   51.3134 H   0  0  0  0  0  0  0  0  0  0  0  0
   64.8036   31.2211   51.9128 H   0  0  0  0  0  0  0  0  0  0  0  0
   66.6166   32.7982   51.5739 H   0  0  0  0  0  0  0  0  0  0  0  0
   67.2419   32.0443   50.0682 H   0  0  0  0  0  0  0  0  0  0  0  0
   66.7422   33.7697   50.0682 H   0  0  0  0  0  0  0  0  0  0  0  0
   65.1426   33.4864   48.2407 H   0  0  0  0  0  0  0  0  0  0  0  0
   63.7544   34.6413   47.0197 H   0  0  0  0  0  0  0  0  0  0  0  0
   63.9486   33.3085   45.8313 H   0  0  0  0  0  0  0  0  0  0  0  0
   62.4512   34.3007   45.8313 H   0  0  0  0  0  0  0  0  0  0  0  0
   61.2080   31.7490   46.9340 H   0  0  0  0  0  0  0  0  0  0  0  0
   61.7641   29.2331   46.4712 H   0  0  0  0  0  0  0  0  0  0  0  0
   60.5814   27.1391   45.3732 H   0  0  0  0  0  0  0  0  0  0  0  0
  1  2  1  0
  2  3  1  0
  3  4  1  0
  4  5  1  0
  5  6  1  0
  6  7  1  0
  7  8  1  0
  8  9  1  0
  9 10  1  0
 10 11  2  0
 11 12  1  0
 12 13  2  0
 13 14  1  0
 13 15  1  0
 15 16  2  0
 16 17  1  0
 17 18  1  0
  4 19  2  0
 19 20  1  0
 20 21  1  0
 21 22  2  0
 22 23  1  0
 23 24  1  0
 24 25  1  0
 25 26  2  0
 25  3  1  0
 16 10  1  0
 24 20  2  0
  1 27  1  0
  1 28  1  0
  1 29  1  0
  2 30  1  0
  2 31  1  0
  6 32  1  0
  6 33  1  0
  7 34  1  0
  7 35  1  0
  8 36  1  0
  8 37  1  0
 11 38  1  0
 12 39  1  0
 14 40  1  0
 14 41  1  0
 14 42  1  0
 15 43  1  0
 18 44  1  0
 18 45  1  0
 18 46  1  0
 19 47  1  0
 21 48  1  0
 22 49  1  0
M  CHG  1  19   1
M  END
>  <UniqueID>  (22) 
21

>  <SMILES>  (22) 
CCn1c(SCCCOc2ccc(C)cc2OC)[nH+]c2ccsc2c1=O

>  <Energy>  (22) 
76.49269133488409

>  <Genealogy>  (22) 
CCn1c(SCCCOc2ccc(C)cc2OC)[nH+]c2ccsc2c1=O (protonated)
CCn1c(SCCCOc2ccc(C)cc2OC)[nH+]c2ccsc2c1=O (3D coordinates assigned)
CCn1c(SCCCOc2ccc(C)cc2OC)[nH+]c2ccsc2c1=O (optimized conformer: 76.49269133488409 kcal/mol)

>  <smiles>  (22) 
CCn1c(SCCCOc2ccc(C)cc2OC)nc2ccsc2c1=O

>  <score_type>  (22) 
oracle

>  <origin>  (22) 
adg

>  <m_score__min__energy>  (22) 
-6.2300000000000004

>  <m_primary>  (22) 
energy

$$$$
22:0
     RDKit          3D

 59 61  0  0  0  0  0  0  0  0999 V2000
   63.3490   33.1620   47.1420 C   0  0  0  0  0  0  0  0  0  0  0  0
   63.4080   31.9340   48.0560 C   0  0  0  0  0  0  0  0  0  0  0  0
   62.9890   32.2370   49.4480 N   0  0  2  0  0  0  0  0  0  0  0  0
   63.5160   33.5600   49.8350 C   0  0  0  0  0  0  0  0  0  0  0  0
   63.4430   31.1970   50.4160 C   0  0  0  0  0  0  0  0  0  0  0  0
   62.3440   30.1580   50.6980 C   0  0  0  0  0  0  0  0  0  0  0  0
   61.4050   30.1000   49.5710 N   0  0  0  0  0  0  0  0  0  0  0  0
   60.1890   29.3450   49.9130 C   0  0  0  0  0  0  0  0  0  0  0  0
   59.4060   28.9850   48.6470 C   0  0  0  0  0  0  0  0  0  0  0  0
   60.0380   29.5480   47.4550 N   0  0  0  0  0  0  0  0  0  0  0  0
   59.3420   30.5320   46.6710 C   0  0  0  0  0  0  0  0  0  0  0  0
   58.5930   30.1410   45.5480 C   0  0  0  0  0  0  0  0  0  0  0  0
   58.5120   28.7850   45.1700 C   0  0  0  0  0  0  0  0  0  0  0  0
   57.7290   28.3900   44.0880 C   0  0  0  0  0  0  0  0  0  0  0  0
   56.9990   29.3360   43.3780 C   0  0  0  0  0  0  0  0  0  0  0  0
   57.0800   30.6860   43.7190 C   0  0  0  0  0  0  0  0  0  0  0  0
   57.9130   31.1250   44.7810 C   0  0  0  0  0  0  0  0  0  0  0  0
   58.0650   32.4660   45.0830 N   0  0  0  0  0  0  0  0  0  0  0  0
   57.6030   33.4960   44.1230 C   0  0  0  0  0  0  0  0  0  0  0  0
   58.6770   32.8460   46.2620 C   0  0  0  0  0  0  0  0  0  0  0  0
   58.6270   34.1830   46.7300 C   0  0  0  0  0  0  0  0  0  0  0  0
   59.2830   34.5650   47.8990 C   0  0  0  0  0  0  0  0  0  0  0  0
   59.9960   33.6350   48.6510 C   0  0  0  0  0  0  0  0  0  0  0  0
   60.6490   34.0800   49.8110 O   0  0  0  0  0  0  0  0  0  0  0  0
   60.2310   33.7790   51.1380 C   0  0  0  0  0  0  0  0  0  0  0  0
   60.0260   32.2960   48.2310 C   0  0  0  0  0  0  0  0  0  0  0  0
   59.3600   31.8860   47.0550 C   0  0  0  0  0  0  0  0  0  0  0  0
   63.3052   34.0740   47.7555 H   0  0  0  0  0  0  0  0  0  0  0  0
   64.2468   33.1900   46.5071 H   0  0  0  0  0  0  0  0  0  0  0  0
   62.4526   33.1038   46.5071 H   0  0  0  0  0  0  0  0  0  0  0  0
   62.7419   31.1592   47.6484 H   0  0  0  0  0  0  0  0  0  0  0  0
   64.4535   31.5938   48.0896 H   0  0  0  0  0  0  0  0  0  0  0  0
   61.9450   32.3240   49.4640 H   0  0  0  0  0  0  0  0  0  0  0  0
   63.5463   33.6361   50.9319 H   0  0  0  0  0  0  0  0  0  0  0  0
   64.5316   33.6827   49.4308 H   0  0  0  0  0  0  0  0  0  0  0  0
   62.8629   34.3474   49.4308 H   0  0  0  0  0  0  0  0  0  0  0  0
   64.3210   30.6819   49.9990 H   0  0  0  0  0  0  0  0  0  0  0  0
   63.6905   31.6977   51.3637 H   0  0  0  0  0  0  0  0  0  0  0  0
   62.8052   29.1693   50.8388 H   0  0  0  0  0  0  0  0  0  0  0  0
   61.7980   30.4486   51.6076 H   0  0  0  0  0  0  0  0  0  0  0  0
   61.8860   29.6110   48.7800 H   0  0  0  0  0  0  0  0  0  0  0  0
   60.4726   28.4209   50.4380 H   0  0  0  0  0  0  0  0  0  0  0  0
   59.5533   29.9688   50.5586 H   0  0  0  0  0  0  0  0  0  0  0  0
   59.3668   27.8901   48.5488 H   0  0  0  0  0  0  0  0  0  0  0  0
   58.3926   29.4038   48.7340 H   0  0  0  0  0  0  0  0  0  0  0  0
   61.0810   29.5680   47.4250 H   0  0  0  0  0  0  0  0  0  0  0  0
   59.0747   28.0290   45.7372 H   0  0  0  0  0  0  0  0  0  0  0  0
   57.6884   27.3303   43.7956 H   0  0  0  0  0  0  0  0  0  0  0  0
   56.3552   29.0189   42.5443 H   0  0  0  0  0  0  0  0  0  0  0  0
   56.4885   31.4227   43.1555 H   0  0  0  0  0  0  0  0  0  0  0  0
   57.2137   34.3639   44.6755 H   0  0  0  0  0  0  0  0  0  0  0  0
   58.4457   33.8119   43.4904 H   0  0  0  0  0  0  0  0  0  0  0  0
   56.8067   33.0768   43.4904 H   0  0  0  0  0  0  0  0  0  0  0  0
   58.0597   34.9334   46.1598 H   0  0  0  0  0  0  0  0  0  0  0  0
   59.2369   35.6127   48.2311 H   0  0  0  0  0  0  0  0  0  0  0  0
   60.9079   34.2664   51.8551 H   0  0  0  0  0  0  0  0  0  0  0  0
   59.2062   34.1478   51.2922 H   0  0  0  0  0  0  0  0  0  0  0  0
   60.2559   32.6901   51.2922 H   0  0  0  0  0  0  0  0  0  0  0  0
   60.5771   31.5540   48.8274 H   0  0  0  0  0  0  0  0  0  0  0  0
  1  2  1  0
  2  3  1  0
  3  4  1  0
  3  5  1  0
  5  6  1  0
  6  7  1  0
  7  8  1  0
  8  9  1  0
  9 10  1  0
 10 11  1  0
 11 12  2  0
 12 13  1  0
 13 14  2  0
 14 15  1  0
 15 16  2  0
 16 17  1  0
 17 18  2  0
 18 19  1  0
 18 20  1  0
 20 21  2  0
 21 22  1  0
 22 23  2  0
 23 24  1  0
 24 25  1  0
 23 26  1  0
 26 27  2  0
 27 11  1  0
 17 12  1  0
 27 20  1  0
  1 28  1  0
  1 29  1  0
  1 30  1  0
  2 31  1  0
  2 32  1  0
  3 33  1  6
  4 34  1  0
  4 35  1  0
  4 36  1  0
  5 37  1  0
  5 38  1  0
  6 39  1  0
  6 40  1  0
  7 41  1  0
  8 42  1  0
  8 43  1  0
  9 44  1  0
  9 45  1  0
 10 46  1  0
 13 47  1  0
 14 48  1  0
 15 49  1  0
 16 50  1  0
 19 51  1  0
 19 52  1  0
 19 53  1  0
 21 54  1  0
 22 55  1  0
 25 56  1  0
 25 57  1  0
 25 58  1  0
 26 59  1  0
M  CHG  2   3   1  18   1
M  END
>  <UniqueID>  (23) 
22

>  <SMILES>  (23) 
CC[N@H+](C)CCNCCNc1c2ccccc2[n+](C)c2ccc(OC)cc12

>  <Energy>  (23) 
83.3092574771816

>  <Genealogy>  (23) 
CC[NH+](C)CCNCCNc1c2ccccc2[n+](C)c2ccc(OC)cc12 (protonated)
CC[N@H+](C)CCNCCNc1c2ccccc2[n+](C)c2ccc(OC)cc12 (chirality)
CC[N@H+](C)CCNCCNc1c2ccccc2[n+](C)c2ccc(OC)cc12 (3D coordinates assigned)
CC[N@H+](C)CCNCCNc1c2ccccc2[n+](C)c2ccc(OC)cc12 (optimized conformer: 83.3092574771816 kcal/mol)

>  <smiles>  (23) 
CCN(C)CCNCCNc1c2ccccc2[n+](C)c2ccc(OC)cc12

>  <score_type>  (23) 
oracle

>  <origin>  (23) 
adg

>  <m_score__min__energy>  (23) 
-4.2400000000000002

>  <m_primary>  (23) 
energy

$$$$
