0:0
     RDKit          3D

 51 52  0  0  0  0  0  0  0  0999 V2000
   60.0910   27.0130   48.2280 C   0  0  0  0  0  0  0  0  0  0  0  0
   60.2090   27.1520   46.8170 O   0  0  0  0  0  0  0  0  0  0  0  0
   59.5860   28.1580   46.0610 C   0  0  0  0  0  0  0  0  0  0  0  0
   58.6600   27.8630   45.0460 C   0  0  0  0  0  0  0  0  0  0  0  0
   58.0370   28.8900   44.3240 C   0  0  0  0  0  0  0  0  0  0  0  0
   57.1250   28.5810   43.3580 N   0  0  0  0  0  0  0  0  0  0  0  0
   56.4790   29.5450   42.6550 C   0  0  0  0  0  0  0  0  0  0  0  0
   56.7280   30.8900   42.9100 C   0  0  0  0  0  0  0  0  0  0  0  0
   57.6630   31.2630   43.8870 C   0  0  0  0  0  0  0  0  0  0  0  0
   57.8240   32.7410   44.1890 C   0  0  0  0  0  0  0  0  0  0  0  0
   57.0220   33.1530   45.4290 C   0  0  0  0  0  0  0  0  0  0  0  0
   57.9080   33.8100   46.4080 N   0  0  0  0  0  0  0  0  0  0  0  0
   59.1800   34.2470   45.8140 C   0  0  0  0  0  0  0  0  0  0  0  0
   60.2850   34.2700   46.8790 C   0  0  0  0  0  0  0  0  0  0  0  0
   61.5560   33.5610   46.3960 C   0  0  0  0  0  0  0  0  0  0  0  0
   62.6790   33.8200   47.3240 N   0  0  0  0  0  0  0  0  0  0  0  0
   63.7210   32.7930   47.1580 C   0  0  0  0  0  0  0  0  0  0  0  0
   62.2240   33.8310   48.7260 C   0  0  0  0  0  0  0  0  0  0  0  0
   58.3440   30.2440   44.6080 C   0  0  0  0  0  0  0  0  0  0  0  0
   59.2900   30.5280   45.6140 C   0  0  0  0  0  0  0  0  0  0  0  0
   59.9040   29.4920   46.3420 C   0  0  0  0  0  0  0  0  0  0  0  0
   60.8350   29.7500   47.3620 O   0  0  0  0  0  0  0  0  0  0  0  0
   60.6460   30.6910   48.4140 C   0  0  0  0  0  0  0  0  0  0  0  0
   60.7262   27.7613   48.7245 H   0  0  0  0  0  0  0  0  0  0  0  0
   59.0431   27.1664   48.5252 H   0  0  0  0  0  0  0  0  0  0  0  0
   60.4125   26.0039   48.5252 H   0  0  0  0  0  0  0  0  0  0  0  0
   58.4214   26.8142   44.8156 H   0  0  0  0  0  0  0  0  0  0  0  0
   56.9000   27.5820   43.1450 H   0  0  0  0  0  0  0  0  0  0  0  0
   55.7536   29.2614   41.8783 H   0  0  0  0  0  0  0  0  0  0  0  0
   56.1896   31.6639   42.3433 H   0  0  0  0  0  0  0  0  0  0  0  0
   58.8885   32.9559   44.3644 H   0  0  0  0  0  0  0  0  0  0  0  0
   57.4453   33.3118   43.3283 H   0  0  0  0  0  0  0  0  0  0  0  0
   56.2258   33.8515   45.1322 H   0  0  0  0  0  0  0  0  0  0  0  0
   56.5800   32.2560   45.8873 H   0  0  0  0  0  0  0  0  0  0  0  0
   57.4150   34.6550   46.7820 H   0  0  0  0  0  0  0  0  0  0  0  0
   59.4640   33.5504   45.0114 H   0  0  0  0  0  0  0  0  0  0  0  0
   59.0549   35.2609   45.4062 H   0  0  0  0  0  0  0  0  0  0  0  0
   60.5291   35.3160   47.1164 H   0  0  0  0  0  0  0  0  0  0  0  0
   59.9141   33.7391   47.7681 H   0  0  0  0  0  0  0  0  0  0  0  0
   61.3697   32.4780   46.3466 H   0  0  0  0  0  0  0  0  0  0  0  0
   61.8214   33.9462   45.4004 H   0  0  0  0  0  0  0  0  0  0  0  0
   64.0638   32.4552   48.1471 H   0  0  0  0  0  0  0  0  0  0  0  0
   63.3084   31.9386   46.6014 H   0  0  0  0  0  0  0  0  0  0  0  0
   64.5693   33.2180   46.6014 H   0  0  0  0  0  0  0  0  0  0  0  0
   63.0969   33.8099   49.3950 H   0  0  0  0  0  0  0  0  0  0  0  0
   61.6395   34.7435   48.9146 H   0  0  0  0  0  0  0  0  0  0  0  0
   61.5960   32.9478   48.9146 H   0  0  0  0  0  0  0  0  0  0  0  0
   59.5517   31.5737   45.8329 H   0  0  0  0  0  0  0  0  0  0  0  0
   60.7482   30.1821   49.3839 H   0  0  0  0  0  0  0  0  0  0  0  0
   61.4025   31.4857   48.3354 H   0  0  0  0  0  0  0  0  0  0  0  0
   59.6413   31.1320   48.3354 H   0  0  0  0  0  0  0  0  0  0  0  0
  1  2  1  0
  2  3  1  0
  3  4  2  0
  4  5  1  0
  5  6  2  0
  6  7  1  0
  7  8  2  0
  8  9  1  0
  9 10  1  0
 10 11  1  0
 11 12  1  0
 12 13  1  0
 13 14  1  0
 14 15  1  0
 15 16  1  0
 16 17  1  0
 16 18  1  0
  9 19  2  0
 19 20  1  0
 20 21  2  0
 21 22  1  0
 22 23  1  0
 21  3  1  0
 19  5  1  0
  1 24  1  0
  1 25  1  0
  1 26  1  0
  4 27  1  0
  6 28  1  0
  7 29  1  0
  8 30  1  0
 10 31  1  0
 10 32  1  0
 11 33  1  0
 11 34  1  0
 12 35  1  0
 13 36  1  0
 13 37  1  0
 14 38  1  0
 14 39  1  0
 15 40  1  0
 15 41  1  0
 17 42  1  0
 17 43  1  0
 17 44  1  0
 18 45  1  0
 18 46  1  0
 18 47  1  0
 20 48  1  0
 23 49  1  0
 23 50  1  0
 23 51  1  0
M  CHG  1   6   1
M  END
>  <UniqueID>  (1) 
1

>  <SMILES>  (1) 
COc1cc2[nH+]ccc(CCNCCCN(C)C)c2cc1OC

>  <Energy>  (1) 
46.72762425689214

>  <Genealogy>  (1) 
COc1cc2[nH+]ccc(CCNCCCN(C)C)c2cc1OC (protonated)
COc1cc2[nH+]ccc(CCNCCCN(C)C)c2cc1OC (3D coordinates assigned)
COc1cc2[nH+]ccc(CCNCCCN(C)C)c2cc1OC (optimized conformer: 46.72762425689214 kcal/mol)

>  <smiles>  (1) 
COc1cc2nccc(CCNCCCN(C)C)c2cc1OC

>  <score_type>  (1) 
oracle

>  <origin>  (1) 
adg

>  <m_score__min__energy>  (1) 
-4.9699999999999998

>  <m_primary>  (1) 
energy

$$$$
1:0
     RDKit          3D

 74 77  0  0  0  0  0  0  0  0999 V2000
   63.7060   33.2130   46.7770 C   0  0  0  0  0  0  0  0  0  0  0  0
   62.7650   32.0800   47.1960 C   0  0  0  0  0  0  0  0  0  0  0  0
   62.0310   32.4230   48.4350 N   0  0  0  0  0  0  0  0  0  0  0  0
   61.7560   33.8760   48.4870 C   0  0  0  0  0  0  0  0  0  0  0  0
   60.4620   34.2180   47.7490 C   0  0  0  0  0  0  0  0  0  0  0  0
   62.7430   31.9480   49.6510 C   0  0  0  0  0  0  0  0  0  0  0  0
   62.9290   33.1160   50.6130 C   0  0  0  0  0  0  0  0  0  0  0  0
   63.1410   32.6220   51.9230 O   0  0  0  0  0  0  0  0  0  0  0  0
   62.1190   33.0490   52.8080 C   0  0  0  0  0  0  0  0  0  0  0  0
   60.7520   32.4520   52.4540 C   0  0  0  0  0  0  0  0  0  0  0  0
   60.0770   33.3190   51.5660 O   0  0  0  0  0  0  0  0  0  0  0  0
   58.6870   33.0920   51.6320 C   0  0  0  0  0  0  0  0  0  0  0  0
   58.2600   32.3380   50.3740 C   0  0  0  0  0  0  0  0  0  0  0  0
   59.4190   31.8800   49.6040 N   0  0  0  0  0  0  0  0  0  0  0  0
   59.4230   30.6750   48.8170 C   0  0  0  0  0  0  0  0  0  0  0  0
   59.9460   29.4690   49.3310 C   0  0  0  0  0  0  0  0  0  0  0  0
   60.3690   29.3820   50.6710 C   0  0  0  0  0  0  0  0  0  0  0  0
   60.8780   28.1830   51.1940 C   0  0  0  0  0  0  0  0  0  0  0  0
   61.3180   28.0760   52.5240 O   0  0  0  0  0  0  0  0  0  0  0  0
   62.1370   29.0350   53.1870 C   0  0  0  0  0  0  0  0  0  0  0  0
   60.9510   27.0460   50.3820 C   0  0  0  0  0  0  0  0  0  0  0  0
   61.4630   25.8660   50.9430 O   0  0  0  0  0  0  0  0  0  0  0  0
   62.7170   25.7680   51.6150 C   0  0  0  0  0  0  0  0  0  0  0  0
   60.5140   27.1120   49.0480 C   0  0  0  0  0  0  0  0  0  0  0  0
   60.0320   28.3190   48.4880 C   0  0  0  0  0  0  0  0  0  0  0  0
   59.6410   28.3960   47.1580 N   0  0  0  0  0  0  0  0  0  0  0  0
   60.1120   27.3830   46.1960 C   0  0  0  0  0  0  0  0  0  0  0  0
   58.9480   29.5060   46.7300 C   0  0  0  0  0  0  0  0  0  0  0  0
   58.9040   30.6550   47.5240 C   0  0  0  0  0  0  0  0  0  0  0  0
   58.1740   31.9230   46.6860 S   0  0  0  0  0  0  0  0  0  0  0  0
   57.8220   31.0080   45.3270 C   0  0  0  0  0  0  0  0  0  0  0  0
   57.1130   31.4280   44.2050 C   0  0  0  0  0  0  0  0  0  0  0  0
   56.8100   30.4850   43.2180 C   0  0  0  0  0  0  0  0  0  0  0  0
   57.1870   29.1410   43.3840 C   0  0  0  0  0  0  0  0  0  0  0  0
   57.8990   28.7360   44.5230 C   0  0  0  0  0  0  0  0  0  0  0  0
   58.2660   29.6940   45.4910 C   0  0  0  0  0  0  0  0  0  0  0  0
   64.1126   33.7026   47.6742 H   0  0  0  0  0  0  0  0  0  0  0  0
   64.5316   32.8013   46.1779 H   0  0  0  0  0  0  0  0  0  0  0  0
   63.1498   33.9490   46.1779 H   0  0  0  0  0  0  0  0  0  0  0  0
   62.0404   31.8985   46.3885 H   0  0  0  0  0  0  0  0  0  0  0  0
   63.3677   31.1798   47.3866 H   0  0  0  0  0  0  0  0  0  0  0  0
   61.6629   34.1866   49.5381 H   0  0  0  0  0  0  0  0  0  0  0  0
   62.5870   34.4065   47.9992 H   0  0  0  0  0  0  0  0  0  0  0  0
   59.6674   34.4280   48.4801 H   0  0  0  0  0  0  0  0  0  0  0  0
   60.6231   35.1044   47.1179 H   0  0  0  0  0  0  0  0  0  0  0  0
   60.1641   33.3677   47.1179 H   0  0  0  0  0  0  0  0  0  0  0  0
   62.1510   31.1601   50.1395 H   0  0  0  0  0  0  0  0  0  0  0  0
   63.7257   31.5426   49.3684 H   0  0  0  0  0  0  0  0  0  0  0  0
   63.7991   33.7124   50.3012 H   0  0  0  0  0  0  0  0  0  0  0  0
   62.0278   33.7466   50.6013 H   0  0  0  0  0  0  0  0  0  0  0  0
   62.3851   32.7408   53.8299 H   0  0  0  0  0  0  0  0  0  0  0  0
   62.0389   34.1429   52.7248 H   0  0  0  0  0  0  0  0  0  0  0  0
   60.8926   31.4721   51.9743 H   0  0  0  0  0  0  0  0  0  0  0  0
   60.1565   32.3285   53.3706 H   0  0  0  0  0  0  0  0  0  0  0  0
   58.4508   32.4916   52.5229 H   0  0  0  0  0  0  0  0  0  0  0  0
   58.1508   34.0502   51.6979 H   0  0  0  0  0  0  0  0  0  0  0  0
   57.6580   31.4653   50.6672 H   0  0  0  0  0  0  0  0  0  0  0  0
   57.6747   33.0228   49.7428 H   0  0  0  0  0  0  0  0  0  0  0  0
   60.3300   32.3610   49.7730 H   0  0  0  0  0  0  0  0  0  0  0  0
   60.2995   30.2683   51.3188 H   0  0  0  0  0  0  0  0  0  0  0  0
   62.0344   28.9148   54.2756 H   0  0  0  0  0  0  0  0  0  0  0  0
   63.1875   28.8820   52.8986 H   0  0  0  0  0  0  0  0  0  0  0  0
   61.8215   30.0486   52.8986 H   0  0  0  0  0  0  0  0  0  0  0  0
   62.5522   25.7809   52.7025 H   0  0  0  0  0  0  0  0  0  0  0  0
   63.2131   24.8283   51.3304 H   0  0  0  0  0  0  0  0  0  0  0  0
   63.3530   26.6192   51.3304 H   0  0  0  0  0  0  0  0  0  0  0  0
   60.5473   26.2057   48.4255 H   0  0  0  0  0  0  0  0  0  0  0  0
   60.5145   26.5174   46.7426 H   0  0  0  0  0  0  0  0  0  0  0  0
   59.2721   27.0592   45.5638 H   0  0  0  0  0  0  0  0  0  0  0  0
   60.9009   27.8165   45.5638 H   0  0  0  0  0  0  0  0  0  0  0  0
   56.7986   32.4766   44.0975 H   0  0  0  0  0  0  0  0  0  0  0  0
   56.2749   30.7959   42.3086 H   0  0  0  0  0  0  0  0  0  0  0  0
   56.9216   28.4009   42.6147 H   0  0  0  0  0  0  0  0  0  0  0  0
   58.1692   27.6786   44.6602 H   0  0  0  0  0  0  0  0  0  0  0  0
  1  2  1  0
  2  3  1  0
  3  4  1  0
  4  5  1  0
  3  6  1  0
  6  7  1  0
  7  8  1  0
  8  9  1  0
  9 10  1  0
 10 11  1  0
 11 12  1  0
 12 13  1  0
 13 14  1  0
 14 15  1  0
 15 16  2  0
 16 17  1  0
 17 18  2  0
 18 19  1  0
 19 20  1  0
 18 21  1  0
 21 22  1  0
 22 23  1  0
 21 24  2  0
 24 25  1  0
 25 26  2  0
 26 27  1  0
 26 28  1  0
 28 29  2  0
 29 30  1  0
 30 31  1  0
 31 32  2  0
 32 33  1  0
 33 34  2  0
 34 35  1  0
 35 36  2  0
 29 15  1  0
 36 31  1  0
 25 16  1  0
 36 28  1  0
  1 37  1  0
  1 38  1  0
  1 39  1  0
  2 40  1  0
  2 41  1  0
  4 42  1  0
  4 43  1  0
  5 44  1  0
  5 45  1  0
  5 46  1  0
  6 47  1  0
  6 48  1  0
  7 49  1  0
  7 50  1  0
  9 51  1  0
  9 52  1  0
 10 53  1  0
 10 54  1  0
 12 55  1  0
 12 56  1  0
 13 57  1  0
 13 58  1  0
 14 59  1  0
 17 60  1  0
 20 61  1  0
 20 62  1  0
 20 63  1  0
 23 64  1  0
 23 65  1  0
 23 66  1  0
 24 67  1  0
 27 68  1  0
 27 69  1  0
 27 70  1  0
 32 71  1  0
 33 72  1  0
 34 73  1  0
 35 74  1  0
M  CHG  1  26   1
M  END
>  <UniqueID>  (2) 
2

>  <SMILES>  (2) 
CCN(CC)CCOCCOCCNc1c2cc(OC)c(OC)cc2[n+](C)c2c1sc1ccccc12

>  <Energy>  (2) 
134.94930952414936

>  <Genealogy>  (2) 
CCN(CC)CCOCCOCCNc1c2cc(OC)c(OC)cc2[n+](C)c2c1sc1ccccc12 (3D coordinates assigned)
CCN(CC)CCOCCOCCNc1c2cc(OC)c(OC)cc2[n+](C)c2c1sc1ccccc12 (optimized conformer: 134.94930952414936 kcal/mol)

>  <smiles>  (2) 
CCN(CC)CCOCCOCCNc1c2cc(OC)c(OC)cc2[n+](C)c2c1sc1ccccc12

>  <score_type>  (2) 
oracle

>  <origin>  (2) 
adg

>  <m_score__min__energy>  (2) 
-5.5599999999999996

>  <m_primary>  (2) 
energy

$$$$
2:0
     RDKit          3D

 53 57  0  0  0  0  0  0  0  0999 V2000
   53.5680   24.1950   45.6230 C   0  0  0  0  0  0  0  0  0  0  0  0
   54.9680   24.7070   45.6550 C   0  0  0  0  0  0  0  0  0  0  0  0
   56.1010   23.9790   45.3520 C   0  0  0  0  0  0  0  0  0  0  0  0
   57.1620   24.8380   45.5530 C   0  0  0  0  0  0  0  0  0  0  0  0
   56.6060   26.0400   45.9750 C   0  0  0  0  0  0  0  0  0  0  0  0
   57.3290   27.2790   46.3480 C   0  0  0  0  0  0  0  0  0  0  0  0
   58.2260   27.2580   47.4300 C   0  0  0  0  0  0  0  0  0  0  0  0
   58.9600   28.4020   47.7420 C   0  0  0  0  0  0  0  0  0  0  0  0
   58.8000   29.5340   47.0080 N   0  0  0  0  0  0  0  0  0  0  0  0
   57.9130   29.6060   45.9790 C   0  0  0  0  0  0  0  0  0  0  0  0
   57.8380   30.8360   45.1710 C   0  0  0  0  0  0  0  0  0  0  0  0
   57.5580   30.8350   43.8090 C   0  0  0  0  0  0  0  0  0  0  0  0
   57.8490   32.0380   43.2700 N   0  0  0  0  0  0  0  0  0  0  0  0
   57.7340   32.4000   41.8610 C   0  0  0  0  0  0  0  0  0  0  0  0
   58.3170   32.8070   44.2740 C   0  0  0  0  0  0  0  0  0  0  0  0
   58.7850   34.1190   44.1790 C   0  0  0  0  0  0  0  0  0  0  0  0
   59.2360   34.7480   45.3450 C   0  0  0  0  0  0  0  0  0  0  0  0
   59.1810   34.0790   46.5820 C   0  0  0  0  0  0  0  0  0  0  0  0
   58.6910   32.7550   46.6780 C   0  0  0  0  0  0  0  0  0  0  0  0
   58.4340   32.1930   47.9840 N   0  0  0  0  0  0  0  0  0  0  0  0
   59.3570   32.7760   48.9720 C   0  0  0  0  0  0  0  0  0  0  0  0
   60.7890   32.6080   48.5300 C   0  0  0  0  0  0  0  0  0  0  0  0
   61.2170   31.3940   47.9700 C   0  0  0  0  0  0  0  0  0  0  0  0
   62.5480   31.2530   47.5700 C   0  0  0  0  0  0  0  0  0  0  0  0
   63.4200   32.2880   47.7250 N   0  0  0  0  0  0  0  0  0  0  0  0
   63.0330   33.4740   48.2690 C   0  0  0  0  0  0  0  0  0  0  0  0
   61.7140   33.6530   48.6910 C   0  0  0  0  0  0  0  0  0  0  0  0
   58.3060   32.1190   45.4720 C   0  0  0  0  0  0  0  0  0  0  0  0
   57.1710   28.4730   45.6190 C   0  0  0  0  0  0  0  0  0  0  0  0
   55.2970   25.9240   46.0240 O   0  0  0  0  0  0  0  0  0  0  0  0
   53.2028   24.0614   46.6520 H   0  0  0  0  0  0  0  0  0  0  0  0
   52.9257   24.9164   45.0967 H   0  0  0  0  0  0  0  0  0  0  0  0
   53.5427   23.2294   45.0967 H   0  0  0  0  0  0  0  0  0  0  0  0
   56.1482   22.9316   45.0194 H   0  0  0  0  0  0  0  0  0  0  0  0
   58.2298   24.6167   45.4087 H   0  0  0  0  0  0  0  0  0  0  0  0
   58.3485   26.3430   48.0282 H   0  0  0  0  0  0  0  0  0  0  0  0
   59.6690   28.3878   48.5829 H   0  0  0  0  0  0  0  0  0  0  0  0
   57.1567   29.9765   43.2505 H   0  0  0  0  0  0  0  0  0  0  0  0
   57.4019   33.4453   41.7769 H   0  0  0  0  0  0  0  0  0  0  0  0
   58.7127   32.2857   41.3720 H   0  0  0  0  0  0  0  0  0  0  0  0
   57.0007   31.7419   41.3720 H   0  0  0  0  0  0  0  0  0  0  0  0
   58.7989   34.6446   43.2128 H   0  0  0  0  0  0  0  0  0  0  0  0
   59.6359   35.7715   45.2943 H   0  0  0  0  0  0  0  0  0  0  0  0
   59.5252   34.5947   47.4906 H   0  0  0  0  0  0  0  0  0  0  0  0
   57.4550   32.3640   48.2920 H   0  0  0  0  0  0  0  0  0  0  0  0
   58.5700   31.1520   47.9390 H   0  0  0  0  0  0  0  0  0  0  0  0
   59.1370   33.8481   49.0827 H   0  0  0  0  0  0  0  0  0  0  0  0
   59.2206   32.2565   49.9320 H   0  0  0  0  0  0  0  0  0  0  0  0
   60.5099   30.5604   47.8471 H   0  0  0  0  0  0  0  0  0  0  0  0
   62.8922   30.3056   47.1296 H   0  0  0  0  0  0  0  0  0  0  0  0
   63.7601   34.2925   48.3764 H   0  0  0  0  0  0  0  0  0  0  0  0
   61.4017   34.6046   49.1459 H   0  0  0  0  0  0  0  0  0  0  0  0
   56.4698   28.5163   44.7725 H   0  0  0  0  0  0  0  0  0  0  0  0
  1  2  1  0
  2  3  2  0
  3  4  1  0
  4  5  2  0
  5  6  1  0
  6  7  2  0
  7  8  1  0
  8  9  2  0
  9 10  1  0
 10 11  1  0
 11 12  2  0
 12 13  1  0
 13 14  1  0
 13 15  1  0
 15 16  2  0
 16 17  1  0
 17 18  2  0
 18 19  1  0
 19 20  1  0
 20 21  1  0
 21 22  1  0
 22 23  2  0
 23 24  1  0
 24 25  2  0
 25 26  1  0
 26 27  2  0
 19 28  2  0
 10 29  2  0
  5 30  1  0
 30  2  1  0
 29  6  1  0
 28 11  1  0
 28 15  1  0
 27 22  1  0
  1 31  1  0
  1 32  1  0
  1 33  1  0
  3 34  1  0
  4 35  1  0
  7 36  1  0
  8 37  1  0
 12 38  1  0
 14 39  1  0
 14 40  1  0
 14 41  1  0
 16 42  1  0
 17 43  1  0
 18 44  1  0
 20 45  1  0
 20 46  1  0
 21 47  1  0
 21 48  1  0
 23 49  1  0
 24 50  1  0
 26 51  1  0
 27 52  1  0
 29 53  1  0
M  CHG  1  20   1
M  END
>  <UniqueID>  (3) 
3

>  <SMILES>  (3) 
Cc1ccc(-c2ccnc(-c3cn(C)c4cccc([NH2+]Cc5ccncc5)c34)c2)o1

>  <Energy>  (3) 
129.4316373265775

>  <Genealogy>  (3) 
Cc1ccc(-c2ccnc(-c3cn(C)c4cccc([NH2+]Cc5ccncc5)c34)c2)o1 (protonated)
Cc1ccc(-c2ccnc(-c3cn(C)c4cccc([NH2+]Cc5ccncc5)c34)c2)o1 (3D coordinates assigned)
Cc1ccc(-c2ccnc(-c3cn(C)c4cccc([NH2+]Cc5ccncc5)c34)c2)o1 (optimized conformer: 129.4316373265775 kcal/mol)

>  <smiles>  (3) 
Cc1ccc(-c2ccnc(-c3cn(C)c4cccc(NCc5ccncc5)c34)c2)o1

>  <score_type>  (3) 
oracle

>  <origin>  (3) 
adg

>  <m_score__min__energy>  (3) 
-7.6500000000000004

>  <m_primary>  (3) 
energy

$$$$
3:0
     RDKit          3D

 44 46  0  0  0  0  0  0  0  0999 V2000
   57.5690   33.2780   45.3780 C   0  0  0  0  0  0  0  0  0  0  0  0
   58.3090   31.9630   45.6090 C   0  0  0  0  0  0  0  0  0  0  0  0
   57.3850   30.8210   45.4380 N   0  0  0  0  0  0  0  0  0  0  0  0
   57.1270   30.5060   44.0120 C   0  0  0  0  0  0  0  0  0  0  0  0
   55.7740   29.8120   43.7390 C   0  0  0  0  0  0  0  0  0  0  0  0
   55.1620   29.4090   44.9350 O   0  0  0  0  0  0  0  0  0  0  0  0
   57.7920   29.6530   46.2530 C   0  0  0  0  0  0  0  0  0  0  0  0
   59.2960   29.3750   46.1210 C   0  0  0  0  0  0  0  0  0  0  0  0
   59.5710   28.6540   44.9200 O   0  0  0  0  0  0  0  0  0  0  0  0
   58.8960   27.5020   44.4840 C   0  0  0  0  0  0  0  0  0  0  0  0
   58.4850   27.4450   43.1480 C   0  0  0  0  0  0  0  0  0  0  0  0
   57.8060   26.3280   42.6580 C   0  0  0  0  0  0  0  0  0  0  0  0
   57.5260   25.2450   43.5000 C   0  0  0  0  0  0  0  0  0  0  0  0
   57.9410   25.2840   44.8550 C   0  0  0  0  0  0  0  0  0  0  0  0
   58.6260   26.4110   45.3320 C   0  0  0  0  0  0  0  0  0  0  0  0
   57.6670   24.1330   45.8070 C   0  0  0  0  0  0  0  0  0  0  0  0
   56.9410   23.0450   45.1520 N   0  0  0  0  0  0  0  0  0  0  0  0
   56.5290   21.8830   45.6790 C   0  0  0  0  0  0  0  0  0  0  0  0
   55.8960   21.1900   44.6690 C   0  0  0  0  0  0  0  0  0  0  0  0
   55.3210   19.9330   44.8010 O   0  0  0  0  0  0  0  0  0  0  0  0
   55.9010   21.8930   43.5150 N   0  0  0  0  0  0  0  0  0  0  0  0
   56.5540   23.0200   43.8690 C   0  0  0  0  0  0  0  0  0  0  0  0
   56.8240   24.1040   42.9880 N   0  0  0  0  0  0  0  0  0  0  0  0
   57.3143   33.7306   46.3477 H   0  0  0  0  0  0  0  0  0  0  0  0
   58.2125   33.9659   44.8099 H   0  0  0  0  0  0  0  0  0  0  0  0
   56.6470   33.0850   44.8099 H   0  0  0  0  0  0  0  0  0  0  0  0
   59.1317   31.8766   44.8839 H   0  0  0  0  0  0  0  0  0  0  0  0
   58.7091   31.9511   46.6336 H   0  0  0  0  0  0  0  0  0  0  0  0
   57.1501   31.4474   43.4435 H   0  0  0  0  0  0  0  0  0  0  0  0
   57.9084   29.7955   43.7044 H   0  0  0  0  0  0  0  0  0  0  0  0
   55.1095   30.5144   43.2145 H   0  0  0  0  0  0  0  0  0  0  0  0
   55.9576   28.9195   43.1228 H   0  0  0  0  0  0  0  0  0  0  0  0
   55.4050   30.0820   45.6230 H   0  0  0  0  0  0  0  0  0  0  0  0
   57.5563   29.8535   47.3086 H   0  0  0  0  0  0  0  0  0  0  0  0
   57.2437   28.7705   45.8916 H   0  0  0  0  0  0  0  0  0  0  0  0
   59.8398   30.3310   46.1011 H   0  0  0  0  0  0  0  0  0  0  0  0
   59.6211   28.7696   46.9800 H   0  0  0  0  0  0  0  0  0  0  0  0
   58.6992   28.2894   42.4764 H   0  0  0  0  0  0  0  0  0  0  0  0
   57.4893   26.2986   41.6050 H   0  0  0  0  0  0  0  0  0  0  0  0
   58.9561   26.4429   46.3808 H   0  0  0  0  0  0  0  0  0  0  0  0
   58.6258   23.7457   46.1821 H   0  0  0  0  0  0  0  0  0  0  0  0
   57.0435   24.5122   46.6301 H   0  0  0  0  0  0  0  0  0  0  0  0
   56.6690   21.5473   46.7171 H   0  0  0  0  0  0  0  0  0  0  0  0
   56.5120   24.0600   41.9910 H   0  0  0  0  0  0  0  0  0  0  0  0
  1  2  1  0
  2  3  1  0
  3  4  1  0
  4  5  1  0
  5  6  1  0
  3  7  1  0
  7  8  1  0
  8  9  1  0
  9 10  1  0
 10 11  2  0
 11 12  1  0
 12 13  2  0
 13 14  1  0
 14 15  2  0
 14 16  1  0
 16 17  1  0
 17 18  1  0
 18 19  2  0
 19 20  1  0
 19 21  1  0
 21 22  2  0
 22 23  1  0
 15 10  1  0
 22 17  1  0
 23 13  1  0
  1 24  1  0
  1 25  1  0
  1 26  1  0
  2 27  1  0
  2 28  1  0
  4 29  1  0
  4 30  1  0
  5 31  1  0
  5 32  1  0
  6 33  1  0
  7 34  1  0
  7 35  1  0
  8 36  1  0
  8 37  1  0
 11 38  1  0
 12 39  1  0
 15 40  1  0
 16 41  1  0
 16 42  1  0
 18 43  1  0
 23 44  1  0
M  CHG  1  20  -1
M  END
>  <UniqueID>  (4) 
4

>  <SMILES>  (4) 
CCN(CCO)CCOc1ccc2c(c1)Cn1cc([O-])nc1N2

>  <Energy>  (4) 
80.12253037591674

>  <Genealogy>  (4) 
CCN(CCO)CCOc1ccc2c(c1)Cn1cc([O-])nc1N2 (protonated)
CCN(CCO)CCOc1ccc2c(c1)Cn1cc([O-])nc1N2 (3D coordinates assigned)
CCN(CCO)CCOc1ccc2c(c1)Cn1cc([O-])nc1N2 (nonaromatic ring conformer: 80.12253037591674 kcal/mol)

>  <smiles>  (4) 
CCN(CCO)CCOc1ccc2c(c1)Cn1cc(O)nc1N2

>  <score_type>  (4) 
oracle

>  <origin>  (4) 
adg

>  <m_score__min__energy>  (4) 
-8.3300000000000001

>  <m_primary>  (4) 
energy

$$$$
4:0
     RDKit          3D

 56 59  0  0  0  0  0  0  0  0999 V2000
   55.9780   30.3670   44.0600 C   0  0  0  0  0  0  0  0  0  0  0  0
   57.2740   30.3370   44.8450 C   0  0  0  0  0  0  0  0  0  0  0  0
   58.1370   31.4580   44.8340 C   0  0  0  0  0  0  0  0  0  0  0  0
   58.0680   32.4070   43.6560 C   0  0  0  0  0  0  0  0  0  0  0  0
   59.1610   31.5700   45.8240 C   0  0  0  0  0  0  0  0  0  0  0  0
   59.5010   30.4130   46.5830 C   0  0  0  0  0  0  0  0  0  0  0  0
   60.4500   30.5560   47.6350 C   0  0  0  0  0  0  0  0  0  0  0  0
   60.3660   29.7550   48.8510 N   0  0  0  0  0  0  0  0  0  0  0  0
   58.9880   29.6630   49.3820 C   0  0  0  0  0  0  0  0  0  0  0  0
   58.6350   30.8280   50.3290 C   0  0  0  0  0  0  0  0  0  0  0  0
   59.7710   31.7650   50.4800 N   0  0  0  0  0  0  0  0  0  0  0  0
   59.4030   33.1050   49.9970 C   0  0  0  0  0  0  0  0  0  0  0  0
   60.2090   31.8470   51.8850 C   0  0  0  0  0  0  0  0  0  0  0  0
   61.3610   31.6310   47.5520 C   0  0  0  0  0  0  0  0  0  0  0  0
   62.5610   31.6490   48.2940 C   0  0  0  0  0  0  0  0  0  0  0  0
   63.4250   32.7410   48.2230 C   0  0  0  0  0  0  0  0  0  0  0  0
   63.1080   33.8300   47.4160 C   0  0  0  0  0  0  0  0  0  0  0  0
   61.9220   33.8350   46.6830 C   0  0  0  0  0  0  0  0  0  0  0  0
   61.0290   32.7390   46.7390 C   0  0  0  0  0  0  0  0  0  0  0  0
   59.8250   32.7590   46.0760 N   0  0  0  0  0  0  0  0  0  0  0  0
   59.1860   34.0670   45.8190 C   0  0  0  0  0  0  0  0  0  0  0  0
   58.8930   29.1670   46.2570 C   0  0  0  0  0  0  0  0  0  0  0  0
   59.4900   27.9310   46.6010 C   0  0  0  0  0  0  0  0  0  0  0  0
   58.8380   26.7250   46.3540 C   0  0  0  0  0  0  0  0  0  0  0  0
   57.6050   26.7210   45.7150 C   0  0  0  0  0  0  0  0  0  0  0  0
   57.0500   27.9150   45.2590 C   0  0  0  0  0  0  0  0  0  0  0  0
   57.7100   29.1480   45.4750 C   0  0  0  0  0  0  0  0  0  0  0  0
   55.1274   30.3867   44.7572 H   0  0  0  0  0  0  0  0  0  0  0  0
   55.9537   31.2659   43.4265 H   0  0  0  0  0  0  0  0  0  0  0  0
   55.9122   29.4701   43.4265 H   0  0  0  0  0  0  0  0  0  0  0  0
   57.9928   33.4414   44.0224 H   0  0  0  0  0  0  0  0  0  0  0  0
   58.9763   32.2996   43.0449 H   0  0  0  0  0  0  0  0  0  0  0  0
   57.1848   32.1693   43.0449 H   0  0  0  0  0  0  0  0  0  0  0  0
   60.6730   28.7720   48.7020 H   0  0  0  0  0  0  0  0  0  0  0  0
   60.9960   30.1590   49.5810 H   0  0  0  0  0  0  0  0  0  0  0  0
   58.2841   29.6711   48.5368 H   0  0  0  0  0  0  0  0  0  0  0  0
   58.9174   28.7309   49.9619 H   0  0  0  0  0  0  0  0  0  0  0  0
   57.7729   31.3741   49.9185 H   0  0  0  0  0  0  0  0  0  0  0  0
   58.3975   30.4099   51.3183 H   0  0  0  0  0  0  0  0  0  0  0  0
   59.2211   33.7673   50.8562 H   0  0  0  0  0  0  0  0  0  0  0  0
   60.2224   33.5127   49.3868 H   0  0  0  0  0  0  0  0  0  0  0  0
   58.4903   33.0370   49.3868 H   0  0  0  0  0  0  0  0  0  0  0  0
   59.3463   31.6855   52.5480 H   0  0  0  0  0  0  0  0  0  0  0  0
   60.9691   31.0755   52.0777 H   0  0  0  0  0  0  0  0  0  0  0  0
   60.6385   32.8412   52.0777 H   0  0  0  0  0  0  0  0  0  0  0  0
   62.8175   30.7927   48.9351 H   0  0  0  0  0  0  0  0  0  0  0  0
   64.3582   32.7420   48.8054 H   0  0  0  0  0  0  0  0  0  0  0  0
   63.7941   34.6877   47.3565 H   0  0  0  0  0  0  0  0  0  0  0  0
   61.6773   34.7027   46.0527 H   0  0  0  0  0  0  0  0  0  0  0  0
   58.9484   34.5534   46.7766 H   0  0  0  0  0  0  0  0  0  0  0  0
   59.8741   34.7047   45.2446 H   0  0  0  0  0  0  0  0  0  0  0  0
   58.2601   33.9162   45.2446 H   0  0  0  0  0  0  0  0  0  0  0  0
   60.4846   27.9224   47.0708 H   0  0  0  0  0  0  0  0  0  0  0  0
   59.2996   25.7762   46.6650 H   0  0  0  0  0  0  0  0  0  0  0  0
   57.0656   25.7736   45.5686 H   0  0  0  0  0  0  0  0  0  0  0  0
   56.0883   27.8990   44.7253 H   0  0  0  0  0  0  0  0  0  0  0  0
  1  2  1  0
  2  3  2  0
  3  4  1  0
  3  5  1  0
  5  6  2  0
  6  7  1  0
  7  8  1  0
  8  9  1  0
  9 10  1  0
 10 11  1  0
 11 12  1  0
 11 13  1  0
  7 14  2  0
 14 15  1  0
 15 16  2  0
 16 17  1  0
 17 18  2  0
 18 19  1  0
 19 20  2  0
 20 21  1  0
  6 22  1  0
 22 23  2  0
 23 24  1  0
 24 25  2  0
 25 26  1  0
 26 27  2  0
 27  2  1  0
 20  5  1  0
 27 22  1  0
 19 14  1  0
  1 28  1  0
  1 29  1  0
  1 30  1  0
  4 31  1  0
  4 32  1  0
  4 33  1  0
  8 34  1  0
  8 35  1  0
  9 36  1  0
  9 37  1  0
 10 38  1  0
 10 39  1  0
 12 40  1  0
 12 41  1  0
 12 42  1  0
 13 43  1  0
 13 44  1  0
 13 45  1  0
 15 46  1  0
 16 47  1  0
 17 48  1  0
 18 49  1  0
 21 50  1  0
 21 51  1  0
 21 52  1  0
 23 53  1  0
 24 54  1  0
 25 55  1  0
 26 56  1  0
M  CHG  2   8   1  20   1
M  END
>  <UniqueID>  (5) 
5

>  <SMILES>  (5) 
Cc1c(C)c2c(c([NH2+]CCN(C)C)c3ccccc3[n+]2C)c2ccccc12

>  <Energy>  (5) 
120.08616711697232

>  <Genealogy>  (5) 
Cc1c(C)c2c(c([NH2+]CCN(C)C)c3ccccc3[n+]2C)c2ccccc12 (protonated)
Cc1c(C)c2c(c([NH2+]CCN(C)C)c3ccccc3[n+]2C)c2ccccc12 (3D coordinates assigned)
Cc1c(C)c2c(c([NH2+]CCN(C)C)c3ccccc3[n+]2C)c2ccccc12 (optimized conformer: 120.08616711697232 kcal/mol)

>  <smiles>  (5) 
Cc1c(C)c2c(c(NCCN(C)C)c3ccccc3[n+]2C)c2ccccc12

>  <score_type>  (5) 
oracle

>  <origin>  (5) 
adg

>  <m_score__min__energy>  (5) 
-5.6399999999999997

>  <m_primary>  (5) 
energy

$$$$
5:0
     RDKit          3D

 44 45  0  0  0  0  0  0  0  0999 V2000
   66.4880   33.3850   50.8990 C   0  0  0  0  0  0  0  0  0  0  0  0
   66.2480   31.9970   50.3160 C   0  0  0  0  0  0  0  0  0  0  0  0
   64.8540   31.6890   50.2970 O   0  0  0  0  0  0  0  0  0  0  0  0
   63.9330   32.1250   49.3310 C   0  0  0  0  0  0  0  0  0  0  0  0
   64.3170   33.1630   48.4750 C   0  0  0  0  0  0  0  0  0  0  0  0
   63.4410   33.6390   47.4950 C   0  0  0  0  0  0  0  0  0  0  0  0
   62.1570   33.0920   47.3640 C   0  0  0  0  0  0  0  0  0  0  0  0
   61.2840   33.5780   46.3300 N   0  0  0  0  0  0  0  0  0  0  0  0
   59.9440   34.0400   46.5610 C   0  0  0  0  0  0  0  0  0  0  0  0
   59.6140   34.9640   47.8820 S   0  0  0  0  0  0  0  0  0  0  0  0
   58.9600   33.8630   45.5290 N   0  0  0  0  0  0  0  0  0  0  0  0
   57.5190   33.8570   45.7800 C   0  0  0  0  0  0  0  0  0  0  0  0
   56.8440   32.7240   45.0020 C   0  0  0  0  0  0  0  0  0  0  0  0
   57.8580   31.8000   44.4430 N   0  0  0  0  0  0  0  0  0  0  0  0
   58.3260   30.8020   45.4340 C   0  0  0  0  0  0  0  0  0  0  0  0
   57.5100   29.4950   45.3840 C   0  0  0  0  0  0  0  0  0  0  0  0
   56.2170   29.7340   44.8720 O   0  0  0  0  0  0  0  0  0  0  0  0
   56.2930   30.0910   43.5020 C   0  0  0  0  0  0  0  0  0  0  0  0
   57.3930   31.1380   43.2090 C   0  0  0  0  0  0  0  0  0  0  0  0
   61.7770   32.0320   48.2050 C   0  0  0  0  0  0  0  0  0  0  0  0
   62.6530   31.5550   49.1840 C   0  0  0  0  0  0  0  0  0  0  0  0
   66.4781   33.3280   51.9975 H   0  0  0  0  0  0  0  0  0  0  0  0
   67.4645   33.7612   50.5601 H   0  0  0  0  0  0  0  0  0  0  0  0
   65.6945   34.0673   50.5601 H   0  0  0  0  0  0  0  0  0  0  0  0
   66.6384   31.9652   49.2881 H   0  0  0  0  0  0  0  0  0  0  0  0
   66.7641   31.2565   50.9447 H   0  0  0  0  0  0  0  0  0  0  0  0
   65.3177   33.6088   48.5741 H   0  0  0  0  0  0  0  0  0  0  0  0
   63.7614   34.4481   46.8222 H   0  0  0  0  0  0  0  0  0  0  0  0
   61.6300   33.5640   45.3440 H   0  0  0  0  0  0  0  0  0  0  0  0
   59.2820   33.4810   44.6110 H   0  0  0  0  0  0  0  0  0  0  0  0
   57.3395   33.7144   46.8559 H   0  0  0  0  0  0  0  0  0  0  0  0
   57.0962   34.8170   45.4490 H   0  0  0  0  0  0  0  0  0  0  0  0
   56.1803   32.1660   45.6788 H   0  0  0  0  0  0  0  0  0  0  0  0
   56.2646   33.1582   44.1739 H   0  0  0  0  0  0  0  0  0  0  0  0
   59.3808   30.5677   45.2280 H   0  0  0  0  0  0  0  0  0  0  0  0
   58.1976   31.2388   46.4354 H   0  0  0  0  0  0  0  0  0  0  0  0
   58.0267   28.7712   44.7366 H   0  0  0  0  0  0  0  0  0  0  0  0
   57.4181   29.0960   46.4049 H   0  0  0  0  0  0  0  0  0  0  0  0
   56.5063   29.1853   42.9153 H   0  0  0  0  0  0  0  0  0  0  0  0
   55.3284   30.5421   43.2262 H   0  0  0  0  0  0  0  0  0  0  0  0
   58.2463   30.6345   42.7311 H   0  0  0  0  0  0  0  0  0  0  0  0
   56.9677   31.9064   42.5467 H   0  0  0  0  0  0  0  0  0  0  0  0
   60.7830   31.5745   48.0919 H   0  0  0  0  0  0  0  0  0  0  0  0
   62.3417   30.7309   49.8427 H   0  0  0  0  0  0  0  0  0  0  0  0
  1  2  1  0
  2  3  1  0
  3  4  1  0
  4  5  2  0
  5  6  1  0
  6  7  2  0
  7  8  1  0
  8  9  1  0
  9 10  2  0
  9 11  1  0
 11 12  1  0
 12 13  1  0
 13 14  1  0
 14 15  1  0
 15 16  1  0
 16 17  1  0
 17 18  1  0
 18 19  1  0
  7 20  1  0
 20 21  2  0
 21  4  1  0
 19 14  1  0
  1 22  1  0
  1 23  1  0
  1 24  1  0
  2 25  1  0
  2 26  1  0
  5 27  1  0
  6 28  1  0
  8 29  1  0
 11 30  1  0
 12 31  1  0
 12 32  1  0
 13 33  1  0
 13 34  1  0
 15 35  1  0
 15 36  1  0
 16 37  1  0
 16 38  1  0
 18 39  1  0
 18 40  1  0
 19 41  1  0
 19 42  1  0
 20 43  1  0
 21 44  1  0
M  END
>  <UniqueID>  (6) 
6

>  <SMILES>  (6) 
CCOc1ccc(NC(=S)NCCN2CCOCC2)cc1

>  <Energy>  (6) 
54.630280305029444

>  <Genealogy>  (6) 
CCOc1ccc(NC(=S)NCCN2CCOCC2)cc1 (3D coordinates assigned)
CCOc1ccc(NC(=S)NCCN2CCOCC2)cc1 (nonaromatic ring conformer: 54.630280305029444 kcal/mol)

>  <smiles>  (6) 
CCOc1ccc(NC(=S)NCCN2CCOCC2)cc1

>  <score_type>  (6) 
oracle

>  <origin>  (6) 
adg

>  <m_score__min__energy>  (6) 
-6.6799999999999997

>  <m_primary>  (6) 
energy

$$$$
6:0
     RDKit          3D

 71 73  0  0  0  0  0  0  0  0999 V2000
   59.2550   34.6240   53.9800 C   0  0  0  0  0  0  0  0  0  0  0  0
   58.5010   34.3350   52.6860 C   0  0  0  0  0  0  0  0  0  0  0  0
   59.3470   33.4620   51.7360 C   0  0  0  0  0  0  0  0  0  0  0  0
   58.5960   32.3390   51.1270 N   0  0  0  0  0  0  0  0  0  0  0  0
   57.2920   32.1110   51.7900 C   0  0  0  0  0  0  0  0  0  0  0  0
   57.0320   30.6220   52.0050 C   0  0  0  0  0  0  0  0  0  0  0  0
   59.4100   31.1050   50.9950 C   0  0  0  0  0  0  0  0  0  0  0  0
   59.5110   30.6990   49.5240 C   0  0  0  0  0  0  0  0  0  0  0  0
   58.5640   31.4610   48.7100 N   0  0  0  0  0  0  0  0  0  0  0  0
   58.7410   31.5600   47.2890 C   0  0  0  0  0  0  0  0  0  0  0  0
   58.5470   30.4210   46.4940 C   0  0  0  0  0  0  0  0  0  0  0  0
   58.5080   29.1350   47.0730 C   0  0  0  0  0  0  0  0  0  0  0  0
   58.3610   28.0030   46.2760 C   0  0  0  0  0  0  0  0  0  0  0  0
   58.2610   28.1320   44.8960 C   0  0  0  0  0  0  0  0  0  0  0  0
   58.2770   29.3950   44.3050 C   0  0  0  0  0  0  0  0  0  0  0  0
   58.3840   30.5690   45.0950 C   0  0  0  0  0  0  0  0  0  0  0  0
   58.3170   31.8320   44.5390 N   0  0  0  0  0  0  0  0  0  0  0  0
   57.8000   32.0050   43.1640 C   0  0  0  0  0  0  0  0  0  0  0  0
   58.7200   32.9320   45.2770 C   0  0  0  0  0  0  0  0  0  0  0  0
   58.8990   34.2000   44.6700 C   0  0  0  0  0  0  0  0  0  0  0  0
   59.2830   35.3070   45.4160 C   0  0  0  0  0  0  0  0  0  0  0  0
   59.5670   35.1790   46.7680 C   0  0  0  0  0  0  0  0  0  0  0  0
   59.4600   33.9340   47.4060 C   0  0  0  0  0  0  0  0  0  0  0  0
   60.0150   33.7780   48.7250 N   0  0  0  0  0  0  0  0  0  0  0  0
   61.3580   34.2320   49.0950 C   0  0  0  0  0  0  0  0  0  0  0  0
   62.2750   33.0390   49.3990 C   0  0  0  0  0  0  0  0  0  0  0  0
   63.6260   33.0940   48.6530 C   0  0  0  0  0  0  0  0  0  0  0  0
   63.4550   32.6670   47.2470 N   0  0  0  0  0  0  0  0  0  0  0  0
   63.2110   33.8270   46.3740 C   0  0  0  0  0  0  0  0  0  0  0  0
   62.3420   31.7120   47.1240 C   0  0  0  0  0  0  0  0  0  0  0  0
   58.9780   32.8080   46.6730 C   0  0  0  0  0  0  0  0  0  0  0  0
   58.6147   34.3786   54.8401 H   0  0  0  0  0  0  0  0  0  0  0  0
   60.1685   34.0123   54.0165 H   0  0  0  0  0  0  0  0  0  0  0  0
   59.5256   35.6896   54.0165 H   0  0  0  0  0  0  0  0  0  0  0  0
   57.5668   33.8056   52.9246 H   0  0  0  0  0  0  0  0  0  0  0  0
   58.2856   35.2904   52.1852 H   0  0  0  0  0  0  0  0  0  0  0  0
   59.7309   34.1013   50.9273 H   0  0  0  0  0  0  0  0  0  0  0  0
   60.1518   33.0184   52.3405 H   0  0  0  0  0  0  0  0  0  0  0  0
   57.2923   32.6192   52.7655 H   0  0  0  0  0  0  0  0  0  0  0  0
   56.4984   32.5121   51.1425 H   0  0  0  0  0  0  0  0  0  0  0  0
   56.9947   30.4083   53.0834 H   0  0  0  0  0  0  0  0  0  0  0  0
   56.0722   30.3470   51.5433 H   0  0  0  0  0  0  0  0  0  0  0  0
   57.8418   30.0380   51.5433 H   0  0  0  0  0  0  0  0  0  0  0  0
   60.4191   31.2902   51.3917 H   0  0  0  0  0  0  0  0  0  0  0  0
   58.9294   30.2935   51.5611 H   0  0  0  0  0  0  0  0  0  0  0  0
   60.5327   30.8929   49.1654 H   0  0  0  0  0  0  0  0  0  0  0  0
   59.2716   29.6290   49.4357 H   0  0  0  0  0  0  0  0  0  0  0  0
   57.7710   31.9670   49.1640 H   0  0  0  0  0  0  0  0  0  0  0  0
   58.5945   29.0258   48.1641 H   0  0  0  0  0  0  0  0  0  0  0  0
   58.3240   27.0059   46.7390 H   0  0  0  0  0  0  0  0  0  0  0  0
   58.1688   27.2342   44.2672 H   0  0  0  0  0  0  0  0  0  0  0  0
   58.2057   29.4825   43.2108 H   0  0  0  0  0  0  0  0  0  0  0  0
   56.7576   32.3538   43.2054 H   0  0  0  0  0  0  0  0  0  0  0  0
   58.4140   32.7466   42.6320 H   0  0  0  0  0  0  0  0  0  0  0  0
   57.8440   31.0432   42.6320 H   0  0  0  0  0  0  0  0  0  0  0  0
   58.7308   34.3096   43.5885 H   0  0  0  0  0  0  0  0  0  0  0  0
   59.3624   36.2915   44.9317 H   0  0  0  0  0  0  0  0  0  0  0  0
   59.8790   36.0619   47.3452 H   0  0  0  0  0  0  0  0  0  0  0  0
   59.5450   33.0890   49.3520 H   0  0  0  0  0  0  0  0  0  0  0  0
   61.7844   34.8112   48.2627 H   0  0  0  0  0  0  0  0  0  0  0  0
   61.2819   34.8558   49.9978 H   0  0  0  0  0  0  0  0  0  0  0  0
   62.4751   33.0205   50.4805 H   0  0  0  0  0  0  0  0  0  0  0  0
   61.7526   32.1339   49.0555 H   0  0  0  0  0  0  0  0  0  0  0  0
   64.0107   34.1243   48.6749 H   0  0  0  0  0  0  0  0  0  0  0  0
   64.3359   32.4155   49.1487 H   0  0  0  0  0  0  0  0  0  0  0  0
   63.0236   34.7177   46.9916 H   0  0  0  0  0  0  0  0  0  0  0  0
   64.0924   33.9999   45.7390 H   0  0  0  0  0  0  0  0  0  0  0  0
   62.3346   33.6301   45.7390 H   0  0  0  0  0  0  0  0  0  0  0  0
   61.9989   31.4176   48.1268 H   0  0  0  0  0  0  0  0  0  0  0  0
   61.5127   32.1839   46.5766 H   0  0  0  0  0  0  0  0  0  0  0  0
   62.6824   30.8207   46.5766 H   0  0  0  0  0  0  0  0  0  0  0  0
  1  2  1  0
  2  3  1  0
  3  4  1  0
  4  5  1  0
  5  6  1  0
  4  7  1  0
  7  8  1  0
  8  9  1  0
  9 10  1  0
 10 11  2  0
 11 12  1  0
 12 13  2  0
 13 14  1  0
 14 15  2  0
 15 16  1  0
 16 17  2  0
 17 18  1  0
 17 19  1  0
 19 20  2  0
 20 21  1  0
 21 22  2  0
 22 23  1  0
 23 24  1  0
 24 25  1  0
 25 26  1  0
 26 27  1  0
 27 28  1  0
 28 29  1  0
 28 30  1  0
 23 31  2  0
 31 10  1  0
 16 11  1  0
 31 19  1  0
  1 32  1  0
  1 33  1  0
  1 34  1  0
  2 35  1  0
  2 36  1  0
  3 37  1  0
  3 38  1  0
  5 39  1  0
  5 40  1  0
  6 41  1  0
  6 42  1  0
  6 43  1  0
  7 44  1  0
  7 45  1  0
  8 46  1  0
  8 47  1  0
  9 48  1  0
 12 49  1  0
 13 50  1  0
 14 51  1  0
 15 52  1  0
 18 53  1  0
 18 54  1  0
 18 55  1  0
 20 56  1  0
 21 57  1  0
 22 58  1  0
 24 59  1  0
 25 60  1  0
 25 61  1  0
 26 62  1  0
 26 63  1  0
 27 64  1  0
 27 65  1  0
 29 66  1  0
 29 67  1  0
 29 68  1  0
 30 69  1  0
 30 70  1  0
 30 71  1  0
M  CHG  1  17   1
M  END
>  <UniqueID>  (7) 
7

>  <SMILES>  (7) 
CCCN(CC)CCNc1c2ccccc2[n+](C)c2cccc(NCCCN(C)C)c12

>  <Energy>  (7) 
100.63814369015701

>  <Genealogy>  (7) 
CCCN(CC)CCNc1c2ccccc2[n+](C)c2cccc(NCCCN(C)C)c12 (3D coordinates assigned)
CCCN(CC)CCNc1c2ccccc2[n+](C)c2cccc(NCCCN(C)C)c12 (optimized conformer: 100.63814369015701 kcal/mol)

>  <smiles>  (7) 
CCCN(CC)CCNc1c2ccccc2[n+](C)c2cccc(NCCCN(C)C)c12

>  <score_type>  (7) 
oracle

>  <origin>  (7) 
adg

>  <m_score__min__energy>  (7) 
-5.54

>  <m_primary>  (7) 
energy

$$$$
7:0
     RDKit          3D

 33 34  0  0  0  0  0  0  0  0999 V2000
   60.3360   27.5200   46.5560 C   0  0  0  0  0  0  0  0  0  0  0  0
   59.7000   28.8310   46.7700 N   0  0  0  0  0  0  0  0  0  0  0  0
   60.3100   29.4940   47.9330 C   0  0  0  0  0  0  0  0  0  0  0  0
   59.8370   29.6840   45.5710 C   0  0  0  0  0  0  0  0  0  0  0  0
   58.4920   30.1640   45.0980 C   0  0  0  0  0  0  0  0  0  0  0  0
   57.5110   29.3800   44.5290 C   0  0  0  0  0  0  0  0  0  0  0  0
   56.4280   30.1490   44.3200 N   0  0  0  0  0  0  0  0  0  0  0  0
   55.1860   29.7180   43.6940 C   0  0  0  0  0  0  0  0  0  0  0  0
   56.6660   31.3920   44.7080 N   0  0  0  0  0  0  0  0  0  0  0  0
   57.9270   31.4360   45.1860 C   0  0  0  0  0  0  0  0  0  0  0  0
   58.5290   32.6610   45.7530 C   0  0  0  0  0  0  0  0  0  0  0  0
   58.6940   33.8210   44.9780 C   0  0  0  0  0  0  0  0  0  0  0  0
   59.2660   34.9690   45.5350 C   0  0  0  0  0  0  0  0  0  0  0  0
   59.6650   34.9730   46.8740 C   0  0  0  0  0  0  0  0  0  0  0  0
   59.4850   33.8320   47.6600 C   0  0  0  0  0  0  0  0  0  0  0  0
   60.0220   33.8410   49.4940 Br  0  0  0  0  0  0  0  0  0  0  0  0
   58.9130   32.6820   47.1050 C   0  0  0  0  0  0  0  0  0  0  0  0
   60.5601   27.0580   47.5288 H   0  0  0  0  0  0  0  0  0  0  0  0
   59.6534   26.8694   45.9897 H   0  0  0  0  0  0  0  0  0  0  0  0
   61.2695   27.6534   45.9897 H   0  0  0  0  0  0  0  0  0  0  0  0
   59.9069   29.0559   48.8580 H   0  0  0  0  0  0  0  0  0  0  0  0
   61.4006   29.3528   47.9053 H   0  0  0  0  0  0  0  0  0  0  0  0
   60.0786   30.5690   47.9053 H   0  0  0  0  0  0  0  0  0  0  0  0
   60.4637   30.5538   45.8173 H   0  0  0  0  0  0  0  0  0  0  0  0
   60.3010   29.0914   44.7688 H   0  0  0  0  0  0  0  0  0  0  0  0
   57.5991   28.3104   44.2877 H   0  0  0  0  0  0  0  0  0  0  0  0
   54.4520   29.4633   44.4727 H   0  0  0  0  0  0  0  0  0  0  0  0
   54.7894   30.5311   43.0682 H   0  0  0  0  0  0  0  0  0  0  0  0
   55.3783   28.8340   43.0682 H   0  0  0  0  0  0  0  0  0  0  0  0
   58.3712   33.8263   43.9264 H   0  0  0  0  0  0  0  0  0  0  0  0
   59.4020   35.8697   44.9184 H   0  0  0  0  0  0  0  0  0  0  0  0
   60.1209   35.8745   47.3094 H   0  0  0  0  0  0  0  0  0  0  0  0
   58.7630   31.7894   47.7301 H   0  0  0  0  0  0  0  0  0  0  0  0
  1  2  1  0
  2  3  1  0
  2  4  1  0
  4  5  1  0
  5  6  2  0
  6  7  1  0
  7  8  1  0
  7  9  1  0
  9 10  2  0
 10 11  1  0
 11 12  2  0
 12 13  1  0
 13 14  2  0
 14 15  1  0
 15 16  1  0
 15 17  2  0
 10  5  1  0
 17 11  1  0
  1 18  1  0
  1 19  1  0
  1 20  1  0
  3 21  1  0
  3 22  1  0
  3 23  1  0
  4 24  1  0
  4 25  1  0
  6 26  1  0
  8 27  1  0
  8 28  1  0
  8 29  1  0
 12 30  1  0
 13 31  1  0
 14 32  1  0
 17 33  1  0
M  END
>  <UniqueID>  (8) 
8

>  <SMILES>  (8) 
CN(C)Cc1cn(C)nc1-c1cccc(Br)c1

>  <Energy>  (8) 
64.58310896310962

>  <Genealogy>  (8) 
CN(C)Cc1cn(C)nc1-c1cccc(Br)c1 (3D coordinates assigned)
CN(C)Cc1cn(C)nc1-c1cccc(Br)c1 (optimized conformer: 64.58310896310962 kcal/mol)

>  <smiles>  (8) 
CN(C)Cc1cn(C)nc1-c1cccc(Br)c1

>  <score_type>  (8) 
oracle

>  <origin>  (8) 
adg

>  <m_score__min__energy>  (8) 
-6.5599999999999996

>  <m_primary>  (8) 
energy

$$$$
8:0
     RDKit          3D

 43 44  0  0  0  0  0  0  0  0999 V2000
   64.6940   32.0060   50.3310 C   0  0  0  0  0  0  0  0  0  0  0  0
   64.4200   32.9200   49.1320 C   0  0  0  0  0  0  0  0  0  0  0  0
   62.9700   33.1500   48.9230 N   0  0  2  0  0  0  0  0  0  0  0  0
   62.7100   33.8410   47.6370 C   0  0  0  0  0  0  0  0  0  0  0  0
   61.3870   33.4300   47.0290 C   0  0  0  0  0  0  0  0  0  0  0  0
   60.4970   34.3990   46.5410 C   0  0  0  0  0  0  0  0  0  0  0  0
   59.2820   34.0180   45.9640 C   0  0  0  0  0  0  0  0  0  0  0  0
   58.9410   32.6610   45.8650 C   0  0  0  0  0  0  0  0  0  0  0  0
   57.7240   32.2700   45.2860 C   0  0  0  0  0  0  0  0  0  0  0  0
   57.3880   30.9060   45.1890 C   0  0  0  0  0  0  0  0  0  0  0  0
   56.1850   30.4660   44.6190 O   0  0  0  0  0  0  0  0  0  0  0  0
   56.0820   29.8160   43.3560 C   0  0  0  0  0  0  0  0  0  0  0  0
   58.2800   29.9430   45.6760 C   0  0  0  0  0  0  0  0  0  0  0  0
   59.4950   30.3230   46.2550 C   0  0  0  0  0  0  0  0  0  0  0  0
   59.8340   31.6790   46.3540 C   0  0  0  0  0  0  0  0  0  0  0  0
   61.0520   32.0710   46.9320 C   0  0  0  0  0  0  0  0  0  0  0  0
   62.4180   33.9420   50.0070 C   0  0  0  0  0  0  0  0  0  0  0  0
   62.9820   34.9680   50.3710 O   0  0  0  0  0  0  0  0  0  0  0  0
   61.1220   33.5290   50.6610 C   0  0  0  0  0  0  0  0  0  0  0  0
   60.5780   32.3720   50.0520 O   0  0  0  0  0  0  0  0  0  0  0  0
   59.1840   32.5160   49.8910 C   0  0  0  0  0  0  0  0  0  0  0  0
   64.5265   32.5646   51.2637 H   0  0  0  0  0  0  0  0  0  0  0  0
   64.0158   31.1407   50.2950 H   0  0  0  0  0  0  0  0  0  0  0  0
   65.7364   31.6565   50.2950 H   0  0  0  0  0  0  0  0  0  0  0  0
   64.9110   33.8889   49.3056 H   0  0  0  0  0  0  0  0  0  0  0  0
   64.8166   32.4257   48.2329 H   0  0  0  0  0  0  0  0  0  0  0  0
   62.4840   32.2210   48.9030 H   0  0  0  0  0  0  0  0  0  0  0  0
   62.6975   34.9267   47.8136 H   0  0  0  0  0  0  0  0  0  0  0  0
   63.5082   33.5609   46.9338 H   0  0  0  0  0  0  0  0  0  0  0  0
   60.7571   35.4654   46.6130 H   0  0  0  0  0  0  0  0  0  0  0  0
   58.5906   34.7855   45.5861 H   0  0  0  0  0  0  0  0  0  0  0  0
   57.0288   33.0331   44.9059 H   0  0  0  0  0  0  0  0  0  0  0  0
   55.9115   28.7403   43.5101 H   0  0  0  0  0  0  0  0  0  0  0  0
   55.2404   30.2434   42.7912 H   0  0  0  0  0  0  0  0  0  0  0  0
   57.0145   29.9623   42.7912 H   0  0  0  0  0  0  0  0  0  0  0  0
   58.0224   28.8761   45.6024 H   0  0  0  0  0  0  0  0  0  0  0  0
   60.1862   29.5556   46.6336 H   0  0  0  0  0  0  0  0  0  0  0  0
   61.7478   31.3080   47.3111 H   0  0  0  0  0  0  0  0  0  0  0  0
   61.3096   33.3184   51.7242 H   0  0  0  0  0  0  0  0  0  0  0  0
   60.4003   34.3511   50.5455 H   0  0  0  0  0  0  0  0  0  0  0  0
   58.7039   32.5656   50.8795 H   0  0  0  0  0  0  0  0  0  0  0  0
   58.9728   33.4407   49.3340 H   0  0  0  0  0  0  0  0  0  0  0  0
   58.7882   31.6540   49.3340 H   0  0  0  0  0  0  0  0  0  0  0  0
  1  2  1  0
  2  3  1  0
  3  4  1  0
  4  5  1  0
  5  6  2  0
  6  7  1  0
  7  8  2  0
  8  9  1  0
  9 10  2  0
 10 11  1  0
 11 12  1  0
 10 13  1  0
 13 14  2  0
 14 15  1  0
 15 16  2  0
  3 17  1  0
 17 18  2  0
 17 19  1  0
 19 20  1  0
 20 21  1  0
 16  5  1  0
 15  8  1  0
  1 22  1  0
  1 23  1  0
  1 24  1  0
  2 25  1  0
  2 26  1  0
  3 27  1  6
  4 28  1  0
  4 29  1  0
  6 30  1  0
  7 31  1  0
  9 32  1  0
 12 33  1  0
 12 34  1  0
 12 35  1  0
 13 36  1  0
 14 37  1  0
 16 38  1  0
 19 39  1  0
 19 40  1  0
 21 41  1  0
 21 42  1  0
 21 43  1  0
M  CHG  1   3   1
M  END
>  <UniqueID>  (9) 
9

>  <SMILES>  (9) 
CC[N@H+](Cc1ccc2cc(OC)ccc2c1)C(=O)COC

>  <Energy>  (9) 
46.5189420969478

>  <Genealogy>  (9) 
CC[NH+](Cc1ccc2cc(OC)ccc2c1)C(=O)COC (protonated)
CC[N@H+](Cc1ccc2cc(OC)ccc2c1)C(=O)COC (chirality)
CC[N@H+](Cc1ccc2cc(OC)ccc2c1)C(=O)COC (3D coordinates assigned)
CC[N@H+](Cc1ccc2cc(OC)ccc2c1)C(=O)COC (optimized conformer: 46.5189420969478 kcal/mol)

>  <smiles>  (9) 
CCN(Cc1ccc2cc(OC)ccc2c1)C(=O)COC

>  <score_type>  (9) 
oracle

>  <origin>  (9) 
adg

>  <m_score__min__energy>  (9) 
-4.7000000000000002

>  <m_primary>  (9) 
energy

$$$$
9:0
     RDKit          3D

 57 58  0  0  0  0  0  0  0  0999 V2000
   59.4640   33.1470   50.4740 C   0  0  0  0  0  0  0  0  0  0  0  0
   60.1130   34.1360   49.5100 C   0  0  0  0  0  0  0  0  0  0  0  0
   59.9690   33.6760   48.1070 N   0  0  0  0  0  0  0  0  0  0  0  0
   60.7830   34.5220   47.1920 C   0  0  0  0  0  0  0  0  0  0  0  0
   61.7460   33.6930   46.3210 C   0  0  0  0  0  0  0  0  0  0  0  0
   63.2320   33.7920   46.7500 C   0  0  0  0  0  0  0  0  0  0  0  0
   63.6590   32.7350   47.7090 N   0  0  0  0  0  0  0  0  0  0  0  0
   63.9540   33.2360   49.0820 C   0  0  0  0  0  0  0  0  0  0  0  0
   65.2390   32.6970   49.7220 C   0  0  0  0  0  0  0  0  0  0  0  0
   62.7660   31.5380   47.7130 C   0  0  0  0  0  0  0  0  0  0  0  0
   62.1420   31.1780   49.0750 C   0  0  0  0  0  0  0  0  0  0  0  0
   58.5350   33.6650   47.7180 C   0  0  0  0  0  0  0  0  0  0  0  0
   58.2860   32.7210   46.5560 C   0  0  0  0  0  0  0  0  0  0  0  0
   57.7120   33.2830   45.4060 C   0  0  0  0  0  0  0  0  0  0  0  0
   57.4250   32.5070   44.2890 C   0  0  0  0  0  0  0  0  0  0  0  0
   57.6930   31.1320   44.2850 C   0  0  0  0  0  0  0  0  0  0  0  0
   57.3880   30.3300   43.1710 O   0  0  0  0  0  0  0  0  0  0  0  0
   56.1210   29.7260   42.9290 C   0  0  0  0  0  0  0  0  0  0  0  0
   58.2760   30.5380   45.4240 C   0  0  0  0  0  0  0  0  0  0  0  0
   58.5500   29.1560   45.4350 C   0  0  0  0  0  0  0  0  0  0  0  0
   59.1120   28.5540   46.5580 C   0  0  0  0  0  0  0  0  0  0  0  0
   59.4060   29.3130   47.6850 C   0  0  0  0  0  0  0  0  0  0  0  0
   59.1450   30.6840   47.7000 C   0  0  0  0  0  0  0  0  0  0  0  0
   58.5800   31.3270   46.5740 C   0  0  0  0  0  0  0  0  0  0  0  0
   59.6675   33.4571   51.5096 H   0  0  0  0  0  0  0  0  0  0  0  0
   58.3774   33.1282   50.3037 H   0  0  0  0  0  0  0  0  0  0  0  0
   59.8792   32.1427   50.3037 H   0  0  0  0  0  0  0  0  0  0  0  0
   59.6280   35.1172   49.6193 H   0  0  0  0  0  0  0  0  0  0  0  0
   61.1843   34.2096   49.7487 H   0  0  0  0  0  0  0  0  0  0  0  0
   60.1040   35.0819   46.5321 H   0  0  0  0  0  0  0  0  0  0  0  0
   61.3911   35.1961   47.8132 H   0  0  0  0  0  0  0  0  0  0  0  0
   61.4401   32.6378   46.3762 H   0  0  0  0  0  0  0  0  0  0  0  0
   61.6824   34.1011   45.3015 H   0  0  0  0  0  0  0  0  0  0  0  0
   63.8578   33.7142   45.8487 H   0  0  0  0  0  0  0  0  0  0  0  0
   63.3499   34.7560   47.2666 H   0  0  0  0  0  0  0  0  0  0  0  0
   64.5760   32.3760   47.3580 H   0  0  0  0  0  0  0  0  0  0  0  0
   64.0346   34.3319   49.0323 H   0  0  0  0  0  0  0  0  0  0  0  0
   63.1292   32.8790   49.7163 H   0  0  0  0  0  0  0  0  0  0  0  0
   65.1471   32.7355   50.8175 H   0  0  0  0  0  0  0  0  0  0  0  0
   65.3984   31.6562   49.4038 H   0  0  0  0  0  0  0  0  0  0  0  0
   66.0933   33.3126   49.4038 H   0  0  0  0  0  0  0  0  0  0  0  0
   61.9461   31.7249   47.0039 H   0  0  0  0  0  0  0  0  0  0  0  0
   63.4045   30.6851   47.4395 H   0  0  0  0  0  0  0  0  0  0  0  0
   62.7876   31.5505   49.8840 H   0  0  0  0  0  0  0  0  0  0  0  0
   61.1476   31.6412   49.1567 H   0  0  0  0  0  0  0  0  0  0  0  0
   62.0453   30.0853   49.1567 H   0  0  0  0  0  0  0  0  0  0  0  0
   57.9326   33.3400   48.5791 H   0  0  0  0  0  0  0  0  0  0  0  0
   58.2520   34.6813   47.4064 H   0  0  0  0  0  0  0  0  0  0  0  0
   57.4845   34.3591   45.3878 H   0  0  0  0  0  0  0  0  0  0  0  0
   56.9827   32.9777   43.3986 H   0  0  0  0  0  0  0  0  0  0  0  0
   55.6358   29.4947   43.8887 H   0  0  0  0  0  0  0  0  0  0  0  0
   55.4879   30.4192   42.3557 H   0  0  0  0  0  0  0  0  0  0  0  0
   56.2608   28.7977   42.3557 H   0  0  0  0  0  0  0  0  0  0  0  0
   58.3180   28.5472   44.5487 H   0  0  0  0  0  0  0  0  0  0  0  0
   59.3239   27.4746   46.5533 H   0  0  0  0  0  0  0  0  0  0  0  0
   59.8467   28.8304   48.5698 H   0  0  0  0  0  0  0  0  0  0  0  0
   59.3817   31.2720   48.5990 H   0  0  0  0  0  0  0  0  0  0  0  0
  1  2  1  0
  2  3  1  0
  3  4  1  0
  4  5  1  0
  5  6  1  0
  6  7  1  0
  7  8  1  0
  8  9  1  0
  7 10  1  0
 10 11  1  0
  3 12  1  0
 12 13  1  0
 13 14  2  0
 14 15  1  0
 15 16  2  0
 16 17  1  0
 17 18  1  0
 16 19  1  0
 19 20  2  0
 20 21  1  0
 21 22  2  0
 22 23  1  0
 23 24  2  0
 24 13  1  0
 24 19  1  0
  1 25  1  0
  1 26  1  0
  1 27  1  0
  2 28  1  0
  2 29  1  0
  4 30  1  0
  4 31  1  0
  5 32  1  0
  5 33  1  0
  6 34  1  0
  6 35  1  0
  7 36  1  0
  8 37  1  0
  8 38  1  0
  9 39  1  0
  9 40  1  0
  9 41  1  0
 10 42  1  0
 10 43  1  0
 11 44  1  0
 11 45  1  0
 11 46  1  0
 12 47  1  0
 12 48  1  0
 14 49  1  0
 15 50  1  0
 18 51  1  0
 18 52  1  0
 18 53  1  0
 20 54  1  0
 21 55  1  0
 22 56  1  0
 23 57  1  0
M  CHG  1   7   1
M  END
>  <UniqueID>  (10) 
10

>  <SMILES>  (10) 
CCN(CCC[NH+](CC)CC)Cc1ccc(OC)c2ccccc12

>  <Energy>  (10) 
70.73789654525856

>  <Genealogy>  (10) 
CCN(CCC[NH+](CC)CC)Cc1ccc(OC)c2ccccc12 (protonated)
CCN(CCC[NH+](CC)CC)Cc1ccc(OC)c2ccccc12 (3D coordinates assigned)
CCN(CCC[NH+](CC)CC)Cc1ccc(OC)c2ccccc12 (optimized conformer: 70.73789654525856 kcal/mol)

>  <smiles>  (10) 
CCN(CC)CCCN(CC)Cc1ccc(OC)c2ccccc12

>  <score_type>  (10) 
oracle

>  <origin>  (10) 
adg

>  <m_score__min__energy>  (10) 
-5.6799999999999997

>  <m_primary>  (10) 
energy

$$$$
10:0
     RDKit          3D

 55 58  0  0  0  0  0  0  0  0999 V2000
   59.2620   32.6830   50.5650 C   0  0  0  0  0  0  0  0  0  0  0  0
   58.4870   31.5370   49.9310 C   0  0  0  0  0  0  0  0  0  0  0  0
   59.4240   30.5940   49.3040 N   0  0  0  0  0  0  0  0  0  0  0  0
   59.9350   29.5910   50.2540 C   0  0  0  0  0  0  0  0  0  0  0  0
   60.4280   28.3080   49.5540 C   0  0  0  0  0  0  0  0  0  0  0  0
   60.2270   28.4130   48.1580 O   0  0  0  0  0  0  0  0  0  0  0  0
   60.3770   27.1580   47.5250 C   0  0  0  0  0  0  0  0  0  0  0  0
   60.2330   27.3460   46.0150 C   0  0  0  0  0  0  0  0  0  0  0  0
   60.7520   28.6480   45.5920 N   0  0  0  0  0  0  0  0  0  0  0  0
   59.9770   29.8560   45.7030 C   0  0  0  0  0  0  0  0  0  0  0  0
   58.7340   29.9760   45.0520 C   0  0  0  0  0  0  0  0  0  0  0  0
   58.1610   28.8780   44.3760 C   0  0  0  0  0  0  0  0  0  0  0  0
   56.9420   29.0050   43.7100 C   0  0  0  0  0  0  0  0  0  0  0  0
   56.2710   30.2220   43.7130 C   0  0  0  0  0  0  0  0  0  0  0  0
   56.8010   31.3140   44.4020 C   0  0  0  0  0  0  0  0  0  0  0  0
   58.0340   31.2140   45.1010 C   0  0  0  0  0  0  0  0  0  0  0  0
   58.5480   32.2770   45.8230 N   0  0  0  0  0  0  0  0  0  0  0  0
   57.8160   33.5590   45.8750 C   0  0  0  0  0  0  0  0  0  0  0  0
   59.7360   32.1450   46.5080 C   0  0  0  0  0  0  0  0  0  0  0  0
   60.2280   33.1830   47.2430 N   0  0  0  0  0  0  0  0  0  0  0  0
   61.3920   33.1130   47.9370 C   0  0  0  0  0  0  0  0  0  0  0  0
   61.8370   34.2140   48.6760 C   0  0  0  0  0  0  0  0  0  0  0  0
   63.0370   34.1380   49.3890 C   0  0  0  0  0  0  0  0  0  0  0  0
   63.7940   32.9610   49.3670 C   0  0  0  0  0  0  0  0  0  0  0  0
   63.3530   31.8560   48.6310 C   0  0  0  0  0  0  0  0  0  0  0  0
   62.1500   31.9270   47.9120 C   0  0  0  0  0  0  0  0  0  0  0  0
   61.6810   30.8390   47.1700 C   0  0  0  0  0  0  0  0  0  0  0  0
   60.4670   30.9330   46.4610 C   0  0  0  0  0  0  0  0  0  0  0  0
   59.2067   32.6012   51.6606 H   0  0  0  0  0  0  0  0  0  0  0  0
   60.3137   32.6349   50.2464 H   0  0  0  0  0  0  0  0  0  0  0  0
   58.8258   33.6412   50.2464 H   0  0  0  0  0  0  0  0  0  0  0  0
   57.9064   31.0151   50.7059 H   0  0  0  0  0  0  0  0  0  0  0  0
   57.8052   31.9369   49.1660 H   0  0  0  0  0  0  0  0  0  0  0  0
   58.9400   30.1090   48.5120 H   0  0  0  0  0  0  0  0  0  0  0  0
   60.7733   30.0311   50.8140 H   0  0  0  0  0  0  0  0  0  0  0  0
   59.1057   29.3097   50.9196 H   0  0  0  0  0  0  0  0  0  0  0  0
   61.4999   28.1699   49.7587 H   0  0  0  0  0  0  0  0  0  0  0  0
   59.8619   27.4463   49.9373 H   0  0  0  0  0  0  0  0  0  0  0  0
   61.3711   26.7458   47.7528 H   0  0  0  0  0  0  0  0  0  0  0  0
   59.6072   26.4619   47.8895 H   0  0  0  0  0  0  0  0  0  0  0  0
   60.7929   26.5518   45.4995 H   0  0  0  0  0  0  0  0  0  0  0  0
   59.1646   27.2966   45.7580 H   0  0  0  0  0  0  0  0  0  0  0  0
   61.6730   28.6870   45.1000 H   0  0  0  0  0  0  0  0  0  0  0  0
   58.6823   27.9094   44.3742 H   0  0  0  0  0  0  0  0  0  0  0  0
   56.5115   28.1413   43.1821 H   0  0  0  0  0  0  0  0  0  0  0  0
   55.3195   30.3250   43.1708 H   0  0  0  0  0  0  0  0  0  0  0  0
   56.2546   32.2687   44.4039 H   0  0  0  0  0  0  0  0  0  0  0  0
   57.6524   33.8455   46.9244 H   0  0  0  0  0  0  0  0  0  0  0  0
   58.4052   34.3384   45.3697 H   0  0  0  0  0  0  0  0  0  0  0  0
   56.8453   33.4477   45.3697 H   0  0  0  0  0  0  0  0  0  0  0  0
   61.2428   35.1395   48.6961 H   0  0  0  0  0  0  0  0  0  0  0  0
   63.3870   35.0050   49.9685 H   0  0  0  0  0  0  0  0  0  0  0  0
   64.7376   32.9047   49.9295 H   0  0  0  0  0  0  0  0  0  0  0  0
   63.9491   30.9317   48.6159 H   0  0  0  0  0  0  0  0  0  0  0  0
   62.2622   29.9056   47.1395 H   0  0  0  0  0  0  0  0  0  0  0  0
  1  2  1  0
  2  3  1  0
  3  4  1  0
  4  5  1  0
  5  6  1  0
  6  7  1  0
  7  8  1  0
  8  9  1  0
  9 10  1  0
 10 11  2  0
 11 12  1  0
 12 13  2  0
 13 14  1  0
 14 15  2  0
 15 16  1  0
 16 17  2  0
 17 18  1  0
 17 19  1  0
 19 20  2  0
 20 21  1  0
 21 22  2  0
 22 23  1  0
 23 24  2  0
 24 25  1  0
 25 26  2  0
 26 27  1  0
 27 28  2  0
 28 10  1  0
 16 11  1  0
 28 19  1  0
 26 21  1  0
  1 29  1  0
  1 30  1  0
  1 31  1  0
  2 32  1  0
  2 33  1  0
  3 34  1  0
  4 35  1  0
  4 36  1  0
  5 37  1  0
  5 38  1  0
  7 39  1  0
  7 40  1  0
  8 41  1  0
  8 42  1  0
  9 43  1  0
 12 44  1  0
 13 45  1  0
 14 46  1  0
 15 47  1  0
 18 48  1  0
 18 49  1  0
 18 50  1  0
 22 51  1  0
 23 52  1  0
 24 53  1  0
 25 54  1  0
 27 55  1  0
M  CHG  1  17   1
M  END
>  <UniqueID>  (11) 
11

>  <SMILES>  (11) 
CCNCCOCCNc1c2ccccc2[n+](C)c2nc3ccccc3cc12

>  <Energy>  (11) 
78.15869993699603

>  <Genealogy>  (11) 
CCNCCOCCNc1c2ccccc2[n+](C)c2nc3ccccc3cc12 (3D coordinates assigned)
CCNCCOCCNc1c2ccccc2[n+](C)c2nc3ccccc3cc12 (optimized conformer: 78.15869993699603 kcal/mol)

>  <smiles>  (11) 
CCNCCOCCNc1c2ccccc2[n+](C)c2nc3ccccc3cc12

>  <score_type>  (11) 
oracle

>  <origin>  (11) 
adg

>  <m_score__min__energy>  (11) 
-6.21

>  <m_primary>  (11) 
energy

$$$$
11:0
     RDKit          3D

 42 44  0  0  0  0  0  0  0  0999 V2000
   60.6730   28.9470   44.8770 C   0  0  0  0  0  0  0  0  0  0  0  0
   60.3790   28.8770   46.3750 C   0  0  0  0  0  0  0  0  0  0  0  0
   58.9760   28.4960   46.6490 N   0  0  0  0  0  0  0  0  0  0  0  0
   58.8930   27.4050   47.6310 C   0  0  0  0  0  0  0  0  0  0  0  0
   58.1160   28.2850   45.4580 C   0  0  0  0  0  0  0  0  0  0  0  0
   56.9750   29.3160   45.2450 C   0  0  0  0  0  0  0  0  0  0  0  0
   57.4520   30.6050   44.6830 N   0  0  0  0  0  0  0  0  0  0  0  0
   57.3020   30.8370   43.3310 C   0  0  0  0  0  0  0  0  0  0  0  0
   56.8340   29.9420   42.5720 O   0  0  0  0  0  0  0  0  0  0  0  0
   57.6530   32.0730   42.7720 C   0  0  0  0  0  0  0  0  0  0  0  0
   57.4680   32.3310   41.3630 C   0  0  0  0  0  0  0  0  0  0  0  0
   57.3210   32.5380   40.2340 N   0  0  0  0  0  0  0  0  0  0  0  0
   58.1740   33.0710   43.5830 C   0  0  0  0  0  0  0  0  0  0  0  0
   58.3910   32.8320   44.9420 C   0  0  0  0  0  0  0  0  0  0  0  0
   58.0480   31.5670   45.4850 C   0  0  0  0  0  0  0  0  0  0  0  0
   58.3370   31.3310   46.8050 N   0  0  0  0  0  0  0  0  0  0  0  0
   58.8850   32.2890   47.6020 C   0  0  0  0  0  0  0  0  0  0  0  0
   59.1520   32.0240   48.9560 C   0  0  0  0  0  0  0  0  0  0  0  0
   59.7110   33.0120   49.7690 C   0  0  0  0  0  0  0  0  0  0  0  0
   60.0090   34.2690   49.2410 C   0  0  0  0  0  0  0  0  0  0  0  0
   59.7520   34.5430   47.8950 C   0  0  0  0  0  0  0  0  0  0  0  0
   59.1880   33.5560   47.0620 C   0  0  0  0  0  0  0  0  0  0  0  0
   58.9410   33.7990   45.7420 N   0  0  0  0  0  0  0  0  0  0  0  0
   59.2540   35.0320   45.2070 O   0  0  0  0  0  0  0  0  0  0  0  0
   61.7325   29.1993   44.7227 H   0  0  0  0  0  0  0  0  0  0  0  0
   60.4571   27.9723   44.4150 H   0  0  0  0  0  0  0  0  0  0  0  0
   60.0410   29.7198   44.4150 H   0  0  0  0  0  0  0  0  0  0  0  0
   61.0451   28.1309   46.8328 H   0  0  0  0  0  0  0  0  0  0  0  0
   60.5480   29.8771   46.8007 H   0  0  0  0  0  0  0  0  0  0  0  0
   58.9248   27.8236   48.6477 H   0  0  0  0  0  0  0  0  0  0  0  0
   57.9505   26.8557   47.4900 H   0  0  0  0  0  0  0  0  0  0  0  0
   59.7416   26.7194   47.4900 H   0  0  0  0  0  0  0  0  0  0  0  0
   58.7624   28.3113   44.5684 H   0  0  0  0  0  0  0  0  0  0  0  0
   57.6139   27.3206   45.6246 H   0  0  0  0  0  0  0  0  0  0  0  0
   56.2374   28.8838   44.5527 H   0  0  0  0  0  0  0  0  0  0  0  0
   56.5380   29.5300   46.2315 H   0  0  0  0  0  0  0  0  0  0  0  0
   58.4171   34.0543   43.1540 H   0  0  0  0  0  0  0  0  0  0  0  0
   58.1640   30.4000   47.2390 H   0  0  0  0  0  0  0  0  0  0  0  0
   58.9198   31.0346   49.3769 H   0  0  0  0  0  0  0  0  0  0  0  0
   59.9170   32.7990   50.8283 H   0  0  0  0  0  0  0  0  0  0  0  0
   60.4469   35.0454   49.8855 H   0  0  0  0  0  0  0  0  0  0  0  0
   59.9913   35.5346   47.4834 H   0  0  0  0  0  0  0  0  0  0  0  0
  1  2  1  0
  2  3  1  0
  3  4  1  0
  3  5  1  0
  5  6  1  0
  6  7  1  0
  7  8  1  0
  8  9  2  0
  8 10  1  0
 10 11  1  0
 11 12  3  0
 10 13  2  0
 13 14  1  0
 14 15  2  0
 15 16  1  0
 16 17  2  0
 17 18  1  0
 18 19  2  0
 19 20  1  0
 20 21  2  0
 21 22  1  0
 22 23  2  0
 23 24  1  0
 15  7  1  0
 22 17  1  0
 23 14  1  0
  1 25  1  0
  1 26  1  0
  1 27  1  0
  2 28  1  0
  2 29  1  0
  4 30  1  0
  4 31  1  0
  4 32  1  0
  5 33  1  0
  5 34  1  0
  6 35  1  0
  6 36  1  0
 13 37  1  0
 16 38  1  0
 18 39  1  0
 19 40  1  0
 20 41  1  0
 21 42  1  0
M  CHG  3  16   1  23   1  24  -1
M  END
>  <UniqueID>  (12) 
12

>  <SMILES>  (12) 
CCN(C)CCn1c(=O)c(C#N)cc2c1[nH+]c1ccccc1[n+]2[O-]

>  <Energy>  (12) 
65.18680133809835

>  <Genealogy>  (12) 
CCN(C)CCn1c(=O)c(C#N)cc2c1[nH+]c1ccccc1[n+]2[O-] (protonated)
CCN(C)CCn1c(=O)c(C#N)cc2c1[nH+]c1ccccc1[n+]2[O-] (3D coordinates assigned)
CCN(C)CCn1c(=O)c(C#N)cc2c1[nH+]c1ccccc1[n+]2[O-] (optimized conformer: 65.18680133809835 kcal/mol)

>  <smiles>  (12) 
CCN(C)CCn1c(=O)c(C#N)cc2c1nc1ccccc1[n+]2[O-]

>  <score_type>  (12) 
oracle

>  <origin>  (12) 
adg

>  <m_score__min__energy>  (12) 
-4.9699999999999998

>  <m_primary>  (12) 
energy

$$$$
12:0
     RDKit          3D

 93 96  0  0  0  0  0  0  0  0999 V2000
   60.5980   28.1270   49.4590 C   0  0  0  0  0  0  0  0  0  0  0  0
   59.5020   29.1250   49.8540 C   0  0  0  0  0  0  0  0  0  0  0  0
   59.9780   30.1420   50.8290 N   0  0  0  0  0  0  0  0  0  0  0  0
   61.0280   29.5780   51.7190 C   0  0  0  0  0  0  0  0  0  0  0  0
   62.3350   30.3810   51.6970 C   0  0  0  0  0  0  0  0  0  0  0  0
   58.8380   30.7670   51.5600 C   0  0  0  0  0  0  0  0  0  0  0  0
   58.1120   31.9040   50.8110 C   0  0  0  0  0  0  0  0  0  0  0  0
   58.8760   32.3250   49.6990 O   0  0  0  0  0  0  0  0  0  0  0  0
   59.5930   33.4940   50.0330 C   0  0  0  0  0  0  0  0  0  0  0  0
   61.0330   33.3730   49.5310 C   0  0  0  0  0  0  0  0  0  0  0  0
   61.4270   32.0160   49.4340 O   0  0  0  0  0  0  0  0  0  0  0  0
   62.3550   31.8180   48.3840 C   0  0  0  0  0  0  0  0  0  0  0  0
   61.7730   30.8960   47.3100 C   0  0  0  0  0  0  0  0  0  0  0  0
   60.3210   30.8140   47.4490 N   0  0  0  0  0  0  0  0  0  0  0  0
   59.4650   30.9350   46.3010 C   0  0  0  0  0  0  0  0  0  0  0  0
   59.0750   32.2030   45.8390 C   0  0  0  0  0  0  0  0  0  0  0  0
   59.5280   33.3770   46.4790 C   0  0  0  0  0  0  0  0  0  0  0  0
   59.1010   34.6310   46.0500 C   0  0  0  0  0  0  0  0  0  0  0  0
   58.2090   34.7380   44.9900 C   0  0  0  0  0  0  0  0  0  0  0  0
   57.7640   33.5940   44.3290 C   0  0  0  0  0  0  0  0  0  0  0  0
   58.2180   32.3050   44.7100 C   0  0  0  0  0  0  0  0  0  0  0  0
   57.8350   31.1650   44.0250 N   0  0  0  0  0  0  0  0  0  0  0  0
   57.1850   31.2840   42.7000 C   0  0  0  0  0  0  0  0  0  0  0  0
   58.0820   29.9180   44.5660 C   0  0  0  0  0  0  0  0  0  0  0  0
   57.4790   28.7460   44.0440 C   0  0  0  0  0  0  0  0  0  0  0  0
   57.7640   27.4880   44.5740 C   0  0  0  0  0  0  0  0  0  0  0  0
   58.6460   27.3570   45.6540 C   0  0  0  0  0  0  0  0  0  0  0  0
   58.9790   26.1150   46.2200 O   0  0  0  0  0  0  0  0  0  0  0  0
   58.2010   25.4030   47.1810 C   0  0  0  0  0  0  0  0  0  0  0  0
   56.8790   24.9160   46.5390 C   0  0  0  0  0  0  0  0  0  0  0  0
   57.0000   23.8050   45.5310 N   0  0  0  0  0  0  0  0  0  0  0  0
   58.4250   23.3700   45.4550 C   0  0  0  0  0  0  0  0  0  0  0  0
   56.1940   22.5990   45.9050 C   0  0  0  0  0  0  0  0  0  0  0  0
   56.8080   21.2240   45.5560 C   0  0  0  0  0  0  0  0  0  0  0  0
   56.6000   20.8460   44.0830 C   0  0  0  0  0  0  0  0  0  0  0  0
   56.9880   21.9540   43.0930 C   0  0  0  0  0  0  0  0  0  0  0  0
   56.1350   23.2300   43.1580 C   0  0  0  0  0  0  0  0  0  0  0  0
   56.6530   24.2960   44.1550 C   0  0  0  0  0  0  0  0  0  0  0  0
   59.2210   28.5020   46.2040 C   0  0  0  0  0  0  0  0  0  0  0  0
   58.9370   29.7840   45.6900 C   0  0  0  0  0  0  0  0  0  0  0  0
   61.0574   27.7087   50.3667 H   0  0  0  0  0  0  0  0  0  0  0  0
   60.1565   27.3143   48.8635 H   0  0  0  0  0  0  0  0  0  0  0  0
   61.3659   28.6424   48.8635 H   0  0  0  0  0  0  0  0  0  0  0  0
   59.1533   29.6420   48.9478 H   0  0  0  0  0  0  0  0  0  0  0  0
   58.6919   28.5568   50.3345 H   0  0  0  0  0  0  0  0  0  0  0  0
   60.4210   30.9210   50.2850 H   0  0  0  0  0  0  0  0  0  0  0  0
   60.6429   29.5653   52.7493 H   0  0  0  0  0  0  0  0  0  0  0  0
   61.2594   28.5674   51.3515 H   0  0  0  0  0  0  0  0  0  0  0  0
   62.6601   30.5807   52.7287 H   0  0  0  0  0  0  0  0  0  0  0  0
   63.1112   29.8038   51.1732 H   0  0  0  0  0  0  0  0  0  0  0  0
   62.1709   31.3343   51.1732 H   0  0  0  0  0  0  0  0  0  0  0  0
   58.1014   29.9792   51.7763 H   0  0  0  0  0  0  0  0  0  0  0  0
   59.2722   31.2272   52.4598 H   0  0  0  0  0  0  0  0  0  0  0  0
   57.1333   31.5421   50.4628 H   0  0  0  0  0  0  0  0  0  0  0  0
   57.9776   32.7546   51.4954 H   0  0  0  0  0  0  0  0  0  0  0  0
   59.1131   34.3649   49.5626 H   0  0  0  0  0  0  0  0  0  0  0  0
   59.5962   33.6213   51.1256 H   0  0  0  0  0  0  0  0  0  0  0  0
   61.1078   33.8406   48.5382 H   0  0  0  0  0  0  0  0  0  0  0  0
   61.6965   33.8790   50.2478 H   0  0  0  0  0  0  0  0  0  0  0  0
   62.5994   32.7901   47.9308 H   0  0  0  0  0  0  0  0  0  0  0  0
   63.2603   31.3495   48.7976 H   0  0  0  0  0  0  0  0  0  0  0  0
   62.0209   31.2949   46.3153 H   0  0  0  0  0  0  0  0  0  0  0  0
   62.2025   29.8903   47.4288 H   0  0  0  0  0  0  0  0  0  0  0  0
   59.9070   30.9950   48.3910 H   0  0  0  0  0  0  0  0  0  0  0  0
   60.2259   33.3003   47.3258 H   0  0  0  0  0  0  0  0  0  0  0  0
   59.4703   35.5381   46.5509 H   0  0  0  0  0  0  0  0  0  0  0  0
   57.8527   35.7287   44.6713 H   0  0  0  0  0  0  0  0  0  0  0  0
   57.0493   33.6924   43.4986 H   0  0  0  0  0  0  0  0  0  0  0  0
   56.1111   31.4806   42.8347 H   0  0  0  0  0  0  0  0  0  0  0  0
   57.6422   32.1134   42.1404 H   0  0  0  0  0  0  0  0  0  0  0  0
   57.3187   30.3464   42.1404 H   0  0  0  0  0  0  0  0  0  0  0  0
   56.7728   28.8305   43.2049 H   0  0  0  0  0  0  0  0  0  0  0  0
   57.2932   26.5930   44.1411 H   0  0  0  0  0  0  0  0  0  0  0  0
   58.7725   24.5346   47.5406 H   0  0  0  0  0  0  0  0  0  0  0  0
   57.9678   26.0718   48.0226 H   0  0  0  0  0  0  0  0  0  0  0  0
   56.2222   24.5648   47.3485 H   0  0  0  0  0  0  0  0  0  0  0  0
   56.4874   25.7790   45.9806 H   0  0  0  0  0  0  0  0  0  0  0  0
   58.8258   23.2477   46.4721 H   0  0  0  0  0  0  0  0  0  0  0  0
   58.4877   22.4118   44.9185 H   0  0  0  0  0  0  0  0  0  0  0  0
   59.0122   24.1298   44.9185 H   0  0  0  0  0  0  0  0  0  0  0  0
   56.0350   22.6276   46.9931 H   0  0  0  0  0  0  0  0  0  0  0  0
   55.2734   22.6671   45.3069 H   0  0  0  0  0  0  0  0  0  0  0  0
   57.8878   21.2568   45.7630 H   0  0  0  0  0  0  0  0  0  0  0  0
   56.3019   20.4654   46.1711 H   0  0  0  0  0  0  0  0  0  0  0  0
   57.2105   19.9575   43.8644 H   0  0  0  0  0  0  0  0  0  0  0  0
   55.5234   20.6633   43.9503 H   0  0  0  0  0  0  0  0  0  0  0  0
   58.0328   22.2348   43.2916 H   0  0  0  0  0  0  0  0  0  0  0  0
   56.8239   21.5328   42.0902 H   0  0  0  0  0  0  0  0  0  0  0  0
   56.1120   23.6799   42.1545 H   0  0  0  0  0  0  0  0  0  0  0  0
   55.1400   22.9246   43.5140 H   0  0  0  0  0  0  0  0  0  0  0  0
   57.5575   24.7485   43.7223 H   0  0  0  0  0  0  0  0  0  0  0  0
   55.8176   24.9978   44.2953 H   0  0  0  0  0  0  0  0  0  0  0  0
   59.9099   28.4033   47.0559 H   0  0  0  0  0  0  0  0  0  0  0  0
  1  2  1  0
  2  3  1  0
  3  4  1  0
  4  5  1  0
  3  6  1  0
  6  7  1  0
  7  8  1  0
  8  9  1  0
  9 10  1  0
 10 11  1  0
 11 12  1  0
 12 13  1  0
 13 14  1  0
 14 15  1  0
 15 16  2  0
 16 17  1  0
 17 18  2  0
 18 19  1  0
 19 20  2  0
 20 21  1  0
 21 22  2  0
 22 23  1  0
 22 24  1  0
 24 25  2  0
 25 26  1  0
 26 27  2  0
 27 28  1  0
 28 29  1  0
 29 30  1  0
 30 31  1  0
 31 32  1  0
 31 33  1  0
 33 34  1  0
 34 35  1  0
 35 36  1  0
 36 37  1  0
 37 38  1  0
 27 39  1  0
 39 40  2  0
 40 15  1  0
 21 16  1  0
 40 24  1  0
 38 31  1  0
  1 41  1  0
  1 42  1  0
  1 43  1  0
  2 44  1  0
  2 45  1  0
  3 46  1  0
  4 47  1  0
  4 48  1  0
  5 49  1  0
  5 50  1  0
  5 51  1  0
  6 52  1  0
  6 53  1  0
  7 54  1  0
  7 55  1  0
  9 56  1  0
  9 57  1  0
 10 58  1  0
 10 59  1  0
 12 60  1  0
 12 61  1  0
 13 62  1  0
 13 63  1  0
 14 64  1  0
 17 65  1  0
 18 66  1  0
 19 67  1  0
 20 68  1  0
 23 69  1  0
 23 70  1  0
 23 71  1  0
 25 72  1  0
 26 73  1  0
 29 74  1  0
 29 75  1  0
 30 76  1  0
 30 77  1  0
 32 78  1  0
 32 79  1  0
 32 80  1  0
 33 81  1  0
 33 82  1  0
 34 83  1  0
 34 84  1  0
 35 85  1  0
 35 86  1  0
 36 87  1  0
 36 88  1  0
 37 89  1  0
 37 90  1  0
 38 91  1  0
 38 92  1  0
 39 93  1  0
M  CHG  3   3   1  22   1  31   1
M  END
>  <UniqueID>  (13) 
13

>  <SMILES>  (13) 
CC[NH+](CC)CCOCCOCCNc1c2ccccc2[n+](C)c2ccc(OCC[N+]3(C)CCCCCC3)cc12

>  <Energy>  (13) 
144.6619448798215

>  <Genealogy>  (13) 
CC[NH+](CC)CCOCCOCCNc1c2ccccc2[n+](C)c2ccc(OCC[N+]3(C)CCCCCC3)cc12 (protonated)
CC[NH+](CC)CCOCCOCCNc1c2ccccc2[n+](C)c2ccc(OCC[N+]3(C)CCCCCC3)cc12 (3D coordinates assigned)
CC[NH+](CC)CCOCCOCCNc1c2ccccc2[n+](C)c2ccc(OCC[N+]3(C)CCCCCC3)cc12 (nonaromatic ring conformer: 144.6619448798215 kcal/mol)

>  <smiles>  (13) 
CCN(CC)CCOCCOCCNc1c2ccccc2[n+](C)c2ccc(OCC[N+]3(C)CCCCCC3)cc12

>  <score_type>  (13) 
oracle

>  <origin>  (13) 
adg

>  <m_score__min__energy>  (13) 
-2.1600000000000001

>  <m_primary>  (13) 
energy

$$$$
13:0
     RDKit          3D

 42 45  0  0  0  0  0  0  0  0999 V2000
   56.2980   29.7360   42.6400 C   0  0  0  0  0  0  0  0  0  0  0  0
   56.8560   30.3180   43.8660 N   0  0  0  0  0  0  0  0  0  0  0  0
   57.3970   31.5790   43.8320 C   0  0  0  0  0  0  0  0  0  0  0  0
   57.9340   32.0930   45.0000 C   0  0  0  0  0  0  0  0  0  0  0  0
   58.5650   33.2740   45.3060 C   0  0  0  0  0  0  0  0  0  0  0  0
   58.8830   34.3890   44.5390 C   0  0  0  0  0  0  0  0  0  0  0  0
   59.5580   35.4100   45.1420 N   0  0  0  0  0  0  0  0  0  0  0  0
   59.9270   35.3600   46.4610 C   0  0  0  0  0  0  0  0  0  0  0  0
   59.6190   34.2370   47.2500 C   0  0  0  0  0  0  0  0  0  0  0  0
   58.9250   33.1900   46.6370 C   0  0  0  0  0  0  0  0  0  0  0  0
   58.5530   31.9940   47.1670 N   0  0  0  0  0  0  0  0  0  0  0  0
   58.7810   31.4830   48.5230 C   0  0  0  0  0  0  0  0  0  0  0  0
   60.2430   31.0630   48.7520 C   0  0  0  0  0  0  0  0  0  0  0  0
   61.0000   30.6810   47.4650 C   0  0  0  0  0  0  0  0  0  0  0  0
   60.4600   29.4380   46.7960 C   0  0  0  0  0  0  0  0  0  0  0  0
   59.9930   28.3560   47.5640 C   0  0  0  0  0  0  0  0  0  0  0  0
   59.4590   27.2250   46.9390 C   0  0  0  0  0  0  0  0  0  0  0  0
   59.4120   27.1520   45.5450 C   0  0  0  0  0  0  0  0  0  0  0  0
   59.9120   28.2030   44.7730 C   0  0  0  0  0  0  0  0  0  0  0  0
   60.4430   29.3380   45.3940 C   0  0  0  0  0  0  0  0  0  0  0  0
   57.9340   31.3510   46.1470 C   0  0  0  0  0  0  0  0  0  0  0  0
   57.4090   30.1050   46.1810 N   0  0  0  0  0  0  0  0  0  0  0  0
   56.8680   29.5850   45.0390 C   0  0  0  0  0  0  0  0  0  0  0  0
   56.3820   28.4210   45.0700 O   0  0  0  0  0  0  0  0  0  0  0  0
   55.5589   28.9651   42.9035 H   0  0  0  0  0  0  0  0  0  0  0  0
   55.8101   30.5249   42.0487 H   0  0  0  0  0  0  0  0  0  0  0  0
   57.1067   29.2817   42.0487 H   0  0  0  0  0  0  0  0  0  0  0  0
   57.4037   32.1656   42.9015 H   0  0  0  0  0  0  0  0  0  0  0  0
   58.5990   34.4464   43.4779 H   0  0  0  0  0  0  0  0  0  0  0  0
   60.4695   36.2066   46.9071 H   0  0  0  0  0  0  0  0  0  0  0  0
   59.9130   34.1848   48.3087 H   0  0  0  0  0  0  0  0  0  0  0  0
   58.5222   32.2708   49.2458 H   0  0  0  0  0  0  0  0  0  0  0  0
   58.1506   30.5915   48.6564 H   0  0  0  0  0  0  0  0  0  0  0  0
   60.7724   31.9019   49.2274 H   0  0  0  0  0  0  0  0  0  0  0  0
   60.2178   30.1622   49.3829 H   0  0  0  0  0  0  0  0  0  0  0  0
   60.9261   31.5185   46.7557 H   0  0  0  0  0  0  0  0  0  0  0  0
   62.0405   30.4687   47.7518 H   0  0  0  0  0  0  0  0  0  0  0  0
   60.0482   28.3999   48.6617 H   0  0  0  0  0  0  0  0  0  0  0  0
   59.0754   26.3916   47.5459 H   0  0  0  0  0  0  0  0  0  0  0  0
   58.9810   26.2665   45.0550 H   0  0  0  0  0  0  0  0  0  0  0  0
   59.8881   28.1380   43.6752 H   0  0  0  0  0  0  0  0  0  0  0  0
   60.8495   30.1568   44.7821 H   0  0  0  0  0  0  0  0  0  0  0  0
  1  2  1  0
  2  3  1  0
  3  4  2  0
  4  5  1  0
  5  6  2  0
  6  7  1  0
  7  8  2  0
  8  9  1  0
  9 10  2  0
 10 11  1  0
 11 12  1  0
 12 13  1  0
 13 14  1  0
 14 15  1  0
 15 16  2  0
 16 17  1  0
 17 18  2  0
 18 19  1  0
 19 20  2  0
 11 21  1  0
 21 22  2  0
 22 23  1  0
 23 24  2  0
 23  2  1  0
 21  4  1  0
 10  5  1  0
 20 15  1  0
  1 25  1  0
  1 26  1  0
  1 27  1  0
  3 28  1  0
  6 29  1  0
  8 30  1  0
  9 31  1  0
 12 32  1  0
 12 33  1  0
 13 34  1  0
 13 35  1  0
 14 36  1  0
 14 37  1  0
 16 38  1  0
 17 39  1  0
 18 40  1  0
 19 41  1  0
 20 42  1  0
M  END
>  <UniqueID>  (14) 
14

>  <SMILES>  (14) 
Cn1cc2c3cnccc3n(CCCc3ccccc3)c2nc1=O

>  <Energy>  (14) 
86.31591925550293

>  <Genealogy>  (14) 
Cn1cc2c3cnccc3n(CCCc3ccccc3)c2nc1=O (3D coordinates assigned)
Cn1cc2c3cnccc3n(CCCc3ccccc3)c2nc1=O (optimized conformer: 86.31591925550293 kcal/mol)

>  <smiles>  (14) 
Cn1cc2c3cnccc3n(CCCc3ccccc3)c2nc1=O

>  <score_type>  (14) 
oracle

>  <origin>  (14) 
adg

>  <m_score__min__energy>  (14) 
-7.5999999999999996

>  <m_primary>  (14) 
energy

$$$$
14:0
     RDKit          3D

 43 45  0  0  0  0  0  0  0  0999 V2000
   61.0168   25.4710   46.5401 H   0  0  0  0  0  0  0  0  0  0  0  0
   60.1000   26.0690   46.4310 C   0  0  0  0  0  0  0  0  0  0  0  0
   58.8640   25.4320   46.3140 C   0  0  0  0  0  0  0  0  0  0  0  0
   58.8067   24.3337   46.3350 H   0  0  0  0  0  0  0  0  0  0  0  0
   57.6980   26.1910   46.1700 C   0  0  0  0  0  0  0  0  0  0  0  0
   56.0090   25.3170   45.9900 Br  0  0  0  0  0  0  0  0  0  0  0  0
   57.7690   27.5880   46.1490 C   0  0  0  0  0  0  0  0  0  0  0  0
   56.8496   28.1802   46.0304 H   0  0  0  0  0  0  0  0  0  0  0  0
   59.0120   28.2420   46.2790 C   0  0  0  0  0  0  0  0  0  0  0  0
   59.1120   29.7230   46.2500 C   0  0  0  0  0  0  0  0  0  0  0  0
   58.1160   30.4410   45.6790 N   0  0  0  0  0  0  0  0  0  0  0  0
   58.1340   31.7950   45.6060 C   0  0  0  0  0  0  0  0  0  0  0  0
   57.0520   32.4370   44.9940 C   0  0  0  0  0  0  0  0  0  0  0  0
   56.2176   31.8412   44.5955 H   0  0  0  0  0  0  0  0  0  0  0  0
   57.0240   33.8230   44.8860 C   0  0  0  0  0  0  0  0  0  0  0  0
   56.1690   34.3219   44.4065 H   0  0  0  0  0  0  0  0  0  0  0  0
   58.0800   34.5760   45.3860 C   0  0  0  0  0  0  0  0  0  0  0  0
   58.0579   35.6723   45.2987 H   0  0  0  0  0  0  0  0  0  0  0  0
   59.1700   33.9510   45.9990 C   0  0  0  0  0  0  0  0  0  0  0  0
   59.9983   34.5652   46.3819 H   0  0  0  0  0  0  0  0  0  0  0  0
   59.2290   32.5400   46.1370 C   0  0  0  0  0  0  0  0  0  0  0  0
   60.3010   31.7990   46.7510 C   0  0  0  0  0  0  0  0  0  0  0  0
   61.3840   32.2890   47.3070 N   0  0  0  0  0  0  0  0  0  0  0  0
   62.0480   33.5890   47.2990 C   0  0  0  0  0  0  0  0  0  0  0  0
   61.6259   34.2139   48.0998 H   0  0  0  0  0  0  0  0  0  0  0  0
   61.8863   34.0601   46.3182 H   0  0  0  0  0  0  0  0  0  0  0  0
   63.5610   33.4340   47.5260 C   0  0  0  0  0  0  0  0  0  0  0  0
   63.8881   34.1576   48.2872 H   0  0  0  0  0  0  0  0  0  0  0  0
   64.0824   33.6189   46.5752 H   0  0  0  0  0  0  0  0  0  0  0  0
   63.8810   32.0710   47.9850 N   0  0  0  0  0  0  0  0  0  0  0  0
   63.0590   31.4520   47.7870 H   0  0  0  0  0  0  0  0  0  0  0  0
   64.7030   31.6980   47.4560 H   0  0  0  0  0  0  0  0  0  0  0  0
   64.1500   32.0210   49.4330 C   0  0  0  0  0  0  0  0  0  0  0  0
   64.2498   30.9688   49.7378 H   0  0  0  0  0  0  0  0  0  0  0  0
   63.3105   32.5113   49.9477 H   0  0  0  0  0  0  0  0  0  0  0  0
   65.4330   32.7680   49.8140 C   0  0  0  0  0  0  0  0  0  0  0  0
   65.5171   32.8170   50.9097 H   0  0  0  0  0  0  0  0  0  0  0  0
   66.3032   32.2354   49.4029 H   0  0  0  0  0  0  0  0  0  0  0  0
   65.3994   33.7877   49.4029 H   0  0  0  0  0  0  0  0  0  0  0  0
   60.2160   30.3990   46.7790 C   0  0  0  0  0  0  0  0  0  0  0  0
   61.0366   29.8197   47.2274 H   0  0  0  0  0  0  0  0  0  0  0  0
   60.1770   27.4640   46.4100 C   0  0  0  0  0  0  0  0  0  0  0  0
   61.1561   27.9578   46.4966 H   0  0  0  0  0  0  0  0  0  0  0  0
  1  2  1  0
  2  3  2  0
  3  4  1  0
  3  5  1  0
  5  6  1  0
  5  7  2  0
  7  8  1  0
  7  9  1  0
  9 10  1  0
 10 11  1  0
 11 12  1  0
 12 13  2  0
 13 14  1  0
 13 15  1  0
 15 16  1  0
 15 17  2  0
 17 18  1  0
 17 19  1  0
 19 20  1  0
 19 21  2  0
 21 22  1  0
 22 23  2  0
 23 24  1  0
 24 25  1  0
 24 26  1  0
 24 27  1  0
 27 28  1  0
 27 29  1  0
 27 30  1  0
 30 31  1  0
 30 32  1  0
 30 33  1  0
 33 34  1  0
 33 35  1  0
 33 36  1  0
 36 37  1  0
 36 38  1  0
 36 39  1  0
 22 40  1  0
 40 41  1  0
  9 42  2  0
 42 43  1  0
 42  2  1  0
 40 10  2  0
 21 12  1  0
M  CHG  2  11  -1  30   1
M  END
>  <UniqueID>  (15) 
15

>  <SMILES>  (15) 
CC[NH2+]CC/N=c1/cc(-c2cccc(Br)c2)[n-]c2ccccc12

>  <Energy>  (15) 
65.60198268196922

>  <Genealogy>  (15) 
CC[NH2+]CCN=c1cc(-c2cccc(Br)c2)[n-]c2ccccc12 (protonated)
CC[NH2+]CC/N=c1/cc(-c2cccc(Br)c2)[n-]c2ccccc12 (cis-trans isomerization)
CC[NH2+]CC/N=c1/cc(-c2cccc(Br)c2)[n-]c2ccccc12 (3D coordinates assigned)
CC[NH2+]CC/N=c1/cc(-c2cccc(Br)c2)[n-]c2ccccc12 (optimized conformer: 65.60198268196922 kcal/mol)

>  <smiles>  (15) 
CCNCCN=c1cc(-c2cccc(Br)c2)[nH]c2ccccc12

>  <score_type>  (15) 
oracle

>  <origin>  (15) 
adg

>  <m_score__min__energy>  (15) 
-7.46

>  <m_primary>  (15) 
energy

$$$$
15:0
     RDKit          3D

 75 78  0  0  0  0  0  0  0  0999 V2000
   58.0190   32.3480   50.8100 C   0  0  0  0  0  0  0  0  0  0  0  0
   58.8940   31.5040   49.8830 C   0  0  0  0  0  0  0  0  0  0  0  0
   59.6580   30.5050   50.6620 N   0  0  0  0  0  0  0  0  0  0  0  0
   58.8240   29.9540   51.7440 C   0  0  0  0  0  0  0  0  0  0  0  0
   60.1930   29.4190   49.8090 C   0  0  0  0  0  0  0  0  0  0  0  0
   59.2660   29.2130   48.6040 C   0  0  0  0  0  0  0  0  0  0  0  0
   59.9950   28.5600   47.4090 C   0  0  0  0  0  0  0  0  0  0  0  0
   60.6920   29.5420   46.5520 N   0  0  0  0  0  0  0  0  0  0  0  0
   59.7970   30.5700   46.0400 C   0  0  0  0  0  0  0  0  0  0  0  0
   58.7300   30.2230   45.1470 C   0  0  0  0  0  0  0  0  0  0  0  0
   58.6010   28.9320   44.5560 C   0  0  0  0  0  0  0  0  0  0  0  0
   57.5480   28.6230   43.7000 C   0  0  0  0  0  0  0  0  0  0  0  0
   56.6000   29.5810   43.3880 C   0  0  0  0  0  0  0  0  0  0  0  0
   56.6970   30.8540   43.9340 C   0  0  0  0  0  0  0  0  0  0  0  0
   57.7430   31.1980   44.8300 C   0  0  0  0  0  0  0  0  0  0  0  0
   57.8210   32.4590   45.3680 N   0  0  0  0  0  0  0  0  0  0  0  0
   56.6410   33.3560   45.3170 C   0  0  0  0  0  0  0  0  0  0  0  0
   58.9860   32.8910   45.9590 C   0  0  0  0  0  0  0  0  0  0  0  0
   59.2220   34.2760   46.1280 C   0  0  0  0  0  0  0  0  0  0  0  0
   60.3330   34.7400   46.8020 C   0  0  0  0  0  0  0  0  0  0  0  0
   61.2300   33.8470   47.3500 C   0  0  0  0  0  0  0  0  0  0  0  0
   61.0720   32.4570   47.1900 C   0  0  0  0  0  0  0  0  0  0  0  0
   62.0000   31.6060   47.8250 O   0  0  0  0  0  0  0  0  0  0  0  0
   63.4150   31.6420   47.6070 C   0  0  0  0  0  0  0  0  0  0  0  0
   64.0800   32.8220   48.3560 C   0  0  0  0  0  0  0  0  0  0  0  0
   63.9990   32.8120   49.8550 N   0  0  0  0  0  0  0  0  0  0  0  0
   65.3900   33.0240   50.3480 C   0  0  0  0  0  0  0  0  0  0  0  0
   63.1600   33.9390   50.3810 C   0  0  0  0  0  0  0  0  0  0  0  0
   61.7150   33.5240   50.7190 C   0  0  0  0  0  0  0  0  0  0  0  0
   61.6510   32.4200   51.6970 N   0  0  0  0  0  0  0  0  0  0  0  0
   62.8600   31.5780   51.7340 C   0  0  0  0  0  0  0  0  0  0  0  0
   63.5330   31.4770   50.3540 C   0  0  0  0  0  0  0  0  0  0  0  0
   59.9710   31.9520   46.4040 C   0  0  0  0  0  0  0  0  0  0  0  0
   58.2617   32.1139   51.8570 H   0  0  0  0  0  0  0  0  0  0  0  0
   58.2064   33.4151   50.6200 H   0  0  0  0  0  0  0  0  0  0  0  0
   56.9593   32.1223   50.6200 H   0  0  0  0  0  0  0  0  0  0  0  0
   58.2541   30.9836   49.1552 H   0  0  0  0  0  0  0  0  0  0  0  0
   59.6010   32.1651   49.3605 H   0  0  0  0  0  0  0  0  0  0  0  0
   59.2520   30.2368   52.7171 H   0  0  0  0  0  0  0  0  0  0  0  0
   57.8035   30.3563   51.6615 H   0  0  0  0  0  0  0  0  0  0  0  0
   58.7937   28.8575   51.6615 H   0  0  0  0  0  0  0  0  0  0  0  0
   61.1986   29.6914   49.4560 H   0  0  0  0  0  0  0  0  0  0  0  0
   60.2494   28.4880   50.3922 H   0  0  0  0  0  0  0  0  0  0  0  0
   58.4311   28.5639   48.9067 H   0  0  0  0  0  0  0  0  0  0  0  0
   58.9089   30.2020   48.2809 H   0  0  0  0  0  0  0  0  0  0  0  0
   60.7358   27.8458   47.7979 H   0  0  0  0  0  0  0  0  0  0  0  0
   59.2332   28.0643   46.7894 H   0  0  0  0  0  0  0  0  0  0  0  0
   61.4810   29.9910   47.0520 H   0  0  0  0  0  0  0  0  0  0  0  0
   61.2110   29.0210   45.8240 H   0  0  0  0  0  0  0  0  0  0  0  0
   59.3523   28.1611   44.7822 H   0  0  0  0  0  0  0  0  0  0  0  0
   57.4693   27.6136   43.2701 H   0  0  0  0  0  0  0  0  0  0  0  0
   55.7708   29.3347   42.7085 H   0  0  0  0  0  0  0  0  0  0  0  0
   55.9468   31.6126   43.6664 H   0  0  0  0  0  0  0  0  0  0  0  0
   56.3209   33.5993   46.3409 H   0  0  0  0  0  0  0  0  0  0  0  0
   56.9070   34.2820   44.7862 H   0  0  0  0  0  0  0  0  0  0  0  0
   55.8199   32.8520   44.7862 H   0  0  0  0  0  0  0  0  0  0  0  0
   58.5040   34.9986   45.7129 H   0  0  0  0  0  0  0  0  0  0  0  0
   60.5033   35.8221   46.9023 H   0  0  0  0  0  0  0  0  0  0  0  0
   62.0870   34.2288   47.9242 H   0  0  0  0  0  0  0  0  0  0  0  0
   63.8549   30.6994   47.9649 H   0  0  0  0  0  0  0  0  0  0  0  0
   63.5926   31.7761   46.5297 H   0  0  0  0  0  0  0  0  0  0  0  0
   65.1452   32.8308   48.0816 H   0  0  0  0  0  0  0  0  0  0  0  0
   63.5130   33.7122   48.0459 H   0  0  0  0  0  0  0  0  0  0  0  0
   65.3931   33.0245   51.4480 H   0  0  0  0  0  0  0  0  0  0  0  0
   66.0369   32.2141   49.9799 H   0  0  0  0  0  0  0  0  0  0  0  0
   65.7663   33.9899   49.9799 H   0  0  0  0  0  0  0  0  0  0  0  0
   63.6331   34.3283   51.2946 H   0  0  0  0  0  0  0  0  0  0  0  0
   63.1013   34.6969   49.5860 H   0  0  0  0  0  0  0  0  0  0  0  0
   61.1878   34.3945   51.1366 H   0  0  0  0  0  0  0  0  0  0  0  0
   61.2458   33.1704   49.7891 H   0  0  0  0  0  0  0  0  0  0  0  0
   60.8330   31.8120   51.4480 H   0  0  0  0  0  0  0  0  0  0  0  0
   63.5751   32.0141   52.4471 H   0  0  0  0  0  0  0  0  0  0  0  0
   62.5601   30.5653   52.0413 H   0  0  0  0  0  0  0  0  0  0  0  0
   64.4001   30.8045   50.4305 H   0  0  0  0  0  0  0  0  0  0  0  0
   62.7894   31.0898   49.6419 H   0  0  0  0  0  0  0  0  0  0  0  0
  1  2  1  0
  2  3  1  0
  3  4  1  0
  3  5  1  0
  5  6  1  0
  6  7  1  0
  7  8  1  0
  8  9  1  0
  9 10  2  0
 10 11  1  0
 11 12  2  0
 12 13  1  0
 13 14  2  0
 14 15  1  0
 15 16  2  0
 16 17  1  0
 16 18  1  0
 18 19  2  0
 19 20  1  0
 20 21  2  0
 21 22  1  0
 22 23  1  0
 23 24  1  0
 24 25  1  0
 25 26  1  0
 26 27  1  0
 26 28  1  0
 28 29  1  0
 29 30  1  0
 30 31  1  0
 31 32  1  0
 22 33  2  0
 33  9  1  0
 15 10  1  0
 33 18  1  0
 32 26  1  0
  1 34  1  0
  1 35  1  0
  1 36  1  0
  2 37  1  0
  2 38  1  0
  4 39  1  0
  4 40  1  0
  4 41  1  0
  5 42  1  0
  5 43  1  0
  6 44  1  0
  6 45  1  0
  7 46  1  0
  7 47  1  0
  8 48  1  0
  8 49  1  0
 11 50  1  0
 12 51  1  0
 13 52  1  0
 14 53  1  0
 17 54  1  0
 17 55  1  0
 17 56  1  0
 19 57  1  0
 20 58  1  0
 21 59  1  0
 24 60  1  0
 24 61  1  0
 25 62  1  0
 25 63  1  0
 27 64  1  0
 27 65  1  0
 27 66  1  0
 28 67  1  0
 28 68  1  0
 29 69  1  0
 29 70  1  0
 30 71  1  0
 31 72  1  0
 31 73  1  0
 32 74  1  0
 32 75  1  0
M  CHG  3   8   1  16   1  26   1
M  END
>  <UniqueID>  (16) 
16

>  <SMILES>  (16) 
CCN(C)CCC[NH2+]c1c2ccccc2[n+](C)c2cccc(OCC[N+]3(C)CCNCC3)c12

>  <Energy>  (16) 
134.7103979743385

>  <Genealogy>  (16) 
CCN(C)CCC[NH2+]c1c2ccccc2[n+](C)c2cccc(OCC[N+]3(C)CCNCC3)c12 (protonated)
CCN(C)CCC[NH2+]c1c2ccccc2[n+](C)c2cccc(OCC[N+]3(C)CCNCC3)c12 (3D coordinates assigned)
CCN(C)CCC[NH2+]c1c2ccccc2[n+](C)c2cccc(OCC[N+]3(C)CCNCC3)c12 (nonaromatic ring conformer: 134.7103979743385 kcal/mol)

>  <smiles>  (16) 
CCN(C)CCCNc1c2ccccc2[n+](C)c2cccc(OCC[N+]3(C)CCNCC3)c12

>  <score_type>  (16) 
oracle

>  <origin>  (16) 
adg

>  <m_score__min__energy>  (16) 
-3.5800000000000001

>  <m_primary>  (16) 
energy

$$$$
16:0
     RDKit          3D

 66 68  0  0  0  0  0  0  0  0999 V2000
   57.0190   31.0280   42.9050 C   0  0  0  0  0  0  0  0  0  0  0  0
   56.4560   29.7380   43.5060 C   0  0  0  0  0  0  0  0  0  0  0  0
   57.3840   28.5990   43.3740 N   0  0  0  0  0  0  0  0  0  0  0  0
   58.0360   28.2260   44.6520 C   0  0  0  0  0  0  0  0  0  0  0  0
   57.7200   29.2320   45.7730 C   0  0  0  0  0  0  0  0  0  0  0  0
   58.7710   29.1610   46.8830 C   0  0  0  0  0  0  0  0  0  0  0  0
   58.6960   30.3340   47.7590 N   0  0  0  0  0  0  0  0  0  0  0  0
   59.6100   31.4230   47.5520 C   0  0  0  0  0  0  0  0  0  0  0  0
   59.2980   32.4440   46.6450 C   0  0  0  0  0  0  0  0  0  0  0  0
   58.0270   32.5020   46.0390 C   0  0  0  0  0  0  0  0  0  0  0  0
   57.6960   33.5540   45.1880 C   0  0  0  0  0  0  0  0  0  0  0  0
   58.6110   34.5740   44.9530 C   0  0  0  0  0  0  0  0  0  0  0  0
   59.8780   34.5320   45.5320 C   0  0  0  0  0  0  0  0  0  0  0  0
   60.2670   33.4450   46.3580 C   0  0  0  0  0  0  0  0  0  0  0  0
   61.5410   33.3470   46.8880 N   0  0  0  0  0  0  0  0  0  0  0  0
   62.6260   34.2140   46.3710 C   0  0  0  0  0  0  0  0  0  0  0  0
   61.8020   32.4350   47.8960 C   0  0  0  0  0  0  0  0  0  0  0  0
   63.0260   32.4420   48.6110 C   0  0  0  0  0  0  0  0  0  0  0  0
   63.3020   31.4970   49.6030 C   0  0  0  0  0  0  0  0  0  0  0  0
   64.5650   31.5360   50.2100 O   0  0  0  0  0  0  0  0  0  0  0  0
   65.4070   32.6820   50.3130 C   0  0  0  0  0  0  0  0  0  0  0  0
   66.8680   32.2360   50.5440 C   0  0  0  0  0  0  0  0  0  0  0  0
   67.0910   31.3230   51.7090 N   0  0  0  0  0  0  0  0  0  0  0  0
   66.0010   31.4330   52.7050 C   0  0  0  0  0  0  0  0  0  0  0  0
   68.3950   31.6010   52.3660 C   0  0  0  0  0  0  0  0  0  0  0  0
   67.1180   29.9280   51.2000 C   0  0  0  0  0  0  0  0  0  0  0  0
   62.3290   30.5460   49.9340 C   0  0  0  0  0  0  0  0  0  0  0  0
   61.1130   30.5220   49.2530 C   0  0  0  0  0  0  0  0  0  0  0  0
   60.8340   31.4560   48.2380 C   0  0  0  0  0  0  0  0  0  0  0  0
   57.3168   31.7103   43.7148 H   0  0  0  0  0  0  0  0  0  0  0  0
   57.8956   30.7912   42.2841 H   0  0  0  0  0  0  0  0  0  0  0  0
   56.2493   31.5097   42.2841 H   0  0  0  0  0  0  0  0  0  0  0  0
   56.2538   29.9058   44.5742 H   0  0  0  0  0  0  0  0  0  0  0  0
   55.5383   29.4860   42.9543 H   0  0  0  0  0  0  0  0  0  0  0  0
   58.0890   28.7990   42.6220 H   0  0  0  0  0  0  0  0  0  0  0  0
   56.8200   27.7780   43.0450 H   0  0  0  0  0  0  0  0  0  0  0  0
   57.6790   27.2310   44.9562 H   0  0  0  0  0  0  0  0  0  0  0  0
   59.1243   28.2252   44.4918 H   0  0  0  0  0  0  0  0  0  0  0  0
   57.7088   30.2483   45.3522 H   0  0  0  0  0  0  0  0  0  0  0  0
   56.7383   28.9829   46.2022 H   0  0  0  0  0  0  0  0  0  0  0  0
   58.5999   28.2543   47.4818 H   0  0  0  0  0  0  0  0  0  0  0  0
   59.7677   29.1361   46.4183 H   0  0  0  0  0  0  0  0  0  0  0  0
   58.1120   30.3270   48.6250 H   0  0  0  0  0  0  0  0  0  0  0  0
   57.2903   31.7101   46.2396 H   0  0  0  0  0  0  0  0  0  0  0  0
   56.7097   33.5777   44.7015 H   0  0  0  0  0  0  0  0  0  0  0  0
   58.3333   35.4193   44.3062 H   0  0  0  0  0  0  0  0  0  0  0  0
   60.5865   35.3527   45.3463 H   0  0  0  0  0  0  0  0  0  0  0  0
   63.1771   34.6544   47.2150 H   0  0  0  0  0  0  0  0  0  0  0  0
   63.3138   33.6139   45.7571 H   0  0  0  0  0  0  0  0  0  0  0  0
   62.1925   35.0172   45.7571 H   0  0  0  0  0  0  0  0  0  0  0  0
   63.7778   33.2108   48.3791 H   0  0  0  0  0  0  0  0  0  0  0  0
   65.3457   33.2655   49.3826 H   0  0  0  0  0  0  0  0  0  0  0  0
   65.0771   33.3014   51.1601 H   0  0  0  0  0  0  0  0  0  0  0  0
   67.2102   31.7163   49.6369 H   0  0  0  0  0  0  0  0  0  0  0  0
   67.4297   33.1542   50.7706 H   0  0  0  0  0  0  0  0  0  0  0  0
   66.4252   31.3902   53.7190 H   0  0  0  0  0  0  0  0  0  0  0  0
   65.4742   32.3889   52.5680 H   0  0  0  0  0  0  0  0  0  0  0  0
   65.2938   30.6017   52.5680 H   0  0  0  0  0  0  0  0  0  0  0  0
   68.2683   31.5740   53.4584 H   0  0  0  0  0  0  0  0  0  0  0  0
   69.1281   30.8390   52.0629 H   0  0  0  0  0  0  0  0  0  0  0  0
   68.7536   32.5958   52.0629 H   0  0  0  0  0  0  0  0  0  0  0  0
   67.1315   29.2282   52.0486 H   0  0  0  0  0  0  0  0  0  0  0  0
   66.2232   29.7439   50.5872 H   0  0  0  0  0  0  0  0  0  0  0  0
   68.0192   29.7787   50.5872 H   0  0  0  0  0  0  0  0  0  0  0  0
   62.5247   29.8161   50.7333 H   0  0  0  0  0  0  0  0  0  0  0  0
   60.3610   29.7624   49.5126 H   0  0  0  0  0  0  0  0  0  0  0  0
  1  2  1  0
  2  3  1  0
  3  4  1  0
  4  5  1  0
  5  6  1  0
  6  7  1  0
  7  8  1  0
  8  9  2  0
  9 10  1  0
 10 11  2  0
 11 12  1  0
 12 13  2  0
 13 14  1  0
 14 15  2  0
 15 16  1  0
 15 17  1  0
 17 18  2  0
 18 19  1  0
 19 20  1  0
 20 21  1  0
 21 22  1  0
 22 23  1  0
 23 24  1  0
 23 25  1  0
 23 26  1  0
 19 27  2  0
 27 28  1  0
 28 29  2  0
 29  8  1  0
 14  9  1  0
 29 17  1  0
  1 30  1  0
  1 31  1  0
  1 32  1  0
  2 33  1  0
  2 34  1  0
  3 35  1  0
  3 36  1  0
  4 37  1  0
  4 38  1  0
  5 39  1  0
  5 40  1  0
  6 41  1  0
  6 42  1  0
  7 43  1  0
 10 44  1  0
 11 45  1  0
 12 46  1  0
 13 47  1  0
 16 48  1  0
 16 49  1  0
 16 50  1  0
 18 51  1  0
 21 52  1  0
 21 53  1  0
 22 54  1  0
 22 55  1  0
 24 56  1  0
 24 57  1  0
 24 58  1  0
 25 59  1  0
 25 60  1  0
 25 61  1  0
 26 62  1  0
 26 63  1  0
 26 64  1  0
 27 65  1  0
 28 66  1  0
M  CHG  3   3   1  15   1  23   1
M  END
>  <UniqueID>  (17) 
17

>  <SMILES>  (17) 
CC[NH2+]CCCNc1c2ccccc2[n+](C)c2cc(OCC[N+](C)(C)C)ccc12

>  <Energy>  (17) 
97.04756742503778

>  <Genealogy>  (17) 
CC[NH2+]CCCNc1c2ccccc2[n+](C)c2cc(OCC[N+](C)(C)C)ccc12 (protonated)
CC[NH2+]CCCNc1c2ccccc2[n+](C)c2cc(OCC[N+](C)(C)C)ccc12 (3D coordinates assigned)
CC[NH2+]CCCNc1c2ccccc2[n+](C)c2cc(OCC[N+](C)(C)C)ccc12 (optimized conformer: 97.04756742503778 kcal/mol)

>  <smiles>  (17) 
CCNCCCNc1c2ccccc2[n+](C)c2cc(OCC[N+](C)(C)C)ccc12

>  <score_type>  (17) 
oracle

>  <origin>  (17) 
adg

>  <m_score__min__energy>  (17) 
-3.1800000000000002

>  <m_primary>  (17) 
energy

$$$$
17:0
     RDKit          3D

 33 34  0  0  0  0  0  0  0  0999 V2000
   57.8960   26.6440   44.8670 C   0  0  0  0  0  0  0  0  0  0  0  0
   57.7760   27.9200   44.0430 C   0  0  0  0  0  0  0  0  0  0  0  0
   58.1490   29.0940   44.8420 N   0  0  0  0  0  0  0  0  0  0  0  0
   59.3400   29.0430   45.7050 C   0  0  0  0  0  0  0  0  0  0  0  0
   60.6140   28.9320   44.8720 C   0  0  0  0  0  0  0  0  0  0  0  0
   57.2990   30.2570   44.8370 C   0  0  0  0  0  0  0  0  0  0  0  0
   56.0490   30.1200   44.7420 O   0  0  0  0  0  0  0  0  0  0  0  0
   57.8620   31.6160   44.9520 C   0  0  0  0  0  0  0  0  0  0  0  0
   58.1560   32.1250   46.2350 C   0  0  0  0  0  0  0  0  0  0  0  0
   58.7100   33.3940   46.3130 C   0  0  0  0  0  0  0  0  0  0  0  0
   59.1200   34.1520   47.3840 C   0  0  0  0  0  0  0  0  0  0  0  0
   59.5930   35.3330   46.8140 C   0  0  0  0  0  0  0  0  0  0  0  0
   59.4770   35.2900   45.4970 O   0  0  0  0  0  0  0  0  0  0  0  0
   58.9490   34.1310   45.1950 C   0  0  0  0  0  0  0  0  0  0  0  0
   58.6540   33.6780   43.9540 N   0  0  0  0  0  0  0  0  0  0  0  0
   58.1010   32.4350   43.8030 C   0  0  0  0  0  0  0  0  0  0  0  0
   57.7440   31.9760   42.4180 C   0  0  0  0  0  0  0  0  0  0  0  0
   57.8724   26.8953   45.9376 H   0  0  0  0  0  0  0  0  0  0  0  0
   57.0569   25.9736   44.6291 H   0  0  0  0  0  0  0  0  0  0  0  0
   58.8453   26.1418   44.6291 H   0  0  0  0  0  0  0  0  0  0  0  0
   58.4432   27.8504   43.1712 H   0  0  0  0  0  0  0  0  0  0  0  0
   56.7312   28.0325   43.7177 H   0  0  0  0  0  0  0  0  0  0  0  0
   59.3849   29.9601   46.3108 H   0  0  0  0  0  0  0  0  0  0  0  0
   59.2661   28.1569   46.3526 H   0  0  0  0  0  0  0  0  0  0  0  0
   61.4840   28.8562   45.5409 H   0  0  0  0  0  0  0  0  0  0  0  0
   60.5602   28.0351   44.2374 H   0  0  0  0  0  0  0  0  0  0  0  0
   60.7161   29.8247   44.2374 H   0  0  0  0  0  0  0  0  0  0  0  0
   57.9529   31.5358   47.1414 H   0  0  0  0  0  0  0  0  0  0  0  0
   59.0831   33.8864   48.4508 H   0  0  0  0  0  0  0  0  0  0  0  0
   60.0049   36.1815   47.3800 H   0  0  0  0  0  0  0  0  0  0  0  0
   57.0698   31.1092   42.4814 H   0  0  0  0  0  0  0  0  0  0  0  0
   57.2414   32.7928   41.8792 H   0  0  0  0  0  0  0  0  0  0  0  0
   58.6593   31.6899   41.8792 H   0  0  0  0  0  0  0  0  0  0  0  0
  1  2  1  0
  2  3  1  0
  3  4  1  0
  4  5  1  0
  3  6  1  0
  6  7  2  0
  6  8  1  0
  8  9  2  0
  9 10  1  0
 10 11  1  0
 11 12  2  0
 12 13  1  0
 13 14  1  0
 14 15  1  0
 15 16  2  0
 16 17  1  0
 16  8  1  0
 14 10  2  0
  1 18  1  0
  1 19  1  0
  1 20  1  0
  2 21  1  0
  2 22  1  0
  4 23  1  0
  4 24  1  0
  5 25  1  0
  5 26  1  0
  5 27  1  0
  9 28  1  0
 11 29  1  0
 12 30  1  0
 17 31  1  0
 17 32  1  0
 17 33  1  0
M  END
>  <UniqueID>  (18) 
18

>  <SMILES>  (18) 
CCN(CC)C(=O)c1cc2ccoc2nc1C

>  <Energy>  (18) 
67.89002933078757

>  <Genealogy>  (18) 
CCN(CC)C(=O)c1cc2ccoc2nc1C (3D coordinates assigned)
CCN(CC)C(=O)c1cc2ccoc2nc1C (optimized conformer: 67.89002933078757 kcal/mol)

>  <smiles>  (18) 
CCN(CC)C(=O)c1cc2ccoc2nc1C

>  <score_type>  (18) 
oracle

>  <origin>  (18) 
adg

>  <m_score__min__energy>  (18) 
-6.4400000000000004

>  <m_primary>  (18) 
energy

$$$$
18:0
     RDKit          3D

 46 48  0  0  0  0  0  0  0  0999 V2000
   55.6180   29.3440   44.0420 C   0  0  0  0  0  0  0  0  0  0  0  0
   56.4950   30.5290   43.7970 C   0  0  0  0  0  0  0  0  0  0  0  0
   57.0430   31.2400   44.8720 C   0  0  0  0  0  0  0  0  0  0  0  0
   57.8690   32.3480   44.6280 C   0  0  0  0  0  0  0  0  0  0  0  0
   58.4430   33.0920   45.7210 N   0  0  0  0  0  0  0  0  0  0  0  0
   58.3230   32.5600   47.0870 C   0  0  0  0  0  0  0  0  0  0  0  0
   58.9670   33.5010   48.1030 C   0  0  0  0  0  0  0  0  0  0  0  0
   60.2640   33.9460   47.5670 N   0  0  0  0  0  0  0  0  0  0  0  0
   61.0890   34.5890   48.6100 C   0  0  0  0  0  0  0  0  0  0  0  0
   62.2450   33.6930   48.9980 C   0  0  0  0  0  0  0  0  0  0  0  0
   62.2940   33.1940   50.3090 C   0  0  0  0  0  0  0  0  0  0  0  0
   63.3460   32.3720   50.7130 C   0  0  0  0  0  0  0  0  0  0  0  0
   64.3490   32.0500   49.8010 C   0  0  0  0  0  0  0  0  0  0  0  0
   64.2950   32.5340   48.5330 N   0  0  0  0  0  0  0  0  0  0  0  0
   63.2850   33.3390   48.1020 C   0  0  0  0  0  0  0  0  0  0  0  0
   63.3150   33.8150   46.6790 C   0  0  0  0  0  0  0  0  0  0  0  0
   60.0770   34.8600   46.4170 C   0  0  0  0  0  0  0  0  0  0  0  0
   58.8840   34.4800   45.5110 C   0  0  0  0  0  0  0  0  0  0  0  0
   58.1290   32.7200   43.2990 C   0  0  0  0  0  0  0  0  0  0  0  0
   57.5690   31.9820   42.2490 C   0  0  0  0  0  0  0  0  0  0  0  0
   57.8240   32.3770   40.8290 C   0  0  0  0  0  0  0  0  0  0  0  0
   56.7710   30.9160   42.5220 N   0  0  0  0  0  0  0  0  0  0  0  0
   55.5040   29.1899   45.1252 H   0  0  0  0  0  0  0  0  0  0  0  0
   54.6303   29.5192   43.5906 H   0  0  0  0  0  0  0  0  0  0  0  0
   56.0742   28.4506   43.5906 H   0  0  0  0  0  0  0  0  0  0  0  0
   56.8265   30.9307   45.9052 H   0  0  0  0  0  0  0  0  0  0  0  0
   57.2577   32.4402   47.3334 H   0  0  0  0  0  0  0  0  0  0  0  0
   58.8418   31.5910   47.1310 H   0  0  0  0  0  0  0  0  0  0  0  0
   58.3151   34.3714   48.2686 H   0  0  0  0  0  0  0  0  0  0  0  0
   59.1124   32.9805   49.0611 H   0  0  0  0  0  0  0  0  0  0  0  0
   61.4825   35.5412   48.2245 H   0  0  0  0  0  0  0  0  0  0  0  0
   60.4644   34.7685   49.4975 H   0  0  0  0  0  0  0  0  0  0  0  0
   61.4977   33.4528   51.0224 H   0  0  0  0  0  0  0  0  0  0  0  0
   63.3834   31.9820   51.7409 H   0  0  0  0  0  0  0  0  0  0  0  0
   65.1846   31.4038   50.1079 H   0  0  0  0  0  0  0  0  0  0  0  0
   63.3842   34.9127   46.6609 H   0  0  0  0  0  0  0  0  0  0  0  0
   64.1878   33.3841   46.1666 H   0  0  0  0  0  0  0  0  0  0  0  0
   62.3950   33.4971   46.1666 H   0  0  0  0  0  0  0  0  0  0  0  0
   59.9097   35.8759   46.8041 H   0  0  0  0  0  0  0  0  0  0  0  0
   60.9849   34.7912   45.7998 H   0  0  0  0  0  0  0  0  0  0  0  0
   58.0438   35.1552   45.7308 H   0  0  0  0  0  0  0  0  0  0  0  0
   59.2123   34.5742   44.4654 H   0  0  0  0  0  0  0  0  0  0  0  0
   58.7700   33.5876   43.0837 H   0  0  0  0  0  0  0  0  0  0  0  0
   58.4205   33.3010   40.8069 H   0  0  0  0  0  0  0  0  0  0  0  0
   58.3741   31.5731   40.3179 H   0  0  0  0  0  0  0  0  0  0  0  0
   56.8650   32.5474   40.3179 H   0  0  0  0  0  0  0  0  0  0  0  0
  1  2  1  0
  2  3  2  0
  3  4  1  0
  4  5  1  0
  5  6  1  0
  6  7  1  0
  7  8  1  0
  8  9  1  0
  9 10  1  0
 10 11  2  0
 11 12  1  0
 12 13  2  0
 13 14  1  0
 14 15  2  0
 15 16  1  0
  8 17  1  0
 17 18  1  0
  4 19  2  0
 19 20  1  0
 20 21  1  0
 20 22  2  0
 22  2  1  0
 18  5  1  0
 15 10  1  0
  1 23  1  0
  1 24  1  0
  1 25  1  0
  3 26  1  0
  6 27  1  0
  6 28  1  0
  7 29  1  0
  7 30  1  0
  9 31  1  0
  9 32  1  0
 11 33  1  0
 12 34  1  0
 13 35  1  0
 16 36  1  0
 16 37  1  0
 16 38  1  0
 17 39  1  0
 17 40  1  0
 18 41  1  0
 18 42  1  0
 19 43  1  0
 21 44  1  0
 21 45  1  0
 21 46  1  0
M  END
>  <UniqueID>  (19) 
19

>  <SMILES>  (19) 
Cc1cc(N2CCN(Cc3cccnc3C)CC2)cc(C)n1

>  <Energy>  (19) 
55.60612458724841

>  <Genealogy>  (19) 
Cc1cc(N2CCN(Cc3cccnc3C)CC2)cc(C)n1 (3D coordinates assigned)
Cc1cc(N2CCN(Cc3cccnc3C)CC2)cc(C)n1 (nonaromatic ring conformer: 55.60612458724841 kcal/mol)

>  <smiles>  (19) 
Cc1cc(N2CCN(Cc3cccnc3C)CC2)cc(C)n1

>  <score_type>  (19) 
oracle

>  <origin>  (19) 
adg

>  <m_score__min__energy>  (19) 
-7.4800000000000004

>  <m_primary>  (19) 
energy

$$$$
19:0
     RDKit          3D

 71 73  0  0  0  0  0  0  0  0999 V2000
   63.3970   33.9050   46.2600 C   0  0  0  0  0  0  0  0  0  0  0  0
   63.4900   32.6050   47.0600 C   0  0  0  0  0  0  0  0  0  0  0  0
   62.9670   32.7570   48.4400 N   0  0  0  0  0  0  0  0  0  0  0  0
   63.9640   33.3750   49.3420 C   0  0  0  0  0  0  0  0  0  0  0  0
   65.0020   32.3460   49.7800 C   0  0  0  0  0  0  0  0  0  0  0  0
   62.3690   31.5220   49.0160 C   0  0  0  0  0  0  0  0  0  0  0  0
   61.1110   31.7420   49.8810 C   0  0  0  0  0  0  0  0  0  0  0  0
   60.9130   33.1220   50.1250 O   0  0  0  0  0  0  0  0  0  0  0  0
   59.5560   33.4840   49.9410 C   0  0  0  0  0  0  0  0  0  0  0  0
   59.3490   34.3970   48.7200 C   0  0  0  0  0  0  0  0  0  0  0  0
   60.5790   34.4980   47.9200 N   0  0  0  0  0  0  0  0  0  0  0  0
   60.2870   34.5360   46.4780 C   0  0  0  0  0  0  0  0  0  0  0  0
   59.2110   33.5440   46.0960 C   0  0  0  0  0  0  0  0  0  0  0  0
   57.9830   33.9930   45.5940 C   0  0  0  0  0  0  0  0  0  0  0  0
   57.0230   33.0630   45.1950 C   0  0  0  0  0  0  0  0  0  0  0  0
   57.2860   31.7330   45.2780 N   0  0  0  0  0  0  0  0  0  0  0  0
   58.4720   31.2540   45.7500 C   0  0  0  0  0  0  0  0  0  0  0  0
   58.6960   29.7850   45.7980 C   0  0  0  0  0  0  0  0  0  0  0  0
   58.9640   29.1580   47.0280 C   0  0  0  0  0  0  0  0  0  0  0  0
   59.1700   27.7760   47.0940 C   0  0  0  0  0  0  0  0  0  0  0  0
   59.1180   26.9960   45.9300 C   0  0  0  0  0  0  0  0  0  0  0  0
   59.3130   25.5060   46.0040 C   0  0  0  0  0  0  0  0  0  0  0  0
   58.1050   24.8730   46.5440 N   0  0  0  0  0  0  0  0  0  0  0  0
   57.0050   24.9660   45.5780 C   0  0  0  0  0  0  0  0  0  0  0  0
   56.9950   23.7470   44.6950 C   0  0  0  0  0  0  0  0  0  0  0  0
   57.8340   22.6570   44.9820 C   0  0  0  0  0  0  0  0  0  0  0  0
   57.8490   21.5400   44.1390 C   0  0  0  0  0  0  0  0  0  0  0  0
   57.0390   21.5090   43.0020 C   0  0  0  0  0  0  0  0  0  0  0  0
   56.2130   22.5970   42.7030 C   0  0  0  0  0  0  0  0  0  0  0  0
   56.1930   23.7160   43.5430 C   0  0  0  0  0  0  0  0  0  0  0  0
   58.8220   27.6090   44.7050 C   0  0  0  0  0  0  0  0  0  0  0  0
   58.6120   28.9890   44.6380 C   0  0  0  0  0  0  0  0  0  0  0  0
   59.4520   32.1660   46.1840 C   0  0  0  0  0  0  0  0  0  0  0  0
   63.3360   34.7578   46.9521 H   0  0  0  0  0  0  0  0  0  0  0  0
   64.2899   34.0102   45.6263 H   0  0  0  0  0  0  0  0  0  0  0  0
   62.4982   33.8820   45.6263 H   0  0  0  0  0  0  0  0  0  0  0  0
   62.9063   31.8288   46.5435 H   0  0  0  0  0  0  0  0  0  0  0  0
   64.5520   32.3272   47.1303 H   0  0  0  0  0  0  0  0  0  0  0  0
   64.4698   34.1964   48.8133 H   0  0  0  0  0  0  0  0  0  0  0  0
   63.4463   33.7584   50.2336 H   0  0  0  0  0  0  0  0  0  0  0  0
   65.0400   32.3083   50.8787 H   0  0  0  0  0  0  0  0  0  0  0  0
   64.7248   31.3561   49.3885 H   0  0  0  0  0  0  0  0  0  0  0  0
   65.9895   32.6318   49.3885 H   0  0  0  0  0  0  0  0  0  0  0  0
   62.0974   30.8557   48.1840 H   0  0  0  0  0  0  0  0  0  0  0  0
   63.1306   31.0992   49.6877 H   0  0  0  0  0  0  0  0  0  0  0  0
   60.2340   31.3380   49.3540 H   0  0  0  0  0  0  0  0  0  0  0  0
   61.2458   31.2261   50.8431 H   0  0  0  0  0  0  0  0  0  0  0  0
   58.9627   32.5683   49.8012 H   0  0  0  0  0  0  0  0  0  0  0  0
   59.2355   34.0420   50.8332 H   0  0  0  0  0  0  0  0  0  0  0  0
   58.5458   33.9822   48.0933 H   0  0  0  0  0  0  0  0  0  0  0  0
   59.0807   35.4023   49.0769 H   0  0  0  0  0  0  0  0  0  0  0  0
   61.1880   33.6720   48.1120 H   0  0  0  0  0  0  0  0  0  0  0  0
   59.9496   35.5480   46.2097 H   0  0  0  0  0  0  0  0  0  0  0  0
   61.2062   34.2687   45.9361 H   0  0  0  0  0  0  0  0  0  0  0  0
   57.7772   35.0707   45.5150 H   0  0  0  0  0  0  0  0  0  0  0  0
   56.0509   33.4074   44.8123 H   0  0  0  0  0  0  0  0  0  0  0  0
   59.0121   29.7603   47.9472 H   0  0  0  0  0  0  0  0  0  0  0  0
   59.3738   27.2988   48.0639 H   0  0  0  0  0  0  0  0  0  0  0  0
   59.5116   25.1132   44.9959 H   0  0  0  0  0  0  0  0  0  0  0  0
   60.1652   25.2835   46.6630 H   0  0  0  0  0  0  0  0  0  0  0  0
   57.8220   25.4040   47.4020 H   0  0  0  0  0  0  0  0  0  0  0  0
   56.0493   25.0328   46.1186 H   0  0  0  0  0  0  0  0  0  0  0  0
   57.1436   25.8628   44.9562 H   0  0  0  0  0  0  0  0  0  0  0  0
   58.4806   22.6817   45.8715 H   0  0  0  0  0  0  0  0  0  0  0  0
   58.5002   20.6848   44.3725 H   0  0  0  0  0  0  0  0  0  0  0  0
   57.0507   20.6292   42.3419 H   0  0  0  0  0  0  0  0  0  0  0  0
   55.5775   22.5732   41.8054 H   0  0  0  0  0  0  0  0  0  0  0  0
   55.5476   24.5731   43.3003 H   0  0  0  0  0  0  0  0  0  0  0  0
   58.7546   27.0005   43.7911 H   0  0  0  0  0  0  0  0  0  0  0  0
   58.3790   29.4583   43.6708 H   0  0  0  0  0  0  0  0  0  0  0  0
   60.4052   31.7982   46.5915 H   0  0  0  0  0  0  0  0  0  0  0  0
  1  2  1  0
  2  3  1  0
  3  4  1  0
  4  5  1  0
  3  6  1  0
  6  7  1  0
  7  8  1  0
  8  9  1  0
  9 10  1  0
 10 11  1  0
 11 12  1  0
 12 13  1  0
 13 14  2  0
 14 15  1  0
 15 16  2  0
 16 17  1  0
 17 18  1  0
 18 19  2  0
 19 20  1  0
 20 21  2  0
 21 22  1  0
 22 23  1  0
 23 24  1  0
 24 25  1  0
 25 26  2  0
 26 27  1  0
 27 28  2  0
 28 29  1  0
 29 30  2  0
 21 31  1  0
 31 32  2  0
 17 33  2  0
 33 13  1  0
 32 18  1  0
 30 25  1  0
  1 34  1  0
  1 35  1  0
  1 36  1  0
  2 37  1  0
  2 38  1  0
  4 39  1  0
  4 40  1  0
  5 41  1  0
  5 42  1  0
  5 43  1  0
  6 44  1  0
  6 45  1  0
  7 46  1  0
  7 47  1  0
  9 48  1  0
  9 49  1  0
 10 50  1  0
 10 51  1  0
 11 52  1  0
 12 53  1  0
 12 54  1  0
 14 55  1  0
 15 56  1  0
 19 57  1  0
 20 58  1  0
 22 59  1  0
 22 60  1  0
 23 61  1  0
 24 62  1  0
 24 63  1  0
 26 64  1  0
 27 65  1  0
 28 66  1  0
 29 67  1  0
 30 68  1  0
 31 69  1  0
 32 70  1  0
 33 71  1  0
M  END
>  <UniqueID>  (20) 
20

>  <SMILES>  (20) 
CCN(CC)CCOCCNCc1ccnc(-c2ccc(CNCc3ccccc3)cc2)c1

>  <Energy>  (20) 
73.92816141884846

>  <Genealogy>  (20) 
CCN(CC)CCOCCNCc1ccnc(-c2ccc(CNCc3ccccc3)cc2)c1 (3D coordinates assigned)
CCN(CC)CCOCCNCc1ccnc(-c2ccc(CNCc3ccccc3)cc2)c1 (optimized conformer: 73.92816141884846 kcal/mol)

>  <smiles>  (20) 
CCN(CC)CCOCCNCc1ccnc(-c2ccc(CNCc3ccccc3)cc2)c1

>  <score_type>  (20) 
oracle

>  <origin>  (20) 
adg

>  <m_score__min__energy>  (20) 
-8.5199999999999996

>  <m_primary>  (20) 
energy

$$$$
20:0
     RDKit          3D

 62 65  0  0  0  0  0  0  0  0999 V2000
   59.1750   32.2610   50.8200 C   0  0  0  0  0  0  0  0  0  0  0  0
   58.5310   31.1230   50.0130 C   0  0  0  0  0  0  0  0  0  0  0  0
   59.4500   30.0050   49.6690 N   0  0  0  0  0  0  0  0  0  0  0  0
   59.7900   29.2030   50.8770 C   0  0  0  0  0  0  0  0  0  0  0  0
   61.2300   28.6680   50.8460 C   0  0  0  0  0  0  0  0  0  0  0  0
   58.9340   29.1260   48.5830 C   0  0  0  0  0  0  0  0  0  0  0  0
   60.0320   28.5250   47.6770 C   0  0  0  0  0  0  0  0  0  0  0  0
   60.5190   29.5000   46.6970 N   0  0  0  0  0  0  0  0  0  0  0  0
   59.6940   30.5890   46.2600 C   0  0  0  0  0  0  0  0  0  0  0  0
   58.6440   30.3920   45.3330 C   0  0  0  0  0  0  0  0  0  0  0  0
   58.4360   29.1270   44.7460 C   0  0  0  0  0  0  0  0  0  0  0  0
   57.3680   28.9120   43.8780 C   0  0  0  0  0  0  0  0  0  0  0  0
   56.4880   29.9470   43.5810 C   0  0  0  0  0  0  0  0  0  0  0  0
   56.6790   31.2170   44.1320 C   0  0  0  0  0  0  0  0  0  0  0  0
   57.7680   31.4810   44.9990 C   0  0  0  0  0  0  0  0  0  0  0  0
   57.9850   32.7450   45.5290 N   0  0  0  0  0  0  0  0  0  0  0  0
   57.1410   33.8920   45.1470 C   0  0  0  0  0  0  0  0  0  0  0  0
   59.0030   32.9030   46.4390 C   0  0  0  0  0  0  0  0  0  0  0  0
   59.3340   34.0460   47.0950 N   0  0  0  0  0  0  0  0  0  0  0  0
   60.4140   33.7280   47.8360 C   0  0  0  0  0  0  0  0  0  0  0  0
   61.1360   34.5830   48.6610 C   0  0  0  0  0  0  0  0  0  0  0  0
   62.2620   34.0710   49.3280 C   0  0  0  0  0  0  0  0  0  0  0  0
   62.6620   32.7110   49.1690 C   0  0  0  0  0  0  0  0  0  0  0  0
   63.8250   32.1860   49.8730 N   0  0  0  0  0  0  0  0  0  0  0  0
   65.1500   32.7950   49.6960 C   0  0  0  0  0  0  0  0  0  0  0  0
   63.6920   31.0420   50.7860 C   0  0  0  0  0  0  0  0  0  0  0  0
   61.9000   31.8800   48.3060 C   0  0  0  0  0  0  0  0  0  0  0  0
   60.7730   32.4110   47.6710 C   0  0  0  0  0  0  0  0  0  0  0  0
   59.8520   31.8690   46.7850 C   0  0  0  0  0  0  0  0  0  0  0  0
   59.0604   32.0585   51.8951 H   0  0  0  0  0  0  0  0  0  0  0  0
   60.2445   32.3272   50.5713 H   0  0  0  0  0  0  0  0  0  0  0  0
   58.6811   33.2119   50.5713 H   0  0  0  0  0  0  0  0  0  0  0  0
   57.6990   30.7126   50.6040 H   0  0  0  0  0  0  0  0  0  0  0  0
   58.2088   31.5641   49.0582 H   0  0  0  0  0  0  0  0  0  0  0  0
   60.3320   30.4590   49.3340 H   0  0  0  0  0  0  0  0  0  0  0  0
   59.6694   29.8383   51.7669 H   0  0  0  0  0  0  0  0  0  0  0  0
   59.1134   28.3361   50.9022 H   0  0  0  0  0  0  0  0  0  0  0  0
   61.5933   28.5330   51.8755 H   0  0  0  0  0  0  0  0  0  0  0  0
   61.2510   27.7021   50.3202 H   0  0  0  0  0  0  0  0  0  0  0  0
   61.8766   29.3859   50.3202 H   0  0  0  0  0  0  0  0  0  0  0  0
   58.3770   28.2977   49.0453 H   0  0  0  0  0  0  0  0  0  0  0  0
   58.3041   29.7571   47.9389 H   0  0  0  0  0  0  0  0  0  0  0  0
   60.8743   28.1998   48.3053 H   0  0  0  0  0  0  0  0  0  0  0  0
   59.5981   27.6754   47.1294 H   0  0  0  0  0  0  0  0  0  0  0  0
   61.4330   29.3430   46.2180 H   0  0  0  0  0  0  0  0  0  0  0  0
   59.1248   28.3007   44.9761 H   0  0  0  0  0  0  0  0  0  0  0  0
   57.2202   27.9201   43.4259 H   0  0  0  0  0  0  0  0  0  0  0  0
   55.6367   29.7650   42.9085 H   0  0  0  0  0  0  0  0  0  0  0  0
   55.9727   32.0244   43.8887 H   0  0  0  0  0  0  0  0  0  0  0  0
   56.7719   34.3937   46.0537 H   0  0  0  0  0  0  0  0  0  0  0  0
   57.7341   34.6013   44.5512 H   0  0  0  0  0  0  0  0  0  0  0  0
   56.2873   33.5367   44.5512 H   0  0  0  0  0  0  0  0  0  0  0  0
   58.8670   34.9800   47.0780 H   0  0  0  0  0  0  0  0  0  0  0  0
   60.8337   35.6330   48.7883 H   0  0  0  0  0  0  0  0  0  0  0  0
   62.8462   34.7317   49.9854 H   0  0  0  0  0  0  0  0  0  0  0  0
   65.5943   32.9992   50.6814 H   0  0  0  0  0  0  0  0  0  0  0  0
   65.7990   32.1048   49.1370 H   0  0  0  0  0  0  0  0  0  0  0  0
   65.0489   33.7370   49.1370 H   0  0  0  0  0  0  0  0  0  0  0  0
   63.7332   31.3965   51.8265 H   0  0  0  0  0  0  0  0  0  0  0  0
   62.7295   30.5403   50.6074 H   0  0  0  0  0  0  0  0  0  0  0  0
   64.5138   30.3329   50.6074 H   0  0  0  0  0  0  0  0  0  0  0  0
   62.1922   30.8327   48.1392 H   0  0  0  0  0  0  0  0  0  0  0  0
  1  2  1  0
  2  3  1  0
  3  4  1  0
  4  5  1  0
  3  6  1  0
  6  7  1  0
  7  8  1  0
  8  9  1  0
  9 10  2  0
 10 11  1  0
 11 12  2  0
 12 13  1  0
 13 14  2  0
 14 15  1  0
 15 16  2  0
 16 17  1  0
 16 18  1  0
 18 19  1  0
 19 20  1  0
 20 21  2  0
 21 22  1  0
 22 23  2  0
 23 24  1  0
 24 25  1  0
 24 26  1  0
 23 27  1  0
 27 28  2  0
 28 29  1  0
 29  9  1  0
 15 10  1  0
 29 18  2  0
 28 20  1  0
  1 30  1  0
  1 31  1  0
  1 32  1  0
  2 33  1  0
  2 34  1  0
  3 35  1  0
  4 36  1  0
  4 37  1  0
  5 38  1  0
  5 39  1  0
  5 40  1  0
  6 41  1  0
  6 42  1  0
  7 43  1  0
  7 44  1  0
  8 45  1  0
 11 46  1  0
 12 47  1  0
 13 48  1  0
 14 49  1  0
 17 50  1  0
 17 51  1  0
 17 52  1  0
 19 53  1  0
 21 54  1  0
 22 55  1  0
 25 56  1  0
 25 57  1  0
 25 58  1  0
 26 59  1  0
 26 60  1  0
 26 61  1  0
 27 62  1  0
M  CHG  2   3   1  16   1
M  END
>  <UniqueID>  (21) 
21

>  <SMILES>  (21) 
CC[NH+](CC)CCNc1c2ccccc2[n+](C)c2[nH]c3ccc(N(C)C)cc3c12

>  <Energy>  (21) 
125.5181609244041

>  <Genealogy>  (21) 
CC[NH+](CC)CCNc1c2ccccc2[n+](C)c2[nH]c3ccc(N(C)C)cc3c12 (protonated)
CC[NH+](CC)CCNc1c2ccccc2[n+](C)c2[nH]c3ccc(N(C)C)cc3c12 (3D coordinates assigned)
CC[NH+](CC)CCNc1c2ccccc2[n+](C)c2[nH]c3ccc(N(C)C)cc3c12 (optimized conformer: 125.5181609244041 kcal/mol)

>  <smiles>  (21) 
CCN(CC)CCNc1c2ccccc2[n+](C)c2[nH]c3ccc(N(C)C)cc3c12

>  <score_type>  (21) 
oracle

>  <origin>  (21) 
adg

>  <m_score__min__energy>  (21) 
-4.8399999999999999

>  <m_primary>  (21) 
energy

$$$$
21:0
     RDKit          3D

 39 41  0  0  0  0  0  0  0  0999 V2000
   59.2210   28.3170   47.8850 C   0  0  0  0  0  0  0  0  0  0  0  0
   59.4290   29.4850   47.0090 N   0  0  0  0  0  0  0  0  0  0  0  0
   60.7710   30.0750   47.1900 C   0  0  0  0  0  0  0  0  0  0  0  0
   60.6590   31.4930   47.6810 C   0  0  0  0  0  0  0  0  0  0  0  0
   59.7140   31.8380   48.6630 C   0  0  0  0  0  0  0  0  0  0  0  0
   59.6020   33.1630   49.0980 C   0  0  0  0  0  0  0  0  0  0  0  0
   60.4270   34.1510   48.5510 C   0  0  0  0  0  0  0  0  0  0  0  0
   61.3630   33.8170   47.5690 C   0  0  0  0  0  0  0  0  0  0  0  0
   61.4780   32.4930   47.1320 C   0  0  0  0  0  0  0  0  0  0  0  0
   59.1290   29.1770   45.5910 C   0  0  0  0  0  0  0  0  0  0  0  0
   57.6870   29.4240   45.2100 C   0  0  0  0  0  0  0  0  0  0  0  0
   56.6980   28.4690   45.0870 C   0  0  0  0  0  0  0  0  0  0  0  0
   55.5160   29.0780   44.8750 N   0  0  0  0  0  0  0  0  0  0  0  0
   55.7100   30.3880   44.8560 N   0  0  0  0  0  0  0  0  0  0  0  0
   57.0210   30.6280   45.0480 C   0  0  0  0  0  0  0  0  0  0  0  0
   57.5920   31.9850   45.1130 C   0  0  0  0  0  0  0  0  0  0  0  0
   57.3910   32.7630   46.2640 C   0  0  0  0  0  0  0  0  0  0  0  0
   57.9320   34.0500   46.3460 C   0  0  0  0  0  0  0  0  0  0  0  0
   58.6620   34.5720   45.2750 C   0  0  0  0  0  0  0  0  0  0  0  0
   58.8450   33.8130   44.1160 C   0  0  0  0  0  0  0  0  0  0  0  0
   58.3070   32.5240   44.0280 C   0  0  0  0  0  0  0  0  0  0  0  0
   58.4440   31.8270   42.8730 F   0  0  0  0  0  0  0  0  0  0  0  0
   59.2773   28.6331   48.9371 H   0  0  0  0  0  0  0  0  0  0  0  0
   58.2310   27.8808   47.6856 H   0  0  0  0  0  0  0  0  0  0  0  0
   59.9995   27.5659   47.6856 H   0  0  0  0  0  0  0  0  0  0  0  0
   61.3322   29.4801   47.9256 H   0  0  0  0  0  0  0  0  0  0  0  0
   61.2951   30.0727   46.2229 H   0  0  0  0  0  0  0  0  0  0  0  0
   59.0604   31.0635   49.0908 H   0  0  0  0  0  0  0  0  0  0  0  0
   58.8649   33.4277   49.8704 H   0  0  0  0  0  0  0  0  0  0  0  0
   60.3388   35.1923   48.8943 H   0  0  0  0  0  0  0  0  0  0  0  0
   62.0101   34.5958   47.1391 H   0  0  0  0  0  0  0  0  0  0  0  0
   62.2128   32.2343   46.3554 H   0  0  0  0  0  0  0  0  0  0  0  0
   59.7693   29.8063   44.9554 H   0  0  0  0  0  0  0  0  0  0  0  0
   59.3216   28.1037   45.4463 H   0  0  0  0  0  0  0  0  0  0  0  0
   56.8513   27.3817   45.1519 H   0  0  0  0  0  0  0  0  0  0  0  0
   56.8064   32.3592   47.1037 H   0  0  0  0  0  0  0  0  0  0  0  0
   57.7827   34.6519   47.2545 H   0  0  0  0  0  0  0  0  0  0  0  0
   59.0932   35.5816   45.3443 H   0  0  0  0  0  0  0  0  0  0  0  0
   59.4131   34.2295   43.2711 H   0  0  0  0  0  0  0  0  0  0  0  0
  1  2  1  0
  2  3  1  0
  3  4  1  0
  4  5  2  0
  5  6  1  0
  6  7  2  0
  7  8  1  0
  8  9  2  0
  2 10  1  0
 10 11  1  0
 11 12  2  0
 12 13  1  0
 13 14  1  0
 14 15  2  0
 15 16  1  0
 16 17  2  0
 17 18  1  0
 18 19  2  0
 19 20  1  0
 20 21  2  0
 21 22  1  0
  9  4  1  0
 15 11  1  0
 21 16  1  0
  1 23  1  0
  1 24  1  0
  1 25  1  0
  3 26  1  0
  3 27  1  0
  5 28  1  0
  6 29  1  0
  7 30  1  0
  8 31  1  0
  9 32  1  0
 10 33  1  0
 10 34  1  0
 12 35  1  0
 17 36  1  0
 18 37  1  0
 19 38  1  0
 20 39  1  0
M  CHG  1  13  -1
M  END
>  <UniqueID>  (22) 
22

>  <SMILES>  (22) 
CN(Cc1ccccc1)Cc1c[n-]nc1-c1ccccc1F

>  <Energy>  (22) 
78.66994207592418

>  <Genealogy>  (22) 
CN(Cc1ccccc1)Cc1c[n-]nc1-c1ccccc1F (protonated)
CN(Cc1ccccc1)Cc1c[n-]nc1-c1ccccc1F (3D coordinates assigned)
CN(Cc1ccccc1)Cc1c[n-]nc1-c1ccccc1F (optimized conformer: 78.66994207592418 kcal/mol)

>  <smiles>  (22) 
CN(Cc1ccccc1)Cc1c[nH]nc1-c1ccccc1F

>  <score_type>  (22) 
oracle

>  <origin>  (22) 
adg

>  <m_score__min__energy>  (22) 
-10.300000000000001

>  <m_primary>  (22) 
energy

$$$$
22:0
     RDKit          3D

 83 87  0  0  0  0  0  0  0  0999 V2000
   54.7250   30.4740   52.0160 C   0  0  0  0  0  0  0  0  0  0  0  0
   56.1560   31.0150   52.1490 C   0  0  0  0  0  0  0  0  0  0  0  0
   57.1930   30.1050   51.6140 N   0  0  0  0  0  0  0  0  0  0  0  0
   57.8780   29.3430   52.6760 C   0  0  0  0  0  0  0  0  0  0  0  0
   58.1440   30.7750   50.6980 C   0  0  0  0  0  0  0  0  0  0  0  0
   58.9170   31.8530   51.4490 C   0  0  0  0  0  0  0  0  0  0  0  0
   60.1090   32.1640   50.7500 O   0  0  0  0  0  0  0  0  0  0  0  0
   60.1330   33.5200   50.3600 C   0  0  0  0  0  0  0  0  0  0  0  0
   60.4470   33.6260   48.8550 C   0  0  0  0  0  0  0  0  0  0  0  0
   60.8930   32.3720   48.1890 N   0  0  0  0  0  0  0  0  0  0  0  0
   59.8980   31.6980   47.3640 C   0  0  0  0  0  0  0  0  0  0  0  0
   59.1490   32.4420   46.4100 C   0  0  0  0  0  0  0  0  0  0  0  0
   59.2370   33.8550   46.3390 C   0  0  0  0  0  0  0  0  0  0  0  0
   58.5090   34.5770   45.3990 C   0  0  0  0  0  0  0  0  0  0  0  0
   57.6910   33.9160   44.4970 C   0  0  0  0  0  0  0  0  0  0  0  0
   57.5740   32.5310   44.5470 C   0  0  0  0  0  0  0  0  0  0  0  0
   58.2710   31.7670   45.5180 C   0  0  0  0  0  0  0  0  0  0  0  0
   58.1340   30.3980   45.5830 N   0  0  0  0  0  0  0  0  0  0  0  0
   57.0400   29.7280   44.8410 C   0  0  0  0  0  0  0  0  0  0  0  0
   58.9820   29.6520   46.3720 C   0  0  0  0  0  0  0  0  0  0  0  0
   59.1180   28.2590   46.1740 C   0  0  0  0  0  0  0  0  0  0  0  0
   59.9160   27.4900   47.0080 C   0  0  0  0  0  0  0  0  0  0  0  0
   60.5280   28.0660   48.1080 C   0  0  0  0  0  0  0  0  0  0  0  0
   60.3930   29.4420   48.3650 C   0  0  0  0  0  0  0  0  0  0  0  0
   60.8190   29.9780   49.5960 O   0  0  0  0  0  0  0  0  0  0  0  0
   61.3090   29.2410   50.7200 C   0  0  0  0  0  0  0  0  0  0  0  0
   61.8090   30.1390   51.8790 C   0  0  0  0  0  0  0  0  0  0  0  0
   62.9400   31.0490   51.5510 N   0  0  2  0  0  0  0  0  0  0  0  0
   64.2780   30.4250   51.7500 C   0  0  0  0  0  0  0  0  0  0  0  0
   65.2140   31.3090   50.8930 C   0  0  0  0  0  0  0  0  0  0  0  0
   64.2840   32.3130   50.3190 N   0  0  2  0  0  0  0  0  0  0  0  0
   64.7420   33.0290   49.1070 C   0  0  0  0  0  0  0  0  0  0  0  0
   63.7280   33.0320   47.9990 C   0  0  0  0  0  0  0  0  0  0  0  0
   63.2980   34.1190   47.5290 O   0  0  0  0  0  0  0  0  0  0  0  0
   63.2190   31.8320   47.5210 O   0  0  0  0  0  0  0  0  0  0  0  0
   63.8680   33.2250   51.4160 C   0  0  0  0  0  0  0  0  0  0  0  0
   62.9420   32.3400   52.2810 C   0  0  0  0  0  0  0  0  0  0  0  0
   63.0760   31.5110   50.1760 C   0  0  0  0  0  0  0  0  0  0  0  0
   59.7600   30.2750   47.3900 C   0  0  0  0  0  0  0  0  0  0  0  0
   54.2993   30.3131   53.0174 H   0  0  0  0  0  0  0  0  0  0  0  0
   54.1077   31.2008   51.4676 H   0  0  0  0  0  0  0  0  0  0  0  0
   54.7429   29.5206   51.4676 H   0  0  0  0  0  0  0  0  0  0  0  0
   56.2177   31.9688   51.6044 H   0  0  0  0  0  0  0  0  0  0  0  0
   56.3555   31.1293   53.2247 H   0  0  0  0  0  0  0  0  0  0  0  0
   57.5492   29.7087   53.6600 H   0  0  0  0  0  0  0  0  0  0  0  0
   57.6297   28.2757   52.5798 H   0  0  0  0  0  0  0  0  0  0  0  0
   58.9656   29.4766   52.5798 H   0  0  0  0  0  0  0  0  0  0  0  0
   58.8497   30.0321   50.2980 H   0  0  0  0  0  0  0  0  0  0  0  0
   57.5848   31.2395   49.8724 H   0  0  0  0  0  0  0  0  0  0  0  0
   58.2958   32.7570   51.5318 H   0  0  0  0  0  0  0  0  0  0  0  0
   59.1710   31.4843   52.4538 H   0  0  0  0  0  0  0  0  0  0  0  0
   59.1519   33.9750   50.5611 H   0  0  0  0  0  0  0  0  0  0  0  0
   60.9110   34.0479   50.9309 H   0  0  0  0  0  0  0  0  0  0  0  0
   59.5356   33.9714   48.3451 H   0  0  0  0  0  0  0  0  0  0  0  0
   61.2975   34.3194   48.7789 H   0  0  0  0  0  0  0  0  0  0  0  0
   61.3060   31.7180   48.8890 H   0  0  0  0  0  0  0  0  0  0  0  0
   61.7380   32.5780   47.6120 H   0  0  0  0  0  0  0  0  0  0  0  0
   59.8934   34.3907   47.0405 H   0  0  0  0  0  0  0  0  0  0  0  0
   58.5828   35.6742   45.3717 H   0  0  0  0  0  0  0  0  0  0  0  0
   57.1334   34.4874   43.7403 H   0  0  0  0  0  0  0  0  0  0  0  0
   56.9282   32.0179   43.8192 H   0  0  0  0  0  0  0  0  0  0  0  0
   56.3265   29.2910   45.5552 H   0  0  0  0  0  0  0  0  0  0  0  0
   56.5217   30.4637   44.2085 H   0  0  0  0  0  0  0  0  0  0  0  0
   57.4598   28.9319   44.2085 H   0  0  0  0  0  0  0  0  0  0  0  0
   58.5815   27.7764   45.3438 H   0  0  0  0  0  0  0  0  0  0  0  0
   60.0628   26.4208   46.7950 H   0  0  0  0  0  0  0  0  0  0  0  0
   61.1259   27.4412   48.7878 H   0  0  0  0  0  0  0  0  0  0  0  0
   60.4965   28.6038   51.0992 H   0  0  0  0  0  0  0  0  0  0  0  0
   62.1716   28.6546   50.3706 H   0  0  0  0  0  0  0  0  0  0  0  0
   60.9641   30.7581   52.2150 H   0  0  0  0  0  0  0  0  0  0  0  0
   62.1921   29.4506   52.6467 H   0  0  0  0  0  0  0  0  0  0  0  0
   64.2842   29.3841   51.3942 H   0  0  0  0  0  0  0  0  0  0  0  0
   64.5784   30.3788   52.8072 H   0  0  0  0  0  0  0  0  0  0  0  0
   65.6994   30.7201   50.1008 H   0  0  0  0  0  0  0  0  0  0  0  0
   66.0372   31.7572   51.4687 H   0  0  0  0  0  0  0  0  0  0  0  0
   64.9635   34.0713   49.3802 H   0  0  0  0  0  0  0  0  0  0  0  0
   65.6311   32.5001   48.7331 H   0  0  0  0  0  0  0  0  0  0  0  0
   63.3243   34.0954   51.0202 H   0  0  0  0  0  0  0  0  0  0  0  0
   64.7182   33.6378   51.9788 H   0  0  0  0  0  0  0  0  0  0  0  0
   61.9287   32.7643   52.3373 H   0  0  0  0  0  0  0  0  0  0  0  0
   63.2791   32.2485   53.3241 H   0  0  0  0  0  0  0  0  0  0  0  0
   62.2147   32.1169   49.8581 H   0  0  0  0  0  0  0  0  0  0  0  0
   63.1238   30.7183   49.4149 H   0  0  0  0  0  0  0  0  0  0  0  0
  1  2  1  0
  2  3  1  0
  3  4  1  0
  3  5  1  0
  5  6  1  0
  6  7  1  0
  7  8  1  0
  8  9  1  0
  9 10  1  0
 10 11  1  0
 11 12  2  0
 12 13  1  0
 13 14  2  0
 14 15  1  0
 15 16  2  0
 16 17  1  0
 17 18  2  0
 18 19  1  0
 18 20  1  0
 20 21  2  0
 21 22  1  0
 22 23  2  0
 23 24  1  0
 24 25  1  0
 25 26  1  0
 26 27  1  0
 28 27  1  6
 28 29  1  0
 29 30  1  0
 30 31  1  0
 31 32  1  6
 32 33  1  0
 33 34  2  0
 33 35  1  0
 31 36  1  0
 36 37  1  0
 31 38  1  0
 24 39  2  0
 39 11  1  0
 17 12  1  0
 39 20  1  0
 37 28  1  0
 38 28  1  0
  1 40  1  0
  1 41  1  0
  1 42  1  0
  2 43  1  0
  2 44  1  0
  4 45  1  0
  4 46  1  0
  4 47  1  0
  5 48  1  0
  5 49  1  0
  6 50  1  0
  6 51  1  0
  8 52  1  0
  8 53  1  0
  9 54  1  0
  9 55  1  0
 10 56  1  0
 10 57  1  0
 13 58  1  0
 14 59  1  0
 15 60  1  0
 16 61  1  0
 19 62  1  0
 19 63  1  0
 19 64  1  0
 21 65  1  0
 22 66  1  0
 23 67  1  0
 26 68  1  0
 26 69  1  0
 27 70  1  0
 27 71  1  0
 29 72  1  0
 29 73  1  0
 30 74  1  0
 30 75  1  0
 32 76  1  0
 32 77  1  0
 36 78  1  0
 36 79  1  0
 37 80  1  0
 37 81  1  0
 38 82  1  0
 38 83  1  0
M  CHG  5  10   1  18   1  28   1  31   1  35  -1
M  END
>  <UniqueID>  (23) 
23

>  <SMILES>  (23) 
CCN(C)CCOCC[NH2+]c1c2ccccc2[n+](C)c2cccc(OCC[N+]34CC[N+](CC(=O)[O-])(CC3)C4)c12

>  <Energy>  (23) 
176.0257234950302

>  <Genealogy>  (23) 
CCN(C)CCOCC[NH2+]c1c2ccccc2[n+](C)c2cccc(OCC[N+]34CC[N+](CC(=O)[O-])(CC3)C4)c12 (protonated)
CCN(C)CCOCC[NH2+]c1c2ccccc2[n+](C)c2cccc(OCC[N+]34CC[N+](CC(=O)[O-])(CC3)C4)c12 (3D coordinates assigned)
CCN(C)CCOCC[NH2+]c1c2ccccc2[n+](C)c2cccc(OCC[N+]34CC[N+](CC(=O)[O-])(CC3)C4)c12 (nonaromatic ring conformer: 176.0257234950302 kcal/mol)

>  <smiles>  (23) 
CCN(C)CCOCCNc1c2ccccc2[n+](C)c2cccc(OCC[N+]34CC[N+](CC(=O)O)(CC3)C4)c12

>  <score_type>  (23) 
oracle

>  <origin>  (23) 
adg

>  <m_score__min__energy>  (23) 
-5.5800000000000001

>  <m_primary>  (23) 
energy

$$$$
23:0
     RDKit          3D

 60 63  0  0  0  0  0  0  0  0999 V2000
   63.3920   33.7510   46.8890 C   0  0  0  0  0  0  0  0  0  0  0  0
   62.4940   32.5320   47.0810 C   0  0  0  0  0  0  0  0  0  0  0  0
   62.7800   31.8780   48.3770 N   0  0  0  0  0  0  0  0  0  0  0  0
   63.9790   32.4740   48.9920 C   0  0  0  0  0  0  0  0  0  0  0  0
   61.6190   31.9810   49.2940 C   0  0  0  0  0  0  0  0  0  0  0  0
   61.0910   30.5850   49.6850 C   0  0  0  0  0  0  0  0  0  0  0  0
   60.0750   30.0400   48.6550 C   0  0  0  0  0  0  0  0  0  0  0  0
   58.9470   30.9510   48.3430 N   0  0  0  0  0  0  0  0  0  0  0  0
   58.8780   31.3850   46.9600 C   0  0  0  0  0  0  0  0  0  0  0  0
   59.0560   32.7540   46.5980 C   0  0  0  0  0  0  0  0  0  0  0  0
   59.4070   33.7330   47.5560 C   0  0  0  0  0  0  0  0  0  0  0  0
   59.6260   35.0570   47.1860 C   0  0  0  0  0  0  0  0  0  0  0  0
   59.5130   35.4400   45.8570 C   0  0  0  0  0  0  0  0  0  0  0  0
   59.1530   34.5080   44.8880 C   0  0  0  0  0  0  0  0  0  0  0  0
   58.8870   33.1580   45.2300 C   0  0  0  0  0  0  0  0  0  0  0  0
   58.4830   32.2440   44.2730 N   0  0  0  0  0  0  0  0  0  0  0  0
   58.1410   32.6650   42.9000 C   0  0  0  0  0  0  0  0  0  0  0  0
   58.4200   30.9210   44.6180 C   0  0  0  0  0  0  0  0  0  0  0  0
   58.1870   29.8940   43.7670 N   0  0  0  0  0  0  0  0  0  0  0  0
   58.2280   28.7810   44.5220 C   0  0  0  0  0  0  0  0  0  0  0  0
   58.0690   27.4630   44.0700 C   0  0  0  0  0  0  0  0  0  0  0  0
   57.7810   27.1630   42.6270 C   0  0  0  0  0  0  0  0  0  0  0  0
   58.2090   26.4260   45.0100 C   0  0  0  0  0  0  0  0  0  0  0  0
   58.5190   26.7100   46.3580 C   0  0  0  0  0  0  0  0  0  0  0  0
   58.6740   25.5950   47.3510 C   0  0  0  0  0  0  0  0  0  0  0  0
   58.6530   28.0450   46.7850 C   0  0  0  0  0  0  0  0  0  0  0  0
   58.4930   29.0780   45.8460 C   0  0  0  0  0  0  0  0  0  0  0  0
   58.6130   30.4740   45.9150 C   0  0  0  0  0  0  0  0  0  0  0  0
   63.6851   34.1489   47.8717 H   0  0  0  0  0  0  0  0  0  0  0  0
   64.2922   33.4586   46.3284 H   0  0  0  0  0  0  0  0  0  0  0  0
   62.8459   34.5240   46.3284 H   0  0  0  0  0  0  0  0  0  0  0  0
   61.4414   32.8508   47.0607 H   0  0  0  0  0  0  0  0  0  0  0  0
   62.6883   31.8151   46.2697 H   0  0  0  0  0  0  0  0  0  0  0  0
   63.8897   32.4296   50.0875 H   0  0  0  0  0  0  0  0  0  0  0  0
   64.8710   31.9144   48.6738 H   0  0  0  0  0  0  0  0  0  0  0  0
   64.0714   33.5229   48.6738 H   0  0  0  0  0  0  0  0  0  0  0  0
   61.9272   32.5159   50.2044 H   0  0  0  0  0  0  0  0  0  0  0  0
   60.8147   32.5255   48.7777 H   0  0  0  0  0  0  0  0  0  0  0  0
   61.9405   29.8890   49.7482 H   0  0  0  0  0  0  0  0  0  0  0  0
   60.5773   30.6753   50.6535 H   0  0  0  0  0  0  0  0  0  0  0  0
   60.6154   29.8335   47.7194 H   0  0  0  0  0  0  0  0  0  0  0  0
   59.6285   29.1432   49.1093 H   0  0  0  0  0  0  0  0  0  0  0  0
   59.0090   31.7870   48.9650 H   0  0  0  0  0  0  0  0  0  0  0  0
   58.0420   30.5310   48.6380 H   0  0  0  0  0  0  0  0  0  0  0  0
   59.5088   33.4433   48.6123 H   0  0  0  0  0  0  0  0  0  0  0  0
   59.8897   35.8028   47.9504 H   0  0  0  0  0  0  0  0  0  0  0  0
   59.7085   36.4833   45.5685 H   0  0  0  0  0  0  0  0  0  0  0  0
   59.0734   34.8246   43.8376 H   0  0  0  0  0  0  0  0  0  0  0  0
   57.4479   33.5182   42.9400 H   0  0  0  0  0  0  0  0  0  0  0  0
   59.0573   32.9615   42.3685 H   0  0  0  0  0  0  0  0  0  0  0  0
   57.6630   31.8289   42.3685 H   0  0  0  0  0  0  0  0  0  0  0  0
   58.0570   29.9250   42.7330 H   0  0  0  0  0  0  0  0  0  0  0  0
   57.0205   26.3709   42.5619 H   0  0  0  0  0  0  0  0  0  0  0  0
   57.4078   28.0712   42.1311 H   0  0  0  0  0  0  0  0  0  0  0  0
   58.7037   26.8272   42.1311 H   0  0  0  0  0  0  0  0  0  0  0  0
   58.0754   25.3817   44.6913 H   0  0  0  0  0  0  0  0  0  0  0  0
   58.6174   26.0022   48.3713 H   0  0  0  0  0  0  0  0  0  0  0  0
   57.8695   24.8592   47.2047 H   0  0  0  0  0  0  0  0  0  0  0  0
   59.6487   25.1065   47.2047 H   0  0  0  0  0  0  0  0  0  0  0  0
   58.8792   28.2755   47.8365 H   0  0  0  0  0  0  0  0  0  0  0  0
  1  2  1  0
  2  3  1  0
  3  4  1  0
  3  5  1  0
  5  6  1  0
  6  7  1  0
  7  8  1  0
  8  9  1  0
  9 10  2  0
 10 11  1  0
 11 12  2  0
 12 13  1  0
 13 14  2  0
 14 15  1  0
 15 16  2  0
 16 17  1  0
 16 18  1  0
 18 19  1  0
 19 20  1  0
 20 21  2  0
 21 22  1  0
 21 23  1  0
 23 24  2  0
 24 25  1  0
 24 26  1  0
 26 27  2  0
 27 28  1  0
 28  9  1  0
 15 10  1  0
 28 18  2  0
 27 20  1  0
  1 29  1  0
  1 30  1  0
  1 31  1  0
  2 32  1  0
  2 33  1  0
  4 34  1  0
  4 35  1  0
  4 36  1  0
  5 37  1  0
  5 38  1  0
  6 39  1  0
  6 40  1  0
  7 41  1  0
  7 42  1  0
  8 43  1  0
  8 44  1  0
 11 45  1  0
 12 46  1  0
 13 47  1  0
 14 48  1  0
 17 49  1  0
 17 50  1  0
 17 51  1  0
 19 52  1  0
 22 53  1  0
 22 54  1  0
 22 55  1  0
 23 56  1  0
 25 57  1  0
 25 58  1  0
 25 59  1  0
 26 60  1  0
M  CHG  2   8   1  16   1
M  END
>  <UniqueID>  (24) 
24

>  <SMILES>  (24) 
CCN(C)CCC[NH2+]c1c2ccccc2[n+](C)c2[nH]c3c(C)cc(C)cc3c12

>  <Energy>  (24) 
123.68096568061976

>  <Genealogy>  (24) 
CCN(C)CCC[NH2+]c1c2ccccc2[n+](C)c2[nH]c3c(C)cc(C)cc3c12 (protonated)
CCN(C)CCC[NH2+]c1c2ccccc2[n+](C)c2[nH]c3c(C)cc(C)cc3c12 (3D coordinates assigned)
CCN(C)CCC[NH2+]c1c2ccccc2[n+](C)c2[nH]c3c(C)cc(C)cc3c12 (optimized conformer: 123.68096568061976 kcal/mol)

>  <smiles>  (24) 
CCN(C)CCCNc1c2ccccc2[n+](C)c2[nH]c3c(C)cc(C)cc3c12

>  <score_type>  (24) 
oracle

>  <origin>  (24) 
adg

>  <m_score__min__energy>  (24) 
-5.6399999999999997

>  <m_primary>  (24) 
energy

$$$$
24:0
     RDKit          3D

 37 39  0  0  0  0  0  0  0  0999 V2000
   59.1900   31.8190   47.2590 C   0  0  0  0  0  0  0  0  0  0  0  0
   59.3570   33.1300   46.6350 N   0  0  0  0  0  0  0  0  0  0  0  0
   58.4870   33.7630   45.8150 C   0  0  0  0  0  0  0  0  0  0  0  0
   56.8890   33.1150   45.2990 S   0  0  0  0  0  0  0  0  0  0  0  0
   57.5990   31.9070   44.1270 C   0  0  0  0  0  0  0  0  0  0  0  0
   57.1130   30.5170   44.4330 C   0  0  0  0  0  0  0  0  0  0  0  0
   55.8670   30.3200   44.5100 O   0  0  0  0  0  0  0  0  0  0  0  0
   58.0270   29.4330   44.6980 N   0  0  0  0  0  0  0  0  0  0  0  0
   59.4650   29.5810   44.8500 C   0  0  0  0  0  0  0  0  0  0  0  0
   60.0020   28.1850   45.1600 C   0  0  0  0  0  0  0  0  0  0  0  0
   58.7830   27.3440   45.5310 C   0  0  0  0  0  0  0  0  0  0  0  0
   57.5780   28.0740   44.9490 C   0  0  0  0  0  0  0  0  0  0  0  0
   58.9500   34.9650   45.4240 N   0  0  0  0  0  0  0  0  0  0  0  0
   60.1350   35.1080   45.9990 N   0  0  0  0  0  0  0  0  0  0  0  0
   60.3910   34.0040   46.7240 C   0  0  0  0  0  0  0  0  0  0  0  0
   61.6490   33.8140   47.4850 C   0  0  0  0  0  0  0  0  0  0  0  0
   61.8320   33.8410   48.8650 C   0  0  0  0  0  0  0  0  0  0  0  0
   63.1570   33.6040   49.2580 C   0  0  0  0  0  0  0  0  0  0  0  0
   64.0250   33.3810   48.1990 C   0  0  0  0  0  0  0  0  0  0  0  0
   63.1390   33.4820   46.7730 S   0  0  0  0  0  0  0  0  0  0  0  0
   59.2041   31.9293   48.3534 H   0  0  0  0  0  0  0  0  0  0  0  0
   58.2292   31.3840   46.9466 H   0  0  0  0  0  0  0  0  0  0  0  0
   60.0111   31.1570   46.9466 H   0  0  0  0  0  0  0  0  0  0  0  0
   57.2981   32.1772   43.1040 H   0  0  0  0  0  0  0  0  0  0  0  0
   58.6948   31.9262   44.2214 H   0  0  0  0  0  0  0  0  0  0  0  0
   59.9102   29.9638   43.9198 H   0  0  0  0  0  0  0  0  0  0  0  0
   59.7141   30.2949   45.6489 H   0  0  0  0  0  0  0  0  0  0  0  0
   60.5044   27.7629   44.2771 H   0  0  0  0  0  0  0  0  0  0  0  0
   60.7418   28.2070   45.9737 H   0  0  0  0  0  0  0  0  0  0  0  0
   58.8666   26.3369   45.0966 H   0  0  0  0  0  0  0  0  0  0  0  0
   58.6934   27.2220   46.6205 H   0  0  0  0  0  0  0  0  0  0  0  0
   57.2562   27.5968   44.0116 H   0  0  0  0  0  0  0  0  0  0  0  0
   56.7180   28.0500   45.6344 H   0  0  0  0  0  0  0  0  0  0  0  0
   60.7420   35.9550   45.8960 H   0  0  0  0  0  0  0  0  0  0  0  0
   61.0160   34.0300   49.5781 H   0  0  0  0  0  0  0  0  0  0  0  0
   63.4788   33.5957   50.3099 H   0  0  0  0  0  0  0  0  0  0  0  0
   65.1026   33.1746   48.2780 H   0  0  0  0  0  0  0  0  0  0  0  0
  1  2  1  0
  2  3  1  0
  3  4  1  0
  4  5  1  0
  5  6  1  0
  6  7  2  0
  6  8  1  0
  8  9  1  0
  9 10  1  0
 10 11  1  0
 11 12  1  0
  3 13  2  0
 13 14  1  0
 14 15  2  0
 15 16  1  0
 16 17  2  0
 17 18  1  0
 18 19  2  0
 19 20  1  0
 15  2  1  0
 20 16  1  0
 12  8  1  0
  1 21  1  0
  1 22  1  0
  1 23  1  0
  5 24  1  0
  5 25  1  0
  9 26  1  0
  9 27  1  0
 10 28  1  0
 10 29  1  0
 11 30  1  0
 11 31  1  0
 12 32  1  0
 12 33  1  0
 14 34  1  0
 17 35  1  0
 18 36  1  0
 19 37  1  0
M  CHG  1  14   1
M  END
>  <UniqueID>  (25) 
25

>  <SMILES>  (25) 
Cn1c(SCC(=O)N2CCCC2)n[nH+]c1-c1cccs1

>  <Energy>  (25) 
96.15744820160265

>  <Genealogy>  (25) 
Cn1c(SCC(=O)N2CCCC2)n[nH+]c1-c1cccs1 (protonated)
Cn1c(SCC(=O)N2CCCC2)n[nH+]c1-c1cccs1 (3D coordinates assigned)
Cn1c(SCC(=O)N2CCCC2)n[nH+]c1-c1cccs1 (nonaromatic ring conformer: 96.15744820160265 kcal/mol)

>  <smiles>  (25) 
Cn1c(SCC(=O)N2CCCC2)nnc1-c1cccs1

>  <score_type>  (25) 
oracle

>  <origin>  (25) 
adg

>  <m_score__min__energy>  (25) 
-6.1399999999999997

>  <m_primary>  (25) 
energy

$$$$
25:0
     RDKit          3D

 72 74  0  0  0  0  0  0  0  0999 V2000
   63.4060   33.7690   46.6940 C   0  0  0  0  0  0  0  0  0  0  0  0
   62.7100   32.6880   47.5100 C   0  0  0  0  0  0  0  0  0  0  0  0
   61.3120   32.5300   47.0410 N   0  0  0  0  0  0  0  0  0  0  0  0
   60.6720   33.8290   46.7280 C   0  0  0  0  0  0  0  0  0  0  0  0
   59.7200   34.3280   47.8270 C   0  0  0  0  0  0  0  0  0  0  0  0
   60.4730   31.6930   47.9300 C   0  0  0  0  0  0  0  0  0  0  0  0
   61.0990   30.3180   48.1800 C   0  0  0  0  0  0  0  0  0  0  0  0
   60.6690   29.4160   47.1850 O   0  0  0  0  0  0  0  0  0  0  0  0
   60.7700   28.0890   47.6510 C   0  0  0  0  0  0  0  0  0  0  0  0
   59.6370   27.8150   48.6390 C   0  0  0  0  0  0  0  0  0  0  0  0
   58.3450   28.2180   48.0810 N   0  0  0  0  0  0  0  0  0  0  0  0
   58.0070   27.9670   46.7050 C   0  0  0  0  0  0  0  0  0  0  0  0
   57.9310   29.0290   45.7870 C   0  0  0  0  0  0  0  0  0  0  0  0
   58.0220   30.3650   46.2220 C   0  0  0  0  0  0  0  0  0  0  0  0
   57.9110   31.4310   45.3180 C   0  0  0  0  0  0  0  0  0  0  0  0
   58.0090   32.7710   45.7270 O   0  0  0  0  0  0  0  0  0  0  0  0
   57.0450   33.7790   45.4410 C   0  0  0  0  0  0  0  0  0  0  0  0
   57.6800   31.1680   43.9660 C   0  0  0  0  0  0  0  0  0  0  0  0
   57.5460   32.2600   43.0920 O   0  0  0  0  0  0  0  0  0  0  0  0
   57.7550   32.2040   41.6840 C   0  0  0  0  0  0  0  0  0  0  0  0
   57.5800   29.8380   43.5210 C   0  0  0  0  0  0  0  0  0  0  0  0
   57.7360   28.7480   44.4130 C   0  0  0  0  0  0  0  0  0  0  0  0
   57.6880   27.4370   43.9740 N   0  0  0  0  0  0  0  0  0  0  0  0
   57.8290   27.1350   42.5320 C   0  0  0  0  0  0  0  0  0  0  0  0
   57.5570   26.4070   44.8870 C   0  0  0  0  0  0  0  0  0  0  0  0
   57.2520   25.0840   44.4800 C   0  0  0  0  0  0  0  0  0  0  0  0
   57.2170   24.0240   45.4010 C   0  0  0  0  0  0  0  0  0  0  0  0
   56.9610   22.7000   45.0070 O   0  0  0  0  0  0  0  0  0  0  0  0
   57.8790   21.8730   44.2980 C   0  0  0  0  0  0  0  0  0  0  0  0
   57.4510   24.2740   46.7560 C   0  0  0  0  0  0  0  0  0  0  0  0
   57.4360   23.1880   47.6460 O   0  0  0  0  0  0  0  0  0  0  0  0
   56.2590   22.5040   48.0680 C   0  0  0  0  0  0  0  0  0  0  0  0
   57.6930   25.5880   47.1860 C   0  0  0  0  0  0  0  0  0  0  0  0
   57.7410   26.6560   46.2690 C   0  0  0  0  0  0  0  0  0  0  0  0
   63.8744   34.4966   47.3731 H   0  0  0  0  0  0  0  0  0  0  0  0
   64.1783   33.3095   46.0597 H   0  0  0  0  0  0  0  0  0  0  0  0
   62.6680   34.2819   46.0597 H   0  0  0  0  0  0  0  0  0  0  0  0
   63.2465   31.7355   47.3880 H   0  0  0  0  0  0  0  0  0  0  0  0
   62.7077   32.9774   48.5712 H   0  0  0  0  0  0  0  0  0  0  0  0
   61.4625   34.5805   46.5854 H   0  0  0  0  0  0  0  0  0  0  0  0
   60.0672   33.6799   45.8213 H   0  0  0  0  0  0  0  0  0  0  0  0
   60.1496   34.1028   48.8143 H   0  0  0  0  0  0  0  0  0  0  0  0
   59.5815   35.4146   47.7266 H   0  0  0  0  0  0  0  0  0  0  0  0
   58.7476   33.8236   47.7266 H   0  0  0  0  0  0  0  0  0  0  0  0
   60.3521   32.2090   48.8939 H   0  0  0  0  0  0  0  0  0  0  0  0
   59.5018   31.5402   47.4367 H   0  0  0  0  0  0  0  0  0  0  0  0
   62.1952   30.4033   48.1481 H   0  0  0  0  0  0  0  0  0  0  0  0
   60.7877   29.9484   49.1682 H   0  0  0  0  0  0  0  0  0  0  0  0
   60.6934   27.3941   46.8017 H   0  0  0  0  0  0  0  0  0  0  0  0
   61.7390   27.9462   48.1516 H   0  0  0  0  0  0  0  0  0  0  0  0
   59.6106   26.7391   48.8666 H   0  0  0  0  0  0  0  0  0  0  0  0
   59.8209   28.3981   49.5534 H   0  0  0  0  0  0  0  0  0  0  0  0
   57.6140   28.6060   48.7200 H   0  0  0  0  0  0  0  0  0  0  0  0
   58.1830   30.5761   47.2895 H   0  0  0  0  0  0  0  0  0  0  0  0
   56.6528   34.1891   46.3833 H   0  0  0  0  0  0  0  0  0  0  0  0
   57.5178   34.5841   44.8594 H   0  0  0  0  0  0  0  0  0  0  0  0
   56.2196   33.3426   44.8594 H   0  0  0  0  0  0  0  0  0  0  0  0
   58.7989   31.9243   41.4791 H   0  0  0  0  0  0  0  0  0  0  0  0
   57.0813   31.4547   41.2428 H   0  0  0  0  0  0  0  0  0  0  0  0
   57.5462   33.1898   41.2428 H   0  0  0  0  0  0  0  0  0  0  0  0
   57.3764   29.6395   42.4584 H   0  0  0  0  0  0  0  0  0  0  0  0
   58.2914   26.1446   42.4083 H   0  0  0  0  0  0  0  0  0  0  0  0
   56.8364   27.1380   42.0580 H   0  0  0  0  0  0  0  0  0  0  0  0
   58.4640   27.8979   42.0580 H   0  0  0  0  0  0  0  0  0  0  0  0
   57.0381   24.8830   43.4199 H   0  0  0  0  0  0  0  0  0  0  0  0
   58.4988   21.3147   45.0150 H   0  0  0  0  0  0  0  0  0  0  0  0
   57.3224   21.1656   43.6657 H   0  0  0  0  0  0  0  0  0  0  0  0
   58.5247   22.5002   43.6657 H   0  0  0  0  0  0  0  0  0  0  0  0
   56.2217   22.4823   49.1672 H   0  0  0  0  0  0  0  0  0  0  0  0
   55.3722   23.0274   47.6813 H   0  0  0  0  0  0  0  0  0  0  0  0
   56.2747   21.4743   47.6813 H   0  0  0  0  0  0  0  0  0  0  0  0
   57.8477   25.7870   48.2567 H   0  0  0  0  0  0  0  0  0  0  0  0
  1  2  1  0
  2  3  1  0
  3  4  1  0
  4  5  1  0
  3  6  1  0
  6  7  1  0
  7  8  1  0
  8  9  1  0
  9 10  1  0
 10 11  1  0
 11 12  1  0
 12 13  2  0
 13 14  1  0
 14 15  2  0
 15 16  1  0
 16 17  1  0
 15 18  1  0
 18 19  1  0
 19 20  1  0
 18 21  2  0
 21 22  1  0
 22 23  2  0
 23 24  1  0
 23 25  1  0
 25 26  2  0
 26 27  1  0
 27 28  1  0
 28 29  1  0
 27 30  2  0
 30 31  1  0
 31 32  1  0
 30 33  1  0
 33 34  2  0
 34 12  1  0
 22 13  1  0
 34 25  1  0
  1 35  1  0
  1 36  1  0
  1 37  1  0
  2 38  1  0
  2 39  1  0
  4 40  1  0
  4 41  1  0
  5 42  1  0
  5 43  1  0
  5 44  1  0
  6 45  1  0
  6 46  1  0
  7 47  1  0
  7 48  1  0
  9 49  1  0
  9 50  1  0
 10 51  1  0
 10 52  1  0
 11 53  1  0
 14 54  1  0
 17 55  1  0
 17 56  1  0
 17 57  1  0
 20 58  1  0
 20 59  1  0
 20 60  1  0
 21 61  1  0
 24 62  1  0
 24 63  1  0
 24 64  1  0
 26 65  1  0
 29 66  1  0
 29 67  1  0
 29 68  1  0
 32 69  1  0
 32 70  1  0
 32 71  1  0
 33 72  1  0
M  CHG  1  23   1
M  END
>  <UniqueID>  (26) 
26

>  <SMILES>  (26) 
CCN(CC)CCOCCNc1c2cc(OC)c(OC)cc2[n+](C)c2cc(OC)c(OC)cc12

>  <Energy>  (26) 
88.77603301162256

>  <Genealogy>  (26) 
CCN(CC)CCOCCNc1c2cc(OC)c(OC)cc2[n+](C)c2cc(OC)c(OC)cc12 (3D coordinates assigned)
CCN(CC)CCOCCNc1c2cc(OC)c(OC)cc2[n+](C)c2cc(OC)c(OC)cc12 (optimized conformer: 88.77603301162256 kcal/mol)

>  <smiles>  (26) 
CCN(CC)CCOCCNc1c2cc(OC)c(OC)cc2[n+](C)c2cc(OC)c(OC)cc12

>  <score_type>  (26) 
oracle

>  <origin>  (26) 
adg

>  <m_score__min__energy>  (26) 
-4.7199999999999998

>  <m_primary>  (26) 
energy

$$$$
26:0
     RDKit          3D

 54 57  0  0  0  0  0  0  0  0999 V2000
   62.1720   33.4850   46.4780 C   0  0  0  0  0  0  0  0  0  0  0  0
   63.5280   33.8660   47.0800 C   0  0  0  0  0  0  0  0  0  0  0  0
   64.1480   32.7480   47.8140 N   0  0  0  0  0  0  0  0  0  0  0  0
   63.5550   32.5660   49.1490 C   0  0  0  0  0  0  0  0  0  0  0  0
   62.8150   31.2240   49.2330 C   0  0  0  0  0  0  0  0  0  0  0  0
   61.3400   31.3690   48.8240 C   0  0  0  0  0  0  0  0  0  0  0  0
   60.8740   30.2010   47.9480 C   0  0  0  0  0  0  0  0  0  0  0  0
   59.4190   30.2210   47.7770 N   0  0  0  0  0  0  0  0  0  0  0  0
   58.8040   30.3470   46.4860 C   0  0  0  0  0  0  0  0  0  0  0  0
   58.5600   31.6130   45.9010 C   0  0  0  0  0  0  0  0  0  0  0  0
   59.0190   32.7940   46.5210 C   0  0  0  0  0  0  0  0  0  0  0  0
   58.8060   34.0370   45.9310 C   0  0  0  0  0  0  0  0  0  0  0  0
   58.1530   34.1280   44.7070 C   0  0  0  0  0  0  0  0  0  0  0  0
   57.7010   32.9780   44.0610 C   0  0  0  0  0  0  0  0  0  0  0  0
   57.8780   31.6970   44.6400 C   0  0  0  0  0  0  0  0  0  0  0  0
   57.4300   30.5480   44.0070 N   0  0  0  0  0  0  0  0  0  0  0  0
   56.6210   30.6150   42.7750 C   0  0  0  0  0  0  0  0  0  0  0  0
   57.7740   29.3330   44.5440 C   0  0  0  0  0  0  0  0  0  0  0  0
   57.5040   28.1140   44.0130 N   0  0  0  0  0  0  0  0  0  0  0  0
   57.9930   27.2270   44.9010 C   0  0  0  0  0  0  0  0  0  0  0  0
   57.9340   25.8370   44.8070 C   0  0  0  0  0  0  0  0  0  0  0  0
   58.4890   25.0780   45.8500 C   0  0  0  0  0  0  0  0  0  0  0  0
   59.0930   25.7170   46.9530 C   0  0  0  0  0  0  0  0  0  0  0  0
   59.1480   27.1200   47.0240 C   0  0  0  0  0  0  0  0  0  0  0  0
   58.5800   27.8570   45.9790 C   0  0  0  0  0  0  0  0  0  0  0  0
   58.4440   29.2190   45.7480 C   0  0  0  0  0  0  0  0  0  0  0  0
   61.4550   33.2835   47.2875 H   0  0  0  0  0  0  0  0  0  0  0  0
   61.8007   34.3136   45.8571 H   0  0  0  0  0  0  0  0  0  0  0  0
   62.2866   32.5843   45.8571 H   0  0  0  0  0  0  0  0  0  0  0  0
   64.2024   34.1727   46.2669 H   0  0  0  0  0  0  0  0  0  0  0  0
   63.3609   34.6859   47.7940 H   0  0  0  0  0  0  0  0  0  0  0  0
   65.1670   32.9620   47.9300 H   0  0  0  0  0  0  0  0  0  0  0  0
   64.0630   31.8650   47.2580 H   0  0  0  0  0  0  0  0  0  0  0  0
   64.3536   32.5864   49.9052 H   0  0  0  0  0  0  0  0  0  0  0  0
   62.8369   33.3790   49.3319 H   0  0  0  0  0  0  0  0  0  0  0  0
   63.3035   30.5034   48.5606 H   0  0  0  0  0  0  0  0  0  0  0  0
   62.8520   30.8734   50.2750 H   0  0  0  0  0  0  0  0  0  0  0  0
   60.7204   31.4020   49.7323 H   0  0  0  0  0  0  0  0  0  0  0  0
   61.2368   32.2959   48.2407 H   0  0  0  0  0  0  0  0  0  0  0  0
   61.3533   30.2780   46.9609 H   0  0  0  0  0  0  0  0  0  0  0  0
   61.1561   29.2589   48.4408 H   0  0  0  0  0  0  0  0  0  0  0  0
   58.8130   30.2340   48.6280 H   0  0  0  0  0  0  0  0  0  0  0  0
   59.5513   32.7322   47.4816 H   0  0  0  0  0  0  0  0  0  0  0  0
   59.1556   34.9501   46.4350 H   0  0  0  0  0  0  0  0  0  0  0  0
   57.9919   35.1134   44.2453 H   0  0  0  0  0  0  0  0  0  0  0  0
   57.1990   33.0667   43.0863 H   0  0  0  0  0  0  0  0  0  0  0  0
   55.5569   30.7031   43.0394 H   0  0  0  0  0  0  0  0  0  0  0  0
   56.9256   31.4910   42.1835 H   0  0  0  0  0  0  0  0  0  0  0  0
   56.7773   29.7008   42.1835 H   0  0  0  0  0  0  0  0  0  0  0  0
   57.0410   27.8740   43.1100 H   0  0  0  0  0  0  0  0  0  0  0  0
   57.4656   25.3485   43.9398 H   0  0  0  0  0  0  0  0  0  0  0  0
   58.4525   23.9795   45.8066 H   0  0  0  0  0  0  0  0  0  0  0  0
   59.5246   25.1125   47.7644 H   0  0  0  0  0  0  0  0  0  0  0  0
   59.6244   27.6245   47.8775 H   0  0  0  0  0  0  0  0  0  0  0  0
  1  2  1  0
  2  3  1  0
  3  4  1  0
  4  5  1  0
  5  6  1  0
  6  7  1  0
  7  8  1  0
  8  9  1  0
  9 10  2  0
 10 11  1  0
 11 12  2  0
 12 13  1  0
 13 14  2  0
 14 15  1  0
 15 16  2  0
 16 17  1  0
 16 18  1  0
 18 19  1  0
 19 20  1  0
 20 21  2  0
 21 22  1  0
 22 23  2  0
 23 24  1  0
 24 25  2  0
 25 26  1  0
 26  9  1  0
 15 10  1  0
 26 18  2  0
 25 20  1  0
  1 27  1  0
  1 28  1  0
  1 29  1  0
  2 30  1  0
  2 31  1  0
  3 32  1  0
  3 33  1  0
  4 34  1  0
  4 35  1  0
  5 36  1  0
  5 37  1  0
  6 38  1  0
  6 39  1  0
  7 40  1  0
  7 41  1  0
  8 42  1  0
 11 43  1  0
 12 44  1  0
 13 45  1  0
 14 46  1  0
 17 47  1  0
 17 48  1  0
 17 49  1  0
 19 50  1  0
 21 51  1  0
 22 52  1  0
 23 53  1  0
 24 54  1  0
M  CHG  2   3   1  16   1
M  END
>  <UniqueID>  (27) 
27

>  <SMILES>  (27) 
CC[NH2+]CCCCNc1c2ccccc2[n+](C)c2[nH]c3ccccc3c12

>  <Energy>  (27) 
104.80394764915557

>  <Genealogy>  (27) 
CC[NH2+]CCCCNc1c2ccccc2[n+](C)c2[nH]c3ccccc3c12 (protonated)
CC[NH2+]CCCCNc1c2ccccc2[n+](C)c2[nH]c3ccccc3c12 (3D coordinates assigned)
CC[NH2+]CCCCNc1c2ccccc2[n+](C)c2[nH]c3ccccc3c12 (optimized conformer: 104.80394764915557 kcal/mol)

>  <smiles>  (27) 
CCNCCCCNc1c2ccccc2[n+](C)c2[nH]c3ccccc3c12

>  <score_type>  (27) 
oracle

>  <origin>  (27) 
adg

>  <m_score__min__energy>  (27) 
-5.6100000000000003

>  <m_primary>  (27) 
energy

$$$$
27:0
     RDKit          3D

 57 58  0  0  0  0  0  0  0  0999 V2000
   60.1800   29.4780   47.6600 C   0  0  0  0  0  0  0  0  0  0  0  0
   60.5270   30.1150   46.3150 C   0  0  0  0  0  0  0  0  0  0  0  0
   59.4090   29.9630   45.3820 N   0  0  0  0  0  0  0  0  0  0  0  0
   58.3690   29.1080   45.9650 C   0  0  0  0  0  0  0  0  0  0  0  0
   57.0250   29.3580   45.2820 C   0  0  0  0  0  0  0  0  0  0  0  0
   56.9230   30.7020   44.8620 O   0  0  0  0  0  0  0  0  0  0  0  0
   56.9240   30.8060   43.4490 C   0  0  0  0  0  0  0  0  0  0  0  0
   57.7860   31.9940   42.9950 C   0  0  0  0  0  0  0  0  0  0  0  0
   58.4800   32.5860   44.0830 O   0  0  0  0  0  0  0  0  0  0  0  0
   57.8400   33.7740   44.5090 C   0  0  0  0  0  0  0  0  0  0  0  0
   57.6450   33.7400   46.0210 C   0  0  0  0  0  0  0  0  0  0  0  0
   58.3800   32.6240   46.6180 N   0  0  0  0  0  0  0  0  0  0  0  0
   59.1290   32.7170   47.8500 C   0  0  0  0  0  0  0  0  0  0  0  0
   58.5210   32.3960   49.0620 C   0  0  0  0  0  0  0  0  0  0  0  0
   59.2020   32.5860   50.2610 C   0  0  0  0  0  0  0  0  0  0  0  0
   60.4630   33.1260   50.2960 N   0  0  0  0  0  0  0  0  0  0  0  0
   61.0610   33.4450   51.6240 C   0  0  0  0  0  0  0  0  0  0  0  0
   60.0100   33.8350   52.6880 C   0  0  0  0  0  0  0  0  0  0  0  0
   61.9320   32.2790   52.1050 C   0  0  0  0  0  0  0  0  0  0  0  0
   61.1520   33.3190   49.1070 C   0  0  0  0  0  0  0  0  0  0  0  0
   62.5310   33.6550   49.0750 C   0  0  0  0  0  0  0  0  0  0  0  0
   63.1940   33.8770   47.8650 C   0  0  0  0  0  0  0  0  0  0  0  0
   62.5170   33.7410   46.6590 C   0  0  0  0  0  0  0  0  0  0  0  0
   61.1750   33.3660   46.6490 C   0  0  0  0  0  0  0  0  0  0  0  0
   60.4750   33.1490   47.8570 C   0  0  0  0  0  0  0  0  0  0  0  0
   60.5334   30.1267   48.4750 H   0  0  0  0  0  0  0  0  0  0  0  0
   59.0897   29.3540   47.7366 H   0  0  0  0  0  0  0  0  0  0  0  0
   60.6671   28.4947   47.7366 H   0  0  0  0  0  0  0  0  0  0  0  0
   60.7349   31.1851   46.4622 H   0  0  0  0  0  0  0  0  0  0  0  0
   61.4137   29.6149   45.8983 H   0  0  0  0  0  0  0  0  0  0  0  0
   58.9960   30.9080   45.2250 H   0  0  0  0  0  0  0  0  0  0  0  0
   58.6515   28.0532   45.8328 H   0  0  0  0  0  0  0  0  0  0  0  0
   58.2734   29.3439   47.0351 H   0  0  0  0  0  0  0  0  0  0  0  0
   56.9362   28.6980   44.4065 H   0  0  0  0  0  0  0  0  0  0  0  0
   56.2182   29.1488   45.9999 H   0  0  0  0  0  0  0  0  0  0  0  0
   57.3305   29.8789   43.0185 H   0  0  0  0  0  0  0  0  0  0  0  0
   55.8915   30.9647   43.1043 H   0  0  0  0  0  0  0  0  0  0  0  0
   58.5189   31.6403   42.2549 H   0  0  0  0  0  0  0  0  0  0  0  0
   57.1204   32.7536   42.5591 H   0  0  0  0  0  0  0  0  0  0  0  0
   58.4617   34.6407   44.2401 H   0  0  0  0  0  0  0  0  0  0  0  0
   56.8594   33.8555   44.0173 H   0  0  0  0  0  0  0  0  0  0  0  0
   58.0104   34.6836   46.4524 H   0  0  0  0  0  0  0  0  0  0  0  0
   56.5738   33.6091   46.2341 H   0  0  0  0  0  0  0  0  0  0  0  0
   58.3760   31.7170   46.1020 H   0  0  0  0  0  0  0  0  0  0  0  0
   57.4984   31.9907   49.0713 H   0  0  0  0  0  0  0  0  0  0  0  0
   58.7169   32.2958   51.2047 H   0  0  0  0  0  0  0  0  0  0  0  0
   61.6928   34.3349   51.4866 H   0  0  0  0  0  0  0  0  0  0  0  0
   60.4300   33.6791   53.6926 H   0  0  0  0  0  0  0  0  0  0  0  0
   59.7384   34.8938   52.5643 H   0  0  0  0  0  0  0  0  0  0  0  0
   59.1135   33.2097   52.5643 H   0  0  0  0  0  0  0  0  0  0  0  0
   61.9456   32.2608   53.2048 H   0  0  0  0  0  0  0  0  0  0  0  0
   61.5182   31.3322   51.7277 H   0  0  0  0  0  0  0  0  0  0  0  0
   62.9573   32.4072   51.7277 H   0  0  0  0  0  0  0  0  0  0  0  0
   63.0877   33.7422   50.0197 H   0  0  0  0  0  0  0  0  0  0  0  0
   64.2568   34.1607   47.8672 H   0  0  0  0  0  0  0  0  0  0  0  0
   63.0414   33.9297   45.7107 H   0  0  0  0  0  0  0  0  0  0  0  0
   60.6541   33.2373   45.6887 H   0  0  0  0  0  0  0  0  0  0  0  0
  1  2  1  0
  2  3  1  0
  3  4  1  0
  4  5  1  0
  5  6  1  0
  6  7  1  0
  7  8  1  0
  8  9  1  0
  9 10  1  0
 10 11  1  0
 11 12  1  0
 12 13  1  0
 13 14  2  0
 14 15  1  0
 15 16  2  0
 16 17  1  0
 17 18  1  0
 17 19  1  0
 16 20  1  0
 20 21  2  0
 21 22  1  0
 22 23  2  0
 23 24  1  0
 24 25  2  0
 25 13  1  0
 25 20  1  0
  1 26  1  0
  1 27  1  0
  1 28  1  0
  2 29  1  0
  2 30  1  0
  3 31  1  0
  4 32  1  0
  4 33  1  0
  5 34  1  0
  5 35  1  0
  7 36  1  0
  7 37  1  0
  8 38  1  0
  8 39  1  0
 10 40  1  0
 10 41  1  0
 11 42  1  0
 11 43  1  0
 12 44  1  0
 14 45  1  0
 15 46  1  0
 17 47  1  0
 18 48  1  0
 18 49  1  0
 18 50  1  0
 19 51  1  0
 19 52  1  0
 19 53  1  0
 21 54  1  0
 22 55  1  0
 23 56  1  0
 24 57  1  0
M  CHG  1  16   1
M  END
>  <UniqueID>  (28) 
28

>  <SMILES>  (28) 
CCNCCOCCOCCNc1cc[n+](C(C)C)c2ccccc12

>  <Energy>  (28) 
64.6974196149698

>  <Genealogy>  (28) 
CCNCCOCCOCCNc1cc[n+](C(C)C)c2ccccc12 (3D coordinates assigned)
CCNCCOCCOCCNc1cc[n+](C(C)C)c2ccccc12 (optimized conformer: 64.6974196149698 kcal/mol)

>  <smiles>  (28) 
CCNCCOCCOCCNc1cc[n+](C(C)C)c2ccccc12

>  <score_type>  (28) 
oracle

>  <origin>  (28) 
adg

>  <m_score__min__energy>  (28) 
-4.9800000000000004

>  <m_primary>  (28) 
energy

$$$$
28:0
     RDKit          3D

 68 70  0  0  0  0  0  0  0  0999 V2000
   63.0270   34.4180   50.4920 C   0  0  0  0  0  0  0  0  0  0  0  0
   63.0040   34.1980   48.9740 C   0  0  0  0  0  0  0  0  0  0  0  0
   62.7040   32.7920   48.5990 N   0  0  0  0  0  0  0  0  0  0  0  0
   62.8160   32.5810   47.1230 C   0  0  0  0  0  0  0  0  0  0  0  0
   63.3220   33.8330   46.4020 C   0  0  0  0  0  0  0  0  0  0  0  0
   63.6200   31.8820   49.3370 C   0  0  0  0  0  0  0  0  0  0  0  0
   62.8920   31.0890   50.4340 C   0  0  0  0  0  0  0  0  0  0  0  0
   61.5320   31.4720   50.4450 O   0  0  0  0  0  0  0  0  0  0  0  0
   61.1090   31.8010   51.7550 C   0  0  0  0  0  0  0  0  0  0  0  0
   59.6800   32.3600   51.7660 C   0  0  0  0  0  0  0  0  0  0  0  0
   59.0000   32.0280   50.5680 O   0  0  0  0  0  0  0  0  0  0  0  0
   58.5020   30.7040   50.6050 C   0  0  0  0  0  0  0  0  0  0  0  0
   58.8930   29.9560   49.3280 C   0  0  0  0  0  0  0  0  0  0  0  0
   59.5800   30.8520   48.4000 N   0  0  0  0  0  0  0  0  0  0  0  0
   59.1870   30.9170   47.0210 C   0  0  0  0  0  0  0  0  0  0  0  0
   59.0280   29.7200   46.3020 C   0  0  0  0  0  0  0  0  0  0  0  0
   59.3880   28.4820   46.8760 C   0  0  0  0  0  0  0  0  0  0  0  0
   59.2850   27.3010   46.1440 C   0  0  0  0  0  0  0  0  0  0  0  0
   58.8400   27.3370   44.8270 C   0  0  0  0  0  0  0  0  0  0  0  0
   58.4640   28.5470   44.2470 C   0  0  0  0  0  0  0  0  0  0  0  0
   58.5150   29.7590   44.9820 C   0  0  0  0  0  0  0  0  0  0  0  0
   58.0900   30.9560   44.4420 N   0  0  0  0  0  0  0  0  0  0  0  0
   57.2640   30.9570   43.2120 C   0  0  0  0  0  0  0  0  0  0  0  0
   58.4190   32.1510   45.0580 C   0  0  0  0  0  0  0  0  0  0  0  0
   58.2380   33.3880   44.3940 C   0  0  0  0  0  0  0  0  0  0  0  0
   58.5230   34.5910   45.0230 C   0  0  0  0  0  0  0  0  0  0  0  0
   59.0250   34.6050   46.3150 C   0  0  0  0  0  0  0  0  0  0  0  0
   59.2750   33.4040   47.0020 C   0  0  0  0  0  0  0  0  0  0  0  0
   59.8480   33.4300   48.2830 O   0  0  0  0  0  0  0  0  0  0  0  0
   59.7250   34.4970   49.2200 C   0  0  0  0  0  0  0  0  0  0  0  0
   58.9650   32.1600   46.3770 C   0  0  0  0  0  0  0  0  0  0  0  0
   62.9258   33.4499   51.0044 H   0  0  0  0  0  0  0  0  0  0  0  0
   63.9791   34.8875   50.7801 H   0  0  0  0  0  0  0  0  0  0  0  0
   62.1926   35.0743   50.7801 H   0  0  0  0  0  0  0  0  0  0  0  0
   62.2339   34.8502   48.5363 H   0  0  0  0  0  0  0  0  0  0  0  0
   64.0072   34.4355   48.5904 H   0  0  0  0  0  0  0  0  0  0  0  0
   61.7290   32.5880   48.9290 H   0  0  0  0  0  0  0  0  0  0  0  0
   63.5172   31.7547   46.9345 H   0  0  0  0  0  0  0  0  0  0  0  0
   61.8132   32.3477   46.7359 H   0  0  0  0  0  0  0  0  0  0  0  0
   63.6262   34.5858   47.1442 H   0  0  0  0  0  0  0  0  0  0  0  0
   64.1844   33.5699   45.7719 H   0  0  0  0  0  0  0  0  0  0  0  0
   62.5190   34.2430   45.7719 H   0  0  0  0  0  0  0  0  0  0  0  0
   64.0652   31.1728   48.6236 H   0  0  0  0  0  0  0  0  0  0  0  0
   64.3905   32.4994   49.8219 H   0  0  0  0  0  0  0  0  0  0  0  0
   62.9712   30.0117   50.2261 H   0  0  0  0  0  0  0  0  0  0  0  0
   63.3479   31.2993   51.4128 H   0  0  0  0  0  0  0  0  0  0  0  0
   61.1424   30.8954   52.3785 H   0  0  0  0  0  0  0  0  0  0  0  0
   61.7834   32.5756   52.1489 H   0  0  0  0  0  0  0  0  0  0  0  0
   59.1332   31.9350   52.6206 H   0  0  0  0  0  0  0  0  0  0  0  0
   59.7309   33.4556   51.8502 H   0  0  0  0  0  0  0  0  0  0  0  0
   58.9242   30.1813   51.4759 H   0  0  0  0  0  0  0  0  0  0  0  0
   57.4051   30.7352   50.6810 H   0  0  0  0  0  0  0  0  0  0  0  0
   59.5614   29.1217   49.5874 H   0  0  0  0  0  0  0  0  0  0  0  0
   57.9809   29.5752   48.8453 H   0  0  0  0  0  0  0  0  0  0  0  0
   60.2090   31.5970   48.7760 H   0  0  0  0  0  0  0  0  0  0  0  0
   59.7540   28.4491   47.9128 H   0  0  0  0  0  0  0  0  0  0  0  0
   59.5555   26.3408   46.6075 H   0  0  0  0  0  0  0  0  0  0  0  0
   58.7846   26.4075   44.2413 H   0  0  0  0  0  0  0  0  0  0  0  0
   58.1219   28.5624   43.2017 H   0  0  0  0  0  0  0  0  0  0  0  0
   56.1986   30.9583   43.4858 H   0  0  0  0  0  0  0  0  0  0  0  0
   57.4912   31.8549   42.6185 H   0  0  0  0  0  0  0  0  0  0  0  0
   57.4890   30.0586   42.6185 H   0  0  0  0  0  0  0  0  0  0  0  0
   57.8642   33.3954   43.3595 H   0  0  0  0  0  0  0  0  0  0  0  0
   58.3496   35.5394   44.4934 H   0  0  0  0  0  0  0  0  0  0  0  0
   59.2301   35.5665   46.8083 H   0  0  0  0  0  0  0  0  0  0  0  0
   59.7714   34.0942   50.2425 H   0  0  0  0  0  0  0  0  0  0  0  0
   60.5466   35.2130   49.0703 H   0  0  0  0  0  0  0  0  0  0  0  0
   58.7621   35.0073   49.0703 H   0  0  0  0  0  0  0  0  0  0  0  0
  1  2  1  0
  2  3  1  0
  3  4  1  0
  4  5  1  0
  3  6  1  0
  6  7  1  0
  7  8  1  0
  8  9  1  0
  9 10  1  0
 10 11  1  0
 11 12  1  0
 12 13  1  0
 13 14  1  0
 14 15  1  0
 15 16  2  0
 16 17  1  0
 17 18  2  0
 18 19  1  0
 19 20  2  0
 20 21  1  0
 21 22  2  0
 22 23  1  0
 22 24  1  0
 24 25  2  0
 25 26  1  0
 26 27  2  0
 27 28  1  0
 28 29  1  0
 29 30  1  0
 28 31  2  0
 31 15  1  0
 21 16  1  0
 31 24  1  0
  1 32  1  0
  1 33  1  0
  1 34  1  0
  2 35  1  0
  2 36  1  0
  3 37  1  0
  4 38  1  0
  4 39  1  0
  5 40  1  0
  5 41  1  0
  5 42  1  0
  6 43  1  0
  6 44  1  0
  7 45  1  0
  7 46  1  0
  9 47  1  0
  9 48  1  0
 10 49  1  0
 10 50  1  0
 12 51  1  0
 12 52  1  0
 13 53  1  0
 13 54  1  0
 14 55  1  0
 17 56  1  0
 18 57  1  0
 19 58  1  0
 20 59  1  0
 23 60  1  0
 23 61  1  0
 23 62  1  0
 25 63  1  0
 26 64  1  0
 27 65  1  0
 30 66  1  0
 30 67  1  0
 30 68  1  0
M  CHG  2   3   1  22   1
M  END
>  <UniqueID>  (29) 
29

>  <SMILES>  (29) 
CC[NH+](CC)CCOCCOCCNc1c2ccccc2[n+](C)c2cccc(OC)c12

>  <Energy>  (29) 
102.53720190214106

>  <Genealogy>  (29) 
CC[NH+](CC)CCOCCOCCNc1c2ccccc2[n+](C)c2cccc(OC)c12 (protonated)
CC[NH+](CC)CCOCCOCCNc1c2ccccc2[n+](C)c2cccc(OC)c12 (3D coordinates assigned)
CC[NH+](CC)CCOCCOCCNc1c2ccccc2[n+](C)c2cccc(OC)c12 (optimized conformer: 102.53720190214106 kcal/mol)

>  <smiles>  (29) 
CCN(CC)CCOCCOCCNc1c2ccccc2[n+](C)c2cccc(OC)c12

>  <score_type>  (29) 
oracle

>  <origin>  (29) 
adg

>  <m_score__min__energy>  (29) 
-3.0299999999999998

>  <m_primary>  (29) 
energy

$$$$
29:0
     RDKit          3D

 61 64  0  0  0  0  0  0  0  0999 V2000
   61.6470   30.8780   50.7720 C   0  0  0  0  0  0  0  0  0  0  0  0
   60.6030   31.8230   51.3760 C   0  0  0  0  0  0  0  0  0  0  0  0
   59.2830   31.7110   50.6970 N   0  0  0  0  0  0  0  0  0  0  0  0
   58.2710   32.5970   51.3570 C   0  0  0  0  0  0  0  0  0  0  0  0
   58.9140   33.8400   51.9830 C   0  0  0  0  0  0  0  0  0  0  0  0
   58.8160   30.2960   50.6910 C   0  0  0  0  0  0  0  0  0  0  0  0
   58.8420   29.6410   49.2880 C   0  0  0  0  0  0  0  0  0  0  0  0
   59.5180   30.4870   48.3000 N   0  0  0  0  0  0  0  0  0  0  0  0
   59.0710   30.5760   46.9380 C   0  0  0  0  0  0  0  0  0  0  0  0
   58.9810   29.4060   46.1650 C   0  0  0  0  0  0  0  0  0  0  0  0
   59.5360   28.1900   46.6210 C   0  0  0  0  0  0  0  0  0  0  0  0
   59.4720   27.0420   45.8360 C   0  0  0  0  0  0  0  0  0  0  0  0
   58.8660   27.0860   44.5850 C   0  0  0  0  0  0  0  0  0  0  0  0
   58.2910   28.2700   44.1260 C   0  0  0  0  0  0  0  0  0  0  0  0
   58.3050   29.4440   44.9200 C   0  0  0  0  0  0  0  0  0  0  0  0
   57.6670   30.6010   44.5190 N   0  0  0  0  0  0  0  0  0  0  0  0
   56.6700   30.5520   43.4260 C   0  0  0  0  0  0  0  0  0  0  0  0
   57.9480   31.7980   45.1510 C   0  0  0  0  0  0  0  0  0  0  0  0
   57.5510   33.0360   44.5890 C   0  0  0  0  0  0  0  0  0  0  0  0
   57.8370   34.2390   45.2220 C   0  0  0  0  0  0  0  0  0  0  0  0
   58.5520   34.2500   46.4100 C   0  0  0  0  0  0  0  0  0  0  0  0
   58.9870   33.0530   46.9950 C   0  0  0  0  0  0  0  0  0  0  0  0
   59.8150   33.1000   48.1290 O   0  0  0  0  0  0  0  0  0  0  0  0
   61.2160   33.1840   48.1120 C   0  0  0  0  0  0  0  0  0  0  0  0
   61.9910   32.5270   47.1340 C   0  0  0  0  0  0  0  0  0  0  0  0
   63.3830   32.6580   47.1370 C   0  0  0  0  0  0  0  0  0  0  0  0
   64.0110   33.4490   48.1030 C   0  0  0  0  0  0  0  0  0  0  0  0
   63.2450   34.1160   49.0640 C   0  0  0  0  0  0  0  0  0  0  0  0
   61.8530   33.9880   49.0640 C   0  0  0  0  0  0  0  0  0  0  0  0
   58.6690   31.8100   46.3800 C   0  0  0  0  0  0  0  0  0  0  0  0
   62.1999   30.3775   51.5806 H   0  0  0  0  0  0  0  0  0  0  0  0
   61.1426   30.1232   50.1509 H   0  0  0  0  0  0  0  0  0  0  0  0
   62.3480   31.4549   50.1509 H   0  0  0  0  0  0  0  0  0  0  0  0
   60.4758   31.5764   52.4404 H   0  0  0  0  0  0  0  0  0  0  0  0
   60.9641   32.8536   51.2440 H   0  0  0  0  0  0  0  0  0  0  0  0
   59.4120   32.0060   49.7020 H   0  0  0  0  0  0  0  0  0  0  0  0
   57.5364   32.9187   50.6041 H   0  0  0  0  0  0  0  0  0  0  0  0
   57.7910   32.0218   52.1624 H   0  0  0  0  0  0  0  0  0  0  0  0
   58.8732   33.7612   53.0794 H   0  0  0  0  0  0  0  0  0  0  0  0
   59.9628   33.9127   51.6594 H   0  0  0  0  0  0  0  0  0  0  0  0
   58.3673   34.7380   51.6594 H   0  0  0  0  0  0  0  0  0  0  0  0
   59.4660   29.7123   51.3595 H   0  0  0  0  0  0  0  0  0  0  0  0
   57.7682   30.3005   51.0258 H   0  0  0  0  0  0  0  0  0  0  0  0
   59.3723   28.6795   49.3546 H   0  0  0  0  0  0  0  0  0  0  0  0
   57.8018   29.4995   48.9595 H   0  0  0  0  0  0  0  0  0  0  0  0
   60.3770   31.0100   48.5850 H   0  0  0  0  0  0  0  0  0  0  0  0
   60.0237   28.1496   47.6062 H   0  0  0  0  0  0  0  0  0  0  0  0
   59.9012   26.0991   46.2056 H   0  0  0  0  0  0  0  0  0  0  0  0
   58.8404   26.1840   43.9560 H   0  0  0  0  0  0  0  0  0  0  0  0
   57.8193   28.2935   43.1326 H   0  0  0  0  0  0  0  0  0  0  0  0
   55.6582   30.5023   43.8546 H   0  0  0  0  0  0  0  0  0  0  0  0
   56.7614   31.4557   42.8056 H   0  0  0  0  0  0  0  0  0  0  0  0
   56.8496   29.6616   42.8056 H   0  0  0  0  0  0  0  0  0  0  0  0
   57.0061   33.0450   43.6335 H   0  0  0  0  0  0  0  0  0  0  0  0
   57.4951   35.1861   44.7793 H   0  0  0  0  0  0  0  0  0  0  0  0
   58.7803   35.2087   46.8986 H   0  0  0  0  0  0  0  0  0  0  0  0
   61.4994   31.9102   46.3673 H   0  0  0  0  0  0  0  0  0  0  0  0
   63.9850   32.1375   46.3776 H   0  0  0  0  0  0  0  0  0  0  0  0
   65.1066   33.5467   48.1073 H   0  0  0  0  0  0  0  0  0  0  0  0
   63.7387   34.7426   49.8214 H   0  0  0  0  0  0  0  0  0  0  0  0
   61.2548   34.5224   49.8167 H   0  0  0  0  0  0  0  0  0  0  0  0
  1  2  1  0
  2  3  1  0
  3  4  1  0
  4  5  1  0
  3  6  1  0
  6  7  1  0
  7  8  1  0
  8  9  1  0
  9 10  2  0
 10 11  1  0
 11 12  2  0
 12 13  1  0
 13 14  2  0
 14 15  1  0
 15 16  2  0
 16 17  1  0
 16 18  1  0
 18 19  2  0
 19 20  1  0
 20 21  2  0
 21 22  1  0
 22 23  1  0
 23 24  1  0
 24 25  2  0
 25 26  1  0
 26 27  2  0
 27 28  1  0
 28 29  2  0
 22 30  2  0
 30  9  1  0
 15 10  1  0
 30 18  1  0
 29 24  1  0
  1 31  1  0
  1 32  1  0
  1 33  1  0
  2 34  1  0
  2 35  1  0
  3 36  1  0
  4 37  1  0
  4 38  1  0
  5 39  1  0
  5 40  1  0
  5 41  1  0
  6 42  1  0
  6 43  1  0
  7 44  1  0
  7 45  1  0
  8 46  1  0
 11 47  1  0
 12 48  1  0
 13 49  1  0
 14 50  1  0
 17 51  1  0
 17 52  1  0
 17 53  1  0
 19 54  1  0
 20 55  1  0
 21 56  1  0
 25 57  1  0
 26 58  1  0
 27 59  1  0
 28 60  1  0
 29 61  1  0
M  CHG  2   3   1  16   1
M  END
>  <UniqueID>  (30) 
30

>  <SMILES>  (30) 
CC[NH+](CC)CCNc1c2ccccc2[n+](C)c2cccc(Oc3ccccc3)c12

>  <Energy>  (30) 
100.53806279878503

>  <Genealogy>  (30) 
CC[NH+](CC)CCNc1c2ccccc2[n+](C)c2cccc(Oc3ccccc3)c12 (protonated)
CC[NH+](CC)CCNc1c2ccccc2[n+](C)c2cccc(Oc3ccccc3)c12 (3D coordinates assigned)
CC[NH+](CC)CCNc1c2ccccc2[n+](C)c2cccc(Oc3ccccc3)c12 (optimized conformer: 100.53806279878503 kcal/mol)

>  <smiles>  (30) 
CCN(CC)CCNc1c2ccccc2[n+](C)c2cccc(Oc3ccccc3)c12

>  <score_type>  (30) 
oracle

>  <origin>  (30) 
adg

>  <m_score__min__energy>  (30) 
-5.54

>  <m_primary>  (30) 
energy

$$$$
30:0
     RDKit          3D

 48 51  0  0  0  0  0  0  0  0999 V2000
   67.1210   29.5390   51.2200 C   0  0  0  0  0  0  0  0  0  0  0  0
   66.9030   30.9650   51.7180 C   0  0  0  0  0  0  0  0  0  0  0  0
   65.7500   31.6360   51.0350 C   0  0  0  0  0  0  0  0  0  0  0  0
   65.7690   31.9600   49.7140 N   0  0  0  0  0  0  0  0  0  0  0  0
   64.5620   32.5270   49.5480 C   0  0  0  0  0  0  0  0  0  0  0  0
   64.0240   33.0570   48.3850 C   0  0  0  0  0  0  0  0  0  0  0  0
   62.7260   33.6250   48.4340 C   0  0  0  0  0  0  0  0  0  0  0  0
   61.9880   33.5930   49.6730 C   0  0  0  0  0  0  0  0  0  0  0  0
   62.6020   33.0530   50.8300 C   0  0  0  0  0  0  0  0  0  0  0  0
   63.8810   32.5280   50.7180 C   0  0  0  0  0  0  0  0  0  0  0  0
   64.6220   31.9760   51.6390 O   0  0  0  0  0  0  0  0  0  0  0  0
   60.6100   34.2010   49.8550 C   0  0  0  0  0  0  0  0  0  0  0  0
   59.5320   33.6060   48.9440 C   0  0  0  0  0  0  0  0  0  0  0  0
   59.6630   34.1150   47.5640 N   0  0  0  0  0  0  0  0  0  0  0  0
   58.3750   34.2050   46.8410 C   0  0  0  0  0  0  0  0  0  0  0  0
   57.8520   32.8530   46.3310 C   0  0  0  0  0  0  0  0  0  0  0  0
   58.5410   32.4780   44.6820 S   0  0  0  0  0  0  0  0  0  0  0  0
   57.2820   31.2710   44.2590 C   0  0  0  0  0  0  0  0  0  0  0  0
   56.6900   30.4610   45.1580 N   0  0  0  0  0  0  0  0  0  0  0  0
   55.8410   29.6970   44.4840 N   0  0  0  0  0  0  0  0  0  0  0  0
   55.9260   30.0540   43.1870 C   0  0  0  0  0  0  0  0  0  0  0  0
   56.8100   31.0520   43.0190 N   0  0  0  0  0  0  0  0  0  0  0  0
   57.2470   31.6500   41.7620 C   0  0  0  0  0  0  0  0  0  0  0  0
   60.7820   33.5580   46.7700 C   0  0  0  0  0  0  0  0  0  0  0  0
   62.1560   34.1480   47.1290 C   0  0  0  0  0  0  0  0  0  0  0  0
   67.2245   28.8619   52.0807 H   0  0  0  0  0  0  0  0  0  0  0  0
   66.2600   29.2279   50.6102 H   0  0  0  0  0  0  0  0  0  0  0  0
   68.0356   29.4994   50.6102 H   0  0  0  0  0  0  0  0  0  0  0  0
   66.7049   30.9356   52.7996 H   0  0  0  0  0  0  0  0  0  0  0  0
   67.8110   31.5431   51.4914 H   0  0  0  0  0  0  0  0  0  0  0  0
   64.5928   33.0371   47.4437 H   0  0  0  0  0  0  0  0  0  0  0  0
   62.0759   33.0501   51.7960 H   0  0  0  0  0  0  0  0  0  0  0  0
   60.3012   34.0475   50.8995 H   0  0  0  0  0  0  0  0  0  0  0  0
   60.6973   35.2641   49.5862 H   0  0  0  0  0  0  0  0  0  0  0  0
   59.6340   32.5108   48.9343 H   0  0  0  0  0  0  0  0  0  0  0  0
   58.5453   33.8986   49.3325 H   0  0  0  0  0  0  0  0  0  0  0  0
   57.6244   34.6321   47.5223 H   0  0  0  0  0  0  0  0  0  0  0  0
   58.5487   34.8348   45.9560 H   0  0  0  0  0  0  0  0  0  0  0  0
   58.1486   32.0617   47.0352 H   0  0  0  0  0  0  0  0  0  0  0  0
   56.7558   32.9029   46.2544 H   0  0  0  0  0  0  0  0  0  0  0  0
   55.3484   29.5900   42.3740 H   0  0  0  0  0  0  0  0  0  0  0  0
   57.8840   32.5217   41.9726 H   0  0  0  0  0  0  0  0  0  0  0  0
   57.8184   30.9097   41.1829 H   0  0  0  0  0  0  0  0  0  0  0  0
   56.3681   31.9695   41.1829 H   0  0  0  0  0  0  0  0  0  0  0  0
   60.8176   32.4713   46.9368 H   0  0  0  0  0  0  0  0  0  0  0  0
   60.5879   33.8182   45.7190 H   0  0  0  0  0  0  0  0  0  0  0  0
   62.8603   33.9032   46.3203 H   0  0  0  0  0  0  0  0  0  0  0  0
   62.0163   35.2321   47.2526 H   0  0  0  0  0  0  0  0  0  0  0  0
  1  2  1  0
  2  3  1  0
  3  4  2  0
  4  5  1  0
  5  6  2  0
  6  7  1  0
  7  8  2  0
  8  9  1  0
  9 10  2  0
 10 11  1  0
  8 12  1  0
 12 13  1  0
 13 14  1  0
 14 15  1  0
 15 16  1  0
 16 17  1  0
 17 18  1  0
 18 19  2  0
 19 20  1  0
 20 21  2  0
 21 22  1  0
 22 23  1  0
 14 24  1  0
 24 25  1  0
 11  3  1  0
 22 18  1  0
 10  5  1  0
 25  7  1  0
  1 26  1  0
  1 27  1  0
  1 28  1  0
  2 29  1  0
  2 30  1  0
  6 31  1  0
  9 32  1  0
 12 33  1  0
 12 34  1  0
 13 35  1  0
 13 36  1  0
 15 37  1  0
 15 38  1  0
 16 39  1  0
 16 40  1  0
 21 41  1  0
 23 42  1  0
 23 43  1  0
 23 44  1  0
 24 45  1  0
 24 46  1  0
 25 47  1  0
 25 48  1  0
M  END
>  <UniqueID>  (31) 
31

>  <SMILES>  (31) 
CCc1nc2cc3c(cc2o1)CCN(CCSc1nncn1C)CC3

>  <Energy>  (31) 
129.5963974101136

>  <Genealogy>  (31) 
CCc1nc2cc3c(cc2o1)CCN(CCSc1nncn1C)CC3 (3D coordinates assigned)
CCc1nc2cc3c(cc2o1)CCN(CCSc1nncn1C)CC3 (nonaromatic ring conformer: 129.5963974101136 kcal/mol)

>  <smiles>  (31) 
CCc1nc2cc3c(cc2o1)CCN(CCSc1nncn1C)CC3

>  <score_type>  (31) 
oracle

>  <origin>  (31) 
adg

>  <m_score__min__energy>  (31) 
-6.7400000000000002

>  <m_primary>  (31) 
energy

$$$$
31:0
     RDKit          3D

 34 37  0  0  0  0  0  0  0  0999 V2000
   59.2550   22.5570   44.8780 C   0  0  0  0  0  0  0  0  0  0  0  0
   58.0120   22.4630   44.1170 N   0  0  0  0  0  0  0  0  0  0  0  0
   57.4400   21.3360   43.6590 C   0  0  0  0  0  0  0  0  0  0  0  0
   56.2740   21.6000   43.0390 N   0  0  0  0  0  0  0  0  0  0  0  0
   56.0930   22.9120   43.0910 N   0  0  0  0  0  0  0  0  0  0  0  0
   57.1560   23.4350   43.7330 C   0  0  0  0  0  0  0  0  0  0  0  0
   57.3070   24.8840   43.9930 C   0  0  0  0  0  0  0  0  0  0  0  0
   57.0440   25.4280   45.2590 C   0  0  0  0  0  0  0  0  0  0  0  0
   57.2080   26.7970   45.4900 C   0  0  0  0  0  0  0  0  0  0  0  0
   57.6510   27.6490   44.4630 C   0  0  0  0  0  0  0  0  0  0  0  0
   57.8240   29.1030   44.7070 C   0  0  0  0  0  0  0  0  0  0  0  0
   57.9700   29.7020   45.9620 C   0  0  0  0  0  0  0  0  0  0  0  0
   58.0990   31.0480   45.7010 C   0  0  0  0  0  0  0  0  0  0  0  0
   58.2690   32.1350   46.5510 C   0  0  0  0  0  0  0  0  0  0  0  0
   58.3710   33.3780   45.9920 N   0  0  0  0  0  0  0  0  0  0  0  0
   58.3100   33.5720   44.6370 C   0  0  0  0  0  0  0  0  0  0  0  0
   58.1360   32.4790   43.7690 C   0  0  0  0  0  0  0  0  0  0  0  0
   58.0310   31.2170   44.3480 C   0  0  0  0  0  0  0  0  0  0  0  0
   57.8640   30.0400   43.7250 N   0  0  0  0  0  0  0  0  0  0  0  0
   57.9330   27.0960   43.2010 C   0  0  0  0  0  0  0  0  0  0  0  0
   57.7700   25.7270   42.9720 C   0  0  0  0  0  0  0  0  0  0  0  0
   59.0282   22.5398   45.9542 H   0  0  0  0  0  0  0  0  0  0  0  0
   59.9042   21.7054   44.6265 H   0  0  0  0  0  0  0  0  0  0  0  0
   59.7688   23.4966   44.6265 H   0  0  0  0  0  0  0  0  0  0  0  0
   57.8684   20.3296   43.7754 H   0  0  0  0  0  0  0  0  0  0  0  0
   56.7064   24.7729   46.0756 H   0  0  0  0  0  0  0  0  0  0  0  0
   56.9883   27.2116   46.4849 H   0  0  0  0  0  0  0  0  0  0  0  0
   57.9797   29.2061   46.9438 H   0  0  0  0  0  0  0  0  0  0  0  0
   58.3199   31.9986   47.6413 H   0  0  0  0  0  0  0  0  0  0  0  0
   58.3976   34.5884   44.2256 H   0  0  0  0  0  0  0  0  0  0  0  0
   58.0850   32.6154   42.6787 H   0  0  0  0  0  0  0  0  0  0  0  0
   57.8020   29.8920   42.6930 H   0  0  0  0  0  0  0  0  0  0  0  0
   58.2850   27.7468   42.3870 H   0  0  0  0  0  0  0  0  0  0  0  0
   58.0067   25.3072   41.9832 H   0  0  0  0  0  0  0  0  0  0  0  0
  1  2  1  0
  2  3  1  0
  3  4  2  0
  4  5  1  0
  5  6  2  0
  6  7  1  0
  7  8  2  0
  8  9  1  0
  9 10  2  0
 10 11  1  0
 11 12  2  0
 12 13  1  0
 13 14  2  0
 14 15  1  0
 15 16  2  0
 16 17  1  0
 17 18  2  0
 18 19  1  0
 10 20  1  0
 20 21  2  0
  6  2  1  0
 21  7  1  0
 19 11  1  0
 18 13  1  0
  1 22  1  0
  1 23  1  0
  1 24  1  0
  3 25  1  0
  8 26  1  0
  9 27  1  0
 12 28  1  0
 14 29  1  0
 16 30  1  0
 17 31  1  0
 19 32  1  0
 20 33  1  0
 21 34  1  0
M  END
>  <UniqueID>  (32) 
32

>  <SMILES>  (32) 
Cn1cnnc1-c1ccc(-c2cc3cnccc3[nH]2)cc1

>  <Energy>  (32) 
113.91128830678456

>  <Genealogy>  (32) 
Cn1cnnc1-c1ccc(-c2cc3cnccc3[nH]2)cc1 (3D coordinates assigned)
Cn1cnnc1-c1ccc(-c2cc3cnccc3[nH]2)cc1 (optimized conformer: 113.91128830678456 kcal/mol)

>  <smiles>  (32) 
Cn1cnnc1-c1ccc(-c2cc3cnccc3[nH]2)cc1

>  <score_type>  (32) 
oracle

>  <origin>  (32) 
adg

>  <m_score__min__energy>  (32) 
-7.6600000000000001

>  <m_primary>  (32) 
energy

$$$$
32:0
     RDKit          3D

 50 52  0  0  0  0  0  0  0  0999 V2000
   62.8123   31.6795   48.0909 H   0  0  0  0  0  0  0  0  0  0  0  0
   61.9360   31.5700   47.4350 C   0  0  0  0  0  0  0  0  0  0  0  0
   61.7900   30.4750   46.7540 N   0  0  0  0  0  0  0  0  0  0  0  0
   60.5260   29.8640   46.4660 C   0  0  0  0  0  0  0  0  0  0  0  0
   59.6370   30.4550   45.6180 N   0  0  0  0  0  0  0  0  0  0  0  0
   58.4350   29.8940   45.3230 C   0  0  0  0  0  0  0  0  0  0  0  0
   57.7429   30.4049   44.6375 H   0  0  0  0  0  0  0  0  0  0  0  0
   58.0770   28.6630   45.8930 C   0  0  0  0  0  0  0  0  0  0  0  0
   56.8440   28.0610   45.5990 C   0  0  0  0  0  0  0  0  0  0  0  0
   56.1349   28.5643   44.9253 H   0  0  0  0  0  0  0  0  0  0  0  0
   56.5120   26.8160   46.1630 C   0  0  0  0  0  0  0  0  0  0  0  0
   55.2620   26.1640   45.8920 N   0  0  0  0  0  0  0  0  0  0  0  0
   55.0620   24.7710   45.6130 C   0  0  0  0  0  0  0  0  0  0  0  0
   54.2430   24.0870   46.2860 O   0  0  0  0  0  0  0  0  0  0  0  0
   55.7880   24.1340   44.4700 C   0  0  0  0  0  0  0  0  0  0  0  0
   56.3051   24.9118   43.8889 H   0  0  0  0  0  0  0  0  0  0  0  0
   55.0626   23.6089   43.8313 H   0  0  0  0  0  0  0  0  0  0  0  0
   56.7810   23.1600   44.9760 N   0  0  0  0  0  0  0  0  0  0  0  0
   56.6590   21.8640   44.2720 C   0  0  0  0  0  0  0  0  0  0  0  0
   55.7179   21.3771   44.5674 H   0  0  0  0  0  0  0  0  0  0  0  0
   57.5129   21.2260   44.5435 H   0  0  0  0  0  0  0  0  0  0  0  0
   56.6610   22.0830   42.7620 C   0  0  0  0  0  0  0  0  0  0  0  0
   56.6708   23.1619   42.5480 H   0  0  0  0  0  0  0  0  0  0  0  0
   57.5549   21.6143   42.3247 H   0  0  0  0  0  0  0  0  0  0  0  0
   55.7587   21.6307   42.3247 H   0  0  0  0  0  0  0  0  0  0  0  0
   58.1550   23.7010   44.8730 C   0  0  0  0  0  0  0  0  0  0  0  0
   58.2551   24.2603   43.9311 H   0  0  0  0  0  0  0  0  0  0  0  0
   58.3424   24.3667   45.7284 H   0  0  0  0  0  0  0  0  0  0  0  0
   59.1750   22.5650   44.8950 C   0  0  0  0  0  0  0  0  0  0  0  0
   59.4100   22.3033   45.9373 H   0  0  0  0  0  0  0  0  0  0  0  0
   58.7566   21.6866   44.3818 H   0  0  0  0  0  0  0  0  0  0  0  0
   60.0932   22.8867   44.3818 H   0  0  0  0  0  0  0  0  0  0  0  0
   57.4030   26.2060   47.0550 C   0  0  0  0  0  0  0  0  0  0  0  0
   57.1336   25.2479   47.5236 H   0  0  0  0  0  0  0  0  0  0  0  0
   58.6310   26.8020   47.3560 C   0  0  0  0  0  0  0  0  0  0  0  0
   59.3263   26.3066   48.0497 H   0  0  0  0  0  0  0  0  0  0  0  0
   58.9780   28.0290   46.7760 C   0  0  0  0  0  0  0  0  0  0  0  0
   60.2070   28.6400   47.0640 C   0  0  0  0  0  0  0  0  0  0  0  0
   60.9154   28.1602   47.7554 H   0  0  0  0  0  0  0  0  0  0  0  0
   60.9550   32.6760   47.3530 C   0  0  0  0  0  0  0  0  0  0  0  0
   61.1960   33.6890   46.4070 C   0  0  0  0  0  0  0  0  0  0  0  0
   62.0789   33.6231   45.7542 H   0  0  0  0  0  0  0  0  0  0  0  0
   60.3300   34.7760   46.2860 C   0  0  0  0  0  0  0  0  0  0  0  0
   60.5379   35.5649   45.5482 H   0  0  0  0  0  0  0  0  0  0  0  0
   59.2020   34.8630   47.0990 C   0  0  0  0  0  0  0  0  0  0  0  0
   58.5241   35.7245   47.0075 H   0  0  0  0  0  0  0  0  0  0  0  0
   58.9310   33.8590   48.0290 C   0  0  0  0  0  0  0  0  0  0  0  0
   58.0318   33.9276   48.6588 H   0  0  0  0  0  0  0  0  0  0  0  0
   59.7950   32.7630   48.1680 C   0  0  0  0  0  0  0  0  0  0  0  0
   59.2760   31.4100   49.4300 Br  0  0  0  0  0  0  0  0  0  0  0  0
  1  2  1  0
  2  3  2  0
  3  4  1  0
  4  5  2  0
  5  6  1  0
  6  7  1  0
  6  8  2  0
  8  9  1  0
  9 10  1  0
  9 11  2  0
 11 12  1  0
 12 13  1  0
 13 14  2  0
 13 15  1  0
 15 16  1  0
 15 17  1  0
 15 18  1  0
 18 19  1  0
 19 20  1  0
 19 21  1  0
 19 22  1  0
 22 23  1  0
 22 24  1  0
 22 25  1  0
 18 26  1  0
 26 27  1  0
 26 28  1  0
 26 29  1  0
 29 30  1  0
 29 31  1  0
 29 32  1  0
 11 33  1  0
 33 34  1  0
 33 35  2  0
 35 36  1  0
 35 37  1  0
 37 38  2  0
 38 39  1  0
  2 40  1  0
 40 41  2  0
 41 42  1  0
 41 43  1  0
 43 44  1  0
 43 45  2  0
 45 46  1  0
 45 47  1  0
 47 48  1  0
 47 49  2  0
 49 50  1  0
 38  4  1  0
 49 40  1  0
 37  8  1  0
M  CHG  1  12  -1
M  END
>  <UniqueID>  (33) 
33

>  <SMILES>  (33) 
CCN(CC)CC(=O)[N-]c1ccc2cc(/N=C/c3ccccc3Br)ncc2c1

>  <Energy>  (33) 
61.28767009435399

>  <Genealogy>  (33) 
CCN(CC)CC(=O)[N-]c1ccc2cc(N=Cc3ccccc3Br)ncc2c1 (protonated)
CCN(CC)CC(=O)[N-]c1ccc2cc(/N=C/c3ccccc3Br)ncc2c1 (cis-trans isomerization)
CCN(CC)CC(=O)[N-]c1ccc2cc(/N=C/c3ccccc3Br)ncc2c1 (3D coordinates assigned)
CCN(CC)CC(=O)[N-]c1ccc2cc(/N=C/c3ccccc3Br)ncc2c1 (optimized conformer: 61.28767009435399 kcal/mol)

>  <smiles>  (33) 
CCN(CC)CC(=O)Nc1ccc2cc(N=Cc3ccccc3Br)ncc2c1

>  <score_type>  (33) 
oracle

>  <origin>  (33) 
adg

>  <m_score__min__energy>  (33) 
-10.220000000000001

>  <m_primary>  (33) 
energy

$$$$
33:0
     RDKit          3D

 45 47  0  0  0  0  0  0  0  0999 V2000
   62.0140   33.9180   49.0260 C   0  0  0  0  0  0  0  0  0  0  0  0
   60.9470   33.9460   47.9720 C   0  0  0  0  0  0  0  0  0  0  0  0
   61.2930   33.8280   46.6200 C   0  0  0  0  0  0  0  0  0  0  0  0
   60.2960   33.8910   45.6470 C   0  0  0  0  0  0  0  0  0  0  0  0
   58.9610   34.0930   46.0210 C   0  0  0  0  0  0  0  0  0  0  0  0
   57.8680   34.1670   44.9740 C   0  0  0  0  0  0  0  0  0  0  0  0
   57.4190   32.8470   44.4750 N   0  0  0  0  0  0  0  0  0  0  0  0
   58.1120   32.4180   43.2510 C   0  0  0  0  0  0  0  0  0  0  0  0
   57.3640   31.2370   42.6160 C   0  0  0  0  0  0  0  0  0  0  0  0
   56.4140   30.5620   43.6210 C   0  0  0  0  0  0  0  0  0  0  0  0
   57.0020   30.4690   44.9780 N   0  0  0  0  0  0  0  0  0  0  0  0
   58.0510   29.4280   45.0780 C   0  0  0  0  0  0  0  0  0  0  0  0
   58.9770   29.6990   46.2340 C   0  0  0  0  0  0  0  0  0  0  0  0
   58.5480   29.4960   47.5570 C   0  0  0  0  0  0  0  0  0  0  0  0
   59.4100   29.7630   48.6250 C   0  0  0  0  0  0  0  0  0  0  0  0
   60.7030   30.2350   48.3820 C   0  0  0  0  0  0  0  0  0  0  0  0
   61.5360   30.4940   49.4200 F   0  0  0  0  0  0  0  0  0  0  0  0
   61.1370   30.4400   47.0690 C   0  0  0  0  0  0  0  0  0  0  0  0
   60.2780   30.1750   45.9980 C   0  0  0  0  0  0  0  0  0  0  0  0
   57.4680   31.7840   45.5020 C   0  0  0  0  0  0  0  0  0  0  0  0
   58.6560   34.2110   47.3860 C   0  0  0  0  0  0  0  0  0  0  0  0
   59.6430   34.1460   48.3210 N   0  0  0  0  0  0  0  0  0  0  0  0
   61.5464   33.9303   50.0216 H   0  0  0  0  0  0  0  0  0  0  0  0
   62.6155   33.0038   48.9147 H   0  0  0  0  0  0  0  0  0  0  0  0
   62.6626   34.7994   48.9147 H   0  0  0  0  0  0  0  0  0  0  0  0
   62.3440   33.6866   46.3276 H   0  0  0  0  0  0  0  0  0  0  0  0
   60.5581   33.7819   44.5843 H   0  0  0  0  0  0  0  0  0  0  0  0
   57.0020   34.6827   45.4144 H   0  0  0  0  0  0  0  0  0  0  0  0
   58.2897   34.7053   44.1124 H   0  0  0  0  0  0  0  0  0  0  0  0
   58.1454   33.2549   42.5379 H   0  0  0  0  0  0  0  0  0  0  0  0
   59.1358   32.1054   43.5041 H   0  0  0  0  0  0  0  0  0  0  0  0
   56.7771   31.6042   41.7612 H   0  0  0  0  0  0  0  0  0  0  0  0
   58.1069   30.4933   42.2919 H   0  0  0  0  0  0  0  0  0  0  0  0
   55.4850   31.1483   43.6778 H   0  0  0  0  0  0  0  0  0  0  0  0
   56.2230   29.5382   43.2669 H   0  0  0  0  0  0  0  0  0  0  0  0
   57.5720   28.4485   45.2236 H   0  0  0  0  0  0  0  0  0  0  0  0
   58.6406   29.4366   44.1494 H   0  0  0  0  0  0  0  0  0  0  0  0
   57.5308   29.1259   47.7528 H   0  0  0  0  0  0  0  0  0  0  0  0
   59.0699   29.6013   49.6585 H   0  0  0  0  0  0  0  0  0  0  0  0
   62.1552   30.8101   46.8782 H   0  0  0  0  0  0  0  0  0  0  0  0
   60.6221   30.3398   44.9663 H   0  0  0  0  0  0  0  0  0  0  0  0
   56.8249   32.0768   46.3450 H   0  0  0  0  0  0  0  0  0  0  0  0
   58.5156   31.6685   45.8169 H   0  0  0  0  0  0  0  0  0  0  0  0
   57.6126   34.3569   47.7021 H   0  0  0  0  0  0  0  0  0  0  0  0
   59.3840   34.2520   49.3280 H   0  0  0  0  0  0  0  0  0  0  0  0
  1  2  1  0
  2  3  2  0
  3  4  1  0
  4  5  2  0
  5  6  1  0
  6  7  1  0
  7  8  1  0
  8  9  1  0
  9 10  1  0
 10 11  1  0
 11 12  1  0
 12 13  1  0
 13 14  2  0
 14 15  1  0
 15 16  2  0
 16 17  1  0
 16 18  1  0
 18 19  2  0
 11 20  1  0
  5 21  1  0
 21 22  2  0
 22  2  1  0
 20  7  1  0
 19 13  1  0
  1 23  1  0
  1 24  1  0
  1 25  1  0
  3 26  1  0
  4 27  1  0
  6 28  1  0
  6 29  1  0
  8 30  1  0
  8 31  1  0
  9 32  1  0
  9 33  1  0
 10 34  1  0
 10 35  1  0
 12 36  1  0
 12 37  1  0
 14 38  1  0
 15 39  1  0
 18 40  1  0
 19 41  1  0
 20 42  1  0
 20 43  1  0
 21 44  1  0
 22 45  1  0
M  CHG  1  22   1
M  END
>  <UniqueID>  (34) 
34

>  <SMILES>  (34) 
Cc1ccc(CN2CCCN(Cc3ccc(F)cc3)C2)c[nH+]1

>  <Energy>  (34) 
59.024110823530215

>  <Genealogy>  (34) 
Cc1ccc(CN2CCCN(Cc3ccc(F)cc3)C2)c[nH+]1 (protonated)
Cc1ccc(CN2CCCN(Cc3ccc(F)cc3)C2)c[nH+]1 (3D coordinates assigned)
Cc1ccc(CN2CCCN(Cc3ccc(F)cc3)C2)c[nH+]1 (nonaromatic ring conformer: 59.024110823530215 kcal/mol)

>  <smiles>  (34) 
Cc1ccc(CN2CCCN(Cc3ccc(F)cc3)C2)cn1

>  <score_type>  (34) 
oracle

>  <origin>  (34) 
adg

>  <m_score__min__energy>  (34) 
-5.7000000000000002

>  <m_primary>  (34) 
energy

$$$$
34:0
     RDKit          3D

 27 28  0  0  0  0  0  0  0  0999 V2000
   59.2530   33.1420   48.3560 C   0  0  0  0  0  0  0  0  0  0  0  0
   58.9860   33.3100   46.8800 C   0  0  0  0  0  0  0  0  0  0  0  0
   59.2940   34.5470   46.2950 C   0  0  0  0  0  0  0  0  0  0  0  0
   59.0510   34.7740   44.9470 C   0  0  0  0  0  0  0  0  0  0  0  0
   58.4800   33.7800   44.1640 C   0  0  0  0  0  0  0  0  0  0  0  0
   58.1450   32.5270   44.7080 C   0  0  0  0  0  0  0  0  0  0  0  0
   58.4610   32.2520   46.0780 C   0  0  0  0  0  0  0  0  0  0  0  0
   58.1730   30.9020   46.7340 C   0  0  0  0  0  0  0  0  0  0  0  0
   57.9410   29.7480   45.7450 C   0  0  0  0  0  0  0  0  0  0  0  0
   56.5730   29.7260   45.2010 N   0  0  0  0  0  0  0  0  0  0  0  0
   56.2610   30.8480   44.3050 C   0  0  0  0  0  0  0  0  0  0  0  0
   57.5200   31.5240   43.7530 C   0  0  0  0  0  0  0  0  0  0  0  0
   58.4595   33.6413   48.9313 H   0  0  0  0  0  0  0  0  0  0  0  0
   59.2687   32.0709   48.6062 H   0  0  0  0  0  0  0  0  0  0  0  0
   60.2254   33.5913   48.6062 H   0  0  0  0  0  0  0  0  0  0  0  0
   59.7328   35.3459   46.9108 H   0  0  0  0  0  0  0  0  0  0  0  0
   59.3116   35.7439   44.4983 H   0  0  0  0  0  0  0  0  0  0  0  0
   58.2861   33.9758   43.0991 H   0  0  0  0  0  0  0  0  0  0  0  0
   59.0301   30.6404   47.3719 H   0  0  0  0  0  0  0  0  0  0  0  0
   57.2367   31.0225   47.2987 H   0  0  0  0  0  0  0  0  0  0  0  0
   58.6492   29.8537   44.9099 H   0  0  0  0  0  0  0  0  0  0  0  0
   58.0931   28.8070   46.2941 H   0  0  0  0  0  0  0  0  0  0  0  0
   55.8980   29.7580   46.0010 H   0  0  0  0  0  0  0  0  0  0  0  0
   55.6642   30.4707   43.4615 H   0  0  0  0  0  0  0  0  0  0  0  0
   55.7067   31.5980   44.8883 H   0  0  0  0  0  0  0  0  0  0  0  0
   58.2642   30.7445   43.5326 H   0  0  0  0  0  0  0  0  0  0  0  0
   57.2170   32.0820   42.8548 H   0  0  0  0  0  0  0  0  0  0  0  0
  1  2  1  0
  2  3  2  0
  3  4  1  0
  4  5  2  0
  5  6  1  0
  6  7  2  0
  7  8  1  0
  8  9  1  0
  9 10  1  0
 10 11  1  0
 11 12  1  0
  7  2  1  0
 12  6  1  0
  1 13  1  0
  1 14  1  0
  1 15  1  0
  3 16  1  0
  4 17  1  0
  5 18  1  0
  8 19  1  0
  8 20  1  0
  9 21  1  0
  9 22  1  0
 10 23  1  0
 11 24  1  0
 11 25  1  0
 12 26  1  0
 12 27  1  0
M  END
>  <UniqueID>  (35) 
35

>  <SMILES>  (35) 
Cc1cccc2c1CCNCC2

>  <Energy>  (35) 
39.50270876375974

>  <Genealogy>  (35) 
Cc1cccc2c1CCNCC2 (3D coordinates assigned)
Cc1cccc2c1CCNCC2 (nonaromatic ring conformer: 39.50270876375974 kcal/mol)

>  <smiles>  (35) 
Cc1cccc2c1CCNCC2

>  <score_type>  (35) 
oracle

>  <origin>  (35) 
adg

>  <m_score__min__energy>  (35) 
-4.4400000000000004

>  <m_primary>  (35) 
energy

$$$$
