0:0
     RDKit          3D

 55 58  0  0  1  0  0  0  0  0999 V2000
   55.3410   24.8630   45.5970 C   0  0  0  0  0  0  0  0  0  0  0  0
   56.8150   24.8840   45.3140 C   0  0  0  0  0  0  0  0  0  0  0  0
   57.5650   25.7930   46.1580 N   0  0  0  0  0  0  0  0  0  0  0  0
   58.4220   25.5110   47.1660 C   0  0  0  0  0  0  0  0  0  0  0  0
   58.9280   26.6290   47.6940 N   0  0  0  0  0  0  0  0  0  0  0  0
   58.3820   27.6310   47.0100 C   0  0  0  0  0  0  0  0  0  0  0  0
   58.5480   28.9900   47.1320 C   0  0  0  0  0  0  0  0  0  0  0  0
   59.3120   29.5150   47.9770 N   0  0  0  0  0  0  0  0  0  0  0  0
   60.7070   29.7000   47.8280 C   0  0  0  0  0  0  0  0  0  0  0  0
   61.0880   31.1600   47.9480 C   0  0  0  0  0  0  0  0  0  0  0  0
   60.2900   32.0600   48.6300 C   0  0  0  0  0  0  0  0  0  0  0  0
   60.5920   33.4000   48.7500 C   0  0  0  0  0  0  0  0  0  0  0  0
   61.7490   33.8780   48.1640 C   0  0  0  0  0  0  0  0  0  0  0  0
   62.5770   32.9960   47.4700 C   0  0  0  0  0  0  0  0  0  0  0  0
   63.7300   33.4500   46.8810 F   0  0  0  0  0  0  0  0  0  0  0  0
   62.2380   31.6510   47.3680 C   0  0  0  0  0  0  0  0  0  0  0  0
   57.8600   29.7870   46.2960 N   0  0  0  0  0  0  0  0  0  0  0  0
   57.0220   29.3400   45.3470 C   0  0  0  0  0  0  0  0  0  0  0  0
   56.3940   30.1570   44.5440 N   0  0  0  0  0  0  0  0  0  0  0  0
   57.0590   30.9460   43.5710 C   0  0  0  0  0  0  0  0  0  0  0  0
   57.9000   32.0840   44.0310 C   0  0  0  0  0  0  0  0  0  0  0  0
   57.9790   32.3010   45.4500 N   0  0  0  0  0  0  0  0  0  0  0  0
   59.2820   32.9840   45.6630 C   0  0  0  0  0  0  0  0  0  0  0  0
   59.4160   34.1720   44.7370 C   0  0  0  0  0  0  0  0  0  0  0  0
   58.3890   35.0580   44.8310 O   0  0  0  0  0  0  0  0  0  0  0  0
   57.1260   34.5790   45.0170 C   0  0  0  0  0  0  0  0  0  0  0  0
   57.0340   33.3510   45.8620 C   0  0  0  0  0  0  0  0  0  0  0  0
   56.8690   28.0050   45.2390 N   0  0  0  0  0  0  0  0  0  0  0  0
   57.5400   27.1410   46.0580 C   0  0  0  0  0  0  0  0  0  0  0  0
   55.1765   24.8607   46.6846 H   0  0  0  0  0  0  0  0  0  0  0  0
   54.8704   25.7545   45.1569 H   0  0  0  0  0  0  0  0  0  0  0  0
   54.8960   23.9584   45.1569 H   0  0  0  0  0  0  0  0  0  0  0  0
   57.2102   23.8683   45.4629 H   0  0  0  0  0  0  0  0  0  0  0  0
   56.9352   25.2382   44.2795 H   0  0  0  0  0  0  0  0  0  0  0  0
   58.6697   24.4947   47.5062 H   0  0  0  0  0  0  0  0  0  0  0  0
   61.2290   29.1288   48.6098 H   0  0  0  0  0  0  0  0  0  0  0  0
   60.9972   29.3483   46.8269 H   0  0  0  0  0  0  0  0  0  0  0  0
   59.3678   31.6883   49.1005 H   0  0  0  0  0  0  0  0  0  0  0  0
   59.9237   34.0769   49.3025 H   0  0  0  0  0  0  0  0  0  0  0  0
   62.0139   34.9426   48.2442 H   0  0  0  0  0  0  0  0  0  0  0  0
   62.8989   30.9674   46.8150 H   0  0  0  0  0  0  0  0  0  0  0  0
   57.9870   30.8130   46.4000 H   0  0  0  0  0  0  0  0  0  0  0  0
   57.7117   30.2715   42.9974 H   0  0  0  0  0  0  0  0  0  0  0  0
   56.2428   31.4250   43.0103 H   0  0  0  0  0  0  0  0  0  0  0  0
   58.9224   31.9118   43.6635 H   0  0  0  0  0  0  0  0  0  0  0  0
   57.4105   32.9836   43.6296 H   0  0  0  0  0  0  0  0  0  0  0  0
   59.3434   33.3292   46.7056 H   0  0  0  0  0  0  0  0  0  0  0  0
   60.0945   32.2738   45.4497 H   0  0  0  0  0  0  0  0  0  0  0  0
   60.3512   34.6977   44.9799 H   0  0  0  0  0  0  0  0  0  0  0  0
   59.4089   33.7802   43.7092 H   0  0  0  0  0  0  0  0  0  0  0  0
   56.5289   35.3686   45.4966 H   0  0  0  0  0  0  0  0  0  0  0  0
   56.7555   34.2949   44.0210 H   0  0  0  0  0  0  0  0  0  0  0  0
   57.2477   33.6260   46.9054 H   0  0  0  0  0  0  0  0  0  0  0  0
   56.0182   32.9453   45.7458 H   0  0  0  0  0  0  0  0  0  0  0  0
   56.2300   27.6140   44.5230 H   0  0  0  0  0  0  0  0  0  0  0  0
  1  2  1  0
  2  3  1  0
  3  4  1  0
  4  5  2  0
  5  6  1  0
  6  7  1  0
  7  8  2  0
  8  9  1  0
  9 10  1  0
 10 11  2  0
 11 12  1  0
 12 13  2  0
 13 14  1  0
 14 15  1  0
 14 16  2  0
  7 17  1  0
 17 18  1  0
 18 19  2  0
 19 20  1  0
 20 21  1  0
 21 22  1  0
 22 23  1  0
 23 24  1  0
 24 25  1  0
 25 26  1  0
 26 27  1  0
 18 28  1  0
 28 29  1  0
 29  3  1  0
 29  6  2  0
 16 10  1  0
 27 22  1  0
  1 30  1  0
  1 31  1  0
  1 32  1  0
  2 33  1  0
  2 34  1  0
  4 35  1  0
  9 36  1  0
  9 37  1  0
 11 38  1  0
 12 39  1  0
 13 40  1  0
 16 41  1  0
 17 42  1  0
 20 43  1  0
 20 44  1  0
 21 45  1  0
 21 46  1  0
 23 47  1  0
 23 48  1  0
 24 49  1  0
 24 50  1  0
 26 51  1  0
 26 52  1  0
 27 53  1  0
 27 54  1  0
 28 55  1  0
M  END
>  <smiles>  (1) 
CCn1cnc2c(=NCc3cccc(F)c3)[nH]c(=NCCN3CCOCC3)[nH]c21

>  <score_type>  (1) 
oracle

>  <origin>  (1) 
adg

>  <m_score__min__energy>  (1) 
-8.6400000000000006

>  <m_primary>  (1) 
energy

$$$$
1:0
     RDKit          3D

 44 46  0  0  0  0  0  0  0  0999 V2000
   59.6460   35.6970   45.6740 C   0  0  0  0  0  0  0  0  0  0  0  0
   59.5430   34.8680   46.9510 C   0  0  0  0  0  0  0  0  0  0  0  0
   59.3810   33.4450   46.6300 N   0  0  0  0  0  0  0  0  0  0  0  0
   60.3200   32.4800   46.7620 C   0  0  0  0  0  0  0  0  0  0  0  0
   61.6860   32.6850   47.3430 C   0  0  0  0  0  0  0  0  0  0  0  0
   59.8240   31.2630   46.3360 C   0  0  0  0  0  0  0  0  0  0  0  0
   58.5250   31.4940   45.9290 C   0  0  0  0  0  0  0  0  0  0  0  0
   57.6080   30.4650   45.4060 C   0  0  0  0  0  0  0  0  0  0  0  0
   56.7890   30.7850   44.5020 O   0  0  0  0  0  0  0  0  0  0  0  0
   57.6860   29.0600   45.8630 C   0  0  0  0  0  0  0  0  0  0  0  0
   58.7870   28.6640   46.5530 N   0  0  0  0  0  0  0  0  0  0  0  0
   58.9730   27.3900   46.9780 C   0  0  0  0  0  0  0  0  0  0  0  0
   60.5160   27.0070   47.8270 S   0  0  0  0  0  0  0  0  0  0  0  0
   60.3910   28.4130   48.9740 C   0  0  0  0  0  0  0  0  0  0  0  0
   57.9970   26.4100   46.7020 C   0  0  0  0  0  0  0  0  0  0  0  0
   58.1600   25.0720   47.1190 C   0  0  0  0  0  0  0  0  0  0  0  0
   57.1830   24.1180   46.8400 C   0  0  0  0  0  0  0  0  0  0  0  0
   56.0340   24.4790   46.1430 C   0  0  0  0  0  0  0  0  0  0  0  0
   55.8510   25.7950   45.7180 C   0  0  0  0  0  0  0  0  0  0  0  0
   56.8240   26.7840   45.9870 C   0  0  0  0  0  0  0  0  0  0  0  0
   56.6710   28.1310   45.5660 C   0  0  0  0  0  0  0  0  0  0  0  0
   55.5410   28.5850   44.8740 O   0  0  0  0  0  0  0  0  0  0  0  0
   58.2870   32.8540   46.0910 C   0  0  0  0  0  0  0  0  0  0  0  0
   57.0210   33.5760   45.7270 C   0  0  0  0  0  0  0  0  0  0  0  0
   59.7778   36.7575   45.9349 H   0  0  0  0  0  0  0  0  0  0  0  0
   60.5085   35.3548   45.0833 H   0  0  0  0  0  0  0  0  0  0  0  0
   58.7260   35.5763   45.0833 H   0  0  0  0  0  0  0  0  0  0  0  0
   60.4591   35.0029   47.5447 H   0  0  0  0  0  0  0  0  0  0  0  0
   58.6662   35.2050   47.5235 H   0  0  0  0  0  0  0  0  0  0  0  0
   61.6226   32.6755   48.4411 H   0  0  0  0  0  0  0  0  0  0  0  0
   62.3524   31.8768   47.0072 H   0  0  0  0  0  0  0  0  0  0  0  0
   62.0858   33.6532   47.0072 H   0  0  0  0  0  0  0  0  0  0  0  0
   60.3578   30.3013   46.3235 H   0  0  0  0  0  0  0  0  0  0  0  0
   60.4237   28.0450   50.0101 H   0  0  0  0  0  0  0  0  0  0  0  0
   61.2315   29.1017   48.8028 H   0  0  0  0  0  0  0  0  0  0  0  0
   59.4422   28.9426   48.8028 H   0  0  0  0  0  0  0  0  0  0  0  0
   59.0663   24.7792   47.6693 H   0  0  0  0  0  0  0  0  0  0  0  0
   57.3204   23.0781   47.1713 H   0  0  0  0  0  0  0  0  0  0  0  0
   55.2657   23.7224   45.9259 H   0  0  0  0  0  0  0  0  0  0  0  0
   54.9384   26.0662   45.1669 H   0  0  0  0  0  0  0  0  0  0  0  0
   55.5560   29.0370   43.9720 H   0  0  0  0  0  0  0  0  0  0  0  0
   56.4937   33.8767   46.6443 H   0  0  0  0  0  0  0  0  0  0  0  0
   57.2661   34.4702   45.1351 H   0  0  0  0  0  0  0  0  0  0  0  0
   56.3762   32.9098   45.1351 H   0  0  0  0  0  0  0  0  0  0  0  0
  1  2  1  0
  2  3  1  0
  3  4  1  0
  4  5  1  0
  4  6  2  0
  6  7  1  0
  7  8  1  0
  8  9  2  0
  8 10  1  0
 10 11  2  0
 11 12  1  0
 12 13  1  0
 13 14  1  0
 12 15  2  0
 15 16  1  0
 16 17  2  0
 17 18  1  0
 18 19  2  0
 19 20  1  0
 20 21  2  0
 21 22  1  0
  7 23  2  0
 23 24  1  0
 23  3  1  0
 21 10  1  0
 20 15  1  0
  1 25  1  0
  1 26  1  0
  1 27  1  0
  2 28  1  0
  2 29  1  0
  5 30  1  0
  5 31  1  0
  5 32  1  0
  6 33  1  0
 14 34  1  0
 14 35  1  0
 14 36  1  0
 16 37  1  0
 17 38  1  0
 18 39  1  0
 19 40  1  0
 22 41  1  0
 24 42  1  0
 24 43  1  0
 24 44  1  0
M  END
>  <UniqueID>  (2) 
1

>  <SMILES>  (2) 
CCn1c(C)cc(C(=O)c2nc(SC)c3ccccc3c2O)c1C

>  <Energy>  (2) 
78.14347616360637

>  <Genealogy>  (2) 
CCn1c(C)cc(C(=O)c2nc(SC)c3ccccc3c2O)c1C (3D coordinates assigned)
CCn1c(C)cc(C(=O)c2nc(SC)c3ccccc3c2O)c1C (optimized conformer: 78.14347616360637 kcal/mol)

>  <smiles>  (2) 
CCn1c(C)cc(C(=O)c2nc(SC)c3ccccc3c2O)c1C

>  <score_type>  (2) 
oracle

>  <origin>  (2) 
adg

>  <m_score__min__energy>  (2) 
-8.0700000000000003

>  <m_primary>  (2) 
energy

$$$$
2:0
     RDKit          3D

 65 67  0  0  0  0  0  0  0  0999 V2000
   57.0140   24.4270   43.3170 C   0  0  0  0  0  0  0  0  0  0  0  0
   55.7180   23.6430   43.1280 C   0  0  0  0  0  0  0  0  0  0  0  0
   55.6030   22.5580   44.1270 N   0  0  0  0  0  0  0  0  0  0  0  0
   56.8630   21.8040   44.3310 C   0  0  0  0  0  0  0  0  0  0  0  0
   57.2720   21.1300   43.0270 C   0  0  0  0  0  0  0  0  0  0  0  0
   54.9890   23.0100   45.3980 C   0  0  0  0  0  0  0  0  0  0  0  0
   54.2780   24.3750   45.3030 C   0  0  0  0  0  0  0  0  0  0  0  0
   55.0520   25.3650   45.9490 O   0  0  0  0  0  0  0  0  0  0  0  0
   56.1160   24.7760   46.6730 C   0  0  0  0  0  0  0  0  0  0  0  0
   57.4300   25.4910   46.3550 C   0  0  0  0  0  0  0  0  0  0  0  0
   57.1700   26.7130   45.5950 N   0  0  0  0  0  0  0  0  0  0  0  0
   57.6760   28.0080   45.9730 C   0  0  0  0  0  0  0  0  0  0  0  0
   58.3400   28.1640   47.1990 C   0  0  0  0  0  0  0  0  0  0  0  0
   58.7800   29.4150   47.6220 C   0  0  0  0  0  0  0  0  0  0  0  0
   58.5670   30.5530   46.8330 C   0  0  0  0  0  0  0  0  0  0  0  0
   57.9120   30.4260   45.5870 C   0  0  0  0  0  0  0  0  0  0  0  0
   57.7000   31.5620   44.7690 C   0  0  0  0  0  0  0  0  0  0  0  0
   57.0690   31.4120   43.5240 C   0  0  0  0  0  0  0  0  0  0  0  0
   56.6610   30.1560   43.0860 C   0  0  0  0  0  0  0  0  0  0  0  0
   56.8600   29.0300   43.8820 C   0  0  0  0  0  0  0  0  0  0  0  0
   57.4710   29.1440   45.1480 C   0  0  0  0  0  0  0  0  0  0  0  0
   58.1470   32.8990   45.2200 C   0  0  0  0  0  0  0  0  0  0  0  0
   57.9780   33.9050   44.4750 O   0  0  0  0  0  0  0  0  0  0  0  0
   58.7780   33.0520   46.5060 N   0  0  0  0  0  0  0  0  0  0  0  0
   59.2540   34.3700   46.9510 C   0  0  0  0  0  0  0  0  0  0  0  0
   60.7070   34.5840   46.5120 C   0  0  0  0  0  0  0  0  0  0  0  0
   61.6190   33.7370   47.3110 N   0  0  0  0  0  0  0  0  0  0  0  0
   61.6620   34.2030   48.7060 C   0  0  0  0  0  0  0  0  0  0  0  0
   62.9810   33.7540   46.7480 C   0  0  0  0  0  0  0  0  0  0  0  0
   59.0270   31.8810   47.3030 C   0  0  0  0  0  0  0  0  0  0  0  0
   59.6370   31.9830   48.4030 O   0  0  0  0  0  0  0  0  0  0  0  0
   57.2154   24.5489   44.3915 H   0  0  0  0  0  0  0  0  0  0  0  0
   57.8451   23.8801   42.8478 H   0  0  0  0  0  0  0  0  0  0  0  0
   56.9154   25.4170   42.8478 H   0  0  0  0  0  0  0  0  0  0  0  0
   54.8642   24.3273   43.2406 H   0  0  0  0  0  0  0  0  0  0  0  0
   55.7235   23.1947   42.1235 H   0  0  0  0  0  0  0  0  0  0  0  0
   57.6563   22.4961   44.6499 H   0  0  0  0  0  0  0  0  0  0  0  0
   56.7092   21.0382   45.1056 H   0  0  0  0  0  0  0  0  0  0  0  0
   57.8308   20.2091   43.2498 H   0  0  0  0  0  0  0  0  0  0  0  0
   56.3724   20.8812   42.4449 H   0  0  0  0  0  0  0  0  0  0  0  0
   57.9080   21.8131   42.4449 H   0  0  0  0  0  0  0  0  0  0  0  0
   54.2510   22.2572   45.7121 H   0  0  0  0  0  0  0  0  0  0  0  0
   55.8088   23.1289   46.1217 H   0  0  0  0  0  0  0  0  0  0  0  0
   54.1482   24.6460   44.2448 H   0  0  0  0  0  0  0  0  0  0  0  0
   53.2950   24.3068   45.7920 H   0  0  0  0  0  0  0  0  0  0  0  0
   55.9104   24.8558   47.7507 H   0  0  0  0  0  0  0  0  0  0  0  0
   56.2040   23.7180   46.3851 H   0  0  0  0  0  0  0  0  0  0  0  0
   57.9396   25.7494   47.2950 H   0  0  0  0  0  0  0  0  0  0  0  0
   58.0651   24.8234   45.7542 H   0  0  0  0  0  0  0  0  0  0  0  0
   56.5200   26.6370   44.7810 H   0  0  0  0  0  0  0  0  0  0  0  0
   58.5156   27.2843   47.8357 H   0  0  0  0  0  0  0  0  0  0  0  0
   59.3006   29.5112   48.5862 H   0  0  0  0  0  0  0  0  0  0  0  0
   56.8958   32.2941   42.8900 H   0  0  0  0  0  0  0  0  0  0  0  0
   56.1775   30.0512   42.1035 H   0  0  0  0  0  0  0  0  0  0  0  0
   56.5375   28.0427   43.5196 H   0  0  0  0  0  0  0  0  0  0  0  0
   58.6215   35.1533   46.5080 H   0  0  0  0  0  0  0  0  0  0  0  0
   59.1997   34.4194   48.0485 H   0  0  0  0  0  0  0  0  0  0  0  0
   60.8066   34.3205   45.4487 H   0  0  0  0  0  0  0  0  0  0  0  0
   60.9740   35.6397   46.6673 H   0  0  0  0  0  0  0  0  0  0  0  0
   61.5824   33.3400   49.3835 H   0  0  0  0  0  0  0  0  0  0  0  0
   62.6122   34.7261   48.8887 H   0  0  0  0  0  0  0  0  0  0  0  0
   60.8235   34.8912   48.8887 H   0  0  0  0  0  0  0  0  0  0  0  0
   63.7160   33.7632   47.5664 H   0  0  0  0  0  0  0  0  0  0  0  0
   63.1330   32.8577   46.1287 H   0  0  0  0  0  0  0  0  0  0  0  0
   63.1106   34.6538   46.1287 H   0  0  0  0  0  0  0  0  0  0  0  0
  1  2  1  0
  2  3  1  0
  3  4  1  0
  4  5  1  0
  3  6  1  0
  6  7  1  0
  7  8  1  0
  8  9  1  0
  9 10  1  0
 10 11  1  0
 11 12  1  0
 12 13  2  0
 13 14  1  0
 14 15  2  0
 15 16  1  0
 16 17  2  0
 17 18  1  0
 18 19  2  0
 19 20  1  0
 20 21  2  0
 17 22  1  0
 22 23  2  0
 22 24  1  0
 24 25  1  0
 25 26  1  0
 26 27  1  0
 27 28  1  0
 27 29  1  0
 24 30  1  0
 30 31  2  0
 21 12  1  0
 30 15  1  0
 21 16  1  0
  1 32  1  0
  1 33  1  0
  1 34  1  0
  2 35  1  0
  2 36  1  0
  4 37  1  0
  4 38  1  0
  5 39  1  0
  5 40  1  0
  5 41  1  0
  6 42  1  0
  6 43  1  0
  7 44  1  0
  7 45  1  0
  9 46  1  0
  9 47  1  0
 10 48  1  0
 10 49  1  0
 11 50  1  0
 13 51  1  0
 14 52  1  0
 18 53  1  0
 19 54  1  0
 20 55  1  0
 25 56  1  0
 25 57  1  0
 26 58  1  0
 26 59  1  0
 28 60  1  0
 28 61  1  0
 28 62  1  0
 29 63  1  0
 29 64  1  0
 29 65  1  0
M  END
>  <UniqueID>  (3) 
2

>  <SMILES>  (3) 
CCN(CC)CCOCCNc1ccc2c3c(cccc13)C(=O)N(CCN(C)C)C2=O

>  <Energy>  (3) 
75.91312207184193

>  <Genealogy>  (3) 
CCN(CC)CCOCCNc1ccc2c3c(cccc13)C(=O)N(CCN(C)C)C2=O (3D coordinates assigned)
CCN(CC)CCOCCNc1ccc2c3c(cccc13)C(=O)N(CCN(C)C)C2=O (nonaromatic ring conformer: 75.91312207184193 kcal/mol)

>  <smiles>  (3) 
CCN(CC)CCOCCNc1ccc2c3c(cccc13)C(=O)N(CCN(C)C)C2=O

>  <score_type>  (3) 
oracle

>  <origin>  (3) 
adg

>  <m_score__min__energy>  (3) 
-8.2599999999999998

>  <m_primary>  (3) 
energy

$$$$
3:0
     RDKit          3D

 51 53  0  0  0  0  0  0  0  0999 V2000
   58.3660   22.1610   44.1420 C   0  0  0  0  0  0  0  0  0  0  0  0
   57.1650   21.9690   43.2150 C   0  0  0  0  0  0  0  0  0  0  0  0
   55.9010   22.1710   43.9540 N   0  0  0  0  0  0  0  0  0  0  0  0
   55.7970   21.3450   45.1810 C   0  0  0  0  0  0  0  0  0  0  0  0
   55.9560   19.8360   44.9410 C   0  0  0  0  0  0  0  0  0  0  0  0
   55.5800   23.6000   44.1900 C   0  0  0  0  0  0  0  0  0  0  0  0
   55.3360   23.8450   45.6790 C   0  0  0  0  0  0  0  0  0  0  0  0
   55.2990   25.2310   45.9570 O   0  0  0  0  0  0  0  0  0  0  0  0
   56.3680   25.6000   46.8040 C   0  0  0  0  0  0  0  0  0  0  0  0
   57.6050   24.7840   46.4350 C   0  0  0  0  0  0  0  0  0  0  0  0
   58.5950   25.6120   45.8250 O   0  0  0  0  0  0  0  0  0  0  0  0
   58.3970   26.9300   45.3830 C   0  0  0  0  0  0  0  0  0  0  0  0
   57.8630   27.2370   44.1200 C   0  0  0  0  0  0  0  0  0  0  0  0
   57.6910   28.5680   43.7270 C   0  0  0  0  0  0  0  0  0  0  0  0
   58.0480   29.6370   44.5830 C   0  0  0  0  0  0  0  0  0  0  0  0
   57.8660   30.9890   44.1460 C   0  0  0  0  0  0  0  0  0  0  0  0
   57.3790   31.1710   42.9930 O   0  0  0  0  0  0  0  0  0  0  0  0
   58.1960   32.1490   44.9210 C   0  0  0  0  0  0  0  0  0  0  0  0
   57.9750   33.4400   44.3830 C   0  0  0  0  0  0  0  0  0  0  0  0
   58.2920   34.5910   45.1130 C   0  0  0  0  0  0  0  0  0  0  0  0
   58.8360   34.4840   46.3950 C   0  0  0  0  0  0  0  0  0  0  0  0
   59.0630   33.2270   46.9510 C   0  0  0  0  0  0  0  0  0  0  0  0
   58.7470   32.0710   46.2240 C   0  0  0  0  0  0  0  0  0  0  0  0
   59.0220   30.5530   46.8950 S   0  0  0  0  0  0  0  0  0  0  0  0
   58.5780   29.3070   45.8520 C   0  0  0  0  0  0  0  0  0  0  0  0
   58.7440   27.9750   46.2460 C   0  0  0  0  0  0  0  0  0  0  0  0
   58.0332   22.1078   45.1891 H   0  0  0  0  0  0  0  0  0  0  0  0
   59.1061   21.3698   43.9519 H   0  0  0  0  0  0  0  0  0  0  0  0
   58.8226   23.1435   43.9519 H   0  0  0  0  0  0  0  0  0  0  0  0
   57.2232   22.6968   42.3922 H   0  0  0  0  0  0  0  0  0  0  0  0
   57.1838   20.9435   42.8174 H   0  0  0  0  0  0  0  0  0  0  0  0
   56.5818   21.6673   45.8811 H   0  0  0  0  0  0  0  0  0  0  0  0
   54.7824   21.4962   45.5782 H   0  0  0  0  0  0  0  0  0  0  0  0
   56.0109   19.3147   45.9081 H   0  0  0  0  0  0  0  0  0  0  0  0
   55.0923   19.4623   44.3715 H   0  0  0  0  0  0  0  0  0  0  0  0
   56.8787   19.6505   44.3715 H   0  0  0  0  0  0  0  0  0  0  0  0
   56.4216   24.2225   43.8521 H   0  0  0  0  0  0  0  0  0  0  0  0
   54.6712   23.8622   43.6285 H   0  0  0  0  0  0  0  0  0  0  0  0
   54.3753   23.3930   45.9668 H   0  0  0  0  0  0  0  0  0  0  0  0
   56.1578   23.3907   46.2519 H   0  0  0  0  0  0  0  0  0  0  0  0
   56.5833   26.6715   46.6793 H   0  0  0  0  0  0  0  0  0  0  0  0
   56.0946   25.4040   47.8513 H   0  0  0  0  0  0  0  0  0  0  0  0
   58.0242   24.3324   47.3462 H   0  0  0  0  0  0  0  0  0  0  0  0
   57.3108   24.0013   45.7203 H   0  0  0  0  0  0  0  0  0  0  0  0
   57.5782   26.4244   43.4354 H   0  0  0  0  0  0  0  0  0  0  0  0
   57.2706   28.7881   42.7346 H   0  0  0  0  0  0  0  0  0  0  0  0
   57.5471   33.5398   43.3746 H   0  0  0  0  0  0  0  0  0  0  0  0
   58.1120   35.5841   44.6754 H   0  0  0  0  0  0  0  0  0  0  0  0
   59.0849   35.3913   46.9650 H   0  0  0  0  0  0  0  0  0  0  0  0
   59.4904   33.1416   47.9610 H   0  0  0  0  0  0  0  0  0  0  0  0
   59.1507   27.7474   47.2424 H   0  0  0  0  0  0  0  0  0  0  0  0
  1  2  1  0
  2  3  1  0
  3  4  1  0
  4  5  1  0
  3  6  1  0
  6  7  1  0
  7  8  1  0
  8  9  1  0
  9 10  1  0
 10 11  1  0
 11 12  1  0
 12 13  2  0
 13 14  1  0
 14 15  2  0
 15 16  1  0
 16 17  2  0
 16 18  1  0
 18 19  2  0
 19 20  1  0
 20 21  2  0
 21 22  1  0
 22 23  2  0
 23 24  1  0
 24 25  1  0
 25 26  2  0
 26 12  1  0
 25 15  1  0
 23 18  1  0
  1 27  1  0
  1 28  1  0
  1 29  1  0
  2 30  1  0
  2 31  1  0
  4 32  1  0
  4 33  1  0
  5 34  1  0
  5 35  1  0
  5 36  1  0
  6 37  1  0
  6 38  1  0
  7 39  1  0
  7 40  1  0
  9 41  1  0
  9 42  1  0
 10 43  1  0
 10 44  1  0
 13 45  1  0
 14 46  1  0
 19 47  1  0
 20 48  1  0
 21 49  1  0
 22 50  1  0
 26 51  1  0
M  END
>  <UniqueID>  (4) 
3

>  <SMILES>  (4) 
CCN(CC)CCOCCOc1ccc2c(=O)c3ccccc3sc2c1

>  <Energy>  (4) 
64.82630637018954

>  <Genealogy>  (4) 
CCN(CC)CCOCCOc1ccc2c(=O)c3ccccc3sc2c1 (3D coordinates assigned)
CCN(CC)CCOCCOc1ccc2c(=O)c3ccccc3sc2c1 (optimized conformer: 64.82630637018954 kcal/mol)

>  <smiles>  (4) 
CCN(CC)CCOCCOc1ccc2c(=O)c3ccccc3sc2c1

>  <score_type>  (4) 
oracle

>  <origin>  (4) 
adg

>  <m_score__min__energy>  (4) 
-7.7199999999999998

>  <m_primary>  (4) 
energy

$$$$
4:0
     RDKit          3D

 63 66  0  0  0  0  0  0  0  0999 V2000
   56.0056   32.8941   44.7047 H   0  0  0  0  0  0  0  0  0  0  0  0
   57.0320   32.5380   44.8770 C   0  0  0  0  0  0  0  0  0  0  0  0
   57.3880   31.3610   44.3480 C   0  0  0  0  0  0  0  0  0  0  0  0
   57.4013   31.2471   43.2540 H   0  0  0  0  0  0  0  0  0  0  0  0
   57.7700   30.1910   45.2110 C   0  0  0  0  0  0  0  0  0  0  0  0
   56.8604   29.7415   45.6359 H   0  0  0  0  0  0  0  0  0  0  0  0
   58.4297   30.5426   46.0180 H   0  0  0  0  0  0  0  0  0  0  0  0
   58.4890   29.1740   44.4110 N   0  0  0  0  0  0  0  0  0  0  0  0
   59.9380   29.1100   44.7340 C   0  0  0  0  0  0  0  0  0  0  0  0
   60.2504   30.0874   45.1305 H   0  0  0  0  0  0  0  0  0  0  0  0
   60.4666   28.8500   43.8051 H   0  0  0  0  0  0  0  0  0  0  0  0
   60.2860   28.0270   45.7740 C   0  0  0  0  0  0  0  0  0  0  0  0
   61.1198   28.3751   46.4014 H   0  0  0  0  0  0  0  0  0  0  0  0
   60.5792   27.1015   45.2569 H   0  0  0  0  0  0  0  0  0  0  0  0
   59.1130   27.7670   46.6180 N   0  0  0  0  0  0  0  0  0  0  0  0
   59.4030   27.1170   47.9160 C   0  0  0  0  0  0  0  0  0  0  0  0
   59.4526   26.0312   47.7468 H   0  0  0  0  0  0  0  0  0  0  0  0
   58.5936   27.4259   48.5939 H   0  0  0  0  0  0  0  0  0  0  0  0
   60.7170   27.5510   48.6030 C   0  0  0  0  0  0  0  0  0  0  0  0
   61.4063   27.9373   47.8377 H   0  0  0  0  0  0  0  0  0  0  0  0
   61.1381   26.6722   49.1133 H   0  0  0  0  0  0  0  0  0  0  0  0
   60.5040   28.5570   49.5740 O   0  0  0  0  0  0  0  0  0  0  0  0
   59.8120   29.6730   49.0340 C   0  0  0  0  0  0  0  0  0  0  0  0
   59.1552   29.3198   48.2254 H   0  0  0  0  0  0  0  0  0  0  0  0
   60.8140   30.6690   48.4960 C   0  0  0  0  0  0  0  0  0  0  0  0
   60.6150   31.2970   47.2510 C   0  0  0  0  0  0  0  0  0  0  0  0
   59.7137   31.0707   46.6624 H   0  0  0  0  0  0  0  0  0  0  0  0
   61.5560   32.2060   46.7590 C   0  0  0  0  0  0  0  0  0  0  0  0
   61.3883   32.6989   45.7900 H   0  0  0  0  0  0  0  0  0  0  0  0
   62.7090   32.4900   47.4950 C   0  0  0  0  0  0  0  0  0  0  0  0
   63.6190   33.3720   47.0150 F   0  0  0  0  0  0  0  0  0  0  0  0
   62.9260   31.8600   48.7230 C   0  0  0  0  0  0  0  0  0  0  0  0
   63.8366   32.0802   49.2994 H   0  0  0  0  0  0  0  0  0  0  0  0
   61.9880   30.9500   49.2210 C   0  0  0  0  0  0  0  0  0  0  0  0
   62.1684   30.4509   50.1845 H   0  0  0  0  0  0  0  0  0  0  0  0
   58.9580   30.3430   50.0900 C   0  0  0  0  0  0  0  0  0  0  0  0
   58.5980   31.6950   49.9450 C   0  0  0  0  0  0  0  0  0  0  0  0
   58.9214   32.2543   49.0547 H   0  0  0  0  0  0  0  0  0  0  0  0
   57.8320   32.3320   50.9250 C   0  0  0  0  0  0  0  0  0  0  0  0
   57.5462   33.3868   50.7992 H   0  0  0  0  0  0  0  0  0  0  0  0
   57.4280   31.6300   52.0660 C   0  0  0  0  0  0  0  0  0  0  0  0
   56.6840   32.2500   53.0130 F   0  0  0  0  0  0  0  0  0  0  0  0
   57.7980   30.2920   52.2290 C   0  0  0  0  0  0  0  0  0  0  0  0
   57.4853   29.7422   53.1289 H   0  0  0  0  0  0  0  0  0  0  0  0
   58.5640   29.6510   51.2520 C   0  0  0  0  0  0  0  0  0  0  0  0
   58.8608   28.6009   51.3909 H   0  0  0  0  0  0  0  0  0  0  0  0
   58.0100   27.1590   45.8500 C   0  0  0  0  0  0  0  0  0  0  0  0
   57.0738   27.2705   46.4167 H   0  0  0  0  0  0  0  0  0  0  0  0
   58.2414   26.0956   45.6896 H   0  0  0  0  0  0  0  0  0  0  0  0
   57.8490   27.8390   44.4710 C   0  0  0  0  0  0  0  0  0  0  0  0
   56.7758   27.9539   44.2589 H   0  0  0  0  0  0  0  0  0  0  0  0
   58.3459   27.1997   43.7264 H   0  0  0  0  0  0  0  0  0  0  0  0
   57.9410   33.3900   45.6820 C   0  0  0  0  0  0  0  0  0  0  0  0
   58.0120   33.3080   47.0890 C   0  0  0  0  0  0  0  0  0  0  0  0
   57.3705   32.5956   47.6284 H   0  0  0  0  0  0  0  0  0  0  0  0
   58.8930   34.1270   47.8010 C   0  0  0  0  0  0  0  0  0  0  0  0
   58.9364   34.0623   48.8982 H   0  0  0  0  0  0  0  0  0  0  0  0
   59.7190   35.0280   47.1230 C   0  0  0  0  0  0  0  0  0  0  0  0
   60.4082   35.6745   47.6861 H   0  0  0  0  0  0  0  0  0  0  0  0
   59.6680   35.1060   45.7310 C   0  0  0  0  0  0  0  0  0  0  0  0
   60.3213   35.8116   45.1969 H   0  0  0  0  0  0  0  0  0  0  0  0
   58.7890   34.2900   45.0130 C   0  0  0  0  0  0  0  0  0  0  0  0
   58.7605   34.3526   43.9152 H   0  0  0  0  0  0  0  0  0  0  0  0
  1  2  1  0
  2  3  2  0
  3  4  1  0
  3  5  1  0
  5  6  1  0
  5  7  1  0
  5  8  1  0
  8  9  1  0
  9 10  1  0
  9 11  1  0
  9 12  1  0
 12 13  1  0
 12 14  1  0
 12 15  1  0
 15 16  1  0
 16 17  1  0
 16 18  1  0
 16 19  1  0
 19 20  1  0
 19 21  1  0
 19 22  1  0
 22 23  1  0
 23 24  1  0
 23 25  1  0
 25 26  2  0
 26 27  1  0
 26 28  1  0
 28 29  1  0
 28 30  2  0
 30 31  1  0
 30 32  1  0
 32 33  1  0
 32 34  2  0
 34 35  1  0
 23 36  1  0
 36 37  2  0
 37 38  1  0
 37 39  1  0
 39 40  1  0
 39 41  2  0
 41 42  1  0
 41 43  1  0
 43 44  1  0
 43 45  2  0
 45 46  1  0
 15 47  1  0
 47 48  1  0
 47 49  1  0
 47 50  1  0
 50 51  1  0
 50 52  1  0
  2 53  1  0
 53 54  2  0
 54 55  1  0
 54 56  1  0
 56 57  1  0
 56 58  2  0
 58 59  1  0
 58 60  1  0
 60 61  1  0
 60 62  2  0
 62 63  1  0
 50  8  1  0
 62 53  1  0
 34 25  1  0
 45 36  1  0
M  END
>  <UniqueID>  (5) 
4

>  <SMILES>  (5) 
Fc1ccc(C(OCCN2CCN(C/C=C/c3ccccc3)CC2)c2ccc(F)cc2)cc1

>  <Energy>  (5) 
85.68202383601825

>  <Genealogy>  (5) 
Fc1ccc(C(OCCN2CCN(C/C=C/c3ccccc3)CC2)c2ccc(F)cc2)cc1 (cis-trans isomerization)
Fc1ccc(C(OCCN2CCN(C/C=C/c3ccccc3)CC2)c2ccc(F)cc2)cc1 (3D coordinates assigned)
Fc1ccc(C(OCCN2CCN(C/C=C/c3ccccc3)CC2)c2ccc(F)cc2)cc1 (nonaromatic ring conformer: 85.68202383601825 kcal/mol)

>  <smiles>  (5) 
Fc1ccc(C(OCCN2CCN(CC=Cc3ccccc3)CC2)c2ccc(F)cc2)cc1

>  <score_type>  (5) 
oracle

>  <origin>  (5) 
adg

>  <m_score__min__energy>  (5) 
-8.4100000000000001

>  <m_primary>  (5) 
energy

$$$$
5:0
     RDKit          3D

 76 81  0  0  0  0  0  0  0  0999 V2000
   57.7900   31.9720   42.8690 C   0  0  0  0  0  0  0  0  0  0  0  0
   57.6830   31.5300   44.3370 C   0  0  0  0  0  0  0  0  0  0  0  0
   57.5960   29.9850   44.5630 C   0  0  2  0  0  0  0  0  0  0  0  0
   58.1970   29.3280   43.4690 O   0  0  0  0  0  0  0  0  0  0  0  0
   56.1540   29.5030   44.7260 C   0  0  0  0  0  0  0  0  0  0  0  0
   55.1680   30.2290   44.4340 O   0  0  0  0  0  0  0  0  0  0  0  0
   55.9200   28.2260   45.2440 O   0  0  0  0  0  0  0  0  0  0  0  0
   56.9970   27.3800   45.6360 C   0  0  0  0  0  0  0  0  0  0  0  0
   58.0680   28.2020   46.3140 C   0  0  0  0  0  0  0  0  0  0  0  0
   58.3440   29.5090   45.8250 C   0  0  0  0  0  0  0  0  0  0  0  0
   59.3350   30.2780   46.4820 C   0  0  0  0  0  0  0  0  0  0  0  0
   60.0540   29.7090   47.5390 C   0  0  0  0  0  0  0  0  0  0  0  0
   59.7300   28.4810   48.0030 N   0  0  0  0  0  0  0  0  0  0  0  0
   58.7780   27.7040   47.4250 C   0  0  0  0  0  0  0  0  0  0  0  0
   58.5320   26.5560   47.8860 O   0  0  0  0  0  0  0  0  0  0  0  0
   60.4730   28.1660   49.2210 C   0  0  0  0  0  0  0  0  0  0  0  0
   61.2800   29.4100   49.4410 C   0  0  0  0  0  0  0  0  0  0  0  0
   62.0890   29.7390   50.5240 C   0  0  0  0  0  0  0  0  0  0  0  0
   62.2280   28.8350   51.6290 N   0  0  0  0  0  0  0  0  0  0  0  0
   61.5630   29.0990   52.9040 C   0  0  0  0  0  0  0  0  0  0  0  0
   60.0440   29.1910   52.7160 C   0  0  0  0  0  0  0  0  0  0  0  0
   59.5950   30.6550   52.5360 C   0  0  0  0  0  0  0  0  0  0  0  0
   58.2850   30.9390   53.1780 N   0  0  2  0  0  0  0  0  0  0  0  0
   57.2980   29.8880   52.8520 C   0  0  0  0  0  0  0  0  0  0  0  0
   57.7950   32.2680   52.7340 C   0  0  0  0  0  0  0  0  0  0  0  0
   58.3580   32.6650   51.3880 C   0  0  0  0  0  0  0  0  0  0  0  0
   59.2970   33.7070   51.2860 C   0  0  0  0  0  0  0  0  0  0  0  0
   59.8240   34.0600   50.0400 C   0  0  0  0  0  0  0  0  0  0  0  0
   59.4180   33.3800   48.8880 C   0  0  0  0  0  0  0  0  0  0  0  0
   58.4850   32.3440   48.9820 C   0  0  0  0  0  0  0  0  0  0  0  0
   57.9560   31.9860   50.2260 C   0  0  0  0  0  0  0  0  0  0  0  0
   62.6830   31.0200   50.5420 C   0  0  0  0  0  0  0  0  0  0  0  0
   63.4740   31.4330   51.6330 C   0  0  0  0  0  0  0  0  0  0  0  0
   64.0380   32.7070   51.6580 C   0  0  0  0  0  0  0  0  0  0  0  0
   63.8200   33.5900   50.6050 C   0  0  0  0  0  0  0  0  0  0  0  0
   63.0560   33.2000   49.5040 C   0  0  0  0  0  0  0  0  0  0  0  0
   62.4950   31.9030   49.4300 C   0  0  0  0  0  0  0  0  0  0  0  0
   61.7620   31.4880   48.3280 N   0  0  0  0  0  0  0  0  0  0  0  0
   61.7840   32.2450   47.0650 C   0  0  0  0  0  0  0  0  0  0  0  0
   61.0750   30.3030   48.4130 C   0  0  0  0  0  0  0  0  0  0  0  0
   58.0486   33.0403   42.8256 H   0  0  0  0  0  0  0  0  0  0  0  0
   58.5719   31.3847   42.3653 H   0  0  0  0  0  0  0  0  0  0  0  0
   56.8261   31.8074   42.3653 H   0  0  0  0  0  0  0  0  0  0  0  0
   58.5703   31.9024   44.8700 H   0  0  0  0  0  0  0  0  0  0  0  0
   56.7371   31.9470   44.7130 H   0  0  0  0  0  0  0  0  0  0  0  0
   57.7520   29.6280   42.6340 H   0  0  0  0  0  0  0  0  0  0  0  0
   56.6260   26.6152   46.3341 H   0  0  0  0  0  0  0  0  0  0  0  0
   57.4205   26.8923   44.7456 H   0  0  0  0  0  0  0  0  0  0  0  0
   59.5375   31.3116   46.1648 H   0  0  0  0  0  0  0  0  0  0  0  0
   59.7922   27.9796   50.0647 H   0  0  0  0  0  0  0  0  0  0  0  0
   61.0850   27.2558   49.1377 H   0  0  0  0  0  0  0  0  0  0  0  0
   62.6430   27.8930   51.4440 H   0  0  0  0  0  0  0  0  0  0  0  0
   61.7910   28.2830   53.6056 H   0  0  0  0  0  0  0  0  0  0  0  0
   61.9283   30.0577   53.3008 H   0  0  0  0  0  0  0  0  0  0  0  0
   59.7568   28.6148   51.8241 H   0  0  0  0  0  0  0  0  0  0  0  0
   59.5554   28.7834   53.6133 H   0  0  0  0  0  0  0  0  0  0  0  0
   60.3551   31.3131   52.9823 H   0  0  0  0  0  0  0  0  0  0  0  0
   59.4811   30.8361   51.4570 H   0  0  0  0  0  0  0  0  0  0  0  0
   58.4220   30.9610   54.2170 H   0  0  0  0  0  0  0  0  0  0  0  0
   56.8966   29.4606   53.7827 H   0  0  0  0  0  0  0  0  0  0  0  0
   56.4768   30.3255   52.2654 H   0  0  0  0  0  0  0  0  0  0  0  0
   57.7862   29.0958   52.2654 H   0  0  0  0  0  0  0  0  0  0  0  0
   56.6978   32.2352   52.6631 H   0  0  0  0  0  0  0  0  0  0  0  0
   58.1270   33.0135   53.4716 H   0  0  0  0  0  0  0  0  0  0  0  0
   59.6179   34.2461   52.1895 H   0  0  0  0  0  0  0  0  0  0  0  0
   60.5596   34.8745   49.9660 H   0  0  0  0  0  0  0  0  0  0  0  0
   59.8326   33.6602   47.9084 H   0  0  0  0  0  0  0  0  0  0  0  0
   58.1660   31.8089   48.0754 H   0  0  0  0  0  0  0  0  0  0  0  0
   57.2222   31.1694   50.2948 H   0  0  0  0  0  0  0  0  0  0  0  0
   63.6477   30.7435   52.4723 H   0  0  0  0  0  0  0  0  0  0  0  0
   64.6575   33.0156   52.5129 H   0  0  0  0  0  0  0  0  0  0  0  0
   64.2521   34.6009   50.6405 H   0  0  0  0  0  0  0  0  0  0  0  0
   62.8875   33.9112   48.6819 H   0  0  0  0  0  0  0  0  0  0  0  0
   61.8153   33.3226   47.2839 H   0  0  0  0  0  0  0  0  0  0  0  0
   62.6743   31.9629   46.4839 H   0  0  0  0  0  0  0  0  0  0  0  0
   60.8788   32.0150   46.4839 H   0  0  0  0  0  0  0  0  0  0  0  0
  1  2  1  0
  2  3  1  0
  3  4  1  6
  3  5  1  0
  5  6  2  0
  5  7  1  0
  7  8  1  0
  8  9  1  0
  9 10  2  0
 10 11  1  0
 11 12  2  0
 12 13  1  0
 13 14  1  0
 14 15  2  0
 13 16  1  0
 16 17  1  0
 17 18  2  0
 18 19  1  0
 19 20  1  0
 20 21  1  0
 21 22  1  0
 22 23  1  0
 23 24  1  0
 23 25  1  0
 25 26  1  0
 26 27  2  0
 27 28  1  0
 28 29  2  0
 29 30  1  0
 30 31  2  0
 18 32  1  0
 32 33  2  0
 33 34  1  0
 34 35  2  0
 35 36  1  0
 36 37  2  0
 37 38  1  0
 38 39  1  0
 38 40  2  0
 10  3  1  0
 40 12  1  0
 14  9  1  0
 40 17  1  0
 31 26  1  0
 37 32  1  0
  1 41  1  0
  1 42  1  0
  1 43  1  0
  2 44  1  0
  2 45  1  0
  4 46  1  0
  8 47  1  0
  8 48  1  0
 11 49  1  0
 16 50  1  0
 16 51  1  0
 19 52  1  0
 20 53  1  0
 20 54  1  0
 21 55  1  0
 21 56  1  0
 22 57  1  0
 22 58  1  0
 23 59  1  1
 24 60  1  0
 24 61  1  0
 24 62  1  0
 25 63  1  0
 25 64  1  0
 27 65  1  0
 28 66  1  0
 29 67  1  0
 30 68  1  0
 31 69  1  0
 33 70  1  0
 34 71  1  0
 35 72  1  0
 36 73  1  0
 39 74  1  0
 39 75  1  0
 39 76  1  0
M  CHG  2  23   1  38   1
M  END
>  <UniqueID>  (6) 
5

>  <SMILES>  (6) 
CC[C@]1(O)C(=O)OCc2c1cc1n(c2=O)Cc2c(NCCC[N@H+](C)Cc3ccccc3)c3ccccc3[n+](C)c2-1

>  <Energy>  (6) 
140.31538927095215

>  <Genealogy>  (6) 
CCC1(O)C(=O)OCc2c1cc1n(c2=O)Cc2c(NCCC[NH+](C)Cc3ccccc3)c3ccccc3[n+](C)c2-1 (protonated)
CC[C@]1(O)C(=O)OCc2c1cc1n(c2=O)Cc2c(NCCC[N@H+](C)Cc3ccccc3)c3ccccc3[n+](C)c2-1 (chirality)
CC[C@]1(O)C(=O)OCc2c1cc1n(c2=O)Cc2c(NCCC[N@H+](C)Cc3ccccc3)c3ccccc3[n+](C)c2-1 (3D coordinates assigned)
CC[C@]1(O)C(=O)OCc2c1cc1n(c2=O)Cc2c(NCCC[N@H+](C)Cc3ccccc3)c3ccccc3[n+](C)c2-1 (nonaromatic ring conformer: 140.31538927095215 kcal/mol)

>  <smiles>  (6) 
CCC1(O)C(=O)OCc2c1cc1n(c2=O)Cc2c(NCCCN(C)Cc3ccccc3)c3ccccc3[n+](C)c2-1

>  <score_type>  (6) 
oracle

>  <origin>  (6) 
adg

>  <m_score__min__energy>  (6) 
-6.7300000000000004

>  <m_primary>  (6) 
energy

$$$$
6:0
     RDKit          3D

 35 37  0  0  0  0  0  0  0  0999 V2000
   55.1630   29.3310   44.8660 O   0  0  0  0  0  0  0  0  0  0  0  0
   56.2180   29.8630   44.4330 C   0  0  0  0  0  0  0  0  0  0  0  0
   57.2070   29.0140   43.6750 C   0  0  0  0  0  0  0  0  0  0  0  0
   58.2140   28.4540   44.5750 N   0  0  0  0  0  0  0  0  0  0  0  0
   58.0050   27.6140   45.6030 C   0  0  0  0  0  0  0  0  0  0  0  0
   59.2230   27.3450   46.1830 C   0  0  0  0  0  0  0  0  0  0  0  0
   60.1930   28.0180   45.5310 N   0  0  0  0  0  0  0  0  0  0  0  0
   59.5410   28.6880   44.5590 C   0  0  0  0  0  0  0  0  0  0  0  0
   56.4630   31.2470   44.7210 N   0  0  0  0  0  0  0  0  0  0  0  0
   57.6120   31.7650   45.4010 C   0  0  0  0  0  0  0  0  0  0  0  0
   58.1320   33.0290   45.0890 C   0  0  0  0  0  0  0  0  0  0  0  0
   59.2630   33.5100   45.7550 C   0  0  0  0  0  0  0  0  0  0  0  0
   59.8830   32.7390   46.7550 C   0  0  0  0  0  0  0  0  0  0  0  0
   61.0940   33.2400   47.4540 C   0  0  0  0  0  0  0  0  0  0  0  0
   61.0050   33.7560   48.7600 C   0  0  0  0  0  0  0  0  0  0  0  0
   62.1480   34.2280   49.4140 C   0  0  0  0  0  0  0  0  0  0  0  0
   63.3880   34.1930   48.7730 C   0  0  0  0  0  0  0  0  0  0  0  0
   63.4890   33.6840   47.4750 C   0  0  0  0  0  0  0  0  0  0  0  0
   62.3500   33.2090   46.8180 C   0  0  0  0  0  0  0  0  0  0  0  0
   59.3340   31.4870   47.0860 C   0  0  0  0  0  0  0  0  0  0  0  0
   58.2010   31.0120   46.4200 C   0  0  0  0  0  0  0  0  0  0  0  0
   56.6700   28.1917   43.1796 H   0  0  0  0  0  0  0  0  0  0  0  0
   57.7141   29.6460   42.9311 H   0  0  0  0  0  0  0  0  0  0  0  0
   57.0324   27.2127   45.9238 H   0  0  0  0  0  0  0  0  0  0  0  0
   59.3816   26.6823   47.0465 H   0  0  0  0  0  0  0  0  0  0  0  0
   60.0367   29.3510   43.8346 H   0  0  0  0  0  0  0  0  0  0  0  0
   57.6479   33.6449   44.3168 H   0  0  0  0  0  0  0  0  0  0  0  0
   59.6709   34.4980   45.4954 H   0  0  0  0  0  0  0  0  0  0  0  0
   60.0308   33.7884   49.2698 H   0  0  0  0  0  0  0  0  0  0  0  0
   62.0697   34.6277   50.4358 H   0  0  0  0  0  0  0  0  0  0  0  0
   64.2850   34.5658   49.2892 H   0  0  0  0  0  0  0  0  0  0  0  0
   64.4658   33.6572   46.9699 H   0  0  0  0  0  0  0  0  0  0  0  0
   62.4355   32.8083   45.7972 H   0  0  0  0  0  0  0  0  0  0  0  0
   59.7997   30.8776   47.8745 H   0  0  0  0  0  0  0  0  0  0  0  0
   57.7702   30.0393   46.6997 H   0  0  0  0  0  0  0  0  0  0  0  0
  1  2  2  0
  2  3  1  0
  3  4  1  0
  4  5  1  0
  5  6  2  0
  6  7  1  0
  7  8  2  0
  2  9  1  0
  9 10  1  0
 10 11  2  0
 11 12  1  0
 12 13  2  0
 13 14  1  0
 14 15  2  0
 15 16  1  0
 16 17  2  0
 17 18  1  0
 18 19  2  0
 13 20  1  0
 20 21  2  0
  8  4  1  0
 21 10  1  0
 19 14  1  0
  3 22  1  0
  3 23  1  0
  5 24  1  0
  6 25  1  0
  8 26  1  0
 11 27  1  0
 12 28  1  0
 15 29  1  0
 16 30  1  0
 17 31  1  0
 18 32  1  0
 19 33  1  0
 20 34  1  0
 21 35  1  0
M  CHG  1   9  -1
M  END
>  <UniqueID>  (7) 
6

>  <SMILES>  (7) 
O=C(Cn1ccnc1)[N-]c1ccc(-c2ccccc2)cc1

>  <Energy>  (7) 
74.45628556289084

>  <Genealogy>  (7) 
O=C(Cn1ccnc1)[N-]c1ccc(-c2ccccc2)cc1 (protonated)
O=C(Cn1ccnc1)[N-]c1ccc(-c2ccccc2)cc1 (3D coordinates assigned)
O=C(Cn1ccnc1)[N-]c1ccc(-c2ccccc2)cc1 (optimized conformer: 74.45628556289084 kcal/mol)

>  <smiles>  (7) 
O=C(Cn1ccnc1)Nc1ccc(-c2ccccc2)cc1

>  <score_type>  (7) 
oracle

>  <origin>  (7) 
adg

>  <m_score__min__energy>  (7) 
-8.8699999999999992

>  <m_primary>  (7) 
energy

$$$$
7:0
     RDKit          3D

 64 67  0  0  0  0  0  0  0  0999 V2000
   58.5160   32.3810   49.1380 C   0  0  0  0  0  0  0  0  0  0  0  0
   59.6540   33.2850   48.8920 N   0  0  0  0  0  0  0  0  0  0  0  0
   60.1120   33.8500   50.1730 C   0  0  0  0  0  0  0  0  0  0  0  0
   59.2760   34.3710   47.9610 C   0  0  0  0  0  0  0  0  0  0  0  0
   59.1040   33.8210   46.5380 C   0  0  0  0  0  0  0  0  0  0  0  0
   60.1000   32.7880   46.2550 N   0  0  0  0  0  0  0  0  0  0  0  0
   59.8560   31.3770   46.3870 C   0  0  0  0  0  0  0  0  0  0  0  0
   58.8190   30.6520   45.7810 C   0  0  0  0  0  0  0  0  0  0  0  0
   58.9540   29.3970   46.2650 C   0  0  0  0  0  0  0  0  0  0  0  0
   58.1000   28.3560   46.0160 C   0  0  0  0  0  0  0  0  0  0  0  0
   58.3530   27.1260   46.6630 C   0  0  0  0  0  0  0  0  0  0  0  0
   57.4960   25.9920   46.4410 N   0  0  0  0  0  0  0  0  0  0  0  0
   57.1690   25.1200   47.5750 C   0  0  0  0  0  0  0  0  0  0  0  0
   56.1450   24.0610   47.1750 C   0  0  0  0  0  0  0  0  0  0  0  0
   55.1840   24.6410   46.3180 O   0  0  0  0  0  0  0  0  0  0  0  0
   55.7580   24.8280   45.0380 C   0  0  0  0  0  0  0  0  0  0  0  0
   57.0420   25.6920   45.0710 C   0  0  0  0  0  0  0  0  0  0  0  0
   59.4660   27.0300   47.5490 C   0  0  0  0  0  0  0  0  0  0  0  0
   60.3090   28.1450   47.7790 C   0  0  0  0  0  0  0  0  0  0  0  0
   60.0130   29.3350   47.1060 C   0  0  0  0  0  0  0  0  0  0  0  0
   60.5970   30.5530   47.1920 N   0  0  0  0  0  0  0  0  0  0  0  0
   61.7710   30.9000   48.0000 C   0  0  0  0  0  0  0  0  0  0  0  0
   62.7980   31.6570   47.1540 C   0  0  0  0  0  0  0  0  0  0  0  0
   62.7310   33.1090   47.4370 N   0  0  0  0  0  0  0  0  0  0  0  0
   63.3830   33.8820   46.3670 C   0  0  0  0  0  0  0  0  0  0  0  0
   63.3620   33.4240   48.7320 C   0  0  0  0  0  0  0  0  0  0  0  0
   57.0130   28.6030   45.1640 O   0  0  0  0  0  0  0  0  0  0  0  0
   57.0040   29.7460   44.2800 C   0  0  0  0  0  0  0  0  0  0  0  0
   57.6470   31.0210   44.9090 C   0  0  0  0  0  0  0  0  0  0  0  0
   58.3684   32.2638   50.2217 H   0  0  0  0  0  0  0  0  0  0  0  0
   57.6065   32.8056   48.6879 H   0  0  0  0  0  0  0  0  0  0  0  0
   58.7238   31.3990   48.6879 H   0  0  0  0  0  0  0  0  0  0  0  0
   59.6581   33.2900   51.0039 H   0  0  0  0  0  0  0  0  0  0  0  0
   61.2077   33.7754   50.2358 H   0  0  0  0  0  0  0  0  0  0  0  0
   59.8123   34.9065   50.2358 H   0  0  0  0  0  0  0  0  0  0  0  0
   58.3281   34.8195   48.2932 H   0  0  0  0  0  0  0  0  0  0  0  0
   60.0723   35.1299   47.9562 H   0  0  0  0  0  0  0  0  0  0  0  0
   58.0976   33.3883   46.4381 H   0  0  0  0  0  0  0  0  0  0  0  0
   59.2396   34.6459   45.8231 H   0  0  0  0  0  0  0  0  0  0  0  0
   61.0700   33.1050   46.0410 H   0  0  0  0  0  0  0  0  0  0  0  0
   58.0862   24.6207   47.9207 H   0  0  0  0  0  0  0  0  0  0  0  0
   56.7391   25.7367   48.3780 H   0  0  0  0  0  0  0  0  0  0  0  0
   56.6534   23.2371   46.6528 H   0  0  0  0  0  0  0  0  0  0  0  0
   55.6479   23.6705   48.0753 H   0  0  0  0  0  0  0  0  0  0  0  0
   56.0094   23.8424   44.6193 H   0  0  0  0  0  0  0  0  0  0  0  0
   55.0192   25.3602   44.4208 H   0  0  0  0  0  0  0  0  0  0  0  0
   57.8430   25.1506   44.5464 H   0  0  0  0  0  0  0  0  0  0  0  0
   56.8082   26.6499   44.5834 H   0  0  0  0  0  0  0  0  0  0  0  0
   59.6726   26.0782   48.0603 H   0  0  0  0  0  0  0  0  0  0  0  0
   61.1673   28.0773   48.4636 H   0  0  0  0  0  0  0  0  0  0  0  0
   61.4567   31.5346   48.8417 H   0  0  0  0  0  0  0  0  0  0  0  0
   62.2315   29.9742   48.3752 H   0  0  0  0  0  0  0  0  0  0  0  0
   63.8064   31.2876   47.3919 H   0  0  0  0  0  0  0  0  0  0  0  0
   62.5756   31.4905   46.0897 H   0  0  0  0  0  0  0  0  0  0  0  0
   64.0313   34.6507   46.8129 H   0  0  0  0  0  0  0  0  0  0  0  0
   63.9889   33.2074   45.7443 H   0  0  0  0  0  0  0  0  0  0  0  0
   62.6159   34.3655   45.7443 H   0  0  0  0  0  0  0  0  0  0  0  0
   62.7040   33.0955   49.5500 H   0  0  0  0  0  0  0  0  0  0  0  0
   64.3275   32.9021   48.8060 H   0  0  0  0  0  0  0  0  0  0  0  0
   63.5252   34.5093   48.8060 H   0  0  0  0  0  0  0  0  0  0  0  0
   57.5633   29.4866   43.3690 H   0  0  0  0  0  0  0  0  0  0  0  0
   55.9512   29.9842   44.0679 H   0  0  0  0  0  0  0  0  0  0  0  0
   57.9916   31.6863   44.1037 H   0  0  0  0  0  0  0  0  0  0  0  0
   56.8924   31.5290   45.5274 H   0  0  0  0  0  0  0  0  0  0  0  0
  1  2  1  0
  2  3  1  0
  2  4  1  0
  4  5  1  0
  5  6  1  0
  6  7  1  0
  7  8  2  0
  8  9  1  0
  9 10  2  0
 10 11  1  0
 11 12  1  0
 12 13  1  0
 13 14  1  0
 14 15  1  0
 15 16  1  0
 16 17  1  0
 11 18  2  0
 18 19  1  0
 19 20  2  0
 20 21  1  0
 21 22  1  0
 22 23  1  0
 23 24  1  0
 24 25  1  0
 24 26  1  0
 10 27  1  0
 27 28  1  0
 28 29  1  0
 21  7  1  0
 29  8  1  0
 20  9  1  0
 17 12  1  0
  1 30  1  0
  1 31  1  0
  1 32  1  0
  3 33  1  0
  3 34  1  0
  3 35  1  0
  4 36  1  0
  4 37  1  0
  5 38  1  0
  5 39  1  0
  6 40  1  0
 13 41  1  0
 13 42  1  0
 14 43  1  0
 14 44  1  0
 16 45  1  0
 16 46  1  0
 17 47  1  0
 17 48  1  0
 18 49  1  0
 19 50  1  0
 22 51  1  0
 22 52  1  0
 23 53  1  0
 23 54  1  0
 25 55  1  0
 25 56  1  0
 25 57  1  0
 26 58  1  0
 26 59  1  0
 26 60  1  0
 28 61  1  0
 28 62  1  0
 29 63  1  0
 29 64  1  0
M  END
>  <UniqueID>  (8) 
7

>  <SMILES>  (8) 
CN(C)CCNc1c2c3c(c(N4CCOCC4)ccc3n1CCN(C)C)OCC2

>  <Energy>  (8) 
117.91508447882919

>  <Genealogy>  (8) 
CN(C)CCNc1c2c3c(c(N4CCOCC4)ccc3n1CCN(C)C)OCC2 (3D coordinates assigned)
CN(C)CCNc1c2c3c(c(N4CCOCC4)ccc3n1CCN(C)C)OCC2 (nonaromatic ring conformer: 117.91508447882919 kcal/mol)

>  <smiles>  (8) 
CN(C)CCNc1c2c3c(c(N4CCOCC4)ccc3n1CCN(C)C)OCC2

>  <score_type>  (8) 
oracle

>  <origin>  (8) 
adg

>  <m_score__min__energy>  (8) 
-6.8700000000000001

>  <m_primary>  (8) 
energy

$$$$
8:0
     RDKit          3D

 47 49  0  0  0  0  0  0  0  0999 V2000
   63.0040   33.7170   46.7390 C   0  0  0  0  0  0  0  0  0  0  0  0
   62.7960   32.4850   47.5150 N   0  0  0  0  0  0  0  0  0  0  0  0
   63.9530   32.2080   48.3800 C   0  0  0  0  0  0  0  0  0  0  0  0
   61.5110   32.4800   48.2530 C   0  0  0  0  0  0  0  0  0  0  0  0
   60.3180   32.0530   47.4120 C   0  0  0  0  0  0  0  0  0  0  0  0
   59.8740   30.7280   47.4760 C   0  0  0  0  0  0  0  0  0  0  0  0
   58.7550   30.3010   46.7500 C   0  0  0  0  0  0  0  0  0  0  0  0
   58.2900   28.8720   46.9190 C   0  0  0  0  0  0  0  0  0  0  0  0
   57.6280   28.3830   45.6900 N   0  0  0  0  0  0  0  0  0  0  0  0
   56.7740   27.1960   45.9650 C   0  0  0  0  0  0  0  0  0  0  0  0
   57.4560   25.8740   45.5870 C   0  0  0  0  0  0  0  0  0  0  0  0
   57.8010   25.8380   44.0870 C   0  0  0  0  0  0  0  0  0  0  0  0
   58.0720   27.2370   43.5090 C   0  0  0  0  0  0  0  0  0  0  0  0
   58.6090   28.1820   44.5900 C   0  0  0  0  0  0  0  0  0  0  0  0
   58.0580   31.2110   45.9280 C   0  0  0  0  0  0  0  0  0  0  0  0
   56.9270   30.7530   45.2440 O   0  0  0  0  0  0  0  0  0  0  0  0
   58.5170   32.5510   45.8250 C   0  0  0  0  0  0  0  0  0  0  0  0
   57.8970   33.5120   45.0050 C   0  0  0  0  0  0  0  0  0  0  0  0
   58.3980   34.8100   44.9510 C   0  0  0  0  0  0  0  0  0  0  0  0
   59.5170   35.1350   45.7150 C   0  0  0  0  0  0  0  0  0  0  0  0
   59.9860   36.3030   45.6810 O   0  0  0  0  0  0  0  0  0  0  0  0
   60.0930   34.2170   46.4820 O   0  0  0  0  0  0  0  0  0  0  0  0
   59.6520   32.9630   46.5720 C   0  0  0  0  0  0  0  0  0  0  0  0
   63.1469   34.5637   47.4265 H   0  0  0  0  0  0  0  0  0  0  0  0
   63.8959   33.6048   46.1050 H   0  0  0  0  0  0  0  0  0  0  0  0
   62.1247   33.9039   46.1050 H   0  0  0  0  0  0  0  0  0  0  0  0
   63.6483   32.2810   49.4344 H   0  0  0  0  0  0  0  0  0  0  0  0
   64.3289   31.1945   48.1762 H   0  0  0  0  0  0  0  0  0  0  0  0
   64.7471   32.9414   48.1762 H   0  0  0  0  0  0  0  0  0  0  0  0
   61.6021   31.7865   49.1019 H   0  0  0  0  0  0  0  0  0  0  0  0
   61.3222   33.5158   48.5716 H   0  0  0  0  0  0  0  0  0  0  0  0
   60.4139   30.0079   48.1084 H   0  0  0  0  0  0  0  0  0  0  0  0
   59.1590   28.2341   47.1381 H   0  0  0  0  0  0  0  0  0  0  0  0
   57.5665   28.8336   47.7467 H   0  0  0  0  0  0  0  0  0  0  0  0
   56.5365   27.1748   47.0388 H   0  0  0  0  0  0  0  0  0  0  0  0
   55.8674   27.2896   45.3491 H   0  0  0  0  0  0  0  0  0  0  0  0
   58.3818   25.7673   46.1713 H   0  0  0  0  0  0  0  0  0  0  0  0
   56.7634   25.0481   45.8064 H   0  0  0  0  0  0  0  0  0  0  0  0
   58.6993   25.2188   43.9468 H   0  0  0  0  0  0  0  0  0  0  0  0
   56.9333   25.4202   43.5554 H   0  0  0  0  0  0  0  0  0  0  0  0
   58.8143   27.1552   42.7013 H   0  0  0  0  0  0  0  0  0  0  0  0
   57.1268   27.6464   43.1229 H   0  0  0  0  0  0  0  0  0  0  0  0
   59.5312   27.7540   45.0100 H   0  0  0  0  0  0  0  0  0  0  0  0
   58.8015   29.1591   44.1229 H   0  0  0  0  0  0  0  0  0  0  0  0
   56.2590   30.0910   45.6100 H   0  0  0  0  0  0  0  0  0  0  0  0
   57.0160   33.2376   44.4063 H   0  0  0  0  0  0  0  0  0  0  0  0
   57.9175   35.5677   44.3146 H   0  0  0  0  0  0  0  0  0  0  0  0
  1  2  1  0
  2  3  1  0
  2  4  1  0
  4  5  1  0
  5  6  2  0
  6  7  1  0
  7  8  1  0
  8  9  1  0
  9 10  1  0
 10 11  1  0
 11 12  1  0
 12 13  1  0
 13 14  1  0
  7 15  2  0
 15 16  1  0
 15 17  1  0
 17 18  1  0
 18 19  2  0
 19 20  1  0
 20 21  2  0
 20 22  1  0
 22 23  1  0
 23  5  1  0
 14  9  1  0
 23 17  2  0
  1 24  1  0
  1 25  1  0
  1 26  1  0
  3 27  1  0
  3 28  1  0
  3 29  1  0
  4 30  1  0
  4 31  1  0
  6 32  1  0
  8 33  1  0
  8 34  1  0
 10 35  1  0
 10 36  1  0
 11 37  1  0
 11 38  1  0
 12 39  1  0
 12 40  1  0
 13 41  1  0
 13 42  1  0
 14 43  1  0
 14 44  1  0
 16 45  1  0
 18 46  1  0
 19 47  1  0
M  END
>  <UniqueID>  (9) 
8

>  <SMILES>  (9) 
CN(C)Cc1cc(CN2CCCCC2)c(O)c2ccc(=O)oc12

>  <Energy>  (9) 
64.78127236914686

>  <Genealogy>  (9) 
CN(C)Cc1cc(CN2CCCCC2)c(O)c2ccc(=O)oc12 (3D coordinates assigned)
CN(C)Cc1cc(CN2CCCCC2)c(O)c2ccc(=O)oc12 (nonaromatic ring conformer: 64.78127236914686 kcal/mol)

>  <smiles>  (9) 
CN(C)Cc1cc(CN2CCCCC2)c(O)c2ccc(=O)oc12

>  <score_type>  (9) 
oracle

>  <origin>  (9) 
adg

>  <m_score__min__energy>  (9) 
-7.1900000000000004

>  <m_primary>  (9) 
energy

$$$$
9:0
     RDKit          3D

 60 62  0  0  0  0  0  0  0  0999 V2000
   55.1550   29.7160   43.7290 C   0  0  0  0  0  0  0  0  0  0  0  0
   55.7340   29.0710   44.8570 O   0  0  0  0  0  0  0  0  0  0  0  0
   57.0120   29.3550   45.3630 C   0  0  0  0  0  0  0  0  0  0  0  0
   57.7820   30.4400   44.9050 C   0  0  0  0  0  0  0  0  0  0  0  0
   59.0510   30.6770   45.4400 C   0  0  0  0  0  0  0  0  0  0  0  0
   59.5720   29.8360   46.4340 C   0  0  0  0  0  0  0  0  0  0  0  0
   60.9380   30.1040   47.0170 C   0  0  0  0  0  0  0  0  0  0  0  0
   61.0350   29.6810   48.4910 C   0  0  0  0  0  0  0  0  0  0  0  0
   61.3570   30.8630   49.4180 C   0  0  0  0  0  0  0  0  0  0  0  0
   60.8870   30.6680   50.8770 C   0  0  0  0  0  0  0  0  0  0  0  0
   59.6020   31.3080   51.2700 N   0  0  0  0  0  0  0  0  0  0  0  0
   58.5790   30.3590   51.7410 C   0  0  0  0  0  0  0  0  0  0  0  0
   59.0540   32.3080   50.3290 C   0  0  0  0  0  0  0  0  0  0  0  0
   59.4780   33.7320   50.7110 C   0  0  0  0  0  0  0  0  0  0  0  0
   59.9970   34.4270   49.5740 O   0  0  0  0  0  0  0  0  0  0  0  0
   61.1510   34.0860   48.8460 C   0  0  0  0  0  0  0  0  0  0  0  0
   62.4220   34.0300   49.4480 C   0  0  0  0  0  0  0  0  0  0  0  0
   63.5440   33.6550   48.7060 C   0  0  0  0  0  0  0  0  0  0  0  0
   63.4120   33.3200   47.3600 C   0  0  0  0  0  0  0  0  0  0  0  0
   62.1570   33.3610   46.7500 C   0  0  0  0  0  0  0  0  0  0  0  0
   61.0210   33.7500   47.4800 C   0  0  0  0  0  0  0  0  0  0  0  0
   59.7050   33.8110   46.8030 C   0  0  0  0  0  0  0  0  0  0  0  0
   59.5760   34.4310   45.5480 C   0  0  0  0  0  0  0  0  0  0  0  0
   58.3310   34.4870   44.9140 C   0  0  0  0  0  0  0  0  0  0  0  0
   57.2090   33.9230   45.5240 C   0  0  0  0  0  0  0  0  0  0  0  0
   57.3300   33.2930   46.7660 C   0  0  0  0  0  0  0  0  0  0  0  0
   58.5730   33.2340   47.4030 C   0  0  0  0  0  0  0  0  0  0  0  0
   58.8020   28.7570   46.8940 C   0  0  0  0  0  0  0  0  0  0  0  0
   57.5320   28.5220   46.3600 C   0  0  0  0  0  0  0  0  0  0  0  0
   54.4564   30.4942   44.0702 H   0  0  0  0  0  0  0  0  0  0  0  0
   55.9488   30.1762   43.1223 H   0  0  0  0  0  0  0  0  0  0  0  0
   54.6121   28.9763   43.1223 H   0  0  0  0  0  0  0  0  0  0  0  0
   57.3838   31.1037   44.1234 H   0  0  0  0  0  0  0  0  0  0  0  0
   59.6455   31.5292   45.0789 H   0  0  0  0  0  0  0  0  0  0  0  0
   61.6863   29.5431   46.4378 H   0  0  0  0  0  0  0  0  0  0  0  0
   61.1200   31.1876   46.9647 H   0  0  0  0  0  0  0  0  0  0  0  0
   60.0734   29.2433   48.7972 H   0  0  0  0  0  0  0  0  0  0  0  0
   61.8546   28.9525   48.5783 H   0  0  0  0  0  0  0  0  0  0  0  0
   62.4470   31.0107   49.4232 H   0  0  0  0  0  0  0  0  0  0  0  0
   60.8118   31.7329   49.0231 H   0  0  0  0  0  0  0  0  0  0  0  0
   60.7842   29.5865   51.0496 H   0  0  0  0  0  0  0  0  0  0  0  0
   61.6514   31.1681   51.4899 H   0  0  0  0  0  0  0  0  0  0  0  0
   58.5675   30.3483   52.8409 H   0  0  0  0  0  0  0  0  0  0  0  0
   57.5919   30.6684   51.3670 H   0  0  0  0  0  0  0  0  0  0  0  0
   58.8135   29.3515   51.3670 H   0  0  0  0  0  0  0  0  0  0  0  0
   59.4218   32.0851   49.3166 H   0  0  0  0  0  0  0  0  0  0  0  0
   57.9561   32.2529   50.3681 H   0  0  0  0  0  0  0  0  0  0  0  0
   58.6049   34.2767   51.0996 H   0  0  0  0  0  0  0  0  0  0  0  0
   60.2638   33.6732   51.4785 H   0  0  0  0  0  0  0  0  0  0  0  0
   62.5325   34.2839   50.5126 H   0  0  0  0  0  0  0  0  0  0  0  0
   64.5338   33.6240   49.1850 H   0  0  0  0  0  0  0  0  0  0  0  0
   64.2969   33.0232   46.7779 H   0  0  0  0  0  0  0  0  0  0  0  0
   62.0565   33.0866   45.6895 H   0  0  0  0  0  0  0  0  0  0  0  0
   60.4582   34.8740   45.0627 H   0  0  0  0  0  0  0  0  0  0  0  0
   58.2355   34.9761   43.9333 H   0  0  0  0  0  0  0  0  0  0  0  0
   56.2291   33.9744   45.0269 H   0  0  0  0  0  0  0  0  0  0  0  0
   56.4464   32.8433   47.2425 H   0  0  0  0  0  0  0  0  0  0  0  0
   58.6653   32.7337   48.3783 H   0  0  0  0  0  0  0  0  0  0  0  0
   59.1990   28.0943   47.6771 H   0  0  0  0  0  0  0  0  0  0  0  0
   56.9353   27.6739   46.7270 H   0  0  0  0  0  0  0  0  0  0  0  0
  1  2  1  0
  2  3  1  0
  3  4  2  0
  4  5  1  0
  5  6  2  0
  6  7  1  0
  7  8  1  0
  8  9  1  0
  9 10  1  0
 10 11  1  0
 11 12  1  0
 11 13  1  0
 13 14  1  0
 14 15  1  0
 15 16  1  0
 16 17  2  0
 17 18  1  0
 18 19  2  0
 19 20  1  0
 20 21  2  0
 21 22  1  0
 22 23  2  0
 23 24  1  0
 24 25  2  0
 25 26  1  0
 26 27  2  0
  6 28  1  0
 28 29  2  0
 29  3  1  0
 21 16  1  0
 27 22  1  0
  1 30  1  0
  1 31  1  0
  1 32  1  0
  4 33  1  0
  5 34  1  0
  7 35  1  0
  7 36  1  0
  8 37  1  0
  8 38  1  0
  9 39  1  0
  9 40  1  0
 10 41  1  0
 10 42  1  0
 12 43  1  0
 12 44  1  0
 12 45  1  0
 13 46  1  0
 13 47  1  0
 14 48  1  0
 14 49  1  0
 17 50  1  0
 18 51  1  0
 19 52  1  0
 20 53  1  0
 23 54  1  0
 24 55  1  0
 25 56  1  0
 26 57  1  0
 27 58  1  0
 28 59  1  0
 29 60  1  0
M  END
>  <UniqueID>  (10) 
9

>  <SMILES>  (10) 
COc1ccc(CCCCN(C)CCOc2ccccc2-c2ccccc2)cc1

>  <Energy>  (10) 
71.64645558716165

>  <Genealogy>  (10) 
COc1ccc(CCCCN(C)CCOc2ccccc2-c2ccccc2)cc1 (3D coordinates assigned)
COc1ccc(CCCCN(C)CCOc2ccccc2-c2ccccc2)cc1 (optimized conformer: 71.64645558716165 kcal/mol)

>  <smiles>  (10) 
COc1ccc(CCCCN(C)CCOc2ccccc2-c2ccccc2)cc1

>  <score_type>  (10) 
oracle

>  <origin>  (10) 
adg

>  <m_score__min__energy>  (10) 
-8.2100000000000009

>  <m_primary>  (10) 
energy

$$$$
10:0
     RDKit          3D

 60 61  0  0  0  0  0  0  0  0999 V2000
   57.3930   27.8490   45.3130 C   0  0  0  0  0  0  0  0  0  0  0  0
   57.9220   28.8900   46.3010 C   0  0  0  0  0  0  0  0  0  0  0  0
   58.6970   29.9430   45.6050 N   0  0  0  0  0  0  0  0  0  0  0  0
   60.1460   29.7460   45.8460 C   0  0  0  0  0  0  0  0  0  0  0  0
   60.7410   28.7050   44.8990 C   0  0  0  0  0  0  0  0  0  0  0  0
   58.3780   29.9870   44.1510 C   0  0  0  0  0  0  0  0  0  0  0  0
   57.2270   30.9580   43.8920 C   0  0  0  0  0  0  0  0  0  0  0  0
   56.8770   31.6140   45.0930 O   0  0  0  0  0  0  0  0  0  0  0  0
   57.0120   33.0100   44.9260 C   0  0  0  0  0  0  0  0  0  0  0  0
   57.6490   33.6340   46.1760 C   0  0  0  0  0  0  0  0  0  0  0  0
   58.7420   32.8490   46.8130 N   0  0  0  0  0  0  0  0  0  0  0  0
   60.0940   33.0920   46.2400 C   0  0  0  0  0  0  0  0  0  0  0  0
   61.0060   34.0190   47.0740 C   0  0  0  0  0  0  0  0  0  0  0  0
   61.0030   33.7090   48.5220 N   0  0  0  0  0  0  0  0  0  0  0  0
   61.7160   32.4350   48.8740 C   0  0  0  0  0  0  0  0  0  0  0  0
   62.8940   32.6300   49.8710 C   0  0  0  0  0  0  0  0  0  0  0  0
   64.0230   33.5200   49.3100 C   0  0  0  0  0  0  0  0  0  0  0  0
   64.1330   33.4580   47.7780 C   0  0  0  0  0  0  0  0  0  0  0  0
   63.7450   32.0740   47.2560 C   0  0  0  0  0  0  0  0  0  0  0  0
   62.2810   31.7210   47.6000 C   0  0  0  0  0  0  0  0  0  0  0  0
   59.6060   33.8130   48.9880 C   0  0  0  0  0  0  0  0  0  0  0  0
   58.6820   32.7970   48.2950 C   0  0  0  0  0  0  0  0  0  0  0  0
   56.9627   27.0023   45.8679 H   0  0  0  0  0  0  0  0  0  0  0  0
   56.6172   28.3049   44.6803 H   0  0  0  0  0  0  0  0  0  0  0  0
   58.2186   27.4912   44.6803 H   0  0  0  0  0  0  0  0  0  0  0  0
   57.0720   29.3550   46.8218 H   0  0  0  0  0  0  0  0  0  0  0  0
   58.5861   28.3846   47.0176 H   0  0  0  0  0  0  0  0  0  0  0  0
   60.6658   30.7036   45.6948 H   0  0  0  0  0  0  0  0  0  0  0  0
   60.2757   29.3850   46.8769 H   0  0  0  0  0  0  0  0  0  0  0  0
   61.2028   27.8971   45.4856 H   0  0  0  0  0  0  0  0  0  0  0  0
   59.9445   28.2885   44.2648 H   0  0  0  0  0  0  0  0  0  0  0  0
   61.5041   29.1799   44.2648 H   0  0  0  0  0  0  0  0  0  0  0  0
   59.2663   30.3198   43.5941 H   0  0  0  0  0  0  0  0  0  0  0  0
   58.0808   28.9815   43.8183 H   0  0  0  0  0  0  0  0  0  0  0  0
   57.5387   31.7036   43.1457 H   0  0  0  0  0  0  0  0  0  0  0  0
   56.3573   30.3994   43.5157 H   0  0  0  0  0  0  0  0  0  0  0  0
   57.6508   33.2115   44.0534 H   0  0  0  0  0  0  0  0  0  0  0  0
   56.0162   33.4512   44.7721 H   0  0  0  0  0  0  0  0  0  0  0  0
   58.0604   34.6135   45.8907 H   0  0  0  0  0  0  0  0  0  0  0  0
   56.8448   33.6841   46.9249 H   0  0  0  0  0  0  0  0  0  0  0  0
   58.5130   31.8690   46.5170 H   0  0  0  0  0  0  0  0  0  0  0  0
   60.5995   32.1204   46.1372 H   0  0  0  0  0  0  0  0  0  0  0  0
   59.9309   33.6067   45.2816 H   0  0  0  0  0  0  0  0  0  0  0  0
   62.0358   33.9216   46.6999 H   0  0  0  0  0  0  0  0  0  0  0  0
   60.6147   35.0410   46.9626 H   0  0  0  0  0  0  0  0  0  0  0  0
   60.9473   31.8164   49.3603 H   0  0  0  0  0  0  0  0  0  0  0  0
   62.5032   33.0968   50.7872 H   0  0  0  0  0  0  0  0  0  0  0  0
   63.3259   31.6372   50.0655 H   0  0  0  0  0  0  0  0  0  0  0  0
   63.8277   34.5614   49.6054 H   0  0  0  0  0  0  0  0  0  0  0  0
   64.9717   33.1466   49.7229 H   0  0  0  0  0  0  0  0  0  0  0  0
   63.4608   34.2096   47.3384 H   0  0  0  0  0  0  0  0  0  0  0  0
   65.1761   33.6601   47.4932 H   0  0  0  0  0  0  0  0  0  0  0  0
   63.8676   32.0584   46.1630 H   0  0  0  0  0  0  0  0  0  0  0  0
   64.3981   31.3314   47.7377 H   0  0  0  0  0  0  0  0  0  0  0  0
   61.6509   32.0010   46.7429 H   0  0  0  0  0  0  0  0  0  0  0  0
   62.2648   30.6426   47.8162 H   0  0  0  0  0  0  0  0  0  0  0  0
   59.5805   33.6318   50.0727 H   0  0  0  0  0  0  0  0  0  0  0  0
   59.2430   34.8214   48.7404 H   0  0  0  0  0  0  0  0  0  0  0  0
   58.9721   31.7866   48.6189 H   0  0  0  0  0  0  0  0  0  0  0  0
   57.6514   33.0510   48.5838 H   0  0  0  0  0  0  0  0  0  0  0  0
  1  2  1  0
  2  3  1  0
  3  4  1  0
  4  5  1  0
  3  6  1  0
  6  7  1  0
  7  8  1  0
  8  9  1  0
  9 10  1  0
 10 11  1  0
 11 12  1  0
 12 13  1  0
 13 14  1  0
 14 15  1  0
 15 16  1  0
 16 17  1  0
 17 18  1  0
 18 19  1  0
 19 20  1  0
 14 21  1  0
 21 22  1  0
 22 11  1  0
 20 15  1  0
  1 23  1  0
  1 24  1  0
  1 25  1  0
  2 26  1  0
  2 27  1  0
  4 28  1  0
  4 29  1  0
  5 30  1  0
  5 31  1  0
  5 32  1  0
  6 33  1  0
  6 34  1  0
  7 35  1  0
  7 36  1  0
  9 37  1  0
  9 38  1  0
 10 39  1  0
 10 40  1  0
 11 41  1  0
 12 42  1  0
 12 43  1  0
 13 44  1  0
 13 45  1  0
 15 46  1  0
 16 47  1  0
 16 48  1  0
 17 49  1  0
 17 50  1  0
 18 51  1  0
 18 52  1  0
 19 53  1  0
 19 54  1  0
 20 55  1  0
 20 56  1  0
 21 57  1  0
 21 58  1  0
 22 59  1  0
 22 60  1  0
M  CHG  1  11   1
M  END
>  <UniqueID>  (11) 
10

>  <SMILES>  (11) 
CCN(CC)CCOCC[NH+]1CCN(C2CCCCC2)CC1

>  <Energy>  (11) 
81.82304829861245

>  <Genealogy>  (11) 
CCN(CC)CCOCC[NH+]1CCN(C2CCCCC2)CC1 (protonated)
CCN(CC)CCOCC[NH+]1CCN(C2CCCCC2)CC1 (3D coordinates assigned)
CCN(CC)CCOCC[NH+]1CCN(C2CCCCC2)CC1 (nonaromatic ring conformer: 81.82304829861245 kcal/mol)

>  <smiles>  (11) 
CCN(CC)CCOCCN1CCN(C2CCCCC2)CC1

>  <score_type>  (11) 
oracle

>  <origin>  (11) 
adg

>  <m_score__min__energy>  (11) 
-4.4699999999999998

>  <m_primary>  (11) 
energy

$$$$
11:0
     RDKit          3D

 55 58  0  0  0  0  0  0  0  0999 V2000
   64.6350   33.1130   49.7020 C   0  0  0  0  0  0  0  0  0  0  0  0
   64.1500   31.9950   48.7770 C   0  0  0  0  0  0  0  0  0  0  0  0
   62.7780   32.2250   48.2560 N   0  0  0  0  0  0  0  0  0  0  0  0
   62.6860   33.6240   47.7670 C   0  0  0  0  0  0  0  0  0  0  0  0
   63.3350   33.7900   46.3940 C   0  0  0  0  0  0  0  0  0  0  0  0
   61.7420   31.9560   49.2910 C   0  0  0  0  0  0  0  0  0  0  0  0
   60.7540   30.8730   48.8300 C   0  0  0  0  0  0  0  0  0  0  0  0
   60.8300   30.6430   47.3880 N   0  0  0  0  0  0  0  0  0  0  0  0
   59.6500   30.2230   46.6820 C   0  0  0  0  0  0  0  0  0  0  0  0
   59.2640   28.8720   46.7270 C   0  0  0  0  0  0  0  0  0  0  0  0
   59.7710   28.0010   47.7150 C   0  0  0  0  0  0  0  0  0  0  0  0
   59.3270   26.6810   47.7940 C   0  0  0  0  0  0  0  0  0  0  0  0
   58.3740   26.2130   46.8980 C   0  0  0  0  0  0  0  0  0  0  0  0
   57.9150   24.9410   47.0040 F   0  0  0  0  0  0  0  0  0  0  0  0
   57.8920   27.0460   45.8890 C   0  0  0  0  0  0  0  0  0  0  0  0
   58.3640   28.3770   45.7530 C   0  0  0  0  0  0  0  0  0  0  0  0
   57.9970   29.1760   44.6890 N   0  0  0  0  0  0  0  0  0  0  0  0
   57.4020   28.5620   43.4790 C   0  0  0  0  0  0  0  0  0  0  0  0
   58.2110   30.5410   44.7430 C   0  0  0  0  0  0  0  0  0  0  0  0
   57.6800   31.4080   43.7570 C   0  0  0  0  0  0  0  0  0  0  0  0
   57.9290   32.7730   43.7800 C   0  0  0  0  0  0  0  0  0  0  0  0
   58.6060   33.3490   44.8520 C   0  0  0  0  0  0  0  0  0  0  0  0
   58.7590   34.7450   44.9030 C   0  0  0  0  0  0  0  0  0  0  0  0
   59.3070   35.3510   46.0320 C   0  0  0  0  0  0  0  0  0  0  0  0
   59.6630   34.5750   47.1310 C   0  0  0  0  0  0  0  0  0  0  0  0
   59.5270   33.1860   47.0850 C   0  0  0  0  0  0  0  0  0  0  0  0
   59.0750   32.5340   45.9130 C   0  0  0  0  0  0  0  0  0  0  0  0
   58.9820   31.1090   45.8010 C   0  0  0  0  0  0  0  0  0  0  0  0
   64.5017   32.8057   50.7498 H   0  0  0  0  0  0  0  0  0  0  0  0
   65.7000   33.3111   49.5106 H   0  0  0  0  0  0  0  0  0  0  0  0
   64.0521   34.0260   49.5106 H   0  0  0  0  0  0  0  0  0  0  0  0
   64.8408   31.9217   47.9241 H   0  0  0  0  0  0  0  0  0  0  0  0
   64.1257   31.0674   49.3677 H   0  0  0  0  0  0  0  0  0  0  0  0
   61.6254   33.9071   47.6959 H   0  0  0  0  0  0  0  0  0  0  0  0
   63.2214   34.2702   48.4782 H   0  0  0  0  0  0  0  0  0  0  0  0
   64.3938   34.0608   46.5192 H   0  0  0  0  0  0  0  0  0  0  0  0
   63.2618   32.8442   45.8371 H   0  0  0  0  0  0  0  0  0  0  0  0
   62.8167   34.5845   45.8371 H   0  0  0  0  0  0  0  0  0  0  0  0
   62.2373   31.6188   50.2135 H   0  0  0  0  0  0  0  0  0  0  0  0
   61.1793   32.8849   49.4660 H   0  0  0  0  0  0  0  0  0  0  0  0
   60.9870   29.9335   49.3526 H   0  0  0  0  0  0  0  0  0  0  0  0
   59.7364   31.2171   49.0669 H   0  0  0  0  0  0  0  0  0  0  0  0
   61.6000   31.0920   46.8460 H   0  0  0  0  0  0  0  0  0  0  0  0
   60.5233   28.3665   48.4294 H   0  0  0  0  0  0  0  0  0  0  0  0
   59.7317   26.0102   48.5662 H   0  0  0  0  0  0  0  0  0  0  0  0
   57.1345   26.6655   45.1880 H   0  0  0  0  0  0  0  0  0  0  0  0
   56.6653   27.8018   43.7780 H   0  0  0  0  0  0  0  0  0  0  0  0
   56.9045   29.3392   42.8803 H   0  0  0  0  0  0  0  0  0  0  0  0
   58.1944   28.0891   42.8803 H   0  0  0  0  0  0  0  0  0  0  0  0
   57.0555   30.9895   42.9540 H   0  0  0  0  0  0  0  0  0  0  0  0
   57.5893   33.4043   42.9457 H   0  0  0  0  0  0  0  0  0  0  0  0
   58.4449   35.3620   44.0482 H   0  0  0  0  0  0  0  0  0  0  0  0
   59.4578   36.4404   46.0544 H   0  0  0  0  0  0  0  0  0  0  0  0
   60.0530   35.0576   48.0393 H   0  0  0  0  0  0  0  0  0  0  0  0
   59.7753   32.5886   47.9746 H   0  0  0  0  0  0  0  0  0  0  0  0
  1  2  1  0
  2  3  1  0
  3  4  1  0
  4  5  1  0
  3  6  1  0
  6  7  1  0
  7  8  1  0
  8  9  1  0
  9 10  2  0
 10 11  1  0
 11 12  2  0
 12 13  1  0
 13 14  1  0
 13 15  2  0
 15 16  1  0
 16 17  2  0
 17 18  1  0
 17 19  1  0
 19 20  2  0
 20 21  1  0
 21 22  2  0
 22 23  1  0
 23 24  2  0
 24 25  1  0
 25 26  2  0
 26 27  1  0
 27 28  2  0
 28  9  1  0
 16 10  1  0
 28 19  1  0
 27 22  1  0
  1 29  1  0
  1 30  1  0
  1 31  1  0
  2 32  1  0
  2 33  1  0
  4 34  1  0
  4 35  1  0
  5 36  1  0
  5 37  1  0
  5 38  1  0
  6 39  1  0
  6 40  1  0
  7 41  1  0
  7 42  1  0
  8 43  1  0
 11 44  1  0
 12 45  1  0
 15 46  1  0
 18 47  1  0
 18 48  1  0
 18 49  1  0
 20 50  1  0
 21 51  1  0
 23 52  1  0
 24 53  1  0
 25 54  1  0
 26 55  1  0
M  CHG  1  17   1
M  END
>  <UniqueID>  (12) 
11

>  <SMILES>  (12) 
CCN(CC)CCNc1c2ccc(F)cc2[n+](C)c2ccc3ccccc3c12

>  <Energy>  (12) 
97.00491831827395

>  <Genealogy>  (12) 
CCN(CC)CCNc1c2ccc(F)cc2[n+](C)c2ccc3ccccc3c12 (3D coordinates assigned)
CCN(CC)CCNc1c2ccc(F)cc2[n+](C)c2ccc3ccccc3c12 (optimized conformer: 97.00491831827395 kcal/mol)

>  <smiles>  (12) 
CCN(CC)CCNc1c2ccc(F)cc2[n+](C)c2ccc3ccccc3c12

>  <score_type>  (12) 
oracle

>  <origin>  (12) 
adg

>  <m_score__min__energy>  (12) 
-6.5999999999999996

>  <m_primary>  (12) 
energy

$$$$
12:0
     RDKit          3D

 59 62  0  0  0  0  0  0  0  0999 V2000
   56.8770   21.1090   44.6920 C   0  0  0  0  0  0  0  0  0  0  0  0
   57.8420   21.3120   45.8560 C   0  0  0  0  0  0  0  0  0  0  0  0
   57.3800   22.3480   46.7220 O   0  0  0  0  0  0  0  0  0  0  0  0
   57.2300   23.7010   46.3740 C   0  0  0  0  0  0  0  0  0  0  0  0
   56.0000   24.2590   46.0100 C   0  0  0  0  0  0  0  0  0  0  0  0
   55.9140   25.6060   45.6710 C   0  0  0  0  0  0  0  0  0  0  0  0
   57.0500   26.4360   45.6660 C   0  0  0  0  0  0  0  0  0  0  0  0
   58.3100   25.8850   46.0610 C   0  0  0  0  0  0  0  0  0  0  0  0
   58.3650   24.5130   46.3930 C   0  0  0  0  0  0  0  0  0  0  0  0
   59.5950   26.6490   46.1500 C   0  0  0  0  0  0  0  0  0  0  0  0
   60.6810   26.0120   46.0670 O   0  0  0  0  0  0  0  0  0  0  0  0
   59.6840   28.1030   46.3980 C   0  0  0  0  0  0  0  0  0  0  0  0
   60.5880   28.5700   47.3690 C   0  0  0  0  0  0  0  0  0  0  0  0
   60.7380   29.9380   47.6010 C   0  0  0  0  0  0  0  0  0  0  0  0
   59.9850   30.8680   46.8700 C   0  0  0  0  0  0  0  0  0  0  0  0
   60.1390   32.2830   47.0780 N   0  0  0  0  0  0  0  0  0  0  0  0
   61.0440   32.8680   48.0300 C   0  0  0  0  0  0  0  0  0  0  0  0
   62.4150   33.0010   47.7500 C   0  0  0  0  0  0  0  0  0  0  0  0
   63.2790   33.5520   48.6990 C   0  0  0  0  0  0  0  0  0  0  0  0
   62.7920   33.9710   49.9470 C   0  0  0  0  0  0  0  0  0  0  0  0
   63.7290   34.5750   50.9730 C   0  0  0  0  0  0  0  0  0  0  0  0
   64.6740   33.6020   51.5740 N   0  0  0  0  0  0  0  0  0  0  0  0
   64.0450   32.2930   51.8270 C   0  0  0  0  0  0  0  0  0  0  0  0
   65.9010   33.4430   50.7750 C   0  0  0  0  0  0  0  0  0  0  0  0
   61.4280   33.8070   50.2390 C   0  0  0  0  0  0  0  0  0  0  0  0
   60.5630   33.2550   49.2890 C   0  0  0  0  0  0  0  0  0  0  0  0
   59.1140   30.4080   45.8740 C   0  0  0  0  0  0  0  0  0  0  0  0
   58.9650   29.0330   45.6280 C   0  0  0  0  0  0  0  0  0  0  0  0
   57.9940   28.5570   44.5910 C   0  0  0  0  0  0  0  0  0  0  0  0
   56.8120   27.8840   45.2810 C   0  0  0  0  0  0  0  0  0  0  0  0
   55.8707   20.8973   45.0826 H   0  0  0  0  0  0  0  0  0  0  0  0
   56.8473   22.0206   44.0770 H   0  0  0  0  0  0  0  0  0  0  0  0
   57.2171   20.2627   44.0770 H   0  0  0  0  0  0  0  0  0  0  0  0
   57.9221   20.3745   46.4258 H   0  0  0  0  0  0  0  0  0  0  0  0
   58.8243   21.6004   45.4537 H   0  0  0  0  0  0  0  0  0  0  0  0
   55.0973   23.6307   45.9916 H   0  0  0  0  0  0  0  0  0  0  0  0
   54.9361   26.0312   45.4010 H   0  0  0  0  0  0  0  0  0  0  0  0
   59.3320   24.0711   46.6751 H   0  0  0  0  0  0  0  0  0  0  0  0
   61.1824   27.8503   47.9510 H   0  0  0  0  0  0  0  0  0  0  0  0
   61.4510   30.2887   48.3617 H   0  0  0  0  0  0  0  0  0  0  0  0
   59.5550   32.9280   46.4970 H   0  0  0  0  0  0  0  0  0  0  0  0
   62.8096   32.6693   46.7782 H   0  0  0  0  0  0  0  0  0  0  0  0
   64.3489   33.6584   48.4667 H   0  0  0  0  0  0  0  0  0  0  0  0
   64.3136   35.3676   50.4832 H   0  0  0  0  0  0  0  0  0  0  0  0
   63.1012   34.9562   51.7919 H   0  0  0  0  0  0  0  0  0  0  0  0
   64.9590   33.9900   52.5040 H   0  0  0  0  0  0  0  0  0  0  0  0
   63.9656   32.1278   52.9116 H   0  0  0  0  0  0  0  0  0  0  0  0
   63.0405   32.2762   51.3791 H   0  0  0  0  0  0  0  0  0  0  0  0
   64.6595   31.4982   51.3791 H   0  0  0  0  0  0  0  0  0  0  0  0
   66.7644   33.3311   51.4473 H   0  0  0  0  0  0  0  0  0  0  0  0
   65.8121   32.5489   50.1405 H   0  0  0  0  0  0  0  0  0  0  0  0
   66.0429   34.3303   50.1405 H   0  0  0  0  0  0  0  0  0  0  0  0
   61.0380   34.1145   51.2205 H   0  0  0  0  0  0  0  0  0  0  0  0
   59.4980   33.1235   49.5310 H   0  0  0  0  0  0  0  0  0  0  0  0
   58.5398   31.1321   45.2774 H   0  0  0  0  0  0  0  0  0  0  0  0
   57.6364   29.4139   44.0012 H   0  0  0  0  0  0  0  0  0  0  0  0
   58.4902   27.8375   43.9231 H   0  0  0  0  0  0  0  0  0  0  0  0
   56.5808   28.4493   46.1959 H   0  0  0  0  0  0  0  0  0  0  0  0
   55.9851   27.8832   44.5556 H   0  0  0  0  0  0  0  0  0  0  0  0
  1  2  1  0
  2  3  1  0
  3  4  1  0
  4  5  2  0
  5  6  1  0
  6  7  2  0
  7  8  1  0
  8  9  2  0
  8 10  1  0
 10 11  2  0
 10 12  1  0
 12 13  2  0
 13 14  1  0
 14 15  2  0
 15 16  1  0
 16 17  1  0
 17 18  2  0
 18 19  1  0
 19 20  2  0
 20 21  1  0
 21 22  1  0
 22 23  1  0
 22 24  1  0
 20 25  1  0
 25 26  2  0
 15 27  1  0
 27 28  2  0
 28 29  1  0
 29 30  1  0
  9  4  1  0
 28 12  1  0
 30  7  1  0
 26 17  1  0
  1 31  1  0
  1 32  1  0
  1 33  1  0
  2 34  1  0
  2 35  1  0
  5 36  1  0
  6 37  1  0
  9 38  1  0
 13 39  1  0
 14 40  1  0
 16 41  1  0
 18 42  1  0
 19 43  1  0
 21 44  1  0
 21 45  1  0
 22 46  1  0
 23 47  1  0
 23 48  1  0
 23 49  1  0
 24 50  1  0
 24 51  1  0
 24 52  1  0
 25 53  1  0
 26 54  1  0
 27 55  1  0
 29 56  1  0
 29 57  1  0
 30 58  1  0
 30 59  1  0
M  CHG  1  22   1
M  END
>  <UniqueID>  (13) 
12

>  <SMILES>  (13) 
CCOc1ccc2c(c1)C(=O)c1ccc(Nc3ccc(C[NH+](C)C)cc3)cc1CC2

>  <Energy>  (13) 
84.01831816035423

>  <Genealogy>  (13) 
CCOc1ccc2c(c1)C(=O)c1ccc(Nc3ccc(C[NH+](C)C)cc3)cc1CC2 (protonated)
CCOc1ccc2c(c1)C(=O)c1ccc(Nc3ccc(C[NH+](C)C)cc3)cc1CC2 (3D coordinates assigned)
CCOc1ccc2c(c1)C(=O)c1ccc(Nc3ccc(C[NH+](C)C)cc3)cc1CC2 (nonaromatic ring conformer: 84.01831816035423 kcal/mol)

>  <smiles>  (13) 
CCOc1ccc2c(c1)C(=O)c1ccc(Nc3ccc(CN(C)C)cc3)cc1CC2

>  <score_type>  (13) 
oracle

>  <origin>  (13) 
adg

>  <m_score__min__energy>  (13) 
-5.8099999999999996

>  <m_primary>  (13) 
energy

$$$$
13:0
     RDKit          3D

 68 71  0  0  0  0  0  0  0  0999 V2000
   67.9510   33.9150   50.6720 C   0  0  0  0  0  0  0  0  0  0  0  0
   67.1770   32.5980   50.5740 C   0  0  0  0  0  0  0  0  0  0  0  0
   65.7380   32.8410   50.7930 N   0  0  0  0  0  0  0  0  0  0  0  0
   65.4170   33.8140   51.8500 C   0  0  0  0  0  0  0  0  0  0  0  0
   64.0800   34.5390   51.6350 C   0  0  0  0  0  0  0  0  0  0  0  0
   64.8840   31.6350   50.8020 C   0  0  0  0  0  0  0  0  0  0  0  0
   64.0790   31.6250   49.4980 C   0  0  0  0  0  0  0  0  0  0  0  0
   64.1590   32.8890   48.7560 N   0  0  0  0  0  0  0  0  0  0  0  0
   62.9100   33.3470   48.1770 C   0  0  0  0  0  0  0  0  0  0  0  0
   62.9160   33.7880   46.8410 C   0  0  0  0  0  0  0  0  0  0  0  0
   61.7310   33.8870   46.1160 C   0  0  0  0  0  0  0  0  0  0  0  0
   60.5150   33.5500   46.7270 C   0  0  0  0  0  0  0  0  0  0  0  0
   60.4720   33.2260   48.0860 C   0  0  0  0  0  0  0  0  0  0  0  0
   61.6710   33.0770   48.8030 C   0  0  0  0  0  0  0  0  0  0  0  0
   59.1580   32.8210   48.6960 C   0  0  0  0  0  0  0  0  0  0  0  0
   58.6620   31.4550   48.2220 C   0  0  0  0  0  0  0  0  0  0  0  0
   58.3920   31.2440   46.7410 C   0  0  0  0  0  0  0  0  0  0  0  0
   57.7840   30.0150   46.4110 C   0  0  0  0  0  0  0  0  0  0  0  0
   57.5880   29.6490   45.0740 C   0  0  0  0  0  0  0  0  0  0  0  0
   56.9880   28.3880   44.7580 N   0  0  0  0  0  0  0  0  0  0  0  0
   57.3720   27.1590   45.4180 C   0  0  0  0  0  0  0  0  0  0  0  0
   58.7300   26.8040   45.3860 C   0  0  0  0  0  0  0  0  0  0  0  0
   59.1890   25.6360   45.9870 C   0  0  0  0  0  0  0  0  0  0  0  0
   58.2910   24.7850   46.6250 C   0  0  0  0  0  0  0  0  0  0  0  0
   56.9300   25.0810   46.6330 C   0  0  0  0  0  0  0  0  0  0  0  0
   56.4420   26.2600   46.0310 C   0  0  0  0  0  0  0  0  0  0  0  0
   55.0300   26.4930   46.0810 N   0  0  0  0  0  0  0  0  0  0  0  0
   58.0070   30.4850   44.0470 C   0  0  0  0  0  0  0  0  0  0  0  0
   58.5800   31.7200   44.3500 C   0  0  0  0  0  0  0  0  0  0  0  0
   58.7750   32.1120   45.6860 C   0  0  0  0  0  0  0  0  0  0  0  0
   59.3460   33.4140   45.9250 N   0  0  0  0  0  0  0  0  0  0  0  0
   58.7380   34.6130   45.3550 C   0  0  0  0  0  0  0  0  0  0  0  0
   68.1028   34.1732   51.7304 H   0  0  0  0  0  0  0  0  0  0  0  0
   68.9275   33.8040   50.1780 H   0  0  0  0  0  0  0  0  0  0  0  0
   67.3789   34.7142   50.1780 H   0  0  0  0  0  0  0  0  0  0  0  0
   67.3249   32.1620   49.5750 H   0  0  0  0  0  0  0  0  0  0  0  0
   67.5471   31.9035   51.3426 H   0  0  0  0  0  0  0  0  0  0  0  0
   65.3726   33.2809   52.8112 H   0  0  0  0  0  0  0  0  0  0  0  0
   66.2055   34.5807   51.8320 H   0  0  0  0  0  0  0  0  0  0  0  0
   63.6332   34.7813   52.6106 H   0  0  0  0  0  0  0  0  0  0  0  0
   64.2528   35.4670   51.0702 H   0  0  0  0  0  0  0  0  0  0  0  0
   63.3965   33.8879   51.0702 H   0  0  0  0  0  0  0  0  0  0  0  0
   65.5103   30.7328   50.8627 H   0  0  0  0  0  0  0  0  0  0  0  0
   64.2098   31.6465   51.6711 H   0  0  0  0  0  0  0  0  0  0  0  0
   64.4639   30.8187   48.8564 H   0  0  0  0  0  0  0  0  0  0  0  0
   63.0237   31.4722   49.7680 H   0  0  0  0  0  0  0  0  0  0  0  0
   64.5800   33.6180   49.3840 H   0  0  0  0  0  0  0  0  0  0  0  0
   64.8120   32.7440   47.9490 H   0  0  0  0  0  0  0  0  0  0  0  0
   63.8691   34.0581   46.3628 H   0  0  0  0  0  0  0  0  0  0  0  0
   61.7490   34.2276   45.0702 H   0  0  0  0  0  0  0  0  0  0  0  0
   61.6460   32.7498   49.8529 H   0  0  0  0  0  0  0  0  0  0  0  0
   59.2767   32.7884   49.7891 H   0  0  0  0  0  0  0  0  0  0  0  0
   58.4113   33.5643   48.3799 H   0  0  0  0  0  0  0  0  0  0  0  0
   59.4195   30.7153   48.5205 H   0  0  0  0  0  0  0  0  0  0  0  0
   57.6705   31.3572   48.6882 H   0  0  0  0  0  0  0  0  0  0  0  0
   57.4600   29.3360   47.2135 H   0  0  0  0  0  0  0  0  0  0  0  0
   56.8090   28.3040   43.7260 H   0  0  0  0  0  0  0  0  0  0  0  0
   59.4467   27.4635   44.8747 H   0  0  0  0  0  0  0  0  0  0  0  0
   60.2597   25.3855   45.9580 H   0  0  0  0  0  0  0  0  0  0  0  0
   58.6574   23.8759   47.1244 H   0  0  0  0  0  0  0  0  0  0  0  0
   56.2263   24.3864   47.1150 H   0  0  0  0  0  0  0  0  0  0  0  0
   54.4550   26.6790   45.2320 H   0  0  0  0  0  0  0  0  0  0  0  0
   54.5880   26.7440   46.9990 H   0  0  0  0  0  0  0  0  0  0  0  0
   57.8874   30.1742   42.9986 H   0  0  0  0  0  0  0  0  0  0  0  0
   58.8825   32.3943   43.5352 H   0  0  0  0  0  0  0  0  0  0  0  0
   58.4022   35.2751   46.1667 H   0  0  0  0  0  0  0  0  0  0  0  0
   59.4779   35.1397   44.7345 H   0  0  0  0  0  0  0  0  0  0  0  0
   57.8758   34.3273   44.7345 H   0  0  0  0  0  0  0  0  0  0  0  0
  1  2  1  0
  2  3  1  0
  3  4  1  0
  4  5  1  0
  3  6  1  0
  6  7  1  0
  7  8  1  0
  8  9  1  0
  9 10  2  0
 10 11  1  0
 11 12  2  0
 12 13  1  0
 13 14  2  0
 13 15  1  0
 15 16  1  0
 16 17  1  0
 17 18  2  0
 18 19  1  0
 19 20  1  0
 20 21  1  0
 21 22  2  0
 22 23  1  0
 23 24  2  0
 24 25  1  0
 25 26  2  0
 26 27  1  0
 19 28  2  0
 28 29  1  0
 29 30  2  0
 30 31  1  0
 31 32  1  0
 14  9  1  0
 30 17  1  0
 31 12  1  0
 26 21  1  0
  1 33  1  0
  1 34  1  0
  1 35  1  0
  2 36  1  0
  2 37  1  0
  4 38  1  0
  4 39  1  0
  5 40  1  0
  5 41  1  0
  5 42  1  0
  6 43  1  0
  6 44  1  0
  7 45  1  0
  7 46  1  0
  8 47  1  0
  8 48  1  0
 10 49  1  0
 11 50  1  0
 14 51  1  0
 15 52  1  0
 15 53  1  0
 16 54  1  0
 16 55  1  0
 18 56  1  0
 20 57  1  0
 22 58  1  0
 23 59  1  0
 24 60  1  0
 25 61  1  0
 27 62  1  0
 27 63  1  0
 28 64  1  0
 29 65  1  0
 32 66  1  0
 32 67  1  0
 32 68  1  0
M  CHG  1   8   1
M  END
>  <UniqueID>  (14) 
13

>  <SMILES>  (14) 
CCN(CC)CC[NH2+]c1ccc2c(c1)CCc1cc(Nc3ccccc3N)ccc1N2C

>  <Energy>  (14) 
118.29636162250303

>  <Genealogy>  (14) 
CCN(CC)CC[NH2+]c1ccc2c(c1)CCc1cc(Nc3ccccc3N)ccc1N2C (protonated)
CCN(CC)CC[NH2+]c1ccc2c(c1)CCc1cc(Nc3ccccc3N)ccc1N2C (3D coordinates assigned)
CCN(CC)CC[NH2+]c1ccc2c(c1)CCc1cc(Nc3ccccc3N)ccc1N2C (nonaromatic ring conformer: 118.29636162250303 kcal/mol)

>  <smiles>  (14) 
CCN(CC)CCNc1ccc2c(c1)CCc1cc(Nc3ccccc3N)ccc1N2C

>  <score_type>  (14) 
oracle

>  <origin>  (14) 
adg

>  <m_score__min__energy>  (14) 
-6.4199999999999999

>  <m_primary>  (14) 
energy

$$$$
14:0
     RDKit          3D

 55 59  0  0  0  0  0  0  0  0999 V2000
   62.3170   34.5240   49.3770 C   0  0  0  0  0  0  0  0  0  0  0  0
   62.7340   33.3950   50.3320 C   0  0  0  0  0  0  0  0  0  0  0  0
   63.3280   32.2170   49.6480 N   0  0  0  0  0  0  0  0  0  0  0  0
   63.4540   32.4120   48.1790 C   0  0  0  0  0  0  0  0  0  0  0  0
   62.4420   31.5300   47.4530 C   0  0  0  0  0  0  0  0  0  0  0  0
   62.6610   30.9470   50.0220 C   0  0  0  0  0  0  0  0  0  0  0  0
   62.1070   30.9840   51.4630 C   0  0  0  0  0  0  0  0  0  0  0  0
   60.6530   30.7300   51.5270 N   0  0  0  0  0  0  0  0  0  0  0  0
   59.9590   31.1840   50.3300 C   0  0  0  0  0  0  0  0  0  0  0  0
   59.5210   32.5270   50.2450 C   0  0  0  0  0  0  0  0  0  0  0  0
   59.5710   33.7530   51.7330 Br  0  0  0  0  0  0  0  0  0  0  0  0
   58.9910   33.0320   49.0630 C   0  0  0  0  0  0  0  0  0  0  0  0
   58.8840   32.2440   47.9020 C   0  0  0  0  0  0  0  0  0  0  0  0
   59.2740   30.8780   47.9770 C   0  0  0  0  0  0  0  0  0  0  0  0
   59.1850   30.0800   46.8100 C   0  0  0  0  0  0  0  0  0  0  0  0
   58.7090   30.6160   45.6580 N   0  0  0  0  0  0  0  0  0  0  0  0
   58.3110   31.9030   45.5520 C   0  0  0  0  0  0  0  0  0  0  0  0
   57.8280   32.3600   44.3210 C   0  0  0  0  0  0  0  0  0  0  0  0
   57.4170   33.6830   44.1750 C   0  0  0  0  0  0  0  0  0  0  0  0
   57.4890   34.5570   45.2580 C   0  0  0  0  0  0  0  0  0  0  0  0
   57.9700   34.1130   46.4930 C   0  0  0  0  0  0  0  0  0  0  0  0
   58.3880   32.7690   46.6700 C   0  0  0  0  0  0  0  0  0  0  0  0
   59.6160   28.6630   46.8110 C   0  0  0  0  0  0  0  0  0  0  0  0
   59.6250   27.8970   45.6280 C   0  0  0  0  0  0  0  0  0  0  0  0
   60.0090   26.5930   45.6590 N   0  0  0  0  0  0  0  0  0  0  0  0
   60.3920   25.9890   46.8150 C   0  0  0  0  0  0  0  0  0  0  0  0
   60.4010   26.7080   48.0120 C   0  0  0  0  0  0  0  0  0  0  0  0
   60.0120   28.0570   48.0110 C   0  0  0  0  0  0  0  0  0  0  0  0
   59.9830   28.8430   49.2580 C   0  0  0  0  0  0  0  0  0  0  0  0
   60.0850   28.2320   50.3580 O   0  0  0  0  0  0  0  0  0  0  0  0
   59.7480   30.3240   49.2020 C   0  0  0  0  0  0  0  0  0  0  0  0
   61.9941   35.3981   49.9615 H   0  0  0  0  0  0  0  0  0  0  0  0
   63.1717   34.8023   48.7429 H   0  0  0  0  0  0  0  0  0  0  0  0
   61.4866   34.1799   48.7429 H   0  0  0  0  0  0  0  0  0  0  0  0
   63.4755   33.7954   51.0390 H   0  0  0  0  0  0  0  0  0  0  0  0
   61.8190   33.0459   50.8328 H   0  0  0  0  0  0  0  0  0  0  0  0
   63.2625   33.4668   47.9327 H   0  0  0  0  0  0  0  0  0  0  0  0
   64.4705   32.1365   47.8614 H   0  0  0  0  0  0  0  0  0  0  0  0
   61.8269   30.9940   48.1908 H   0  0  0  0  0  0  0  0  0  0  0  0
   61.7947   32.1572   46.8225 H   0  0  0  0  0  0  0  0  0  0  0  0
   62.9749   30.8031   46.8225 H   0  0  0  0  0  0  0  0  0  0  0  0
   61.8284   30.7655   49.3265 H   0  0  0  0  0  0  0  0  0  0  0  0
   63.4093   30.1426   49.9674 H   0  0  0  0  0  0  0  0  0  0  0  0
   62.6239   30.2162   52.0575 H   0  0  0  0  0  0  0  0  0  0  0  0
   62.2830   31.9953   51.8583 H   0  0  0  0  0  0  0  0  0  0  0  0
   60.2850   31.1790   52.3920 H   0  0  0  0  0  0  0  0  0  0  0  0
   60.4670   29.7190   51.6900 H   0  0  0  0  0  0  0  0  0  0  0  0
   58.6459   34.0761   49.0346 H   0  0  0  0  0  0  0  0  0  0  0  0
   57.7726   31.6717   43.4648 H   0  0  0  0  0  0  0  0  0  0  0  0
   57.0360   34.0374   43.2059 H   0  0  0  0  0  0  0  0  0  0  0  0
   57.1656   35.6018   45.1403 H   0  0  0  0  0  0  0  0  0  0  0  0
   58.0251   34.8146   47.3384 H   0  0  0  0  0  0  0  0  0  0  0  0
   59.3202   28.3559   44.6759 H   0  0  0  0  0  0  0  0  0  0  0  0
   60.6954   24.9317   46.8075 H   0  0  0  0  0  0  0  0  0  0  0  0
   60.7105   26.2212   48.9486 H   0  0  0  0  0  0  0  0  0  0  0  0
  1  2  1  0
  2  3  1  0
  3  4  1  0
  4  5  1  0
  3  6  1  0
  6  7  1  0
  7  8  1  0
  8  9  1  0
  9 10  2  0
 10 11  1  0
 10 12  1  0
 12 13  2  0
 13 14  1  0
 14 15  1  0
 15 16  2  0
 16 17  1  0
 17 18  2  0
 18 19  1  0
 19 20  2  0
 20 21  1  0
 21 22  2  0
 15 23  1  0
 23 24  2  0
 24 25  1  0
 25 26  2  0
 26 27  1  0
 27 28  2  0
 28 29  1  0
 29 30  2  0
 29 31  1  0
 31  9  1  0
 22 13  1  0
 28 23  1  0
 31 14  2  0
 22 17  1  0
  1 32  1  0
  1 33  1  0
  1 34  1  0
  2 35  1  0
  2 36  1  0
  4 37  1  0
  4 38  1  0
  5 39  1  0
  5 40  1  0
  5 41  1  0
  6 42  1  0
  6 43  1  0
  7 44  1  0
  7 45  1  0
  8 46  1  0
  8 47  1  0
 12 48  1  0
 18 49  1  0
 19 50  1  0
 20 51  1  0
 21 52  1  0
 24 53  1  0
 26 54  1  0
 27 55  1  0
M  CHG  1   8   1
M  END
>  <UniqueID>  (15) 
14

>  <SMILES>  (15) 
CCN(CC)CC[NH2+]c1c(Br)cc2c3c(nc4ccccc42)-c2cnccc2C(=O)c13

>  <Energy>  (15) 
90.08845944002888

>  <Genealogy>  (15) 
CCN(CC)CC[NH2+]c1c(Br)cc2c3c(nc4ccccc42)-c2cnccc2C(=O)c13 (protonated)
CCN(CC)CC[NH2+]c1c(Br)cc2c3c(nc4ccccc42)-c2cnccc2C(=O)c13 (3D coordinates assigned)
CCN(CC)CC[NH2+]c1c(Br)cc2c3c(nc4ccccc42)-c2cnccc2C(=O)c13 (nonaromatic ring conformer: 90.08845944002888 kcal/mol)

>  <smiles>  (15) 
CCN(CC)CCNc1c(Br)cc2c3c(nc4ccccc42)-c2cnccc2C(=O)c13

>  <score_type>  (15) 
oracle

>  <origin>  (15) 
adg

>  <m_score__min__energy>  (15) 
-6.7400000000000002

>  <m_primary>  (15) 
energy

$$$$
15:0
     RDKit          3D

 39 40  0  0  0  0  0  0  0  0999 V2000
   59.3820   34.8660   45.5900 C   0  0  0  0  0  0  0  0  0  0  0  0
   58.7220   33.5380   45.3230 C   0  0  0  0  0  0  0  0  0  0  0  0
   58.0230   33.3680   44.1180 C   0  0  0  0  0  0  0  0  0  0  0  0
   57.3920   32.1610   43.8230 C   0  0  0  0  0  0  0  0  0  0  0  0
   57.4470   31.0900   44.7250 C   0  0  0  0  0  0  0  0  0  0  0  0
   56.7850   29.8480   44.4200 N   0  0  0  0  0  0  0  0  0  0  0  0
   57.3550   28.9720   43.7380 O   0  0  0  0  0  0  0  0  0  0  0  0
   55.5090   29.6060   44.8760 O   0  0  0  0  0  0  0  0  0  0  0  0
   58.1580   31.2490   45.9280 C   0  0  0  0  0  0  0  0  0  0  0  0
   58.8170   32.4540   46.2320 C   0  0  0  0  0  0  0  0  0  0  0  0
   59.7160   32.6030   47.7620 S   0  0  0  0  0  0  0  0  0  0  0  0
   59.9270   31.2220   48.3170 O   0  0  0  0  0  0  0  0  0  0  0  0
   58.9020   33.4080   48.7380 O   0  0  0  0  0  0  0  0  0  0  0  0
   61.2720   33.3830   47.5640 N   0  0  1  0  0  0  0  0  0  0  0  0
   61.6060   34.2180   48.7520 C   0  0  0  0  0  0  0  0  0  0  0  0
   62.6190   33.5510   49.6920 C   0  0  0  0  0  0  0  0  0  0  0  0
   63.9450   33.2560   48.9560 C   0  0  1  0  0  0  0  0  0  0  0  0
   64.7270   32.1570   49.6860 C   0  0  0  0  0  0  0  0  0  0  0  0
   63.7150   32.8890   47.4680 C   0  0  0  0  0  0  0  0  0  0  0  0
   62.2950   32.3580   47.2380 C   0  0  0  0  0  0  0  0  0  0  0  0
   59.4608   35.0246   46.6757 H   0  0  0  0  0  0  0  0  0  0  0  0
   60.3878   34.8717   45.1446 H   0  0  0  0  0  0  0  0  0  0  0  0
   58.7792   35.6712   45.1446 H   0  0  0  0  0  0  0  0  0  0  0  0
   57.9726   34.1977   43.3975 H   0  0  0  0  0  0  0  0  0  0  0  0
   56.8464   32.0481   42.8745 H   0  0  0  0  0  0  0  0  0  0  0  0
   58.1995   30.4155   46.6446 H   0  0  0  0  0  0  0  0  0  0  0  0
   61.1980   34.0100   46.7290 H   0  0  0  0  0  0  0  0  0  0  0  0
   60.6810   34.4115   49.3149 H   0  0  0  0  0  0  0  0  0  0  0  0
   62.0650   35.1464   48.3813 H   0  0  0  0  0  0  0  0  0  0  0  0
   62.1963   32.6063   50.0646 H   0  0  0  0  0  0  0  0  0  0  0  0
   62.8263   34.2360   50.5274 H   0  0  0  0  0  0  0  0  0  0  0  0
   64.5455   34.1776   48.9654 H   0  0  0  0  0  0  0  0  0  0  0  0
   64.6278   32.2965   50.7726 H   0  0  0  0  0  0  0  0  0  0  0  0
   64.3253   31.1724   49.4045 H   0  0  0  0  0  0  0  0  0  0  0  0
   65.7888   32.2139   49.4045 H   0  0  0  0  0  0  0  0  0  0  0  0
   64.4390   32.1149   47.1739 H   0  0  0  0  0  0  0  0  0  0  0  0
   63.8484   33.7972   46.8619 H   0  0  0  0  0  0  0  0  0  0  0  0
   62.1348   31.4771   47.8770 H   0  0  0  0  0  0  0  0  0  0  0  0
   62.1929   32.0941   46.1750 H   0  0  0  0  0  0  0  0  0  0  0  0
  1  2  1  0
  2  3  2  0
  3  4  1  0
  4  5  2  0
  5  6  1  0
  6  7  2  0
  6  8  1  0
  5  9  1  0
  9 10  2  0
 10 11  1  0
 11 12  2  0
 11 13  2  0
 11 14  1  0
 14 15  1  0
 15 16  1  0
 16 17  1  0
 17 18  1  0
 17 19  1  0
 19 20  1  0
 10  2  1  0
 20 14  1  0
  1 21  1  0
  1 22  1  0
  1 23  1  0
  3 24  1  0
  4 25  1  0
  9 26  1  0
 14 27  1  6
 15 28  1  0
 15 29  1  0
 16 30  1  0
 16 31  1  0
 17 32  1  6
 18 33  1  0
 18 34  1  0
 18 35  1  0
 19 36  1  0
 19 37  1  0
 20 38  1  0
 20 39  1  0
M  CHG  3   6   1   8  -1  14   1
M  END
>  <UniqueID>  (16) 
15

>  <SMILES>  (16) 
Cc1ccc([N+](=O)[O-])cc1S(=O)(=O)[NH+]1CCC(C)CC1

>  <Energy>  (16) 
46.13154208262524

>  <Genealogy>  (16) 
Cc1ccc([N+](=O)[O-])cc1S(=O)(=O)[NH+]1CCC(C)CC1 (protonated)
Cc1ccc([N+](=O)[O-])cc1S(=O)(=O)[NH+]1CCC(C)CC1 (3D coordinates assigned)
Cc1ccc([N+](=O)[O-])cc1S(=O)(=O)[NH+]1CCC(C)CC1 (nonaromatic ring conformer: 46.13154208262524 kcal/mol)

>  <smiles>  (16) 
Cc1ccc([N+](=O)[O-])cc1S(=O)(=O)N1CCC(C)CC1

>  <score_type>  (16) 
oracle

>  <origin>  (16) 
adg

>  <m_score__min__energy>  (16) 
-7.0099999999999998

>  <m_primary>  (16) 
energy

$$$$
16:0
     RDKit          3D

 49 50  0  0  0  0  0  0  0  0999 V2000
   61.5750   28.9100   51.0450 C   0  0  0  0  0  0  0  0  0  0  0  0
   60.7550   28.7070   49.7640 C   0  0  0  0  0  0  0  0  0  0  0  0
   60.3900   29.9940   49.1140 N   0  0  0  0  0  0  0  0  0  0  0  0
   60.7330   29.9270   47.6700 C   0  0  0  0  0  0  0  0  0  0  0  0
   60.0430   28.7620   46.9520 C   0  0  0  0  0  0  0  0  0  0  0  0
   58.9400   30.3090   49.3180 C   0  0  0  0  0  0  0  0  0  0  0  0
   58.7340   31.6130   50.1060 C   0  0  0  0  0  0  0  0  0  0  0  0
   60.0290   32.2010   50.4620 N   0  0  0  0  0  0  0  0  0  0  0  0
   60.2040   33.5050   49.8130 C   0  0  0  0  0  0  0  0  0  0  0  0
   61.2580   33.4030   48.7390 C   0  0  0  0  0  0  0  0  0  0  0  0
   62.4110   32.6350   48.9790 C   0  0  0  0  0  0  0  0  0  0  0  0
   63.3870   32.4910   47.9900 C   0  0  0  0  0  0  0  0  0  0  0  0
   63.2170   33.1000   46.7460 C   0  0  0  0  0  0  0  0  0  0  0  0
   62.0750   33.8600   46.4900 C   0  0  0  0  0  0  0  0  0  0  0  0
   61.0960   34.0310   47.4800 C   0  0  0  0  0  0  0  0  0  0  0  0
   59.6340   35.0060   47.0720 S   0  0  0  0  0  0  0  0  0  0  0  0
   58.8480   33.6910   46.1360 C   0  0  0  0  0  0  0  0  0  0  0  0
   58.4090   33.9270   44.8260 C   0  0  0  0  0  0  0  0  0  0  0  0
   57.8020   32.9020   44.0940 C   0  0  0  0  0  0  0  0  0  0  0  0
   57.6460   31.6330   44.6610 C   0  0  0  0  0  0  0  0  0  0  0  0
   56.8860   30.3470   43.7420 Cl  0  0  0  0  0  0  0  0  0  0  0  0
   58.1050   31.3890   45.9610 C   0  0  0  0  0  0  0  0  0  0  0  0
   58.7110   32.4140   46.6940 C   0  0  0  0  0  0  0  0  0  0  0  0
   60.9305   28.7505   51.9220 H   0  0  0  0  0  0  0  0  0  0  0  0
   62.4070   28.1907   51.0656 H   0  0  0  0  0  0  0  0  0  0  0  0
   61.9753   29.9344   51.0656 H   0  0  0  0  0  0  0  0  0  0  0  0
   61.3481   28.1095   49.0560 H   0  0  0  0  0  0  0  0  0  0  0  0
   59.8217   28.1949   50.0411 H   0  0  0  0  0  0  0  0  0  0  0  0
   60.9960   30.7360   49.5370 H   0  0  0  0  0  0  0  0  0  0  0  0
   60.4246   30.8680   47.1909 H   0  0  0  0  0  0  0  0  0  0  0  0
   61.8188   29.7685   47.5933 H   0  0  0  0  0  0  0  0  0  0  0  0
   59.6303   28.0652   47.6965 H   0  0  0  0  0  0  0  0  0  0  0  0
   59.2289   29.1500   46.3221 H   0  0  0  0  0  0  0  0  0  0  0  0
   60.7745   28.2346   46.3221 H   0  0  0  0  0  0  0  0  0  0  0  0
   58.4576   30.4095   48.3345 H   0  0  0  0  0  0  0  0  0  0  0  0
   58.4950   29.4887   49.9004 H   0  0  0  0  0  0  0  0  0  0  0  0
   58.1694   32.3259   49.4871 H   0  0  0  0  0  0  0  0  0  0  0  0
   58.1760   31.3905   51.0275 H   0  0  0  0  0  0  0  0  0  0  0  0
   60.0440   32.3540   51.4980 H   0  0  0  0  0  0  0  0  0  0  0  0
   59.2514   33.8190   49.3614 H   0  0  0  0  0  0  0  0  0  0  0  0
   60.5199   34.2449   50.5632 H   0  0  0  0  0  0  0  0  0  0  0  0
   62.5457   32.1434   49.9538 H   0  0  0  0  0  0  0  0  0  0  0  0
   64.2905   31.8969   48.1920 H   0  0  0  0  0  0  0  0  0  0  0  0
   63.9839   32.9809   45.9665 H   0  0  0  0  0  0  0  0  0  0  0  0
   61.9414   34.3288   45.5039 H   0  0  0  0  0  0  0  0  0  0  0  0
   58.5423   34.9205   44.3729 H   0  0  0  0  0  0  0  0  0  0  0  0
   57.4467   33.0939   43.0708 H   0  0  0  0  0  0  0  0  0  0  0  0
   57.9888   30.3899   46.4062 H   0  0  0  0  0  0  0  0  0  0  0  0
   59.0809   32.2168   47.7110 H   0  0  0  0  0  0  0  0  0  0  0  0
  1  2  1  0
  2  3  1  0
  3  4  1  0
  4  5  1  0
  3  6  1  0
  6  7  1  0
  7  8  1  0
  8  9  1  0
  9 10  1  0
 10 11  2  0
 11 12  1  0
 12 13  2  0
 13 14  1  0
 14 15  2  0
 15 16  1  0
 16 17  1  0
 17 18  2  0
 18 19  1  0
 19 20  2  0
 20 21  1  0
 20 22  1  0
 22 23  2  0
 15 10  1  0
 23 17  1  0
  1 24  1  0
  1 25  1  0
  1 26  1  0
  2 27  1  0
  2 28  1  0
  3 29  1  0
  4 30  1  0
  4 31  1  0
  5 32  1  0
  5 33  1  0
  5 34  1  0
  6 35  1  0
  6 36  1  0
  7 37  1  0
  7 38  1  0
  8 39  1  0
  9 40  1  0
  9 41  1  0
 11 42  1  0
 12 43  1  0
 13 44  1  0
 14 45  1  0
 18 46  1  0
 19 47  1  0
 22 48  1  0
 23 49  1  0
M  CHG  1   3   1
M  END
>  <UniqueID>  (17) 
16

>  <SMILES>  (17) 
CC[NH+](CC)CCNCc1ccccc1Sc1ccc(Cl)cc1

>  <Energy>  (17) 
43.38243039693307

>  <Genealogy>  (17) 
CC[NH+](CC)CCNCc1ccccc1Sc1ccc(Cl)cc1 (protonated)
CC[NH+](CC)CCNCc1ccccc1Sc1ccc(Cl)cc1 (3D coordinates assigned)
CC[NH+](CC)CCNCc1ccccc1Sc1ccc(Cl)cc1 (optimized conformer: 43.38243039693307 kcal/mol)

>  <smiles>  (17) 
CCN(CC)CCNCc1ccccc1Sc1ccc(Cl)cc1

>  <score_type>  (17) 
oracle

>  <origin>  (17) 
adg

>  <m_score__min__energy>  (17) 
-5.4699999999999998

>  <m_primary>  (17) 
energy

$$$$
17:0
     RDKit          3D

 51 53  0  0  0  0  0  0  0  0999 V2000
   66.0470   32.3000   50.3850 C   0  0  0  0  0  0  0  0  0  0  0  0
   65.1070   32.9750   49.3890 C   0  0  0  0  0  0  0  0  0  0  0  0
   63.7360   32.4610   49.5320 N   0  0  0  0  0  0  0  0  0  0  0  0
   63.5330   31.2250   50.2980 C   0  0  0  0  0  0  0  0  0  0  0  0
   62.6060   33.1330   48.9150 C   0  0  0  0  0  0  0  0  0  0  0  0
   62.5520   33.3350   47.5210 C   0  0  0  0  0  0  0  0  0  0  0  0
   61.4590   33.9780   46.9330 C   0  0  0  0  0  0  0  0  0  0  0  0
   60.3930   34.4330   47.7210 C   0  0  0  0  0  0  0  0  0  0  0  0
   59.2080   35.1300   47.0890 C   0  0  0  0  0  0  0  0  0  0  0  0
   58.1880   34.1690   46.5990 N   0  0  0  0  0  0  0  0  0  0  0  0
   58.2350   32.8780   47.3530 C   0  0  0  0  0  0  0  0  0  0  0  0
   58.8600   31.7230   46.5580 C   0  0  0  0  0  0  0  0  0  0  0  0
   58.1590   31.5590   45.2780 N   0  0  0  0  0  0  0  0  0  0  0  0
   58.0610   30.2630   44.6460 C   0  0  0  0  0  0  0  0  0  0  0  0
   57.1180   30.0330   43.6260 C   0  0  0  0  0  0  0  0  0  0  0  0
   57.0260   28.7790   43.0140 C   0  0  0  0  0  0  0  0  0  0  0  0
   57.8720   27.7420   43.4120 C   0  0  0  0  0  0  0  0  0  0  0  0
   58.8120   27.9570   44.4220 C   0  0  0  0  0  0  0  0  0  0  0  0
   58.9090   29.2080   45.0360 C   0  0  0  0  0  0  0  0  0  0  0  0
   57.6180   32.7520   44.6140 C   0  0  0  0  0  0  0  0  0  0  0  0
   58.3260   34.0100   45.1290 C   0  0  0  0  0  0  0  0  0  0  0  0
   60.4390   34.2390   49.1090 C   0  0  0  0  0  0  0  0  0  0  0  0
   61.5290   33.5950   49.6990 C   0  0  0  0  0  0  0  0  0  0  0  0
   65.7232   32.5325   51.4102 H   0  0  0  0  0  0  0  0  0  0  0  0
   66.0236   31.2111   50.2312 H   0  0  0  0  0  0  0  0  0  0  0  0
   67.0714   32.6701   50.2312 H   0  0  0  0  0  0  0  0  0  0  0  0
   65.1062   34.0596   49.5723 H   0  0  0  0  0  0  0  0  0  0  0  0
   65.4596   32.7586   48.3698 H   0  0  0  0  0  0  0  0  0  0  0  0
   63.5700   31.4502   51.3741 H   0  0  0  0  0  0  0  0  0  0  0  0
   62.5522   30.7949   50.0469 H   0  0  0  0  0  0  0  0  0  0  0  0
   64.3247   30.5038   50.0469 H   0  0  0  0  0  0  0  0  0  0  0  0
   63.3799   32.9824   46.8883 H   0  0  0  0  0  0  0  0  0  0  0  0
   61.4353   34.1280   45.8435 H   0  0  0  0  0  0  0  0  0  0  0  0
   58.7435   35.7884   47.8379 H   0  0  0  0  0  0  0  0  0  0  0  0
   59.5748   35.7030   46.2247 H   0  0  0  0  0  0  0  0  0  0  0  0
   57.2430   34.5920   46.7610 H   0  0  0  0  0  0  0  0  0  0  0  0
   58.8271   33.0309   48.2674 H   0  0  0  0  0  0  0  0  0  0  0  0
   57.1948   32.5938   47.5701 H   0  0  0  0  0  0  0  0  0  0  0  0
   59.9206   31.9438   46.3671 H   0  0  0  0  0  0  0  0  0  0  0  0
   58.7720   30.7939   47.1402 H   0  0  0  0  0  0  0  0  0  0  0  0
   56.4486   30.8459   43.3081 H   0  0  0  0  0  0  0  0  0  0  0  0
   56.2861   28.6093   42.2179 H   0  0  0  0  0  0  0  0  0  0  0  0
   57.7981   26.7560   42.9301 H   0  0  0  0  0  0  0  0  0  0  0  0
   59.4778   27.1392   44.7349 H   0  0  0  0  0  0  0  0  0  0  0  0
   59.6530   29.3704   45.8298 H   0  0  0  0  0  0  0  0  0  0  0  0
   57.7736   32.6659   43.5285 H   0  0  0  0  0  0  0  0  0  0  0  0
   56.5430   32.8292   44.8338 H   0  0  0  0  0  0  0  0  0  0  0  0
   59.3950   33.9424   44.8788 H   0  0  0  0  0  0  0  0  0  0  0  0
   57.8570   34.8818   44.6494 H   0  0  0  0  0  0  0  0  0  0  0  0
   59.6104   34.5967   49.7379 H   0  0  0  0  0  0  0  0  0  0  0  0
   61.5474   33.4464   50.7888 H   0  0  0  0  0  0  0  0  0  0  0  0
  1  2  1  0
  2  3  1  0
  3  4  1  0
  3  5  1  0
  5  6  2  0
  6  7  1  0
  7  8  2  0
  8  9  1  0
  9 10  1  0
 10 11  1  0
 11 12  1  0
 12 13  1  0
 13 14  1  0
 14 15  2  0
 15 16  1  0
 16 17  2  0
 17 18  1  0
 18 19  2  0
 13 20  1  0
 20 21  1  0
  8 22  1  0
 22 23  2  0
 23  5  1  0
 21 10  1  0
 19 14  1  0
  1 24  1  0
  1 25  1  0
  1 26  1  0
  2 27  1  0
  2 28  1  0
  4 29  1  0
  4 30  1  0
  4 31  1  0
  6 32  1  0
  7 33  1  0
  9 34  1  0
  9 35  1  0
 10 36  1  0
 11 37  1  0
 11 38  1  0
 12 39  1  0
 12 40  1  0
 15 41  1  0
 16 42  1  0
 17 43  1  0
 18 44  1  0
 19 45  1  0
 20 46  1  0
 20 47  1  0
 21 48  1  0
 21 49  1  0
 22 50  1  0
 23 51  1  0
M  CHG  1  10   1
M  END
>  <UniqueID>  (18) 
17

>  <SMILES>  (18) 
CCN(C)c1ccc(C[NH+]2CCN(c3ccccc3)CC2)cc1

>  <Energy>  (18) 
63.31624873627025

>  <Genealogy>  (18) 
CCN(C)c1ccc(C[NH+]2CCN(c3ccccc3)CC2)cc1 (protonated)
CCN(C)c1ccc(C[NH+]2CCN(c3ccccc3)CC2)cc1 (3D coordinates assigned)
CCN(C)c1ccc(C[NH+]2CCN(c3ccccc3)CC2)cc1 (nonaromatic ring conformer: 63.31624873627025 kcal/mol)

>  <smiles>  (18) 
CCN(C)c1ccc(CN2CCN(c3ccccc3)CC2)cc1

>  <score_type>  (18) 
oracle

>  <origin>  (18) 
adg

>  <m_score__min__energy>  (18) 
-5.5899999999999999

>  <m_primary>  (18) 
energy

$$$$
18:0
     RDKit          3D

 54 55  0  0  0  0  0  0  0  0999 V2000
   58.2680   27.6910   44.0460 C   0  0  0  0  0  0  0  0  0  0  0  0
   57.6280   28.6920   45.0160 C   0  0  0  0  0  0  0  0  0  0  0  0
   58.4620   29.8990   45.2570 N   0  0  0  0  0  0  0  0  0  0  0  0
   58.3820   30.8450   44.1120 C   0  0  0  0  0  0  0  0  0  0  0  0
   57.0250   30.8050   43.3980 C   0  0  0  0  0  0  0  0  0  0  0  0
   59.8790   29.6050   45.6220 C   0  0  0  0  0  0  0  0  0  0  0  0
   60.2600   29.8020   47.1070 C   0  0  0  0  0  0  0  0  0  0  0  0
   59.1330   30.3400   47.8900 N   0  0  0  0  0  0  0  0  0  0  0  0
   59.6050   31.0000   49.1150 C   0  0  0  0  0  0  0  0  0  0  0  0
   59.0380   32.4270   49.2700 C   0  0  0  0  0  0  0  0  0  0  0  0
   59.7370   33.5600   48.4570 C   0  0  0  0  0  0  0  0  0  0  0  0
   58.9900   33.8210   47.1530 C   0  0  0  0  0  0  0  0  0  0  0  0
   57.7250   33.2390   46.9500 C   0  0  0  0  0  0  0  0  0  0  0  0
   57.0430   33.4270   45.7440 C   0  0  0  0  0  0  0  0  0  0  0  0
   57.6170   34.1910   44.7250 C   0  0  0  0  0  0  0  0  0  0  0  0
   58.8770   34.7640   44.9070 C   0  0  0  0  0  0  0  0  0  0  0  0
   59.5650   34.5770   46.1100 C   0  0  0  0  0  0  0  0  0  0  0  0
   61.2580   33.4650   48.2820 C   0  0  0  0  0  0  0  0  0  0  0  0
   61.8670   32.7880   47.2010 C   0  0  0  0  0  0  0  0  0  0  0  0
   63.2580   32.6680   47.1230 C   0  0  0  0  0  0  0  0  0  0  0  0
   64.0670   33.1860   48.1330 C   0  0  0  0  0  0  0  0  0  0  0  0
   63.4860   33.8120   49.2350 C   0  0  0  0  0  0  0  0  0  0  0  0
   62.0960   33.9350   49.3190 C   0  0  0  0  0  0  0  0  0  0  0  0
   58.7743   26.8991   44.6175 H   0  0  0  0  0  0  0  0  0  0  0  0
   57.4876   27.2442   43.4124 H   0  0  0  0  0  0  0  0  0  0  0  0
   59.0010   28.2118   43.4124 H   0  0  0  0  0  0  0  0  0  0  0  0
   56.6626   29.0134   44.5981 H   0  0  0  0  0  0  0  0  0  0  0  0
   57.5137   28.1790   45.9823 H   0  0  0  0  0  0  0  0  0  0  0  0
   58.0560   30.3820   46.0940 H   0  0  0  0  0  0  0  0  0  0  0  0
   58.5512   31.8651   44.4871 H   0  0  0  0  0  0  0  0  0  0  0  0
   59.1480   30.5448   43.3818 H   0  0  0  0  0  0  0  0  0  0  0  0
   56.2181   30.7812   44.1452 H   0  0  0  0  0  0  0  0  0  0  0  0
   56.9154   31.7003   42.7684 H   0  0  0  0  0  0  0  0  0  0  0  0
   56.9684   29.9048   42.7684 H   0  0  0  0  0  0  0  0  0  0  0  0
   60.0814   28.5558   45.3607 H   0  0  0  0  0  0  0  0  0  0  0  0
   60.4826   30.3370   45.0653 H   0  0  0  0  0  0  0  0  0  0  0  0
   60.5580   28.8316   47.5308 H   0  0  0  0  0  0  0  0  0  0  0  0
   61.0887   30.5237   47.1566 H   0  0  0  0  0  0  0  0  0  0  0  0
   58.5580   29.5200   48.1860 H   0  0  0  0  0  0  0  0  0  0  0  0
   59.2930   30.3997   49.9824 H   0  0  0  0  0  0  0  0  0  0  0  0
   60.7004   31.0791   49.0527 H   0  0  0  0  0  0  0  0  0  0  0  0
   57.9826   32.3999   48.9611 H   0  0  0  0  0  0  0  0  0  0  0  0
   59.2063   32.6877   50.3253 H   0  0  0  0  0  0  0  0  0  0  0  0
   59.6597   34.4481   49.1014 H   0  0  0  0  0  0  0  0  0  0  0  0
   57.2694   32.6317   47.7460 H   0  0  0  0  0  0  0  0  0  0  0  0
   56.0522   32.9723   45.5972 H   0  0  0  0  0  0  0  0  0  0  0  0
   57.0761   34.3411   43.7790 H   0  0  0  0  0  0  0  0  0  0  0  0
   59.3292   35.3634   44.1031 H   0  0  0  0  0  0  0  0  0  0  0  0
   60.5617   35.0226   46.2440 H   0  0  0  0  0  0  0  0  0  0  0  0
   61.2389   32.3501   46.4112 H   0  0  0  0  0  0  0  0  0  0  0  0
   63.7161   32.1623   46.2602 H   0  0  0  0  0  0  0  0  0  0  0  0
   65.1613   33.1011   48.0608 H   0  0  0  0  0  0  0  0  0  0  0  0
   64.1222   34.2096   50.0394 H   0  0  0  0  0  0  0  0  0  0  0  0
   61.6470   34.4051   50.2064 H   0  0  0  0  0  0  0  0  0  0  0  0
  1  2  1  0
  2  3  1  0
  3  4  1  0
  4  5  1  0
  3  6  1  0
  6  7  1  0
  7  8  1  0
  8  9  1  0
  9 10  1  0
 10 11  1  0
 11 12  1  0
 12 13  2  0
 13 14  1  0
 14 15  2  0
 15 16  1  0
 16 17  2  0
 11 18  1  0
 18 19  2  0
 19 20  1  0
 20 21  2  0
 21 22  1  0
 22 23  2  0
 17 12  1  0
 23 18  1  0
  1 24  1  0
  1 25  1  0
  1 26  1  0
  2 27  1  0
  2 28  1  0
  3 29  1  0
  4 30  1  0
  4 31  1  0
  5 32  1  0
  5 33  1  0
  5 34  1  0
  6 35  1  0
  6 36  1  0
  7 37  1  0
  7 38  1  0
  8 39  1  0
  9 40  1  0
  9 41  1  0
 10 42  1  0
 10 43  1  0
 11 44  1  0
 13 45  1  0
 14 46  1  0
 15 47  1  0
 16 48  1  0
 17 49  1  0
 19 50  1  0
 20 51  1  0
 21 52  1  0
 22 53  1  0
 23 54  1  0
M  CHG  1   3   1
M  END
>  <UniqueID>  (19) 
18

>  <SMILES>  (19) 
CC[NH+](CC)CCNCCC(c1ccccc1)c1ccccc1

>  <Energy>  (19) 
63.89615270950943

>  <Genealogy>  (19) 
CC[NH+](CC)CCNCCC(c1ccccc1)c1ccccc1 (protonated)
CC[NH+](CC)CCNCCC(c1ccccc1)c1ccccc1 (3D coordinates assigned)
CC[NH+](CC)CCNCCC(c1ccccc1)c1ccccc1 (optimized conformer: 63.89615270950943 kcal/mol)

>  <smiles>  (19) 
CCN(CC)CCNCCC(c1ccccc1)c1ccccc1

>  <score_type>  (19) 
oracle

>  <origin>  (19) 
adg

>  <m_score__min__energy>  (19) 
-5.6200000000000001

>  <m_primary>  (19) 
energy

$$$$
19:0
     RDKit          3D

 37 40  0  0  0  0  0  0  0  0999 V2000
   63.2380   33.8450   46.6980 C   0  0  0  0  0  0  0  0  0  0  0  0
   63.7600   32.5660   47.3440 C   0  0  0  0  0  0  0  0  0  0  0  0
   62.6910   31.6570   47.5950 O   0  0  0  0  0  0  0  0  0  0  0  0
   61.4220   32.0570   48.0280 C   0  0  0  0  0  0  0  0  0  0  0  0
   61.2770   32.5910   49.1610 O   0  0  0  0  0  0  0  0  0  0  0  0
   60.2460   31.8340   47.1650 C   0  0  0  0  0  0  0  0  0  0  0  0
   59.5730   30.6340   46.9250 C   0  0  0  0  0  0  0  0  0  0  0  0
   58.5170   30.9140   46.0830 C   0  0  0  0  0  0  0  0  0  0  0  0
   58.5050   32.2320   45.7820 N   0  0  0  0  0  0  0  0  0  0  0  0
   57.6520   32.9520   45.0010 C   0  0  0  0  0  0  0  0  0  0  0  0
   57.8590   34.3310   44.8730 C   0  0  0  0  0  0  0  0  0  0  0  0
   58.9280   34.9380   45.5510 C   0  0  0  0  0  0  0  0  0  0  0  0
   59.7870   34.1700   46.3470 C   0  0  0  0  0  0  0  0  0  0  0  0
   59.5490   32.7930   46.4340 C   0  0  0  0  0  0  0  0  0  0  0  0
   57.5970   29.8550   45.6220 C   0  0  0  0  0  0  0  0  0  0  0  0
   56.6320   30.1200   44.8560 O   0  0  0  0  0  0  0  0  0  0  0  0
   57.8350   28.4630   46.0870 C   0  0  0  0  0  0  0  0  0  0  0  0
   56.9730   27.4230   45.6960 C   0  0  0  0  0  0  0  0  0  0  0  0
   57.1980   26.1150   46.1300 C   0  0  0  0  0  0  0  0  0  0  0  0
   58.2850   25.8280   46.9580 C   0  0  0  0  0  0  0  0  0  0  0  0
   59.1530   26.8470   47.3570 C   0  0  0  0  0  0  0  0  0  0  0  0
   58.9410   28.1700   46.9310 C   0  0  0  0  0  0  0  0  0  0  0  0
   59.8680   29.2540   47.3540 C   0  0  0  0  0  0  0  0  0  0  0  0
   60.8970   28.9920   48.0310 O   0  0  0  0  0  0  0  0  0  0  0  0
   62.9465   34.5593   47.4821 H   0  0  0  0  0  0  0  0  0  0  0  0
   64.0270   34.2885   46.0730 H   0  0  0  0  0  0  0  0  0  0  0  0
   62.3639   33.6098   46.0730 H   0  0  0  0  0  0  0  0  0  0  0  0
   64.4872   32.0910   46.6690 H   0  0  0  0  0  0  0  0  0  0  0  0
   64.2389   32.8223   48.3005 H   0  0  0  0  0  0  0  0  0  0  0  0
   56.8169   32.4597   44.4811 H   0  0  0  0  0  0  0  0  0  0  0  0
   57.1879   34.9352   44.2448 H   0  0  0  0  0  0  0  0  0  0  0  0
   59.0916   36.0217   45.4566 H   0  0  0  0  0  0  0  0  0  0  0  0
   60.6242   34.6350   46.8881 H   0  0  0  0  0  0  0  0  0  0  0  0
   56.1150   27.6415   45.0433 H   0  0  0  0  0  0  0  0  0  0  0  0
   56.5173   25.3089   45.8189 H   0  0  0  0  0  0  0  0  0  0  0  0
   58.4584   24.7961   47.2972 H   0  0  0  0  0  0  0  0  0  0  0  0
   60.0078   26.6129   48.0086 H   0  0  0  0  0  0  0  0  0  0  0  0
  1  2  1  0
  2  3  1  0
  3  4  1  0
  4  5  2  0
  4  6  1  0
  6  7  1  0
  7  8  2  0
  8  9  1  0
  9 10  1  0
 10 11  2  0
 11 12  1  0
 12 13  2  0
 13 14  1  0
  8 15  1  0
 15 16  2  0
 15 17  1  0
 17 18  2  0
 18 19  1  0
 19 20  2  0
 20 21  1  0
 21 22  2  0
 22 23  1  0
 23 24  2  0
 14  6  2  0
 22 17  1  0
 23  7  1  0
 14  9  1  0
  1 25  1  0
  1 26  1  0
  1 27  1  0
  2 28  1  0
  2 29  1  0
 10 30  1  0
 11 31  1  0
 12 32  1  0
 13 33  1  0
 18 34  1  0
 19 35  1  0
 20 36  1  0
 21 37  1  0
M  END
>  <UniqueID>  (20) 
19

>  <SMILES>  (20) 
CCOC(=O)c1c2c(n3ccccc13)C(=O)c1ccccc1C2=O

>  <Energy>  (20) 
81.26748470307452

>  <Genealogy>  (20) 
CCOC(=O)c1c2c(n3ccccc13)C(=O)c1ccccc1C2=O (3D coordinates assigned)
CCOC(=O)c1c2c(n3ccccc13)C(=O)c1ccccc1C2=O (nonaromatic ring conformer: 81.26748470307452 kcal/mol)

>  <smiles>  (20) 
CCOC(=O)c1c2c(n3ccccc13)C(=O)c1ccccc1C2=O

>  <score_type>  (20) 
oracle

>  <origin>  (20) 
adg

>  <m_score__min__energy>  (20) 
-7.8799999999999999

>  <m_primary>  (20) 
energy

$$$$
20:0
     RDKit          3D

 40 41  0  0  0  0  0  0  0  0999 V2000
   57.4150   28.8670   45.5130 C   0  0  0  0  0  0  0  0  0  0  0  0
   58.4140   29.8960   45.1810 N   0  0  0  0  0  0  0  0  0  0  0  0
   59.7620   29.3010   45.2310 C   0  0  0  0  0  0  0  0  0  0  0  0
   58.1370   30.4690   43.8460 C   0  0  0  0  0  0  0  0  0  0  0  0
   57.0400   31.5310   43.9330 C   0  0  0  0  0  0  0  0  0  0  0  0
   56.9920   32.0300   45.2560 O   0  0  0  0  0  0  0  0  0  0  0  0
   57.3000   33.4110   45.2760 C   0  0  0  0  0  0  0  0  0  0  0  0
   58.6510   33.6580   45.8890 C   0  0  0  0  0  0  0  0  0  0  0  0
   58.9920   34.8390   46.1690 O   0  0  0  0  0  0  0  0  0  0  0  0
   59.5350   32.5590   46.1570 N   0  0  0  0  0  0  0  0  0  0  0  0
   60.7830   32.7140   46.8520 C   0  0  0  0  0  0  0  0  0  0  0  0
   61.7210   33.6540   46.4030 C   0  0  0  0  0  0  0  0  0  0  0  0
   62.9470   33.7990   47.0490 C   0  0  0  0  0  0  0  0  0  0  0  0
   63.2600   33.0010   48.1570 C   0  0  0  0  0  0  0  0  0  0  0  0
   64.4970   33.1520   48.8040 C   0  0  0  0  0  0  0  0  0  0  0  0
   64.8140   32.3590   49.9080 C   0  0  0  0  0  0  0  0  0  0  0  0
   63.9030   31.4120   50.3740 C   0  0  0  0  0  0  0  0  0  0  0  0
   62.6680   31.2480   49.7400 C   0  0  0  0  0  0  0  0  0  0  0  0
   62.3280   32.0380   48.6230 C   0  0  0  0  0  0  0  0  0  0  0  0
   61.0840   31.8970   47.9610 C   0  0  0  0  0  0  0  0  0  0  0  0
   59.8710   30.7420   48.5300 Cl  0  0  0  0  0  0  0  0  0  0  0  0
   57.3291   28.7785   46.6061 H   0  0  0  0  0  0  0  0  0  0  0  0
   56.4403   29.1524   45.0905 H   0  0  0  0  0  0  0  0  0  0  0  0
   57.7291   27.9012   45.0905 H   0  0  0  0  0  0  0  0  0  0  0  0
   60.0651   29.1672   46.2799 H   0  0  0  0  0  0  0  0  0  0  0  0
   59.7507   28.3243   44.7252 H   0  0  0  0  0  0  0  0  0  0  0  0
   60.4760   29.9676   44.7252 H   0  0  0  0  0  0  0  0  0  0  0  0
   59.0553   30.9293   43.4526 H   0  0  0  0  0  0  0  0  0  0  0  0
   57.7985   29.6635   43.1777 H   0  0  0  0  0  0  0  0  0  0  0  0
   57.2643   32.3521   43.2362 H   0  0  0  0  0  0  0  0  0  0  0  0
   56.0693   31.0883   43.6652 H   0  0  0  0  0  0  0  0  0  0  0  0
   57.2984   33.7940   44.2448 H   0  0  0  0  0  0  0  0  0  0  0  0
   56.5422   33.9282   45.8829 H   0  0  0  0  0  0  0  0  0  0  0  0
   59.1980   31.5900   45.9590 H   0  0  0  0  0  0  0  0  0  0  0  0
   61.4868   34.2835   45.5319 H   0  0  0  0  0  0  0  0  0  0  0  0
   63.6720   34.5431   46.6875 H   0  0  0  0  0  0  0  0  0  0  0  0
   65.2187   33.8978   48.4395 H   0  0  0  0  0  0  0  0  0  0  0  0
   65.7844   32.4814   50.4113 H   0  0  0  0  0  0  0  0  0  0  0  0
   64.1574   30.7906   51.2452 H   0  0  0  0  0  0  0  0  0  0  0  0
   61.9567   30.4975   50.1152 H   0  0  0  0  0  0  0  0  0  0  0  0
  1  2  1  0
  2  3  1  0
  2  4  1  0
  4  5  1  0
  5  6  1  0
  6  7  1  0
  7  8  1  0
  8  9  2  0
  8 10  1  0
 10 11  1  0
 11 12  2  0
 12 13  1  0
 13 14  2  0
 14 15  1  0
 15 16  2  0
 16 17  1  0
 17 18  2  0
 18 19  1  0
 19 20  2  0
 20 21  1  0
 20 11  1  0
 19 14  1  0
  1 22  1  0
  1 23  1  0
  1 24  1  0
  3 25  1  0
  3 26  1  0
  3 27  1  0
  4 28  1  0
  4 29  1  0
  5 30  1  0
  5 31  1  0
  7 32  1  0
  7 33  1  0
 10 34  1  0
 12 35  1  0
 13 36  1  0
 15 37  1  0
 16 38  1  0
 17 39  1  0
 18 40  1  0
M  END
>  <UniqueID>  (21) 
20

>  <SMILES>  (21) 
CN(C)CCOCC(=O)Nc1ccc2ccccc2c1Cl

>  <Energy>  (21) 
48.94746552466212

>  <Genealogy>  (21) 
CN(C)CCOCC(=O)Nc1ccc2ccccc2c1Cl (3D coordinates assigned)
CN(C)CCOCC(=O)Nc1ccc2ccccc2c1Cl (optimized conformer: 48.94746552466212 kcal/mol)

>  <smiles>  (21) 
CN(C)CCOCC(=O)Nc1ccc2ccccc2c1Cl

>  <score_type>  (21) 
oracle

>  <origin>  (21) 
adg

>  <m_score__min__energy>  (21) 
-7.5300000000000002

>  <m_primary>  (21) 
energy

$$$$
21:0
     RDKit          3D

 18 19  0  0  0  0  0  0  0  0999 V2000
   55.5190   29.7390   43.8100 C   0  0  0  0  0  0  0  0  0  0  0  0
   55.5930   28.8280   44.9030 O   0  0  0  0  0  0  0  0  0  0  0  0
   56.7940   28.3370   45.4330 C   0  0  0  0  0  0  0  0  0  0  0  0
   58.0300   29.0290   45.3400 C   0  0  0  0  0  0  0  0  0  0  0  0
   59.2080   28.4750   45.8990 C   0  0  0  0  0  0  0  0  0  0  0  0
   59.1750   27.2290   46.5560 C   0  0  0  0  0  0  0  0  0  0  0  0
   57.9480   26.5790   46.6290 C   0  0  0  0  0  0  0  0  0  0  0  0
   57.6530   25.3910   47.1960 N   0  0  0  0  0  0  0  0  0  0  0  0
   56.3660   25.2380   46.9900 O   0  0  0  0  0  0  0  0  0  0  0  0
   55.8350   26.2370   46.3390 N   0  0  0  0  0  0  0  0  0  0  0  0
   54.5090   26.3420   45.9870 O   0  0  0  0  0  0  0  0  0  0  0  0
   56.8170   27.1090   46.0930 C   0  0  0  0  0  0  0  0  0  0  0  0
   55.4355   30.7664   44.1940 H   0  0  0  0  0  0  0  0  0  0  0  0
   56.4274   29.6497   43.1961 H   0  0  0  0  0  0  0  0  0  0  0  0
   54.6370   29.5042   43.1961 H   0  0  0  0  0  0  0  0  0  0  0  0
   58.0734   30.0027   44.8301 H   0  0  0  0  0  0  0  0  0  0  0  0
   60.1583   29.0233   45.8193 H   0  0  0  0  0  0  0  0  0  0  0  0
   60.0830   26.7884   46.9934 H   0  0  0  0  0  0  0  0  0  0  0  0
  1  2  1  0
  2  3  1  0
  3  4  2  0
  4  5  1  0
  5  6  2  0
  6  7  1  0
  7  8  2  0
  8  9  1  0
  9 10  1  0
 10 11  1  0
 10 12  2  0
 12  3  1  0
 12  7  1  0
  1 13  1  0
  1 14  1  0
  1 15  1  0
  4 16  1  0
  5 17  1  0
  6 18  1  0
M  CHG  2  10   1  11  -1
M  END
>  <UniqueID>  (22) 
21

>  <SMILES>  (22) 
COc1cccc2no[n+]([O-])c12

>  <Energy>  (22) 
64.5294802958641

>  <Genealogy>  (22) 
COc1cccc2no[n+]([O-])c12 (3D coordinates assigned)
COc1cccc2no[n+]([O-])c12 (optimized conformer: 64.5294802958641 kcal/mol)

>  <smiles>  (22) 
COc1cccc2no[n+]([O-])c12

>  <score_type>  (22) 
oracle

>  <origin>  (22) 
adg

>  <m_score__min__energy>  (22) 
-6.9500000000000002

>  <m_primary>  (22) 
energy

$$$$
22:0
     RDKit          3D

 58 59  0  0  0  0  0  0  0  0999 V2000
   59.6460   33.8250   50.2440 C   0  0  0  0  0  0  0  0  0  0  0  0
   61.0570   33.3640   50.6070 C   0  0  0  0  0  0  0  0  0  0  0  0
   62.1490   34.2280   49.9590 C   0  0  0  0  0  0  0  0  0  0  0  0
   63.3470   33.3960   49.4690 C   0  0  0  0  0  0  0  0  0  0  0  0
   63.8400   33.8300   48.0810 C   0  0  0  0  0  0  0  0  0  0  0  0
   63.2920   32.9420   46.9530 C   0  0  0  0  0  0  0  0  0  0  0  0
   61.8170   33.0080   46.9120 N   0  0  0  0  0  0  0  0  0  0  0  0
   61.2580   34.1450   46.3930 C   0  0  0  0  0  0  0  0  0  0  0  0
   59.8800   34.2890   46.2870 C   0  0  0  0  0  0  0  0  0  0  0  0
   59.0360   33.2690   46.7150 C   0  0  0  0  0  0  0  0  0  0  0  0
   57.6200   33.4280   46.5450 N   0  0  0  0  0  0  0  0  0  0  0  0
   56.9960   33.1770   45.2450 C   0  0  0  0  0  0  0  0  0  0  0  0
   57.6330   31.9370   44.5820 C   0  0  0  0  0  0  0  0  0  0  0  0
   56.9530   30.6550   44.8910 N   0  0  0  0  0  0  0  0  0  0  0  0
   57.8500   29.5420   45.2700 C   0  0  0  0  0  0  0  0  0  0  0  0
   59.2240   29.6760   44.6130 C   0  0  0  0  0  0  0  0  0  0  0  0
   55.8400   30.3080   43.9730 C   0  0  0  0  0  0  0  0  0  0  0  0
   56.2860   29.7200   42.6320 C   0  0  0  0  0  0  0  0  0  0  0  0
   59.5910   32.1200   47.3140 C   0  0  0  0  0  0  0  0  0  0  0  0
   58.7670   31.1100   47.8510 C   0  0  0  0  0  0  0  0  0  0  0  0
   59.3260   29.9830   48.4470 C   0  0  0  0  0  0  0  0  0  0  0  0
   60.7080   29.8490   48.5330 C   0  0  0  0  0  0  0  0  0  0  0  0
   61.5440   30.8440   48.0270 C   0  0  0  0  0  0  0  0  0  0  0  0
   61.0090   32.0000   47.4070 C   0  0  0  0  0  0  0  0  0  0  0  0
   59.0733   34.0121   51.1643 H   0  0  0  0  0  0  0  0  0  0  0  0
   59.7035   34.7511   49.6532 H   0  0  0  0  0  0  0  0  0  0  0  0
   59.1456   33.0436   49.6532 H   0  0  0  0  0  0  0  0  0  0  0  0
   61.1726   33.4123   51.6998 H   0  0  0  0  0  0  0  0  0  0  0  0
   61.1782   32.3379   50.2296 H   0  0  0  0  0  0  0  0  0  0  0  0
   61.7142   34.7599   49.0999 H   0  0  0  0  0  0  0  0  0  0  0  0
   62.5187   34.9272   50.7234 H   0  0  0  0  0  0  0  0  0  0  0  0
   64.1722   33.5099   50.1873 H   0  0  0  0  0  0  0  0  0  0  0  0
   63.0166   32.3496   49.3927 H   0  0  0  0  0  0  0  0  0  0  0  0
   63.5178   34.8663   47.9012 H   0  0  0  0  0  0  0  0  0  0  0  0
   64.9361   33.7379   48.0738 H   0  0  0  0  0  0  0  0  0  0  0  0
   63.6966   33.2886   45.9906 H   0  0  0  0  0  0  0  0  0  0  0  0
   63.5962   31.9016   47.1400 H   0  0  0  0  0  0  0  0  0  0  0  0
   61.9129   34.9609   46.0531 H   0  0  0  0  0  0  0  0  0  0  0  0
   59.4555   35.2113   45.8638 H   0  0  0  0  0  0  0  0  0  0  0  0
   57.1400   34.1120   47.1730 H   0  0  0  0  0  0  0  0  0  0  0  0
   55.9193   33.0015   45.3860 H   0  0  0  0  0  0  0  0  0  0  0  0
   57.1506   34.0518   44.5963 H   0  0  0  0  0  0  0  0  0  0  0  0
   57.6130   32.0822   43.4918 H   0  0  0  0  0  0  0  0  0  0  0  0
   58.6524   31.8553   44.9871 H   0  0  0  0  0  0  0  0  0  0  0  0
   57.9757   29.5414   46.3628 H   0  0  0  0  0  0  0  0  0  0  0  0
   57.3949   28.6016   44.9257 H   0  0  0  0  0  0  0  0  0  0  0  0
   59.9971   29.7514   45.3919 H   0  0  0  0  0  0  0  0  0  0  0  0
   59.4189   28.7926   43.9872 H   0  0  0  0  0  0  0  0  0  0  0  0
   59.2446   30.5804   43.9872 H   0  0  0  0  0  0  0  0  0  0  0  0
   55.1971   29.5702   44.4753 H   0  0  0  0  0  0  0  0  0  0  0  0
   55.3167   31.2482   43.7449 H   0  0  0  0  0  0  0  0  0  0  0  0
   56.9419   28.8552   42.8108 H   0  0  0  0  0  0  0  0  0  0  0  0
   55.4027   29.3983   42.0607 H   0  0  0  0  0  0  0  0  0  0  0  0
   56.8339   30.4839   42.0607 H   0  0  0  0  0  0  0  0  0  0  0  0
   57.6731   31.2134   47.7986 H   0  0  0  0  0  0  0  0  0  0  0  0
   58.6727   29.1957   48.8513 H   0  0  0  0  0  0  0  0  0  0  0  0
   61.1433   28.9543   49.0022 H   0  0  0  0  0  0  0  0  0  0  0  0
   62.6348   30.7295   48.1105 H   0  0  0  0  0  0  0  0  0  0  0  0
  1  2  1  0
  2  3  1  0
  3  4  1  0
  4  5  1  0
  5  6  1  0
  6  7  1  0
  7  8  2  0
  8  9  1  0
  9 10  2  0
 10 11  1  0
 11 12  1  0
 12 13  1  0
 13 14  1  0
 14 15  1  0
 15 16  1  0
 14 17  1  0
 17 18  1  0
 10 19  1  0
 19 20  2  0
 20 21  1  0
 21 22  2  0
 22 23  1  0
 23 24  2  0
 24  7  1  0
 24 19  1  0
  1 25  1  0
  1 26  1  0
  1 27  1  0
  2 28  1  0
  2 29  1  0
  3 30  1  0
  3 31  1  0
  4 32  1  0
  4 33  1  0
  5 34  1  0
  5 35  1  0
  6 36  1  0
  6 37  1  0
  8 38  1  0
  9 39  1  0
 11 40  1  0
 12 41  1  0
 12 42  1  0
 13 43  1  0
 13 44  1  0
 15 45  1  0
 15 46  1  0
 16 47  1  0
 16 48  1  0
 16 49  1  0
 17 50  1  0
 17 51  1  0
 18 52  1  0
 18 53  1  0
 18 54  1  0
 20 55  1  0
 21 56  1  0
 22 57  1  0
 23 58  1  0
M  CHG  1   7   1
M  END
>  <UniqueID>  (23) 
22

>  <SMILES>  (23) 
CCCCCC[n+]1ccc(NCCN(CC)CC)c2ccccc21

>  <Energy>  (23) 
66.21037173701734

>  <Genealogy>  (23) 
CCCCCC[n+]1ccc(NCCN(CC)CC)c2ccccc21 (3D coordinates assigned)
CCCCCC[n+]1ccc(NCCN(CC)CC)c2ccccc21 (optimized conformer: 66.21037173701734 kcal/mol)

>  <smiles>  (23) 
CCCCCC[n+]1ccc(NCCN(CC)CC)c2ccccc21

>  <score_type>  (23) 
oracle

>  <origin>  (23) 
adg

>  <m_score__min__energy>  (23) 
-5.3499999999999996

>  <m_primary>  (23) 
energy

$$$$
23:0
     RDKit          3D

 50 52  0  0  0  0  0  0  0  0999 V2000
   59.0250   31.9650   50.3570 C   0  0  0  0  0  0  0  0  0  0  0  0
   58.8510   32.8790   49.1500 C   0  0  0  0  0  0  0  0  0  0  0  0
   59.9450   33.8580   49.1060 N   0  0  0  0  0  0  0  0  0  0  0  0
   60.8060   33.7880   50.2970 C   0  0  0  0  0  0  0  0  0  0  0  0
   62.2940   33.9460   49.9620 C   0  0  0  0  0  0  0  0  0  0  0  0
   62.4630   33.8410   48.5610 O   0  0  0  0  0  0  0  0  0  0  0  0
   63.4820   32.9090   48.2530 C   0  0  0  0  0  0  0  0  0  0  0  0
   62.8870   31.7000   47.5230 C   0  0  0  0  0  0  0  0  0  0  0  0
   61.4240   31.7080   47.5960 N   0  0  0  0  0  0  0  0  0  0  0  0
   60.5840   30.5420   47.4620 C   0  0  0  0  0  0  0  0  0  0  0  0
   60.6810   29.4530   48.3450 C   0  0  0  0  0  0  0  0  0  0  0  0
   61.5560   29.4560   49.3800 F   0  0  0  0  0  0  0  0  0  0  0  0
   59.8300   28.3620   48.2110 C   0  0  0  0  0  0  0  0  0  0  0  0
   58.8710   28.3120   47.1840 C   0  0  0  0  0  0  0  0  0  0  0  0
   57.9820   27.2260   47.0910 C   0  0  0  0  0  0  0  0  0  0  0  0
   58.0630   26.2740   47.9160 O   0  0  0  0  0  0  0  0  0  0  0  0
   56.9980   27.2080   46.0890 C   0  0  0  0  0  0  0  0  0  0  0  0
   56.0040   26.1050   45.9790 C   0  0  0  0  0  0  0  0  0  0  0  0
   54.7690   26.3550   46.0120 O   0  0  0  0  0  0  0  0  0  0  0  0
   56.4090   24.7830   45.8420 O   0  0  0  0  0  0  0  0  0  0  0  0
   56.9680   28.2620   45.1660 C   0  0  0  0  0  0  0  0  0  0  0  0
   57.8840   29.2790   45.1990 N   0  0  0  0  0  0  0  0  0  0  0  0
   57.8180   30.2780   44.1140 C   0  0  0  0  0  0  0  0  0  0  0  0
   56.4580   30.3610   43.4250 C   0  0  0  0  0  0  0  0  0  0  0  0
   56.8820   31.4600   44.3750 C   0  0  0  0  0  0  0  0  0  0  0  0
   58.7820   29.3750   46.2460 C   0  0  0  0  0  0  0  0  0  0  0  0
   59.6200   30.5100   46.4360 C   0  0  0  0  0  0  0  0  0  0  0  0
   59.4970   31.6160   45.6600 F   0  0  0  0  0  0  0  0  0  0  0  0
   58.9133   32.5520   51.2806 H   0  0  0  0  0  0  0  0  0  0  0  0
   58.2614   31.1737   50.3308 H   0  0  0  0  0  0  0  0  0  0  0  0
   60.0260   31.5096   50.3308 H   0  0  0  0  0  0  0  0  0  0  0  0
   58.8634   32.2758   48.2302 H   0  0  0  0  0  0  0  0  0  0  0  0
   57.8912   33.4101   49.2317 H   0  0  0  0  0  0  0  0  0  0  0  0
   59.5400   34.8200   49.0250 H   0  0  0  0  0  0  0  0  0  0  0  0
   60.5141   34.5910   50.9899 H   0  0  0  0  0  0  0  0  0  0  0  0
   60.6706   32.7933   50.7467 H   0  0  0  0  0  0  0  0  0  0  0  0
   62.6467   34.9303   50.3036 H   0  0  0  0  0  0  0  0  0  0  0  0
   62.8748   33.1601   50.4670 H   0  0  0  0  0  0  0  0  0  0  0  0
   64.2323   33.3901   47.6084 H   0  0  0  0  0  0  0  0  0  0  0  0
   63.9534   32.5693   49.1870 H   0  0  0  0  0  0  0  0  0  0  0  0
   63.1943   31.7308   46.4672 H   0  0  0  0  0  0  0  0  0  0  0  0
   63.2561   30.7834   48.0063 H   0  0  0  0  0  0  0  0  0  0  0  0
   60.9670   32.6470   47.6320 H   0  0  0  0  0  0  0  0  0  0  0  0
   59.9081   27.5244   48.9198 H   0  0  0  0  0  0  0  0  0  0  0  0
   56.1859   28.2726   44.3926 H   0  0  0  0  0  0  0  0  0  0  0  0
   58.8632   30.1703   43.7883 H   0  0  0  0  0  0  0  0  0  0  0  0
   56.4013   30.5609   42.3448 H   0  0  0  0  0  0  0  0  0  0  0  0
   55.5854   29.6956   43.3494 H   0  0  0  0  0  0  0  0  0  0  0  0
   57.1339   32.4570   43.9844 H   0  0  0  0  0  0  0  0  0  0  0  0
   56.4455   31.9213   45.2732 H   0  0  0  0  0  0  0  0  0  0  0  0
  1  2  1  0
  2  3  1  0
  3  4  1  0
  4  5  1  0
  5  6  1  0
  6  7  1  0
  7  8  1  0
  8  9  1  0
  9 10  1  0
 10 11  2  0
 11 12  1  0
 11 13  1  0
 13 14  2  0
 14 15  1  0
 15 16  2  0
 15 17  1  0
 17 18  1  0
 18 19  2  0
 18 20  1  0
 17 21  2  0
 21 22  1  0
 22 23  1  0
 23 24  1  0
 24 25  1  0
 22 26  1  0
 26 27  2  0
 27 28  1  0
 27 10  1  0
 26 14  1  0
 25 23  1  0
  1 29  1  0
  1 30  1  0
  1 31  1  0
  2 32  1  0
  2 33  1  0
  3 34  1  0
  4 35  1  0
  4 36  1  0
  5 37  1  0
  5 38  1  0
  7 39  1  0
  7 40  1  0
  8 41  1  0
  8 42  1  0
  9 43  1  0
 13 44  1  0
 21 45  1  0
 23 46  1  0
 24 47  1  0
 24 48  1  0
 25 49  1  0
 25 50  1  0
M  CHG  1  20  -1
M  END
>  <UniqueID>  (24) 
23

>  <SMILES>  (24) 
CCNCCOCCNc1c(F)cc2c(=O)c(C(=O)[O-])cn(C3CC3)c2c1F

>  <Energy>  (24) 
329.6674976270687

>  <Genealogy>  (24) 
CCNCCOCCNc1c(F)cc2c(=O)c(C(=O)[O-])cn(C3CC3)c2c1F (protonated)
CCNCCOCCNc1c(F)cc2c(=O)c(C(=O)[O-])cn(C3CC3)c2c1F (3D coordinates assigned)
CCNCCOCCNc1c(F)cc2c(=O)c(C(=O)[O-])cn(C3CC3)c2c1F (nonaromatic ring conformer: 329.6674976270687 kcal/mol)

>  <smiles>  (24) 
CCNCCOCCNc1c(F)cc2c(=O)c(C(=O)O)cn(C3CC3)c2c1F

>  <score_type>  (24) 
oracle

>  <origin>  (24) 
adg

>  <m_score__min__energy>  (24) 
-8.5999999999999996

>  <m_primary>  (24) 
energy

$$$$
24:0
     RDKit          3D

 49 51  0  0  0  0  0  0  0  0999 V2000
   62.6930   30.5470   50.4950 C   0  0  0  0  0  0  0  0  0  0  0  0
   61.3090   31.1030   50.8320 C   0  0  0  0  0  0  0  0  0  0  0  0
   60.3400   30.9460   49.7210 N   0  0  0  0  0  0  0  0  0  0  0  0
   58.9770   30.6950   50.2390 C   0  0  0  0  0  0  0  0  0  0  0  0
   58.2110   31.9960   50.4750 C   0  0  0  0  0  0  0  0  0  0  0  0
   60.7650   30.0070   48.6460 C   0  0  0  0  0  0  0  0  0  0  0  0
   60.1430   30.2540   47.2530 C   0  0  0  0  0  0  0  0  0  0  0  0
   59.2300   31.3960   47.2540 N   0  0  0  0  0  0  0  0  0  0  0  0
   58.6350   31.8450   46.0320 C   0  0  0  0  0  0  0  0  0  0  0  0
   58.6360   33.1850   45.6100 C   0  0  0  0  0  0  0  0  0  0  0  0
   59.2760   34.3290   46.2830 C   0  0  0  0  0  0  0  0  0  0  0  0
   59.2770   35.4650   45.7390 O   0  0  0  0  0  0  0  0  0  0  0  0
   59.8360   34.1510   47.5900 N   0  0  0  0  0  0  0  0  0  0  0  0
   61.2070   33.8580   47.8990 C   0  0  0  0  0  0  0  0  0  0  0  0
   61.7540   34.1000   49.1740 C   0  0  0  0  0  0  0  0  0  0  0  0
   63.1020   33.8220   49.4250 C   0  0  0  0  0  0  0  0  0  0  0  0
   63.9160   33.3170   48.4060 C   0  0  0  0  0  0  0  0  0  0  0  0
   63.3840   33.0980   47.1330 C   0  0  0  0  0  0  0  0  0  0  0  0
   62.0370   33.3750   46.8780 C   0  0  0  0  0  0  0  0  0  0  0  0
   57.8090   33.3020   44.1330 S   0  0  0  0  0  0  0  0  0  0  0  0
   57.4500   31.6680   44.0400 C   0  0  0  0  0  0  0  0  0  0  0  0
   56.7470   31.0430   43.0630 N   0  0  0  0  0  0  0  0  0  0  0  0
   56.5170   29.7020   43.1560 C   0  0  0  0  0  0  0  0  0  0  0  0
   56.9930   28.9720   44.2610 C   0  0  0  0  0  0  0  0  0  0  0  0
   57.7150   29.6260   45.2710 C   0  0  0  0  0  0  0  0  0  0  0  0
   57.9540   30.9970   45.1400 C   0  0  0  0  0  0  0  0  0  0  0  0
   63.2370   30.3285   51.4258 H   0  0  0  0  0  0  0  0  0  0  0  0
   62.5840   29.6229   49.9084 H   0  0  0  0  0  0  0  0  0  0  0  0
   63.2536   31.2897   49.9084 H   0  0  0  0  0  0  0  0  0  0  0  0
   60.9219   30.5712   51.7136 H   0  0  0  0  0  0  0  0  0  0  0  0
   61.4226   32.1805   51.0223 H   0  0  0  0  0  0  0  0  0  0  0  0
   58.4255   30.0845   49.5089 H   0  0  0  0  0  0  0  0  0  0  0  0
   59.0683   30.1724   51.2026 H   0  0  0  0  0  0  0  0  0  0  0  0
   58.1085   32.1702   51.5563 H   0  0  0  0  0  0  0  0  0  0  0  0
   58.7605   32.8329   50.0193 H   0  0  0  0  0  0  0  0  0  0  0  0
   57.2126   31.9215   50.0193 H   0  0  0  0  0  0  0  0  0  0  0  0
   61.8579   30.0812   48.5456 H   0  0  0  0  0  0  0  0  0  0  0  0
   60.4110   29.0138   48.9595 H   0  0  0  0  0  0  0  0  0  0  0  0
   60.9515   30.4467   46.5324 H   0  0  0  0  0  0  0  0  0  0  0  0
   59.5666   29.3592   46.9755 H   0  0  0  0  0  0  0  0  0  0  0  0
   59.2960   32.0860   48.0360 H   0  0  0  0  0  0  0  0  0  0  0  0
   61.1198   34.5086   49.9745 H   0  0  0  0  0  0  0  0  0  0  0  0
   63.5224   34.0009   50.4256 H   0  0  0  0  0  0  0  0  0  0  0  0
   64.9740   33.0925   48.6067 H   0  0  0  0  0  0  0  0  0  0  0  0
   64.0257   32.7070   46.3297 H   0  0  0  0  0  0  0  0  0  0  0  0
   61.6266   33.2129   45.8704 H   0  0  0  0  0  0  0  0  0  0  0  0
   55.9557   29.1876   42.3621 H   0  0  0  0  0  0  0  0  0  0  0  0
   56.7996   27.8915   44.3328 H   0  0  0  0  0  0  0  0  0  0  0  0
   58.0847   29.0720   46.1465 H   0  0  0  0  0  0  0  0  0  0  0  0
  1  2  1  0
  2  3  1  0
  3  4  1  0
  4  5  1  0
  3  6  1  0
  6  7  1  0
  7  8  1  0
  8  9  1  0
  9 10  2  0
 10 11  1  0
 11 12  2  0
 11 13  1  0
 13 14  1  0
 14 15  2  0
 15 16  1  0
 16 17  2  0
 17 18  1  0
 18 19  2  0
 10 20  1  0
 20 21  1  0
 21 22  2  0
 22 23  1  0
 23 24  2  0
 24 25  1  0
 25 26  2  0
 26  9  1  0
 19 14  1  0
 26 21  1  0
  1 27  1  0
  1 28  1  0
  1 29  1  0
  2 30  1  0
  2 31  1  0
  4 32  1  0
  4 33  1  0
  5 34  1  0
  5 35  1  0
  5 36  1  0
  6 37  1  0
  6 38  1  0
  7 39  1  0
  7 40  1  0
  8 41  1  0
 15 42  1  0
 16 43  1  0
 17 44  1  0
 18 45  1  0
 19 46  1  0
 23 47  1  0
 24 48  1  0
 25 49  1  0
M  CHG  1  13  -1
M  END
>  <UniqueID>  (25) 
24

>  <SMILES>  (25) 
CCN(CC)CCNc1c(C(=O)[N-]c2ccccc2)sc2ncccc12

>  <Energy>  (25) 
94.74411938087408

>  <Genealogy>  (25) 
CCN(CC)CCNc1c(C(=O)[N-]c2ccccc2)sc2ncccc12 (protonated)
CCN(CC)CCNc1c(C(=O)[N-]c2ccccc2)sc2ncccc12 (3D coordinates assigned)
CCN(CC)CCNc1c(C(=O)[N-]c2ccccc2)sc2ncccc12 (optimized conformer: 94.74411938087408 kcal/mol)

>  <smiles>  (25) 
CCN(CC)CCNc1c(C(=O)Nc2ccccc2)sc2ncccc12

>  <score_type>  (25) 
oracle

>  <origin>  (25) 
adg

>  <m_score__min__energy>  (25) 
-10.09

>  <m_primary>  (25) 
energy

$$$$
25:0
     RDKit          3D

 29 30  0  0  0  0  0  0  0  0999 V2000
   57.2680   26.4980   45.6260 C   0  0  0  0  0  0  0  0  0  0  0  0
   58.1190   26.5130   44.3550 C   0  0  0  0  0  0  0  0  0  0  0  0
   57.9280   27.7440   43.5670 N   0  0  0  0  0  0  0  0  0  0  0  0
   58.3110   28.9250   44.3140 C   0  0  0  0  0  0  0  0  0  0  0  0
   59.5720   28.9610   44.9340 C   0  0  0  0  0  0  0  0  0  0  0  0
   60.0020   30.0920   45.6210 C   0  0  0  0  0  0  0  0  0  0  0  0
   59.1770   31.2160   45.7180 C   0  0  0  0  0  0  0  0  0  0  0  0
   59.6140   32.3510   46.4200 C   0  0  0  0  0  0  0  0  0  0  0  0
   58.7870   33.4700   46.5340 C   0  0  0  0  0  0  0  0  0  0  0  0
   57.5180   33.4650   45.9530 C   0  0  0  0  0  0  0  0  0  0  0  0
   57.0690   32.3430   45.2510 C   0  0  0  0  0  0  0  0  0  0  0  0
   57.8930   31.2070   45.1130 C   0  0  0  0  0  0  0  0  0  0  0  0
   57.4620   30.0570   44.4040 C   0  0  0  0  0  0  0  0  0  0  0  0
   56.1680   30.0360   43.7850 N   0  0  0  0  0  0  0  0  0  0  0  0
   55.1460   30.2850   44.4570 O   0  0  0  0  0  0  0  0  0  0  0  0
   56.0410   29.6340   42.4760 O   0  0  0  0  0  0  0  0  0  0  0  0
   57.9256   26.5096   46.5077 H   0  0  0  0  0  0  0  0  0  0  0  0
   56.6174   27.3848   45.6421 H   0  0  0  0  0  0  0  0  0  0  0  0
   56.6490   25.5888   45.6421 H   0  0  0  0  0  0  0  0  0  0  0  0
   59.1790   26.4356   44.6384 H   0  0  0  0  0  0  0  0  0  0  0  0
   57.8062   25.6628   43.7311 H   0  0  0  0  0  0  0  0  0  0  0  0
   56.9140   27.8200   43.3220 H   0  0  0  0  0  0  0  0  0  0  0  0
   58.4420   27.6650   42.6620 H   0  0  0  0  0  0  0  0  0  0  0  0
   60.2294   28.0810   44.8751 H   0  0  0  0  0  0  0  0  0  0  0  0
   60.9968   30.1015   46.0904 H   0  0  0  0  0  0  0  0  0  0  0  0
   60.6122   32.3584   46.8821 H   0  0  0  0  0  0  0  0  0  0  0  0
   59.1362   34.3572   47.0827 H   0  0  0  0  0  0  0  0  0  0  0  0
   56.8686   34.3477   46.0480 H   0  0  0  0  0  0  0  0  0  0  0  0
   56.0646   32.3461   44.8025 H   0  0  0  0  0  0  0  0  0  0  0  0
  1  2  1  0
  2  3  1  0
  3  4  1  0
  4  5  2  0
  5  6  1  0
  6  7  2  0
  7  8  1  0
  8  9  2  0
  9 10  1  0
 10 11  2  0
 11 12  1  0
 12 13  2  0
 13 14  1  0
 14 15  2  0
 14 16  1  0
 13  4  1  0
 12  7  1  0
  1 17  1  0
  1 18  1  0
  1 19  1  0
  2 20  1  0
  2 21  1  0
  3 22  1  0
  3 23  1  0
  5 24  1  0
  6 25  1  0
  8 26  1  0
  9 27  1  0
 10 28  1  0
 11 29  1  0
M  CHG  3   3   1  14   1  16  -1
M  END
>  <UniqueID>  (26) 
25

>  <SMILES>  (26) 
CC[NH2+]c1ccc2ccccc2c1[N+](=O)[O-]

>  <Energy>  (26) 
41.318773574087544

>  <Genealogy>  (26) 
CC[NH2+]c1ccc2ccccc2c1[N+](=O)[O-] (protonated)
CC[NH2+]c1ccc2ccccc2c1[N+](=O)[O-] (3D coordinates assigned)
CC[NH2+]c1ccc2ccccc2c1[N+](=O)[O-] (optimized conformer: 41.318773574087544 kcal/mol)

>  <smiles>  (26) 
CCNc1ccc2ccccc2c1[N+](=O)[O-]

>  <score_type>  (26) 
oracle

>  <origin>  (26) 
adg

>  <m_score__min__energy>  (26) 
-5.2999999999999998

>  <m_primary>  (26) 
energy

$$$$
26:0
     RDKit          3D

 44 45  0  0  0  0  0  0  0  0999 V2000
   63.3450   33.9180   46.4170 C   0  0  0  0  0  0  0  0  0  0  0  0
   63.7460   32.9330   47.5140 C   0  0  0  0  0  0  0  0  0  0  0  0
   62.9070   31.6470   47.4980 C   0  0  0  0  0  0  0  0  0  0  0  0
   61.4510   31.8820   47.9310 C   0  0  0  0  0  0  0  0  0  0  0  0
   60.5230   31.5750   46.8300 N   0  0  0  0  0  0  0  0  0  0  0  0
   60.4410   30.1270   46.5700 C   0  0  0  0  0  0  0  0  0  0  0  0
   59.1090   29.7400   45.9600 C   0  0  0  0  0  0  0  0  0  0  0  0
   58.6050   28.4490   46.1890 C   0  0  0  0  0  0  0  0  0  0  0  0
   57.3630   28.0710   45.6760 C   0  0  0  0  0  0  0  0  0  0  0  0
   56.6910   26.3120   45.9990 Br  0  0  0  0  0  0  0  0  0  0  0  0
   56.6090   28.9790   44.9340 C   0  0  0  0  0  0  0  0  0  0  0  0
   57.0960   30.2670   44.6980 C   0  0  0  0  0  0  0  0  0  0  0  0
   58.3500   30.6610   45.2040 C   0  0  0  0  0  0  0  0  0  0  0  0
   58.8650   31.9490   44.9750 O   0  0  0  0  0  0  0  0  0  0  0  0
   58.2710   32.9140   44.1090 C   0  0  0  0  0  0  0  0  0  0  0  0
   57.8450   34.1410   44.9090 C   0  0  0  0  0  0  0  0  0  0  0  0
   58.4760   34.1520   46.2270 N   0  0  0  0  0  0  0  0  0  0  0  0
   59.5360   34.8820   46.6100 C   0  0  0  0  0  0  0  0  0  0  0  0
   59.7980   34.5820   47.9280 C   0  0  0  0  0  0  0  0  0  0  0  0
   58.9060   33.6720   48.3720 N   0  0  0  0  0  0  0  0  0  0  0  0
   58.1120   33.4350   47.3070 C   0  0  0  0  0  0  0  0  0  0  0  0
   62.9680   34.8440   46.8756 H   0  0  0  0  0  0  0  0  0  0  0  0
   64.2210   34.1482   45.7928 H   0  0  0  0  0  0  0  0  0  0  0  0
   62.5573   33.4709   45.7928 H   0  0  0  0  0  0  0  0  0  0  0  0
   64.8035   32.6640   47.3748 H   0  0  0  0  0  0  0  0  0  0  0  0
   63.5735   33.4278   48.4812 H   0  0  0  0  0  0  0  0  0  0  0  0
   62.9087   31.2387   46.4766 H   0  0  0  0  0  0  0  0  0  0  0  0
   63.3582   30.9475   48.2171 H   0  0  0  0  0  0  0  0  0  0  0  0
   61.2205   31.2331   48.7887 H   0  0  0  0  0  0  0  0  0  0  0  0
   61.3317   32.9397   48.2087 H   0  0  0  0  0  0  0  0  0  0  0  0
   59.5670   31.9110   47.0930 H   0  0  0  0  0  0  0  0  0  0  0  0
   60.8190   32.0790   45.9610 H   0  0  0  0  0  0  0  0  0  0  0  0
   61.2462   29.8435   45.8763 H   0  0  0  0  0  0  0  0  0  0  0  0
   60.5434   29.6006   47.5304 H   0  0  0  0  0  0  0  0  0  0  0  0
   59.1939   27.7300   46.7774 H   0  0  0  0  0  0  0  0  0  0  0  0
   55.6288   28.6808   44.5336 H   0  0  0  0  0  0  0  0  0  0  0  0
   56.4955   30.9788   44.1126 H   0  0  0  0  0  0  0  0  0  0  0  0
   59.0010   33.2141   43.3429 H   0  0  0  0  0  0  0  0  0  0  0  0
   57.3861   32.4714   43.6282 H   0  0  0  0  0  0  0  0  0  0  0  0
   58.1405   35.0480   44.3612 H   0  0  0  0  0  0  0  0  0  0  0  0
   56.7537   34.1102   45.0433 H   0  0  0  0  0  0  0  0  0  0  0  0
   60.0949   35.5924   45.9831 H   0  0  0  0  0  0  0  0  0  0  0  0
   60.6107   35.0178   48.5277 H   0  0  0  0  0  0  0  0  0  0  0  0
   57.2634   32.7352   47.3197 H   0  0  0  0  0  0  0  0  0  0  0  0
  1  2  1  0
  2  3  1  0
  3  4  1  0
  4  5  1  0
  5  6  1  0
  6  7  1  0
  7  8  2  0
  8  9  1  0
  9 10  1  0
  9 11  2  0
 11 12  1  0
 12 13  2  0
 13 14  1  0
 14 15  1  0
 15 16  1  0
 16 17  1  0
 17 18  1  0
 18 19  2  0
 19 20  1  0
 20 21  2  0
 13  7  1  0
 21 17  1  0
  1 22  1  0
  1 23  1  0
  1 24  1  0
  2 25  1  0
  2 26  1  0
  3 27  1  0
  3 28  1  0
  4 29  1  0
  4 30  1  0
  5 31  1  0
  5 32  1  0
  6 33  1  0
  6 34  1  0
  8 35  1  0
 11 36  1  0
 12 37  1  0
 15 38  1  0
 15 39  1  0
 16 40  1  0
 16 41  1  0
 18 42  1  0
 19 43  1  0
 21 44  1  0
M  CHG  1   5   1
M  END
>  <UniqueID>  (27) 
26

>  <SMILES>  (27) 
CCCC[NH2+]Cc1cc(Br)ccc1OCCn1ccnc1

>  <Energy>  (27) 
59.546578977413155

>  <Genealogy>  (27) 
CCCC[NH2+]Cc1cc(Br)ccc1OCCn1ccnc1 (protonated)
CCCC[NH2+]Cc1cc(Br)ccc1OCCn1ccnc1 (3D coordinates assigned)
CCCC[NH2+]Cc1cc(Br)ccc1OCCn1ccnc1 (optimized conformer: 59.546578977413155 kcal/mol)

>  <smiles>  (27) 
CCCCNCc1cc(Br)ccc1OCCn1ccnc1

>  <score_type>  (27) 
oracle

>  <origin>  (27) 
adg

>  <m_score__min__energy>  (27) 
-4.29

>  <m_primary>  (27) 
energy

$$$$
27:0
     RDKit          3D

 25 25  0  0  0  0  0  0  0  0999 V2000
   57.8980   28.0030   46.5770 C   0  0  0  0  0  0  0  0  0  0  0  0
   56.9000   27.3690   45.6200 C   0  0  0  0  0  0  0  0  0  0  0  0
   55.8970   28.3520   45.2350 N   0  0  0  0  0  0  0  0  0  0  0  0
   56.1700   29.5900   44.5640 C   0  0  0  0  0  0  0  0  0  0  0  0
   55.2830   30.4830   44.5570 O   0  0  0  0  0  0  0  0  0  0  0  0
   57.4680   29.8510   43.8510 C   0  0  0  0  0  0  0  0  0  0  0  0
   57.3570   31.3770   42.8550 S   0  0  0  0  0  0  0  0  0  0  0  0
   57.7610   32.4730   44.2150 C   0  0  0  0  0  0  0  0  0  0  0  0
   57.2920   32.3220   45.4020 N   0  0  0  0  0  0  0  0  0  0  0  0
   57.8140   33.3550   46.2860 C   0  0  0  0  0  0  0  0  0  0  0  0
   58.7350   34.2040   45.3900 C   0  0  0  0  0  0  0  0  0  0  0  0
   58.6310   33.5770   44.0860 N   0  0  0  0  0  0  0  0  0  0  0  0
   57.5878   27.8060   47.6138 H   0  0  0  0  0  0  0  0  0  0  0  0
   58.8955   27.5727   46.4046 H   0  0  0  0  0  0  0  0  0  0  0  0
   57.9323   29.0889   46.4046 H   0  0  0  0  0  0  0  0  0  0  0  0
   57.4283   27.0148   44.7225 H   0  0  0  0  0  0  0  0  0  0  0  0
   56.4068   26.5207   46.1171 H   0  0  0  0  0  0  0  0  0  0  0  0
   58.2725   29.9611   44.5931 H   0  0  0  0  0  0  0  0  0  0  0  0
   57.6818   29.0048   43.1815 H   0  0  0  0  0  0  0  0  0  0  0  0
   56.6380   31.5610   45.6890 H   0  0  0  0  0  0  0  0  0  0  0  0
   56.9960   33.9675   46.6930 H   0  0  0  0  0  0  0  0  0  0  0  0
   58.3467   32.9335   47.1512 H   0  0  0  0  0  0  0  0  0  0  0  0
   58.3890   35.2474   45.3509 H   0  0  0  0  0  0  0  0  0  0  0  0
   59.7700   34.2407   45.7608 H   0  0  0  0  0  0  0  0  0  0  0  0
   59.1320   33.8700   43.2180 H   0  0  0  0  0  0  0  0  0  0  0  0
  1  2  1  0
  2  3  1  0
  3  4  1  0
  4  5  2  0
  4  6  1  0
  6  7  1  0
  7  8  1  0
  8  9  2  0
  9 10  1  0
 10 11  1  0
 11 12  1  0
 12  8  1  0
  1 13  1  0
  1 14  1  0
  1 15  1  0
  2 16  1  0
  2 17  1  0
  6 18  1  0
  6 19  1  0
  9 20  1  0
 10 21  1  0
 10 22  1  0
 11 23  1  0
 11 24  1  0
 12 25  1  0
M  CHG  2   3  -1   9   1
M  END
>  <UniqueID>  (28) 
27

>  <SMILES>  (28) 
CC[N-]C(=O)CSC1=[NH+]CCN1

>  <Energy>  (28) 
21.792694773829812

>  <Genealogy>  (28) 
CC[N-]C(=O)CSC1=[NH+]CCN1 (protonated)
CC[N-]C(=O)CSC1=[NH+]CCN1 (3D coordinates assigned)
CC[N-]C(=O)CSC1=[NH+]CCN1 (nonaromatic ring conformer: 21.792694773829812 kcal/mol)

>  <smiles>  (28) 
CCNC(=O)CSC1=NCCN1

>  <score_type>  (28) 
oracle

>  <origin>  (28) 
adg

>  <m_score__min__energy>  (28) 
-6.8600000000000003

>  <m_primary>  (28) 
energy

$$$$
28:0
     RDKit          3D

 54 55  0  0  0  0  0  0  0  0999 V2000
   62.9060   33.7620   46.7410 C   0  0  0  0  0  0  0  0  0  0  0  0
   63.3840   32.4430   47.3450 C   0  0  0  0  0  0  0  0  0  0  0  0
   62.8570   32.1550   48.7730 C   0  0  0  0  0  0  0  0  0  0  0  0
   61.3800   32.2440   48.9940 N   0  0  2  0  0  0  0  0  0  0  0  0
   60.9220   33.5640   49.5050 C   0  0  0  0  0  0  0  0  0  0  0  0
   59.6930   33.4750   50.4190 C   0  0  0  0  0  0  0  0  0  0  0  0
   60.8290   31.1550   49.8390 C   0  0  0  0  0  0  0  0  0  0  0  0
   59.9160   30.1930   49.0560 C   0  0  0  0  0  0  0  0  0  0  0  0
   59.3640   30.8570   47.9220 O   0  0  0  0  0  0  0  0  0  0  0  0
   59.8380   30.6670   46.6190 C   0  0  0  0  0  0  0  0  0  0  0  0
   61.0630   30.8270   46.3610 O   0  0  0  0  0  0  0  0  0  0  0  0
   58.8940   30.3050   45.5420 C   0  0  0  0  0  0  0  0  0  0  0  0
   58.8790   28.9820   45.0680 C   0  0  0  0  0  0  0  0  0  0  0  0
   57.9610   28.5740   44.0860 C   0  0  0  0  0  0  0  0  0  0  0  0
   57.9510   27.2120   43.6180 N   0  0  0  0  0  0  0  0  0  0  0  0
   57.7970   26.2650   44.4170 O   0  0  0  0  0  0  0  0  0  0  0  0
   58.1110   26.9290   42.2800 O   0  0  0  0  0  0  0  0  0  0  0  0
   57.0520   29.5130   43.5730 C   0  0  0  0  0  0  0  0  0  0  0  0
   57.0710   30.8340   44.0200 C   0  0  0  0  0  0  0  0  0  0  0  0
   57.9900   31.2450   44.9930 C   0  0  0  0  0  0  0  0  0  0  0  0
   58.0410   32.6360   45.3550 N   0  0  0  0  0  0  0  0  0  0  0  0
   57.5370   33.0940   46.6510 C   0  0  0  0  0  0  0  0  0  0  0  0
   58.5820   34.0070   47.2980 C   0  0  0  0  0  0  0  0  0  0  0  0
   58.9610   35.0450   46.4110 O   0  0  0  0  0  0  0  0  0  0  0  0
   59.6130   34.5000   45.2770 C   0  0  0  0  0  0  0  0  0  0  0  0
   58.6540   33.6230   44.4660 C   0  0  0  0  0  0  0  0  0  0  0  0
   62.6515   34.4642   47.5486 H   0  0  0  0  0  0  0  0  0  0  0  0
   63.7055   34.1919   46.1197 H   0  0  0  0  0  0  0  0  0  0  0  0
   62.0167   33.5798   46.1197 H   0  0  0  0  0  0  0  0  0  0  0  0
   63.0541   31.6256   46.6869 H   0  0  0  0  0  0  0  0  0  0  0  0
   64.4783   32.5182   47.4275 H   0  0  0  0  0  0  0  0  0  0  0  0
   63.1695   31.1347   49.0402 H   0  0  0  0  0  0  0  0  0  0  0  0
   63.2828   32.9552   49.3961 H   0  0  0  0  0  0  0  0  0  0  0  0
   60.9340   32.1350   48.0520 H   0  0  0  0  0  0  0  0  0  0  0  0
   61.7454   34.0220   50.0727 H   0  0  0  0  0  0  0  0  0  0  0  0
   60.6316   34.1656   48.6310 H   0  0  0  0  0  0  0  0  0  0  0  0
   60.0155   33.4984   51.4704 H   0  0  0  0  0  0  0  0  0  0  0  0
   59.0263   34.3272   50.2210 H   0  0  0  0  0  0  0  0  0  0  0  0
   59.1560   32.5356   50.2210 H   0  0  0  0  0  0  0  0  0  0  0  0
   61.6665   30.5795   50.2601 H   0  0  0  0  0  0  0  0  0  0  0  0
   60.2184   31.6235   50.6249 H   0  0  0  0  0  0  0  0  0  0  0  0
   60.5038   29.3261   48.7198 H   0  0  0  0  0  0  0  0  0  0  0  0
   59.0982   29.8588   49.7113 H   0  0  0  0  0  0  0  0  0  0  0  0
   59.5978   28.2542   45.4725 H   0  0  0  0  0  0  0  0  0  0  0  0
   56.3193   29.2045   42.8128 H   0  0  0  0  0  0  0  0  0  0  0  0
   56.3570   31.5600   43.6040 H   0  0  0  0  0  0  0  0  0  0  0  0
   56.5996   33.6511   46.5062 H   0  0  0  0  0  0  0  0  0  0  0  0
   57.3456   32.2284   47.3022 H   0  0  0  0  0  0  0  0  0  0  0  0
   58.1581   34.4499   48.2113 H   0  0  0  0  0  0  0  0  0  0  0  0
   59.4720   33.4079   47.5407 H   0  0  0  0  0  0  0  0  0  0  0  0
   59.9761   35.3207   44.6409 H   0  0  0  0  0  0  0  0  0  0  0  0
   60.4541   33.8790   45.6190 H   0  0  0  0  0  0  0  0  0  0  0  0
   57.8706   34.2513   44.0170 H   0  0  0  0  0  0  0  0  0  0  0  0
   59.2079   33.1088   43.6668 H   0  0  0  0  0  0  0  0  0  0  0  0
  1  2  1  0
  2  3  1  0
  3  4  1  0
  4  5  1  0
  5  6  1  0
  4  7  1  0
  7  8  1  0
  8  9  1  0
  9 10  1  0
 10 11  2  0
 10 12  1  0
 12 13  2  0
 13 14  1  0
 14 15  1  0
 15 16  2  0
 15 17  1  0
 14 18  2  0
 18 19  1  0
 19 20  2  0
 20 21  1  0
 21 22  1  0
 22 23  1  0
 23 24  1  0
 24 25  1  0
 25 26  1  0
 20 12  1  0
 26 21  1  0
  1 27  1  0
  1 28  1  0
  1 29  1  0
  2 30  1  0
  2 31  1  0
  3 32  1  0
  3 33  1  0
  4 34  1  6
  5 35  1  0
  5 36  1  0
  6 37  1  0
  6 38  1  0
  6 39  1  0
  7 40  1  0
  7 41  1  0
  8 42  1  0
  8 43  1  0
 13 44  1  0
 18 45  1  0
 19 46  1  0
 22 47  1  0
 22 48  1  0
 23 49  1  0
 23 50  1  0
 25 51  1  0
 25 52  1  0
 26 53  1  0
 26 54  1  0
M  CHG  3   4   1  15   1  17  -1
M  END
>  <UniqueID>  (29) 
28

>  <SMILES>  (29) 
CCC[N@H+](CC)CCOC(=O)c1cc([N+](=O)[O-])ccc1N1CCOCC1

>  <Energy>  (29) 
66.95949699214933

>  <Genealogy>  (29) 
CCC[NH+](CC)CCOC(=O)c1cc([N+](=O)[O-])ccc1N1CCOCC1 (protonated)
CCC[N@H+](CC)CCOC(=O)c1cc([N+](=O)[O-])ccc1N1CCOCC1 (chirality)
CCC[N@H+](CC)CCOC(=O)c1cc([N+](=O)[O-])ccc1N1CCOCC1 (3D coordinates assigned)
CCC[N@H+](CC)CCOC(=O)c1cc([N+](=O)[O-])ccc1N1CCOCC1 (nonaromatic ring conformer: 66.95949699214933 kcal/mol)

>  <smiles>  (29) 
CCCN(CC)CCOC(=O)c1cc([N+](=O)[O-])ccc1N1CCOCC1

>  <score_type>  (29) 
oracle

>  <origin>  (29) 
adg

>  <m_score__min__energy>  (29) 
-4.5499999999999998

>  <m_primary>  (29) 
energy

$$$$
