0:0
     RDKit          3D

 51 54  0  0  1  0  0  0  0  0999 V2000
   56.5640   30.0810   43.0520 C   0  0  0  0  0  0  0  0  0  0  0  0
   57.4370   30.2220   44.1980 N   0  0  0  0  0  0  0  0  0  0  0  0
   57.8720   29.2090   44.9700 C   0  0  0  0  0  0  0  0  0  0  0  0
   58.6820   29.7150   45.9520 C   0  0  0  0  0  0  0  0  0  0  0  0
   59.3480   28.9480   46.9910 C   0  0  0  0  0  0  0  0  0  0  0  0
   59.9020   27.7070   46.8870 C   0  0  0  0  0  0  0  0  0  0  0  0
   60.4730   27.1620   47.9660 C   0  0  0  0  0  0  0  0  0  0  0  0
   60.4670   27.8930   49.1290 C   0  0  0  0  0  0  0  0  0  0  0  0
   59.5910   29.4570   48.6520 S   0  0  0  0  0  0  0  0  0  0  0  0
   58.7340   31.0280   45.7680 N   0  0  0  0  0  0  0  0  0  0  0  0
   57.9670   31.3540   44.6850 C   0  0  0  0  0  0  0  0  0  0  0  0
   57.7870   33.0360   44.1440 S   0  0  0  0  0  0  0  0  0  0  0  0
   58.9340   34.1490   44.9310 C   0  0  0  0  0  0  0  0  0  0  0  0
   58.7210   34.2070   46.4530 C   0  0  0  0  0  0  0  0  0  0  0  0
   60.0140   34.6350   47.1250 C   0  0  0  0  0  0  0  0  0  0  0  0
   60.9940   33.6290   47.2030 N   0  0  0  0  0  0  0  0  0  0  0  0
   62.2490   33.8380   46.5970 C   0  0  0  0  0  0  0  0  0  0  0  0
   63.3590   33.0380   47.2470 C   0  0  2  0  0  0  0  0  0  0  0  0
   62.8760   31.5860   47.2140 C   0  0  0  0  0  0  0  0  0  0  0  0
   62.1520   31.9280   48.5140 C   0  0  2  0  0  0  0  0  0  0  0  0
   60.8430   32.5790   48.1280 C   0  0  0  0  0  0  0  0  0  0  0  0
   63.2210   32.9500   48.7540 C   0  0  0  0  0  0  0  0  0  0  0  0
   62.8090   34.2070   49.4500 C   0  0  0  0  0  0  0  0  0  0  0  0
   64.4590   32.3730   49.3620 C   0  0  0  0  0  0  0  0  0  0  0  0
   55.5323   29.9144   43.3953 H   0  0  0  0  0  0  0  0  0  0  0  0
   56.6049   30.9974   42.4449 H   0  0  0  0  0  0  0  0  0  0  0  0
   56.8913   29.2241   42.4449 H   0  0  0  0  0  0  0  0  0  0  0  0
   57.6183   28.1473   44.8344 H   0  0  0  0  0  0  0  0  0  0  0  0
   59.8797   27.1630   45.9312 H   0  0  0  0  0  0  0  0  0  0  0  0
   60.9316   26.1631   47.9240 H   0  0  0  0  0  0  0  0  0  0  0  0
   60.8825   27.6168   50.1093 H   0  0  0  0  0  0  0  0  0  0  0  0
   59.9592   33.8060   44.7278 H   0  0  0  0  0  0  0  0  0  0  0  0
   58.7662   35.1570   44.5238 H   0  0  0  0  0  0  0  0  0  0  0  0
   57.9282   34.9331   46.6856 H   0  0  0  0  0  0  0  0  0  0  0  0
   58.4254   33.2137   46.8218 H   0  0  0  0  0  0  0  0  0  0  0  0
   60.4329   35.4788   46.5571 H   0  0  0  0  0  0  0  0  0  0  0  0
   59.7546   34.8987   48.1610 H   0  0  0  0  0  0  0  0  0  0  0  0
   62.4991   34.9068   46.6678 H   0  0  0  0  0  0  0  0  0  0  0  0
   62.1702   33.5039   45.5519 H   0  0  0  0  0  0  0  0  0  0  0  0
   64.2874   33.4279   46.8042 H   0  0  0  0  0  0  0  0  0  0  0  0
   63.6680   30.8282   47.3060 H   0  0  0  0  0  0  0  0  0  0  0  0
   62.3657   31.1463   46.3444 H   0  0  0  0  0  0  0  0  0  0  0  0
   61.8872   31.1972   49.2924 H   0  0  0  0  0  0  0  0  0  0  0  0
   60.3712   32.9800   49.0372 H   0  0  0  0  0  0  0  0  0  0  0  0
   60.2253   31.8070   47.6460 H   0  0  0  0  0  0  0  0  0  0  0  0
   62.8583   34.0565   50.5385 H   0  0  0  0  0  0  0  0  0  0  0  0
   63.4862   35.0245   49.1618 H   0  0  0  0  0  0  0  0  0  0  0  0
   61.7793   34.4651   49.1618 H   0  0  0  0  0  0  0  0  0  0  0  0
   64.3803   32.4097   50.4586 H   0  0  0  0  0  0  0  0  0  0  0  0
   64.5743   31.3283   49.0374 H   0  0  0  0  0  0  0  0  0  0  0  0
   65.3332   32.9565   49.0374 H   0  0  0  0  0  0  0  0  0  0  0  0
  1  2  1  0
  2  3  1  0
  3  4  2  0
  4  5  1  0
  5  6  2  0
  6  7  1  0
  7  8  2  0
  8  9  1  0
  4 10  1  0
 10 11  2  0
 11 12  1  0
 12 13  1  0
 13 14  1  0
 14 15  1  0
 15 16  1  0
 16 17  1  0
 17 18  1  0
 18 19  1  0
 19 20  1  0
 20 21  1  0
 20 22  1  0
 22 23  1  0
 22 24  1  0
 11  2  1  0
 21 16  1  0
  9  5  1  0
 22 18  1  0
  1 25  1  0
  1 26  1  0
  1 27  1  0
  3 28  1  0
  6 29  1  0
  7 30  1  0
  8 31  1  0
 13 32  1  0
 13 33  1  0
 14 34  1  0
 14 35  1  0
 15 36  1  0
 15 37  1  0
 17 38  1  0
 17 39  1  0
 18 40  1  1
 19 41  1  0
 19 42  1  0
 20 43  1  1
 21 44  1  0
 21 45  1  0
 23 46  1  0
 23 47  1  0
 23 48  1  0
 24 49  1  0
 24 50  1  0
 24 51  1  0
M  END
>  <smiles>  (1) 
Cn1cc(-c2cccs2)nc1SCCCN1CC2CC(C1)C2(C)C

>  <score_type>  (1) 
oracle

>  <origin>  (1) 
adg

>  <m_score__min__energy>  (1) 
-8.6899999999999995

>  <m_primary>  (1) 
energy

$$$$
1:0
     RDKit          3D

 57 59  0  0  0  0  0  0  0  0999 V2000
   58.1560   27.4800   43.6170 C   0  0  0  0  0  0  0  0  0  0  0  0
   57.4410   28.2080   44.7620 C   0  0  0  0  0  0  0  0  0  0  0  0
   57.7850   29.6490   44.8740 N   0  0  0  0  0  0  0  0  0  0  0  0
   59.2400   29.8660   45.0660 C   0  0  0  0  0  0  0  0  0  0  0  0
   59.5700   29.9400   46.5580 C   0  0  0  0  0  0  0  0  0  0  0  0
   58.4230   30.2830   47.2920 O   0  0  0  0  0  0  0  0  0  0  0  0
   57.2520   30.4930   43.7780 C   0  0  0  0  0  0  0  0  0  0  0  0
   57.5250   31.9900   44.0080 C   0  0  0  0  0  0  0  0  0  0  0  0
   57.2340   32.3610   45.3430 O   0  0  0  0  0  0  0  0  0  0  0  0
   57.3310   33.7650   45.4990 C   0  0  0  0  0  0  0  0  0  0  0  0
   58.3070   34.1050   46.6300 C   0  0  0  0  0  0  0  0  0  0  0  0
   58.7150   32.9260   47.4040 N   0  0  0  0  0  0  0  0  0  0  0  0
   59.7260   32.9680   48.4310 C   0  0  0  0  0  0  0  0  0  0  0  0
   61.0620   33.2490   48.0920 C   0  0  0  0  0  0  0  0  0  0  0  0
   61.4570   33.3950   46.7420 C   0  0  0  0  0  0  0  0  0  0  0  0
   62.7920   33.6160   46.4120 C   0  0  0  0  0  0  0  0  0  0  0  0
   63.7540   33.6870   47.4150 C   0  0  0  0  0  0  0  0  0  0  0  0
   63.3820   33.5830   48.7590 C   0  0  0  0  0  0  0  0  0  0  0  0
   62.0260   33.4020   49.1280 C   0  0  0  0  0  0  0  0  0  0  0  0
   61.6350   33.3730   50.4540 N   0  0  0  0  0  0  0  0  0  0  0  0
   62.5570   33.8570   51.5060 C   0  0  0  0  0  0  0  0  0  0  0  0
   60.3790   32.9040   50.7900 C   0  0  0  0  0  0  0  0  0  0  0  0
   60.0390   32.5820   52.1290 C   0  0  0  0  0  0  0  0  0  0  0  0
   58.7640   32.1200   52.4600 C   0  0  0  0  0  0  0  0  0  0  0  0
   58.3740   31.7350   54.1270 Cl  0  0  0  0  0  0  0  0  0  0  0  0
   57.8100   31.9340   51.4650 C   0  0  0  0  0  0  0  0  0  0  0  0
   58.1270   32.2060   50.1330 C   0  0  0  0  0  0  0  0  0  0  0  0
   59.3990   32.7040   49.7780 C   0  0  0  0  0  0  0  0  0  0  0  0
   58.8695   26.7536   44.0333 H   0  0  0  0  0  0  0  0  0  0  0  0
   57.4149   26.9528   42.9983 H   0  0  0  0  0  0  0  0  0  0  0  0
   58.6965   28.2115   42.9983 H   0  0  0  0  0  0  0  0  0  0  0  0
   56.3562   28.1235   44.6009 H   0  0  0  0  0  0  0  0  0  0  0  0
   57.7706   27.7300   45.6963 H   0  0  0  0  0  0  0  0  0  0  0  0
   59.7950   29.0318   44.6119 H   0  0  0  0  0  0  0  0  0  0  0  0
   59.5282   30.8133   44.5869 H   0  0  0  0  0  0  0  0  0  0  0  0
   59.9393   28.9610   46.8974 H   0  0  0  0  0  0  0  0  0  0  0  0
   60.3411   30.7081   46.7174 H   0  0  0  0  0  0  0  0  0  0  0  0
   57.7980   30.7050   46.6440 H   0  0  0  0  0  0  0  0  0  0  0  0
   57.7266   30.1879   42.8337 H   0  0  0  0  0  0  0  0  0  0  0  0
   56.1617   30.3511   43.7438 H   0  0  0  0  0  0  0  0  0  0  0  0
   58.5849   32.1982   43.8000 H   0  0  0  0  0  0  0  0  0  0  0  0
   56.8779   32.5711   43.3345 H   0  0  0  0  0  0  0  0  0  0  0  0
   57.6926   34.2108   44.5606 H   0  0  0  0  0  0  0  0  0  0  0  0
   56.3383   34.1681   45.7480 H   0  0  0  0  0  0  0  0  0  0  0  0
   59.2048   34.5660   46.1925 H   0  0  0  0  0  0  0  0  0  0  0  0
   57.7902   34.7900   47.3182 H   0  0  0  0  0  0  0  0  0  0  0  0
   58.3820   31.9920   47.0740 H   0  0  0  0  0  0  0  0  0  0  0  0
   60.7021   33.3334   45.9443 H   0  0  0  0  0  0  0  0  0  0  0  0
   63.0859   33.7344   45.3586 H   0  0  0  0  0  0  0  0  0  0  0  0
   64.8124   33.8256   47.1493 H   0  0  0  0  0  0  0  0  0  0  0  0
   64.1533   33.6426   49.5411 H   0  0  0  0  0  0  0  0  0  0  0  0
   62.1328   33.6343   52.4962 H   0  0  0  0  0  0  0  0  0  0  0  0
   63.5291   33.3529   51.4018 H   0  0  0  0  0  0  0  0  0  0  0  0
   62.6942   34.9434   51.4018 H   0  0  0  0  0  0  0  0  0  0  0  0
   60.7937   32.6985   52.9208 H   0  0  0  0  0  0  0  0  0  0  0  0
   56.8050   31.5723   51.7279 H   0  0  0  0  0  0  0  0  0  0  0  0
   57.3753   32.0298   49.3495 H   0  0  0  0  0  0  0  0  0  0  0  0
  1  2  1  0
  2  3  1  0
  3  4  1  0
  4  5  1  0
  5  6  1  0
  3  7  1  0
  7  8  1  0
  8  9  1  0
  9 10  1  0
 10 11  1  0
 11 12  1  0
 12 13  1  0
 13 14  2  0
 14 15  1  0
 15 16  2  0
 16 17  1  0
 17 18  2  0
 18 19  1  0
 19 20  2  0
 20 21  1  0
 20 22  1  0
 22 23  2  0
 23 24  1  0
 24 25  1  0
 24 26  2  0
 26 27  1  0
 27 28  2  0
 28 13  1  0
 19 14  1  0
 28 22  1  0
  1 29  1  0
  1 30  1  0
  1 31  1  0
  2 32  1  0
  2 33  1  0
  4 34  1  0
  4 35  1  0
  5 36  1  0
  5 37  1  0
  6 38  1  0
  7 39  1  0
  7 40  1  0
  8 41  1  0
  8 42  1  0
 10 43  1  0
 10 44  1  0
 11 45  1  0
 11 46  1  0
 12 47  1  0
 15 48  1  0
 16 49  1  0
 17 50  1  0
 18 51  1  0
 21 52  1  0
 21 53  1  0
 21 54  1  0
 23 55  1  0
 26 56  1  0
 27 57  1  0
M  CHG  1  20   1
M  END
>  <UniqueID>  (2) 
1

>  <SMILES>  (2) 
CCN(CCO)CCOCCNc1c2ccccc2[n+](C)c2cc(Cl)ccc12

>  <Energy>  (2) 
82.64476303475449

>  <Genealogy>  (2) 
CCN(CCO)CCOCCNc1c2ccccc2[n+](C)c2cc(Cl)ccc12 (3D coordinates assigned)
CCN(CCO)CCOCCNc1c2ccccc2[n+](C)c2cc(Cl)ccc12 (optimized conformer: 82.64476303475449 kcal/mol)

>  <smiles>  (2) 
CCN(CCO)CCOCCNc1c2ccccc2[n+](C)c2cc(Cl)ccc12

>  <score_type>  (2) 
oracle

>  <origin>  (2) 
adg

>  <m_score__min__energy>  (2) 
-6.6799999999999997

>  <m_primary>  (2) 
energy

$$$$
2:0
     RDKit          3D

 33 35  0  0  0  0  0  0  0  0999 V2000
   56.8140   24.1020   43.4220 C   0  0  0  0  0  0  0  0  0  0  0  0
   57.2240   24.6280   44.6800 O   0  0  0  0  0  0  0  0  0  0  0  0
   57.5900   25.9640   44.8990 C   0  0  0  0  0  0  0  0  0  0  0  0
   57.4190   26.5000   46.1800 C   0  0  0  0  0  0  0  0  0  0  0  0
   57.7670   27.8270   46.4480 C   0  0  0  0  0  0  0  0  0  0  0  0
   58.2980   28.6410   45.4360 C   0  0  0  0  0  0  0  0  0  0  0  0
   58.6590   30.0060   45.7120 N   0  0  0  0  0  0  0  0  0  0  0  0
   59.8610   30.4870   46.3230 C   0  0  0  0  0  0  0  0  0  0  0  0
   60.7850   29.7500   46.7590 O   0  0  0  0  0  0  0  0  0  0  0  0
   59.8260   31.9410   46.4160 C   0  0  0  0  0  0  0  0  0  0  0  0
   60.7620   32.8320   46.9350 C   0  0  0  0  0  0  0  0  0  0  0  0
   60.4630   34.2020   46.8970 C   0  0  0  0  0  0  0  0  0  0  0  0
   59.2440   34.6550   46.3490 C   0  0  0  0  0  0  0  0  0  0  0  0
   58.3040   33.7380   45.8300 C   0  0  0  0  0  0  0  0  0  0  0  0
   57.0060   34.2110   45.2440 C   0  0  0  0  0  0  0  0  0  0  0  0
   58.6300   32.3750   45.8800 C   0  0  0  0  0  0  0  0  0  0  0  0
   57.8970   31.1870   45.4370 C   0  0  0  0  0  0  0  0  0  0  0  0
   56.7820   31.1890   44.8510 O   0  0  0  0  0  0  0  0  0  0  0  0
   58.4730   28.1040   44.1500 C   0  0  0  0  0  0  0  0  0  0  0  0
   58.1220   26.7780   43.8810 C   0  0  0  0  0  0  0  0  0  0  0  0
   56.1451   23.2439   43.5838 H   0  0  0  0  0  0  0  0  0  0  0  0
   56.2817   24.8800   42.8552 H   0  0  0  0  0  0  0  0  0  0  0  0
   57.6984   23.7757   42.8552 H   0  0  0  0  0  0  0  0  0  0  0  0
   57.0071   25.8716   46.9834 H   0  0  0  0  0  0  0  0  0  0  0  0
   57.6236   28.2359   47.4591 H   0  0  0  0  0  0  0  0  0  0  0  0
   61.7092   32.4716   47.3627 H   0  0  0  0  0  0  0  0  0  0  0  0
   61.1846   34.9292   47.2976 H   0  0  0  0  0  0  0  0  0  0  0  0
   59.0240   35.7325   46.3259 H   0  0  0  0  0  0  0  0  0  0  0  0
   56.3083   34.4652   46.0556 H   0  0  0  0  0  0  0  0  0  0  0  0
   57.1866   35.1011   44.6234 H   0  0  0  0  0  0  0  0  0  0  0  0
   56.5716   33.4134   44.6234 H   0  0  0  0  0  0  0  0  0  0  0  0
   58.8894   28.7317   43.3484 H   0  0  0  0  0  0  0  0  0  0  0  0
   58.2621   26.3688   42.8696 H   0  0  0  0  0  0  0  0  0  0  0  0
  1  2  1  0
  2  3  1  0
  3  4  2  0
  4  5  1  0
  5  6  2  0
  6  7  1  0
  7  8  1  0
  8  9  2  0
  8 10  1  0
 10 11  2  0
 11 12  1  0
 12 13  2  0
 13 14  1  0
 14 15  1  0
 14 16  2  0
 16 17  1  0
 17 18  2  0
  6 19  1  0
 19 20  2  0
 20  3  1  0
 17  7  1  0
 16 10  1  0
  1 21  1  0
  1 22  1  0
  1 23  1  0
  4 24  1  0
  5 25  1  0
 11 26  1  0
 12 27  1  0
 13 28  1  0
 15 29  1  0
 15 30  1  0
 15 31  1  0
 19 32  1  0
 20 33  1  0
M  END
>  <UniqueID>  (3) 
2

>  <SMILES>  (3) 
COc1ccc(N2C(=O)c3cccc(C)c3C2=O)cc1

>  <Energy>  (3) 
71.30874858900893

>  <Genealogy>  (3) 
COc1ccc(N2C(=O)c3cccc(C)c3C2=O)cc1 (3D coordinates assigned)
COc1ccc(N2C(=O)c3cccc(C)c3C2=O)cc1 (nonaromatic ring conformer: 71.30874858900893 kcal/mol)

>  <smiles>  (3) 
COc1ccc(N2C(=O)c3cccc(C)c3C2=O)cc1

>  <score_type>  (3) 
oracle

>  <origin>  (3) 
adg

>  <m_score__min__energy>  (3) 
-6.8200000000000003

>  <m_primary>  (3) 
energy

$$$$
3:0
     RDKit          3D

 71 74  0  0  0  0  0  0  0  0999 V2000
   58.8910   32.4300   51.7560 C   0  0  0  0  0  0  0  0  0  0  0  0
   57.7670   31.9740   50.8330 C   0  0  0  0  0  0  0  0  0  0  0  0
   57.9680   30.5720   50.4540 N   0  0  0  0  0  0  0  0  0  0  0  0
   58.8790   29.9070   51.3940 C   0  0  0  0  0  0  0  0  0  0  0  0
   59.8950   29.0470   50.6320 C   0  0  0  0  0  0  0  0  0  0  0  0
   60.9800   29.9040   49.9600 C   0  0  0  0  0  0  0  0  0  0  0  0
   60.6520   30.1420   48.4640 C   0  0  0  0  0  0  0  0  0  0  0  0
   59.2260   30.4260   48.1360 N   0  0  0  0  0  0  0  0  0  0  0  0
   58.8760   30.4890   46.7250 C   0  0  0  0  0  0  0  0  0  0  0  0
   58.7110   29.2810   45.9950 C   0  0  0  0  0  0  0  0  0  0  0  0
   59.1330   28.0340   46.5190 C   0  0  0  0  0  0  0  0  0  0  0  0
   59.0330   26.8660   45.7670 C   0  0  0  0  0  0  0  0  0  0  0  0
   58.5150   26.9110   44.4800 C   0  0  0  0  0  0  0  0  0  0  0  0
   58.0580   28.1150   43.9540 C   0  0  0  0  0  0  0  0  0  0  0  0
   58.1010   29.3130   44.7160 C   0  0  0  0  0  0  0  0  0  0  0  0
   57.5490   30.4820   44.2450 N   0  0  0  0  0  0  0  0  0  0  0  0
   56.5770   30.4370   43.1270 C   0  0  0  0  0  0  0  0  0  0  0  0
   57.8760   31.6900   44.8290 C   0  0  0  0  0  0  0  0  0  0  0  0
   57.5250   32.9110   44.2000 C   0  0  0  0  0  0  0  0  0  0  0  0
   57.7950   34.1320   44.7930 C   0  0  0  0  0  0  0  0  0  0  0  0
   58.4830   34.1860   45.9890 C   0  0  0  0  0  0  0  0  0  0  0  0
   58.9210   33.0170   46.6220 C   0  0  0  0  0  0  0  0  0  0  0  0
   59.8560   33.1780   47.6980 N   0  0  0  0  0  0  0  0  0  0  0  0
   59.7590   34.2560   48.6830 C   0  0  0  0  0  0  0  0  0  0  0  0
   60.9390   34.1990   49.6620 C   0  0  0  0  0  0  0  0  0  0  0  0
   61.9780   33.2600   49.1820 N   0  0  0  0  0  0  0  0  0  0  0  0
   62.8190   32.7250   50.2830 C   0  0  0  0  0  0  0  0  0  0  0  0
   64.2620   33.2580   50.2280 C   0  0  0  0  0  0  0  0  0  0  0  0
   64.9130   32.9650   49.0020 O   0  0  0  0  0  0  0  0  0  0  0  0
   64.0670   33.0690   47.8630 C   0  0  0  0  0  0  0  0  0  0  0  0
   62.7720   33.8670   48.0960 C   0  0  0  0  0  0  0  0  0  0  0  0
   58.5820   31.7310   46.0740 C   0  0  0  0  0  0  0  0  0  0  0  0
   58.5794   32.3036   52.8034 H   0  0  0  0  0  0  0  0  0  0  0  0
   59.7900   31.8255   51.5654 H   0  0  0  0  0  0  0  0  0  0  0  0
   59.1147   33.4900   51.5654 H   0  0  0  0  0  0  0  0  0  0  0  0
   56.8036   32.0761   51.3540 H   0  0  0  0  0  0  0  0  0  0  0  0
   57.7684   32.5972   49.9266 H   0  0  0  0  0  0  0  0  0  0  0  0
   57.0400   30.0890   50.5070 H   0  0  0  0  0  0  0  0  0  0  0  0
   59.4149   30.6682   51.9800 H   0  0  0  0  0  0  0  0  0  0  0  0
   58.2930   29.2600   52.0633 H   0  0  0  0  0  0  0  0  0  0  0  0
   60.3756   28.3542   51.3384 H   0  0  0  0  0  0  0  0  0  0  0  0
   59.3563   28.4993   49.8447 H   0  0  0  0  0  0  0  0  0  0  0  0
   61.0412   30.8747   50.4738 H   0  0  0  0  0  0  0  0  0  0  0  0
   61.9398   29.3710   50.0280 H   0  0  0  0  0  0  0  0  0  0  0  0
   61.2513   30.9987   48.1220 H   0  0  0  0  0  0  0  0  0  0  0  0
   60.8850   29.1930   47.9588 H   0  0  0  0  0  0  0  0  0  0  0  0
   58.9100   31.2890   48.6270 H   0  0  0  0  0  0  0  0  0  0  0  0
   58.6270   29.7020   48.5970 H   0  0  0  0  0  0  0  0  0  0  0  0
   59.5467   27.9876   47.5372 H   0  0  0  0  0  0  0  0  0  0  0  0
   59.3646   25.9076   46.1931 H   0  0  0  0  0  0  0  0  0  0  0  0
   58.4658   25.9935   43.8753 H   0  0  0  0  0  0  0  0  0  0  0  0
   57.6564   28.1398   42.9302 H   0  0  0  0  0  0  0  0  0  0  0  0
   55.5551   30.3897   43.5313 H   0  0  0  0  0  0  0  0  0  0  0  0
   56.6857   31.3411   42.5100 H   0  0  0  0  0  0  0  0  0  0  0  0
   56.7688   29.5468   42.5100 H   0  0  0  0  0  0  0  0  0  0  0  0
   57.0273   32.8874   43.2193 H   0  0  0  0  0  0  0  0  0  0  0  0
   57.4606   35.0621   44.3102 H   0  0  0  0  0  0  0  0  0  0  0  0
   58.6900   35.1625   46.4513 H   0  0  0  0  0  0  0  0  0  0  0  0
   60.7260   32.6110   47.6840 H   0  0  0  0  0  0  0  0  0  0  0  0
   59.7681   35.2245   48.1615 H   0  0  0  0  0  0  0  0  0  0  0  0
   58.8227   34.1376   49.2480 H   0  0  0  0  0  0  0  0  0  0  0  0
   61.3773   35.2035   49.7568 H   0  0  0  0  0  0  0  0  0  0  0  0
   60.5705   33.8473   50.6369 H   0  0  0  0  0  0  0  0  0  0  0  0
   62.3707   33.0165   51.2443 H   0  0  0  0  0  0  0  0  0  0  0  0
   62.8600   31.6312   50.1740 H   0  0  0  0  0  0  0  0  0  0  0  0
   64.2381   34.3497   50.3604 H   0  0  0  0  0  0  0  0  0  0  0  0
   64.8282   32.7605   51.0292 H   0  0  0  0  0  0  0  0  0  0  0  0
   64.6334   33.5618   47.0591 H   0  0  0  0  0  0  0  0  0  0  0  0
   63.7594   32.0438   47.6092 H   0  0  0  0  0  0  0  0  0  0  0  0
   63.0285   34.9010   48.3698 H   0  0  0  0  0  0  0  0  0  0  0  0
   62.1764   33.8557   47.1713 H   0  0  0  0  0  0  0  0  0  0  0  0
  1  2  1  0
  2  3  1  0
  3  4  1  0
  4  5  1  0
  5  6  1  0
  6  7  1  0
  7  8  1  0
  8  9  1  0
  9 10  2  0
 10 11  1  0
 11 12  2  0
 12 13  1  0
 13 14  2  0
 14 15  1  0
 15 16  2  0
 16 17  1  0
 16 18  1  0
 18 19  2  0
 19 20  1  0
 20 21  2  0
 21 22  1  0
 22 23  1  0
 23 24  1  0
 24 25  1  0
 25 26  1  0
 26 27  1  0
 27 28  1  0
 28 29  1  0
 29 30  1  0
 30 31  1  0
 22 32  2  0
 32  9  1  0
 15 10  1  0
 32 18  1  0
 31 26  1  0
  1 33  1  0
  1 34  1  0
  1 35  1  0
  2 36  1  0
  2 37  1  0
  3 38  1  0
  4 39  1  0
  4 40  1  0
  5 41  1  0
  5 42  1  0
  6 43  1  0
  6 44  1  0
  7 45  1  0
  7 46  1  0
  8 47  1  0
  8 48  1  0
 11 49  1  0
 12 50  1  0
 13 51  1  0
 14 52  1  0
 17 53  1  0
 17 54  1  0
 17 55  1  0
 19 56  1  0
 20 57  1  0
 21 58  1  0
 23 59  1  0
 24 60  1  0
 24 61  1  0
 25 62  1  0
 25 63  1  0
 27 64  1  0
 27 65  1  0
 28 66  1  0
 28 67  1  0
 30 68  1  0
 30 69  1  0
 31 70  1  0
 31 71  1  0
M  CHG  2   8   1  16   1
M  END
>  <UniqueID>  (4) 
3

>  <SMILES>  (4) 
CCNCCCC[NH2+]c1c2ccccc2[n+](C)c2cccc(NCCN3CCOCC3)c12

>  <Energy>  (4) 
121.24759304317976

>  <Genealogy>  (4) 
CCNCCCC[NH2+]c1c2ccccc2[n+](C)c2cccc(NCCN3CCOCC3)c12 (protonated)
CCNCCCC[NH2+]c1c2ccccc2[n+](C)c2cccc(NCCN3CCOCC3)c12 (3D coordinates assigned)
CCNCCCC[NH2+]c1c2ccccc2[n+](C)c2cccc(NCCN3CCOCC3)c12 (nonaromatic ring conformer: 121.24759304317976 kcal/mol)

>  <smiles>  (4) 
CCNCCCCNc1c2ccccc2[n+](C)c2cccc(NCCN3CCOCC3)c12

>  <score_type>  (4) 
oracle

>  <origin>  (4) 
adg

>  <m_score__min__energy>  (4) 
-4.4000000000000004

>  <m_primary>  (4) 
energy

$$$$
4:0
     RDKit          3D

108112  0  0  0  0  0  0  0  0999 V2000
   58.4410   32.3870   50.9980 C   0  0  0  0  0  0  0  0  0  0  0  0
   59.5280   33.4620   50.9240 C   0  0  0  0  0  0  0  0  0  0  0  0
   59.7520   33.9820   49.5020 C   0  0  0  0  0  0  0  0  0  0  0  0
   60.3200   32.9630   48.6910 O   0  0  0  0  0  0  0  0  0  0  0  0
   60.3400   33.3280   47.3140 C   0  0  2  0  0  0  0  0  0  0  0  0
   59.5080   34.6540   47.1800 C   0  0  0  0  0  0  0  0  0  0  0  0
   58.2510   34.5890   46.2820 C   0  0  1  0  0  0  0  0  0  0  0  0
   58.6640   34.6570   44.8300 C   0  0  0  0  0  0  0  0  0  0  0  0
   59.0930   33.3700   44.4690 O   0  0  0  0  0  0  0  0  0  0  0  0
   58.6560   32.4690   45.4820 C   0  0  1  0  0  0  0  0  0  0  0  0
   58.0570   31.2720   44.7330 C   0  0  0  0  0  0  0  0  0  0  0  0
   57.9700   30.0140   45.5690 C   0  0  0  0  0  0  0  0  0  0  0  0
   59.3880   29.5500   46.0310 C   0  0  2  0  0  0  0  0  0  0  0  0
   59.4380   28.0410   46.5930 C   0  0  0  0  0  0  0  0  0  0  0  0
   58.3190   27.1630   45.9710 C   0  0  0  0  0  0  0  0  0  0  0  0
   60.7600   27.3550   46.1320 C   0  0  0  0  0  0  0  0  0  0  0  0
   59.3030   27.9530   48.1650 C   0  0  1  0  0  0  0  0  0  0  0  0
   60.5790   27.8480   48.7800 O   0  0  0  0  0  0  0  0  0  0  0  0
   60.5570   27.9630   50.1930 C   0  0  1  0  0  0  0  0  0  0  0  0
   61.5590   26.9460   50.7700 C   0  0  0  0  0  0  0  0  0  0  0  0
   61.8040   27.1620   52.2730 C   0  0  0  0  0  0  0  0  0  0  0  0
   62.2770   28.5950   52.5660 C   0  0  1  0  0  0  0  0  0  0  0  0
   63.5040   28.8090   51.8840 O   0  0  0  0  0  0  0  0  0  0  0  0
   64.4520   29.5270   52.6590 C   0  0  0  0  0  0  0  0  0  0  0  0
   64.8550   30.7940   51.8880 C   0  0  0  0  0  0  0  0  0  0  0  0
   64.0470   31.0600   50.5870 C   0  0  0  0  0  0  0  0  0  0  0  0
   64.0840   32.4390   49.9780 N   0  0  0  0  0  0  0  0  0  0  0  0
   64.0820   32.3480   48.4750 C   0  0  0  0  0  0  0  0  0  0  0  0
   63.6120   33.6210   47.7440 C   0  0  0  0  0  0  0  0  0  0  0  0
   62.8410   33.1540   50.4600 C   0  0  0  0  0  0  0  0  0  0  0  0
   62.9240   33.8210   51.8510 C   0  0  0  0  0  0  0  0  0  0  0  0
   65.2550   33.2300   50.5190 C   0  0  0  0  0  0  0  0  0  0  0  0
   66.6750   32.8000   50.0820 C   0  0  0  0  0  0  0  0  0  0  0  0
   61.2000   29.5850   52.0660 C   0  0  1  0  0  0  0  0  0  0  0  0
   61.5910   30.9120   52.3100 O   0  0  0  0  0  0  0  0  0  0  0  0
   60.9600   29.4090   50.5570 C   0  0  0  0  0  0  0  0  0  0  0  0
   58.5370   29.1710   48.7020 C   0  0  0  0  0  0  0  0  0  0  0  0
   59.2440   30.5110   48.4030 C   0  0  0  0  0  0  0  0  0  0  0  0
   59.9790   30.6360   47.0160 C   0  0  1  0  0  0  0  0  0  0  0  0
   61.5100   30.3870   47.2170 C   0  0  0  0  0  0  0  0  0  0  0  0
   59.9000   32.1110   46.3670 C   0  0  2  0  0  0  0  0  0  0  0  0
   57.6290   33.2260   46.3260 C   0  0  0  0  0  0  0  0  0  0  0  0
   58.2163   32.1647   52.0516 H   0  0  0  0  0  0  0  0  0  0  0  0
   57.5312   32.7504   50.4978 H   0  0  0  0  0  0  0  0  0  0  0  0
   58.7943   31.4732   50.4978 H   0  0  0  0  0  0  0  0  0  0  0  0
   59.2318   34.3060   51.5643 H   0  0  0  0  0  0  0  0  0  0  0  0
   60.4697   33.0046   51.2616 H   0  0  0  0  0  0  0  0  0  0  0  0
   58.7881   34.2931   49.0728 H   0  0  0  0  0  0  0  0  0  0  0  0
   60.4412   34.8386   49.5373 H   0  0  0  0  0  0  0  0  0  0  0  0
   61.3569   33.5408   46.9526 H   0  0  0  0  0  0  0  0  0  0  0  0
   59.1837   34.9490   48.1889 H   0  0  0  0  0  0  0  0  0  0  0  0
   60.1808   35.3728   46.6894 H   0  0  0  0  0  0  0  0  0  0  0  0
   57.5905   35.3981   46.6271 H   0  0  0  0  0  0  0  0  0  0  0  0
   57.8094   34.9598   44.2071 H   0  0  0  0  0  0  0  0  0  0  0  0
   59.4654   35.3959   44.6821 H   0  0  0  0  0  0  0  0  0  0  0  0
   57.0426   31.5408   44.4032 H   0  0  0  0  0  0  0  0  0  0  0  0
   58.7277   31.0520   43.8893 H   0  0  0  0  0  0  0  0  0  0  0  0
   57.3501   30.2134   46.4556 H   0  0  0  0  0  0  0  0  0  0  0  0
   57.5224   29.2169   44.9573 H   0  0  0  0  0  0  0  0  0  0  0  0
   60.0435   29.4882   45.1498 H   0  0  0  0  0  0  0  0  0  0  0  0
   57.7278   26.6991   46.7743 H   0  0  0  0  0  0  0  0  0  0  0  0
   57.6637   27.7905   45.3490 H   0  0  0  0  0  0  0  0  0  0  0  0
   58.7726   26.3773   45.3490 H   0  0  0  0  0  0  0  0  0  0  0  0
   61.3431   27.0524   47.0143 H   0  0  0  0  0  0  0  0  0  0  0  0
   60.5211   26.4671   45.5282 H   0  0  0  0  0  0  0  0  0  0  0  0
   61.3485   28.0615   45.5282 H   0  0  0  0  0  0  0  0  0  0  0  0
   58.7345   27.0447   48.4137 H   0  0  0  0  0  0  0  0  0  0  0  0
   59.5601   27.7538   50.6083 H   0  0  0  0  0  0  0  0  0  0  0  0
   61.1617   25.9316   50.6178 H   0  0  0  0  0  0  0  0  0  0  0  0
   62.5176   27.0824   50.2481 H   0  0  0  0  0  0  0  0  0  0  0  0
   60.8669   26.9763   52.8183 H   0  0  0  0  0  0  0  0  0  0  0  0
   62.5907   26.4654   52.5983 H   0  0  0  0  0  0  0  0  0  0  0  0
   62.4292   28.7481   53.6446 H   0  0  0  0  0  0  0  0  0  0  0  0
   64.0058   29.8068   53.6247 H   0  0  0  0  0  0  0  0  0  0  0  0
   65.3377   28.9015   52.8443 H   0  0  0  0  0  0  0  0  0  0  0  0
   64.7187   31.6571   52.5561 H   0  0  0  0  0  0  0  0  0  0  0  0
   65.8985   30.6426   51.5746 H   0  0  0  0  0  0  0  0  0  0  0  0
   64.4211   30.3601   49.8253 H   0  0  0  0  0  0  0  0  0  0  0  0
   62.9985   30.9331   50.8945 H   0  0  0  0  0  0  0  0  0  0  0  0
   65.1075   32.1248   48.1457 H   0  0  0  0  0  0  0  0  0  0  0  0
   63.3581   31.5611   48.2165 H   0  0  0  0  0  0  0  0  0  0  0  0
   63.3298   34.3852   48.4831 H   0  0  0  0  0  0  0  0  0  0  0  0
   64.4279   34.0042   47.1136 H   0  0  0  0  0  0  0  0  0  0  0  0
   62.7428   33.3820   47.1136 H   0  0  0  0  0  0  0  0  0  0  0  0
   62.6016   33.9386   49.7271 H   0  0  0  0  0  0  0  0  0  0  0  0
   62.0749   32.3708   50.5584 H   0  0  0  0  0  0  0  0  0  0  0  0
   62.8284   33.0527   52.6324 H   0  0  0  0  0  0  0  0  0  0  0  0
   63.8926   34.3317   51.9555 H   0  0  0  0  0  0  0  0  0  0  0  0
   62.1101   34.5535   51.9555 H   0  0  0  0  0  0  0  0  0  0  0  0
   65.1176   34.2758   50.2069 H   0  0  0  0  0  0  0  0  0  0  0  0
   65.2324   33.0538   51.6046 H   0  0  0  0  0  0  0  0  0  0  0  0
   67.2921   32.6131   50.9732 H   0  0  0  0  0  0  0  0  0  0  0  0
   66.6111   31.8809   49.4810 H   0  0  0  0  0  0  0  0  0  0  0  0
   67.1317   33.6001   49.4810 H   0  0  0  0  0  0  0  0  0  0  0  0
   60.2713   29.3697   52.6148 H   0  0  0  0  0  0  0  0  0  0  0  0
   62.5640   30.8930   52.5000 H   0  0  0  0  0  0  0  0  0  0  0  0
   60.1545   30.0900   50.2450 H   0  0  0  0  0  0  0  0  0  0  0  0
   61.9022   29.6370   50.0372 H   0  0  0  0  0  0  0  0  0  0  0  0
   57.5399   29.1900   48.2379 H   0  0  0  0  0  0  0  0  0  0  0  0
   58.4802   29.0669   49.7956 H   0  0  0  0  0  0  0  0  0  0  0  0
   58.4840   31.3049   48.4489 H   0  0  0  0  0  0  0  0  0  0  0  0
   60.0409   30.5888   49.1573 H   0  0  0  0  0  0  0  0  0  0  0  0
   61.7374   30.3500   48.2926 H   0  0  0  0  0  0  0  0  0  0  0  0
   61.7905   29.4314   46.7499 H   0  0  0  0  0  0  0  0  0  0  0  0
   62.0789   31.2044   46.7499 H   0  0  0  0  0  0  0  0  0  0  0  0
   60.7076   31.9855   45.6308 H   0  0  0  0  0  0  0  0  0  0  0  0
   56.6289   33.2137   45.8682 H   0  0  0  0  0  0  0  0  0  0  0  0
   57.4503   32.8191   47.3322 H   0  0  0  0  0  0  0  0  0  0  0  0
  1  2  1  0
  2  3  1  0
  3  4  1  0
  4  5  1  0
  5  6  1  0
  6  7  1  0
  7  8  1  0
  8  9  1  0
 10  9  1  6
 10 11  1  0
 11 12  1  0
 12 13  1  0
 13 14  1  0
 14 15  1  0
 14 16  1  0
 14 17  1  0
 17 18  1  0
 18 19  1  0
 19 20  1  0
 20 21  1  0
 21 22  1  0
 22 23  1  0
 23 24  1  0
 24 25  1  0
 25 26  1  0
 26 27  1  0
 27 28  1  0
 28 29  1  0
 27 30  1  0
 30 31  1  0
 27 32  1  0
 32 33  1  0
 22 34  1  0
 34 35  1  0
 34 36  1  0
 17 37  1  0
 37 38  1  0
 38 39  1  0
 39 40  1  1
 39 41  1  0
 10 42  1  0
 41  5  1  0
 42  7  1  0
 41 10  1  0
 39 13  1  0
 36 19  1  0
  1 43  1  0
  1 44  1  0
  1 45  1  0
  2 46  1  0
  2 47  1  0
  3 48  1  0
  3 49  1  0
  5 50  1  6
  6 51  1  0
  6 52  1  0
  7 53  1  1
  8 54  1  0
  8 55  1  0
 11 56  1  0
 11 57  1  0
 12 58  1  0
 12 59  1  0
 13 60  1  6
 15 61  1  0
 15 62  1  0
 15 63  1  0
 16 64  1  0
 16 65  1  0
 16 66  1  0
 17 67  1  6
 19 68  1  1
 20 69  1  0
 20 70  1  0
 21 71  1  0
 21 72  1  0
 22 73  1  1
 24 74  1  0
 24 75  1  0
 25 76  1  0
 25 77  1  0
 26 78  1  0
 26 79  1  0
 28 80  1  0
 28 81  1  0
 29 82  1  0
 29 83  1  0
 29 84  1  0
 30 85  1  0
 30 86  1  0
 31 87  1  0
 31 88  1  0
 31 89  1  0
 32 90  1  0
 32 91  1  0
 33 92  1  0
 33 93  1  0
 33 94  1  0
 34 95  1  1
 35 96  1  0
 36 97  1  0
 36 98  1  0
 37 99  1  0
 37100  1  0
 38101  1  0
 38102  1  0
 40103  1  0
 40104  1  0
 40105  1  0
 41106  1  6
 42107  1  0
 42108  1  0
M  CHG  1  27   1
M  END
>  <UniqueID>  (5) 
4

>  <SMILES>  (5) 
CCCO[C@@H]1C[C@H]2COC3(CCC4C(C)(C)C(OC5CCC(OCCC[N+](CC)(CC)CC)C(O)C5)CCC4(C)C13)C2

>  <Energy>  (5) 
191.80894516457417

>  <Genealogy>  (5) 
CCCO[C@@H]1C[C@H]2COC3(CCC4C(C)(C)C(OC5CCC(OCCC[N+](CC)(CC)CC)C(O)C5)CCC4(C)C13)C2 (chirality)
CCCO[C@@H]1C[C@H]2COC3(CCC4C(C)(C)C(OC5CCC(OCCC[N+](CC)(CC)CC)C(O)C5)CCC4(C)C13)C2 (3D coordinates assigned)
CCCO[C@@H]1C[C@H]2COC3(CCC4C(C)(C)C(OC5CCC(OCCC[N+](CC)(CC)CC)C(O)C5)CCC4(C)C13)C2 (nonaromatic ring conformer: 191.80894516457417 kcal/mol)

>  <smiles>  (5) 
CCCOC1CC2COC3(CCC4C(C)(C)C(OC5CCC(OCCC[N+](CC)(CC)CC)C(O)C5)CCC4(C)C13)C2

>  <score_type>  (5) 
oracle

>  <origin>  (5) 
adg

>  <m_score__min__energy>  (5) 
-8.4000000000000004

>  <m_primary>  (5) 
energy

$$$$
5:0
     RDKit          3D

 43 45  0  0  0  0  0  0  0  0999 V2000
   64.5095   32.9292   46.6857 H   0  0  0  0  0  0  0  0  0  0  0  0
   63.5600   32.8190   47.2300 C   0  0  0  0  0  0  0  0  0  0  0  0
   62.8500   31.6170   47.1610 C   0  0  0  0  0  0  0  0  0  0  0  0
   63.2371   30.7842   46.5555 H   0  0  0  0  0  0  0  0  0  0  0  0
   61.6480   31.4720   47.8610 C   0  0  0  0  0  0  0  0  0  0  0  0
   61.0844   30.5297   47.7950 H   0  0  0  0  0  0  0  0  0  0  0  0
   61.1600   32.5260   48.6470 C   0  0  0  0  0  0  0  0  0  0  0  0
   59.8890   32.3740   49.3680 C   0  0  0  0  0  0  0  0  0  0  0  0
   59.8000   32.0180   50.7030 C   0  0  0  0  0  0  0  0  0  0  0  0
   60.6202   31.7976   51.4020 H   0  0  0  0  0  0  0  0  0  0  0  0
   58.4460   32.0040   50.9520 C   0  0  0  0  0  0  0  0  0  0  0  0
   57.9110   31.7120   52.1010 N   0  0  0  0  0  0  0  0  0  0  0  0
   56.9360   30.6480   52.3340 C   0  0  0  0  0  0  0  0  0  0  0  0
   56.9686   30.3543   53.3936 H   0  0  0  0  0  0  0  0  0  0  0  0
   57.1880   29.7911   51.6920 H   0  0  0  0  0  0  0  0  0  0  0  0
   55.5280   31.1210   51.9890 C   0  0  0  0  0  0  0  0  0  0  0  0
   54.9670   31.3095   52.9162 H   0  0  0  0  0  0  0  0  0  0  0  0
   55.5867   32.0488   51.4009 H   0  0  0  0  0  0  0  0  0  0  0  0
   55.0146   30.3460   51.4009 H   0  0  0  0  0  0  0  0  0  0  0  0
   57.7650   32.3410   49.8380 N   0  0  0  0  0  0  0  0  0  0  0  0
   56.7290   32.4110   49.7290 H   0  0  0  0  0  0  0  0  0  0  0  0
   58.6390   32.5770   48.8690 N   0  0  0  0  0  0  0  0  0  0  0  0
   58.2200   32.9240   47.4990 C   0  0  0  0  0  0  0  0  0  0  0  0
   57.1739   33.2574   47.5655 H   0  0  0  0  0  0  0  0  0  0  0  0
   58.2630   31.6900   46.5690 C   0  0  0  0  0  0  0  0  0  0  0  0
   59.0901   31.0391   46.8888 H   0  0  0  0  0  0  0  0  0  0  0  0
   57.2885   31.1858   46.6474 H   0  0  0  0  0  0  0  0  0  0  0  0
   58.4730   32.0580   45.0850 C   0  0  0  0  0  0  0  0  0  0  0  0
   59.5523   32.1248   44.8832 H   0  0  0  0  0  0  0  0  0  0  0  0
   58.0052   31.2770   44.4676 H   0  0  0  0  0  0  0  0  0  0  0  0
   57.8170   33.4020   44.7370 C   0  0  0  0  0  0  0  0  0  0  0  0
   57.9866   33.6136   43.6710 H   0  0  0  0  0  0  0  0  0  0  0  0
   56.7434   33.3227   44.9632 H   0  0  0  0  0  0  0  0  0  0  0  0
   58.3940   34.5670   45.5740 C   0  0  0  0  0  0  0  0  0  0  0  0
   59.1776   35.0656   44.9846 H   0  0  0  0  0  0  0  0  0  0  0  0
   57.5589   35.2430   45.8100 H   0  0  0  0  0  0  0  0  0  0  0  0
   59.0050   34.1120   46.9140 C   0  0  0  0  0  0  0  0  0  0  0  0
   60.0492   33.8078   46.7491 H   0  0  0  0  0  0  0  0  0  0  0  0
   58.9572   34.9498   47.6252 H   0  0  0  0  0  0  0  0  0  0  0  0
   61.8610   33.7410   48.6910 C   0  0  0  0  0  0  0  0  0  0  0  0
   61.4645   34.5836   49.2766 H   0  0  0  0  0  0  0  0  0  0  0  0
   63.0630   33.8810   47.9910 C   0  0  0  0  0  0  0  0  0  0  0  0
   63.6189   34.8290   48.0392 H   0  0  0  0  0  0  0  0  0  0  0  0
  1  2  1  0
  2  3  2  0
  3  4  1  0
  3  5  1  0
  5  6  1  0
  5  7  2  0
  7  8  1  0
  8  9  2  0
  9 10  1  0
  9 11  1  0
 11 12  2  0
 12 13  1  0
 13 14  1  0
 13 15  1  0
 13 16  1  0
 16 17  1  0
 16 18  1  0
 16 19  1  0
 11 20  1  0
 20 21  1  0
 20 22  1  0
 22 23  1  0
 23 24  1  0
 23 25  1  0
 25 26  1  0
 25 27  1  0
 25 28  1  0
 28 29  1  0
 28 30  1  0
 28 31  1  0
 31 32  1  0
 31 33  1  0
 31 34  1  0
 34 35  1  0
 34 36  1  0
 34 37  1  0
 37 38  1  0
 37 39  1  0
  7 40  1  0
 40 41  1  0
 40 42  2  0
 42 43  1  0
 42  2  1  0
 22  8  1  0
 37 23  1  0
M  END
>  <UniqueID>  (6) 
5

>  <SMILES>  (6) 
CC/N=c1/cc(-c2ccccc2)n(C2CCCCC2)[nH]1

>  <Energy>  (6) 
83.5225573303428

>  <Genealogy>  (6) 
CC/N=c1/cc(-c2ccccc2)n(C2CCCCC2)[nH]1 (cis-trans isomerization)
CC/N=c1/cc(-c2ccccc2)n(C2CCCCC2)[nH]1 (3D coordinates assigned)
CC/N=c1/cc(-c2ccccc2)n(C2CCCCC2)[nH]1 (nonaromatic ring conformer: 83.5225573303428 kcal/mol)

>  <smiles>  (6) 
CCN=c1cc(-c2ccccc2)n(C2CCCCC2)[nH]1

>  <score_type>  (6) 
oracle

>  <origin>  (6) 
adg

>  <m_score__min__energy>  (6) 
-6.6299999999999999

>  <m_primary>  (6) 
energy

$$$$
6:0
     RDKit          3D

 54 56  0  0  0  0  0  0  0  0999 V2000
   58.1730   29.0570   46.0670 C   0  0  0  0  0  0  0  0  0  0  0  0
   56.9050   28.8240   45.2350 C   0  0  0  0  0  0  0  0  0  0  0  0
   56.4020   30.0240   44.5180 N   0  0  0  0  0  0  0  0  0  0  0  0
   55.1830   29.7240   43.7470 C   0  0  0  0  0  0  0  0  0  0  0  0
   57.4010   30.7080   43.6650 C   0  0  0  0  0  0  0  0  0  0  0  0
   57.8550   32.0650   44.2290 C   0  0  0  0  0  0  0  0  0  0  0  0
   57.2780   32.3300   45.5580 N   0  0  0  0  0  0  0  0  0  0  0  0
   57.2580   33.7650   45.8720 C   0  0  0  0  0  0  0  0  0  0  0  0
   58.1480   34.0810   47.0820 C   0  0  0  0  0  0  0  0  0  0  0  0
   58.7470   32.8720   47.6580 N   0  0  0  0  0  0  0  0  0  0  0  0
   59.7700   32.9140   48.6720 C   0  0  0  0  0  0  0  0  0  0  0  0
   61.1030   33.1810   48.3110 C   0  0  0  0  0  0  0  0  0  0  0  0
   61.4680   33.3240   46.9550 C   0  0  0  0  0  0  0  0  0  0  0  0
   62.7750   33.6410   46.5980 C   0  0  0  0  0  0  0  0  0  0  0  0
   63.7360   33.8390   47.5790 C   0  0  0  0  0  0  0  0  0  0  0  0
   63.4040   33.6920   48.9250 C   0  0  0  0  0  0  0  0  0  0  0  0
   62.0930   33.3180   49.3220 C   0  0  0  0  0  0  0  0  0  0  0  0
   61.7670   33.1000   50.6510 N   0  0  0  0  0  0  0  0  0  0  0  0
   62.8400   33.0060   51.6680 C   0  0  0  0  0  0  0  0  0  0  0  0
   60.4470   32.9170   51.0220 C   0  0  0  0  0  0  0  0  0  0  0  0
   60.0480   32.8910   52.3850 C   0  0  0  0  0  0  0  0  0  0  0  0
   58.7390   32.5720   52.7470 C   0  0  0  0  0  0  0  0  0  0  0  0
   58.3900   32.5240   54.0570 F   0  0  0  0  0  0  0  0  0  0  0  0
   57.7960   32.2820   51.7680 C   0  0  0  0  0  0  0  0  0  0  0  0
   58.1410   32.3670   50.4200 C   0  0  0  0  0  0  0  0  0  0  0  0
   59.4440   32.7430   50.0300 C   0  0  0  0  0  0  0  0  0  0  0  0
   57.9229   29.0110   47.1372 H   0  0  0  0  0  0  0  0  0  0  0  0
   58.9149   28.2801   45.8301 H   0  0  0  0  0  0  0  0  0  0  0  0
   58.5902   30.0469   45.8301 H   0  0  0  0  0  0  0  0  0  0  0  0
   57.1233   28.0458   44.4888 H   0  0  0  0  0  0  0  0  0  0  0  0
   56.1168   28.5344   45.9456 H   0  0  0  0  0  0  0  0  0  0  0  0
   54.3526   29.5196   44.4388 H   0  0  0  0  0  0  0  0  0  0  0  0
   54.9285   30.5863   43.1132 H   0  0  0  0  0  0  0  0  0  0  0  0
   55.3577   28.8421   43.1132 H   0  0  0  0  0  0  0  0  0  0  0  0
   58.2826   30.0571   43.5692 H   0  0  0  0  0  0  0  0  0  0  0  0
   56.9220   30.9024   42.6940 H   0  0  0  0  0  0  0  0  0  0  0  0
   58.9519   32.0666   44.3111 H   0  0  0  0  0  0  0  0  0  0  0  0
   57.5066   32.8519   43.5438 H   0  0  0  0  0  0  0  0  0  0  0  0
   56.2850   31.9960   45.5330 H   0  0  0  0  0  0  0  0  0  0  0  0
   57.6238   34.3281   45.0007 H   0  0  0  0  0  0  0  0  0  0  0  0
   56.2248   34.0540   46.1147 H   0  0  0  0  0  0  0  0  0  0  0  0
   58.9538   34.7582   46.7623 H   0  0  0  0  0  0  0  0  0  0  0  0
   57.5174   34.5468   47.8536 H   0  0  0  0  0  0  0  0  0  0  0  0
   58.4860   31.9450   47.2500 H   0  0  0  0  0  0  0  0  0  0  0  0
   60.7097   33.1831   46.1707 H   0  0  0  0  0  0  0  0  0  0  0  0
   63.0468   33.7348   45.5362 H   0  0  0  0  0  0  0  0  0  0  0  0
   64.7626   34.1127   47.2939 H   0  0  0  0  0  0  0  0  0  0  0  0
   64.1713   33.8689   49.6931 H   0  0  0  0  0  0  0  0  0  0  0  0
   62.3963   33.0449   52.6738 H   0  0  0  0  0  0  0  0  0  0  0  0
   63.3818   32.0569   51.5427 H   0  0  0  0  0  0  0  0  0  0  0  0
   63.5386   33.8464   51.5427 H   0  0  0  0  0  0  0  0  0  0  0  0
   60.7835   33.1264   53.1683 H   0  0  0  0  0  0  0  0  0  0  0  0
   56.7770   31.9853   52.0570 H   0  0  0  0  0  0  0  0  0  0  0  0
   57.3884   32.1382   49.6510 H   0  0  0  0  0  0  0  0  0  0  0  0
  1  2  1  0
  2  3  1  0
  3  4  1  0
  3  5  1  0
  5  6  1  0
  6  7  1  0
  7  8  1  0
  8  9  1  0
  9 10  1  0
 10 11  1  0
 11 12  2  0
 12 13  1  0
 13 14  2  0
 14 15  1  0
 15 16  2  0
 16 17  1  0
 17 18  2  0
 18 19  1  0
 18 20  1  0
 20 21  2  0
 21 22  1  0
 22 23  1  0
 22 24  2  0
 24 25  1  0
 25 26  2  0
 26 11  1  0
 17 12  1  0
 26 20  1  0
  1 27  1  0
  1 28  1  0
  1 29  1  0
  2 30  1  0
  2 31  1  0
  4 32  1  0
  4 33  1  0
  4 34  1  0
  5 35  1  0
  5 36  1  0
  6 37  1  0
  6 38  1  0
  7 39  1  0
  8 40  1  0
  8 41  1  0
  9 42  1  0
  9 43  1  0
 10 44  1  0
 13 45  1  0
 14 46  1  0
 15 47  1  0
 16 48  1  0
 19 49  1  0
 19 50  1  0
 19 51  1  0
 21 52  1  0
 24 53  1  0
 25 54  1  0
M  CHG  1  18   1
M  END
>  <UniqueID>  (7) 
6

>  <SMILES>  (7) 
CCN(C)CCNCCNc1c2ccccc2[n+](C)c2cc(F)ccc12

>  <Energy>  (7) 
79.6192048977263

>  <Genealogy>  (7) 
CCN(C)CCNCCNc1c2ccccc2[n+](C)c2cc(F)ccc12 (3D coordinates assigned)
CCN(C)CCNCCNc1c2ccccc2[n+](C)c2cc(F)ccc12 (optimized conformer: 79.6192048977263 kcal/mol)

>  <smiles>  (7) 
CCN(C)CCNCCNc1c2ccccc2[n+](C)c2cc(F)ccc12

>  <score_type>  (7) 
oracle

>  <origin>  (7) 
adg

>  <m_score__min__energy>  (7) 
-5.4900000000000002

>  <m_primary>  (7) 
energy

$$$$
7:0
     RDKit          3D

 45 47  0  0  0  0  0  0  0  0999 V2000
   57.4070   31.2350   43.1190 C   0  0  0  0  0  0  0  0  0  0  0  0
   56.7170   31.1440   44.4760 C   0  0  0  0  0  0  0  0  0  0  0  0
   57.6190   31.6340   45.5440 N   0  0  0  0  0  0  0  0  0  0  0  0
   58.8330   30.7910   45.6480 C   0  0  0  0  0  0  0  0  0  0  0  0
   58.6220   29.6850   46.6790 C   0  0  0  0  0  0  0  0  0  0  0  0
   57.9720   33.0580   45.3350 C   0  0  0  0  0  0  0  0  0  0  0  0
   58.1180   33.7650   46.6840 C   0  0  0  0  0  0  0  0  0  0  0  0
   58.4710   32.8000   47.7210 N   0  0  0  0  0  0  0  0  0  0  0  0
   59.6820   32.9230   48.4750 C   0  0  0  0  0  0  0  0  0  0  0  0
   59.8110   32.8560   49.8610 C   0  0  0  0  0  0  0  0  0  0  0  0
   58.7700   32.5100   50.8490 C   0  0  0  0  0  0  0  0  0  0  0  0
   58.4220   33.2730   51.9600 C   0  0  0  0  0  0  0  0  0  0  0  0
   57.4270   32.6840   52.7500 C   0  0  0  0  0  0  0  0  0  0  0  0
   56.9910   31.4540   52.2760 C   0  0  0  0  0  0  0  0  0  0  0  0
   57.8470   31.1030   50.8730 S   0  0  0  0  0  0  0  0  0  0  0  0
   61.1020   33.1160   50.1840 N   0  0  0  0  0  0  0  0  0  0  0  0
   61.7180   33.3430   49.0060 C   0  0  0  0  0  0  0  0  0  0  0  0
   63.0590   33.6820   48.8300 C   0  0  0  0  0  0  0  0  0  0  0  0
   63.5030   33.9210   47.5210 C   0  0  0  0  0  0  0  0  0  0  0  0
   62.6090   33.8310   46.4380 C   0  0  0  0  0  0  0  0  0  0  0  0
   61.2690   33.4890   46.6740 C   0  0  0  0  0  0  0  0  0  0  0  0
   60.8840   33.2400   47.9540 N   0  0  0  0  0  0  0  0  0  0  0  0
   58.4878   31.3775   43.2660 H   0  0  0  0  0  0  0  0  0  0  0  0
   57.2329   30.3061   42.5561 H   0  0  0  0  0  0  0  0  0  0  0  0
   56.9980   32.0870   42.5561 H   0  0  0  0  0  0  0  0  0  0  0  0
   55.8045   31.7581   44.4613 H   0  0  0  0  0  0  0  0  0  0  0  0
   56.4603   30.0936   44.6777 H   0  0  0  0  0  0  0  0  0  0  0  0
   59.0457   30.3383   44.6683 H   0  0  0  0  0  0  0  0  0  0  0  0
   59.6791   31.4188   45.9641 H   0  0  0  0  0  0  0  0  0  0  0  0
   58.7026   30.1073   47.6915 H   0  0  0  0  0  0  0  0  0  0  0  0
   57.6235   29.2437   46.5442 H   0  0  0  0  0  0  0  0  0  0  0  0
   59.3879   28.9071   46.5442 H   0  0  0  0  0  0  0  0  0  0  0  0
   58.9233   33.1206   44.7862 H   0  0  0  0  0  0  0  0  0  0  0  0
   57.1742   33.5463   44.7562 H   0  0  0  0  0  0  0  0  0  0  0  0
   58.9083   34.5268   46.6118 H   0  0  0  0  0  0  0  0  0  0  0  0
   57.1617   34.2412   46.9461 H   0  0  0  0  0  0  0  0  0  0  0  0
   57.9720   31.8820   47.7270 H   0  0  0  0  0  0  0  0  0  0  0  0
   58.8834   34.2436   52.1945 H   0  0  0  0  0  0  0  0  0  0  0  0
   57.0278   33.1525   53.6617 H   0  0  0  0  0  0  0  0  0  0  0  0
   56.2200   30.8200   52.7381 H   0  0  0  0  0  0  0  0  0  0  0  0
   61.5350   33.1360   51.1330 H   0  0  0  0  0  0  0  0  0  0  0  0
   63.7443   33.7593   49.6870 H   0  0  0  0  0  0  0  0  0  0  0  0
   64.5565   34.1804   47.3400 H   0  0  0  0  0  0  0  0  0  0  0  0
   62.9584   34.0274   45.4136 H   0  0  0  0  0  0  0  0  0  0  0  0
   60.5487   33.4240   45.8452 H   0  0  0  0  0  0  0  0  0  0  0  0
  1  2  1  0
  2  3  1  0
  3  4  1  0
  4  5  1  0
  3  6  1  0
  6  7  1  0
  7  8  1  0
  8  9  1  0
  9 10  2  0
 10 11  1  0
 11 12  2  0
 12 13  1  0
 13 14  2  0
 14 15  1  0
 10 16  1  0
 16 17  2  0
 17 18  1  0
 18 19  2  0
 19 20  1  0
 20 21  2  0
 21 22  1  0
 22  9  1  0
 15 11  1  0
 22 17  1  0
  1 23  1  0
  1 24  1  0
  1 25  1  0
  2 26  1  0
  2 27  1  0
  4 28  1  0
  4 29  1  0
  5 30  1  0
  5 31  1  0
  5 32  1  0
  6 33  1  0
  6 34  1  0
  7 35  1  0
  7 36  1  0
  8 37  1  0
 12 38  1  0
 13 39  1  0
 14 40  1  0
 16 41  1  0
 18 42  1  0
 19 43  1  0
 20 44  1  0
 21 45  1  0
M  CHG  1  16   1
M  END
>  <UniqueID>  (8) 
7

>  <SMILES>  (8) 
CCN(CC)CCNc1c(-c2cccs2)[nH+]c2ccccn12

>  <Energy>  (8) 
110.76480407229067

>  <Genealogy>  (8) 
CCN(CC)CCNc1c(-c2cccs2)[nH+]c2ccccn12 (protonated)
CCN(CC)CCNc1c(-c2cccs2)[nH+]c2ccccn12 (3D coordinates assigned)
CCN(CC)CCNc1c(-c2cccs2)[nH+]c2ccccn12 (optimized conformer: 110.76480407229067 kcal/mol)

>  <smiles>  (8) 
CCN(CC)CCNc1c(-c2cccs2)nc2ccccn12

>  <score_type>  (8) 
oracle

>  <origin>  (8) 
adg

>  <m_score__min__energy>  (8) 
-4.9100000000000001

>  <m_primary>  (8) 
energy

$$$$
8:0
     RDKit          3D

 37 38  0  0  0  0  0  0  0  0999 V2000
   58.9580   28.4790   45.2050 C   0  0  0  0  0  0  0  0  0  0  0  0
   57.6460   28.2320   45.9410 C   0  0  0  0  0  0  0  0  0  0  0  0
   56.6450   29.2210   45.5260 N   0  0  0  0  0  0  0  0  0  0  0  0
   56.7640   29.4960   44.0890 C   0  0  0  0  0  0  0  0  0  0  0  0
   56.9530   30.9940   43.8410 C   0  0  0  0  0  0  0  0  0  0  0  0
   56.8720   31.7230   45.0630 O   0  0  0  0  0  0  0  0  0  0  0  0
   57.5110   32.9490   45.2700 C   0  0  0  0  0  0  0  0  0  0  0  0
   57.3670   34.0490   44.4960 N   0  0  0  0  0  0  0  0  0  0  0  0
   58.1160   34.9610   45.0550 O   0  0  0  0  0  0  0  0  0  0  0  0
   58.7220   34.5260   46.1200 N   0  0  0  0  0  0  0  0  0  0  0  0
   59.5540   35.2750   46.9200 O   0  0  0  0  0  0  0  0  0  0  0  0
   58.3720   33.2460   46.2970 C   0  0  0  0  0  0  0  0  0  0  0  0
   58.8740   32.2020   47.6150 S   0  0  0  0  0  0  0  0  0  0  0  0
   58.5320   30.7730   47.2950 O   0  0  0  0  0  0  0  0  0  0  0  0
   58.1450   32.5910   48.8700 O   0  0  0  0  0  0  0  0  0  0  0  0
   60.6100   32.3660   47.8490 C   0  0  0  0  0  0  0  0  0  0  0  0
   61.1200   33.4240   48.6150 C   0  0  0  0  0  0  0  0  0  0  0  0
   62.5000   33.5670   48.7850 C   0  0  0  0  0  0  0  0  0  0  0  0
   63.3770   32.6570   48.1860 C   0  0  0  0  0  0  0  0  0  0  0  0
   62.8740   31.6060   47.4140 C   0  0  0  0  0  0  0  0  0  0  0  0
   61.4930   31.4620   47.2420 C   0  0  0  0  0  0  0  0  0  0  0  0
   59.7656   28.6310   45.9362 H   0  0  0  0  0  0  0  0  0  0  0  0
   59.1937   27.6095   44.5739 H   0  0  0  0  0  0  0  0  0  0  0  0
   58.8614   29.3747   44.5739 H   0  0  0  0  0  0  0  0  0  0  0  0
   57.2801   27.2219   45.7047 H   0  0  0  0  0  0  0  0  0  0  0  0
   57.8164   28.3227   47.0239 H   0  0  0  0  0  0  0  0  0  0  0  0
   56.8420   30.1130   46.0380 H   0  0  0  0  0  0  0  0  0  0  0  0
   57.6309   28.9509   43.6872 H   0  0  0  0  0  0  0  0  0  0  0  0
   55.8418   29.1672   43.5875 H   0  0  0  0  0  0  0  0  0  0  0  0
   57.9398   31.1625   43.3852 H   0  0  0  0  0  0  0  0  0  0  0  0
   56.1560   31.3435   43.1682 H   0  0  0  0  0  0  0  0  0  0  0  0
   59.3140   36.2310   47.1550 H   0  0  0  0  0  0  0  0  0  0  0  0
   60.4322   34.1434   49.0834 H   0  0  0  0  0  0  0  0  0  0  0  0
   62.8964   34.3956   49.3902 H   0  0  0  0  0  0  0  0  0  0  0  0
   64.4628   32.7684   48.3225 H   0  0  0  0  0  0  0  0  0  0  0  0
   63.5643   30.8917   46.9414 H   0  0  0  0  0  0  0  0  0  0  0  0
   61.0992   30.6377   46.6292 H   0  0  0  0  0  0  0  0  0  0  0  0
  1  2  1  0
  2  3  1  0
  3  4  1  0
  4  5  1  0
  5  6  1  0
  6  7  1  0
  7  8  2  0
  8  9  1  0
  9 10  1  0
 10 11  1  0
 10 12  2  0
 12 13  1  0
 13 14  2  0
 13 15  2  0
 13 16  1  0
 16 17  2  0
 17 18  1  0
 18 19  2  0
 19 20  1  0
 20 21  2  0
 12  7  1  0
 21 16  1  0
  1 22  1  0
  1 23  1  0
  1 24  1  0
  2 25  1  0
  2 26  1  0
  3 27  1  0
  4 28  1  0
  4 29  1  0
  5 30  1  0
  5 31  1  0
 11 32  1  0
 17 33  1  0
 18 34  1  0
 19 35  1  0
 20 36  1  0
 21 37  1  0
M  CHG  1  10   1
M  END
>  <UniqueID>  (9) 
8

>  <SMILES>  (9) 
CCNCCOc1no[n+](O)c1S(=O)(=O)c1ccccc1

>  <Energy>  (9) 
68.72245747447134

>  <Genealogy>  (9) 
CCNCCOc1no[n+](O)c1S(=O)(=O)c1ccccc1 (protonated)
CCNCCOc1no[n+](O)c1S(=O)(=O)c1ccccc1 (3D coordinates assigned)
CCNCCOc1no[n+](O)c1S(=O)(=O)c1ccccc1 (optimized conformer: 68.72245747447134 kcal/mol)

>  <smiles>  (9) 
CCNCCOc1no[n+]([O-])c1S(=O)(=O)c1ccccc1

>  <score_type>  (9) 
oracle

>  <origin>  (9) 
adg

>  <m_score__min__energy>  (9) 
-6.1399999999999997

>  <m_primary>  (9) 
energy

$$$$
9:0
     RDKit          3D

 42 43  0  0  0  0  0  0  0  0999 V2000
   63.7500   33.0790   47.0910 C   0  0  0  0  0  0  0  0  0  0  0  0
   62.4090   33.7950   46.9230 C   0  0  0  0  0  0  0  0  0  0  0  0
   61.5920   33.8490   48.2340 C   0  0  0  0  0  0  0  0  0  0  0  0
   60.1710   34.2050   48.0110 N   0  0  2  0  0  0  0  0  0  0  0  0
   59.2880   33.0340   47.9270 C   0  0  0  0  0  0  0  0  0  0  0  0
   58.0770   33.4630   47.1210 C   0  0  0  0  0  0  0  0  0  0  0  0
   58.5920   34.5700   46.2040 C   0  0  2  0  0  0  0  0  0  0  0  0
   58.6080   34.1700   44.7120 C   0  0  0  0  0  0  0  0  0  0  0  0
   57.4250   33.3740   44.3450 N   0  0  0  0  0  0  0  0  0  0  0  0
   57.7940   32.1520   43.6130 C   0  0  0  0  0  0  0  0  0  0  0  0
   57.2250   30.9150   44.2600 C   0  0  0  0  0  0  0  0  0  0  0  0
   55.9300   30.4630   44.1340 C   0  0  0  0  0  0  0  0  0  0  0  0
   55.7880   29.3150   44.8280 N   0  0  0  0  0  0  0  0  0  0  0  0
   57.0070   29.0900   45.3630 C   0  0  0  0  0  0  0  0  0  0  0  0
   57.9010   30.0420   45.0310 N   0  0  0  0  0  0  0  0  0  0  0  0
   59.2990   30.1060   45.4500 C   0  0  0  0  0  0  0  0  0  0  0  0
   59.9840   34.9330   46.7450 C   0  0  0  0  0  0  0  0  0  0  0  0
   63.9710   32.9610   48.1621 H   0  0  0  0  0  0  0  0  0  0  0  0
   63.6987   32.0882   46.6159 H   0  0  0  0  0  0  0  0  0  0  0  0
   64.5448   33.6728   46.6159 H   0  0  0  0  0  0  0  0  0  0  0  0
   62.5998   34.8242   46.5848 H   0  0  0  0  0  0  0  0  0  0  0  0
   61.8196   33.2273   46.1879 H   0  0  0  0  0  0  0  0  0  0  0  0
   61.6353   32.8612   48.7160 H   0  0  0  0  0  0  0  0  0  0  0  0
   62.0340   34.6321   48.8676 H   0  0  0  0  0  0  0  0  0  0  0  0
   59.8390   34.8220   48.7920 H   0  0  0  0  0  0  0  0  0  0  0  0
   59.8049   32.2040   47.4232 H   0  0  0  0  0  0  0  0  0  0  0  0
   58.9954   32.6846   48.9281 H   0  0  0  0  0  0  0  0  0  0  0  0
   57.6862   32.6211   46.5307 H   0  0  0  0  0  0  0  0  0  0  0  0
   57.2511   33.8050   47.7620 H   0  0  0  0  0  0  0  0  0  0  0  0
   57.9187   35.4398   46.2195 H   0  0  0  0  0  0  0  0  0  0  0  0
   58.6265   35.0832   44.0990 H   0  0  0  0  0  0  0  0  0  0  0  0
   59.5021   33.5547   44.5333 H   0  0  0  0  0  0  0  0  0  0  0  0
   56.7880   33.9460   43.7440 H   0  0  0  0  0  0  0  0  0  0  0  0
   57.4101   32.2240   42.5847 H   0  0  0  0  0  0  0  0  0  0  0  0
   58.8907   32.0675   43.6222 H   0  0  0  0  0  0  0  0  0  0  0  0
   55.1359   30.9603   43.5577 H   0  0  0  0  0  0  0  0  0  0  0  0
   57.2442   28.2249   45.9997 H   0  0  0  0  0  0  0  0  0  0  0  0
   59.3527   30.1085   46.5487 H   0  0  0  0  0  0  0  0  0  0  0  0
   59.8395   29.2317   45.0584 H   0  0  0  0  0  0  0  0  0  0  0  0
   59.7574   31.0261   45.0584 H   0  0  0  0  0  0  0  0  0  0  0  0
   60.7574   34.6341   46.0222 H   0  0  0  0  0  0  0  0  0  0  0  0
   60.0658   36.0180   46.9065 H   0  0  0  0  0  0  0  0  0  0  0  0
  1  2  1  0
  2  3  1  0
  3  4  1  0
  4  5  1  0
  5  6  1  0
  6  7  1  0
  7  8  1  0
  8  9  1  0
  9 10  1  0
 10 11  1  0
 11 12  2  0
 12 13  1  0
 13 14  2  0
 14 15  1  0
 15 16  1  0
  7 17  1  0
 17  4  1  0
 15 11  1  0
  1 18  1  0
  1 19  1  0
  1 20  1  0
  2 21  1  0
  2 22  1  0
  3 23  1  0
  3 24  1  0
  4 25  1  1
  5 26  1  0
  5 27  1  0
  6 28  1  0
  6 29  1  0
  7 30  1  6
  8 31  1  0
  8 32  1  0
  9 33  1  0
 10 34  1  0
 10 35  1  0
 12 36  1  0
 14 37  1  0
 16 38  1  0
 16 39  1  0
 16 40  1  0
 17 41  1  0
 17 42  1  0
M  CHG  1   4   1
M  END
>  <UniqueID>  (10) 
9

>  <SMILES>  (10) 
CCC[N@@H+]1CC[C@H](CNCc2cncn2C)C1

>  <Energy>  (10) 
70.34213345459156

>  <Genealogy>  (10) 
CCC[NH+]1CCC(CNCc2cncn2C)C1 (protonated)
CCC[N@@H+]1CC[C@H](CNCc2cncn2C)C1 (chirality)
CCC[N@@H+]1CC[C@H](CNCc2cncn2C)C1 (3D coordinates assigned)
CCC[N@@H+]1CC[C@H](CNCc2cncn2C)C1 (nonaromatic ring conformer: 70.34213345459156 kcal/mol)

>  <smiles>  (10) 
CCCN1CCC(CNCc2cncn2C)C1

>  <score_type>  (10) 
oracle

>  <origin>  (10) 
adg

>  <m_score__min__energy>  (10) 
-4.6799999999999997

>  <m_primary>  (10) 
energy

$$$$
10:0
     RDKit          3D

 63 65  0  0  0  0  0  0  0  0999 V2000
   60.9420   28.6040   44.8530 C   0  0  0  0  0  0  0  0  0  0  0  0
   60.4360   29.2630   46.1300 C   0  0  0  0  0  0  0  0  0  0  0  0
   58.9660   29.4730   46.0330 N   0  0  0  0  0  0  0  0  0  0  0  0
   58.2100   28.3710   46.6700 C   0  0  0  0  0  0  0  0  0  0  0  0
   59.1370   27.4620   47.4760 C   0  0  0  0  0  0  0  0  0  0  0  0
   58.5290   29.6620   44.6300 C   0  0  0  0  0  0  0  0  0  0  0  0
   57.0830   30.1580   44.5650 C   0  0  0  0  0  0  0  0  0  0  0  0
   57.0430   31.5270   44.9130 O   0  0  0  0  0  0  0  0  0  0  0  0
   57.6480   32.3190   43.9080 C   0  0  0  0  0  0  0  0  0  0  0  0
   58.4670   33.4500   44.5440 C   0  0  0  0  0  0  0  0  0  0  0  0
   57.7350   34.1330   45.7110 C   0  0  0  0  0  0  0  0  0  0  0  0
   58.0400   33.5150   47.0880 C   0  0  0  0  0  0  0  0  0  0  0  0
   58.9030   32.3330   46.9940 N   0  0  0  0  0  0  0  0  0  0  0  0
   60.0850   32.1180   47.7940 C   0  0  0  0  0  0  0  0  0  0  0  0
   61.2920   32.7610   47.4910 C   0  0  0  0  0  0  0  0  0  0  0  0
   62.4230   32.5310   48.2350 C   0  0  0  0  0  0  0  0  0  0  0  0
   62.4260   31.6910   49.3200 N   0  0  0  0  0  0  0  0  0  0  0  0
   63.6530   31.5250   50.1220 C   0  0  0  0  0  0  0  0  0  0  0  0
   61.2710   30.9970   49.6360 C   0  0  0  0  0  0  0  0  0  0  0  0
   61.2350   30.0690   50.7050 C   0  0  0  0  0  0  0  0  0  0  0  0
   60.0650   29.3800   51.0210 C   0  0  0  0  0  0  0  0  0  0  0  0
   58.9060   29.5950   50.2870 C   0  0  0  0  0  0  0  0  0  0  0  0
   58.9060   30.4950   49.2230 C   0  0  0  0  0  0  0  0  0  0  0  0
   60.0770   31.2000   48.8730 C   0  0  0  0  0  0  0  0  0  0  0  0
   63.5920   33.2800   47.6920 C   0  0  0  0  0  0  0  0  0  0  0  0
   63.0860   33.8630   46.3690 C   0  0  0  0  0  0  0  0  0  0  0  0
   61.5620   33.6970   46.3670 C   0  0  0  0  0  0  0  0  0  0  0  0
   61.5932   27.7559   45.1113 H   0  0  0  0  0  0  0  0  0  0  0  0
   60.0867   28.2432   44.2629 H   0  0  0  0  0  0  0  0  0  0  0  0
   61.5115   29.3371   44.2629 H   0  0  0  0  0  0  0  0  0  0  0  0
   60.6574   28.6137   46.9899 H   0  0  0  0  0  0  0  0  0  0  0  0
   60.9362   30.2335   46.2639 H   0  0  0  0  0  0  0  0  0  0  0  0
   57.4513   28.7976   47.3426 H   0  0  0  0  0  0  0  0  0  0  0  0
   57.7334   27.7719   45.8801 H   0  0  0  0  0  0  0  0  0  0  0  0
   58.9689   27.6269   48.5505 H   0  0  0  0  0  0  0  0  0  0  0  0
   58.9259   26.4111   47.2288 H   0  0  0  0  0  0  0  0  0  0  0  0
   60.1835   27.6937   47.2288 H   0  0  0  0  0  0  0  0  0  0  0  0
   59.1844   30.4012   44.1462 H   0  0  0  0  0  0  0  0  0  0  0  0
   58.5896   28.6935   44.1119 H   0  0  0  0  0  0  0  0  0  0  0  0
   56.6950   30.0269   43.5441 H   0  0  0  0  0  0  0  0  0  0  0  0
   56.4635   29.5809   45.2673 H   0  0  0  0  0  0  0  0  0  0  0  0
   58.3121   31.6879   43.2991 H   0  0  0  0  0  0  0  0  0  0  0  0
   56.8619   32.7576   43.2758 H   0  0  0  0  0  0  0  0  0  0  0  0
   59.4124   33.0311   44.9192 H   0  0  0  0  0  0  0  0  0  0  0  0
   58.6370   34.2117   43.7688 H   0  0  0  0  0  0  0  0  0  0  0  0
   58.0320   35.1919   45.7335 H   0  0  0  0  0  0  0  0  0  0  0  0
   56.6577   33.9994   45.5333 H   0  0  0  0  0  0  0  0  0  0  0  0
   58.5426   34.2702   47.7102 H   0  0  0  0  0  0  0  0  0  0  0  0
   57.0846   33.1971   47.5309 H   0  0  0  0  0  0  0  0  0  0  0  0
   58.5820   31.5640   46.3660 H   0  0  0  0  0  0  0  0  0  0  0  0
   63.3992   31.5593   51.1918 H   0  0  0  0  0  0  0  0  0  0  0  0
   64.1169   30.5559   49.8861 H   0  0  0  0  0  0  0  0  0  0  0  0
   64.3577   32.3360   49.8861 H   0  0  0  0  0  0  0  0  0  0  0  0
   62.1452   29.8888   51.2958 H   0  0  0  0  0  0  0  0  0  0  0  0
   60.0599   28.6631   51.8552 H   0  0  0  0  0  0  0  0  0  0  0  0
   57.9846   29.0530   50.5463 H   0  0  0  0  0  0  0  0  0  0  0  0
   57.9818   30.6577   48.6490 H   0  0  0  0  0  0  0  0  0  0  0  0
   63.8950   34.0823   48.3809 H   0  0  0  0  0  0  0  0  0  0  0  0
   64.4764   32.6397   47.5584 H   0  0  0  0  0  0  0  0  0  0  0  0
   63.3511   34.9282   46.2984 H   0  0  0  0  0  0  0  0  0  0  0  0
   63.5407   33.3472   45.5104 H   0  0  0  0  0  0  0  0  0  0  0  0
   61.0647   34.6634   46.5368 H   0  0  0  0  0  0  0  0  0  0  0  0
   61.1819   33.3200   45.4061 H   0  0  0  0  0  0  0  0  0  0  0  0
  1  2  1  0
  2  3  1  0
  3  4  1  0
  4  5  1  0
  3  6  1  0
  6  7  1  0
  7  8  1  0
  8  9  1  0
  9 10  1  0
 10 11  1  0
 11 12  1  0
 12 13  1  0
 13 14  1  0
 14 15  2  0
 15 16  1  0
 16 17  2  0
 17 18  1  0
 17 19  1  0
 19 20  2  0
 20 21  1  0
 21 22  2  0
 22 23  1  0
 23 24  2  0
 16 25  1  0
 25 26  1  0
 26 27  1  0
 24 14  1  0
 27 15  1  0
 24 19  1  0
  1 28  1  0
  1 29  1  0
  1 30  1  0
  2 31  1  0
  2 32  1  0
  4 33  1  0
  4 34  1  0
  5 35  1  0
  5 36  1  0
  5 37  1  0
  6 38  1  0
  6 39  1  0
  7 40  1  0
  7 41  1  0
  9 42  1  0
  9 43  1  0
 10 44  1  0
 10 45  1  0
 11 46  1  0
 11 47  1  0
 12 48  1  0
 12 49  1  0
 13 50  1  0
 18 51  1  0
 18 52  1  0
 18 53  1  0
 20 54  1  0
 21 55  1  0
 22 56  1  0
 23 57  1  0
 25 58  1  0
 25 59  1  0
 26 60  1  0
 26 61  1  0
 27 62  1  0
 27 63  1  0
M  CHG  1  17   1
M  END
>  <UniqueID>  (11) 
10

>  <SMILES>  (11) 
CCN(CC)CCOCCCCNc1c2c([n+](C)c3ccccc13)CCC2

>  <Energy>  (11) 
80.33894743441645

>  <Genealogy>  (11) 
CCN(CC)CCOCCCCNc1c2c([n+](C)c3ccccc13)CCC2 (3D coordinates assigned)
CCN(CC)CCOCCCCNc1c2c([n+](C)c3ccccc13)CCC2 (nonaromatic ring conformer: 80.33894743441645 kcal/mol)

>  <smiles>  (11) 
CCN(CC)CCOCCCCNc1c2c([n+](C)c3ccccc13)CCC2

>  <score_type>  (11) 
oracle

>  <origin>  (11) 
adg

>  <m_score__min__energy>  (11) 
-6.4199999999999999

>  <m_primary>  (11) 
energy

$$$$
11:0
     RDKit          3D

 50 52  0  0  0  0  0  0  0  0999 V2000
   55.7650   24.0560   44.5300 C   0  0  0  0  0  0  0  0  0  0  0  0
   54.9490   24.8170   45.5790 C   0  0  0  0  0  0  0  0  0  0  0  0
   55.6040   26.0600   46.0140 N   0  0  0  0  0  0  0  0  0  0  0  0
   56.8950   25.8090   46.6700 C   0  0  0  0  0  0  0  0  0  0  0  0
   57.5930   27.1390   46.9610 C   0  0  0  0  0  0  0  0  0  0  0  0
   59.1080   26.9450   47.1220 C   0  0  0  0  0  0  0  0  0  0  0  0
   59.8380   28.2540   47.4680 C   0  0  0  0  0  0  0  0  0  0  0  0
   60.4050   28.9040   46.2720 N   0  0  0  0  0  0  0  0  0  0  0  0
   59.6840   30.1270   45.9590 C   0  0  0  0  0  0  0  0  0  0  0  0
   58.5430   30.1040   45.1140 C   0  0  0  0  0  0  0  0  0  0  0  0
   58.1650   28.9360   44.4050 C   0  0  0  0  0  0  0  0  0  0  0  0
   57.0600   28.9370   43.5560 C   0  0  0  0  0  0  0  0  0  0  0  0
   56.3190   30.0950   43.3780 C   0  0  0  0  0  0  0  0  0  0  0  0
   56.6650   31.2580   44.0620 C   0  0  0  0  0  0  0  0  0  0  0  0
   57.7620   31.2830   44.9610 C   0  0  0  0  0  0  0  0  0  0  0  0
   58.0850   32.4250   45.6650 N   0  0  0  0  0  0  0  0  0  0  0  0
   57.1060   33.5320   45.7680 C   0  0  0  0  0  0  0  0  0  0  0  0
   59.3160   32.5330   46.2780 C   0  0  0  0  0  0  0  0  0  0  0  0
   59.8080   33.7860   46.7270 C   0  0  0  0  0  0  0  0  0  0  0  0
   61.0330   33.8890   47.3760 C   0  0  0  0  0  0  0  0  0  0  0  0
   61.8130   32.7580   47.5800 C   0  0  0  0  0  0  0  0  0  0  0  0
   63.5040   32.9110   48.4560 Br  0  0  0  0  0  0  0  0  0  0  0  0
   61.3740   31.5170   47.1210 C   0  0  0  0  0  0  0  0  0  0  0  0
   60.1300   31.3800   46.4580 C   0  0  0  0  0  0  0  0  0  0  0  0
   56.4799   23.3893   45.0344 H   0  0  0  0  0  0  0  0  0  0  0  0
   55.0880   23.4592   43.9010 H   0  0  0  0  0  0  0  0  0  0  0  0
   56.3132   24.7729   43.9010 H   0  0  0  0  0  0  0  0  0  0  0  0
   53.9684   25.0678   45.1483 H   0  0  0  0  0  0  0  0  0  0  0  0
   54.8511   24.1664   46.4606 H   0  0  0  0  0  0  0  0  0  0  0  0
   55.7570   26.6800   45.1830 H   0  0  0  0  0  0  0  0  0  0  0  0
   56.7267   25.2702   47.6141 H   0  0  0  0  0  0  0  0  0  0  0  0
   57.5289   25.2026   46.0064 H   0  0  0  0  0  0  0  0  0  0  0  0
   57.4062   27.8325   46.1279 H   0  0  0  0  0  0  0  0  0  0  0  0
   57.1912   27.5461   47.9006 H   0  0  0  0  0  0  0  0  0  0  0  0
   59.2865   26.2183   47.9282 H   0  0  0  0  0  0  0  0  0  0  0  0
   59.5025   26.5877   46.1594 H   0  0  0  0  0  0  0  0  0  0  0  0
   59.1243   28.9438   47.9422 H   0  0  0  0  0  0  0  0  0  0  0  0
   60.6680   28.0104   48.1475 H   0  0  0  0  0  0  0  0  0  0  0  0
   60.3930   28.2510   45.4570 H   0  0  0  0  0  0  0  0  0  0  0  0
   61.4190   29.1070   46.4060 H   0  0  0  0  0  0  0  0  0  0  0  0
   58.7532   28.0145   44.5270 H   0  0  0  0  0  0  0  0  0  0  0  0
   56.7749   28.0164   43.0256 H   0  0  0  0  0  0  0  0  0  0  0  0
   55.4564   30.0954   42.6955 H   0  0  0  0  0  0  0  0  0  0  0  0
   56.0769   32.1737   43.9021 H   0  0  0  0  0  0  0  0  0  0  0  0
   56.9115   33.7520   46.8281 H   0  0  0  0  0  0  0  0  0  0  0  0
   57.5126   34.4280   45.2762 H   0  0  0  0  0  0  0  0  0  0  0  0
   56.1670   33.2380   45.2762 H   0  0  0  0  0  0  0  0  0  0  0  0
   59.2087   34.6929   46.5583 H   0  0  0  0  0  0  0  0  0  0  0  0
   61.3857   34.8693   47.7291 H   0  0  0  0  0  0  0  0  0  0  0  0
   62.0045   30.6291   47.2764 H   0  0  0  0  0  0  0  0  0  0  0  0
  1  2  1  0
  2  3  1  0
  3  4  1  0
  4  5  1  0
  5  6  1  0
  6  7  1  0
  7  8  1  0
  8  9  1  0
  9 10  2  0
 10 11  1  0
 11 12  2  0
 12 13  1  0
 13 14  2  0
 14 15  1  0
 15 16  2  0
 16 17  1  0
 16 18  1  0
 18 19  2  0
 19 20  1  0
 20 21  2  0
 21 22  1  0
 21 23  1  0
 23 24  2  0
 24  9  1  0
 15 10  1  0
 24 18  1  0
  1 25  1  0
  1 26  1  0
  1 27  1  0
  2 28  1  0
  2 29  1  0
  3 30  1  0
  4 31  1  0
  4 32  1  0
  5 33  1  0
  5 34  1  0
  6 35  1  0
  6 36  1  0
  7 37  1  0
  7 38  1  0
  8 39  1  0
  8 40  1  0
 11 41  1  0
 12 42  1  0
 13 43  1  0
 14 44  1  0
 17 45  1  0
 17 46  1  0
 17 47  1  0
 19 48  1  0
 20 49  1  0
 23 50  1  0
M  CHG  2   8   1  16   1
M  END
>  <UniqueID>  (12) 
11

>  <SMILES>  (12) 
CCNCCCC[NH2+]c1c2ccccc2[n+](C)c2ccc(Br)cc12

>  <Energy>  (12) 
70.87676930777424

>  <Genealogy>  (12) 
CCNCCCC[NH2+]c1c2ccccc2[n+](C)c2ccc(Br)cc12 (protonated)
CCNCCCC[NH2+]c1c2ccccc2[n+](C)c2ccc(Br)cc12 (3D coordinates assigned)
CCNCCCC[NH2+]c1c2ccccc2[n+](C)c2ccc(Br)cc12 (optimized conformer: 70.87676930777424 kcal/mol)

>  <smiles>  (12) 
CCNCCCCNc1c2ccccc2[n+](C)c2ccc(Br)cc12

>  <score_type>  (12) 
oracle

>  <origin>  (12) 
adg

>  <m_score__min__energy>  (12) 
-5.0999999999999996

>  <m_primary>  (12) 
energy

$$$$
12:0
     RDKit          3D

 53 55  0  0  0  0  0  0  0  0999 V2000
   63.4160   33.6160   46.7360 C   0  0  0  0  0  0  0  0  0  0  0  0
   63.7260   33.8520   48.2100 C   0  0  0  0  0  0  0  0  0  0  0  0
   63.5270   32.5760   49.0340 C   0  0  0  0  0  0  0  0  0  0  0  0
   62.7730   31.5780   48.2610 N   0  0  0  0  0  0  0  0  0  0  0  0
   61.8910   30.7800   49.1270 C   0  0  0  0  0  0  0  0  0  0  0  0
   60.7380   30.1770   48.3140 C   0  0  0  0  0  0  0  0  0  0  0  0
   60.8230   30.5450   46.8990 N   0  0  0  0  0  0  0  0  0  0  0  0
   59.6610   30.6100   46.0550 C   0  0  0  0  0  0  0  0  0  0  0  0
   59.1640   29.4270   45.4800 C   0  0  0  0  0  0  0  0  0  0  0  0
   59.6570   28.1650   45.8780 C   0  0  0  0  0  0  0  0  0  0  0  0
   59.1430   26.9940   45.3260 C   0  0  0  0  0  0  0  0  0  0  0  0
   58.1270   27.0590   44.3800 C   0  0  0  0  0  0  0  0  0  0  0  0
   57.6370   28.2960   43.9600 C   0  0  0  0  0  0  0  0  0  0  0  0
   58.1690   29.5060   44.4760 C   0  0  0  0  0  0  0  0  0  0  0  0
   57.7480   30.7390   44.0170 N   0  0  0  0  0  0  0  0  0  0  0  0
   56.9840   30.8330   42.7540 C   0  0  0  0  0  0  0  0  0  0  0  0
   58.0540   31.8820   44.7320 C   0  0  0  0  0  0  0  0  0  0  0  0
   57.4030   33.1100   44.4640 C   0  0  0  0  0  0  0  0  0  0  0  0
   57.7220   34.2630   45.1700 C   0  0  0  0  0  0  0  0  0  0  0  0
   58.6630   34.2230   46.1890 C   0  0  0  0  0  0  0  0  0  0  0  0
   59.2990   33.0170   46.5290 C   0  0  0  0  0  0  0  0  0  0  0  0
   60.1700   32.9590   47.6310 O   0  0  0  0  0  0  0  0  0  0  0  0
   60.2780   33.9520   48.6480 C   0  0  0  0  0  0  0  0  0  0  0  0
   59.6190   33.4420   49.9200 C   0  0  0  0  0  0  0  0  0  0  0  0
   59.0240   31.8410   45.7760 C   0  0  0  0  0  0  0  0  0  0  0  0
   62.5437   32.9519   46.6465 H   0  0  0  0  0  0  0  0  0  0  0  0
   63.1963   34.5775   46.2490 H   0  0  0  0  0  0  0  0  0  0  0  0
   64.2844   33.1483   46.2490 H   0  0  0  0  0  0  0  0  0  0  0  0
   64.7708   34.1819   48.3077 H   0  0  0  0  0  0  0  0  0  0  0  0
   63.0370   34.6206   48.5900 H   0  0  0  0  0  0  0  0  0  0  0  0
   64.5098   32.1603   49.3012 H   0  0  0  0  0  0  0  0  0  0  0  0
   62.9609   32.8240   49.9440 H   0  0  0  0  0  0  0  0  0  0  0  0
   62.1670   32.0950   47.5820 H   0  0  0  0  0  0  0  0  0  0  0  0
   62.4735   29.9675   49.5858 H   0  0  0  0  0  0  0  0  0  0  0  0
   61.4719   31.4342   49.9057 H   0  0  0  0  0  0  0  0  0  0  0  0
   60.7759   29.0810   48.4003 H   0  0  0  0  0  0  0  0  0  0  0  0
   59.7926   30.5713   48.7149 H   0  0  0  0  0  0  0  0  0  0  0  0
   61.7490   30.8270   46.5030 H   0  0  0  0  0  0  0  0  0  0  0  0
   60.4556   28.1061   46.6321 H   0  0  0  0  0  0  0  0  0  0  0  0
   59.5413   26.0176   45.6389 H   0  0  0  0  0  0  0  0  0  0  0  0
   57.7078   26.1323   43.9611 H   0  0  0  0  0  0  0  0  0  0  0  0
   56.8261   28.3338   43.2177 H   0  0  0  0  0  0  0  0  0  0  0  0
   55.9157   30.9644   42.9806 H   0  0  0  0  0  0  0  0  0  0  0  0
   57.3438   31.6937   42.1710 H   0  0  0  0  0  0  0  0  0  0  0  0
   57.1244   29.9108   42.1710 H   0  0  0  0  0  0  0  0  0  0  0  0
   56.6303   33.1520   43.6823 H   0  0  0  0  0  0  0  0  0  0  0  0
   57.2261   35.2125   44.9200 H   0  0  0  0  0  0  0  0  0  0  0  0
   58.9134   35.1440   46.7358 H   0  0  0  0  0  0  0  0  0  0  0  0
   61.3396   34.1638   48.8436 H   0  0  0  0  0  0  0  0  0  0  0  0
   59.7772   34.8740   48.3176 H   0  0  0  0  0  0  0  0  0  0  0  0
   60.1462   33.8500   50.7950 H   0  0  0  0  0  0  0  0  0  0  0  0
   58.5674   33.7638   49.9426 H   0  0  0  0  0  0  0  0  0  0  0  0
   59.6668   32.3433   49.9426 H   0  0  0  0  0  0  0  0  0  0  0  0
  1  2  1  0
  2  3  1  0
  3  4  1  0
  4  5  1  0
  5  6  1  0
  6  7  1  0
  7  8  1  0
  8  9  2  0
  9 10  1  0
 10 11  2  0
 11 12  1  0
 12 13  2  0
 13 14  1  0
 14 15  2  0
 15 16  1  0
 15 17  1  0
 17 18  2  0
 18 19  1  0
 19 20  2  0
 20 21  1  0
 21 22  1  0
 22 23  1  0
 23 24  1  0
 21 25  2  0
 25  8  1  0
 14  9  1  0
 25 17  1  0
  1 26  1  0
  1 27  1  0
  1 28  1  0
  2 29  1  0
  2 30  1  0
  3 31  1  0
  3 32  1  0
  4 33  1  0
  5 34  1  0
  5 35  1  0
  6 36  1  0
  6 37  1  0
  7 38  1  0
 10 39  1  0
 11 40  1  0
 12 41  1  0
 13 42  1  0
 16 43  1  0
 16 44  1  0
 16 45  1  0
 18 46  1  0
 19 47  1  0
 20 48  1  0
 23 49  1  0
 23 50  1  0
 24 51  1  0
 24 52  1  0
 24 53  1  0
M  CHG  1  15   1
M  END
>  <UniqueID>  (13) 
12

>  <SMILES>  (13) 
CCCNCCNc1c2ccccc2[n+](C)c2cccc(OCC)c12

>  <Energy>  (13) 
69.9172495386395

>  <Genealogy>  (13) 
CCCNCCNc1c2ccccc2[n+](C)c2cccc(OCC)c12 (3D coordinates assigned)
CCCNCCNc1c2ccccc2[n+](C)c2cccc(OCC)c12 (optimized conformer: 69.9172495386395 kcal/mol)

>  <smiles>  (13) 
CCCNCCNc1c2ccccc2[n+](C)c2cccc(OCC)c12

>  <score_type>  (13) 
oracle

>  <origin>  (13) 
adg

>  <m_score__min__energy>  (13) 
-4.7400000000000002

>  <m_primary>  (13) 
energy

$$$$
13:0
     RDKit          3D

 47 47  0  0  0  0  0  0  0  0999 V2000
   58.0490   33.4420   44.2730 C   0  0  0  0  0  0  0  0  0  0  0  0
   57.4090   34.1960   45.4330 C   0  0  0  0  0  0  0  0  0  0  0  0
   58.3390   34.2410   46.5840 N   0  0  0  0  0  0  0  0  0  0  0  0
   59.6710   34.7060   46.1580 C   0  0  0  0  0  0  0  0  0  0  0  0
   58.4440   32.9250   47.2520 C   0  0  0  0  0  0  0  0  0  0  0  0
   59.7550   32.8250   48.0350 C   0  0  0  0  0  0  0  0  0  0  0  0
   60.7030   32.1290   47.2550 O   0  0  0  0  0  0  0  0  0  0  0  0
   61.0320   30.9070   47.8750 C   0  0  0  0  0  0  0  0  0  0  0  0
   59.7530   30.1710   48.2730 C   0  0  0  0  0  0  0  0  0  0  0  0
   58.9030   29.9740   47.1400 O   0  0  0  0  0  0  0  0  0  0  0  0
   58.6500   28.7540   46.4890 C   0  0  0  0  0  0  0  0  0  0  0  0
   59.4000   27.5890   46.7390 C   0  0  0  0  0  0  0  0  0  0  0  0
   59.1040   26.3980   46.0740 C   0  0  0  0  0  0  0  0  0  0  0  0
   59.8430   25.2900   46.3430 F   0  0  0  0  0  0  0  0  0  0  0  0
   58.0540   26.3430   45.1460 C   0  0  0  0  0  0  0  0  0  0  0  0
   57.7940   25.0730   44.4200 C   0  0  0  0  0  0  0  0  0  0  0  0
   56.6490   24.3690   44.4710 C   0  0  0  0  0  0  0  0  0  0  0  0
   55.5740   24.8310   45.3090 C   0  0  0  0  0  0  0  0  0  0  0  0
   54.7100   25.2040   45.9820 N   0  0  0  0  0  0  0  0  0  0  0  0
   56.4080   23.2000   43.6630 C   0  0  0  0  0  0  0  0  0  0  0  0
   56.2130   22.2600   43.0170 N   0  0  0  0  0  0  0  0  0  0  0  0
   57.3360   27.5160   44.8590 C   0  0  0  0  0  0  0  0  0  0  0  0
   57.6180   28.7160   45.5400 C   0  0  0  0  0  0  0  0  0  0  0  0
   56.8960   29.8960   45.2970 O   0  0  0  0  0  0  0  0  0  0  0  0
   56.5730   30.3940   44.0030 C   0  0  0  0  0  0  0  0  0  0  0  0
   58.7136   32.6590   44.6668 H   0  0  0  0  0  0  0  0  0  0  0  0
   57.2629   32.9803   43.6575 H   0  0  0  0  0  0  0  0  0  0  0  0
   58.6323   34.1427   43.6575 H   0  0  0  0  0  0  0  0  0  0  0  0
   57.1740   35.2223   45.1146 H   0  0  0  0  0  0  0  0  0  0  0  0
   56.4868   33.6778   45.7347 H   0  0  0  0  0  0  0  0  0  0  0  0
   60.2854   34.9205   47.0448 H   0  0  0  0  0  0  0  0  0  0  0  0
   60.1569   33.9243   45.5556 H   0  0  0  0  0  0  0  0  0  0  0  0
   59.5649   35.6203   45.5556 H   0  0  0  0  0  0  0  0  0  0  0  0
   57.5983   32.8020   47.9446 H   0  0  0  0  0  0  0  0  0  0  0  0
   58.4252   32.1349   46.4869 H   0  0  0  0  0  0  0  0  0  0  0  0
   60.1300   33.8349   48.2572 H   0  0  0  0  0  0  0  0  0  0  0  0
   59.5841   32.2879   48.9797 H   0  0  0  0  0  0  0  0  0  0  0  0
   61.6089   30.2852   47.1746 H   0  0  0  0  0  0  0  0  0  0  0  0
   61.6335   31.1050   48.7745 H   0  0  0  0  0  0  0  0  0  0  0  0
   60.0186   29.1919   48.6983 H   0  0  0  0  0  0  0  0  0  0  0  0
   59.2143   30.7792   49.0145 H   0  0  0  0  0  0  0  0  0  0  0  0
   60.2263   27.6176   47.4646 H   0  0  0  0  0  0  0  0  0  0  0  0
   58.6035   24.6763   43.7897 H   0  0  0  0  0  0  0  0  0  0  0  0
   56.5454   27.4969   44.0944 H   0  0  0  0  0  0  0  0  0  0  0  0
   55.9769   31.3131   44.1021 H   0  0  0  0  0  0  0  0  0  0  0  0
   57.4998   30.6156   43.4535 H   0  0  0  0  0  0  0  0  0  0  0  0
   55.9928   29.6381   43.4535 H   0  0  0  0  0  0  0  0  0  0  0  0
  1  2  1  0
  2  3  1  0
  3  4  1  0
  3  5  1  0
  5  6  1  0
  6  7  1  0
  7  8  1  0
  8  9  1  0
  9 10  1  0
 10 11  1  0
 11 12  2  0
 12 13  1  0
 13 14  1  0
 13 15  2  0
 15 16  1  0
 16 17  2  3
 17 18  1  0
 18 19  3  0
 17 20  1  0
 20 21  3  0
 15 22  1  0
 22 23  2  0
 23 24  1  0
 24 25  1  0
 23 11  1  0
  1 26  1  0
  1 27  1  0
  1 28  1  0
  2 29  1  0
  2 30  1  0
  4 31  1  0
  4 32  1  0
  4 33  1  0
  5 34  1  0
  5 35  1  0
  6 36  1  0
  6 37  1  0
  8 38  1  0
  8 39  1  0
  9 40  1  0
  9 41  1  0
 12 42  1  0
 16 43  1  0
 22 44  1  0
 25 45  1  0
 25 46  1  0
 25 47  1  0
M  END
>  <UniqueID>  (14) 
13

>  <SMILES>  (14) 
CCN(C)CCOCCOc1cc(F)c(C=C(C#N)C#N)cc1OC

>  <Energy>  (14) 
41.19320579682962

>  <Genealogy>  (14) 
CCN(C)CCOCCOc1cc(F)c(C=C(C#N)C#N)cc1OC (3D coordinates assigned)
CCN(C)CCOCCOc1cc(F)c(C=C(C#N)C#N)cc1OC (optimized conformer: 41.19320579682962 kcal/mol)

>  <smiles>  (14) 
CCN(C)CCOCCOc1cc(F)c(C=C(C#N)C#N)cc1OC

>  <score_type>  (14) 
oracle

>  <origin>  (14) 
adg

>  <m_score__min__energy>  (14) 
-6.04

>  <m_primary>  (14) 
energy

$$$$
14:0
     RDKit          3D

 76 79  0  0  0  0  0  0  0  0999 V2000
   58.2500   32.3410   53.9420 C   0  0  0  0  0  0  0  0  0  0  0  0
   58.9070   31.4120   52.9120 C   0  0  0  0  0  0  0  0  0  0  0  0
   57.9860   30.9580   51.8390 N   0  0  0  0  0  0  0  0  0  0  0  0
   56.8240   30.1630   52.3200 C   0  0  0  0  0  0  0  0  0  0  0  0
   55.4420   30.7670   52.0050 C   0  0  0  0  0  0  0  0  0  0  0  0
   57.7160   32.0010   50.8220 C   0  0  0  0  0  0  0  0  0  0  0  0
   58.8990   32.9530   50.6020 C   0  0  0  0  0  0  0  0  0  0  0  0
   59.8360   32.5290   49.5510 N   0  0  0  0  0  0  0  0  0  0  0  0
   59.3790   31.9520   48.3130 C   0  0  0  0  0  0  0  0  0  0  0  0
   59.1710   32.8210   47.2170 C   0  0  0  0  0  0  0  0  0  0  0  0
   59.5940   34.1700   47.2670 C   0  0  0  0  0  0  0  0  0  0  0  0
   59.3170   35.0470   46.2220 C   0  0  0  0  0  0  0  0  0  0  0  0
   58.6420   34.5920   45.0900 C   0  0  0  0  0  0  0  0  0  0  0  0
   58.2870   33.2480   44.9850 C   0  0  0  0  0  0  0  0  0  0  0  0
   58.5590   32.3330   46.0390 C   0  0  0  0  0  0  0  0  0  0  0  0
   58.3060   30.9860   45.9110 N   0  0  0  0  0  0  0  0  0  0  0  0
   57.4600   30.4920   44.8000 C   0  0  0  0  0  0  0  0  0  0  0  0
   58.8850   30.0940   46.7970 C   0  0  0  0  0  0  0  0  0  0  0  0
   59.1390   28.7600   46.4010 C   0  0  0  0  0  0  0  0  0  0  0  0
   59.7660   27.8670   47.2510 C   0  0  0  0  0  0  0  0  0  0  0  0
   60.0590   28.2400   48.5520 C   0  0  0  0  0  0  0  0  0  0  0  0
   59.7180   29.5160   49.0450 C   0  0  0  0  0  0  0  0  0  0  0  0
   59.8550   29.7570   50.4750 N   0  0  0  0  0  0  0  0  0  0  0  0
   61.1000   29.2430   51.0930 C   0  0  0  0  0  0  0  0  0  0  0  0
   62.3730   30.0690   50.7770 C   0  0  0  0  0  0  0  0  0  0  0  0
   62.3090   30.9340   49.4990 C   0  0  0  0  0  0  0  0  0  0  0  0
   63.5820   31.6230   49.1590 N   0  0  0  0  0  0  0  0  0  0  0  0
   63.7390   31.7810   47.6900 C   0  0  0  0  0  0  0  0  0  0  0  0
   62.8430   32.8880   47.1010 C   0  0  0  0  0  0  0  0  0  0  0  0
   63.0470   34.2150   47.8300 C   0  0  0  0  0  0  0  0  0  0  0  0
   62.8780   34.0300   49.3390 C   0  0  0  0  0  0  0  0  0  0  0  0
   63.7990   32.9150   49.8540 C   0  0  0  0  0  0  0  0  0  0  0  0
   59.3070   30.5310   48.0950 C   0  0  0  0  0  0  0  0  0  0  0  0
   58.4949   31.9947   54.9569 H   0  0  0  0  0  0  0  0  0  0  0  0
   58.6254   33.3657   53.8036 H   0  0  0  0  0  0  0  0  0  0  0  0
   57.1588   32.3285   53.8036 H   0  0  0  0  0  0  0  0  0  0  0  0
   59.7450   31.9501   52.4448 H   0  0  0  0  0  0  0  0  0  0  0  0
   59.2336   30.5127   53.4548 H   0  0  0  0  0  0  0  0  0  0  0  0
   56.8753   29.1683   51.8532 H   0  0  0  0  0  0  0  0  0  0  0  0
   56.9038   30.1376   53.4168 H   0  0  0  0  0  0  0  0  0  0  0  0
   54.9188   30.9956   52.9452 H   0  0  0  0  0  0  0  0  0  0  0  0
   55.5699   31.6913   51.4224 H   0  0  0  0  0  0  0  0  0  0  0  0
   54.8506   30.0453   51.4224 H   0  0  0  0  0  0  0  0  0  0  0  0
   57.4834   31.5063   49.8674 H   0  0  0  0  0  0  0  0  0  0  0  0
   56.8744   32.6060   51.1904 H   0  0  0  0  0  0  0  0  0  0  0  0
   58.4990   33.9403   50.3277 H   0  0  0  0  0  0  0  0  0  0  0  0
   59.4691   32.9659   51.5426 H   0  0  0  0  0  0  0  0  0  0  0  0
   60.8450   32.4190   49.7990 H   0  0  0  0  0  0  0  0  0  0  0  0
   60.1501   34.5313   48.1446 H   0  0  0  0  0  0  0  0  0  0  0  0
   59.6307   36.0992   46.2893 H   0  0  0  0  0  0  0  0  0  0  0  0
   58.3898   35.2929   44.2806 H   0  0  0  0  0  0  0  0  0  0  0  0
   57.7885   32.8896   44.0723 H   0  0  0  0  0  0  0  0  0  0  0  0
   56.5788   29.9775   45.2109 H   0  0  0  0  0  0  0  0  0  0  0  0
   57.1336   31.3414   44.1820 H   0  0  0  0  0  0  0  0  0  0  0  0
   58.0393   29.7902   44.1820 H   0  0  0  0  0  0  0  0  0  0  0  0
   58.8322   28.4267   45.3986 H   0  0  0  0  0  0  0  0  0  0  0  0
   60.0317   26.8611   46.8938 H   0  0  0  0  0  0  0  0  0  0  0  0
   60.5687   27.5254   49.2150 H   0  0  0  0  0  0  0  0  0  0  0  0
   59.1050   29.2890   51.0010 H   0  0  0  0  0  0  0  0  0  0  0  0
   59.7950   30.7910   50.6450 H   0  0  0  0  0  0  0  0  0  0  0  0
   60.9612   29.2327   52.1842 H   0  0  0  0  0  0  0  0  0  0  0  0
   61.2667   28.2428   50.6666 H   0  0  0  0  0  0  0  0  0  0  0  0
   62.5620   30.7383   51.6292 H   0  0  0  0  0  0  0  0  0  0  0  0
   63.1722   29.3337   50.6021 H   0  0  0  0  0  0  0  0  0  0  0  0
   62.0346   30.2826   48.6561 H   0  0  0  0  0  0  0  0  0  0  0  0
   61.5667   31.7228   49.6908 H   0  0  0  0  0  0  0  0  0  0  0  0
   64.7888   32.0292   47.4750 H   0  0  0  0  0  0  0  0  0  0  0  0
   63.4360   30.8317   47.2241 H   0  0  0  0  0  0  0  0  0  0  0  0
   63.0911   33.0217   46.0377 H   0  0  0  0  0  0  0  0  0  0  0  0
   61.7925   32.5844   47.2208 H   0  0  0  0  0  0  0  0  0  0  0  0
   64.0602   34.5897   47.6227 H   0  0  0  0  0  0  0  0  0  0  0  0
   62.2956   34.9352   47.4740 H   0  0  0  0  0  0  0  0  0  0  0  0
   63.1302   34.9714   49.8490 H   0  0  0  0  0  0  0  0  0  0  0  0
   61.8343   33.7518   49.5471 H   0  0  0  0  0  0  0  0  0  0  0  0
   64.8437   33.2243   49.7027 H   0  0  0  0  0  0  0  0  0  0  0  0
   63.5690   32.7609   50.9186 H   0  0  0  0  0  0  0  0  0  0  0  0
  1  2  1  0
  2  3  1  0
  3  4  1  0
  4  5  1  0
  3  6  1  0
  6  7  1  0
  7  8  1  0
  8  9  1  0
  9 10  2  0
 10 11  1  0
 11 12  2  0
 12 13  1  0
 13 14  2  0
 14 15  1  0
 15 16  2  0
 16 17  1  0
 16 18  1  0
 18 19  2  0
 19 20  1  0
 20 21  2  0
 21 22  1  0
 22 23  1  0
 23 24  1  0
 24 25  1  0
 25 26  1  0
 26 27  1  0
 27 28  1  0
 28 29  1  0
 29 30  1  0
 30 31  1  0
 31 32  1  0
 22 33  2  0
 33  9  1  0
 15 10  1  0
 33 18  1  0
 32 27  1  0
  1 34  1  0
  1 35  1  0
  1 36  1  0
  2 37  1  0
  2 38  1  0
  4 39  1  0
  4 40  1  0
  5 41  1  0
  5 42  1  0
  5 43  1  0
  6 44  1  0
  6 45  1  0
  7 46  1  0
  7 47  1  0
  8 48  1  0
 11 49  1  0
 12 50  1  0
 13 51  1  0
 14 52  1  0
 17 53  1  0
 17 54  1  0
 17 55  1  0
 19 56  1  0
 20 57  1  0
 21 58  1  0
 23 59  1  0
 23 60  1  0
 24 61  1  0
 24 62  1  0
 25 63  1  0
 25 64  1  0
 26 65  1  0
 26 66  1  0
 28 67  1  0
 28 68  1  0
 29 69  1  0
 29 70  1  0
 30 71  1  0
 30 72  1  0
 31 73  1  0
 31 74  1  0
 32 75  1  0
 32 76  1  0
M  CHG  2  16   1  23   1
M  END
>  <UniqueID>  (15) 
14

>  <SMILES>  (15) 
CCN(CC)CCNc1c2ccccc2[n+](C)c2cccc([NH2+]CCCN3CCCCC3)c12

>  <Energy>  (15) 
131.86161002923743

>  <Genealogy>  (15) 
CCN(CC)CCNc1c2ccccc2[n+](C)c2cccc([NH2+]CCCN3CCCCC3)c12 (protonated)
CCN(CC)CCNc1c2ccccc2[n+](C)c2cccc([NH2+]CCCN3CCCCC3)c12 (3D coordinates assigned)
CCN(CC)CCNc1c2ccccc2[n+](C)c2cccc([NH2+]CCCN3CCCCC3)c12 (nonaromatic ring conformer: 131.86161002923743 kcal/mol)

>  <smiles>  (15) 
CCN(CC)CCNc1c2ccccc2[n+](C)c2cccc(NCCCN3CCCCC3)c12

>  <score_type>  (15) 
oracle

>  <origin>  (15) 
adg

>  <m_score__min__energy>  (15) 
-4.9400000000000004

>  <m_primary>  (15) 
energy

$$$$
15:0
     RDKit          3D

 56 58  0  0  0  0  0  0  0  0999 V2000
   61.1600   30.5180   48.5690 C   0  0  0  0  0  0  0  0  0  0  0  0
   62.0820   31.2860   49.5280 C   0  0  0  0  0  0  0  0  0  0  0  0
   63.2530   31.9380   48.8890 N   0  0  0  0  0  0  0  0  0  0  0  0
   63.3900   31.7840   47.4230 C   0  0  0  0  0  0  0  0  0  0  0  0
   63.7470   33.1140   46.7650 C   0  0  0  0  0  0  0  0  0  0  0  0
   63.5530   33.3000   49.3840 C   0  0  0  0  0  0  0  0  0  0  0  0
   62.3060   34.1540   49.6310 C   0  0  0  0  0  0  0  0  0  0  0  0
   61.5500   34.2390   48.4280 O   0  0  0  0  0  0  0  0  0  0  0  0
   60.1800   33.9620   48.3770 C   0  0  0  0  0  0  0  0  0  0  0  0
   59.4910   33.9420   49.4350 O   0  0  0  0  0  0  0  0  0  0  0  0
   59.5390   33.6550   47.0520 C   0  0  1  0  0  0  0  0  0  0  0  0
   58.2640   32.8040   47.2350 C   0  0  0  0  0  0  0  0  0  0  0  0
   57.1530   33.1440   46.2190 C   0  0  0  0  0  0  0  0  0  0  0  0
   57.6600   33.5170   44.8760 N   0  0  2  0  0  0  0  0  0  0  0  0
   58.1320   32.3500   44.1520 C   0  0  0  0  0  0  0  0  0  0  0  0
   58.5070   32.4580   42.9530 O   0  0  0  0  0  0  0  0  0  0  0  0
   58.2280   31.0230   44.7940 C   0  0  0  0  0  0  0  0  0  0  0  0
   59.5900   30.5120   45.6590 S   0  0  0  0  0  0  0  0  0  0  0  0
   58.9840   28.9930   46.0280 C   0  0  0  0  0  0  0  0  0  0  0  0
   59.5970   27.9770   46.7570 C   0  0  0  0  0  0  0  0  0  0  0  0
   58.8990   26.7720   46.9290 C   0  0  0  0  0  0  0  0  0  0  0  0
   57.6170   26.6070   46.3710 C   0  0  0  0  0  0  0  0  0  0  0  0
   57.0200   27.6460   45.6370 C   0  0  0  0  0  0  0  0  0  0  0  0
   57.7190   28.8490   45.4740 C   0  0  0  0  0  0  0  0  0  0  0  0
   57.2830   29.9850   44.7700 C   0  0  0  0  0  0  0  0  0  0  0  0
   55.7790   30.0210   43.8580 Cl  0  0  0  0  0  0  0  0  0  0  0  0
   58.6770   34.6100   44.8830 C   0  0  0  0  0  0  0  0  0  0  0  0
   59.2390   34.9410   46.2770 C   0  0  0  0  0  0  0  0  0  0  0  0
   60.4424   29.9203   49.1502 H   0  0  0  0  0  0  0  0  0  0  0  0
   60.6138   31.2320   47.9350 H   0  0  0  0  0  0  0  0  0  0  0  0
   61.7635   29.8518   47.9350 H   0  0  0  0  0  0  0  0  0  0  0  0
   61.4852   32.0665   50.0225 H   0  0  0  0  0  0  0  0  0  0  0  0
   62.4898   30.5389   50.2248 H   0  0  0  0  0  0  0  0  0  0  0  0
   64.1840   31.0529   47.2106 H   0  0  0  0  0  0  0  0  0  0  0  0
   62.4287   31.4379   47.0153 H   0  0  0  0  0  0  0  0  0  0  0  0
   63.9487   33.8654   47.5427 H   0  0  0  0  0  0  0  0  0  0  0  0
   64.6423   32.9848   46.1390 H   0  0  0  0  0  0  0  0  0  0  0  0
   62.9074   33.4504   46.1390 H   0  0  0  0  0  0  0  0  0  0  0  0
   64.1063   33.2114   50.3306 H   0  0  0  0  0  0  0  0  0  0  0  0
   64.1383   33.8047   48.6013 H   0  0  0  0  0  0  0  0  0  0  0  0
   61.6932   33.6909   50.4185 H   0  0  0  0  0  0  0  0  0  0  0  0
   62.6067   35.1628   49.9500 H   0  0  0  0  0  0  0  0  0  0  0  0
   60.2532   33.0639   46.4600 H   0  0  0  0  0  0  0  0  0  0  0  0
   57.8735   32.9735   48.2493 H   0  0  0  0  0  0  0  0  0  0  0  0
   58.5464   31.7537   47.0702 H   0  0  0  0  0  0  0  0  0  0  0  0
   56.5680   33.9873   46.6148 H   0  0  0  0  0  0  0  0  0  0  0  0
   56.5486   32.2340   46.0905 H   0  0  0  0  0  0  0  0  0  0  0  0
   56.8190   33.8810   44.3700 H   0  0  0  0  0  0  0  0  0  0  0  0
   60.6004   28.1153   47.1860 H   0  0  0  0  0  0  0  0  0  0  0  0
   59.3558   25.9521   47.5027 H   0  0  0  0  0  0  0  0  0  0  0  0
   57.0788   25.6579   46.5106 H   0  0  0  0  0  0  0  0  0  0  0  0
   56.0199   27.5168   45.1975 H   0  0  0  0  0  0  0  0  0  0  0  0
   58.2097   35.5184   44.4750 H   0  0  0  0  0  0  0  0  0  0  0  0
   59.5242   34.2569   44.2767 H   0  0  0  0  0  0  0  0  0  0  0  0
   58.4997   35.5354   46.8339 H   0  0  0  0  0  0  0  0  0  0  0  0
   60.1720   35.5116   46.1588 H   0  0  0  0  0  0  0  0  0  0  0  0
  1  2  1  0
  2  3  1  0
  3  4  1  0
  4  5  1  0
  3  6  1  0
  6  7  1  0
  7  8  1  0
  8  9  1  0
  9 10  2  0
  9 11  1  0
 11 12  1  0
 12 13  1  0
 13 14  1  0
 14 15  1  0
 15 16  2  0
 15 17  1  0
 17 18  1  0
 18 19  1  0
 19 20  2  0
 20 21  1  0
 21 22  2  0
 22 23  1  0
 23 24  2  0
 24 25  1  0
 25 26  1  0
 14 27  1  0
 27 28  1  0
 28 11  1  0
 25 17  2  0
 24 19  1  0
  1 29  1  0
  1 30  1  0
  1 31  1  0
  2 32  1  0
  2 33  1  0
  4 34  1  0
  4 35  1  0
  5 36  1  0
  5 37  1  0
  5 38  1  0
  6 39  1  0
  6 40  1  0
  7 41  1  0
  7 42  1  0
 11 43  1  6
 12 44  1  0
 12 45  1  0
 13 46  1  0
 13 47  1  0
 14 48  1  6
 20 49  1  0
 21 50  1  0
 22 51  1  0
 23 52  1  0
 27 53  1  0
 27 54  1  0
 28 55  1  0
 28 56  1  0
M  CHG  1  14   1
M  END
>  <UniqueID>  (16) 
15

>  <SMILES>  (16) 
CCN(CC)CCOC(=O)C1CC[NH+](C(=O)c2sc3ccccc3c2Cl)CC1

>  <Energy>  (16) 
105.26482932241794

>  <Genealogy>  (16) 
CCN(CC)CCOC(=O)C1CC[NH+](C(=O)c2sc3ccccc3c2Cl)CC1 (protonated)
CCN(CC)CCOC(=O)C1CC[NH+](C(=O)c2sc3ccccc3c2Cl)CC1 (3D coordinates assigned)
CCN(CC)CCOC(=O)C1CC[NH+](C(=O)c2sc3ccccc3c2Cl)CC1 (nonaromatic ring conformer: 105.26482932241794 kcal/mol)

>  <smiles>  (16) 
CCN(CC)CCOC(=O)C1CCN(C(=O)c2sc3ccccc3c2Cl)CC1

>  <score_type>  (16) 
oracle

>  <origin>  (16) 
adg

>  <m_score__min__energy>  (16) 
-7

>  <m_primary>  (16) 
energy

$$$$
16:0
     RDKit          3D

 79 82  0  0  0  0  0  0  0  0999 V2000
   57.2860   25.2590   46.9900 C   0  0  0  0  0  0  0  0  0  0  0  0
   56.3370   26.1230   46.1670 C   0  0  0  0  0  0  0  0  0  0  0  0
   57.0810   27.1310   45.4020 N   0  0  0  0  0  0  0  0  0  0  0  0
   58.4300   26.6380   45.0810 C   0  0  0  0  0  0  0  0  0  0  0  0
   59.5110   27.6770   45.4350 C   0  0  0  0  0  0  0  0  0  0  0  0
   59.2990   28.2920   46.8370 C   0  0  0  0  0  0  0  0  0  0  0  0
   58.1510   29.2200   46.9280 N   0  0  0  0  0  0  0  0  0  0  0  0
   58.3980   30.5460   46.3690 C   0  0  0  0  0  0  0  0  0  0  0  0
   57.9760   30.8830   45.0510 C   0  0  0  0  0  0  0  0  0  0  0  0
   57.3530   29.9400   44.1910 C   0  0  0  0  0  0  0  0  0  0  0  0
   56.9430   30.2860   42.9050 C   0  0  0  0  0  0  0  0  0  0  0  0
   57.1500   31.5720   42.4350 C   0  0  0  0  0  0  0  0  0  0  0  0
   57.7700   32.5180   43.2420 C   0  0  0  0  0  0  0  0  0  0  0  0
   58.1870   32.2070   44.5640 C   0  0  0  0  0  0  0  0  0  0  0  0
   58.7870   33.1630   45.3610 N   0  0  0  0  0  0  0  0  0  0  0  0
   58.7530   34.5860   44.9490 C   0  0  0  0  0  0  0  0  0  0  0  0
   59.3870   32.7940   46.5470 C   0  0  0  0  0  0  0  0  0  0  0  0
   60.2730   33.6700   47.2300 C   0  0  0  0  0  0  0  0  0  0  0  0
   60.7560   33.3620   48.5130 C   0  0  0  0  0  0  0  0  0  0  0  0
   61.6050   34.2060   49.2460 O   0  0  0  0  0  0  0  0  0  0  0  0
   62.1400   33.9730   50.5490 C   0  0  0  0  0  0  0  0  0  0  0  0
   63.6890   34.0130   50.5990 C   0  0  0  0  0  0  0  0  0  0  0  0
   64.4060   32.9600   49.7940 N   0  0  0  0  0  0  0  0  0  0  0  0
   64.1340   33.1310   48.3390 C   0  0  0  0  0  0  0  0  0  0  0  0
   63.8610   31.6140   50.1550 C   0  0  0  0  0  0  0  0  0  0  0  0
   64.3270   31.1480   51.5400 C   0  0  0  0  0  0  0  0  0  0  0  0
   65.8210   31.0750   51.6710 N   0  0  0  0  0  0  0  0  0  0  0  0
   66.2290   31.7220   52.9440 C   0  0  0  0  0  0  0  0  0  0  0  0
   66.2390   29.6490   51.7310 C   0  0  0  0  0  0  0  0  0  0  0  0
   66.5330   31.7210   50.5220 C   0  0  0  0  0  0  0  0  0  0  0  0
   65.8850   33.0460   50.0660 C   0  0  0  0  0  0  0  0  0  0  0  0
   60.3800   32.1640   49.1050 C   0  0  0  0  0  0  0  0  0  0  0  0
   59.5870   31.2500   48.4250 C   0  0  0  0  0  0  0  0  0  0  0  0
   59.1160   31.5180   47.1180 C   0  0  0  0  0  0  0  0  0  0  0  0
   57.1003   25.4281   48.0609 H   0  0  0  0  0  0  0  0  0  0  0  0
   57.1166   24.1986   46.7514 H   0  0  0  0  0  0  0  0  0  0  0  0
   58.3259   25.5269   46.7514 H   0  0  0  0  0  0  0  0  0  0  0  0
   55.7779   25.4814   45.4700 H   0  0  0  0  0  0  0  0  0  0  0  0
   55.6464   26.6382   46.8509 H   0  0  0  0  0  0  0  0  0  0  0  0
   56.5690   27.2780   44.5030 H   0  0  0  0  0  0  0  0  0  0  0  0
   58.6191   25.7170   45.6520 H   0  0  0  0  0  0  0  0  0  0  0  0
   58.4782   26.4454   43.9991 H   0  0  0  0  0  0  0  0  0  0  0  0
   60.4950   27.1860   45.4096 H   0  0  0  0  0  0  0  0  0  0  0  0
   59.4483   28.4913   44.6981 H   0  0  0  0  0  0  0  0  0  0  0  0
   59.1363   27.4719   47.5518 H   0  0  0  0  0  0  0  0  0  0  0  0
   60.1996   28.8826   47.0611 H   0  0  0  0  0  0  0  0  0  0  0  0
   57.3070   28.7640   46.5270 H   0  0  0  0  0  0  0  0  0  0  0  0
   57.8730   29.3110   47.9320 H   0  0  0  0  0  0  0  0  0  0  0  0
   57.1903   28.9125   44.5484 H   0  0  0  0  0  0  0  0  0  0  0  0
   56.4550   29.5377   42.2632 H   0  0  0  0  0  0  0  0  0  0  0  0
   56.8230   31.8451   41.4209 H   0  0  0  0  0  0  0  0  0  0  0  0
   57.9419   33.5307   42.8484 H   0  0  0  0  0  0  0  0  0  0  0  0
   58.7377   35.2264   45.8433 H   0  0  0  0  0  0  0  0  0  0  0  0
   59.6459   34.8154   44.3490 H   0  0  0  0  0  0  0  0  0  0  0  0
   57.8501   34.7725   44.3490 H   0  0  0  0  0  0  0  0  0  0  0  0
   60.5865   34.6064   46.7455 H   0  0  0  0  0  0  0  0  0  0  0  0
   61.7499   34.7451   51.2285 H   0  0  0  0  0  0  0  0  0  0  0  0
   61.8332   32.9598   50.8478 H   0  0  0  0  0  0  0  0  0  0  0  0
   64.0119   34.9971   50.2284 H   0  0  0  0  0  0  0  0  0  0  0  0
   63.9558   33.8156   51.6477 H   0  0  0  0  0  0  0  0  0  0  0  0
   63.2097   33.7121   48.2046 H   0  0  0  0  0  0  0  0  0  0  0  0
   64.9738   33.6639   47.8691 H   0  0  0  0  0  0  0  0  0  0  0  0
   64.0177   32.1432   47.8691 H   0  0  0  0  0  0  0  0  0  0  0  0
   62.7622   31.6647   50.1503 H   0  0  0  0  0  0  0  0  0  0  0  0
   64.2337   30.8911   49.4144 H   0  0  0  0  0  0  0  0  0  0  0  0
   63.9447   31.8534   52.2925 H   0  0  0  0  0  0  0  0  0  0  0  0
   63.9370   30.1304   51.6894 H   0  0  0  0  0  0  0  0  0  0  0  0
   65.8556   31.1298   53.7924 H   0  0  0  0  0  0  0  0  0  0  0  0
   67.3265   31.7786   52.9912 H   0  0  0  0  0  0  0  0  0  0  0  0
   65.8071   32.7368   52.9912 H   0  0  0  0  0  0  0  0  0  0  0  0
   66.3303   29.3376   52.7820 H   0  0  0  0  0  0  0  0  0  0  0  0
   65.4861   29.0247   51.2277 H   0  0  0  0  0  0  0  0  0  0  0  0
   67.2098   29.5300   51.2277 H   0  0  0  0  0  0  0  0  0  0  0  0
   67.5701   31.9264   50.8255 H   0  0  0  0  0  0  0  0  0  0  0  0
   66.4786   31.0238   49.6729 H   0  0  0  0  0  0  0  0  0  0  0  0
   66.0457   33.7957   50.8547 H   0  0  0  0  0  0  0  0  0  0  0  0
   66.3623   33.3141   49.1119 H   0  0  0  0  0  0  0  0  0  0  0  0
   60.7153   31.9358   50.1275 H   0  0  0  0  0  0  0  0  0  0  0  0
   59.3199   30.3001   48.9111 H   0  0  0  0  0  0  0  0  0  0  0  0
  1  2  1  0
  2  3  1  0
  3  4  1  0
  4  5  1  0
  5  6  1  0
  6  7  1  0
  7  8  1  0
  8  9  2  0
  9 10  1  0
 10 11  2  0
 11 12  1  0
 12 13  2  0
 13 14  1  0
 14 15  2  0
 15 16  1  0
 15 17  1  0
 17 18  2  0
 18 19  1  0
 19 20  1  0
 20 21  1  0
 21 22  1  0
 22 23  1  0
 23 24  1  0
 23 25  1  0
 25 26  1  0
 26 27  1  0
 27 28  1  0
 27 29  1  0
 27 30  1  0
 30 31  1  0
 19 32  2  0
 32 33  1  0
 33 34  2  0
 34  8  1  0
 14  9  1  0
 34 17  1  0
 31 23  1  0
  1 35  1  0
  1 36  1  0
  1 37  1  0
  2 38  1  0
  2 39  1  0
  3 40  1  0
  4 41  1  0
  4 42  1  0
  5 43  1  0
  5 44  1  0
  6 45  1  0
  6 46  1  0
  7 47  1  0
  7 48  1  0
 10 49  1  0
 11 50  1  0
 12 51  1  0
 13 52  1  0
 16 53  1  0
 16 54  1  0
 16 55  1  0
 18 56  1  0
 21 57  1  0
 21 58  1  0
 22 59  1  0
 22 60  1  0
 24 61  1  0
 24 62  1  0
 24 63  1  0
 25 64  1  0
 25 65  1  0
 26 66  1  0
 26 67  1  0
 28 68  1  0
 28 69  1  0
 28 70  1  0
 29 71  1  0
 29 72  1  0
 29 73  1  0
 30 74  1  0
 30 75  1  0
 31 76  1  0
 31 77  1  0
 32 78  1  0
 33 79  1  0
M  CHG  4   7   1  15   1  23   1  27   1
M  END
>  <UniqueID>  (17) 
16

>  <SMILES>  (17) 
CCNCCC[NH2+]c1c2ccccc2[n+](C)c2cc(OCC[N+]3(C)CC[N+](C)(C)CC3)ccc12

>  <Energy>  (17) 
137.74775951810008

>  <Genealogy>  (17) 
CCNCCC[NH2+]c1c2ccccc2[n+](C)c2cc(OCC[N+]3(C)CC[N+](C)(C)CC3)ccc12 (protonated)
CCNCCC[NH2+]c1c2ccccc2[n+](C)c2cc(OCC[N+]3(C)CC[N+](C)(C)CC3)ccc12 (3D coordinates assigned)
CCNCCC[NH2+]c1c2ccccc2[n+](C)c2cc(OCC[N+]3(C)CC[N+](C)(C)CC3)ccc12 (nonaromatic ring conformer: 137.74775951810008 kcal/mol)

>  <smiles>  (17) 
CCNCCCNc1c2ccccc2[n+](C)c2cc(OCC[N+]3(C)CC[N+](C)(C)CC3)ccc12

>  <score_type>  (17) 
oracle

>  <origin>  (17) 
adg

>  <m_score__min__energy>  (17) 
-2.8399999999999999

>  <m_primary>  (17) 
energy

$$$$
17:0
     RDKit          3D

 34 36  0  0  0  0  0  0  0  0999 V2000
   57.3750   31.2080   43.1240 C   0  0  0  0  0  0  0  0  0  0  0  0
   55.9390   30.2960   43.7620 S   0  0  0  0  0  0  0  0  0  0  0  0
   56.8910   29.4290   45.0040 C   0  0  0  0  0  0  0  0  0  0  0  0
   57.8920   30.0830   45.6770 N   0  0  0  0  0  0  0  0  0  0  0  0
   58.6570   29.4440   46.6120 C   0  0  0  0  0  0  0  0  0  0  0  0
   59.9620   30.3220   47.4720 S   0  0  0  0  0  0  0  0  0  0  0  0
   58.9030   31.7090   48.0170 C   0  0  0  0  0  0  0  0  0  0  0  0
   58.6990   32.7190   46.9190 C   0  0  0  0  0  0  0  0  0  0  0  0
   57.4010   33.0400   46.4870 C   0  0  0  0  0  0  0  0  0  0  0  0
   57.2080   33.9810   45.4720 C   0  0  0  0  0  0  0  0  0  0  0  0
   58.3080   34.5990   44.8720 C   0  0  0  0  0  0  0  0  0  0  0  0
   59.6030   34.2790   45.2880 C   0  0  0  0  0  0  0  0  0  0  0  0
   59.8020   33.3440   46.3080 C   0  0  0  0  0  0  0  0  0  0  0  0
   61.0680   33.0480   46.7010 F   0  0  0  0  0  0  0  0  0  0  0  0
   58.3910   28.1030   46.8540 C   0  0  0  0  0  0  0  0  0  0  0  0
   59.0030   27.2450   47.6940 N   0  0  0  0  0  0  0  0  0  0  0  0
   58.3150   26.0870   47.4910 C   0  0  0  0  0  0  0  0  0  0  0  0
   57.3150   26.2080   46.5820 N   0  0  0  0  0  0  0  0  0  0  0  0
   56.4530   25.1550   46.0610 C   0  0  0  0  0  0  0  0  0  0  0  0
   57.3920   27.4830   46.1870 C   0  0  0  0  0  0  0  0  0  0  0  0
   56.6320   28.1100   45.2570 N   0  0  0  0  0  0  0  0  0  0  0  0
   57.9722   31.5873   43.9663 H   0  0  0  0  0  0  0  0  0  0  0  0
   57.9926   30.5363   42.5097 H   0  0  0  0  0  0  0  0  0  0  0  0
   57.0296   32.0526   42.5097 H   0  0  0  0  0  0  0  0  0  0  0  0
   57.9238   31.3113   48.3220 H   0  0  0  0  0  0  0  0  0  0  0  0
   59.4032   32.2125   48.8574 H   0  0  0  0  0  0  0  0  0  0  0  0
   56.5327   32.5483   46.9499 H   0  0  0  0  0  0  0  0  0  0  0  0
   56.1890   34.2354   45.1451 H   0  0  0  0  0  0  0  0  0  0  0  0
   58.1545   35.3379   44.0717 H   0  0  0  0  0  0  0  0  0  0  0  0
   60.4679   34.7639   44.8118 H   0  0  0  0  0  0  0  0  0  0  0  0
   58.5472   25.1467   48.0125 H   0  0  0  0  0  0  0  0  0  0  0  0
   56.0012   24.6031   46.8984 H   0  0  0  0  0  0  0  0  0  0  0  0
   55.6586   25.6024   45.4456 H   0  0  0  0  0  0  0  0  0  0  0  0
   57.0485   24.4646   45.4456 H   0  0  0  0  0  0  0  0  0  0  0  0
  1  2  1  0
  2  3  1  0
  3  4  2  0
  4  5  1  0
  5  6  1  0
  6  7  1  0
  7  8  1  0
  8  9  2  0
  9 10  1  0
 10 11  2  0
 11 12  1  0
 12 13  2  0
 13 14  1  0
  5 15  2  0
 15 16  1  0
 16 17  2  0
 17 18  1  0
 18 19  1  0
 18 20  1  0
 20 21  2  0
 21  3  1  0
 13  8  1  0
 20 15  1  0
  1 22  1  0
  1 23  1  0
  1 24  1  0
  7 25  1  0
  7 26  1  0
  9 27  1  0
 10 28  1  0
 11 29  1  0
 12 30  1  0
 17 31  1  0
 19 32  1  0
 19 33  1  0
 19 34  1  0
M  END
>  <UniqueID>  (18) 
17

>  <SMILES>  (18) 
CSc1nc(SCc2ccccc2F)c2ncn(C)c2n1

>  <Energy>  (18) 
66.43014383860645

>  <Genealogy>  (18) 
CSc1nc(SCc2ccccc2F)c2ncn(C)c2n1 (3D coordinates assigned)
CSc1nc(SCc2ccccc2F)c2ncn(C)c2n1 (optimized conformer: 66.43014383860645 kcal/mol)

>  <smiles>  (18) 
CSc1nc(SCc2ccccc2F)c2ncn(C)c2n1

>  <score_type>  (18) 
oracle

>  <origin>  (18) 
adg

>  <m_score__min__energy>  (18) 
-6.6299999999999999

>  <m_primary>  (18) 
energy

$$$$
18:0
     RDKit          3D

 61 63  0  0  0  0  0  0  0  0999 V2000
   57.4280   32.4290   52.2200 C   0  0  0  0  0  0  0  0  0  0  0  0
   57.7340   31.9610   50.8000 C   0  0  0  0  0  0  0  0  0  0  0  0
   58.9960   32.5610   50.3390 N   0  0  0  0  0  0  0  0  0  0  0  0
   59.9280   32.8170   51.4520 C   0  0  0  0  0  0  0  0  0  0  0  0
   60.9760   31.7020   51.6080 C   0  0  0  0  0  0  0  0  0  0  0  0
   61.3920   31.2390   50.3340 O   0  0  0  0  0  0  0  0  0  0  0  0
   61.6720   29.8500   50.3540 C   0  0  0  0  0  0  0  0  0  0  0  0
   60.3600   29.0450   50.2780 C   0  0  0  0  0  0  0  0  0  0  0  0
   59.3140   29.7420   49.5130 N   0  0  0  0  0  0  0  0  0  0  0  0
   59.0000   29.0580   48.2520 C   0  0  0  0  0  0  0  0  0  0  0  0
   60.2960   28.6440   47.5530 C   0  0  0  0  0  0  0  0  0  0  0  0
   60.7240   29.6770   46.6120 N   0  0  0  0  0  0  0  0  0  0  0  0
   59.8400   30.7430   46.2170 C   0  0  0  0  0  0  0  0  0  0  0  0
   58.7450   30.4800   45.3740 C   0  0  0  0  0  0  0  0  0  0  0  0
   58.5260   29.1860   44.8520 C   0  0  0  0  0  0  0  0  0  0  0  0
   57.3990   28.9100   44.0820 C   0  0  0  0  0  0  0  0  0  0  0  0
   56.4720   29.9130   43.8210 C   0  0  0  0  0  0  0  0  0  0  0  0
   56.6890   31.2080   44.2900 C   0  0  0  0  0  0  0  0  0  0  0  0
   57.8540   31.5330   45.0330 C   0  0  0  0  0  0  0  0  0  0  0  0
   58.1270   32.8300   45.4280 N   0  0  0  0  0  0  0  0  0  0  0  0
   57.3760   33.9580   44.8320 C   0  0  0  0  0  0  0  0  0  0  0  0
   59.1280   33.0790   46.3500 C   0  0  0  0  0  0  0  0  0  0  0  0
   59.2790   34.3490   46.9600 C   0  0  0  0  0  0  0  0  0  0  0  0
   60.3200   34.6040   47.8520 C   0  0  0  0  0  0  0  0  0  0  0  0
   61.2270   33.5970   48.1870 C   0  0  0  0  0  0  0  0  0  0  0  0
   62.3710   33.8830   49.1160 C   0  0  0  0  0  0  0  0  0  0  0  0
   61.0870   32.3290   47.6140 C   0  0  0  0  0  0  0  0  0  0  0  0
   60.0290   32.0440   46.7220 C   0  0  0  0  0  0  0  0  0  0  0  0
   57.8826   31.7338   52.9411 H   0  0  0  0  0  0  0  0  0  0  0  0
   57.8422   33.4368   52.3712 H   0  0  0  0  0  0  0  0  0  0  0  0
   56.3387   32.4538   52.3712 H   0  0  0  0  0  0  0  0  0  0  0  0
   57.8250   30.8648   50.7883 H   0  0  0  0  0  0  0  0  0  0  0  0
   56.9180   32.2721   50.1311 H   0  0  0  0  0  0  0  0  0  0  0  0
   59.4460   31.9180   49.6440 H   0  0  0  0  0  0  0  0  0  0  0  0
   60.4489   33.7676   51.2649 H   0  0  0  0  0  0  0  0  0  0  0  0
   59.3390   32.8557   52.3802 H   0  0  0  0  0  0  0  0  0  0  0  0
   61.8464   32.0953   52.1537 H   0  0  0  0  0  0  0  0  0  0  0  0
   60.5296   30.8655   52.1656 H   0  0  0  0  0  0  0  0  0  0  0  0
   62.3064   29.5942   49.4926 H   0  0  0  0  0  0  0  0  0  0  0  0
   62.1939   29.6010   51.2897 H   0  0  0  0  0  0  0  0  0  0  0  0
   60.5665   28.0791   49.7939 H   0  0  0  0  0  0  0  0  0  0  0  0
   59.9898   28.9120   51.3053 H   0  0  0  0  0  0  0  0  0  0  0  0
   59.6260   30.7210   49.3080 H   0  0  0  0  0  0  0  0  0  0  0  0
   58.3960   28.1630   48.4621 H   0  0  0  0  0  0  0  0  0  0  0  0
   58.4357   29.7397   47.5987 H   0  0  0  0  0  0  0  0  0  0  0  0
   61.0821   28.4940   48.3077 H   0  0  0  0  0  0  0  0  0  0  0  0
   60.1182   27.7105   46.9990 H   0  0  0  0  0  0  0  0  0  0  0  0
   61.7530   29.7980   46.4550 H   0  0  0  0  0  0  0  0  0  0  0  0
   59.2540   28.3871   45.0560 H   0  0  0  0  0  0  0  0  0  0  0  0
   57.2420   27.8982   43.6801 H   0  0  0  0  0  0  0  0  0  0  0  0
   55.5647   29.6841   43.2427 H   0  0  0  0  0  0  0  0  0  0  0  0
   55.9451   31.9908   44.0808 H   0  0  0  0  0  0  0  0  0  0  0  0
   56.9586   34.5849   45.6337 H   0  0  0  0  0  0  0  0  0  0  0  0
   58.0533   34.5614   44.2097 H   0  0  0  0  0  0  0  0  0  0  0  0
   56.5581   33.5659   44.2097 H   0  0  0  0  0  0  0  0  0  0  0  0
   58.5614   35.1490   46.7254 H   0  0  0  0  0  0  0  0  0  0  0  0
   60.4273   35.6053   48.2947 H   0  0  0  0  0  0  0  0  0  0  0  0
   62.0278   33.7972   50.1576 H   0  0  0  0  0  0  0  0  0  0  0  0
   63.1796   33.1594   48.9356 H   0  0  0  0  0  0  0  0  0  0  0  0
   62.7439   34.9020   48.9356 H   0  0  0  0  0  0  0  0  0  0  0  0
   61.8127   31.5404   47.8619 H   0  0  0  0  0  0  0  0  0  0  0  0
  1  2  1  0
  2  3  1  0
  3  4  1  0
  4  5  1  0
  5  6  1  0
  6  7  1  0
  7  8  1  0
  8  9  1  0
  9 10  1  0
 10 11  1  0
 11 12  1  0
 12 13  1  0
 13 14  2  0
 14 15  1  0
 15 16  2  0
 16 17  1  0
 17 18  2  0
 18 19  1  0
 19 20  2  0
 20 21  1  0
 20 22  1  0
 22 23  2  0
 23 24  1  0
 24 25  2  0
 25 26  1  0
 25 27  1  0
 27 28  2  0
 28 13  1  0
 19 14  1  0
 28 22  1  0
  1 29  1  0
  1 30  1  0
  1 31  1  0
  2 32  1  0
  2 33  1  0
  3 34  1  0
  4 35  1  0
  4 36  1  0
  5 37  1  0
  5 38  1  0
  7 39  1  0
  7 40  1  0
  8 41  1  0
  8 42  1  0
  9 43  1  0
 10 44  1  0
 10 45  1  0
 11 46  1  0
 11 47  1  0
 12 48  1  0
 15 49  1  0
 16 50  1  0
 17 51  1  0
 18 52  1  0
 21 53  1  0
 21 54  1  0
 21 55  1  0
 23 56  1  0
 24 57  1  0
 26 58  1  0
 26 59  1  0
 26 60  1  0
 27 61  1  0
M  CHG  1  20   1
M  END
>  <UniqueID>  (19) 
18

>  <SMILES>  (19) 
CCNCCOCCNCCNc1c2ccccc2[n+](C)c2ccc(C)cc12

>  <Energy>  (19) 
82.8878920198863

>  <Genealogy>  (19) 
CCNCCOCCNCCNc1c2ccccc2[n+](C)c2ccc(C)cc12 (3D coordinates assigned)
CCNCCOCCNCCNc1c2ccccc2[n+](C)c2ccc(C)cc12 (optimized conformer: 82.8878920198863 kcal/mol)

>  <smiles>  (19) 
CCNCCOCCNCCNc1c2ccccc2[n+](C)c2ccc(C)cc12

>  <score_type>  (19) 
oracle

>  <origin>  (19) 
adg

>  <m_score__min__energy>  (19) 
-5.5

>  <m_primary>  (19) 
energy

$$$$
