0:0
     RDKit          3D

 57 59  0  0  0  0  0  0  0  0999 V2000
   61.7680   33.8030   46.4160 C   0  0  0  0  0  0  0  0  0  0  0  0
   63.2790   33.8530   46.6630 C   0  0  0  0  0  0  0  0  0  0  0  0
   63.7660   32.7290   47.5030 N   0  0  2  0  0  0  0  0  0  0  0  0
   62.8350   31.5880   47.4100 C   0  0  0  0  0  0  0  0  0  0  0  0
   64.0700   33.0910   48.9160 C   0  0  0  0  0  0  0  0  0  0  0  0
   62.9380   33.8010   49.6800 C   0  0  0  0  0  0  0  0  0  0  0  0
   61.7530   33.0340   49.6320 O   0  0  0  0  0  0  0  0  0  0  0  0
   60.6160   33.8750   49.5970 C   0  0  0  0  0  0  0  0  0  0  0  0
   59.3400   33.0400   49.7210 C   0  0  0  0  0  0  0  0  0  0  0  0
   59.1700   32.1940   48.5380 N   0  0  0  0  0  0  0  0  0  0  0  0
   58.5410   32.5270   47.3830 C   0  0  0  0  0  0  0  0  0  0  0  0
   58.5420   31.4680   46.5000 C   0  0  0  0  0  0  0  0  0  0  0  0
   59.1470   30.4210   47.1600 C   0  0  0  0  0  0  0  0  0  0  0  0
   59.3730   29.1030   46.7710 C   0  0  0  0  0  0  0  0  0  0  0  0
   60.0120   28.2400   47.6810 C   0  0  0  0  0  0  0  0  0  0  0  0
   60.2440   26.9140   47.2860 O   0  0  0  0  0  0  0  0  0  0  0  0
   59.6990   26.3200   46.1130 C   0  0  0  0  0  0  0  0  0  0  0  0
   60.3990   28.7290   48.9610 C   0  0  0  0  0  0  0  0  0  0  0  0
   60.1490   30.0640   49.3260 C   0  0  0  0  0  0  0  0  0  0  0  0
   59.5200   30.8940   48.3960 C   0  0  0  0  0  0  0  0  0  0  0  0
   57.8650   31.5020   45.1640 C   0  0  0  0  0  0  0  0  0  0  0  0
   57.6320   32.8960   44.7160 N   0  0  0  0  0  0  0  0  0  0  0  0
   58.8440   33.4900   44.1250 C   0  0  0  0  0  0  0  0  0  0  0  0
   57.0560   33.7480   45.7870 C   0  0  0  0  0  0  0  0  0  0  0  0
   57.9670   33.8660   47.0320 C   0  0  0  0  0  0  0  0  0  0  0  0
   61.2392   33.7855   47.3804 H   0  0  0  0  0  0  0  0  0  0  0  0
   61.4602   34.6915   45.8451 H   0  0  0  0  0  0  0  0  0  0  0  0
   61.5196   32.8961   45.8451 H   0  0  0  0  0  0  0  0  0  0  0  0
   63.7946   33.8143   45.6921 H   0  0  0  0  0  0  0  0  0  0  0  0
   63.4938   34.7862   47.2044 H   0  0  0  0  0  0  0  0  0  0  0  0
   64.6680   32.4010   47.0830 H   0  0  0  0  0  0  0  0  0  0  0  0
   62.5623   31.2538   48.4219 H   0  0  0  0  0  0  0  0  0  0  0  0
   61.9284   31.8976   46.8694 H   0  0  0  0  0  0  0  0  0  0  0  0
   63.3202   30.7620   46.8694 H   0  0  0  0  0  0  0  0  0  0  0  0
   64.3145   32.1651   49.4573 H   0  0  0  0  0  0  0  0  0  0  0  0
   64.8995   33.8120   48.8697 H   0  0  0  0  0  0  0  0  0  0  0  0
   63.2391   33.9371   50.7292 H   0  0  0  0  0  0  0  0  0  0  0  0
   62.7493   34.7776   49.2103 H   0  0  0  0  0  0  0  0  0  0  0  0
   60.6660   34.5892   50.4321 H   0  0  0  0  0  0  0  0  0  0  0  0
   60.5993   34.4179   48.6405 H   0  0  0  0  0  0  0  0  0  0  0  0
   59.4082   32.4036   50.6156 H   0  0  0  0  0  0  0  0  0  0  0  0
   58.4764   33.7161   49.8048 H   0  0  0  0  0  0  0  0  0  0  0  0
   59.0604   28.7458   45.7787 H   0  0  0  0  0  0  0  0  0  0  0  0
   58.9808   25.5372   46.3982 H   0  0  0  0  0  0  0  0  0  0  0  0
   59.1857   27.0891   45.5171 H   0  0  0  0  0  0  0  0  0  0  0  0
   60.5093   25.8747   45.5171 H   0  0  0  0  0  0  0  0  0  0  0  0
   60.8990   28.0552   49.6723 H   0  0  0  0  0  0  0  0  0  0  0  0
   60.4408   30.4436   50.3163 H   0  0  0  0  0  0  0  0  0  0  0  0
   58.5005   30.9897   44.4267 H   0  0  0  0  0  0  0  0  0  0  0  0
   56.8915   30.9979   45.2541 H   0  0  0  0  0  0  0  0  0  0  0  0
   59.5191   33.8209   44.9279 H   0  0  0  0  0  0  0  0  0  0  0  0
   59.3541   32.7398   43.5029 H   0  0  0  0  0  0  0  0  0  0  0  0
   58.5636   34.3528   43.5029 H   0  0  0  0  0  0  0  0  0  0  0  0
   56.8895   34.7561   45.3795 H   0  0  0  0  0  0  0  0  0  0  0  0
   56.1191   33.2725   46.1129 H   0  0  0  0  0  0  0  0  0  0  0  0
   58.7866   34.5675   46.8172 H   0  0  0  0  0  0  0  0  0  0  0  0
   57.3700   34.2336   47.8796 H   0  0  0  0  0  0  0  0  0  0  0  0
  1  2  1  0
  2  3  1  0
  3  4  1  0
  3  5  1  0
  5  6  1  0
  6  7  1  0
  7  8  1  0
  8  9  1  0
  9 10  1  0
 10 11  1  0
 11 12  2  0
 12 13  1  0
 13 14  2  0
 14 15  1  0
 15 16  1  0
 16 17  1  0
 15 18  2  0
 18 19  1  0
 19 20  2  0
 12 21  1  0
 21 22  1  0
 22 23  1  0
 22 24  1  0
 24 25  1  0
 20 10  1  0
 25 11  1  0
 20 13  1  0
  1 26  1  0
  1 27  1  0
  1 28  1  0
  2 29  1  0
  2 30  1  0
  3 31  1  6
  4 32  1  0
  4 33  1  0
  4 34  1  0
  5 35  1  0
  5 36  1  0
  6 37  1  0
  6 38  1  0
  8 39  1  0
  8 40  1  0
  9 41  1  0
  9 42  1  0
 14 43  1  0
 17 44  1  0
 17 45  1  0
 17 46  1  0
 18 47  1  0
 19 48  1  0
 21 49  1  0
 21 50  1  0
 23 51  1  0
 23 52  1  0
 23 53  1  0
 24 54  1  0
 24 55  1  0
 25 56  1  0
 25 57  1  0
M  CHG  1   3   1
M  END
>  <UniqueID>  (1) 
1

>  <SMILES>  (1) 
CC[N@H+](C)CCOCCn1c2c(c3cc(OC)ccc31)CN(C)CC2

>  <Energy>  (1) 
97.54765899690058

>  <Genealogy>  (1) 
CC[NH+](C)CCOCCn1c2c(c3cc(OC)ccc31)CN(C)CC2 (protonated)
CC[N@H+](C)CCOCCn1c2c(c3cc(OC)ccc31)CN(C)CC2 (chirality)
CC[N@H+](C)CCOCCn1c2c(c3cc(OC)ccc31)CN(C)CC2 (3D coordinates assigned)
CC[N@H+](C)CCOCCn1c2c(c3cc(OC)ccc31)CN(C)CC2 (nonaromatic ring conformer: 97.54765899690058 kcal/mol)

>  <smiles>  (1) 
CCN(C)CCOCCn1c2c(c3cc(OC)ccc31)CN(C)CC2

>  <score_type>  (1) 
oracle

>  <origin>  (1) 
adg

>  <m_score__min__energy>  (1) 
-4.8399999999999999

>  <m_primary>  (1) 
energy

$$$$
1:0
     RDKit          3D

 62 64  0  0  0  0  0  0  0  0999 V2000
   63.3310   32.1710   47.7110 C   0  0  0  0  0  0  0  0  0  0  0  0
   63.4880   33.6420   48.0590 C   0  0  0  0  0  0  0  0  0  0  0  0
   62.2290   34.1710   48.4670 O   0  0  0  0  0  0  0  0  0  0  0  0
   61.0240   33.9740   47.7760 C   0  0  0  0  0  0  0  0  0  0  0  0
   61.0340   34.0780   46.3800 C   0  0  0  0  0  0  0  0  0  0  0  0
   59.8600   33.8940   45.6450 C   0  0  0  0  0  0  0  0  0  0  0  0
   58.6510   33.6090   46.3000 C   0  0  0  0  0  0  0  0  0  0  0  0
   57.3910   33.3840   45.5050 C   0  0  0  0  0  0  0  0  0  0  0  0
   57.4880   32.1160   44.6490 C   0  0  0  0  0  0  0  0  0  0  0  0
   56.2400   31.3580   44.6890 N   0  0  0  0  0  0  0  0  0  0  0  0
   56.0930   29.9720   44.3580 C   0  0  0  0  0  0  0  0  0  0  0  0
   55.1450   29.3240   44.8770 O   0  0  0  0  0  0  0  0  0  0  0  0
   57.0900   29.2480   43.4920 C   0  0  0  0  0  0  0  0  0  0  0  0
   57.9520   28.4300   44.2800 O   0  0  0  0  0  0  0  0  0  0  0  0
   59.1340   28.8910   44.8690 C   0  0  0  0  0  0  0  0  0  0  0  0
   60.0730   29.3050   44.1320 O   0  0  0  0  0  0  0  0  0  0  0  0
   59.2930   28.9220   46.3500 C   0  0  0  0  0  0  0  0  0  0  0  0
   59.4520   30.1740   46.9810 C   0  0  0  0  0  0  0  0  0  0  0  0
   59.6050   30.2670   48.3670 C   0  0  0  0  0  0  0  0  0  0  0  0
   59.6070   29.1140   49.1470 C   0  0  0  0  0  0  0  0  0  0  0  0
   59.4570   27.8650   48.5480 C   0  0  0  0  0  0  0  0  0  0  0  0
   59.2910   27.7530   47.1590 C   0  0  0  0  0  0  0  0  0  0  0  0
   59.1520   26.0840   46.4880 S   0  0  0  0  0  0  0  0  0  0  0  0
   57.4900   25.7660   47.1790 C   0  0  0  0  0  0  0  0  0  0  0  0
   56.5000   25.4850   46.0860 C   0  0  0  0  0  0  0  0  0  0  0  0
   55.4710   26.2080   45.9970 O   0  0  0  0  0  0  0  0  0  0  0  0
   56.6910   24.4030   45.1560 N   0  0  0  0  0  0  0  0  0  0  0  0
   55.7310   24.0800   44.1170 C   0  0  0  0  0  0  0  0  0  0  0  0
   56.4050   23.0290   43.2450 C   0  0  0  0  0  0  0  0  0  0  0  0
   57.5640   22.4800   44.0760 C   0  0  0  0  0  0  0  0  0  0  0  0
   57.8600   23.5380   45.1310 C   0  0  0  0  0  0  0  0  0  0  0  0
   58.6400   33.4900   47.6980 C   0  0  0  0  0  0  0  0  0  0  0  0
   59.8150   33.6750   48.4340 C   0  0  0  0  0  0  0  0  0  0  0  0
   63.2679   31.5800   48.6366 H   0  0  0  0  0  0  0  0  0  0  0  0
   62.4127   32.0295   47.1223 H   0  0  0  0  0  0  0  0  0  0  0  0
   64.1988   31.8388   47.1223 H   0  0  0  0  0  0  0  0  0  0  0  0
   64.2138   33.7494   48.8786 H   0  0  0  0  0  0  0  0  0  0  0  0
   63.8476   34.1911   47.1763 H   0  0  0  0  0  0  0  0  0  0  0  0
   61.9744   34.3066   45.8571 H   0  0  0  0  0  0  0  0  0  0  0  0
   59.8829   33.9728   44.5481 H   0  0  0  0  0  0  0  0  0  0  0  0
   56.5434   33.2833   46.1988 H   0  0  0  0  0  0  0  0  0  0  0  0
   57.2469   34.2439   44.8344 H   0  0  0  0  0  0  0  0  0  0  0  0
   57.7023   32.4006   43.6083 H   0  0  0  0  0  0  0  0  0  0  0  0
   58.2938   31.4840   45.0507 H   0  0  0  0  0  0  0  0  0  0  0  0
   56.5493   28.6138   42.7741 H   0  0  0  0  0  0  0  0  0  0  0  0
   57.7015   29.9937   42.9629 H   0  0  0  0  0  0  0  0  0  0  0  0
   59.4556   31.0906   46.3729 H   0  0  0  0  0  0  0  0  0  0  0  0
   59.7239   31.2520   48.8419 H   0  0  0  0  0  0  0  0  0  0  0  0
   59.7272   29.1891   50.2378 H   0  0  0  0  0  0  0  0  0  0  0  0
   59.4688   26.9578   49.1700 H   0  0  0  0  0  0  0  0  0  0  0  0
   57.5399   24.8972   47.8518 H   0  0  0  0  0  0  0  0  0  0  0  0
   57.1614   26.6599   47.7294 H   0  0  0  0  0  0  0  0  0  0  0  0
   54.8082   23.6767   44.5595 H   0  0  0  0  0  0  0  0  0  0  0  0
   55.4481   24.9695   43.5350 H   0  0  0  0  0  0  0  0  0  0  0  0
   55.6964   22.2248   42.9975 H   0  0  0  0  0  0  0  0  0  0  0  0
   56.7553   23.4561   42.2938 H   0  0  0  0  0  0  0  0  0  0  0  0
   57.2762   21.5324   44.5548 H   0  0  0  0  0  0  0  0  0  0  0  0
   58.4462   22.2744   43.4519 H   0  0  0  0  0  0  0  0  0  0  0  0
   58.0112   23.0682   46.1141 H   0  0  0  0  0  0  0  0  0  0  0  0
   58.7769   24.0994   44.8985 H   0  0  0  0  0  0  0  0  0  0  0  0
   57.7013   33.2497   48.2186 H   0  0  0  0  0  0  0  0  0  0  0  0
   59.7948   33.5867   49.5303 H   0  0  0  0  0  0  0  0  0  0  0  0
  1  2  1  0
  2  3  1  0
  3  4  1  0
  4  5  2  0
  5  6  1  0
  6  7  2  0
  7  8  1  0
  8  9  1  0
  9 10  1  0
 10 11  1  0
 11 12  2  0
 11 13  1  0
 13 14  1  0
 14 15  1  0
 15 16  2  0
 15 17  1  0
 17 18  2  0
 18 19  1  0
 19 20  2  0
 20 21  1  0
 21 22  2  0
 22 23  1  0
 23 24  1  0
 24 25  1  0
 25 26  2  0
 25 27  1  0
 27 28  1  0
 28 29  1  0
 29 30  1  0
 30 31  1  0
  7 32  1  0
 32 33  2  0
 33  4  1  0
 22 17  1  0
 31 27  1  0
  1 34  1  0
  1 35  1  0
  1 36  1  0
  2 37  1  0
  2 38  1  0
  5 39  1  0
  6 40  1  0
  8 41  1  0
  8 42  1  0
  9 43  1  0
  9 44  1  0
 13 45  1  0
 13 46  1  0
 18 47  1  0
 19 48  1  0
 20 49  1  0
 21 50  1  0
 24 51  1  0
 24 52  1  0
 28 53  1  0
 28 54  1  0
 29 55  1  0
 29 56  1  0
 30 57  1  0
 30 58  1  0
 31 59  1  0
 31 60  1  0
 32 61  1  0
 33 62  1  0
M  CHG  1  10  -1
M  END
>  <UniqueID>  (2) 
2

>  <SMILES>  (2) 
CCOc1ccc(CC[N-]C(=O)COC(=O)c2ccccc2SCC(=O)N2CCCC2)cc1

>  <Energy>  (2) 
51.418361204202604

>  <Genealogy>  (2) 
CCOc1ccc(CC[N-]C(=O)COC(=O)c2ccccc2SCC(=O)N2CCCC2)cc1 (protonated)
CCOc1ccc(CC[N-]C(=O)COC(=O)c2ccccc2SCC(=O)N2CCCC2)cc1 (3D coordinates assigned)
CCOc1ccc(CC[N-]C(=O)COC(=O)c2ccccc2SCC(=O)N2CCCC2)cc1 (nonaromatic ring conformer: 51.418361204202604 kcal/mol)

>  <smiles>  (2) 
CCOc1ccc(CCNC(=O)COC(=O)c2ccccc2SCC(=O)N2CCCC2)cc1

>  <score_type>  (2) 
oracle

>  <origin>  (2) 
adg

>  <m_score__min__energy>  (2) 
-10.98

>  <m_primary>  (2) 
energy

$$$$
2:0
     RDKit          3D

 51 54  0  0  0  0  0  0  0  0999 V2000
   58.1870   21.7450   44.5720 C   0  0  0  0  0  0  0  0  0  0  0  0
   58.2250   23.2300   44.7110 C   0  0  0  0  0  0  0  0  0  0  0  0
   58.9950   23.9310   45.6380 C   0  0  0  0  0  0  0  0  0  0  0  0
   58.7440   25.3080   45.5980 C   0  0  0  0  0  0  0  0  0  0  0  0
   59.3220   26.3050   46.3780 C   0  0  0  0  0  0  0  0  0  0  0  0
   60.2040   26.0020   47.2310 O   0  0  0  0  0  0  0  0  0  0  0  0
   58.9280   27.6130   46.2030 N   0  0  0  0  0  0  0  0  0  0  0  0
   59.5680   28.6350   46.9920 C   0  0  0  0  0  0  0  0  0  0  0  0
   59.3790   28.6790   48.3820 C   0  0  0  0  0  0  0  0  0  0  0  0
   60.0140   29.6620   49.1470 C   0  0  0  0  0  0  0  0  0  0  0  0
   60.8530   30.5950   48.5300 C   0  0  0  0  0  0  0  0  0  0  0  0
   61.0600   30.5450   47.1490 C   0  0  0  0  0  0  0  0  0  0  0  0
   60.4250   29.5640   46.3800 C   0  0  0  0  0  0  0  0  0  0  0  0
   57.9510   27.9280   45.2690 C   0  0  0  0  0  0  0  0  0  0  0  0
   57.4070   29.3340   45.1010 C   0  0  0  0  0  0  0  0  0  0  0  0
   56.2290   29.3080   44.2250 N   0  0  0  0  0  0  0  0  0  0  0  0
   56.5720   29.7070   42.8510 C   0  0  0  0  0  0  0  0  0  0  0  0
   56.8290   31.2150   42.7930 C   0  0  0  0  0  0  0  0  0  0  0  0
   58.1230   31.5540   43.3900 N   0  0  0  0  0  0  0  0  0  0  0  0
   58.3220   32.5480   44.4140 C   0  0  0  0  0  0  0  0  0  0  0  0
   58.8960   33.8060   44.1350 C   0  0  0  0  0  0  0  0  0  0  0  0
   59.0960   34.7340   45.1620 C   0  0  0  0  0  0  0  0  0  0  0  0
   58.7070   34.4310   46.4680 C   0  0  0  0  0  0  0  0  0  0  0  0
   58.9060   35.3310   47.4630 F   0  0  0  0  0  0  0  0  0  0  0  0
   58.1120   33.2000   46.7510 C   0  0  0  0  0  0  0  0  0  0  0  0
   57.9230   32.2630   45.7310 C   0  0  0  0  0  0  0  0  0  0  0  0
   57.3930   26.9400   44.5050 N   0  0  0  0  0  0  0  0  0  0  0  0
   57.7950   25.6610   44.6710 C   0  0  0  0  0  0  0  0  0  0  0  0
   57.2200   24.3040   43.8690 S   0  0  0  0  0  0  0  0  0  0  0  0
   58.1752   21.2835   45.5704 H   0  0  0  0  0  0  0  0  0  0  0  0
   57.2810   21.4513   44.0215 H   0  0  0  0  0  0  0  0  0  0  0  0
   59.0767   21.4054   44.0215 H   0  0  0  0  0  0  0  0  0  0  0  0
   59.7156   23.4576   46.3211 H   0  0  0  0  0  0  0  0  0  0  0  0
   58.7295   27.9380   48.8709 H   0  0  0  0  0  0  0  0  0  0  0  0
   59.8535   29.7014   50.2345 H   0  0  0  0  0  0  0  0  0  0  0  0
   61.3506   31.3692   49.1324 H   0  0  0  0  0  0  0  0  0  0  0  0
   61.7230   31.2779   46.6660 H   0  0  0  0  0  0  0  0  0  0  0  0
   60.5972   29.5203   45.2944 H   0  0  0  0  0  0  0  0  0  0  0  0
   57.1223   29.7358   46.0846 H   0  0  0  0  0  0  0  0  0  0  0  0
   58.1814   29.9726   44.6509 H   0  0  0  0  0  0  0  0  0  0  0  0
   55.8650   28.3260   44.1940 H   0  0  0  0  0  0  0  0  0  0  0  0
   57.4774   29.1705   42.5311 H   0  0  0  0  0  0  0  0  0  0  0  0
   55.7349   29.4572   42.1826 H   0  0  0  0  0  0  0  0  0  0  0  0
   56.8222   31.5402   41.7422 H   0  0  0  0  0  0  0  0  0  0  0  0
   56.0379   31.7258   43.3616 H   0  0  0  0  0  0  0  0  0  0  0  0
   58.9600   31.0510   43.0190 H   0  0  0  0  0  0  0  0  0  0  0  0
   59.1877   34.0583   43.1048 H   0  0  0  0  0  0  0  0  0  0  0  0
   59.5613   35.7057   44.9400 H   0  0  0  0  0  0  0  0  0  0  0  0
   57.7917   32.9673   47.7773 H   0  0  0  0  0  0  0  0  0  0  0  0
   57.4575   31.2933   45.9614 H   0  0  0  0  0  0  0  0  0  0  0  0
   56.6480   27.1600   43.8070 H   0  0  0  0  0  0  0  0  0  0  0  0
  1  2  1  0
  2  3  2  0
  3  4  1  0
  4  5  1  0
  5  6  2  0
  5  7  1  0
  7  8  1  0
  8  9  2  0
  9 10  1  0
 10 11  2  0
 11 12  1  0
 12 13  2  0
  7 14  1  0
 14 15  1  0
 15 16  1  0
 16 17  1  0
 17 18  1  0
 18 19  1  0
 19 20  1  0
 20 21  2  0
 21 22  1  0
 22 23  2  0
 23 24  1  0
 23 25  1  0
 25 26  2  0
 14 27  2  0
 27 28  1  0
 28 29  1  0
 29  2  1  0
 28  4  2  0
 13  8  1  0
 26 20  1  0
  1 30  1  0
  1 31  1  0
  1 32  1  0
  3 33  1  0
  9 34  1  0
 10 35  1  0
 11 36  1  0
 12 37  1  0
 13 38  1  0
 15 39  1  0
 15 40  1  0
 16 41  1  0
 17 42  1  0
 17 43  1  0
 18 44  1  0
 18 45  1  0
 19 46  1  0
 21 47  1  0
 22 48  1  0
 25 49  1  0
 26 50  1  0
 27 51  1  0
M  CHG  1  27   1
M  END
>  <UniqueID>  (3) 
3

>  <SMILES>  (3) 
Cc1cc2c(=O)n(-c3ccccc3)c(CNCCNc3ccc(F)cc3)[nH+]c2s1

>  <Energy>  (3) 
87.17433709977115

>  <Genealogy>  (3) 
Cc1cc2c(=O)n(-c3ccccc3)c(CNCCNc3ccc(F)cc3)[nH+]c2s1 (protonated)
Cc1cc2c(=O)n(-c3ccccc3)c(CNCCNc3ccc(F)cc3)[nH+]c2s1 (3D coordinates assigned)
Cc1cc2c(=O)n(-c3ccccc3)c(CNCCNc3ccc(F)cc3)[nH+]c2s1 (optimized conformer: 87.17433709977115 kcal/mol)

>  <smiles>  (3) 
Cc1cc2c(=O)n(-c3ccccc3)c(CNCCNc3ccc(F)cc3)nc2s1

>  <score_type>  (3) 
oracle

>  <origin>  (3) 
adg

>  <m_score__min__energy>  (3) 
-7.1799999999999997

>  <m_primary>  (3) 
energy

$$$$
3:0
     RDKit          3D

 51 54  0  0  0  0  0  0  0  0999 V2000
   53.4070   30.8540   51.2660 C   0  0  0  0  0  0  0  0  0  0  0  0
   54.5090   30.8120   52.3350 C   0  0  0  0  0  0  0  0  0  0  0  0
   55.7280   31.5350   51.9180 N   0  0  0  0  0  0  0  0  0  0  0  0
   56.9360   30.6970   52.0140 C   0  0  0  0  0  0  0  0  0  0  0  0
   58.1910   31.5700   52.2030 C   0  0  0  0  0  0  0  0  0  0  0  0
   59.0960   31.5570   50.9620 C   0  0  0  0  0  0  0  0  0  0  0  0
   60.2120   32.5010   51.0950 N   0  0  0  0  0  0  0  0  0  0  0  0
   60.9590   32.9680   49.9570 C   0  0  0  0  0  0  0  0  0  0  0  0
   62.3740   32.9450   49.9130 C   0  0  0  0  0  0  0  0  0  0  0  0
   63.1310   32.6710   51.0710 C   0  0  0  0  0  0  0  0  0  0  0  0
   64.5200   32.5690   51.0070 C   0  0  0  0  0  0  0  0  0  0  0  0
   65.1800   32.7480   49.7940 C   0  0  0  0  0  0  0  0  0  0  0  0
   64.4630   33.0780   48.6440 C   0  0  0  0  0  0  0  0  0  0  0  0
   63.0550   33.2370   48.6810 C   0  0  0  0  0  0  0  0  0  0  0  0
   62.3380   33.6500   47.5650 N   0  0  0  0  0  0  0  0  0  0  0  0
   63.0080   34.2150   46.3810 C   0  0  0  0  0  0  0  0  0  0  0  0
   60.9680   33.6100   47.6270 C   0  0  0  0  0  0  0  0  0  0  0  0
   60.2880   33.3380   48.7950 C   0  0  0  0  0  0  0  0  0  0  0  0
   58.9500   33.4190   48.6240 N   0  0  0  0  0  0  0  0  0  0  0  0
   58.7770   33.7050   47.3190 C   0  0  0  0  0  0  0  0  0  0  0  0
   57.5570   33.8370   46.6570 C   0  0  0  0  0  0  0  0  0  0  0  0
   57.5770   34.0740   45.2730 C   0  0  0  0  0  0  0  0  0  0  0  0
   58.8040   34.1430   44.5800 C   0  0  0  0  0  0  0  0  0  0  0  0
   60.0250   33.9970   45.2640 C   0  0  0  0  0  0  0  0  0  0  0  0
   59.9870   33.8160   46.6550 C   0  0  0  0  0  0  0  0  0  0  0  0
   52.4226   30.8915   51.7555 H   0  0  0  0  0  0  0  0  0  0  0  0
   53.5388   31.7478   50.6385 H   0  0  0  0  0  0  0  0  0  0  0  0
   53.4704   29.9528   50.6385 H   0  0  0  0  0  0  0  0  0  0  0  0
   54.1240   31.2718   53.2571 H   0  0  0  0  0  0  0  0  0  0  0  0
   54.7823   29.7582   52.4928 H   0  0  0  0  0  0  0  0  0  0  0  0
   55.8380   32.3610   52.5550 H   0  0  0  0  0  0  0  0  0  0  0  0
   55.6170   31.8920   50.9400 H   0  0  0  0  0  0  0  0  0  0  0  0
   56.8364   30.0171   52.8730 H   0  0  0  0  0  0  0  0  0  0  0  0
   57.0424   30.1220   51.0823 H   0  0  0  0  0  0  0  0  0  0  0  0
   57.8764   32.6051   52.4018 H   0  0  0  0  0  0  0  0  0  0  0  0
   58.7659   31.1588   53.0459 H   0  0  0  0  0  0  0  0  0  0  0  0
   59.5007   30.5432   50.8263 H   0  0  0  0  0  0  0  0  0  0  0  0
   58.4922   31.8594   50.0937 H   0  0  0  0  0  0  0  0  0  0  0  0
   60.3150   33.0140   52.0000 H   0  0  0  0  0  0  0  0  0  0  0  0
   62.6197   32.5362   52.0356 H   0  0  0  0  0  0  0  0  0  0  0  0
   65.0961   32.3465   51.9173 H   0  0  0  0  0  0  0  0  0  0  0  0
   66.2723   32.6286   49.7425 H   0  0  0  0  0  0  0  0  0  0  0  0
   64.9987   33.2170   47.6934 H   0  0  0  0  0  0  0  0  0  0  0  0
   63.8120   34.8930   46.7033 H   0  0  0  0  0  0  0  0  0  0  0  0
   63.4352   33.4003   45.7778 H   0  0  0  0  0  0  0  0  0  0  0  0
   62.2772   34.7736   45.7778 H   0  0  0  0  0  0  0  0  0  0  0  0
   58.2020   33.2880   49.3380 H   0  0  0  0  0  0  0  0  0  0  0  0
   56.6056   33.7577   47.2035 H   0  0  0  0  0  0  0  0  0  0  0  0
   56.6315   34.2065   44.7266 H   0  0  0  0  0  0  0  0  0  0  0  0
   58.8062   34.3128   43.4932 H   0  0  0  0  0  0  0  0  0  0  0  0
   60.9826   34.0240   44.7234 H   0  0  0  0  0  0  0  0  0  0  0  0
  1  2  1  0
  2  3  1  0
  3  4  1  0
  4  5  1  0
  5  6  1  0
  6  7  1  0
  7  8  1  0
  8  9  2  0
  9 10  1  0
 10 11  2  0
 11 12  1  0
 12 13  2  0
 13 14  1  0
 14 15  2  0
 15 16  1  0
 15 17  1  0
 17 18  2  0
 18 19  1  0
 19 20  1  0
 20 21  2  0
 21 22  1  0
 22 23  2  0
 23 24  1  0
 24 25  2  0
 18  8  1  0
 25 20  1  0
 14  9  1  0
 25 17  1  0
  1 26  1  0
  1 27  1  0
  1 28  1  0
  2 29  1  0
  2 30  1  0
  3 31  1  0
  3 32  1  0
  4 33  1  0
  4 34  1  0
  5 35  1  0
  5 36  1  0
  6 37  1  0
  6 38  1  0
  7 39  1  0
 10 40  1  0
 11 41  1  0
 12 42  1  0
 13 43  1  0
 16 44  1  0
 16 45  1  0
 16 46  1  0
 19 47  1  0
 21 48  1  0
 22 49  1  0
 23 50  1  0
 24 51  1  0
M  CHG  2   3   1  15   1
M  END
>  <UniqueID>  (4) 
4

>  <SMILES>  (4) 
CC[NH2+]CCCNc1c2ccccc2[n+](C)c2c1[nH]c1ccccc12

>  <Energy>  (4) 
110.31344379181644

>  <Genealogy>  (4) 
CC[NH2+]CCCNc1c2ccccc2[n+](C)c2c1[nH]c1ccccc12 (protonated)
CC[NH2+]CCCNc1c2ccccc2[n+](C)c2c1[nH]c1ccccc12 (3D coordinates assigned)
CC[NH2+]CCCNc1c2ccccc2[n+](C)c2c1[nH]c1ccccc12 (optimized conformer: 110.31344379181644 kcal/mol)

>  <smiles>  (4) 
CCNCCCNc1c2ccccc2[n+](C)c2c1[nH]c1ccccc12

>  <score_type>  (4) 
oracle

>  <origin>  (4) 
adg

>  <m_score__min__energy>  (4) 
-4.8799999999999999

>  <m_primary>  (4) 
energy

$$$$
4:0
     RDKit          3D

 60 63  0  0  0  0  0  0  0  0999 V2000
   62.8660   34.7540   49.7470 C   0  0  0  0  0  0  0  0  0  0  0  0
   62.0700   33.5000   49.5320 C   0  0  0  0  0  0  0  0  0  0  0  0
   62.6610   32.3820   48.9240 C   0  0  0  0  0  0  0  0  0  0  0  0
   61.9100   31.2280   48.6890 C   0  0  0  0  0  0  0  0  0  0  0  0
   60.5530   31.1800   49.0430 C   0  0  0  0  0  0  0  0  0  0  0  0
   59.7420   29.9290   48.7820 C   0  0  0  0  0  0  0  0  0  0  0  0
   60.4190   29.0070   47.8320 N   0  0  2  0  0  0  0  0  0  0  0  0
   60.4650   29.5400   46.4360 C   0  0  0  0  0  0  0  0  0  0  0  0
   59.5050   28.8390   45.4520 C   0  0  0  0  0  0  0  0  0  0  0  0
   58.1730   28.5120   46.1360 C   0  0  1  0  0  0  0  0  0  0  0  0
   57.1700   27.9140   45.1320 C   0  0  0  0  0  0  0  0  0  0  0  0
   55.9790   28.7770   45.0260 N   0  0  0  0  0  0  0  0  0  0  0  0
   56.0400   29.7240   43.8970 C   0  0  0  0  0  0  0  0  0  0  0  0
   57.2280   30.6990   44.0350 C   0  0  1  0  0  0  0  0  0  0  0  0
   57.2600   31.7470   42.9040 C   0  0  0  0  0  0  0  0  0  0  0  0
   58.4550   32.6900   43.1000 C   0  0  0  0  0  0  0  0  0  0  0  0
   58.5020   33.2400   44.5040 C   0  0  0  0  0  0  0  0  0  0  0  0
   59.2250   34.4090   44.7840 C   0  0  0  0  0  0  0  0  0  0  0  0
   59.2830   34.9030   46.0900 C   0  0  0  0  0  0  0  0  0  0  0  0
   58.6270   34.2290   47.1250 C   0  0  0  0  0  0  0  0  0  0  0  0
   57.9170   33.0550   46.8580 C   0  0  0  0  0  0  0  0  0  0  0  0
   57.8610   32.5510   45.5540 C   0  0  0  0  0  0  0  0  0  0  0  0
   57.1490   31.3740   45.2940 O   0  0  0  0  0  0  0  0  0  0  0  0
   58.3960   27.5810   47.3520 C   0  0  0  0  0  0  0  0  0  0  0  0
   59.8360   27.6470   47.9030 C   0  0  0  0  0  0  0  0  0  0  0  0
   59.9590   32.3040   49.6400 C   0  0  0  0  0  0  0  0  0  0  0  0
   60.7110   33.4590   49.8740 C   0  0  0  0  0  0  0  0  0  0  0  0
   62.9809   34.9349   50.8259 H   0  0  0  0  0  0  0  0  0  0  0  0
   63.8586   34.6418   49.2863 H   0  0  0  0  0  0  0  0  0  0  0  0
   62.3420   35.6044   49.2863 H   0  0  0  0  0  0  0  0  0  0  0  0
   63.7208   32.4145   48.6310 H   0  0  0  0  0  0  0  0  0  0  0  0
   62.3851   30.3517   48.2237 H   0  0  0  0  0  0  0  0  0  0  0  0
   59.5860   29.4030   49.7354 H   0  0  0  0  0  0  0  0  0  0  0  0
   58.7862   30.2348   48.3316 H   0  0  0  0  0  0  0  0  0  0  0  0
   61.4100   28.9030   48.1580 H   0  0  0  0  0  0  0  0  0  0  0  0
   60.2052   30.6084   46.4673 H   0  0  0  0  0  0  0  0  0  0  0  0
   61.4838   29.3561   46.0641 H   0  0  0  0  0  0  0  0  0  0  0  0
   59.3177   29.5030   44.5953 H   0  0  0  0  0  0  0  0  0  0  0  0
   59.9686   27.9008   45.1131 H   0  0  0  0  0  0  0  0  0  0  0  0
   57.7365   29.4487   46.5130 H   0  0  0  0  0  0  0  0  0  0  0  0
   57.6487   27.8327   44.1450 H   0  0  0  0  0  0  0  0  0  0  0  0
   56.8614   26.9183   45.4831 H   0  0  0  0  0  0  0  0  0  0  0  0
   55.1470   28.1590   44.8720 H   0  0  0  0  0  0  0  0  0  0  0  0
   56.1510   29.1567   42.9612 H   0  0  0  0  0  0  0  0  0  0  0  0
   55.1110   30.3131   43.8923 H   0  0  0  0  0  0  0  0  0  0  0  0
   58.1504   30.1033   43.9694 H   0  0  0  0  0  0  0  0  0  0  0  0
   57.3543   31.2352   41.9349 H   0  0  0  0  0  0  0  0  0  0  0  0
   56.3290   32.3324   42.9260 H   0  0  0  0  0  0  0  0  0  0  0  0
   59.3841   32.1352   42.9023 H   0  0  0  0  0  0  0  0  0  0  0  0
   58.3463   33.5338   42.4027 H   0  0  0  0  0  0  0  0  0  0  0  0
   59.7476   34.9382   43.9736 H   0  0  0  0  0  0  0  0  0  0  0  0
   59.8456   35.8236   46.3043 H   0  0  0  0  0  0  0  0  0  0  0  0
   58.6699   34.6235   48.1509 H   0  0  0  0  0  0  0  0  0  0  0  0
   57.4018   32.5268   47.6738 H   0  0  0  0  0  0  0  0  0  0  0  0
   57.7004   27.8754   48.1517 H   0  0  0  0  0  0  0  0  0  0  0  0
   58.2188   26.5492   47.0145 H   0  0  0  0  0  0  0  0  0  0  0  0
   59.8245   27.3246   48.9546 H   0  0  0  0  0  0  0  0  0  0  0  0
   60.4584   26.9883   47.2795 H   0  0  0  0  0  0  0  0  0  0  0  0
   58.8969   32.2753   49.9248 H   0  0  0  0  0  0  0  0  0  0  0  0
   60.2342   34.3399   50.3286 H   0  0  0  0  0  0  0  0  0  0  0  0
  1  2  1  0
  2  3  2  0
  3  4  1  0
  4  5  2  0
  5  6  1  0
  6  7  1  0
  7  8  1  0
  8  9  1  0
  9 10  1  0
 10 11  1  0
 11 12  1  0
 12 13  1  0
 13 14  1  0
 14 15  1  0
 15 16  1  0
 16 17  1  0
 17 18  2  0
 18 19  1  0
 19 20  2  0
 20 21  1  0
 21 22  2  0
 22 23  1  0
 10 24  1  0
 24 25  1  0
  5 26  1  0
 26 27  2  0
 27  2  1  0
 25  7  1  0
 23 14  1  0
 22 17  1  0
  1 28  1  0
  1 29  1  0
  1 30  1  0
  3 31  1  0
  4 32  1  0
  6 33  1  0
  6 34  1  0
  7 35  1  1
  8 36  1  0
  8 37  1  0
  9 38  1  0
  9 39  1  0
 10 40  1  1
 11 41  1  0
 11 42  1  0
 12 43  1  0
 13 44  1  0
 13 45  1  0
 14 46  1  1
 15 47  1  0
 15 48  1  0
 16 49  1  0
 16 50  1  0
 18 51  1  0
 19 52  1  0
 20 53  1  0
 21 54  1  0
 24 55  1  0
 24 56  1  0
 25 57  1  0
 25 58  1  0
 26 59  1  0
 27 60  1  0
M  CHG  1   7   1
M  END
>  <UniqueID>  (5) 
5

>  <SMILES>  (5) 
Cc1ccc(C[NH+]2CCC(CNC[C@H]3CCc4ccccc4O3)CC2)cc1

>  <Energy>  (5) 
71.1398886409986

>  <Genealogy>  (5) 
Cc1ccc(C[NH+]2CCC(CNCC3CCc4ccccc4O3)CC2)cc1 (protonated)
Cc1ccc(C[NH+]2CCC(CNC[C@H]3CCc4ccccc4O3)CC2)cc1 (chirality)
Cc1ccc(C[NH+]2CCC(CNC[C@H]3CCc4ccccc4O3)CC2)cc1 (3D coordinates assigned)
Cc1ccc(C[NH+]2CCC(CNC[C@H]3CCc4ccccc4O3)CC2)cc1 (nonaromatic ring conformer: 71.1398886409986 kcal/mol)

>  <smiles>  (5) 
Cc1ccc(CN2CCC(CNCC3CCc4ccccc4O3)CC2)cc1

>  <score_type>  (5) 
oracle

>  <origin>  (5) 
adg

>  <m_score__min__energy>  (5) 
-8.6699999999999999

>  <m_primary>  (5) 
energy

$$$$
5:0
     RDKit          3D

 62 65  0  0  0  0  0  0  0  0999 V2000
   63.4340   33.3560   47.1420 C   0  0  0  0  0  0  0  0  0  0  0  0
   62.5360   33.7930   48.3130 C   0  0  0  0  0  0  0  0  0  0  0  0
   62.4140   32.8060   49.4250 N   0  0  0  0  0  0  0  0  0  0  0  0
   63.3820   31.6820   49.3280 C   0  0  0  0  0  0  0  0  0  0  0  0
   64.7330   32.0020   49.9800 C   0  0  0  0  0  0  0  0  0  0  0  0
   61.0260   32.2790   49.5670 C   0  0  0  0  0  0  0  0  0  0  0  0
   60.7970   30.9450   48.8280 C   0  0  0  0  0  0  0  0  0  0  0  0
   61.0700   31.0700   47.3940 N   0  0  0  0  0  0  0  0  0  0  0  0
   60.0120   31.0200   46.4180 C   0  0  0  0  0  0  0  0  0  0  0  0
   59.3960   32.2070   45.9840 C   0  0  0  0  0  0  0  0  0  0  0  0
   59.8300   33.4640   46.4570 C   0  0  0  0  0  0  0  0  0  0  0  0
   59.1640   34.6320   46.0940 C   0  0  0  0  0  0  0  0  0  0  0  0
   58.0540   34.5700   45.2630 C   0  0  0  0  0  0  0  0  0  0  0  0
   57.6220   33.3420   44.7620 C   0  0  0  0  0  0  0  0  0  0  0  0
   58.3040   32.1400   45.0770 C   0  0  0  0  0  0  0  0  0  0  0  0
   57.9210   30.9230   44.5400 N   0  0  0  0  0  0  0  0  0  0  0  0
   56.9860   30.8850   43.3920 C   0  0  0  0  0  0  0  0  0  0  0  0
   58.4460   29.7470   45.0420 C   0  0  0  0  0  0  0  0  0  0  0  0
   57.9100   28.4820   44.6900 C   0  0  0  0  0  0  0  0  0  0  0  0
   58.5040   27.2860   45.1230 C   0  0  0  0  0  0  0  0  0  0  0  0
   57.9330   25.9720   44.7290 C   0  0  0  0  0  0  0  0  0  0  0  0
   57.6660   24.9880   45.6970 C   0  0  0  0  0  0  0  0  0  0  0  0
   57.1290   23.7530   45.3270 C   0  0  0  0  0  0  0  0  0  0  0  0
   56.8460   23.4720   43.9790 C   0  0  0  0  0  0  0  0  0  0  0  0
   56.2930   22.1980   43.6020 N   0  0  0  0  0  0  0  0  0  0  0  0
   55.8960   21.3930   44.4710 O   0  0  0  0  0  0  0  0  0  0  0  0
   56.1920   21.8440   42.2760 O   0  0  0  0  0  0  0  0  0  0  0  0
   57.1120   24.4550   43.0100 C   0  0  0  0  0  0  0  0  0  0  0  0
   57.6480   25.6920   43.3810 C   0  0  0  0  0  0  0  0  0  0  0  0
   59.6450   27.3480   45.9290 C   0  0  0  0  0  0  0  0  0  0  0  0
   60.1560   28.5760   46.3350 C   0  0  0  0  0  0  0  0  0  0  0  0
   59.5420   29.7820   45.9430 C   0  0  0  0  0  0  0  0  0  0  0  0
   64.3575   32.9066   47.5360 H   0  0  0  0  0  0  0  0  0  0  0  0
   62.9002   32.6169   46.5265 H   0  0  0  0  0  0  0  0  0  0  0  0
   63.6862   34.2321   46.5265 H   0  0  0  0  0  0  0  0  0  0  0  0
   62.9486   34.7241   48.7287 H   0  0  0  0  0  0  0  0  0  0  0  0
   61.5249   33.9072   47.8951 H   0  0  0  0  0  0  0  0  0  0  0  0
   62.6480   33.3210   50.3050 H   0  0  0  0  0  0  0  0  0  0  0  0
   62.9502   30.8024   49.8279 H   0  0  0  0  0  0  0  0  0  0  0  0
   63.5662   31.4953   48.2597 H   0  0  0  0  0  0  0  0  0  0  0  0
   64.6270   31.9769   51.0746 H   0  0  0  0  0  0  0  0  0  0  0  0
   65.4775   31.2553   49.6665 H   0  0  0  0  0  0  0  0  0  0  0  0
   65.0634   33.0033   49.6665 H   0  0  0  0  0  0  0  0  0  0  0  0
   60.8197   32.1247   50.6364 H   0  0  0  0  0  0  0  0  0  0  0  0
   60.3503   33.0200   49.1149 H   0  0  0  0  0  0  0  0  0  0  0  0
   61.4651   30.1817   49.2535 H   0  0  0  0  0  0  0  0  0  0  0  0
   59.7426   30.6580   48.9541 H   0  0  0  0  0  0  0  0  0  0  0  0
   62.0150   31.3970   47.0910 H   0  0  0  0  0  0  0  0  0  0  0  0
   60.7053   33.5218   47.1207 H   0  0  0  0  0  0  0  0  0  0  0  0
   59.5180   35.6047   46.4663 H   0  0  0  0  0  0  0  0  0  0  0  0
   57.5139   35.4912   44.9990 H   0  0  0  0  0  0  0  0  0  0  0  0
   56.7362   33.3057   44.1108 H   0  0  0  0  0  0  0  0  0  0  0  0
   55.9513   30.8429   43.7630 H   0  0  0  0  0  0  0  0  0  0  0  0
   57.1197   31.7893   42.7802 H   0  0  0  0  0  0  0  0  0  0  0  0
   57.1926   29.9945   42.7802 H   0  0  0  0  0  0  0  0  0  0  0  0
   57.0074   28.4369   44.0628 H   0  0  0  0  0  0  0  0  0  0  0  0
   57.8821   25.1928   46.7559 H   0  0  0  0  0  0  0  0  0  0  0  0
   56.9258   22.9939   46.0967 H   0  0  0  0  0  0  0  0  0  0  0  0
   56.8967   24.2494   41.9511 H   0  0  0  0  0  0  0  0  0  0  0  0
   57.8484   26.4524   42.6118 H   0  0  0  0  0  0  0  0  0  0  0  0
   60.1420   26.4187   46.2442 H   0  0  0  0  0  0  0  0  0  0  0  0
   61.0526   28.6062   46.9715 H   0  0  0  0  0  0  0  0  0  0  0  0
  1  2  1  0
  2  3  1  0
  3  4  1  0
  4  5  1  0
  3  6  1  0
  6  7  1  0
  7  8  1  0
  8  9  1  0
  9 10  2  0
 10 11  1  0
 11 12  2  0
 12 13  1  0
 13 14  2  0
 14 15  1  0
 15 16  2  0
 16 17  1  0
 16 18  1  0
 18 19  2  0
 19 20  1  0
 20 21  1  0
 21 22  2  0
 22 23  1  0
 23 24  2  0
 24 25  1  0
 25 26  2  0
 25 27  1  0
 24 28  1  0
 28 29  2  0
 20 30  2  0
 30 31  1  0
 31 32  2  0
 32  9  1  0
 15 10  1  0
 32 18  1  0
 29 21  1  0
  1 33  1  0
  1 34  1  0
  1 35  1  0
  2 36  1  0
  2 37  1  0
  3 38  1  0
  4 39  1  0
  4 40  1  0
  5 41  1  0
  5 42  1  0
  5 43  1  0
  6 44  1  0
  6 45  1  0
  7 46  1  0
  7 47  1  0
  8 48  1  0
 11 49  1  0
 12 50  1  0
 13 51  1  0
 14 52  1  0
 17 53  1  0
 17 54  1  0
 17 55  1  0
 19 56  1  0
 22 57  1  0
 23 58  1  0
 28 59  1  0
 29 60  1  0
 30 61  1  0
 31 62  1  0
M  CHG  4   3   1  16   1  25   1  27  -1
M  END
>  <UniqueID>  (6) 
6

>  <SMILES>  (6) 
CC[NH+](CC)CCNc1c2ccccc2[n+](C)c2cc(-c3ccc([N+](=O)[O-])cc3)ccc12

>  <Energy>  (6) 
101.74292440073461

>  <Genealogy>  (6) 
CC[NH+](CC)CCNc1c2ccccc2[n+](C)c2cc(-c3ccc([N+](=O)[O-])cc3)ccc12 (protonated)
CC[NH+](CC)CCNc1c2ccccc2[n+](C)c2cc(-c3ccc([N+](=O)[O-])cc3)ccc12 (3D coordinates assigned)
CC[NH+](CC)CCNc1c2ccccc2[n+](C)c2cc(-c3ccc([N+](=O)[O-])cc3)ccc12 (optimized conformer: 101.74292440073461 kcal/mol)

>  <smiles>  (6) 
CCN(CC)CCNc1c2ccccc2[n+](C)c2cc(-c3ccc([N+](=O)[O-])cc3)ccc12

>  <score_type>  (6) 
oracle

>  <origin>  (6) 
adg

>  <m_score__min__energy>  (6) 
-7.2800000000000002

>  <m_primary>  (6) 
energy

$$$$
6:0
     RDKit          3D

 68 71  0  0  0  0  0  0  0  0999 V2000
   59.7980   32.4960   50.5760 C   0  0  0  0  0  0  0  0  0  0  0  0
   58.9870   31.4380   49.8350 C   0  0  0  0  0  0  0  0  0  0  0  0
   59.8940   30.3680   49.3550 N   0  0  0  0  0  0  0  0  0  0  0  0
   60.6910   29.8220   50.4660 C   0  0  0  0  0  0  0  0  0  0  0  0
   59.1630   29.2850   48.6620 C   0  0  0  0  0  0  0  0  0  0  0  0
   60.0620   28.6220   47.6100 C   0  0  0  0  0  0  0  0  0  0  0  0
   60.4700   29.5920   46.5880 N   0  0  0  0  0  0  0  0  0  0  0  0
   59.6040   30.6560   46.1760 C   0  0  0  0  0  0  0  0  0  0  0  0
   58.5730   30.3460   45.2620 C   0  0  0  0  0  0  0  0  0  0  0  0
   58.4660   29.0550   44.6900 C   0  0  0  0  0  0  0  0  0  0  0  0
   57.4410   28.7460   43.8020 C   0  0  0  0  0  0  0  0  0  0  0  0
   56.5170   29.7190   43.4430 C   0  0  0  0  0  0  0  0  0  0  0  0
   56.6210   31.0070   43.9640 C   0  0  0  0  0  0  0  0  0  0  0  0
   57.6440   31.3440   44.8870 C   0  0  0  0  0  0  0  0  0  0  0  0
   57.7710   32.6190   45.3870 N   0  0  0  0  0  0  0  0  0  0  0  0
   56.6540   33.5810   45.2410 C   0  0  0  0  0  0  0  0  0  0  0  0
   58.9360   33.0010   46.0210 C   0  0  0  0  0  0  0  0  0  0  0  0
   59.2500   34.3720   46.1510 C   0  0  0  0  0  0  0  0  0  0  0  0
   60.3660   34.7930   46.8480 C   0  0  0  0  0  0  0  0  0  0  0  0
   61.1880   33.8700   47.4620 C   0  0  0  0  0  0  0  0  0  0  0  0
   60.9630   32.4860   47.3390 C   0  0  0  0  0  0  0  0  0  0  0  0
   61.7940   31.6340   48.1700 N   0  0  0  0  0  0  0  0  0  0  0  0
   63.2130   31.8350   47.8380 C   0  0  0  0  0  0  0  0  0  0  0  0
   63.8890   32.7690   48.8520 C   0  0  0  0  0  0  0  0  0  0  0  0
   64.7890   31.9870   49.8150 C   0  0  0  0  0  0  0  0  0  0  0  0
   65.7610   32.8890   50.4460 N   0  0  0  0  0  0  0  0  0  0  0  0
   67.0930   32.7590   50.1610 C   0  0  0  0  0  0  0  0  0  0  0  0
   68.0350   33.5780   50.7870 C   0  0  0  0  0  0  0  0  0  0  0  0
   67.6070   34.5310   51.7110 C   0  0  0  0  0  0  0  0  0  0  0  0
   66.2490   34.6530   51.9980 C   0  0  0  0  0  0  0  0  0  0  0  0
   65.3330   33.8160   51.3570 C   0  0  0  0  0  0  0  0  0  0  0  0
   59.8510   32.0210   46.5320 C   0  0  0  0  0  0  0  0  0  0  0  0
   59.6864   32.3505   51.6606 H   0  0  0  0  0  0  0  0  0  0  0  0
   60.8591   32.4039   50.3009 H   0  0  0  0  0  0  0  0  0  0  0  0
   59.4334   33.4967   50.3009 H   0  0  0  0  0  0  0  0  0  0  0  0
   58.2383   31.0064   50.5156 H   0  0  0  0  0  0  0  0  0  0  0  0
   58.4780   31.9003   48.9764 H   0  0  0  0  0  0  0  0  0  0  0  0
   60.2439   30.1283   51.4232 H   0  0  0  0  0  0  0  0  0  0  0  0
   60.7047   28.7239   50.4024 H   0  0  0  0  0  0  0  0  0  0  0  0
   61.7199   30.2058   50.4024 H   0  0  0  0  0  0  0  0  0  0  0  0
   58.8493   28.5304   49.3983 H   0  0  0  0  0  0  0  0  0  0  0  0
   58.2821   29.7125   48.1607 H   0  0  0  0  0  0  0  0  0  0  0  0
   60.9588   28.2196   48.1038 H   0  0  0  0  0  0  0  0  0  0  0  0
   59.4977   27.8130   47.1231 H   0  0  0  0  0  0  0  0  0  0  0  0
   61.3070   29.3980   45.9900 H   0  0  0  0  0  0  0  0  0  0  0  0
   59.2055   28.2840   44.9522 H   0  0  0  0  0  0  0  0  0  0  0  0
   57.3622   27.7315   43.3842 H   0  0  0  0  0  0  0  0  0  0  0  0
   55.7021   29.4723   42.7465 H   0  0  0  0  0  0  0  0  0  0  0  0
   55.8975   31.7756   43.6543 H   0  0  0  0  0  0  0  0  0  0  0  0
   56.3001   33.8858   46.2369 H   0  0  0  0  0  0  0  0  0  0  0  0
   57.0024   34.4663   44.6888 H   0  0  0  0  0  0  0  0  0  0  0  0
   55.8301   33.1052   44.6888 H   0  0  0  0  0  0  0  0  0  0  0  0
   58.5914   35.1210   45.6870 H   0  0  0  0  0  0  0  0  0  0  0  0
   60.5999   35.8658   46.9137 H   0  0  0  0  0  0  0  0  0  0  0  0
   62.0393   34.2243   48.0618 H   0  0  0  0  0  0  0  0  0  0  0  0
   61.6020   31.7320   49.1830 H   0  0  0  0  0  0  0  0  0  0  0  0
   61.5650   30.6290   47.9810 H   0  0  0  0  0  0  0  0  0  0  0  0
   63.7259   30.8620   47.8478 H   0  0  0  0  0  0  0  0  0  0  0  0
   63.2776   32.2950   46.8409 H   0  0  0  0  0  0  0  0  0  0  0  0
   64.4996   33.5056   48.3092 H   0  0  0  0  0  0  0  0  0  0  0  0
   63.1052   33.2702   49.4388 H   0  0  0  0  0  0  0  0  0  0  0  0
   64.1684   31.5195   50.5936 H   0  0  0  0  0  0  0  0  0  0  0  0
   65.3307   31.2130   49.2515 H   0  0  0  0  0  0  0  0  0  0  0  0
   67.4243   32.0036   49.4332 H   0  0  0  0  0  0  0  0  0  0  0  0
   69.1047   33.4725   50.5535 H   0  0  0  0  0  0  0  0  0  0  0  0
   68.3382   35.1833   52.2109 H   0  0  0  0  0  0  0  0  0  0  0  0
   65.9011   35.4027   52.7238 H   0  0  0  0  0  0  0  0  0  0  0  0
   64.2606   33.9025   51.5859 H   0  0  0  0  0  0  0  0  0  0  0  0
  1  2  1  0
  2  3  1  0
  3  4  1  0
  3  5  1  0
  5  6  1  0
  6  7  1  0
  7  8  1  0
  8  9  2  0
  9 10  1  0
 10 11  2  0
 11 12  1  0
 12 13  2  0
 13 14  1  0
 14 15  2  0
 15 16  1  0
 15 17  1  0
 17 18  2  0
 18 19  1  0
 19 20  2  0
 20 21  1  0
 21 22  1  0
 22 23  1  0
 23 24  1  0
 24 25  1  0
 25 26  1  0
 26 27  2  0
 27 28  1  0
 28 29  2  0
 29 30  1  0
 30 31  2  0
 21 32  2  0
 32  8  1  0
 14  9  1  0
 32 17  1  0
 31 26  1  0
  1 33  1  0
  1 34  1  0
  1 35  1  0
  2 36  1  0
  2 37  1  0
  4 38  1  0
  4 39  1  0
  4 40  1  0
  5 41  1  0
  5 42  1  0
  6 43  1  0
  6 44  1  0
  7 45  1  0
 10 46  1  0
 11 47  1  0
 12 48  1  0
 13 49  1  0
 16 50  1  0
 16 51  1  0
 16 52  1  0
 18 53  1  0
 19 54  1  0
 20 55  1  0
 22 56  1  0
 22 57  1  0
 23 58  1  0
 23 59  1  0
 24 60  1  0
 24 61  1  0
 25 62  1  0
 25 63  1  0
 27 64  1  0
 28 65  1  0
 29 66  1  0
 30 67  1  0
 31 68  1  0
M  CHG  3  15   1  22   1  26   1
M  END
>  <UniqueID>  (7) 
7

>  <SMILES>  (7) 
CCN(C)CCNc1c2ccccc2[n+](C)c2cccc([NH2+]CCC[n+]3ccccc3)c12

>  <Energy>  (7) 
104.05013705373807

>  <Genealogy>  (7) 
CCN(C)CCNc1c2ccccc2[n+](C)c2cccc([NH2+]CCC[n+]3ccccc3)c12 (protonated)
CCN(C)CCNc1c2ccccc2[n+](C)c2cccc([NH2+]CCC[n+]3ccccc3)c12 (3D coordinates assigned)
CCN(C)CCNc1c2ccccc2[n+](C)c2cccc([NH2+]CCC[n+]3ccccc3)c12 (optimized conformer: 104.05013705373807 kcal/mol)

>  <smiles>  (7) 
CCN(C)CCNc1c2ccccc2[n+](C)c2cccc(NCCC[n+]3ccccc3)c12

>  <score_type>  (7) 
oracle

>  <origin>  (7) 
adg

>  <m_score__min__energy>  (7) 
-3.1000000000000001

>  <m_primary>  (7) 
energy

$$$$
7:0
     RDKit          3D

 42 44  0  0  1  0  0  0  0  0999 V2000
   59.4080   26.4270   47.5580 C   0  0  0  0  0  0  0  0  0  0  0  0
   60.6300   26.3760   46.7040 C   0  0  0  0  0  0  0  0  0  0  0  0
   60.7150   27.3150   45.6890 O   0  0  0  0  0  0  0  0  0  0  0  0
   59.7660   28.2910   45.4340 C   0  0  0  0  0  0  0  0  0  0  0  0
   58.8580   28.0520   44.4490 C   0  0  0  0  0  0  0  0  0  0  0  0
   57.9200   29.0210   44.1980 C   0  0  0  0  0  0  0  0  0  0  0  0
   57.0230   28.7890   43.2260 N   0  0  0  0  0  0  0  0  0  0  0  0
   56.0820   29.7030   42.9370 C   0  0  0  0  0  0  0  0  0  0  0  0
   56.0960   30.8320   43.6620 N   0  0  0  0  0  0  0  0  0  0  0  0
   56.9800   31.0990   44.6430 C   0  0  0  0  0  0  0  0  0  0  0  0
   56.9090   32.1700   45.2490 N   0  0  0  0  0  0  0  0  0  0  0  0
   57.7890   33.1660   45.5440 C   0  0  0  0  0  0  0  0  0  0  0  0
   58.2770   34.0560   44.5540 C   0  0  0  0  0  0  0  0  0  0  0  0
   59.2610   34.9530   44.9060 C   0  0  0  0  0  0  0  0  0  0  0  0
   59.7790   35.0010   46.2010 C   0  0  0  0  0  0  0  0  0  0  0  0
   59.3150   34.1500   47.1580 C   0  0  0  0  0  0  0  0  0  0  0  0
   60.0140   34.2010   48.9440 Br  0  0  0  0  0  0  0  0  0  0  0  0
   58.3370   33.2430   46.8500 C   0  0  0  0  0  0  0  0  0  0  0  0
   57.9480   30.1790   44.9550 C   0  0  0  0  0  0  0  0  0  0  0  0
   58.8690   30.3970   45.9400 C   0  0  0  0  0  0  0  0  0  0  0  0
   59.8360   29.4160   46.2090 C   0  0  0  0  0  0  0  0  0  0  0  0
   60.8000   29.5130   47.1590 O   0  0  0  0  0  0  0  0  0  0  0  0
   61.2020   30.5240   47.9950 C   0  0  0  0  0  0  0  0  0  0  0  0
   62.1490   31.5390   47.4440 C   0  0  0  0  0  0  0  0  0  0  0  0
   59.7008   26.4148   48.6182 H   0  0  0  0  0  0  0  0  0  0  0  0
   58.8485   27.3493   47.3428 H   0  0  0  0  0  0  0  0  0  0  0  0
   58.7736   25.5546   47.3428 H   0  0  0  0  0  0  0  0  0  0  0  0
   61.5021   26.5134   47.3601 H   0  0  0  0  0  0  0  0  0  0  0  0
   60.5892   25.4013   46.1958 H   0  0  0  0  0  0  0  0  0  0  0  0
   58.8756   27.1144   43.8740 H   0  0  0  0  0  0  0  0  0  0  0  0
   57.0240   27.8930   42.6620 H   0  0  0  0  0  0  0  0  0  0  0  0
   55.3371   29.5343   42.1454 H   0  0  0  0  0  0  0  0  0  0  0  0
   57.8790   34.0306   43.5288 H   0  0  0  0  0  0  0  0  0  0  0  0
   59.6484   35.6491   44.1474 H   0  0  0  0  0  0  0  0  0  0  0  0
   60.5652   35.7290   46.4499 H   0  0  0  0  0  0  0  0  0  0  0  0
   57.9690   32.5607   47.6304 H   0  0  0  0  0  0  0  0  0  0  0  0
   58.8529   31.3332   46.5173 H   0  0  0  0  0  0  0  0  0  0  0  0
   60.2987   31.0597   48.3223 H   0  0  0  0  0  0  0  0  0  0  0  0
   61.7655   30.0197   48.7938 H   0  0  0  0  0  0  0  0  0  0  0  0
   62.6425   32.0679   48.2727 H   0  0  0  0  0  0  0  0  0  0  0  0
   62.9077   31.0356   46.8268 H   0  0  0  0  0  0  0  0  0  0  0  0
   61.5943   32.2610   46.8268 H   0  0  0  0  0  0  0  0  0  0  0  0
  1  2  1  0
  2  3  1  0
  3  4  1  0
  4  5  2  0
  5  6  1  0
  6  7  1  0
  7  8  1  0
  8  9  2  0
  9 10  1  0
 10 11  2  0
 11 12  1  0
 12 13  2  0
 13 14  1  0
 14 15  2  0
 15 16  1  0
 16 17  1  0
 16 18  2  0
 10 19  1  0
 19 20  1  0
 20 21  2  0
 21 22  1  0
 22 23  1  0
 23 24  1  0
 21  4  1  0
 19  6  2  0
 18 12  1  0
  1 25  1  0
  1 26  1  0
  1 27  1  0
  2 28  1  0
  2 29  1  0
  5 30  1  0
  7 31  1  0
  8 32  1  0
 13 33  1  0
 14 34  1  0
 15 35  1  0
 18 36  1  0
 20 37  1  0
 23 38  1  0
 23 39  1  0
 24 40  1  0
 24 41  1  0
 24 42  1  0
M  END
>  <smiles>  (8) 
CCOc1cc2[nH]cnc(=Nc3cccc(Br)c3)c2cc1OCC

>  <score_type>  (8) 
oracle

>  <origin>  (8) 
adg

>  <m_score__min__energy>  (8) 
-7.5

>  <m_primary>  (8) 
energy

$$$$
8:0
     RDKit          3D

 47 49  0  0  0  0  0  0  0  0999 V2000
   63.2070   33.3740   46.9790 C   0  0  0  0  0  0  0  0  0  0  0  0
   61.9810   32.8260   47.7330 C   0  0  0  0  0  0  0  0  0  0  0  0
   60.7940   33.7190   47.7320 N   0  0  0  0  0  0  0  0  0  0  0  0
   59.7000   33.2520   48.6290 C   0  0  0  0  0  0  0  0  0  0  0  0
   58.5100   32.6830   47.8410 C   0  0  0  0  0  0  0  0  0  0  0  0
   57.9190   33.7060   46.9490 N   0  0  0  0  0  0  0  0  0  0  0  0
   57.0770   33.0740   45.9100 C   0  0  0  0  0  0  0  0  0  0  0  0
   57.8560   32.9670   44.5910 C   0  0  0  0  0  0  0  0  0  0  0  0
   57.4850   31.7060   43.7920 C   0  0  0  0  0  0  0  0  0  0  0  0
   57.5800   30.4840   44.6240 N   0  0  0  0  0  0  0  0  0  0  0  0
   56.5740   29.5360   44.6190 C   0  0  0  0  0  0  0  0  0  0  0  0
   55.1970   29.7170   43.7370 S   0  0  0  0  0  0  0  0  0  0  0  0
   56.6910   28.4090   45.3630 N   0  0  0  0  0  0  0  0  0  0  0  0
   57.7780   28.1690   46.1310 C   0  0  0  0  0  0  0  0  0  0  0  0
   57.8580   26.9900   46.8830 C   0  0  0  0  0  0  0  0  0  0  0  0
   58.9790   26.7450   47.6830 C   0  0  0  0  0  0  0  0  0  0  0  0
   60.0210   27.6750   47.7320 C   0  0  0  0  0  0  0  0  0  0  0  0
   59.9500   28.8520   46.9790 C   0  0  0  0  0  0  0  0  0  0  0  0
   58.8230   29.1080   46.1730 C   0  0  0  0  0  0  0  0  0  0  0  0
   58.7000   30.2740   45.3990 C   0  0  0  0  0  0  0  0  0  0  0  0
   59.6310   31.1290   45.4180 O   0  0  0  0  0  0  0  0  0  0  0  0
   58.9220   34.6400   46.3680 C   0  0  0  0  0  0  0  0  0  0  0  0
   60.3390   34.0430   46.3560 C   0  0  0  0  0  0  0  0  0  0  0  0
   63.9624   33.7117   47.7038 H   0  0  0  0  0  0  0  0  0  0  0  0
   63.6336   32.5809   46.3473 H   0  0  0  0  0  0  0  0  0  0  0  0
   62.9006   34.2208   46.3473 H   0  0  0  0  0  0  0  0  0  0  0  0
   61.6915   31.8727   47.2668 H   0  0  0  0  0  0  0  0  0  0  0  0
   62.2873   32.7221   48.7844 H   0  0  0  0  0  0  0  0  0  0  0  0
   61.1340   34.6250   48.1390 H   0  0  0  0  0  0  0  0  0  0  0  0
   60.0948   32.4673   49.2911 H   0  0  0  0  0  0  0  0  0  0  0  0
   59.3418   34.1176   49.2056 H   0  0  0  0  0  0  0  0  0  0  0  0
   58.8555   31.8337   47.2332 H   0  0  0  0  0  0  0  0  0  0  0  0
   57.7406   32.3601   48.5578 H   0  0  0  0  0  0  0  0  0  0  0  0
   56.7842   32.0670   46.2421 H   0  0  0  0  0  0  0  0  0  0  0  0
   56.1807   33.6910   45.7492 H   0  0  0  0  0  0  0  0  0  0  0  0
   57.6344   33.8523   43.9769 H   0  0  0  0  0  0  0  0  0  0  0  0
   58.9263   32.9053   44.8374 H   0  0  0  0  0  0  0  0  0  0  0  0
   56.4534   31.8076   43.4239 H   0  0  0  0  0  0  0  0  0  0  0  0
   58.1933   31.6083   42.9561 H   0  0  0  0  0  0  0  0  0  0  0  0
   57.0391   26.2566   46.8444 H   0  0  0  0  0  0  0  0  0  0  0  0
   59.0404   25.8194   48.2741 H   0  0  0  0  0  0  0  0  0  0  0  0
   60.8997   27.4810   48.3646 H   0  0  0  0  0  0  0  0  0  0  0  0
   60.7751   29.5785   47.0162 H   0  0  0  0  0  0  0  0  0  0  0  0
   58.6288   34.8753   45.3342 H   0  0  0  0  0  0  0  0  0  0  0  0
   58.9432   35.5431   46.9957 H   0  0  0  0  0  0  0  0  0  0  0  0
   60.3363   33.1233   45.7525 H   0  0  0  0  0  0  0  0  0  0  0  0
   61.0274   34.7854   45.9260 H   0  0  0  0  0  0  0  0  0  0  0  0
  1  2  1  0
  2  3  1  0
  3  4  1  0
  4  5  1  0
  5  6  1  0
  6  7  1  0
  7  8  1  0
  8  9  1  0
  9 10  1  0
 10 11  1  0
 11 12  2  0
 11 13  1  0
 13 14  1  0
 14 15  2  0
 15 16  1  0
 16 17  2  0
 17 18  1  0
 18 19  2  0
 19 20  1  0
 20 21  2  0
  6 22  1  0
 22 23  1  0
 23  3  1  0
 20 10  1  0
 19 14  1  0
  1 24  1  0
  1 25  1  0
  1 26  1  0
  2 27  1  0
  2 28  1  0
  3 29  1  0
  4 30  1  0
  4 31  1  0
  5 32  1  0
  5 33  1  0
  7 34  1  0
  7 35  1  0
  8 36  1  0
  8 37  1  0
  9 38  1  0
  9 39  1  0
 15 40  1  0
 16 41  1  0
 17 42  1  0
 18 43  1  0
 22 44  1  0
 22 45  1  0
 23 46  1  0
 23 47  1  0
M  CHG  2   3   1  13  -1
M  END
>  <UniqueID>  (9) 
8

>  <SMILES>  (9) 
CC[NH+]1CCN(CCCn2c(=S)[n-]c3ccccc3c2=O)CC1

>  <Energy>  (9) 
69.78348869818261

>  <Genealogy>  (9) 
CC[NH+]1CCN(CCCn2c(=S)[n-]c3ccccc3c2=O)CC1 (protonated)
CC[NH+]1CCN(CCCn2c(=S)[n-]c3ccccc3c2=O)CC1 (3D coordinates assigned)
CC[NH+]1CCN(CCCn2c(=S)[n-]c3ccccc3c2=O)CC1 (nonaromatic ring conformer: 69.78348869818261 kcal/mol)

>  <smiles>  (9) 
CCN1CCN(CCCn2c(=S)[nH]c3ccccc3c2=O)CC1

>  <score_type>  (9) 
oracle

>  <origin>  (9) 
adg

>  <m_score__min__energy>  (9) 
-7.4900000000000002

>  <m_primary>  (9) 
energy

$$$$
9:0
     RDKit          3D

 63 65  0  0  0  0  0  0  0  0999 V2000
   63.0710   34.1130   49.6260 C   0  0  0  0  0  0  0  0  0  0  0  0
   64.1830   33.0670   49.5370 C   0  0  0  0  0  0  0  0  0  0  0  0
   64.3230   32.5730   48.1570 N   0  0  0  0  0  0  0  0  0  0  0  0
   63.0850   32.7390   47.3710 C   0  0  0  0  0  0  0  0  0  0  0  0
   62.3400   31.4150   47.1210 C   0  0  0  0  0  0  0  0  0  0  0  0
   60.9780   31.4390   47.6690 N   0  0  0  0  0  0  0  0  0  0  0  0
   59.8310   31.1650   46.8470 C   0  0  0  0  0  0  0  0  0  0  0  0
   59.4300   29.8300   46.6620 C   0  0  0  0  0  0  0  0  0  0  0  0
   59.9360   28.8030   47.4890 C   0  0  0  0  0  0  0  0  0  0  0  0
   59.5090   27.4870   47.3310 C   0  0  0  0  0  0  0  0  0  0  0  0
   58.5740   27.1740   46.3470 C   0  0  0  0  0  0  0  0  0  0  0  0
   58.0690   28.1710   45.5150 C   0  0  0  0  0  0  0  0  0  0  0  0
   58.4960   29.5190   45.6460 C   0  0  0  0  0  0  0  0  0  0  0  0
   58.0220   30.5150   44.8190 N   0  0  0  0  0  0  0  0  0  0  0  0
   57.3170   30.1600   43.5660 C   0  0  0  0  0  0  0  0  0  0  0  0
   58.1950   31.8450   45.1690 C   0  0  0  0  0  0  0  0  0  0  0  0
   57.4570   32.8690   44.5270 C   0  0  0  0  0  0  0  0  0  0  0  0
   57.6320   34.2040   44.8640 C   0  0  0  0  0  0  0  0  0  0  0  0
   58.5290   34.5600   45.8590 C   0  0  0  0  0  0  0  0  0  0  0  0
   59.2600   33.5880   46.5440 C   0  0  0  0  0  0  0  0  0  0  0  0
   60.2610   34.2090   47.9110 S   0  0  0  0  0  0  0  0  0  0  0  0
   59.2810   33.4050   49.2370 C   0  0  0  0  0  0  0  0  0  0  0  0
   59.7700   33.7800   50.6600 C   0  0  0  0  0  0  0  0  0  0  0  0
   59.0610   33.1270   51.8080 N   0  0  0  0  0  0  0  0  0  0  0  0
   59.9860   32.3030   52.6230 C   0  0  0  0  0  0  0  0  0  0  0  0
   58.5190   34.2050   52.6740 C   0  0  0  0  0  0  0  0  0  0  0  0
   57.9220   32.2910   51.3520 C   0  0  0  0  0  0  0  0  0  0  0  0
   59.1130   32.2060   46.2040 C   0  0  0  0  0  0  0  0  0  0  0  0
   62.8483   34.3224   50.6827 H   0  0  0  0  0  0  0  0  0  0  0  0
   63.3978   35.0387   49.1297 H   0  0  0  0  0  0  0  0  0  0  0  0
   62.1670   33.7303   49.1297 H   0  0  0  0  0  0  0  0  0  0  0  0
   65.1326   33.5214   49.8561 H   0  0  0  0  0  0  0  0  0  0  0  0
   63.9261   32.2209   50.1914 H   0  0  0  0  0  0  0  0  0  0  0  0
   64.6250   31.5740   48.1750 H   0  0  0  0  0  0  0  0  0  0  0  0
   65.0790   33.1240   47.6870 H   0  0  0  0  0  0  0  0  0  0  0  0
   62.4142   33.4196   47.9158 H   0  0  0  0  0  0  0  0  0  0  0  0
   63.3743   33.1405   46.3886 H   0  0  0  0  0  0  0  0  0  0  0  0
   62.2836   31.2383   46.0367 H   0  0  0  0  0  0  0  0  0  0  0  0
   62.8958   30.6114   47.6264 H   0  0  0  0  0  0  0  0  0  0  0  0
   60.8650   31.3480   48.7030 H   0  0  0  0  0  0  0  0  0  0  0  0
   60.6755   29.0453   48.2664 H   0  0  0  0  0  0  0  0  0  0  0  0
   59.9094   26.6960   47.9821 H   0  0  0  0  0  0  0  0  0  0  0  0
   58.2329   26.1352   46.2263 H   0  0  0  0  0  0  0  0  0  0  0  0
   57.3282   27.9100   44.7449 H   0  0  0  0  0  0  0  0  0  0  0  0
   56.3587   29.6775   43.8085 H   0  0  0  0  0  0  0  0  0  0  0  0
   57.1304   31.0716   42.9794 H   0  0  0  0  0  0  0  0  0  0  0  0
   57.9383   29.4672   42.9794 H   0  0  0  0  0  0  0  0  0  0  0  0
   56.7306   32.6010   43.7457 H   0  0  0  0  0  0  0  0  0  0  0  0
   57.0572   34.9818   44.3399 H   0  0  0  0  0  0  0  0  0  0  0  0
   58.6665   35.6217   46.1119 H   0  0  0  0  0  0  0  0  0  0  0  0
   58.2305   33.7144   49.1339 H   0  0  0  0  0  0  0  0  0  0  0  0
   59.4003   32.3175   49.1227 H   0  0  0  0  0  0  0  0  0  0  0  0
   60.8343   33.5108   50.7287 H   0  0  0  0  0  0  0  0  0  0  0  0
   59.5610   34.8549   50.7642 H   0  0  0  0  0  0  0  0  0  0  0  0
   59.7891   32.4784   53.6909 H   0  0  0  0  0  0  0  0  0  0  0  0
   59.8301   31.2390   52.3913 H   0  0  0  0  0  0  0  0  0  0  0  0
   61.0250   32.5803   52.3913 H   0  0  0  0  0  0  0  0  0  0  0  0
   58.6568   33.9309   53.7303 H   0  0  0  0  0  0  0  0  0  0  0  0
   59.0518   35.1447   52.4665 H   0  0  0  0  0  0  0  0  0  0  0  0
   57.4469   34.3378   52.4665 H   0  0  0  0  0  0  0  0  0  0  0  0
   57.3839   31.8961   52.2263 H   0  0  0  0  0  0  0  0  0  0  0  0
   57.2377   32.9028   50.7459 H   0  0  0  0  0  0  0  0  0  0  0  0
   58.3005   31.4547   50.7459 H   0  0  0  0  0  0  0  0  0  0  0  0
  1  2  1  0
  2  3  1  0
  3  4  1  0
  4  5  1  0
  5  6  1  0
  6  7  1  0
  7  8  2  0
  8  9  1  0
  9 10  2  0
 10 11  1  0
 11 12  2  0
 12 13  1  0
 13 14  2  0
 14 15  1  0
 14 16  1  0
 16 17  2  0
 17 18  1  0
 18 19  2  0
 19 20  1  0
 20 21  1  0
 21 22  1  0
 22 23  1  0
 23 24  1  0
 24 25  1  0
 24 26  1  0
 24 27  1  0
 20 28  2  0
 28  7  1  0
 13  8  1  0
 28 16  1  0
  1 29  1  0
  1 30  1  0
  1 31  1  0
  2 32  1  0
  2 33  1  0
  3 34  1  0
  3 35  1  0
  4 36  1  0
  4 37  1  0
  5 38  1  0
  5 39  1  0
  6 40  1  0
  9 41  1  0
 10 42  1  0
 11 43  1  0
 12 44  1  0
 15 45  1  0
 15 46  1  0
 15 47  1  0
 17 48  1  0
 18 49  1  0
 19 50  1  0
 22 51  1  0
 22 52  1  0
 23 53  1  0
 23 54  1  0
 25 55  1  0
 25 56  1  0
 25 57  1  0
 26 58  1  0
 26 59  1  0
 26 60  1  0
 27 61  1  0
 27 62  1  0
 27 63  1  0
M  CHG  3   3   1  14   1  24   1
M  END
>  <UniqueID>  (10) 
9

>  <SMILES>  (10) 
CC[NH2+]CCNc1c2ccccc2[n+](C)c2cccc(SCC[N+](C)(C)C)c12

>  <Energy>  (10) 
99.39941849009212

>  <Genealogy>  (10) 
CC[NH2+]CCNc1c2ccccc2[n+](C)c2cccc(SCC[N+](C)(C)C)c12 (protonated)
CC[NH2+]CCNc1c2ccccc2[n+](C)c2cccc(SCC[N+](C)(C)C)c12 (3D coordinates assigned)
CC[NH2+]CCNc1c2ccccc2[n+](C)c2cccc(SCC[N+](C)(C)C)c12 (optimized conformer: 99.39941849009212 kcal/mol)

>  <smiles>  (10) 
CCNCCNc1c2ccccc2[n+](C)c2cccc(SCC[N+](C)(C)C)c12

>  <score_type>  (10) 
oracle

>  <origin>  (10) 
adg

>  <m_score__min__energy>  (10) 
-3.75

>  <m_primary>  (10) 
energy

$$$$
10:0
     RDKit          3D

 30 31  0  0  0  0  0  0  0  0999 V2000
   60.4170   28.6070   44.8900 C   0  0  0  0  0  0  0  0  0  0  0  0
   59.0960   27.8390   44.7780 C   0  0  0  0  0  0  0  0  0  0  0  0
   58.2540   28.2180   43.6150 N   0  0  1  0  0  0  0  0  0  0  0  0
   57.8670   27.0470   42.8010 C   0  0  0  0  0  0  0  0  0  0  0  0
   57.1310   29.1400   43.9630 C   0  0  0  0  0  0  0  0  0  0  0  0
   57.5790   30.4670   44.4070 N   0  0  0  0  0  0  0  0  0  0  0  0
   57.7870   31.8100   43.4370 S   0  0  0  0  0  0  0  0  0  0  0  0
   58.2570   32.8890   44.6180 C   0  0  0  0  0  0  0  0  0  0  0  0
   58.6020   34.2320   44.5170 C   0  0  0  0  0  0  0  0  0  0  0  0
   58.9580   34.9070   45.6950 C   0  0  0  0  0  0  0  0  0  0  0  0
   58.9590   34.2320   46.9320 C   0  0  0  0  0  0  0  0  0  0  0  0
   58.6040   32.8720   47.0050 C   0  0  0  0  0  0  0  0  0  0  0  0
   58.6090   32.2320   48.2010 F   0  0  0  0  0  0  0  0  0  0  0  0
   58.2510   32.2030   45.8260 C   0  0  0  0  0  0  0  0  0  0  0  0
   57.8630   30.8530   45.6840 C   0  0  0  0  0  0  0  0  0  0  0  0
   57.7800   30.0580   46.6590 O   0  0  0  0  0  0  0  0  0  0  0  0
   60.6676   28.7527   45.9511 H   0  0  0  0  0  0  0  0  0  0  0  0
   61.2173   28.0334   44.3996 H   0  0  0  0  0  0  0  0  0  0  0  0
   60.3145   29.5863   44.3996 H   0  0  0  0  0  0  0  0  0  0  0  0
   59.3288   26.7669   44.6974 H   0  0  0  0  0  0  0  0  0  0  0  0
   58.5141   28.0894   45.6773 H   0  0  0  0  0  0  0  0  0  0  0  0
   58.8960   28.7710   42.9980 H   0  0  0  0  0  0  0  0  0  0  0  0
   57.5917   26.2140   43.4646 H   0  0  0  0  0  0  0  0  0  0  0  0
   57.0078   27.3095   42.1662 H   0  0  0  0  0  0  0  0  0  0  0  0
   58.7134   26.7458   42.1662 H   0  0  0  0  0  0  0  0  0  0  0  0
   56.4958   29.2663   43.0738 H   0  0  0  0  0  0  0  0  0  0  0  0
   56.5864   28.6843   44.8031 H   0  0  0  0  0  0  0  0  0  0  0  0
   58.5962   34.7486   43.5459 H   0  0  0  0  0  0  0  0  0  0  0  0
   59.2381   35.9699   45.6523 H   0  0  0  0  0  0  0  0  0  0  0  0
   59.2395   34.7725   47.8481 H   0  0  0  0  0  0  0  0  0  0  0  0
  1  2  1  0
  2  3  1  0
  3  4  1  0
  3  5  1  0
  5  6  1  0
  6  7  1  0
  7  8  1  0
  8  9  2  0
  9 10  1  0
 10 11  2  0
 11 12  1  0
 12 13  1  0
 12 14  2  0
 14 15  1  0
 15 16  2  0
 15  6  1  0
 14  8  1  0
  1 17  1  0
  1 18  1  0
  1 19  1  0
  2 20  1  0
  2 21  1  0
  3 22  1  6
  4 23  1  0
  4 24  1  0
  4 25  1  0
  5 26  1  0
  5 27  1  0
  9 28  1  0
 10 29  1  0
 11 30  1  0
M  CHG  1   3   1
M  END
>  <UniqueID>  (11) 
10

>  <SMILES>  (11) 
CC[N@@H+](C)Cn1sc2cccc(F)c2c1=O

>  <Energy>  (11) 
77.80035378537666

>  <Genealogy>  (11) 
CC[NH+](C)Cn1sc2cccc(F)c2c1=O (protonated)
CC[N@@H+](C)Cn1sc2cccc(F)c2c1=O (chirality)
CC[N@@H+](C)Cn1sc2cccc(F)c2c1=O (3D coordinates assigned)
CC[N@@H+](C)Cn1sc2cccc(F)c2c1=O (optimized conformer: 77.80035378537666 kcal/mol)

>  <smiles>  (11) 
CCN(C)Cn1sc2cccc(F)c2c1=O

>  <score_type>  (11) 
oracle

>  <origin>  (11) 
adg

>  <m_score__min__energy>  (11) 
-4.0700000000000003

>  <m_primary>  (11) 
energy

$$$$
11:0
     RDKit          3D

 47 50  0  0  0  0  0  0  0  0999 V2000
   57.0670   24.6510   43.3760 C   0  0  0  0  0  0  0  0  0  0  0  0
   57.7980   25.8600   43.9660 C   0  0  0  0  0  0  0  0  0  0  0  0
   57.7600   27.0280   43.0690 N   0  0  0  0  0  0  0  0  0  0  0  0
   57.8280   28.2660   43.8080 C   0  0  0  0  0  0  0  0  0  0  0  0
   56.9720   29.3450   43.4720 C   0  0  0  0  0  0  0  0  0  0  0  0
   57.0300   30.5590   44.1760 C   0  0  0  0  0  0  0  0  0  0  0  0
   57.9750   30.6830   45.1960 C   0  0  0  0  0  0  0  0  0  0  0  0
   58.2390   31.7150   46.0840 C   0  0  0  0  0  0  0  0  0  0  0  0
   59.1590   31.1990   46.9830 C   0  0  0  0  0  0  0  0  0  0  0  0
   59.5410   29.9490   46.6300 N   0  0  0  0  0  0  0  0  0  0  0  0
   60.4410   29.0640   47.3680 C   0  0  0  0  0  0  0  0  0  0  0  0
   58.7960   29.6340   45.5490 C   0  0  0  0  0  0  0  0  0  0  0  0
   58.7470   28.4110   44.8730 C   0  0  0  0  0  0  0  0  0  0  0  0
   59.5720   31.9310   48.2220 C   0  0  0  0  0  0  0  0  0  0  0  0
   58.5280   33.0110   48.5530 C   0  0  0  0  0  0  0  0  0  0  0  0
   58.1930   33.8440   47.3730 N   0  0  0  0  0  0  0  0  0  0  0  0
   59.2740   34.7980   47.0040 C   0  0  0  0  0  0  0  0  0  0  0  0
   60.0210   34.3970   45.7240 C   0  0  0  0  0  0  0  0  0  0  0  0
   59.0710   34.2410   44.5260 C   0  0  0  0  0  0  0  0  0  0  0  0
   57.6320   33.9040   44.9450 C   0  0  0  0  0  0  0  0  0  0  0  0
   57.5840   33.0740   46.2450 C   0  0  1  0  0  0  0  0  0  0  0  0
   56.6852   24.0195   44.1917 H   0  0  0  0  0  0  0  0  0  0  0  0
   56.2267   24.9972   42.7562 H   0  0  0  0  0  0  0  0  0  0  0  0
   57.7639   24.0678   42.7562 H   0  0  0  0  0  0  0  0  0  0  0  0
   57.3216   26.1307   44.9198 H   0  0  0  0  0  0  0  0  0  0  0  0
   58.8519   25.5794   44.1091 H   0  0  0  0  0  0  0  0  0  0  0  0
   56.8970   26.9960   42.4770 H   0  0  0  0  0  0  0  0  0  0  0  0
   58.5790   26.9770   42.4190 H   0  0  0  0  0  0  0  0  0  0  0  0
   56.2522   29.2298   42.6482 H   0  0  0  0  0  0  0  0  0  0  0  0
   56.3503   31.3883   43.9306 H   0  0  0  0  0  0  0  0  0  0  0  0
   60.2935   29.2091   48.4484 H   0  0  0  0  0  0  0  0  0  0  0  0
   60.2236   28.0182   47.1054 H   0  0  0  0  0  0  0  0  0  0  0  0
   61.4830   29.2990   47.1054 H   0  0  0  0  0  0  0  0  0  0  0  0
   59.4080   27.5809   45.1629 H   0  0  0  0  0  0  0  0  0  0  0  0
   59.6439   31.2218   49.0598 H   0  0  0  0  0  0  0  0  0  0  0  0
   60.5506   32.4058   48.0577 H   0  0  0  0  0  0  0  0  0  0  0  0
   57.6115   32.5200   48.9121 H   0  0  0  0  0  0  0  0  0  0  0  0
   58.9556   33.6706   49.3225 H   0  0  0  0  0  0  0  0  0  0  0  0
   58.8270   35.7915   46.8517 H   0  0  0  0  0  0  0  0  0  0  0  0
   60.0063   34.7969   47.8248 H   0  0  0  0  0  0  0  0  0  0  0  0
   60.7641   35.1732   45.4889 H   0  0  0  0  0  0  0  0  0  0  0  0
   60.5032   33.4247   45.9033 H   0  0  0  0  0  0  0  0  0  0  0  0
   59.0603   35.1848   43.9611 H   0  0  0  0  0  0  0  0  0  0  0  0
   59.4423   33.4039   43.9167 H   0  0  0  0  0  0  0  0  0  0  0  0
   57.0798   34.8422   45.1028 H   0  0  0  0  0  0  0  0  0  0  0  0
   57.1782   33.3031   44.1431 H   0  0  0  0  0  0  0  0  0  0  0  0
   56.5267   32.8832   46.4810 H   0  0  0  0  0  0  0  0  0  0  0  0
  1  2  1  0
  2  3  1  0
  3  4  1  0
  4  5  2  0
  5  6  1  0
  6  7  2  0
  7  8  1  0
  8  9  2  0
  9 10  1  0
 10 11  1  0
 10 12  1  0
 12 13  2  0
  9 14  1  0
 14 15  1  0
 15 16  1  0
 16 17  1  0
 17 18  1  0
 18 19  1  0
 19 20  1  0
 20 21  1  0
 13  4  1  0
 21 16  1  0
 12  7  1  0
 21  8  1  0
  1 22  1  0
  1 23  1  0
  1 24  1  0
  2 25  1  0
  2 26  1  0
  3 27  1  0
  3 28  1  0
  5 29  1  0
  6 30  1  0
 11 31  1  0
 11 32  1  0
 11 33  1  0
 13 34  1  0
 14 35  1  0
 14 36  1  0
 15 37  1  0
 15 38  1  0
 17 39  1  0
 17 40  1  0
 18 41  1  0
 18 42  1  0
 19 43  1  0
 19 44  1  0
 20 45  1  0
 20 46  1  0
 21 47  1  1
M  CHG  1   3   1
M  END
>  <UniqueID>  (12) 
11

>  <SMILES>  (12) 
CC[NH2+]c1ccc2c3c(n(C)c2c1)CCN1CCCC[C@@H]31

>  <Energy>  (12) 
96.35718129537777

>  <Genealogy>  (12) 
CC[NH2+]c1ccc2c3c(n(C)c2c1)CCN1CCCCC31 (protonated)
CC[NH2+]c1ccc2c3c(n(C)c2c1)CCN1CCCC[C@@H]31 (chirality)
CC[NH2+]c1ccc2c3c(n(C)c2c1)CCN1CCCC[C@@H]31 (3D coordinates assigned)
CC[NH2+]c1ccc2c3c(n(C)c2c1)CCN1CCCC[C@@H]31 (nonaromatic ring conformer: 96.35718129537777 kcal/mol)

>  <smiles>  (12) 
CCNc1ccc2c3c(n(C)c2c1)CCN1CCCCC31

>  <score_type>  (12) 
oracle

>  <origin>  (12) 
adg

>  <m_score__min__energy>  (12) 
-6.8200000000000003

>  <m_primary>  (12) 
energy

$$$$
12:0
     RDKit          3D

 54 56  0  0  0  0  0  0  0  0999 V2000
   60.5150   34.2240   48.1770 C   0  0  0  0  0  0  0  0  0  0  0  0
   59.3470   33.8010   49.0530 C   0  0  0  0  0  0  0  0  0  0  0  0
   58.4710   32.9680   48.3000 O   0  0  0  0  0  0  0  0  0  0  0  0
   58.3260   33.0000   46.9010 C   0  0  0  0  0  0  0  0  0  0  0  0
   58.1300   34.2170   46.2300 C   0  0  0  0  0  0  0  0  0  0  0  0
   57.8950   34.2380   44.8640 C   0  0  0  0  0  0  0  0  0  0  0  0
   57.7770   33.0480   44.1550 C   0  0  0  0  0  0  0  0  0  0  0  0
   57.9230   31.7950   44.7980 C   0  0  0  0  0  0  0  0  0  0  0  0
   58.3350   31.7840   46.1610 C   0  0  0  0  0  0  0  0  0  0  0  0
   58.7310   30.5580   46.7400 C   0  0  0  0  0  0  0  0  0  0  0  0
   59.4180   30.5210   48.0060 N   0  0  0  0  0  0  0  0  0  0  0  0
   60.7700   29.9760   48.1740 C   0  0  0  0  0  0  0  0  0  0  0  0
   61.8330   31.0690   48.3860 C   0  0  0  0  0  0  0  0  0  0  0  0
   62.5670   31.5770   47.1190 C   0  0  0  0  0  0  0  0  0  0  0  0
   63.6420   32.5680   47.3730 N   0  0  0  0  0  0  0  0  0  0  0  0
   63.7590   32.8090   48.8220 C   0  0  0  0  0  0  0  0  0  0  0  0
   63.3850   33.8430   46.6770 C   0  0  0  0  0  0  0  0  0  0  0  0
   58.5690   29.3620   46.0170 C   0  0  0  0  0  0  0  0  0  0  0  0
   58.9430   28.1230   46.5830 C   0  0  0  0  0  0  0  0  0  0  0  0
   58.8640   26.9480   45.8410 C   0  0  0  0  0  0  0  0  0  0  0  0
   58.4340   26.9870   44.5220 C   0  0  0  0  0  0  0  0  0  0  0  0
   58.0540   28.1960   43.9430 C   0  0  0  0  0  0  0  0  0  0  0  0
   58.0800   29.4060   44.6860 C   0  0  0  0  0  0  0  0  0  0  0  0
   57.6880   30.6090   44.1290 N   0  0  0  0  0  0  0  0  0  0  0  0
   56.9660   30.6220   42.8360 C   0  0  0  0  0  0  0  0  0  0  0  0
   61.3587   34.5296   48.8132 H   0  0  0  0  0  0  0  0  0  0  0  0
   60.8216   33.3798   47.5419 H   0  0  0  0  0  0  0  0  0  0  0  0
   60.2099   35.0687   47.5419 H   0  0  0  0  0  0  0  0  0  0  0  0
   59.7237   33.2453   49.9244 H   0  0  0  0  0  0  0  0  0  0  0  0
   58.8024   34.6928   49.3967 H   0  0  0  0  0  0  0  0  0  0  0  0
   58.1631   35.1617   46.7925 H   0  0  0  0  0  0  0  0  0  0  0  0
   57.8015   35.2001   44.3389 H   0  0  0  0  0  0  0  0  0  0  0  0
   57.5666   33.0804   43.0758 H   0  0  0  0  0  0  0  0  0  0  0  0
   58.9170   30.8780   48.8510 H   0  0  0  0  0  0  0  0  0  0  0  0
   60.7735   29.3084   49.0483 H   0  0  0  0  0  0  0  0  0  0  0  0
   61.0275   29.4393   47.2490 H   0  0  0  0  0  0  0  0  0  0  0  0
   61.3359   31.9322   48.8526 H   0  0  0  0  0  0  0  0  0  0  0  0
   62.6123   30.6001   49.0047 H   0  0  0  0  0  0  0  0  0  0  0  0
   63.0153   30.7092   46.6131 H   0  0  0  0  0  0  0  0  0  0  0  0
   61.8097   32.0934   46.5108 H   0  0  0  0  0  0  0  0  0  0  0  0
   64.5630   32.1910   47.0580 H   0  0  0  0  0  0  0  0  0  0  0  0
   63.3427   31.9516   49.3711 H   0  0  0  0  0  0  0  0  0  0  0  0
   64.8188   32.9354   49.0883 H   0  0  0  0  0  0  0  0  0  0  0  0
   63.2028   33.7199   49.0883 H   0  0  0  0  0  0  0  0  0  0  0  0
   63.2244   34.6396   47.4184 H   0  0  0  0  0  0  0  0  0  0  0  0
   64.2499   34.0975   46.0468 H   0  0  0  0  0  0  0  0  0  0  0  0
   62.4890   33.7426   46.0468 H   0  0  0  0  0  0  0  0  0  0  0  0
   59.3009   28.0863   47.6225 H   0  0  0  0  0  0  0  0  0  0  0  0
   59.1425   25.9880   46.3003 H   0  0  0  0  0  0  0  0  0  0  0  0
   58.3930   26.0599   43.9314 H   0  0  0  0  0  0  0  0  0  0  0  0
   57.7283   28.2136   42.8925 H   0  0  0  0  0  0  0  0  0  0  0  0
   55.8819   30.6415   43.0216 H   0  0  0  0  0  0  0  0  0  0  0  0
   57.2561   31.5151   42.2630 H   0  0  0  0  0  0  0  0  0  0  0  0
   57.2237   29.7191   42.2630 H   0  0  0  0  0  0  0  0  0  0  0  0
  1  2  1  0
  2  3  1  0
  3  4  1  0
  4  5  2  0
  5  6  1  0
  6  7  2  0
  7  8  1  0
  8  9  2  0
  9 10  1  0
 10 11  1  0
 11 12  1  0
 12 13  1  0
 13 14  1  0
 14 15  1  0
 15 16  1  0
 15 17  1  0
 10 18  2  0
 18 19  1  0
 19 20  2  0
 20 21  1  0
 21 22  2  0
 22 23  1  0
 23 24  2  0
 24 25  1  0
  9  4  1  0
 23 18  1  0
 24  8  1  0
  1 26  1  0
  1 27  1  0
  1 28  1  0
  2 29  1  0
  2 30  1  0
  5 31  1  0
  6 32  1  0
  7 33  1  0
 11 34  1  0
 12 35  1  0
 12 36  1  0
 13 37  1  0
 13 38  1  0
 14 39  1  0
 14 40  1  0
 15 41  1  0
 16 42  1  0
 16 43  1  0
 16 44  1  0
 17 45  1  0
 17 46  1  0
 17 47  1  0
 19 48  1  0
 20 49  1  0
 21 50  1  0
 22 51  1  0
 25 52  1  0
 25 53  1  0
 25 54  1  0
M  CHG  2  15   1  24   1
M  END
>  <UniqueID>  (13) 
12

>  <SMILES>  (13) 
CCOc1cccc2c1c(NCCC[NH+](C)C)c1ccccc1[n+]2C

>  <Energy>  (13) 
80.08561197726416

>  <Genealogy>  (13) 
CCOc1cccc2c1c(NCCC[NH+](C)C)c1ccccc1[n+]2C (protonated)
CCOc1cccc2c1c(NCCC[NH+](C)C)c1ccccc1[n+]2C (3D coordinates assigned)
CCOc1cccc2c1c(NCCC[NH+](C)C)c1ccccc1[n+]2C (optimized conformer: 80.08561197726416 kcal/mol)

>  <smiles>  (13) 
CCOc1cccc2c1c(NCCCN(C)C)c1ccccc1[n+]2C

>  <score_type>  (13) 
oracle

>  <origin>  (13) 
adg

>  <m_score__min__energy>  (13) 
-4.5099999999999998

>  <m_primary>  (13) 
energy

$$$$
13:0
     RDKit          3D

 47 48  0  0  0  0  0  0  0  0999 V2000
   61.0207   32.8539   52.5305 H   0  0  0  0  0  0  0  0  0  0  0  0
   61.2240   33.0180   51.4620 C   0  0  0  0  0  0  0  0  0  0  0  0
   62.4820   32.7140   50.9420 C   0  0  0  0  0  0  0  0  0  0  0  0
   63.2586   32.3057   51.6055 H   0  0  0  0  0  0  0  0  0  0  0  0
   62.7720   32.9220   49.5810 C   0  0  0  0  0  0  0  0  0  0  0  0
   64.0380   32.6130   49.0480 O   0  0  0  0  0  0  0  0  0  0  0  0
   65.2660   32.7000   49.7610 C   0  0  0  0  0  0  0  0  0  0  0  0
   65.0640   32.6857   50.8422 H   0  0  0  0  0  0  0  0  0  0  0  0
   65.9052   31.8449   49.4960 H   0  0  0  0  0  0  0  0  0  0  0  0
   65.7783   33.6367   49.4960 H   0  0  0  0  0  0  0  0  0  0  0  0
   61.7720   33.4460   48.7270 C   0  0  0  0  0  0  0  0  0  0  0  0
   62.0700   33.6730   47.3560 C   0  0  0  0  0  0  0  0  0  0  0  0
   63.0918   33.4392   47.0226 H   0  0  0  0  0  0  0  0  0  0  0  0
   61.1800   34.1690   46.3850 C   0  0  0  0  0  0  0  0  0  0  0  0
   61.5543   34.2996   45.3589 H   0  0  0  0  0  0  0  0  0  0  0  0
   59.8430   34.5070   46.6480 C   0  0  0  0  0  0  0  0  0  0  0  0
   59.0110   34.9380   45.7430 N   0  0  0  0  0  0  0  0  0  0  0  0
   58.1050   34.1370   44.9160 C   0  0  0  0  0  0  0  0  0  0  0  0
   58.6953   33.4350   44.3088 H   0  0  0  0  0  0  0  0  0  0  0  0
   57.5290   34.8115   44.2654 H   0  0  0  0  0  0  0  0  0  0  0  0
   57.1310   33.3470   45.7940 C   0  0  0  0  0  0  0  0  0  0  0  0
   56.0965   33.5902   45.5101 H   0  0  0  0  0  0  0  0  0  0  0  0
   57.2833   33.6093   46.8513 H   0  0  0  0  0  0  0  0  0  0  0  0
   57.3640   31.9670   45.6030 O   0  0  0  0  0  0  0  0  0  0  0  0
   57.5500   31.6970   44.2320 C   0  0  0  0  0  0  0  0  0  0  0  0
   58.6223   31.5716   44.0215 H   0  0  0  0  0  0  0  0  0  0  0  0
   57.1631   32.5320   43.6294 H   0  0  0  0  0  0  0  0  0  0  0  0
   56.8030   30.4110   43.8810 C   0  0  0  0  0  0  0  0  0  0  0  0
   57.4806   29.7375   43.3358 H   0  0  0  0  0  0  0  0  0  0  0  0
   55.9340   30.6667   43.2569 H   0  0  0  0  0  0  0  0  0  0  0  0
   56.3280   29.7360   45.0970 N   0  0  0  0  0  0  0  0  0  0  0  0
   56.6430   30.3100   45.9100 H   0  0  0  0  0  0  0  0  0  0  0  0
   56.9460   28.4120   45.2550 C   0  0  0  0  0  0  0  0  0  0  0  0
   56.1598   27.6435   45.2185 H   0  0  0  0  0  0  0  0  0  0  0  0
   57.4709   28.3882   46.2214 H   0  0  0  0  0  0  0  0  0  0  0  0
   57.9610   28.1360   44.1510 C   0  0  0  0  0  0  0  0  0  0  0  0
   58.9296   27.8726   44.6009 H   0  0  0  0  0  0  0  0  0  0  0  0
   57.6071   27.3015   43.5278 H   0  0  0  0  0  0  0  0  0  0  0  0
   58.0785   29.0348   43.5278 H   0  0  0  0  0  0  0  0  0  0  0  0
   59.3000   34.3270   48.2320 S   0  0  0  0  0  0  0  0  0  0  0  0
   60.4960   33.7340   49.2730 C   0  0  0  0  0  0  0  0  0  0  0  0
   60.2170   33.5310   50.6330 C   0  0  0  0  0  0  0  0  0  0  0  0
   58.9410   33.8510   51.1270 O   0  0  0  0  0  0  0  0  0  0  0  0
   58.6560   34.1760   52.4820 C   0  0  0  0  0  0  0  0  0  0  0  0
   59.2340   33.5169   53.1465 H   0  0  0  0  0  0  0  0  0  0  0  0
   58.9321   35.2234   52.6737 H   0  0  0  0  0  0  0  0  0  0  0  0
   57.5815   34.0390   52.6737 H   0  0  0  0  0  0  0  0  0  0  0  0
  1  2  1  0
  2  3  2  0
  3  4  1  0
  3  5  1  0
  5  6  1  0
  6  7  1  0
  7  8  1  0
  7  9  1  0
  7 10  1  0
  5 11  2  0
 11 12  1  0
 12 13  1  0
 12 14  2  0
 14 15  1  0
 14 16  1  0
 16 17  2  0
 17 18  1  0
 18 19  1  0
 18 20  1  0
 18 21  1  0
 21 22  1  0
 21 23  1  0
 21 24  1  0
 24 25  1  0
 25 26  1  0
 25 27  1  0
 25 28  1  0
 28 29  1  0
 28 30  1  0
 28 31  1  0
 31 32  1  0
 31 33  1  0
 33 34  1  0
 33 35  1  0
 33 36  1  0
 36 37  1  0
 36 38  1  0
 36 39  1  0
 16 40  1  0
 40 41  1  0
 41 42  2  0
 42 43  1  0
 43 44  1  0
 44 45  1  0
 44 46  1  0
 44 47  1  0
 42  2  1  0
 41 11  1  0
M  END
>  <UniqueID>  (14) 
13

>  <SMILES>  (14) 
CCNCCOCC/N=c1\ccc2c(OC)ccc(OC)c2s1

>  <Energy>  (14) 
47.86301427116628

>  <Genealogy>  (14) 
CCNCCOCC/N=c1\ccc2c(OC)ccc(OC)c2s1 (cis-trans isomerization)
CCNCCOCC/N=c1\ccc2c(OC)ccc(OC)c2s1 (3D coordinates assigned)
CCNCCOCC/N=c1\ccc2c(OC)ccc(OC)c2s1 (optimized conformer: 47.86301427116628 kcal/mol)

>  <smiles>  (14) 
CCNCCOCCN=c1ccc2c(OC)ccc(OC)c2s1

>  <score_type>  (14) 
oracle

>  <origin>  (14) 
adg

>  <m_score__min__energy>  (14) 
-6.3499999999999996

>  <m_primary>  (14) 
energy

$$$$
14:0
     RDKit          3D

 56 58  0  0  0  0  0  0  0  0999 V2000
   58.2110   33.2080   44.0100 C   0  0  0  0  0  0  0  0  0  0  0  0
   57.3980   31.9170   44.0890 C   0  0  0  0  0  0  0  0  0  0  0  0
   57.4260   31.2020   42.8020 N   0  0  0  0  0  0  0  0  0  0  0  0
   56.5620   30.0090   42.8160 C   0  0  0  0  0  0  0  0  0  0  0  0
   57.0610   28.9620   43.7840 C   0  0  0  0  0  0  0  0  0  0  0  0
   58.0380   28.0390   43.3810 C   0  0  0  0  0  0  0  0  0  0  0  0
   58.5270   27.0890   44.2830 C   0  0  0  0  0  0  0  0  0  0  0  0
   58.0450   27.0500   45.6000 C   0  0  0  0  0  0  0  0  0  0  0  0
   58.6060   26.0480   46.5830 C   0  0  0  0  0  0  0  0  0  0  0  0
   59.3720   26.6980   47.6570 N   0  0  0  0  0  0  0  0  0  0  0  0
   60.4010   27.6010   47.1250 C   0  0  0  0  0  0  0  0  0  0  0  0
   59.9490   29.0260   47.2770 C   0  0  0  0  0  0  0  0  0  0  0  0
   60.0110   29.9090   46.1890 C   0  0  0  0  0  0  0  0  0  0  0  0
   59.6220   31.2430   46.3390 C   0  0  0  0  0  0  0  0  0  0  0  0
   59.1800   31.7210   47.5880 C   0  0  0  0  0  0  0  0  0  0  0  0
   58.7840   33.0550   47.7850 O   0  0  0  0  0  0  0  0  0  0  0  0
   59.5840   34.2050   47.5130 C   0  0  0  0  0  0  0  0  0  0  0  0
   61.0460   33.8990   47.7040 C   0  0  0  0  0  0  0  0  0  0  0  0
   61.8970   33.8030   46.5900 C   0  0  0  0  0  0  0  0  0  0  0  0
   63.2530   33.5080   46.7620 C   0  0  0  0  0  0  0  0  0  0  0  0
   63.7670   33.2980   48.0460 C   0  0  0  0  0  0  0  0  0  0  0  0
   62.9250   33.3800   49.1580 C   0  0  0  0  0  0  0  0  0  0  0  0
   61.5680   33.6740   48.9900 C   0  0  0  0  0  0  0  0  0  0  0  0
   59.1310   30.8380   48.6780 C   0  0  0  0  0  0  0  0  0  0  0  0
   58.5480   31.4460   50.3970 Br  0  0  0  0  0  0  0  0  0  0  0  0
   59.5180   29.5020   48.5240 C   0  0  0  0  0  0  0  0  0  0  0  0
   57.0720   27.9760   46.0050 C   0  0  0  0  0  0  0  0  0  0  0  0
   56.5830   28.9260   45.1040 C   0  0  0  0  0  0  0  0  0  0  0  0
   58.4347   33.5632   45.0267 H   0  0  0  0  0  0  0  0  0  0  0  0
   59.1518   33.0166   43.4732 H   0  0  0  0  0  0  0  0  0  0  0  0
   57.6318   33.9738   43.4732 H   0  0  0  0  0  0  0  0  0  0  0  0
   57.8235   31.2701   44.8703 H   0  0  0  0  0  0  0  0  0  0  0  0
   56.3549   32.1712   44.3286 H   0  0  0  0  0  0  0  0  0  0  0  0
   58.4080   30.9260   42.5670 H   0  0  0  0  0  0  0  0  0  0  0  0
   57.0770   31.8420   42.0510 H   0  0  0  0  0  0  0  0  0  0  0  0
   55.5457   30.3097   43.1104 H   0  0  0  0  0  0  0  0  0  0  0  0
   56.5700   29.5711   41.8070 H   0  0  0  0  0  0  0  0  0  0  0  0
   58.4212   28.0629   42.3502 H   0  0  0  0  0  0  0  0  0  0  0  0
   59.2929   26.3692   43.9586 H   0  0  0  0  0  0  0  0  0  0  0  0
   57.7734   25.4859   47.0310 H   0  0  0  0  0  0  0  0  0  0  0  0
   59.2881   25.3809   46.0356 H   0  0  0  0  0  0  0  0  0  0  0  0
   59.8340   25.9650   48.2450 H   0  0  0  0  0  0  0  0  0  0  0  0
   61.3395   27.4536   47.6795 H   0  0  0  0  0  0  0  0  0  0  0  0
   60.5642   27.3813   46.0596 H   0  0  0  0  0  0  0  0  0  0  0  0
   60.3677   29.5497   45.2124 H   0  0  0  0  0  0  0  0  0  0  0  0
   59.6613   31.9240   45.4760 H   0  0  0  0  0  0  0  0  0  0  0  0
   59.4154   34.5236   46.4737 H   0  0  0  0  0  0  0  0  0  0  0  0
   59.2980   35.0056   48.2111 H   0  0  0  0  0  0  0  0  0  0  0  0
   61.4948   33.9606   45.5784 H   0  0  0  0  0  0  0  0  0  0  0  0
   63.9161   33.4410   45.8869 H   0  0  0  0  0  0  0  0  0  0  0  0
   64.8343   33.0683   48.1802 H   0  0  0  0  0  0  0  0  0  0  0  0
   63.3300   33.2131   50.1670 H   0  0  0  0  0  0  0  0  0  0  0  0
   60.9066   33.7294   49.8672 H   0  0  0  0  0  0  0  0  0  0  0  0
   59.4840   28.8205   49.3868 H   0  0  0  0  0  0  0  0  0  0  0  0
   56.6920   27.9543   47.0370 H   0  0  0  0  0  0  0  0  0  0  0  0
   55.8205   29.6486   45.4302 H   0  0  0  0  0  0  0  0  0  0  0  0
  1  2  1  0
  2  3  1  0
  3  4  1  0
  4  5  1  0
  5  6  2  0
  6  7  1  0
  7  8  2  0
  8  9  1  0
  9 10  1  0
 10 11  1  0
 11 12  1  0
 12 13  2  0
 13 14  1  0
 14 15  2  0
 15 16  1  0
 16 17  1  0
 17 18  1  0
 18 19  2  0
 19 20  1  0
 20 21  2  0
 21 22  1  0
 22 23  2  0
 15 24  1  0
 24 25  1  0
 24 26  2  0
  8 27  1  0
 27 28  2  0
 28  5  1  0
 26 12  1  0
 23 18  1  0
  1 29  1  0
  1 30  1  0
  1 31  1  0
  2 32  1  0
  2 33  1  0
  3 34  1  0
  3 35  1  0
  4 36  1  0
  4 37  1  0
  6 38  1  0
  7 39  1  0
  9 40  1  0
  9 41  1  0
 10 42  1  0
 11 43  1  0
 11 44  1  0
 13 45  1  0
 14 46  1  0
 17 47  1  0
 17 48  1  0
 19 49  1  0
 20 50  1  0
 21 51  1  0
 22 52  1  0
 23 53  1  0
 26 54  1  0
 27 55  1  0
 28 56  1  0
M  CHG  1   3   1
M  END
>  <UniqueID>  (15) 
14

>  <SMILES>  (15) 
CC[NH2+]Cc1ccc(CNCc2ccc(OCc3ccccc3)c(Br)c2)cc1

>  <Energy>  (15) 
53.14369199953955

>  <Genealogy>  (15) 
CC[NH2+]Cc1ccc(CNCc2ccc(OCc3ccccc3)c(Br)c2)cc1 (protonated)
CC[NH2+]Cc1ccc(CNCc2ccc(OCc3ccccc3)c(Br)c2)cc1 (3D coordinates assigned)
CC[NH2+]Cc1ccc(CNCc2ccc(OCc3ccccc3)c(Br)c2)cc1 (optimized conformer: 53.14369199953955 kcal/mol)

>  <smiles>  (15) 
CCNCc1ccc(CNCc2ccc(OCc3ccccc3)c(Br)c2)cc1

>  <score_type>  (15) 
oracle

>  <origin>  (15) 
adg

>  <m_score__min__energy>  (15) 
-6.9500000000000002

>  <m_primary>  (15) 
energy

$$$$
15:0
     RDKit          3D

 46 49  0  0  0  0  0  0  0  0999 V2000
   63.7300   28.8520   52.0370 C   0  0  0  0  0  0  0  0  0  0  0  0
   63.6330   29.9910   51.1880 O   0  0  0  0  0  0  0  0  0  0  0  0
   64.6750   30.9030   50.9560 C   0  0  0  0  0  0  0  0  0  0  0  0
   65.9280   30.7790   51.5900 C   0  0  0  0  0  0  0  0  0  0  0  0
   66.9580   31.6780   51.3050 C   0  0  0  0  0  0  0  0  0  0  0  0
   66.7550   32.7060   50.3840 C   0  0  0  0  0  0  0  0  0  0  0  0
   67.7610   33.5720   50.1020 F   0  0  0  0  0  0  0  0  0  0  0  0
   65.5170   32.8450   49.7540 C   0  0  0  0  0  0  0  0  0  0  0  0
   64.4670   31.9640   50.0490 C   0  0  0  0  0  0  0  0  0  0  0  0
   63.1710   32.1350   49.3630 C   0  0  0  0  0  0  0  0  0  0  0  0
   62.0070   31.6790   49.8810 N   0  0  0  0  0  0  0  0  0  0  0  0
   61.0680   32.0530   48.9980 C   0  0  0  0  0  0  0  0  0  0  0  0
   61.6570   32.7290   47.9640 C   0  0  0  0  0  0  0  0  0  0  0  0
   62.9900   32.7710   48.1750 N   0  0  0  0  0  0  0  0  0  0  0  0
   64.0020   33.3940   47.3200 C   0  0  0  0  0  0  0  0  0  0  0  0
   60.8770   33.4430   46.9410 C   0  0  0  0  0  0  0  0  0  0  0  0
   61.4360   33.8860   45.9020 O   0  0  0  0  0  0  0  0  0  0  0  0
   59.4570   33.6200   47.1450 N   0  0  0  0  0  0  0  0  0  0  0  0
   58.6010   34.0900   46.0490 C   0  0  0  0  0  0  0  0  0  0  0  0
   58.2090   32.9390   45.1610 C   0  0  0  0  0  0  0  0  0  0  0  0
   57.8570   31.7020   45.7270 C   0  0  0  0  0  0  0  0  0  0  0  0
   57.4670   30.6380   44.9070 C   0  0  0  0  0  0  0  0  0  0  0  0
   57.4220   30.8030   43.5200 C   0  0  0  0  0  0  0  0  0  0  0  0
   57.7670   32.0310   42.9510 C   0  0  0  0  0  0  0  0  0  0  0  0
   58.1590   33.0970   43.7660 C   0  0  0  0  0  0  0  0  0  0  0  0
   58.8920   33.4310   48.4950 C   0  0  0  0  0  0  0  0  0  0  0  0
   59.3060   31.7700   49.1460 S   0  0  0  0  0  0  0  0  0  0  0  0
   63.7025   29.1748   53.0882 H   0  0  0  0  0  0  0  0  0  0  0  0
   62.8863   28.1744   51.8393 H   0  0  0  0  0  0  0  0  0  0  0  0
   64.6761   28.3268   51.8393 H   0  0  0  0  0  0  0  0  0  0  0  0
   66.0956   29.9683   52.3144 H   0  0  0  0  0  0  0  0  0  0  0  0
   67.9311   31.5754   51.8076 H   0  0  0  0  0  0  0  0  0  0  0  0
   65.3643   33.6511   49.0213 H   0  0  0  0  0  0  0  0  0  0  0  0
   61.8650   31.1670   50.7800 H   0  0  0  0  0  0  0  0  0  0  0  0
   64.7712   33.8676   47.9477 H   0  0  0  0  0  0  0  0  0  0  0  0
   64.4684   32.6264   46.6849 H   0  0  0  0  0  0  0  0  0  0  0  0
   63.5267   34.1561   46.6849 H   0  0  0  0  0  0  0  0  0  0  0  0
   57.6940   34.5497   46.4686 H   0  0  0  0  0  0  0  0  0  0  0  0
   59.1568   34.8286   45.4527 H   0  0  0  0  0  0  0  0  0  0  0  0
   57.8882   31.5699   46.8186 H   0  0  0  0  0  0  0  0  0  0  0  0
   57.1955   29.6704   45.3543 H   0  0  0  0  0  0  0  0  0  0  0  0
   57.1148   29.9656   42.8763 H   0  0  0  0  0  0  0  0  0  0  0  0
   57.7302   32.1596   41.8592 H   0  0  0  0  0  0  0  0  0  0  0  0
   58.4292   34.0626   43.3136 H   0  0  0  0  0  0  0  0  0  0  0  0
   59.3049   34.1959   49.1692 H   0  0  0  0  0  0  0  0  0  0  0  0
   57.7975   33.5239   48.4355 H   0  0  0  0  0  0  0  0  0  0  0  0
  1  2  1  0
  2  3  1  0
  3  4  2  0
  4  5  1  0
  5  6  2  0
  6  7  1  0
  6  8  1  0
  8  9  2  0
  9 10  1  0
 10 11  2  0
 11 12  1  0
 12 13  2  0
 13 14  1  0
 14 15  1  0
 13 16  1  0
 16 17  2  0
 16 18  1  0
 18 19  1  0
 19 20  1  0
 20 21  2  0
 21 22  1  0
 22 23  2  0
 23 24  1  0
 24 25  2  0
 18 26  1  0
 26 27  1  0
  9  3  1  0
 14 10  1  0
 25 20  1  0
 27 12  1  0
  1 28  1  0
  1 29  1  0
  1 30  1  0
  4 31  1  0
  5 32  1  0
  8 33  1  0
 11 34  1  0
 15 35  1  0
 15 36  1  0
 15 37  1  0
 19 38  1  0
 19 39  1  0
 21 40  1  0
 22 41  1  0
 23 42  1  0
 24 43  1  0
 25 44  1  0
 26 45  1  0
 26 46  1  0
M  CHG  1  11   1
M  END
>  <UniqueID>  (16) 
15

>  <SMILES>  (16) 
COc1ccc(F)cc1-c1[nH+]c2c(n1C)C(=O)N(Cc1ccccc1)CS2

>  <Energy>  (16) 
91.7434388505897

>  <Genealogy>  (16) 
COc1ccc(F)cc1-c1[nH+]c2c(n1C)C(=O)N(Cc1ccccc1)CS2 (protonated)
COc1ccc(F)cc1-c1[nH+]c2c(n1C)C(=O)N(Cc1ccccc1)CS2 (3D coordinates assigned)
COc1ccc(F)cc1-c1[nH+]c2c(n1C)C(=O)N(Cc1ccccc1)CS2 (nonaromatic ring conformer: 91.7434388505897 kcal/mol)

>  <smiles>  (16) 
COc1ccc(F)cc1-c1nc2c(n1C)C(=O)N(Cc1ccccc1)CS2

>  <score_type>  (16) 
oracle

>  <origin>  (16) 
adg

>  <m_score__min__energy>  (16) 
-6.04

>  <m_primary>  (16) 
energy

$$$$
16:0
     RDKit          3D

 79 82  0  0  0  0  0  0  0  0999 V2000
   65.1400   32.4020   50.0240 C   0  0  0  0  0  0  0  0  0  0  0  0
   63.7450   33.0230   49.8970 C   0  0  0  0  0  0  0  0  0  0  0  0
   63.0990   32.8080   48.5800 N   0  0  0  0  0  0  0  0  0  0  0  0
   62.9880   34.0270   47.7400 C   0  0  0  0  0  0  0  0  0  0  0  0
   63.3560   33.8200   46.2600 C   0  0  0  0  0  0  0  0  0  0  0  0
   63.4980   31.5810   47.8560 C   0  0  0  0  0  0  0  0  0  0  0  0
   62.3040   30.9450   47.1160 C   0  0  0  0  0  0  0  0  0  0  0  0
   61.0780   30.9290   47.9400 N   0  0  0  0  0  0  0  0  0  0  0  0
   59.8630   31.1490   47.1600 C   0  0  0  0  0  0  0  0  0  0  0  0
   59.1310   30.0430   46.6640 C   0  0  0  0  0  0  0  0  0  0  0  0
   59.1100   28.8040   47.3440 C   0  0  0  0  0  0  0  0  0  0  0  0
   58.3980   27.7200   46.8340 C   0  0  0  0  0  0  0  0  0  0  0  0
   57.6750   27.8560   45.6550 C   0  0  0  0  0  0  0  0  0  0  0  0
   57.6540   29.0760   44.9820 C   0  0  0  0  0  0  0  0  0  0  0  0
   58.3900   30.1870   45.4630 C   0  0  0  0  0  0  0  0  0  0  0  0
   58.4020   31.3910   44.7920 N   0  0  0  0  0  0  0  0  0  0  0  0
   57.9730   31.4550   43.3780 C   0  0  0  0  0  0  0  0  0  0  0  0
   58.7960   32.5370   45.4550 C   0  0  0  0  0  0  0  0  0  0  0  0
   58.5140   33.8190   44.9260 C   0  0  0  0  0  0  0  0  0  0  0  0
   58.9070   34.9730   45.5910 C   0  0  0  0  0  0  0  0  0  0  0  0
   59.5360   34.8880   46.8240 C   0  0  0  0  0  0  0  0  0  0  0  0
   59.8050   33.6420   47.4080 C   0  0  0  0  0  0  0  0  0  0  0  0
   60.2440   33.6090   48.7740 N   0  0  0  0  0  0  0  0  0  0  0  0
   59.3230   33.7340   49.9040 C   0  0  0  0  0  0  0  0  0  0  0  0
   60.0400   33.3360   51.2150 C   0  0  0  0  0  0  0  0  0  0  0  0
   60.1120   31.8650   51.4950 N   0  0  0  0  0  0  0  0  0  0  0  0
   59.7060   31.6100   52.9050 C   0  0  0  0  0  0  0  0  0  0  0  0
   59.1470   31.2020   50.5620 C   0  0  0  0  0  0  0  0  0  0  0  0
   59.2810   29.6690   50.5160 C   0  0  0  0  0  0  0  0  0  0  0  0
   60.6640   29.2850   50.1960 N   0  0  0  0  0  0  0  0  0  0  0  0
   60.7810   27.8190   50.1470 C   0  0  0  0  0  0  0  0  0  0  0  0
   61.5790   29.8260   51.2110 C   0  0  0  0  0  0  0  0  0  0  0  0
   61.4940   31.3600   51.2390 C   0  0  0  0  0  0  0  0  0  0  0  0
   59.4910   32.4440   46.6980 C   0  0  0  0  0  0  0  0  0  0  0  0
   65.3953   32.2884   51.0879 H   0  0  0  0  0  0  0  0  0  0  0  0
   65.1478   31.4154   49.5376 H   0  0  0  0  0  0  0  0  0  0  0  0
   65.8783   33.0564   49.5376 H   0  0  0  0  0  0  0  0  0  0  0  0
   63.1005   32.5837   50.6727 H   0  0  0  0  0  0  0  0  0  0  0  0
   63.8723   34.1096   50.0118 H   0  0  0  0  0  0  0  0  0  0  0  0
   61.9486   34.3838   47.7886 H   0  0  0  0  0  0  0  0  0  0  0  0
   63.7116   34.7508   48.1432 H   0  0  0  0  0  0  0  0  0  0  0  0
   64.3129   33.2817   46.1919 H   0  0  0  0  0  0  0  0  0  0  0  0
   62.5687   33.2324   45.7651 H   0  0  0  0  0  0  0  0  0  0  0  0
   63.4494   34.7980   45.7651 H   0  0  0  0  0  0  0  0  0  0  0  0
   64.2773   31.8365   47.1229 H   0  0  0  0  0  0  0  0  0  0  0  0
   63.8736   30.8543   48.5914 H   0  0  0  0  0  0  0  0  0  0  0  0
   62.1073   31.5219   46.2003 H   0  0  0  0  0  0  0  0  0  0  0  0
   62.5679   29.9024   46.8849 H   0  0  0  0  0  0  0  0  0  0  0  0
   61.0770   29.9960   48.4070 H   0  0  0  0  0  0  0  0  0  0  0  0
   61.1540   31.6170   48.7180 H   0  0  0  0  0  0  0  0  0  0  0  0
   59.6631   28.6939   48.2884 H   0  0  0  0  0  0  0  0  0  0  0  0
   58.4083   26.7566   47.3647 H   0  0  0  0  0  0  0  0  0  0  0  0
   57.1175   26.9978   45.2517 H   0  0  0  0  0  0  0  0  0  0  0  0
   57.0571   29.1780   44.0637 H   0  0  0  0  0  0  0  0  0  0  0  0
   56.8860   31.6172   43.3316 H   0  0  0  0  0  0  0  0  0  0  0  0
   58.4895   32.2860   42.8754 H   0  0  0  0  0  0  0  0  0  0  0  0
   58.2244   30.5094   42.8754 H   0  0  0  0  0  0  0  0  0  0  0  0
   57.9740   33.9028   43.9713 H   0  0  0  0  0  0  0  0  0  0  0  0
   58.7188   35.9577   45.1383 H   0  0  0  0  0  0  0  0  0  0  0  0
   59.8273   35.8090   47.3501 H   0  0  0  0  0  0  0  0  0  0  0  0
   61.2130   33.2610   48.9620 H   0  0  0  0  0  0  0  0  0  0  0  0
   58.9774   34.7756   49.9792 H   0  0  0  0  0  0  0  0  0  0  0  0
   58.4629   33.0670   49.7452 H   0  0  0  0  0  0  0  0  0  0  0  0
   61.0690   33.7220   51.1682 H   0  0  0  0  0  0  0  0  0  0  0  0
   59.4387   33.7674   52.0289 H   0  0  0  0  0  0  0  0  0  0  0  0
   60.4375   32.0695   53.5860 H   0  0  0  0  0  0  0  0  0  0  0  0
   58.7126   32.0467   53.0852 H   0  0  0  0  0  0  0  0  0  0  0  0
   59.6680   30.5255   53.0852 H   0  0  0  0  0  0  0  0  0  0  0  0
   58.1254   31.4513   50.8849 H   0  0  0  0  0  0  0  0  0  0  0  0
   59.3716   31.5738   49.5514 H   0  0  0  0  0  0  0  0  0  0  0  0
   59.0064   29.2515   51.4959 H   0  0  0  0  0  0  0  0  0  0  0  0
   58.6118   29.2754   49.7367 H   0  0  0  0  0  0  0  0  0  0  0  0
   60.8129   27.4193   51.1713 H   0  0  0  0  0  0  0  0  0  0  0  0
   59.9135   27.3995   49.6165 H   0  0  0  0  0  0  0  0  0  0  0  0
   61.7041   27.5424   49.6165 H   0  0  0  0  0  0  0  0  0  0  0  0
   61.3019   29.4287   52.1986 H   0  0  0  0  0  0  0  0  0  0  0  0
   62.6081   29.5282   50.9615 H   0  0  0  0  0  0  0  0  0  0  0  0
   62.1561   31.7330   52.0343 H   0  0  0  0  0  0  0  0  0  0  0  0
   61.7978   31.7238   50.2463 H   0  0  0  0  0  0  0  0  0  0  0  0
  1  2  1  0
  2  3  1  0
  3  4  1  0
  4  5  1  0
  3  6  1  0
  6  7  1  0
  7  8  1  0
  8  9  1  0
  9 10  2  0
 10 11  1  0
 11 12  2  0
 12 13  1  0
 13 14  2  0
 14 15  1  0
 15 16  2  0
 16 17  1  0
 16 18  1  0
 18 19  2  0
 19 20  1  0
 20 21  2  0
 21 22  1  0
 22 23  1  0
 23 24  1  0
 24 25  1  0
 25 26  1  0
 26 27  1  0
 26 28  1  0
 28 29  1  0
 29 30  1  0
 30 31  1  0
 30 32  1  0
 32 33  1  0
 22 34  2  0
 34  9  1  0
 15 10  1  0
 34 18  1  0
 33 26  1  0
  1 35  1  0
  1 36  1  0
  1 37  1  0
  2 38  1  0
  2 39  1  0
  4 40  1  0
  4 41  1  0
  5 42  1  0
  5 43  1  0
  5 44  1  0
  6 45  1  0
  6 46  1  0
  7 47  1  0
  7 48  1  0
  8 49  1  0
  8 50  1  0
 11 51  1  0
 12 52  1  0
 13 53  1  0
 14 54  1  0
 17 55  1  0
 17 56  1  0
 17 57  1  0
 19 58  1  0
 20 59  1  0
 21 60  1  0
 23 61  1  0
 24 62  1  0
 24 63  1  0
 25 64  1  0
 25 65  1  0
 27 66  1  0
 27 67  1  0
 27 68  1  0
 28 69  1  0
 28 70  1  0
 29 71  1  0
 29 72  1  0
 31 73  1  0
 31 74  1  0
 31 75  1  0
 32 76  1  0
 32 77  1  0
 33 78  1  0
 33 79  1  0
M  CHG  3   8   1  16   1  26   1
M  END
>  <UniqueID>  (17) 
16

>  <SMILES>  (17) 
CCN(CC)CC[NH2+]c1c2ccccc2[n+](C)c2cccc(NCC[N+]3(C)CCN(C)CC3)c12

>  <Energy>  (17) 
137.58882360299572

>  <Genealogy>  (17) 
CCN(CC)CC[NH2+]c1c2ccccc2[n+](C)c2cccc(NCC[N+]3(C)CCN(C)CC3)c12 (protonated)
CCN(CC)CC[NH2+]c1c2ccccc2[n+](C)c2cccc(NCC[N+]3(C)CCN(C)CC3)c12 (3D coordinates assigned)
CCN(CC)CC[NH2+]c1c2ccccc2[n+](C)c2cccc(NCC[N+]3(C)CCN(C)CC3)c12 (nonaromatic ring conformer: 137.58882360299572 kcal/mol)

>  <smiles>  (17) 
CCN(CC)CCNc1c2ccccc2[n+](C)c2cccc(NCC[N+]3(C)CCN(C)CC3)c12

>  <score_type>  (17) 
oracle

>  <origin>  (17) 
adg

>  <m_score__min__energy>  (17) 
-4.0899999999999999

>  <m_primary>  (17) 
energy

$$$$
