1:0
     RDKit          3D

 39 42  0  0  0  0  0  0  0  0999 V2000
   57.3530   29.2630   45.0810 C   0  0  0  0  0  0  0  0  0  0  0  0
   57.7560   30.6740   45.2630 C   0  0  0  0  0  0  0  0  0  0  0  0
   57.0280   31.7550   44.8880 N   0  0  0  0  0  0  0  0  0  0  0  0
   57.6540   32.8670   45.1950 N   0  0  0  0  0  0  0  0  0  0  0  0
   57.1740   34.2170   44.9410 C   0  0  0  0  0  0  0  0  0  0  0  0
   58.8160   32.5260   45.7840 C   0  0  0  0  0  0  0  0  0  0  0  0
   59.8410   33.2560   46.3010 N   0  0  0  0  0  0  0  0  0  0  0  0
   60.9150   32.6240   46.8550 C   0  0  0  0  0  0  0  0  0  0  0  0
   61.9800   33.5170   47.3920 C   0  0  0  0  0  0  0  0  0  0  0  0
   63.0480   33.8420   46.3740 C   0  0  0  0  0  0  0  0  0  0  0  0
   63.3740   33.0500   47.5710 C   0  0  0  0  0  0  0  0  0  0  0  0
   60.9750   31.2900   46.8940 N   0  0  0  0  0  0  0  0  0  0  0  0
   59.9800   30.5050   46.3920 C   0  0  0  0  0  0  0  0  0  0  0  0
   60.1490   29.1090   46.4680 N   0  0  0  0  0  0  0  0  0  0  0  0
   60.1430   28.3640   47.7370 C   0  0  0  0  0  0  0  0  0  0  0  0
   58.9110   27.4710   47.7420 C   0  0  0  0  0  0  0  0  0  0  0  0
   58.5940   27.0470   46.4560 O   0  0  0  0  0  0  0  0  0  0  0  0
   59.7140   26.9400   45.6430 C   0  0  0  0  0  0  0  0  0  0  0  0
   60.3380   28.2650   45.2780 C   0  0  0  0  0  0  0  0  0  0  0  0
   58.9020   31.1490   45.8380 C   0  0  0  0  0  0  0  0  0  0  0  0
   57.2180   28.7904   46.0651 H   0  0  0  0  0  0  0  0  0  0  0  0
   56.4070   29.2211   44.5213 H   0  0  0  0  0  0  0  0  0  0  0  0
   58.1342   28.7278   44.5213 H   0  0  0  0  0  0  0  0  0  0  0  0
   56.9924   34.7277   45.8982 H   0  0  0  0  0  0  0  0  0  0  0  0
   57.9296   34.7728   44.3664 H   0  0  0  0  0  0  0  0  0  0  0  0
   56.2371   34.1710   44.3664 H   0  0  0  0  0  0  0  0  0  0  0  0
   61.2870   34.0364   48.0702 H   0  0  0  0  0  0  0  0  0  0  0  0
   63.0300   33.3629   45.3840 H   0  0  0  0  0  0  0  0  0  0  0  0
   63.4373   34.7644   45.9185 H   0  0  0  0  0  0  0  0  0  0  0  0
   63.6082   31.9800   47.4702 H   0  0  0  0  0  0  0  0  0  0  0  0
   64.1187   33.1436   48.3752 H   0  0  0  0  0  0  0  0  0  0  0  0
   61.0519   27.7493   47.8151 H   0  0  0  0  0  0  0  0  0  0  0  0
   60.1206   29.0569   48.5910 H   0  0  0  0  0  0  0  0  0  0  0  0
   59.1078   26.5910   48.3720 H   0  0  0  0  0  0  0  0  0  0  0  0
   58.0628   28.0486   48.1382 H   0  0  0  0  0  0  0  0  0  0  0  0
   60.4676   26.3366   46.1703 H   0  0  0  0  0  0  0  0  0  0  0  0
   59.3810   26.4759   44.7029 H   0  0  0  0  0  0  0  0  0  0  0  0
   61.4083   28.1415   45.0564 H   0  0  0  0  0  0  0  0  0  0  0  0
   59.8818   28.7057   44.3793 H   0  0  0  0  0  0  0  0  0  0  0  0
  1  2  1  0
  2  3  2  0
  3  4  1  0
  4  5  1  0
  4  6  1  0
  6  7  2  0
  7  8  1  0
  8  9  1  0
  9 10  1  0
 10 11  1  0
  8 12  2  0
 12 13  1  0
 13 14  1  0
 14 15  1  0
 15 16  1  0
 16 17  1  0
 17 18  1  0
 18 19  1  0
 13 20  2  0
 20  2  1  0
 20  6  1  0
 11  9  1  0
 19 14  1  0
  1 21  1  0
  1 22  1  0
  1 23  1  0
  5 24  1  0
  5 25  1  0
  5 26  1  0
  9 27  1  0
 10 28  1  0
 10 29  1  0
 11 30  1  0
 11 31  1  0
 15 32  1  0
 15 33  1  0
 16 34  1  0
 16 35  1  0
 18 36  1  0
 18 37  1  0
 19 38  1  0
 19 39  1  0
M  END
>  <smiles>  (1) 
Cc1nn(C)c2nc(C3CC3)nc(N3CCOCC3)c12

>  <score_type>  (1) 
oracle

>  <origin>  (1) 
adg

>  <m_score__min__energy>  (1) 
-6.4100000000000001

>  <m_primary>  (1) 
energy

$$$$
2:0
     RDKit          3D

 60 62  0  0  0  0  0  0  0  0999 V2000
   59.3680   34.9730   47.0660 C   0  0  0  0  0  0  0  0  0  0  0  0
   60.3920   34.4880   46.1020 C   0  0  0  0  0  0  0  0  0  0  0  0
   61.3090   33.6020   46.4860 O   0  0  0  0  0  0  0  0  0  0  0  0
   62.6070   33.8460   46.6990 C   0  0  0  0  0  0  0  0  0  0  0  0
   63.4230   32.7000   47.1600 C   0  0  0  0  0  0  0  0  0  0  0  0
   62.6820   31.7750   47.8630 O   0  0  0  0  0  0  0  0  0  0  0  0
   62.6480   31.8910   49.2090 C   0  0  0  0  0  0  0  0  0  0  0  0
   61.8590   33.0680   49.7460 C   0  0  0  0  0  0  0  0  0  0  0  0
   60.6510   33.2690   49.1700 O   0  0  0  0  0  0  0  0  0  0  0  0
   59.5590   32.6540   49.7200 C   0  0  0  0  0  0  0  0  0  0  0  0
   58.7910   32.0380   48.5520 C   0  0  0  0  0  0  0  0  0  0  0  0
   59.6860   31.4910   47.5550 N   0  0  0  0  0  0  0  0  0  0  0  0
   59.3350   30.5110   46.6110 C   0  0  0  0  0  0  0  0  0  0  0  0
   58.6680   30.9430   45.4590 C   0  0  0  0  0  0  0  0  0  0  0  0
   58.3970   32.2860   45.3000 C   0  0  0  0  0  0  0  0  0  0  0  0
   57.7400   32.7550   44.1740 C   0  0  0  0  0  0  0  0  0  0  0  0
   57.3810   31.8100   43.2370 C   0  0  0  0  0  0  0  0  0  0  0  0
   57.6410   30.4620   43.3750 C   0  0  0  0  0  0  0  0  0  0  0  0
   58.2930   30.0020   44.4950 C   0  0  0  0  0  0  0  0  0  0  0  0
   58.5470   28.6950   44.6270 N   0  0  0  0  0  0  0  0  0  0  0  0
   58.1900   27.6750   43.6790 C   0  0  0  0  0  0  0  0  0  0  0  0
   59.2000   28.2710   45.7510 C   0  0  0  0  0  0  0  0  0  0  0  0
   59.4890   26.9170   45.9230 C   0  0  0  0  0  0  0  0  0  0  0  0
   60.1520   26.4440   47.0400 C   0  0  0  0  0  0  0  0  0  0  0  0
   60.5190   27.3740   47.9850 C   0  0  0  0  0  0  0  0  0  0  0  0
   60.2670   28.7200   47.8820 C   0  0  0  0  0  0  0  0  0  0  0  0
   60.6640   29.6120   48.8680 O   0  0  0  0  0  0  0  0  0  0  0  0
   60.5790   29.1880   50.2140 C   0  0  0  0  0  0  0  0  0  0  0  0
   59.5930   29.1630   46.7370 C   0  0  0  0  0  0  0  0  0  0  0  0
   59.7230   34.8049   48.0935 H   0  0  0  0  0  0  0  0  0  0  0  0
   59.1964   36.0481   46.9087 H   0  0  0  0  0  0  0  0  0  0  0  0
   58.4275   34.4247   46.9087 H   0  0  0  0  0  0  0  0  0  0  0  0
   59.8457   34.0339   45.2621 H   0  0  0  0  0  0  0  0  0  0  0  0
   60.9870   35.3897   45.8948 H   0  0  0  0  0  0  0  0  0  0  0  0
   63.0396   34.2068   45.7542 H   0  0  0  0  0  0  0  0  0  0  0  0
   62.6370   34.5767   47.5207 H   0  0  0  0  0  0  0  0  0  0  0  0
   63.8644   32.2052   46.2823 H   0  0  0  0  0  0  0  0  0  0  0  0
   64.1981   33.0911   47.8354 H   0  0  0  0  0  0  0  0  0  0  0  0
   62.2030   30.9713   49.6166 H   0  0  0  0  0  0  0  0  0  0  0  0
   63.6889   32.0589   49.5225 H   0  0  0  0  0  0  0  0  0  0  0  0
   61.6990   32.9065   50.8222 H   0  0  0  0  0  0  0  0  0  0  0  0
   62.4564   33.9628   49.5169 H   0  0  0  0  0  0  0  0  0  0  0  0
   59.8757   31.8710   50.4248 H   0  0  0  0  0  0  0  0  0  0  0  0
   58.9359   33.3654   50.2819 H   0  0  0  0  0  0  0  0  0  0  0  0
   58.1467   31.2323   48.9337 H   0  0  0  0  0  0  0  0  0  0  0  0
   58.1915   32.8297   48.0788 H   0  0  0  0  0  0  0  0  0  0  0  0
   60.6660   31.8520   47.5380 H   0  0  0  0  0  0  0  0  0  0  0  0
   58.7077   32.9965   46.0802 H   0  0  0  0  0  0  0  0  0  0  0  0
   57.5170   33.8232   44.0353 H   0  0  0  0  0  0  0  0  0  0  0  0
   56.8589   32.1489   42.3300 H   0  0  0  0  0  0  0  0  0  0  0  0
   57.3275   29.7570   42.5910 H   0  0  0  0  0  0  0  0  0  0  0  0
   57.8730   26.7693   44.2168 H   0  0  0  0  0  0  0  0  0  0  0  0
   57.3642   28.0343   43.0474 H   0  0  0  0  0  0  0  0  0  0  0  0
   59.0596   27.4409   43.0474 H   0  0  0  0  0  0  0  0  0  0  0  0
   59.1795   26.2033   45.1453 H   0  0  0  0  0  0  0  0  0  0  0  0
   60.3756   25.3745   47.1672 H   0  0  0  0  0  0  0  0  0  0  0  0
   61.0483   27.0165   48.8806 H   0  0  0  0  0  0  0  0  0  0  0  0
   60.7510   30.0462   50.8803 H   0  0  0  0  0  0  0  0  0  0  0  0
   59.5793   28.7705   50.4045 H   0  0  0  0  0  0  0  0  0  0  0  0
   61.3405   28.4174   50.4045 H   0  0  0  0  0  0  0  0  0  0  0  0
  1  2  1  0
  2  3  1  0
  3  4  1  0
  4  5  1  0
  5  6  1  0
  6  7  1  0
  7  8  1  0
  8  9  1  0
  9 10  1  0
 10 11  1  0
 11 12  1  0
 12 13  1  0
 13 14  2  0
 14 15  1  0
 15 16  2  0
 16 17  1  0
 17 18  2  0
 18 19  1  0
 19 20  2  0
 20 21  1  0
 20 22  1  0
 22 23  2  0
 23 24  1  0
 24 25  2  0
 25 26  1  0
 26 27  1  0
 27 28  1  0
 26 29  2  0
 29 13  1  0
 19 14  1  0
 29 22  1  0
  1 30  1  0
  1 31  1  0
  1 32  1  0
  2 33  1  0
  2 34  1  0
  4 35  1  0
  4 36  1  0
  5 37  1  0
  5 38  1  0
  7 39  1  0
  7 40  1  0
  8 41  1  0
  8 42  1  0
 10 43  1  0
 10 44  1  0
 11 45  1  0
 11 46  1  0
 12 47  1  0
 15 48  1  0
 16 49  1  0
 17 50  1  0
 18 51  1  0
 21 52  1  0
 21 53  1  0
 21 54  1  0
 23 55  1  0
 24 56  1  0
 25 57  1  0
 28 58  1  0
 28 59  1  0
 28 60  1  0
M  CHG  1  20   1
M  END
>  <smiles>  (2) 
CCOCCOCCOCCNc1c2ccccc2[n+](C)c2cccc(OC)c12

>  <score_type>  (2) 
oracle

>  <origin>  (2) 
adg

>  <m_score__min__energy>  (2) 
-6.04

>  <m_primary>  (2) 
energy

$$$$
3:0
     RDKit          3D

 64 66  0  0  0  0  0  0  0  0999 V2000
   59.1000   32.6190   51.0150 C   0  0  0  0  0  0  0  0  0  0  0  0
   58.2930   31.9810   49.9040 C   0  0  0  0  0  0  0  0  0  0  0  0
   58.6600   32.5670   48.6980 O   0  0  0  0  0  0  0  0  0  0  0  0
   59.3500   33.7700   48.9080 C   0  0  0  0  0  0  0  0  0  0  0  0
   59.3820   34.4720   47.5870 C   0  0  0  0  0  0  0  0  0  0  0  0
   59.0000   33.6310   46.5190 O   0  0  0  0  0  0  0  0  0  0  0  0
   57.9530   34.2680   45.8800 C   0  0  0  0  0  0  0  0  0  0  0  0
   57.2440   33.4060   44.8600 C   0  0  0  0  0  0  0  0  0  0  0  0
   57.7860   32.0290   44.7820 C   0  0  0  0  0  0  0  0  0  0  0  0
   57.7680   31.2530   45.9520 N   0  0  0  0  0  0  0  0  0  0  0  0
   58.0610   29.8760   45.8860 C   0  0  0  0  0  0  0  0  0  0  0  0
   59.4490   29.5150   46.4900 C   0  0  0  0  0  0  0  0  0  0  0  0
   59.9570   30.6160   47.2410 N   0  0  0  0  0  0  0  0  0  0  0  0
   60.9340   30.7800   48.2150 C   0  0  0  0  0  0  0  0  0  0  0  0
   61.8930   31.8120   47.9960 C   0  0  0  0  0  0  0  0  0  0  0  0
   62.9040   32.0590   48.8880 C   0  0  0  0  0  0  0  0  0  0  0  0
   63.0040   31.3000   50.0240 N   0  0  0  0  0  0  0  0  0  0  0  0
   64.0390   31.5490   51.0110 C   0  0  0  0  0  0  0  0  0  0  0  0
   62.1360   30.3180   50.2830 C   0  0  0  0  0  0  0  0  0  0  0  0
   62.2780   29.5770   51.4350 C   0  0  0  0  0  0  0  0  0  0  0  0
   61.3970   28.5350   51.7520 C   0  0  0  0  0  0  0  0  0  0  0  0
   60.3940   28.3110   50.8410 C   0  0  0  0  0  0  0  0  0  0  0  0
   60.2590   29.0610   49.6840 C   0  0  0  0  0  0  0  0  0  0  0  0
   61.1130   30.0810   49.3620 C   0  0  0  0  0  0  0  0  0  0  0  0
   63.9540   33.0830   48.7320 C   0  0  0  0  0  0  0  0  0  0  0  0
   64.0620   33.4630   47.2790 C   0  0  0  0  0  0  0  0  0  0  0  0
   62.7310   33.7760   46.6860 C   0  0  0  0  0  0  0  0  0  0  0  0
   61.7620   32.6490   46.7720 C   0  0  0  0  0  0  0  0  0  0  0  0
   58.6985   32.3016   51.9887 H   0  0  0  0  0  0  0  0  0  0  0  0
   60.1509   32.3049   50.9317 H   0  0  0  0  0  0  0  0  0  0  0  0
   59.0369   33.7140   50.9317 H   0  0  0  0  0  0  0  0  0  0  0  0
   58.4989   30.9010   49.8693 H   0  0  0  0  0  0  0  0  0  0  0  0
   57.2186   32.1327   50.0845 H   0  0  0  0  0  0  0  0  0  0  0  0
   58.8249   34.3851   49.6536 H   0  0  0  0  0  0  0  0  0  0  0  0
   60.3659   33.5871   49.2882 H   0  0  0  0  0  0  0  0  0  0  0  0
   58.6927   35.3284   47.6257 H   0  0  0  0  0  0  0  0  0  0  0  0
   60.4177   34.7947   47.4047 H   0  0  0  0  0  0  0  0  0  0  0  0
   57.2209   34.5790   46.6398 H   0  0  0  0  0  0  0  0  0  0  0  0
   58.3827   35.1211   45.3345 H   0  0  0  0  0  0  0  0  0  0  0  0
   56.1794   33.3479   45.1308 H   0  0  0  0  0  0  0  0  0  0  0  0
   57.3950   33.8731   43.8756 H   0  0  0  0  0  0  0  0  0  0  0  0
   57.2034   31.4893   44.0209 H   0  0  0  0  0  0  0  0  0  0  0  0
   58.8537   32.1631   44.5539 H   0  0  0  0  0  0  0  0  0  0  0  0
   58.0380   31.7270   46.8160 H   0  0  0  0  0  0  0  0  0  0  0  0
   57.2853   29.3266   46.4395 H   0  0  0  0  0  0  0  0  0  0  0  0
   58.0850   29.5975   44.8221 H   0  0  0  0  0  0  0  0  0  0  0  0
   59.3426   28.6419   47.1506 H   0  0  0  0  0  0  0  0  0  0  0  0
   60.1481   29.2826   45.6732 H   0  0  0  0  0  0  0  0  0  0  0  0
   59.4420   31.5330   46.9630 H   0  0  0  0  0  0  0  0  0  0  0  0
   63.6149   31.4470   52.0208 H   0  0  0  0  0  0  0  0  0  0  0  0
   64.8533   30.8211   50.8800 H   0  0  0  0  0  0  0  0  0  0  0  0
   64.4331   32.5676   50.8800 H   0  0  0  0  0  0  0  0  0  0  0  0
   63.1039   29.8091   52.1235 H   0  0  0  0  0  0  0  0  0  0  0  0
   61.5015   27.9364   52.6689 H   0  0  0  0  0  0  0  0  0  0  0  0
   59.6707   27.5059   51.0373 H   0  0  0  0  0  0  0  0  0  0  0  0
   59.4325   28.8274   48.9967 H   0  0  0  0  0  0  0  0  0  0  0  0
   63.6931   33.9711   49.3263 H   0  0  0  0  0  0  0  0  0  0  0  0
   64.9166   32.6820   49.0820 H   0  0  0  0  0  0  0  0  0  0  0  0
   64.7081   34.3488   47.1902 H   0  0  0  0  0  0  0  0  0  0  0  0
   64.4855   32.6069   46.7333 H   0  0  0  0  0  0  0  0  0  0  0  0
   62.3075   34.6405   47.2182 H   0  0  0  0  0  0  0  0  0  0  0  0
   62.8934   33.9819   45.6177 H   0  0  0  0  0  0  0  0  0  0  0  0
   60.7452   33.0681   46.7500 H   0  0  0  0  0  0  0  0  0  0  0  0
   61.9747   31.9888   45.9183 H   0  0  0  0  0  0  0  0  0  0  0  0
  1  2  1  0
  2  3  1  0
  3  4  1  0
  4  5  1  0
  5  6  1  0
  6  7  1  0
  7  8  1  0
  8  9  1  0
  9 10  1  0
 10 11  1  0
 11 12  1  0
 12 13  1  0
 13 14  1  0
 14 15  2  0
 15 16  1  0
 16 17  2  0
 17 18  1  0
 17 19  1  0
 19 20  2  0
 20 21  1  0
 21 22  2  0
 22 23  1  0
 23 24  2  0
 16 25  1  0
 25 26  1  0
 26 27  1  0
 27 28  1  0
 24 14  1  0
 28 15  1  0
 24 19  1  0
  1 29  1  0
  1 30  1  0
  1 31  1  0
  2 32  1  0
  2 33  1  0
  4 34  1  0
  4 35  1  0
  5 36  1  0
  5 37  1  0
  7 38  1  0
  7 39  1  0
  8 40  1  0
  8 41  1  0
  9 42  1  0
  9 43  1  0
 10 44  1  0
 11 45  1  0
 11 46  1  0
 12 47  1  0
 12 48  1  0
 13 49  1  0
 18 50  1  0
 18 51  1  0
 18 52  1  0
 20 53  1  0
 21 54  1  0
 22 55  1  0
 23 56  1  0
 25 57  1  0
 25 58  1  0
 26 59  1  0
 26 60  1  0
 27 61  1  0
 27 62  1  0
 28 63  1  0
 28 64  1  0
M  CHG  1  17   1
M  END
>  <smiles>  (3) 
CCOCCOCCCNCCNc1c2c([n+](C)c3ccccc13)CCCC2

>  <score_type>  (3) 
oracle

>  <origin>  (3) 
adg

>  <m_score__min__energy>  (3) 
-5.8700000000000001

>  <m_primary>  (3) 
energy

$$$$
4:0
     RDKit          3D

 58 60  0  0  0  0  0  0  0  0999 V2000
   61.0680   34.2500   49.1070 C   0  0  0  0  0  0  0  0  0  0  0  0
   59.9090   33.8270   49.9480 C   0  0  0  0  0  0  0  0  0  0  0  0
   59.3820   32.5980   49.6350 O   0  0  0  0  0  0  0  0  0  0  0  0
   58.1850   32.3000   50.2370 C   0  0  0  0  0  0  0  0  0  0  0  0
   58.1480   30.9210   50.8610 C   0  0  0  0  0  0  0  0  0  0  0  0
   59.0890   30.1020   50.2080 O   0  0  0  0  0  0  0  0  0  0  0  0
   59.5680   29.1110   51.0310 C   0  0  0  0  0  0  0  0  0  0  0  0
   61.0560   28.8610   50.8500 C   0  0  0  0  0  0  0  0  0  0  0  0
   61.5310   29.4230   49.6790 O   0  0  0  0  0  0  0  0  0  0  0  0
   61.7390   30.7290   49.8040 N   0  0  0  0  0  0  0  0  0  0  0  0
   62.5070   31.3560   48.7780 C   0  0  0  0  0  0  0  0  0  0  0  0
   61.7500   31.4180   47.4450 C   0  0  0  0  0  0  0  0  0  0  0  0
   60.4030   30.9840   47.6560 N   0  0  0  0  0  0  0  0  0  0  0  0
   59.5240   30.8450   46.5670 C   0  0  0  0  0  0  0  0  0  0  0  0
   59.2370   29.6290   45.9570 C   0  0  0  0  0  0  0  0  0  0  0  0
   59.8830   28.5260   46.4890 C   0  0  0  0  0  0  0  0  0  0  0  0
   59.6580   27.2820   45.9400 C   0  0  0  0  0  0  0  0  0  0  0  0
   58.7970   27.1570   44.8740 C   0  0  0  0  0  0  0  0  0  0  0  0
   58.1640   28.2820   44.3630 C   0  0  0  0  0  0  0  0  0  0  0  0
   58.3650   29.5480   44.8910 C   0  0  0  0  0  0  0  0  0  0  0  0
   57.7400   30.6450   44.3750 N   0  0  0  0  0  0  0  0  0  0  0  0
   56.8300   30.5180   43.2780 C   0  0  0  0  0  0  0  0  0  0  0  0
   58.0230   31.8320   44.9700 C   0  0  0  0  0  0  0  0  0  0  0  0
   57.4440   32.9980   44.5140 C   0  0  0  0  0  0  0  0  0  0  0  0
   57.7260   34.2180   45.1060 C   0  0  0  0  0  0  0  0  0  0  0  0
   58.5850   34.3280   46.1670 C   0  0  0  0  0  0  0  0  0  0  0  0
   59.1700   33.1710   46.6330 C   0  0  0  0  0  0  0  0  0  0  0  0
   58.8870   31.9480   46.0370 C   0  0  0  0  0  0  0  0  0  0  0  0
   61.9013   34.5541   49.7574 H   0  0  0  0  0  0  0  0  0  0  0  0
   61.3862   33.4100   48.4720 H   0  0  0  0  0  0  0  0  0  0  0  0
   60.7703   35.0974   48.4720 H   0  0  0  0  0  0  0  0  0  0  0  0
   60.2406   33.7990   50.9965 H   0  0  0  0  0  0  0  0  0  0  0  0
   59.1104   34.5602   49.7616 H   0  0  0  0  0  0  0  0  0  0  0  0
   57.9974   33.0438   51.0254 H   0  0  0  0  0  0  0  0  0  0  0  0
   57.4149   32.3199   49.4518 H   0  0  0  0  0  0  0  0  0  0  0  0
   58.3983   30.9920   51.9298 H   0  0  0  0  0  0  0  0  0  0  0  0
   57.1413   30.4903   50.7563 H   0  0  0  0  0  0  0  0  0  0  0  0
   59.3856   29.4034   52.0756 H   0  0  0  0  0  0  0  0  0  0  0  0
   59.0423   28.1809   50.7689 H   0  0  0  0  0  0  0  0  0  0  0  0
   61.5972   29.3000   51.7011 H   0  0  0  0  0  0  0  0  0  0  0  0
   61.2170   27.7741   50.7983 H   0  0  0  0  0  0  0  0  0  0  0  0
   60.9660   31.2760   50.1990 H   0  0  0  0  0  0  0  0  0  0  0  0
   62.7519   32.3806   49.0945 H   0  0  0  0  0  0  0  0  0  0  0  0
   63.4167   30.7574   48.6228 H   0  0  0  0  0  0  0  0  0  0  0  0
   61.7502   32.4514   47.0681 H   0  0  0  0  0  0  0  0  0  0  0  0
   62.2404   30.7657   46.7074 H   0  0  0  0  0  0  0  0  0  0  0  0
   60.0170   30.7540   48.6110 H   0  0  0  0  0  0  0  0  0  0  0  0
   60.5689   28.6414   47.3412 H   0  0  0  0  0  0  0  0  0  0  0  0
   60.1631   26.3955   46.3511 H   0  0  0  0  0  0  0  0  0  0  0  0
   58.6108   26.1688   44.4281 H   0  0  0  0  0  0  0  0  0  0  0  0
   57.4795   28.1648   43.5099 H   0  0  0  0  0  0  0  0  0  0  0  0
   55.8094   30.3756   43.6628 H   0  0  0  0  0  0  0  0  0  0  0  0
   56.8664   31.4299   42.6639 H   0  0  0  0  0  0  0  0  0  0  0  0
   57.1147   29.6509   42.6639 H   0  0  0  0  0  0  0  0  0  0  0  0
   56.7458   32.9582   43.6649 H   0  0  0  0  0  0  0  0  0  0  0  0
   57.2456   35.1258   44.7122 H   0  0  0  0  0  0  0  0  0  0  0  0
   58.7996   35.3028   46.6294 H   0  0  0  0  0  0  0  0  0  0  0  0
   59.8664   33.2157   47.4833 H   0  0  0  0  0  0  0  0  0  0  0  0
  1  2  1  0
  2  3  1  0
  3  4  1  0
  4  5  1  0
  5  6  1  0
  6  7  1  0
  7  8  1  0
  8  9  1  0
  9 10  1  0
 10 11  1  0
 11 12  1  0
 12 13  1  0
 13 14  1  0
 14 15  2  0
 15 16  1  0
 16 17  2  0
 17 18  1  0
 18 19  2  0
 19 20  1  0
 20 21  2  0
 21 22  1  0
 21 23  1  0
 23 24  2  0
 24 25  1  0
 25 26  2  0
 26 27  1  0
 27 28  2  0
 28 14  1  0
 20 15  1  0
 28 23  1  0
  1 29  1  0
  1 30  1  0
  1 31  1  0
  2 32  1  0
  2 33  1  0
  4 34  1  0
  4 35  1  0
  5 36  1  0
  5 37  1  0
  7 38  1  0
  7 39  1  0
  8 40  1  0
  8 41  1  0
 10 42  1  0
 11 43  1  0
 11 44  1  0
 12 45  1  0
 12 46  1  0
 13 47  1  0
 16 48  1  0
 17 49  1  0
 18 50  1  0
 19 51  1  0
 22 52  1  0
 22 53  1  0
 22 54  1  0
 24 55  1  0
 25 56  1  0
 26 57  1  0
 27 58  1  0
M  CHG  1  21   1
M  END
>  <smiles>  (4) 
CCOCCOCCONCCNc1c2ccccc2[n+](C)c2ccccc12

>  <score_type>  (4) 
oracle

>  <origin>  (4) 
adg

>  <m_score__min__energy>  (4) 
-4.9900000000000002

>  <m_primary>  (4) 
energy

$$$$
5:0
     RDKit          3D

 49 51  0  0  0  0  0  0  0  0999 V2000
   63.3450   33.8050   46.4210 C   0  0  0  0  0  0  0  0  0  0  0  0
   62.3290   33.4830   47.4950 C   0  0  0  0  0  0  0  0  0  0  0  0
   62.2530   32.1230   47.6910 O   0  0  0  0  0  0  0  0  0  0  0  0
   62.8920   31.6650   48.8130 C   0  0  0  0  0  0  0  0  0  0  0  0
   61.9420   31.2170   49.9140 C   0  0  0  0  0  0  0  0  0  0  0  0
   61.4780   29.9470   49.6340 O   0  0  0  0  0  0  0  0  0  0  0  0
   60.1560   29.7300   49.9400 C   0  0  0  0  0  0  0  0  0  0  0  0
   59.1860   29.9880   48.8320 C   0  0  0  0  0  0  0  0  0  0  0  0
   59.9450   30.3130   47.6190 N   0  0  0  0  0  0  0  0  0  0  0  0
   59.2180   30.5180   46.4360 C   0  0  0  0  0  0  0  0  0  0  0  0
   58.8380   29.4590   45.6370 C   0  0  0  0  0  0  0  0  0  0  0  0
   59.2120   28.1980   46.0720 C   0  0  0  0  0  0  0  0  0  0  0  0
   58.8700   27.0860   45.3320 C   0  0  0  0  0  0  0  0  0  0  0  0
   58.1560   27.3080   44.1730 C   0  0  0  0  0  0  0  0  0  0  0  0
   57.7840   28.5630   43.7410 C   0  0  0  0  0  0  0  0  0  0  0  0
   58.1260   29.6750   44.4790 C   0  0  0  0  0  0  0  0  0  0  0  0
   57.7520   30.8900   44.0430 N   0  0  0  0  0  0  0  0  0  0  0  0
   57.0200   31.1500   42.8430 C   0  0  0  0  0  0  0  0  0  0  0  0
   58.1110   31.9480   44.8130 C   0  0  0  0  0  0  0  0  0  0  0  0
   57.7890   33.2490   44.4870 C   0  0  0  0  0  0  0  0  0  0  0  0
   58.1620   34.3310   45.2860 C   0  0  0  0  0  0  0  0  0  0  0  0
   58.8760   34.1310   46.4480 C   0  0  0  0  0  0  0  0  0  0  0  0
   59.2540   35.1480   47.2450 F   0  0  0  0  0  0  0  0  0  0  0  0
   59.2070   32.8390   46.7910 C   0  0  0  0  0  0  0  0  0  0  0  0
   58.8330   31.7800   45.9920 C   0  0  0  0  0  0  0  0  0  0  0  0
   64.2929   34.1054   46.8913 H   0  0  0  0  0  0  0  0  0  0  0  0
   63.5117   32.9157   45.7955 H   0  0  0  0  0  0  0  0  0  0  0  0
   62.9690   34.6280   45.7955 H   0  0  0  0  0  0  0  0  0  0  0  0
   62.6293   33.9685   48.4353 H   0  0  0  0  0  0  0  0  0  0  0  0
   61.3434   33.8533   47.1764 H   0  0  0  0  0  0  0  0  0  0  0  0
   63.5235   30.8102   48.5292 H   0  0  0  0  0  0  0  0  0  0  0  0
   63.4796   32.5035   49.2149 H   0  0  0  0  0  0  0  0  0  0  0  0
   62.4744   31.2088   50.8766 H   0  0  0  0  0  0  0  0  0  0  0  0
   61.0923   31.9133   49.9704 H   0  0  0  0  0  0  0  0  0  0  0  0
   60.0477   28.6792   50.2469 H   0  0  0  0  0  0  0  0  0  0  0  0
   59.9078   30.4522   50.7317 H   0  0  0  0  0  0  0  0  0  0  0  0
   58.5735   29.0910   48.6579 H   0  0  0  0  0  0  0  0  0  0  0  0
   58.5218   30.8236   49.0978 H   0  0  0  0  0  0  0  0  0  0  0  0
   61.0030   30.3890   47.6440 H   0  0  0  0  0  0  0  0  0  0  0  0
   59.7810   28.0840   47.0065 H   0  0  0  0  0  0  0  0  0  0  0  0
   59.1527   26.0717   45.6503 H   0  0  0  0  0  0  0  0  0  0  0  0
   57.8688   26.4393   43.5623 H   0  0  0  0  0  0  0  0  0  0  0  0
   57.2141   28.6767   42.8070 H   0  0  0  0  0  0  0  0  0  0  0  0
   56.0119   31.5081   43.0988 H   0  0  0  0  0  0  0  0  0  0  0  0
   57.5430   31.9173   42.2534 H   0  0  0  0  0  0  0  0  0  0  0  0
   56.9418   30.2247   42.2534 H   0  0  0  0  0  0  0  0  0  0  0  0
   57.2188   33.4403   43.5660 H   0  0  0  0  0  0  0  0  0  0  0  0
   57.8838   35.3520   44.9858 H   0  0  0  0  0  0  0  0  0  0  0  0
   59.7763   32.6500   47.7131 H   0  0  0  0  0  0  0  0  0  0  0  0
  1  2  1  0
  2  3  1  0
  3  4  1  0
  4  5  1  0
  5  6  1  0
  6  7  1  0
  7  8  1  0
  8  9  1  0
  9 10  1  0
 10 11  2  0
 11 12  1  0
 12 13  2  0
 13 14  1  0
 14 15  2  0
 15 16  1  0
 16 17  2  0
 17 18  1  0
 17 19  1  0
 19 20  2  0
 20 21  1  0
 21 22  2  0
 22 23  1  0
 22 24  1  0
 24 25  2  0
 25 10  1  0
 16 11  1  0
 25 19  1  0
  1 26  1  0
  1 27  1  0
  1 28  1  0
  2 29  1  0
  2 30  1  0
  4 31  1  0
  4 32  1  0
  5 33  1  0
  5 34  1  0
  7 35  1  0
  7 36  1  0
  8 37  1  0
  8 38  1  0
  9 39  1  0
 12 40  1  0
 13 41  1  0
 14 42  1  0
 15 43  1  0
 18 44  1  0
 18 45  1  0
 18 46  1  0
 20 47  1  0
 21 48  1  0
 24 49  1  0
M  CHG  1  17   1
M  END
>  <smiles>  (5) 
CCOCCOCCNc1c2ccccc2[n+](C)c2ccc(F)cc12

>  <score_type>  (5) 
oracle

>  <origin>  (5) 
adg

>  <m_score__min__energy>  (5) 
-5.5700000000000003

>  <m_primary>  (5) 
energy

$$$$
6:0
     RDKit          3D

 68 71  0  0  0  0  0  0  0  0999 V2000
   57.5240   31.4390   51.6170 C   0  0  0  0  0  0  0  0  0  0  0  0
   58.6120   30.4530   51.3920 C   0  0  0  0  0  0  0  0  0  0  0  0
   58.4620   29.6010   50.3230 O   0  0  0  0  0  0  0  0  0  0  0  0
   59.6450   29.2510   49.7010 C   0  0  0  0  0  0  0  0  0  0  0  0
   59.7580   29.9850   48.3930 C   0  0  0  0  0  0  0  0  0  0  0  0
   58.7040   31.0080   48.2290 N   0  0  0  0  0  0  0  0  0  0  0  0
   58.6240   31.5600   46.9180 C   0  0  0  0  0  0  0  0  0  0  0  0
   58.1350   30.6600   45.9490 C   0  0  0  0  0  0  0  0  0  0  0  0
   57.8140   29.3480   46.3190 C   0  0  0  0  0  0  0  0  0  0  0  0
   57.3440   28.4200   45.4280 C   0  0  0  0  0  0  0  0  0  0  0  0
   57.1900   28.8200   44.1200 C   0  0  0  0  0  0  0  0  0  0  0  0
   57.5090   30.1280   43.7480 C   0  0  0  0  0  0  0  0  0  0  0  0
   57.9800   31.0620   44.6400 C   0  0  0  0  0  0  0  0  0  0  0  0
   58.3030   32.3280   44.3010 N   0  0  0  0  0  0  0  0  0  0  0  0
   58.0900   32.7170   42.9290 C   0  0  0  0  0  0  0  0  0  0  0  0
   58.7800   33.1910   45.2430 C   0  0  0  0  0  0  0  0  0  0  0  0
   59.1260   34.4690   44.8640 C   0  0  0  0  0  0  0  0  0  0  0  0
   59.6330   35.3830   45.7590 C   0  0  0  0  0  0  0  0  0  0  0  0
   59.7850   34.9750   47.0560 C   0  0  0  0  0  0  0  0  0  0  0  0
   59.4640   33.7130   47.5230 C   0  0  0  0  0  0  0  0  0  0  0  0
   59.6220   33.3590   48.7510 O   0  0  0  0  0  0  0  0  0  0  0  0
   60.0110   33.3320   50.0120 C   0  0  0  0  0  0  0  0  0  0  0  0
   61.3340   32.8470   50.4560 C   0  0  0  0  0  0  0  0  0  0  0  0
   62.4790   32.8790   49.6320 N   0  0  0  0  0  0  0  0  0  0  0  0
   63.7240   32.5070   50.2280 C   0  0  0  0  0  0  0  0  0  0  0  0
   62.2400   31.8210   48.6170 C   0  0  0  0  0  0  0  0  0  0  0  0
   63.2460   31.8340   47.5250 C   0  0  0  0  0  0  0  0  0  0  0  0
   63.0280   33.1540   46.7730 C   0  0  0  0  0  0  0  0  0  0  0  0
   63.4550   34.2050   47.7700 C   0  0  0  0  0  0  0  0  0  0  0  0
   62.5980   34.1530   49.0000 C   0  0  0  0  0  0  0  0  0  0  0  0
   58.9520   32.8350   46.5630 C   0  0  0  0  0  0  0  0  0  0  0  0
   57.3718   31.5769   52.6977 H   0  0  0  0  0  0  0  0  0  0  0  0
   57.8004   32.4006   51.1600 H   0  0  0  0  0  0  0  0  0  0  0  0
   56.5941   31.0696   51.1600 H   0  0  0  0  0  0  0  0  0  0  0  0
   59.5455   31.0152   51.2417 H   0  0  0  0  0  0  0  0  0  0  0  0
   58.6037   29.8054   52.2812 H   0  0  0  0  0  0  0  0  0  0  0  0
   60.4932   29.5204   50.3475 H   0  0  0  0  0  0  0  0  0  0  0  0
   59.6560   28.1667   49.5160 H   0  0  0  0  0  0  0  0  0  0  0  0
   60.7399   30.4789   48.3486 H   0  0  0  0  0  0  0  0  0  0  0  0
   59.6405   29.2492   47.5839 H   0  0  0  0  0  0  0  0  0  0  0  0
   58.0840   31.2860   49.0180 H   0  0  0  0  0  0  0  0  0  0  0  0
   57.9449   29.0501   47.3698 H   0  0  0  0  0  0  0  0  0  0  0  0
   57.0993   27.3955   45.7452 H   0  0  0  0  0  0  0  0  0  0  0  0
   56.8158   28.1098   43.3679 H   0  0  0  0  0  0  0  0  0  0  0  0
   57.3778   30.4233   42.6965 H   0  0  0  0  0  0  0  0  0  0  0  0
   57.5619   33.6815   42.8991 H   0  0  0  0  0  0  0  0  0  0  0  0
   59.0606   32.8145   42.4206 H   0  0  0  0  0  0  0  0  0  0  0  0
   57.4850   31.9518   42.4206 H   0  0  0  0  0  0  0  0  0  0  0  0
   58.9930   34.7682   43.8139 H   0  0  0  0  0  0  0  0  0  0  0  0
   59.9053   36.4012   45.4442 H   0  0  0  0  0  0  0  0  0  0  0  0
   60.1903   35.7002   47.7770 H   0  0  0  0  0  0  0  0  0  0  0  0
   59.9380   34.3698   50.3693 H   0  0  0  0  0  0  0  0  0  0  0  0
   59.3531   32.5496   50.4182 H   0  0  0  0  0  0  0  0  0  0  0  0
   61.5877   33.4343   51.3508 H   0  0  0  0  0  0  0  0  0  0  0  0
   61.1547   31.7652   50.5428 H   0  0  0  0  0  0  0  0  0  0  0  0
   63.6290   32.5354   51.3235 H   0  0  0  0  0  0  0  0  0  0  0  0
   63.9933   31.4891   49.9095 H   0  0  0  0  0  0  0  0  0  0  0  0
   64.5076   33.2102   49.9095 H   0  0  0  0  0  0  0  0  0  0  0  0
   62.2751   30.8411   49.1156 H   0  0  0  0  0  0  0  0  0  0  0  0
   61.2563   32.0129   48.1636 H   0  0  0  0  0  0  0  0  0  0  0  0
   64.2636   31.7933   47.9408 H   0  0  0  0  0  0  0  0  0  0  0  0
   63.1335   30.9652   46.8598 H   0  0  0  0  0  0  0  0  0  0  0  0
   63.6496   33.1969   45.8665 H   0  0  0  0  0  0  0  0  0  0  0  0
   61.9907   33.2852   46.4313 H   0  0  0  0  0  0  0  0  0  0  0  0
   64.5032   34.0285   48.0532 H   0  0  0  0  0  0  0  0  0  0  0  0
   63.3451   35.1962   47.3058 H   0  0  0  0  0  0  0  0  0  0  0  0
   63.0222   34.8535   49.7344 H   0  0  0  0  0  0  0  0  0  0  0  0
   61.5831   34.4100   48.6625 H   0  0  0  0  0  0  0  0  0  0  0  0
  1  2  1  0
  2  3  1  0
  3  4  1  0
  4  5  1  0
  5  6  1  0
  6  7  1  0
  7  8  2  0
  8  9  1  0
  9 10  2  0
 10 11  1  0
 11 12  2  0
 12 13  1  0
 13 14  2  0
 14 15  1  0
 14 16  1  0
 16 17  2  0
 17 18  1  0
 18 19  2  0
 19 20  1  0
 20 21  1  0
 21 22  1  0
 22 23  1  0
 23 24  1  0
 24 25  1  0
 24 26  1  0
 26 27  1  0
 27 28  1  0
 28 29  1  0
 29 30  1  0
 20 31  2  0
 31  7  1  0
 13  8  1  0
 31 16  1  0
 30 24  1  0
  1 32  1  0
  1 33  1  0
  1 34  1  0
  2 35  1  0
  2 36  1  0
  4 37  1  0
  4 38  1  0
  5 39  1  0
  5 40  1  0
  6 41  1  0
  9 42  1  0
 10 43  1  0
 11 44  1  0
 12 45  1  0
 15 46  1  0
 15 47  1  0
 15 48  1  0
 17 49  1  0
 18 50  1  0
 19 51  1  0
 22 52  1  0
 22 53  1  0
 23 54  1  0
 23 55  1  0
 25 56  1  0
 25 57  1  0
 25 58  1  0
 26 59  1  0
 26 60  1  0
 27 61  1  0
 27 62  1  0
 28 63  1  0
 28 64  1  0
 29 65  1  0
 29 66  1  0
 30 67  1  0
 30 68  1  0
M  CHG  2  14   1  24   1
M  END
>  <smiles>  (6) 
CCOCCNc1c2ccccc2[n+](C)c2cccc(OCC[N+]3(C)CCCCC3)c12

>  <score_type>  (6) 
oracle

>  <origin>  (6) 
adg

>  <m_score__min__energy>  (6) 
-5.0800000000000001

>  <m_primary>  (6) 
energy

$$$$
7:0
     RDKit          3D

 41 42  0  0  0  0  0  0  0  0999 V2000
   59.2250   32.9120   50.2100 C   0  0  0  0  0  0  0  0  0  0  0  0
   59.7490   34.2180   49.6150 C   0  0  0  0  0  0  0  0  0  0  0  0
   60.7290   33.9710   48.6120 N   0  0  0  0  0  0  0  0  0  0  0  0
   60.4920   34.0410   47.2780 C   0  0  0  0  0  0  0  0  0  0  0  0
   59.1530   34.2990   46.7030 C   0  0  0  0  0  0  0  0  0  0  0  0
   58.6340   33.0610   46.1880 N   0  0  0  0  0  0  0  0  0  0  0  0
   58.5360   31.9760   47.0780 C   0  0  0  0  0  0  0  0  0  0  0  0
   59.3710   30.7940   46.5590 C   0  0  0  0  0  0  0  0  0  0  0  0
   60.7410   30.3550   47.8670 Br  0  0  0  0  0  0  0  0  0  0  0  0
   57.5940   33.2140   45.2280 C   0  0  0  0  0  0  0  0  0  0  0  0
   57.8190   32.6310   43.8860 C   0  0  0  0  0  0  0  0  0  0  0  0
   57.0120   30.8630   43.8520 Br  0  0  0  0  0  0  0  0  0  0  0  0
   61.5190   33.8200   46.3520 C   0  0  0  0  0  0  0  0  0  0  0  0
   62.8000   33.5230   46.7610 C   0  0  0  0  0  0  0  0  0  0  0  0
   63.0220   33.4540   48.1170 C   0  0  0  0  0  0  0  0  0  0  0  0
   64.3200   33.1540   48.5130 C   0  0  0  0  0  0  0  0  0  0  0  0
   64.6310   33.0660   49.8490 C   0  0  0  0  0  0  0  0  0  0  0  0
   66.3940   32.6580   50.4170 Br  0  0  0  0  0  0  0  0  0  0  0  0
   63.6270   33.2840   50.7600 C   0  0  0  0  0  0  0  0  0  0  0  0
   62.3330   33.5830   50.3570 C   0  0  0  0  0  0  0  0  0  0  0  0
   62.0000   33.6750   49.0140 C   0  0  0  0  0  0  0  0  0  0  0  0
   59.2496   32.9734   51.3080 H   0  0  0  0  0  0  0  0  0  0  0  0
   58.1905   32.7456   49.8752 H   0  0  0  0  0  0  0  0  0  0  0  0
   59.8576   32.0767   49.8752 H   0  0  0  0  0  0  0  0  0  0  0  0
   58.9096   34.7707   49.1679 H   0  0  0  0  0  0  0  0  0  0  0  0
   60.2153   34.8048   50.4201 H   0  0  0  0  0  0  0  0  0  0  0  0
   58.4820   34.6871   47.4835 H   0  0  0  0  0  0  0  0  0  0  0  0
   59.2251   35.0433   45.8962 H   0  0  0  0  0  0  0  0  0  0  0  0
   58.9105   32.2805   48.0664 H   0  0  0  0  0  0  0  0  0  0  0  0
   57.4831   31.6675   47.1571 H   0  0  0  0  0  0  0  0  0  0  0  0
   58.7180   29.9225   46.4037 H   0  0  0  0  0  0  0  0  0  0  0  0
   59.8453   31.0676   45.6050 H   0  0  0  0  0  0  0  0  0  0  0  0
   56.6889   32.7471   45.6438 H   0  0  0  0  0  0  0  0  0  0  0  0
   57.5240   34.2984   45.0572 H   0  0  0  0  0  0  0  0  0  0  0  0
   57.3531   33.2682   43.1199 H   0  0  0  0  0  0  0  0  0  0  0  0
   58.8967   32.5619   43.6765 H   0  0  0  0  0  0  0  0  0  0  0  0
   61.2981   33.8849   45.2764 H   0  0  0  0  0  0  0  0  0  0  0  0
   63.6091   33.3488   46.0364 H   0  0  0  0  0  0  0  0  0  0  0  0
   65.1001   32.9866   47.7557 H   0  0  0  0  0  0  0  0  0  0  0  0
   63.8536   33.2202   51.8345 H   0  0  0  0  0  0  0  0  0  0  0  0
   61.5564   33.7503   51.1178 H   0  0  0  0  0  0  0  0  0  0  0  0
  1  2  1  0
  2  3  1  0
  3  4  2  0
  4  5  1  0
  5  6  1  0
  6  7  1  0
  7  8  1  0
  8  9  1  0
  6 10  1  0
 10 11  1  0
 11 12  1  0
  4 13  1  0
 13 14  2  0
 14 15  1  0
 15 16  2  0
 16 17  1  0
 17 18  1  0
 17 19  2  0
 19 20  1  0
 20 21  2  0
 21  3  1  0
 21 15  1  0
  1 22  1  0
  1 23  1  0
  1 24  1  0
  2 25  1  0
  2 26  1  0
  5 27  1  0
  5 28  1  0
  7 29  1  0
  7 30  1  0
  8 31  1  0
  8 32  1  0
 10 33  1  0
 10 34  1  0
 11 35  1  0
 11 36  1  0
 13 37  1  0
 14 38  1  0
 16 39  1  0
 19 40  1  0
 20 41  1  0
M  CHG  1   3   1
M  END
>  <smiles>  (7) 
CC[n+]1c(CN(CCBr)CCBr)ccc2cc(Br)ccc21

>  <score_type>  (7) 
oracle

>  <origin>  (7) 
adg

>  <m_score__min__energy>  (7) 
-5.79

>  <m_primary>  (7) 
energy

$$$$
8:0
     RDKit          3D

 54 58  0  0  0  0  0  0  0  0999 V2000
   64.9070   33.0230   49.3900 C   0  0  0  0  0  0  0  0  0  0  0  0
   63.6250   32.6280   50.1100 C   0  0  0  0  0  0  0  0  0  0  0  0
   62.5870   32.6170   49.1260 N   0  0  0  0  0  0  0  0  0  0  0  0
   62.7990   33.7800   48.2710 C   0  0  0  0  0  0  0  0  0  0  0  0
   61.2380   32.6430   49.6860 C   0  0  0  0  0  0  0  0  0  0  0  0
   60.3500   31.6290   49.0470 C   0  0  0  0  0  0  0  0  0  0  0  0
   60.7190   31.2400   47.7100 N   0  0  0  0  0  0  0  0  0  0  0  0
   59.8160   31.0490   46.6350 C   0  0  0  0  0  0  0  0  0  0  0  0
   59.3740   29.8480   46.1650 C   0  0  0  0  0  0  0  0  0  0  0  0
   58.4540   29.7780   45.1200 C   0  0  0  0  0  0  0  0  0  0  0  0
   57.9650   30.8920   44.5350 N   0  0  0  0  0  0  0  0  0  0  0  0
   57.0260   30.8800   43.4440 C   0  0  0  0  0  0  0  0  0  0  0  0
   58.3820   32.0960   44.9770 C   0  0  0  0  0  0  0  0  0  0  0  0
   57.9360   33.2890   44.4390 C   0  0  0  0  0  0  0  0  0  0  0  0
   58.3640   34.5250   44.8960 C   0  0  0  0  0  0  0  0  0  0  0  0
   59.2720   34.6110   45.9250 C   0  0  0  0  0  0  0  0  0  0  0  0
   59.7260   33.4320   46.4700 C   0  0  0  0  0  0  0  0  0  0  0  0
   59.3030   32.1970   46.0210 C   0  0  0  0  0  0  0  0  0  0  0  0
   58.1870   28.3550   44.8490 C   0  0  0  0  0  0  0  0  0  0  0  0
   57.5070   27.4870   44.1030 N   0  0  0  0  0  0  0  0  0  0  0  0
   57.8050   26.2040   44.4710 C   0  0  0  0  0  0  0  0  0  0  0  0
   57.3820   24.9710   44.0290 C   0  0  0  0  0  0  0  0  0  0  0  0
   57.8550   23.7930   44.5950 C   0  0  0  0  0  0  0  0  0  0  0  0
   58.7720   23.8680   45.6270 C   0  0  0  0  0  0  0  0  0  0  0  0
   59.2070   25.1070   46.0850 C   0  0  0  0  0  0  0  0  0  0  0  0
   58.7150   26.2640   45.4950 C   0  0  0  0  0  0  0  0  0  0  0  0
   58.9410   27.6040   45.7180 C   0  0  0  0  0  0  0  0  0  0  0  0
   59.7000   28.5000   46.5600 C   0  0  0  0  0  0  0  0  0  0  0  0
   60.4810   28.1470   47.4480 O   0  0  0  0  0  0  0  0  0  0  0  0
   65.6845   33.2625   50.1304 H   0  0  0  0  0  0  0  0  0  0  0  0
   65.2459   32.1876   48.7597 H   0  0  0  0  0  0  0  0  0  0  0  0
   64.7169   33.9042   48.7597 H   0  0  0  0  0  0  0  0  0  0  0  0
   63.7339   31.6289   50.5572 H   0  0  0  0  0  0  0  0  0  0  0  0
   63.3934   33.3340   50.9212 H   0  0  0  0  0  0  0  0  0  0  0  0
   62.9613   34.6702   48.8965 H   0  0  0  0  0  0  0  0  0  0  0  0
   63.6814   33.6123   47.6359 H   0  0  0  0  0  0  0  0  0  0  0  0
   61.9142   33.9344   47.6359 H   0  0  0  0  0  0  0  0  0  0  0  0
   61.2968   32.4348   50.7645 H   0  0  0  0  0  0  0  0  0  0  0  0
   60.8098   33.6384   49.4966 H   0  0  0  0  0  0  0  0  0  0  0  0
   60.3563   30.7272   49.6768 H   0  0  0  0  0  0  0  0  0  0  0  0
   59.3606   32.1023   48.9630 H   0  0  0  0  0  0  0  0  0  0  0  0
   61.7450   31.0720   47.4620 H   0  0  0  0  0  0  0  0  0  0  0  0
   56.0009   30.8669   43.8427 H   0  0  0  0  0  0  0  0  0  0  0  0
   57.1683   31.7800   42.8278 H   0  0  0  0  0  0  0  0  0  0  0  0
   57.1913   29.9839   42.8278 H   0  0  0  0  0  0  0  0  0  0  0  0
   57.2104   33.2554   43.6129 H   0  0  0  0  0  0  0  0  0  0  0  0
   57.9748   35.4436   44.4326 H   0  0  0  0  0  0  0  0  0  0  0  0
   59.6219   35.5848   46.2981 H   0  0  0  0  0  0  0  0  0  0  0  0
   60.4532   33.4751   47.2942 H   0  0  0  0  0  0  0  0  0  0  0  0
   56.8250   27.6540   43.3320 H   0  0  0  0  0  0  0  0  0  0  0  0
   56.6520   24.9166   43.2080 H   0  0  0  0  0  0  0  0  0  0  0  0
   57.5054   22.8168   44.2278 H   0  0  0  0  0  0  0  0  0  0  0  0
   59.1581   22.9462   46.0865 H   0  0  0  0  0  0  0  0  0  0  0  0
   59.9346   25.1701   46.9076 H   0  0  0  0  0  0  0  0  0  0  0  0
  1  2  1  0
  2  3  1  0
  3  4  1  0
  3  5  1  0
  5  6  1  0
  6  7  1  0
  7  8  1  0
  8  9  2  0
  9 10  1  0
 10 11  2  0
 11 12  1  0
 11 13  1  0
 13 14  2  0
 14 15  1  0
 15 16  2  0
 16 17  1  0
 17 18  2  0
 10 19  1  0
 19 20  1  0
 20 21  1  0
 21 22  2  0
 22 23  1  0
 23 24  2  0
 24 25  1  0
 25 26  2  0
 26 27  1  0
 27 28  1  0
 28 29  2  0
 18  8  1  0
 27 19  2  0
 28  9  1  0
 18 13  1  0
 26 21  1  0
  1 30  1  0
  1 31  1  0
  1 32  1  0
  2 33  1  0
  2 34  1  0
  4 35  1  0
  4 36  1  0
  4 37  1  0
  5 38  1  0
  5 39  1  0
  6 40  1  0
  6 41  1  0
  7 42  1  0
 12 43  1  0
 12 44  1  0
 12 45  1  0
 14 46  1  0
 15 47  1  0
 16 48  1  0
 17 49  1  0
 20 50  1  0
 22 51  1  0
 23 52  1  0
 24 53  1  0
 25 54  1  0
M  CHG  1  11   1
M  END
>  <smiles>  (8) 
CCN(C)CCNc1c2c([n+](C)c3ccccc13)-c1[nH]c3ccccc3c1C2=O

>  <score_type>  (8) 
oracle

>  <origin>  (8) 
adg

>  <m_score__min__energy>  (8) 
-7.2000000000000002

>  <m_primary>  (8) 
energy

$$$$
9:0
     RDKit          3D

 42 44  0  0  0  0  0  0  0  0999 V2000
   57.4020   24.8830   43.9510 C   0  0  0  0  0  0  0  0  0  0  0  0
   58.0760   24.7850   45.3020 C   0  0  0  0  0  0  0  0  0  0  0  0
   57.2820   25.4510   46.2380 O   0  0  0  0  0  0  0  0  0  0  0  0
   56.6590   26.6610   46.0770 C   0  0  0  0  0  0  0  0  0  0  0  0
   55.4170   26.7170   45.9990 O   0  0  0  0  0  0  0  0  0  0  0  0
   57.4590   27.8800   45.9980 C   0  0  0  0  0  0  0  0  0  0  0  0
   58.5210   28.2110   46.8200 C   0  0  0  0  0  0  0  0  0  0  0  0
   59.0120   29.4190   46.4420 N   0  0  0  0  0  0  0  0  0  0  0  0
   60.1360   30.1010   47.0720 C   0  0  0  0  0  0  0  0  0  0  0  0
   59.7520   30.6990   48.3940 C   0  0  0  0  0  0  0  0  0  0  0  0
   59.2220   31.9690   48.3750 O   0  0  0  0  0  0  0  0  0  0  0  0
   58.9090   32.8030   47.3630 C   0  0  0  0  0  0  0  0  0  0  0  0
   59.9790   33.3980   46.6760 C   0  0  0  0  0  0  0  0  0  0  0  0
   59.7820   34.2680   45.6280 C   0  0  0  0  0  0  0  0  0  0  0  0
   58.5270   34.6020   45.1980 C   0  0  0  0  0  0  0  0  0  0  0  0
   57.4550   34.0330   45.8540 C   0  0  0  0  0  0  0  0  0  0  0  0
   57.6600   33.1550   46.9120 C   0  0  0  0  0  0  0  0  0  0  0  0
   58.2850   29.8720   45.3900 C   0  0  0  0  0  0  0  0  0  0  0  0
   58.3780   31.0350   44.6490 C   0  0  0  0  0  0  0  0  0  0  0  0
   57.4930   31.2730   43.5950 C   0  0  0  0  0  0  0  0  0  0  0  0
   56.5350   30.3140   43.3280 C   0  0  0  0  0  0  0  0  0  0  0  0
   56.4330   29.1510   44.0620 C   0  0  0  0  0  0  0  0  0  0  0  0
   57.3180   28.9350   45.1000 C   0  0  0  0  0  0  0  0  0  0  0  0
   56.3222   25.0400   44.0905 H   0  0  0  0  0  0  0  0  0  0  0  0
   57.8261   25.7289   43.3902 H   0  0  0  0  0  0  0  0  0  0  0  0
   57.5676   23.9513   43.3902 H   0  0  0  0  0  0  0  0  0  0  0  0
   58.1820   23.7284   45.5889 H   0  0  0  0  0  0  0  0  0  0  0  0
   59.0760   25.2414   45.2604 H   0  0  0  0  0  0  0  0  0  0  0  0
   58.9056   27.5951   47.6463 H   0  0  0  0  0  0  0  0  0  0  0  0
   60.9487   29.3769   47.2308 H   0  0  0  0  0  0  0  0  0  0  0  0
   60.4586   30.9162   46.4076 H   0  0  0  0  0  0  0  0  0  0  0  0
   59.0057   30.0348   48.8544 H   0  0  0  0  0  0  0  0  0  0  0  0
   60.6963   30.7918   48.9506 H   0  0  0  0  0  0  0  0  0  0  0  0
   61.0077   33.1613   46.9852 H   0  0  0  0  0  0  0  0  0  0  0  0
   60.6558   34.7059   45.1233 H   0  0  0  0  0  0  0  0  0  0  0  0
   58.3781   35.2987   44.3599 H   0  0  0  0  0  0  0  0  0  0  0  0
   56.4300   34.2760   45.5373 H   0  0  0  0  0  0  0  0  0  0  0  0
   56.7809   32.7217   47.4115 H   0  0  0  0  0  0  0  0  0  0  0  0
   59.1532   31.7771   44.8906 H   0  0  0  0  0  0  0  0  0  0  0  0
   57.5567   32.1940   42.9970 H   0  0  0  0  0  0  0  0  0  0  0  0
   55.8293   30.4840   42.5015 H   0  0  0  0  0  0  0  0  0  0  0  0
   55.6586   28.4068   43.8244 H   0  0  0  0  0  0  0  0  0  0  0  0
  1  2  1  0
  2  3  1  0
  3  4  1  0
  4  5  2  0
  4  6  1  0
  6  7  2  0
  7  8  1  0
  8  9  1  0
  9 10  1  0
 10 11  1  0
 11 12  1  0
 12 13  2  0
 13 14  1  0
 14 15  2  0
 15 16  1  0
 16 17  2  0
  8 18  1  0
 18 19  2  0
 19 20  1  0
 20 21  2  0
 21 22  1  0
 22 23  2  0
 23  6  1  0
 17 12  1  0
 23 18  1  0
  1 24  1  0
  1 25  1  0
  1 26  1  0
  2 27  1  0
  2 28  1  0
  7 29  1  0
  9 30  1  0
  9 31  1  0
 10 32  1  0
 10 33  1  0
 13 34  1  0
 14 35  1  0
 15 36  1  0
 16 37  1  0
 17 38  1  0
 19 39  1  0
 20 40  1  0
 21 41  1  0
 22 42  1  0
M  END
>  <smiles>  (9) 
CCOC(=O)c1cn(CCOc2ccccc2)c2ccccc12

>  <score_type>  (9) 
oracle

>  <origin>  (9) 
adg

>  <m_score__min__energy>  (9) 
-7.1900000000000004

>  <m_primary>  (9) 
energy

$$$$
10:0
     RDKit          3D

 39 40  0  0  0  0  0  0  0  0999 V2000
   59.9760   29.7650   45.8700 C   0  0  0  0  0  0  0  0  0  0  0  0
   59.2540   30.1320   47.1290 C   0  0  0  0  0  0  0  0  0  0  0  0
   58.4700   31.2960   47.0320 O   0  0  0  0  0  0  0  0  0  0  0  0
   58.9490   32.5480   46.6810 C   0  0  0  0  0  0  0  0  0  0  0  0
   60.1620   32.9850   47.1880 C   0  0  0  0  0  0  0  0  0  0  0  0
   60.6920   34.2230   46.8750 C   0  0  0  0  0  0  0  0  0  0  0  0
   59.9870   35.0460   46.0290 C   0  0  0  0  0  0  0  0  0  0  0  0
   58.7970   34.5990   45.5400 C   0  0  0  0  0  0  0  0  0  0  0  0
   58.2400   33.3660   45.8360 C   0  0  0  0  0  0  0  0  0  0  0  0
   56.8980   32.9750   45.2690 C   0  0  0  0  0  0  0  0  0  0  0  0
   57.0080   31.6120   44.8780 N   0  0  0  0  0  0  0  0  0  0  0  0
   57.3040   31.3520   43.5130 C   0  0  0  0  0  0  0  0  0  0  0  0
   56.6350   30.0860   43.0000 C   0  0  0  0  0  0  0  0  0  0  0  0
   57.0580   28.9160   43.8510 C   0  0  0  0  0  0  0  0  0  0  0  0
   57.8220   27.8880   43.3620 C   0  0  0  0  0  0  0  0  0  0  0  0
   58.1990   26.8250   44.1920 C   0  0  0  0  0  0  0  0  0  0  0  0
   57.7950   26.8020   45.5320 C   0  0  0  0  0  0  0  0  0  0  0  0
   57.0300   27.8580   45.9660 C   0  0  0  0  0  0  0  0  0  0  0  0
   56.6820   28.8740   45.1410 N   0  0  0  0  0  0  0  0  0  0  0  0
   60.9304   29.2799   46.1227 H   0  0  0  0  0  0  0  0  0  0  0  0
   59.3571   29.0721   45.2811 H   0  0  0  0  0  0  0  0  0  0  0  0
   60.1711   30.6734   45.2811 H   0  0  0  0  0  0  0  0  0  0  0  0
   58.5948   29.2953   47.4038 H   0  0  0  0  0  0  0  0  0  0  0  0
   60.0263   30.3363   47.8852 H   0  0  0  0  0  0  0  0  0  0  0  0
   60.7236   32.3233   47.8638 H   0  0  0  0  0  0  0  0  0  0  0  0
   61.6575   34.5428   47.2941 H   0  0  0  0  0  0  0  0  0  0  0  0
   60.3735   36.0386   45.7545 H   0  0  0  0  0  0  0  0  0  0  0  0
   58.2397   35.2633   44.8631 H   0  0  0  0  0  0  0  0  0  0  0  0
   56.1146   33.0895   46.0326 H   0  0  0  0  0  0  0  0  0  0  0  0
   56.6246   33.6134   44.4159 H   0  0  0  0  0  0  0  0  0  0  0  0
   57.2370   30.9220   45.5770 H   0  0  0  0  0  0  0  0  0  0  0  0
   56.9570   32.2033   42.9090 H   0  0  0  0  0  0  0  0  0  0  0  0
   58.3917   31.2114   43.4290 H   0  0  0  0  0  0  0  0  0  0  0  0
   55.5423   30.2015   43.0519 H   0  0  0  0  0  0  0  0  0  0  0  0
   56.9350   29.9089   41.9566 H   0  0  0  0  0  0  0  0  0  0  0  0
   58.1413   27.8983   42.3094 H   0  0  0  0  0  0  0  0  0  0  0  0
   58.8140   26.0063   43.7901 H   0  0  0  0  0  0  0  0  0  0  0  0
   58.0762   25.9786   46.2050 H   0  0  0  0  0  0  0  0  0  0  0  0
   56.6910   27.8785   47.0123 H   0  0  0  0  0  0  0  0  0  0  0  0
  1  2  1  0
  2  3  1  0
  3  4  1  0
  4  5  2  0
  5  6  1  0
  6  7  2  0
  7  8  1  0
  8  9  2  0
  9 10  1  0
 10 11  1  0
 11 12  1  0
 12 13  1  0
 13 14  1  0
 14 15  2  0
 15 16  1  0
 16 17  2  0
 17 18  1  0
 18 19  2  0
  9  4  1  0
 19 14  1  0
  1 20  1  0
  1 21  1  0
  1 22  1  0
  2 23  1  0
  2 24  1  0
  5 25  1  0
  6 26  1  0
  7 27  1  0
  8 28  1  0
 10 29  1  0
 10 30  1  0
 11 31  1  0
 12 32  1  0
 12 33  1  0
 13 34  1  0
 13 35  1  0
 15 36  1  0
 16 37  1  0
 17 38  1  0
 18 39  1  0
M  END
>  <smiles>  (10) 
CCOc1ccccc1CNCCc1ccccn1

>  <score_type>  (10) 
oracle

>  <origin>  (10) 
adg

>  <m_score__min__energy>  (10) 
-6.7300000000000004

>  <m_primary>  (10) 
energy

$$$$
11:0
     RDKit          3D

 61 62  0  0  1  0  0  0  0  0999 V2000
   56.2640   23.7240   43.2560 C   0  0  0  0  0  0  0  0  0  0  0  0
   56.6350   22.2630   43.2960 C   0  0  0  0  0  0  0  0  0  0  0  0
   57.2280   21.9020   44.4950 O   0  0  0  0  0  0  0  0  0  0  0  0
   58.6070   21.9260   44.4310 C   0  0  0  0  0  0  0  0  0  0  0  0
   59.2070   23.0560   45.2120 C   0  0  0  0  0  0  0  0  0  0  0  0
   58.1780   23.8560   45.8500 N   0  0  0  0  0  0  0  0  0  0  0  0
   58.4180   25.2430   46.0020 C   0  0  0  0  0  0  0  0  0  0  0  0
   59.7020   25.7400   45.9840 C   0  0  0  0  0  0  0  0  0  0  0  0
   60.0120   27.0750   46.1150 C   0  0  0  0  0  0  0  0  0  0  0  0
   58.9850   27.9810   46.2730 C   0  0  0  0  0  0  0  0  0  0  0  0
   59.2360   29.4230   46.4210 C   0  0  2  0  0  0  0  0  0  0  0  0
   58.4670   30.1540   45.3460 C   0  0  0  0  0  0  0  0  0  0  0  0
   60.6670   29.8210   46.3530 C   0  0  0  0  0  0  0  0  0  0  0  0
   60.9090   31.0060   47.2160 C   0  0  0  0  0  0  0  0  0  0  0  0
   61.5750   32.0140   46.8240 O   0  0  0  0  0  0  0  0  0  0  0  0
   60.4040   31.0950   48.5530 N   0  0  0  0  0  0  0  0  0  0  0  0
   60.7110   32.3020   49.2820 C   0  0  0  0  0  0  0  0  0  0  0  0
   59.5960   33.2850   49.3460 C   0  0  0  0  0  0  0  0  0  0  0  0
   59.8080   34.5460   48.5520 C   0  0  0  0  0  0  0  0  0  0  0  0
   59.1190   34.3010   47.2330 C   0  0  0  0  0  0  0  0  0  0  0  0
   58.0030   33.4780   47.2480 C   0  0  0  0  0  0  0  0  0  0  0  0
   57.3460   33.2360   46.0370 C   0  0  0  0  0  0  0  0  0  0  0  0
   57.7990   33.8020   44.8650 C   0  0  0  0  0  0  0  0  0  0  0  0
   58.9270   34.6310   44.8680 C   0  0  0  0  0  0  0  0  0  0  0  0
   59.5830   34.8760   46.0630 C   0  0  0  0  0  0  0  0  0  0  0  0
   57.7050   27.4890   46.2910 C   0  0  0  0  0  0  0  0  0  0  0  0
   57.3920   26.1490   46.1610 C   0  0  0  0  0  0  0  0  0  0  0  0
   56.0220   25.8020   46.1980 N   0  0  0  0  0  0  0  0  0  0  0  0
   55.1520   26.7070   46.0000 O   0  0  0  0  0  0  0  0  0  0  0  0
   55.5230   24.5520   46.4310 O   0  0  0  0  0  0  0  0  0  0  0  0
   56.1670   24.1059   44.2830 H   0  0  0  0  0  0  0  0  0  0  0  0
   57.0477   24.2870   42.7279 H   0  0  0  0  0  0  0  0  0  0  0  0
   55.3067   23.8449   42.7279 H   0  0  0  0  0  0  0  0  0  0  0  0
   55.7235   21.6630   43.1578 H   0  0  0  0  0  0  0  0  0  0  0  0
   57.3635   22.0795   42.4925 H   0  0  0  0  0  0  0  0  0  0  0  0
   58.9937   20.9776   44.8323 H   0  0  0  0  0  0  0  0  0  0  0  0
   58.8864   22.0682   43.3766 H   0  0  0  0  0  0  0  0  0  0  0  0
   59.8727   22.6445   45.9850 H   0  0  0  0  0  0  0  0  0  0  0  0
   59.7693   23.6991   44.5190 H   0  0  0  0  0  0  0  0  0  0  0  0
   57.3240   23.3560   46.1520 H   0  0  0  0  0  0  0  0  0  0  0  0
   60.5302   25.0273   45.8573 H   0  0  0  0  0  0  0  0  0  0  0  0
   61.0588   27.4122   46.0940 H   0  0  0  0  0  0  0  0  0  0  0  0
   58.9023   29.6928   47.4339 H   0  0  0  0  0  0  0  0  0  0  0  0
   57.7453   30.8400   45.8135 H   0  0  0  0  0  0  0  0  0  0  0  0
   59.1666   30.7281   44.7208 H   0  0  0  0  0  0  0  0  0  0  0  0
   57.9290   29.4262   44.7208 H   0  0  0  0  0  0  0  0  0  0  0  0
   61.2938   28.9855   46.6981 H   0  0  0  0  0  0  0  0  0  0  0  0
   60.9210   30.0749   45.3133 H   0  0  0  0  0  0  0  0  0  0  0  0
   59.8420   30.3030   48.9550 H   0  0  0  0  0  0  0  0  0  0  0  0
   60.9819   32.0224   50.3108 H   0  0  0  0  0  0  0  0  0  0  0  0
   61.5315   32.7947   48.7397 H   0  0  0  0  0  0  0  0  0  0  0  0
   58.6870   32.7938   48.9686 H   0  0  0  0  0  0  0  0  0  0  0  0
   59.5224   33.5955   50.3987 H   0  0  0  0  0  0  0  0  0  0  0  0
   59.3588   35.4073   49.0681 H   0  0  0  0  0  0  0  0  0  0  0  0
   60.8757   34.7765   48.4224 H   0  0  0  0  0  0  0  0  0  0  0  0
   57.6445   33.0282   48.1857 H   0  0  0  0  0  0  0  0  0  0  0  0
   56.4581   32.5869   46.0200 H   0  0  0  0  0  0  0  0  0  0  0  0
   57.2709   33.6011   43.9212 H   0  0  0  0  0  0  0  0  0  0  0  0
   59.2882   35.0826   43.9322 H   0  0  0  0  0  0  0  0  0  0  0  0
   60.4703   35.5258   46.0819 H   0  0  0  0  0  0  0  0  0  0  0  0
   56.8781   28.2034   46.4164 H   0  0  0  0  0  0  0  0  0  0  0  0
  1  2  1  0
  2  3  1  0
  3  4  1  0
  4  5  1  0
  5  6  1  0
  6  7  1  0
  7  8  2  0
  8  9  1  0
  9 10  2  0
 10 11  1  0
 11 12  1  0
 11 13  1  0
 13 14  1  0
 14 15  2  0
 14 16  1  0
 16 17  1  0
 17 18  1  0
 18 19  1  0
 19 20  1  0
 20 21  2  0
 21 22  1  0
 22 23  2  0
 23 24  1  0
 24 25  2  0
 10 26  1  0
 26 27  2  0
 27 28  1  0
 28 29  2  0
 28 30  1  0
 27  7  1  0
 25 20  1  0
  1 31  1  0
  1 32  1  0
  1 33  1  0
  2 34  1  0
  2 35  1  0
  4 36  1  0
  4 37  1  0
  5 38  1  0
  5 39  1  0
  6 40  1  0
  8 41  1  0
  9 42  1  0
 11 43  1  1
 12 44  1  0
 12 45  1  0
 12 46  1  0
 13 47  1  0
 13 48  1  0
 16 49  1  0
 17 50  1  0
 17 51  1  0
 18 52  1  0
 18 53  1  0
 19 54  1  0
 19 55  1  0
 21 56  1  0
 22 57  1  0
 23 58  1  0
 24 59  1  0
 25 60  1  0
 26 61  1  0
M  CHG  2  28   1  30  -1
M  END
>  <smiles>  (11) 
CCOCCNc1ccc(C(C)CC(=O)NCCCc2ccccc2)cc1[N+](=O)[O-]

>  <score_type>  (11) 
oracle

>  <origin>  (11) 
adg

>  <m_score__min__energy>  (11) 
-9.0999999999999996

>  <m_primary>  (11) 
energy

$$$$
12:0
     RDKit          3D

 63 65  0  0  0  0  0  0  0  0999 V2000
   53.5070   24.0130   44.8600 C   0  0  0  0  0  0  0  0  0  0  0  0
   54.9260   23.5930   45.1320 C   0  0  0  0  0  0  0  0  0  0  0  0
   55.7110   23.6790   43.8480 C   0  0  0  0  0  0  0  0  0  0  0  0
   55.5970   24.3910   46.2320 C   0  0  0  0  0  0  0  0  0  0  0  0
   55.5900   25.7940   45.9780 N   0  0  0  0  0  0  0  0  0  0  0  0
   56.8400   26.4560   46.2610 C   0  0  0  0  0  0  0  0  0  0  0  0
   57.8610   26.2820   45.1620 C   0  0  0  0  0  0  0  0  0  0  0  0
   57.4230   27.0640   44.0180 N   0  0  0  0  0  0  0  0  0  0  0  0
   57.4440   28.4900   44.1680 C   0  0  0  0  0  0  0  0  0  0  0  0
   56.7740   29.3010   43.2720 C   0  0  0  0  0  0  0  0  0  0  0  0
   56.7790   30.6860   43.4110 C   0  0  0  0  0  0  0  0  0  0  0  0
   57.4540   31.2800   44.4440 C   0  0  0  0  0  0  0  0  0  0  0  0
   57.4220   32.6610   44.5030 C   0  0  0  0  0  0  0  0  0  0  0  0
   58.1010   33.2980   45.5160 C   0  0  0  0  0  0  0  0  0  0  0  0
   58.7970   32.5200   46.4480 C   0  0  0  0  0  0  0  0  0  0  0  0
   59.5130   33.2520   47.4490 C   0  0  0  0  0  0  0  0  0  0  0  0
   60.1330   33.8570   48.3070 C   0  0  0  0  0  0  0  0  0  0  0  0
   60.9090   34.6040   49.3380 C   0  0  0  0  0  0  0  0  0  0  0  0
   61.9230   33.5940   49.8880 C   0  0  0  0  0  0  0  0  0  0  0  0
   63.2320   34.0140   49.4180 N   0  0  0  0  0  0  0  0  0  0  0  0
   63.2330   34.1430   47.9630 C   0  0  0  0  0  0  0  0  0  0  0  0
   63.1170   32.8740   47.2120 C   0  0  0  0  0  0  0  0  0  0  0  0
   63.3790   31.6140   47.9480 C   0  0  0  0  0  0  0  0  0  0  0  0
   64.1210   31.7120   49.2310 C   0  0  0  0  0  0  0  0  0  0  0  0
   64.2840   33.0780   49.8070 C   0  0  0  0  0  0  0  0  0  0  0  0
   58.8100   31.1350   46.3660 C   0  0  0  0  0  0  0  0  0  0  0  0
   58.1210   30.4860   45.3360 C   0  0  0  0  0  0  0  0  0  0  0  0
   58.1260   29.1060   45.2150 C   0  0  0  0  0  0  0  0  0  0  0  0
   52.9814   24.1686   45.8137 H   0  0  0  0  0  0  0  0  0  0  0  0
   53.5060   24.9500   44.2837 H   0  0  0  0  0  0  0  0  0  0  0  0
   52.9962   23.2275   44.2837 H   0  0  0  0  0  0  0  0  0  0  0  0
   54.9015   22.5568   45.5005 H   0  0  0  0  0  0  0  0  0  0  0  0
   56.7801   23.7961   44.0790 H   0  0  0  0  0  0  0  0  0  0  0  0
   55.5607   22.7590   43.2640 H   0  0  0  0  0  0  0  0  0  0  0  0
   55.3651   24.5446   43.2640 H   0  0  0  0  0  0  0  0  0  0  0  0
   55.0668   24.2020   47.1771 H   0  0  0  0  0  0  0  0  0  0  0  0
   56.6474   24.0682   46.2826 H   0  0  0  0  0  0  0  0  0  0  0  0
   55.2020   26.1000   45.0780 H   0  0  0  0  0  0  0  0  0  0  0  0
   56.6458   27.5307   46.3923 H   0  0  0  0  0  0  0  0  0  0  0  0
   57.2554   26.0000   47.1717 H   0  0  0  0  0  0  0  0  0  0  0  0
   58.8435   26.6388   45.5046 H   0  0  0  0  0  0  0  0  0  0  0  0
   57.9525   25.2205   44.8883 H   0  0  0  0  0  0  0  0  0  0  0  0
   57.1040   26.6540   43.1150 H   0  0  0  0  0  0  0  0  0  0  0  0
   56.2270   28.8440   42.4341 H   0  0  0  0  0  0  0  0  0  0  0  0
   56.2361   31.3088   42.6848 H   0  0  0  0  0  0  0  0  0  0  0  0
   56.8634   33.2403   43.7531 H   0  0  0  0  0  0  0  0  0  0  0  0
   58.0969   34.3954   45.5917 H   0  0  0  0  0  0  0  0  0  0  0  0
   61.4265   35.4622   48.8845 H   0  0  0  0  0  0  0  0  0  0  0  0
   60.2597   35.0071   50.1292 H   0  0  0  0  0  0  0  0  0  0  0  0
   61.8980   33.5931   50.9877 H   0  0  0  0  0  0  0  0  0  0  0  0
   61.6896   32.5748   49.5463 H   0  0  0  0  0  0  0  0  0  0  0  0
   62.3853   34.7839   47.6788 H   0  0  0  0  0  0  0  0  0  0  0  0
   64.2143   34.5630   47.6973 H   0  0  0  0  0  0  0  0  0  0  0  0
   62.0917   32.8176   46.8177 H   0  0  0  0  0  0  0  0  0  0  0  0
   63.9121   32.9248   46.4536 H   0  0  0  0  0  0  0  0  0  0  0  0
   62.4054   31.1503   48.1648 H   0  0  0  0  0  0  0  0  0  0  0  0
   64.0387   31.0341   47.2858 H   0  0  0  0  0  0  0  0  0  0  0  0
   63.5876   31.0990   49.9724 H   0  0  0  0  0  0  0  0  0  0  0  0
   65.1414   31.3708   49.0020 H   0  0  0  0  0  0  0  0  0  0  0  0
   64.2843   32.9936   50.9038 H   0  0  0  0  0  0  0  0  0  0  0  0
   65.2297   33.4794   49.4140 H   0  0  0  0  0  0  0  0  0  0  0  0
   59.3632   30.5461   47.1124 H   0  0  0  0  0  0  0  0  0  0  0  0
   58.6709   28.4939   45.9488 H   0  0  0  0  0  0  0  0  0  0  0  0
  1  2  1  0
  2  3  1  0
  2  4  1  0
  4  5  1  0
  5  6  1  0
  6  7  1  0
  7  8  1  0
  8  9  1  0
  9 10  2  0
 10 11  1  0
 11 12  2  0
 12 13  1  0
 13 14  2  0
 14 15  1  0
 15 16  1  0
 16 17  3  0
 17 18  1  0
 18 19  1  0
 19 20  1  0
 20 21  1  0
 21 22  1  0
 22 23  1  0
 23 24  1  0
 24 25  1  0
 15 26  2  0
 26 27  1  0
 27 28  2  0
 28  9  1  0
 27 12  1  0
 25 20  1  0
  1 29  1  0
  1 30  1  0
  1 31  1  0
  2 32  1  0
  3 33  1  0
  3 34  1  0
  3 35  1  0
  4 36  1  0
  4 37  1  0
  5 38  1  0
  6 39  1  0
  6 40  1  0
  7 41  1  0
  7 42  1  0
  8 43  1  0
 10 44  1  0
 11 45  1  0
 13 46  1  0
 14 47  1  0
 18 48  1  0
 18 49  1  0
 19 50  1  0
 19 51  1  0
 21 52  1  0
 21 53  1  0
 22 54  1  0
 22 55  1  0
 23 56  1  0
 23 57  1  0
 24 58  1  0
 24 59  1  0
 25 60  1  0
 25 61  1  0
 26 62  1  0
 28 63  1  0
M  END
>  <smiles>  (12) 
CC(C)CNCCNc1ccc2ccc(C#CCCN3CCCCC3)cc2c1

>  <score_type>  (12) 
oracle

>  <origin>  (12) 
adg

>  <m_score__min__energy>  (12) 
-8.3399999999999999

>  <m_primary>  (12) 
energy

$$$$
13:0
     RDKit          3D

 35 36  0  0  1  0  0  0  0  0999 V2000
   60.1400   29.2160   45.2600 C   0  0  0  0  0  0  0  0  0  0  0  0
   59.3150   30.2490   46.0060 C   0  0  0  0  0  0  0  0  0  0  0  0
   57.9800   30.3660   45.4710 N   0  0  0  0  0  0  0  0  0  0  0  0
   57.0210   29.4610   45.4850 N   0  0  0  0  0  0  0  0  0  0  0  0
   55.9240   29.9230   44.8810 N   0  0  0  0  0  0  0  0  0  0  0  0
   56.2270   31.1570   44.4860 N   0  0  0  0  0  0  0  0  0  0  0  0
   57.4850   31.4620   44.8320 C   0  0  0  0  0  0  0  0  0  0  0  0
   58.4350   32.9440   44.5950 S   0  0  0  0  0  0  0  0  0  0  0  0
   58.0690   34.2130   45.7910 C   0  0  0  0  0  0  0  0  0  0  0  0
   58.9930   34.2410   46.9930 C   0  0  0  0  0  0  0  0  0  0  0  0
   60.3720   34.4590   46.4470 C   0  0  0  0  0  0  0  0  0  0  0  0
   61.3050   33.4200   46.6120 N   0  0  0  0  0  0  0  0  0  0  0  0
   61.0650   32.4990   47.6810 C   0  0  0  0  0  0  0  0  0  0  0  0
   62.2870   32.4930   48.5530 C   0  0  0  0  0  0  0  0  0  0  0  0
   63.3790   32.7700   47.5150 C   0  0  2  0  0  0  0  0  0  0  0  0
   64.5240   33.2230   48.1120 F   0  0  0  0  0  0  0  0  0  0  0  0
   62.6820   33.8270   46.6720 C   0  0  0  0  0  0  0  0  0  0  0  0
   60.6573   28.5682   45.9830 H   0  0  0  0  0  0  0  0  0  0  0  0
   59.4785   28.6051   44.6282 H   0  0  0  0  0  0  0  0  0  0  0  0
   60.8820   29.7261   44.6282 H   0  0  0  0  0  0  0  0  0  0  0  0
   59.2488   29.9538   47.0636 H   0  0  0  0  0  0  0  0  0  0  0  0
   59.8115   31.2242   45.8945 H   0  0  0  0  0  0  0  0  0  0  0  0
   58.1350   35.1881   45.2861 H   0  0  0  0  0  0  0  0  0  0  0  0
   57.0638   33.9916   46.1789 H   0  0  0  0  0  0  0  0  0  0  0  0
   58.7153   35.0624   47.6699 H   0  0  0  0  0  0  0  0  0  0  0  0
   58.9309   33.3075   47.5716 H   0  0  0  0  0  0  0  0  0  0  0  0
   60.2737   34.6458   45.3674 H   0  0  0  0  0  0  0  0  0  0  0  0
   60.7774   35.2969   47.0332 H   0  0  0  0  0  0  0  0  0  0  0  0
   60.1890   32.8199   48.2639 H   0  0  0  0  0  0  0  0  0  0  0  0
   60.8645   31.4916   47.2874 H   0  0  0  0  0  0  0  0  0  0  0  0
   62.2438   33.2837   49.3165 H   0  0  0  0  0  0  0  0  0  0  0  0
   62.4307   31.5680   49.1307 H   0  0  0  0  0  0  0  0  0  0  0  0
   63.7236   31.8990   46.9382 H   0  0  0  0  0  0  0  0  0  0  0  0
   62.7707   34.8163   47.1446 H   0  0  0  0  0  0  0  0  0  0  0  0
   63.1280   33.9107   45.6699 H   0  0  0  0  0  0  0  0  0  0  0  0
  1  2  1  0
  2  3  1  0
  3  4  1  0
  4  5  2  0
  5  6  1  0
  6  7  2  0
  7  8  1  0
  8  9  1  0
  9 10  1  0
 10 11  1  0
 11 12  1  0
 12 13  1  0
 13 14  1  0
 14 15  1  0
 15 16  1  0
 15 17  1  0
  7  3  1  0
 17 12  1  0
  1 18  1  0
  1 19  1  0
  1 20  1  0
  2 21  1  0
  2 22  1  0
  9 23  1  0
  9 24  1  0
 10 25  1  0
 10 26  1  0
 11 27  1  0
 11 28  1  0
 13 29  1  0
 13 30  1  0
 14 31  1  0
 14 32  1  0
 15 33  1  6
 17 34  1  0
 17 35  1  0
M  END
>  <smiles>  (13) 
CCn1nnnc1SCCCN1CCC(F)C1

>  <score_type>  (13) 
oracle

>  <origin>  (13) 
adg

>  <m_score__min__energy>  (13) 
-7.0300000000000002

>  <m_primary>  (13) 
energy

$$$$
14:0
     RDKit          3D

 48 50  0  0  0  0  0  0  0  0999 V2000
   56.6370   30.5050   43.0150 C   0  0  0  0  0  0  0  0  0  0  0  0
   55.5620   29.9820   43.9750 C   0  0  0  0  0  0  0  0  0  0  0  0
   56.2220   29.5010   45.1620 N   0  0  0  0  0  0  0  0  0  0  0  0
   57.6120   29.8320   45.1940 C   0  0  0  0  0  0  0  0  0  0  0  0
   58.4800   28.6250   45.4010 C   0  0  0  0  0  0  0  0  0  0  0  0
   58.5830   28.2750   46.8460 C   0  0  0  0  0  0  0  0  0  0  0  0
   59.6550   29.0220   47.5380 C   0  0  0  0  0  0  0  0  0  0  0  0
   59.0810   29.9090   48.6440 C   0  0  0  0  0  0  0  0  0  0  0  0
   59.2130   31.2230   48.2730 N   0  0  0  0  0  0  0  0  0  0  0  0
   59.8370   32.0960   47.6940 C   0  0  0  0  0  0  0  0  0  0  0  0
   59.1200   32.9010   46.7800 C   0  0  0  0  0  0  0  0  0  0  0  0
   57.7650   32.6760   46.5850 C   0  0  0  0  0  0  0  0  0  0  0  0
   57.0540   33.4570   45.6960 C   0  0  0  0  0  0  0  0  0  0  0  0
   57.6730   34.4790   44.9840 C   0  0  0  0  0  0  0  0  0  0  0  0
   59.0020   34.6950   45.1790 C   0  0  0  0  0  0  0  0  0  0  0  0
   59.7130   33.9080   46.0730 C   0  0  0  0  0  0  0  0  0  0  0  0
   61.0170   34.1490   46.2430 N   0  0  0  0  0  0  0  0  0  0  0  0
   61.7650   33.4450   47.0770 C   0  0  0  0  0  0  0  0  0  0  0  0
   63.1040   33.7670   47.1910 C   0  0  0  0  0  0  0  0  0  0  0  0
   63.8960   33.0570   48.0470 C   0  0  0  0  0  0  0  0  0  0  0  0
   63.3140   32.0350   48.7700 C   0  0  0  0  0  0  0  0  0  0  0  0
   61.9790   31.7200   48.6530 C   0  0  0  0  0  0  0  0  0  0  0  0
   61.1780   32.4270   47.7970 C   0  0  0  0  0  0  0  0  0  0  0  0
   57.4780   30.9142   43.5941 H   0  0  0  0  0  0  0  0  0  0  0  0
   56.9951   29.6804   42.3811 H   0  0  0  0  0  0  0  0  0  0  0  0
   56.2092   31.2957   42.3811 H   0  0  0  0  0  0  0  0  0  0  0  0
   54.8680   30.7943   44.2368 H   0  0  0  0  0  0  0  0  0  0  0  0
   54.9880   29.1718   43.5016 H   0  0  0  0  0  0  0  0  0  0  0  0
   55.7110   29.7250   46.0310 H   0  0  0  0  0  0  0  0  0  0  0  0
   57.8852   30.3047   44.2391 H   0  0  0  0  0  0  0  0  0  0  0  0
   57.7762   30.5141   46.0412 H   0  0  0  0  0  0  0  0  0  0  0  0
   58.0462   27.7737   44.8559 H   0  0  0  0  0  0  0  0  0  0  0  0
   59.4885   28.8534   45.0258 H   0  0  0  0  0  0  0  0  0  0  0  0
   57.6236   28.5038   47.3330 H   0  0  0  0  0  0  0  0  0  0  0  0
   58.8272   27.2045   46.9124 H   0  0  0  0  0  0  0  0  0  0  0  0
   60.3627   28.3065   47.9820 H   0  0  0  0  0  0  0  0  0  0  0  0
   60.1642   29.6637   46.8039 H   0  0  0  0  0  0  0  0  0  0  0  0
   58.0171   29.6723   48.7924 H   0  0  0  0  0  0  0  0  0  0  0  0
   59.6237   29.7308   49.5841 H   0  0  0  0  0  0  0  0  0  0  0  0
   57.2563   31.8739   47.1397 H   0  0  0  0  0  0  0  0  0  0  0  0
   55.9805   33.2680   45.5483 H   0  0  0  0  0  0  0  0  0  0  0  0
   57.1004   35.0991   44.2786 H   0  0  0  0  0  0  0  0  0  0  0  0
   59.5143   35.4961   44.6261 H   0  0  0  0  0  0  0  0  0  0  0  0
   61.4450   34.9080   45.7020 H   0  0  0  0  0  0  0  0  0  0  0  0
   63.5287   34.5893   46.5965 H   0  0  0  0  0  0  0  0  0  0  0  0
   64.9649   33.2920   48.1572 H   0  0  0  0  0  0  0  0  0  0  0  0
   63.9384   31.4524   49.4633 H   0  0  0  0  0  0  0  0  0  0  0  0
   61.5549   30.8983   49.2487 H   0  0  0  0  0  0  0  0  0  0  0  0
  1  2  1  0
  2  3  1  0
  3  4  1  0
  4  5  1  0
  5  6  1  0
  6  7  1  0
  7  8  1  0
  8  9  1  0
  9 10  2  3
 10 11  1  0
 11 12  2  0
 12 13  1  0
 13 14  2  0
 14 15  1  0
 15 16  2  0
 16 17  1  0
 17 18  1  0
 18 19  2  0
 19 20  1  0
 20 21  2  0
 21 22  1  0
 22 23  2  0
 23 10  1  0
 16 11  1  0
 23 18  1  0
  1 24  1  0
  1 25  1  0
  1 26  1  0
  2 27  1  0
  2 28  1  0
  3 29  1  0
  4 30  1  0
  4 31  1  0
  5 32  1  0
  5 33  1  0
  6 34  1  0
  6 35  1  0
  7 36  1  0
  7 37  1  0
  8 38  1  0
  8 39  1  0
 12 40  1  0
 13 41  1  0
 14 42  1  0
 15 43  1  0
 17 44  1  0
 19 45  1  0
 20 46  1  0
 21 47  1  0
 22 48  1  0
M  END
>  <smiles>  (14) 
CCNCCCCCN=c1c2ccccc2[nH]c2ccccc12

>  <score_type>  (14) 
oracle

>  <origin>  (14) 
adg

>  <m_score__min__energy>  (14) 
-8

>  <m_primary>  (14) 
energy

$$$$
16:0
     RDKit          3D

 38 39  0  0  1  0  0  0  0  0999 V2000
   56.5780   24.4330   44.5440 C   0  0  0  0  0  0  0  0  0  0  0  0
   55.4340   24.4870   45.5400 C   0  0  0  0  0  0  0  0  0  0  0  0
   55.5700   25.5690   46.3690 O   0  0  0  0  0  0  0  0  0  0  0  0
   56.5230   26.4940   46.0140 C   0  0  0  0  0  0  0  0  0  0  0  0
   57.5950   26.6100   47.0610 C   0  0  0  0  0  0  0  0  0  0  0  0
   58.5400   25.6120   47.0390 O   0  0  0  0  0  0  0  0  0  0  0  0
   59.6190   25.9710   46.2640 C   0  0  0  0  0  0  0  0  0  0  0  0
   59.8150   27.5170   46.3370 C   0  0  0  0  0  0  0  0  0  0  0  0
   59.5540   27.9470   44.9990 N   0  0  0  0  0  0  0  0  0  0  0  0
   58.6300   28.8220   44.7310 C   0  0  0  0  0  0  0  0  0  0  0  0
   57.5080   28.3780   43.9260 N   0  0  0  0  0  0  0  0  0  0  0  0
   56.4300   29.7090   43.7130 S   0  0  0  0  0  0  0  0  0  0  0  0
   55.1350   29.4010   44.4160 O   0  0  0  0  0  0  0  0  0  0  0  0
   56.2630   30.1310   42.3090 O   0  0  0  0  0  0  0  0  0  0  0  0
   57.4180   30.8420   44.6610 C   0  0  0  0  0  0  0  0  0  0  0  0
   57.1190   32.1610   44.9060 C   0  0  0  0  0  0  0  0  0  0  0  0
   57.9750   32.9310   45.6590 C   0  0  0  0  0  0  0  0  0  0  0  0
   59.1070   32.3210   46.1340 C   0  0  0  0  0  0  0  0  0  0  0  0
   59.4040   30.9770   45.8790 C   0  0  0  0  0  0  0  0  0  0  0  0
   58.5380   30.1880   45.1140 C   0  0  0  0  0  0  0  0  0  0  0  0
   57.5342   24.3879   45.0859 H   0  0  0  0  0  0  0  0  0  0  0  0
   56.4721   23.5389   43.9121 H   0  0  0  0  0  0  0  0  0  0  0  0
   56.5568   25.3331   43.9121 H   0  0  0  0  0  0  0  0  0  0  0  0
   54.4823   24.5666   44.9941 H   0  0  0  0  0  0  0  0  0  0  0  0
   55.4475   23.5699   46.1472 H   0  0  0  0  0  0  0  0  0  0  0  0
   56.9834   26.1861   45.0636 H   0  0  0  0  0  0  0  0  0  0  0  0
   56.0324   27.4733   45.9124 H   0  0  0  0  0  0  0  0  0  0  0  0
   58.1104   27.5710   46.9164 H   0  0  0  0  0  0  0  0  0  0  0  0
   57.0854   26.5290   48.0325 H   0  0  0  0  0  0  0  0  0  0  0  0
   60.5232   25.4680   46.6375 H   0  0  0  0  0  0  0  0  0  0  0  0
   59.4394   25.6713   45.2210 H   0  0  0  0  0  0  0  0  0  0  0  0
   59.1035   27.9712   47.0424 H   0  0  0  0  0  0  0  0  0  0  0  0
   60.8141   27.8070   46.6944 H   0  0  0  0  0  0  0  0  0  0  0  0
   57.3320   27.4440   43.5210 H   0  0  0  0  0  0  0  0  0  0  0  0
   56.1959   32.6006   44.5003 H   0  0  0  0  0  0  0  0  0  0  0  0
   57.7606   33.9890   45.8705 H   0  0  0  0  0  0  0  0  0  0  0  0
   59.8102   32.9113   46.7398 H   0  0  0  0  0  0  0  0  0  0  0  0
   60.3272   30.5369   46.2840 H   0  0  0  0  0  0  0  0  0  0  0  0
  1  2  1  0
  2  3  1  0
  3  4  1  0
  4  5  1  0
  5  6  1  0
  6  7  1  0
  7  8  1  0
  8  9  1  0
  9 10  2  0
 10 11  1  0
 11 12  1  0
 12 13  2  0
 12 14  2  0
 12 15  1  0
 15 16  2  0
 16 17  1  0
 17 18  2  0
 18 19  1  0
 19 20  2  0
 20 10  1  0
 20 15  1  0
  1 21  1  0
  1 22  1  0
  1 23  1  0
  2 24  1  0
  2 25  1  0
  4 26  1  0
  4 27  1  0
  5 28  1  0
  5 29  1  0
  7 30  1  0
  7 31  1  0
  8 32  1  0
  8 33  1  0
 11 34  1  0
 16 35  1  0
 17 36  1  0
 18 37  1  0
 19 38  1  0
M  END
>  <smiles>  (15) 
CCOCCOCCN=C1NS(=O)(=O)c2ccccc21

>  <score_type>  (15) 
oracle

>  <origin>  (15) 
adg

>  <m_score__min__energy>  (15) 
-6.5800000000000001

>  <m_primary>  (15) 
energy

$$$$
17:0
     RDKit          3D

 37 40  0  0  0  0  0  0  0  0999 V2000
   58.9020   23.9750   45.6300 C   0  0  0  0  0  0  0  0  0  0  0  0
   57.9330   24.9960   46.2370 C   0  0  0  0  0  0  0  0  0  0  0  0
   58.7640   26.0490   46.8840 C   0  0  0  0  0  0  0  0  0  0  0  0
   58.4140   27.3880   46.4600 N   0  0  0  0  0  0  0  0  0  0  0  0
   57.0180   27.6640   45.5230 S   0  0  0  0  0  0  0  0  0  0  0  0
   56.8590   29.3440   45.1780 C   0  0  0  0  0  0  0  0  0  0  0  0
   55.9600   30.0750   44.4950 N   0  0  0  0  0  0  0  0  0  0  0  0
   56.3080   31.3440   44.5360 N   0  0  0  0  0  0  0  0  0  0  0  0
   57.4350   31.3950   45.2540 C   0  0  0  0  0  0  0  0  0  0  0  0
   58.1270   32.6670   45.5150 C   0  0  0  0  0  0  0  0  0  0  0  0
   58.6470   33.4490   44.5090 C   0  0  0  0  0  0  0  0  0  0  0  0
   59.2740   34.6190   44.8830 C   0  0  0  0  0  0  0  0  0  0  0  0
   59.3900   35.0130   46.2050 C   0  0  0  0  0  0  0  0  0  0  0  0
   58.8600   34.2140   47.2180 C   0  0  0  0  0  0  0  0  0  0  0  0
   58.2270   33.0340   46.8510 C   0  0  0  0  0  0  0  0  0  0  0  0
   57.8070   30.1460   45.6720 N   0  0  0  0  0  0  0  0  0  0  0  0
   58.8590   29.7190   46.4100 C   0  0  0  0  0  0  0  0  0  0  0  0
   59.1250   28.4690   46.7620 N   0  0  0  0  0  0  0  0  0  0  0  0
   60.3670   28.4140   47.5720 C   0  0  0  0  0  0  0  0  0  0  0  0
   60.7710   29.8360   47.6240 C   0  0  0  0  0  0  0  0  0  0  0  0
   59.7830   30.5360   46.8880 N   0  0  0  0  0  0  0  0  0  0  0  0
   59.4165   23.4329   46.4371 H   0  0  0  0  0  0  0  0  0  0  0  0
   58.3410   23.2614   45.0086 H   0  0  0  0  0  0  0  0  0  0  0  0
   59.6439   24.4980   45.0086 H   0  0  0  0  0  0  0  0  0  0  0  0
   57.3074   25.4393   45.4482 H   0  0  0  0  0  0  0  0  0  0  0  0
   57.2639   24.5180   46.9677 H   0  0  0  0  0  0  0  0  0  0  0  0
   58.6301   25.9805   47.9737 H   0  0  0  0  0  0  0  0  0  0  0  0
   59.8080   25.8726   46.5858 H   0  0  0  0  0  0  0  0  0  0  0  0
   58.5660   33.1537   43.4525 H   0  0  0  0  0  0  0  0  0  0  0  0
   59.6986   35.2645   44.1001 H   0  0  0  0  0  0  0  0  0  0  0  0
   59.8995   35.9550   46.4562 H   0  0  0  0  0  0  0  0  0  0  0  0
   58.9410   34.5095   48.2745 H   0  0  0  0  0  0  0  0  0  0  0  0
   57.7997   32.3822   47.6272 H   0  0  0  0  0  0  0  0  0  0  0  0
   60.1688   28.0188   48.5793 H   0  0  0  0  0  0  0  0  0  0  0  0
   61.1383   27.7515   47.1523 H   0  0  0  0  0  0  0  0  0  0  0  0
   60.7983   30.1903   48.6650 H   0  0  0  0  0  0  0  0  0  0  0  0
   61.7771   29.9905   47.2071 H   0  0  0  0  0  0  0  0  0  0  0  0
  1  2  1  0
  2  3  1  0
  3  4  1  0
  4  5  1  0
  5  6  1  0
  6  7  2  0
  7  8  1  0
  8  9  2  0
  9 10  1  0
 10 11  2  0
 11 12  1  0
 12 13  2  0
 13 14  1  0
 14 15  2  0
  9 16  1  0
 16 17  1  0
 17 18  1  0
 18 19  1  0
 19 20  1  0
 20 21  1  0
 18  4  1  0
 16  6  1  0
 21 17  2  0
 15 10  1  0
  1 22  1  0
  1 23  1  0
  1 24  1  0
  2 25  1  0
  2 26  1  0
  3 27  1  0
  3 28  1  0
 11 29  1  0
 12 30  1  0
 13 31  1  0
 14 32  1  0
 15 33  1  0
 19 34  1  0
 19 35  1  0
 20 36  1  0
 20 37  1  0
M  END
>  <smiles>  (16) 
CCCn1sc2nnc(-c3ccccc3)n2c2n1CCN=2

>  <score_type>  (16) 
oracle

>  <origin>  (16) 
adg

>  <m_score__min__energy>  (16) 
-7.5

>  <m_primary>  (16) 
energy

$$$$
18:0
     RDKit          3D

 64 63  0  0  0  0  0  0  0  0999 V2000
   61.1300   34.2210   49.0410 C   0  0  0  0  0  0  0  0  0  0  0  0
   62.5470   34.0710   48.5800 C   0  0  0  0  0  0  0  0  0  0  0  0
   62.7210   33.2100   47.4450 N   0  0  0  0  0  0  0  0  0  0  0  0
   63.2090   33.8470   46.2680 C   0  0  0  0  0  0  0  0  0  0  0  0
   63.3430   31.9470   47.7620 C   0  0  0  0  0  0  0  0  0  0  0  0
   62.9890   31.4010   49.1050 C   0  0  0  0  0  0  0  0  0  0  0  0
   61.6680   31.3330   49.4170 O   0  0  0  0  0  0  0  0  0  0  0  0
   61.1050   30.1100   49.6070 C   0  0  0  0  0  0  0  0  0  0  0  0
   59.8390   29.8430   48.8300 C   0  0  0  0  0  0  0  0  0  0  0  0
   59.9620   30.1620   47.4860 O   0  0  0  0  0  0  0  0  0  0  0  0
   60.0250   31.4890   47.2500 N   0  0  0  0  0  0  0  0  0  0  0  0
   58.8960   32.2310   46.8200 C   0  0  0  0  0  0  0  0  0  0  0  0
   57.7700   31.7170   46.6280 O   0  0  0  0  0  0  0  0  0  0  0  0
   59.1340   33.7170   46.6000 C   0  0  0  0  0  0  0  0  0  0  0  0
   58.8670   34.0880   45.1950 C   0  0  0  0  0  0  0  0  0  0  0  0
   57.7900   33.3520   44.4770 C   0  0  0  0  0  0  0  0  0  0  0  0
   57.9970   32.1140   43.9020 N   0  0  0  0  0  0  0  0  0  0  0  0
   57.5860   31.7260   42.6300 C   0  0  0  0  0  0  0  0  0  0  0  0
   56.6980   30.4670   42.7780 C   0  0  0  0  0  0  0  0  0  0  0  0
   55.9630   30.4610   44.0760 C   0  0  0  0  0  0  0  0  0  0  0  0
   56.8060   29.8860   45.1030 N   0  0  0  0  0  0  0  0  0  0  0  0
   57.0490   28.4950   44.8490 C   0  0  0  0  0  0  0  0  0  0  0  0
   58.2550   27.9970   45.6380 C   0  0  0  0  0  0  0  0  0  0  0  0
   59.5040   28.4890   44.9290 C   0  0  0  0  0  0  0  0  0  0  0  0
   59.3650   29.9270   44.7160 N   0  0  0  0  0  0  0  0  0  0  0  0
   61.1005   34.2241   50.1406 H   0  0  0  0  0  0  0  0  0  0  0  0
   60.7189   35.1677   48.6605 H   0  0  0  0  0  0  0  0  0  0  0  0
   60.5298   33.3814   48.6605 H   0  0  0  0  0  0  0  0  0  0  0  0
   62.9284   35.0682   48.3151 H   0  0  0  0  0  0  0  0  0  0  0  0
   63.0960   33.6040   49.4110 H   0  0  0  0  0  0  0  0  0  0  0  0
   63.8557   34.6912   46.5493 H   0  0  0  0  0  0  0  0  0  0  0  0
   63.7870   33.1247   45.6729 H   0  0  0  0  0  0  0  0  0  0  0  0
   62.3611   34.2171   45.6729 H   0  0  0  0  0  0  0  0  0  0  0  0
   63.0372   31.2133   47.0016 H   0  0  0  0  0  0  0  0  0  0  0  0
   64.4280   32.1278   47.7746 H   0  0  0  0  0  0  0  0  0  0  0  0
   63.3969   30.3812   49.1661 H   0  0  0  0  0  0  0  0  0  0  0  0
   63.4149   32.1161   49.8242 H   0  0  0  0  0  0  0  0  0  0  0  0
   61.8451   29.3490   49.3186 H   0  0  0  0  0  0  0  0  0  0  0  0
   60.8179   30.0744   50.6683 H   0  0  0  0  0  0  0  0  0  0  0  0
   59.5903   28.7751   48.9175 H   0  0  0  0  0  0  0  0  0  0  0  0
   59.0476   30.4793   49.2528 H   0  0  0  0  0  0  0  0  0  0  0  0
   60.9580   31.9400   47.4030 H   0  0  0  0  0  0  0  0  0  0  0  0
   58.4649   34.2908   47.2581 H   0  0  0  0  0  0  0  0  0  0  0  0
   60.1852   33.9441   46.8313 H   0  0  0  0  0  0  0  0  0  0  0  0
   58.6004   35.1551   45.1821 H   0  0  0  0  0  0  0  0  0  0  0  0
   59.7898   33.8238   44.6577 H   0  0  0  0  0  0  0  0  0  0  0  0
   56.9736   33.2199   45.2023 H   0  0  0  0  0  0  0  0  0  0  0  0
   57.6304   33.9883   43.5940 H   0  0  0  0  0  0  0  0  0  0  0  0
   58.2790   31.3740   44.5610 H   0  0  0  0  0  0  0  0  0  0  0  0
   57.0093   32.5366   42.1605 H   0  0  0  0  0  0  0  0  0  0  0  0
   58.4583   31.5063   41.9968 H   0  0  0  0  0  0  0  0  0  0  0  0
   55.9685   30.4463   41.9549 H   0  0  0  0  0  0  0  0  0  0  0  0
   57.3500   29.5816   42.7485 H   0  0  0  0  0  0  0  0  0  0  0  0
   55.6987   31.4922   44.3529 H   0  0  0  0  0  0  0  0  0  0  0  0
   55.0454   29.8626   43.9760 H   0  0  0  0  0  0  0  0  0  0  0  0
   57.7010   30.4120   45.2240 H   0  0  0  0  0  0  0  0  0  0  0  0
   56.1620   27.9153   45.1441 H   0  0  0  0  0  0  0  0  0  0  0  0
   57.2550   28.3658   43.7762 H   0  0  0  0  0  0  0  0  0  0  0  0
   58.2236   28.3963   46.6625 H   0  0  0  0  0  0  0  0  0  0  0  0
   58.2515   26.8985   45.6956 H   0  0  0  0  0  0  0  0  0  0  0  0
   60.3895   28.2874   45.5497 H   0  0  0  0  0  0  0  0  0  0  0  0
   59.6267   27.9702   43.9668 H   0  0  0  0  0  0  0  0  0  0  0  0
   58.6790   30.0650   43.9290 H   0  0  0  0  0  0  0  0  0  0  0  0
   58.9610   30.3210   45.5980 H   0  0  0  0  0  0  0  0  0  0  0  0
  1  2  1  0
  2  3  1  0
  3  4  1  0
  3  5  1  0
  5  6  1  0
  6  7  1  0
  7  8  1  0
  8  9  1  0
  9 10  1  0
 10 11  1  0
 11 12  1  0
 12 13  2  0
 12 14  1  0
 14 15  1  0
 15 16  1  0
 16 17  1  0
 17 18  1  0
 18 19  1  0
 19 20  1  0
 20 21  1  0
 21 22  1  0
 22 23  1  0
 23 24  1  0
 24 25  1  0
  1 26  1  0
  1 27  1  0
  1 28  1  0
  2 29  1  0
  2 30  1  0
  4 31  1  0
  4 32  1  0
  4 33  1  0
  5 34  1  0
  5 35  1  0
  6 36  1  0
  6 37  1  0
  8 38  1  0
  8 39  1  0
  9 40  1  0
  9 41  1  0
 11 42  1  0
 14 43  1  0
 14 44  1  0
 15 45  1  0
 15 46  1  0
 16 47  1  0
 16 48  1  0
 17 49  1  0
 18 50  1  0
 18 51  1  0
 19 52  1  0
 19 53  1  0
 20 54  1  0
 20 55  1  0
 21 56  1  0
 22 57  1  0
 22 58  1  0
 23 59  1  0
 23 60  1  0
 24 61  1  0
 24 62  1  0
 25 63  1  0
 25 64  1  0
M  END
>  <smiles>  (17) 
CCN(C)CCOCCONC(=O)CCCNCCCNCCCN

>  <score_type>  (17) 
oracle

>  <origin>  (17) 
adg

>  <m_score__min__energy>  (17) 
-5.1100000000000003

>  <m_primary>  (17) 
energy

$$$$
19:0
     RDKit          3D

 60 62  0  0  0  0  0  0  0  0999 V2000
   59.8630   28.2920   48.2090 C   0  0  0  0  0  0  0  0  0  0  0  0
   59.5900   29.6700   47.5610 C   0  0  0  0  0  0  0  0  0  0  0  0
   60.7750   29.9170   46.6700 C   0  0  0  0  0  0  0  0  0  0  0  0
   58.3290   29.6370   46.9560 N   0  0  0  0  0  0  0  0  0  0  0  0
   58.0090   28.6740   45.9920 C   0  0  0  0  0  0  0  0  0  0  0  0
   56.9470   29.0130   44.9770 C   0  0  0  0  0  0  0  0  0  0  0  0
   57.1900   30.3390   44.3310 C   0  0  0  0  0  0  0  0  0  0  0  0
   57.0340   31.4610   45.1730 N   0  0  0  0  0  0  0  0  0  0  0  0
   57.5390   32.7190   44.6870 C   0  0  0  0  0  0  0  0  0  0  0  0
   57.2360   33.8760   45.5800 C   0  0  0  0  0  0  0  0  0  0  0  0
   58.0530   33.9040   46.8050 C   0  0  0  0  0  0  0  0  0  0  0  0
   58.7810   32.7370   47.1820 N   0  0  0  0  0  0  0  0  0  0  0  0
   59.8090   32.8490   48.1300 C   0  0  0  0  0  0  0  0  0  0  0  0
   61.1080   33.2100   47.9370 C   0  0  0  0  0  0  0  0  0  0  0  0
   61.5490   33.4600   46.6760 C   0  0  0  0  0  0  0  0  0  0  0  0
   62.8420   33.8190   46.3960 C   0  0  0  0  0  0  0  0  0  0  0  0
   63.7640   33.9430   47.4030 C   0  0  0  0  0  0  0  0  0  0  0  0
   63.3330   33.6930   48.6940 C   0  0  0  0  0  0  0  0  0  0  0  0
   62.0210   33.3280   48.9780 C   0  0  0  0  0  0  0  0  0  0  0  0
   61.6480   33.0820   50.2620 N   0  0  0  0  0  0  0  0  0  0  0  0
   62.6640   33.2420   51.2670 C   0  0  0  0  0  0  0  0  0  0  0  0
   60.3890   32.7280   50.4670 C   0  0  0  0  0  0  0  0  0  0  0  0
   59.9690   32.4680   51.7530 C   0  0  0  0  0  0  0  0  0  0  0  0
   58.6540   32.0910   52.0320 C   0  0  0  0  0  0  0  0  0  0  0  0
   57.7180   31.9600   51.0490 C   0  0  0  0  0  0  0  0  0  0  0  0
   58.1440   32.2250   49.7450 C   0  0  0  0  0  0  0  0  0  0  0  0
   59.4420   32.5970   49.4640 C   0  0  0  0  0  0  0  0  0  0  0  0
   59.8433   28.3915   49.3043 H   0  0  0  0  0  0  0  0  0  0  0  0
   59.0889   27.5778   47.8917 H   0  0  0  0  0  0  0  0  0  0  0  0
   60.8509   27.9269   47.8917 H   0  0  0  0  0  0  0  0  0  0  0  0
   59.5177   30.5235   48.2511 H   0  0  0  0  0  0  0  0  0  0  0  0
   61.6659   30.1027   47.2879 H   0  0  0  0  0  0  0  0  0  0  0  0
   60.9464   29.0353   46.0350 H   0  0  0  0  0  0  0  0  0  0  0  0
   60.5799   30.7938   46.0350 H   0  0  0  0  0  0  0  0  0  0  0  0
   57.8360   30.5260   46.9890 H   0  0  0  0  0  0  0  0  0  0  0  0
   58.9314   28.4479   45.4370 H   0  0  0  0  0  0  0  0  0  0  0  0
   57.5815   27.8403   46.5684 H   0  0  0  0  0  0  0  0  0  0  0  0
   56.9388   28.2355   44.1989 H   0  0  0  0  0  0  0  0  0  0  0  0
   55.9811   29.0632   45.5010 H   0  0  0  0  0  0  0  0  0  0  0  0
   58.2202   30.3448   43.9455 H   0  0  0  0  0  0  0  0  0  0  0  0
   56.4240   30.4392   43.5480 H   0  0  0  0  0  0  0  0  0  0  0  0
   57.1960   31.2970   46.1840 H   0  0  0  0  0  0  0  0  0  0  0  0
   58.6311   32.6375   44.5837 H   0  0  0  0  0  0  0  0  0  0  0  0
   57.0384   32.9156   43.7274 H   0  0  0  0  0  0  0  0  0  0  0  0
   57.4174   34.8049   45.0195 H   0  0  0  0  0  0  0  0  0  0  0  0
   56.1866   33.7755   45.8939 H   0  0  0  0  0  0  0  0  0  0  0  0
   58.7861   34.7151   46.6840 H   0  0  0  0  0  0  0  0  0  0  0  0
   57.3133   34.0228   47.6104 H   0  0  0  0  0  0  0  0  0  0  0  0
   58.5900   31.7840   46.7860 H   0  0  0  0  0  0  0  0  0  0  0  0
   60.8365   33.3702   45.8428 H   0  0  0  0  0  0  0  0  0  0  0  0
   63.1422   34.0091   45.3550 H   0  0  0  0  0  0  0  0  0  0  0  0
   64.8050   34.2298   47.1931 H   0  0  0  0  0  0  0  0  0  0  0  0
   64.0509   33.7859   49.5223 H   0  0  0  0  0  0  0  0  0  0  0  0
   62.2071   33.1700   52.2650 H   0  0  0  0  0  0  0  0  0  0  0  0
   63.4208   32.4520   51.1524 H   0  0  0  0  0  0  0  0  0  0  0  0
   63.1413   34.2264   51.1524 H   0  0  0  0  0  0  0  0  0  0  0  0
   60.6877   32.5597   52.5807 H   0  0  0  0  0  0  0  0  0  0  0  0
   58.3646   31.8940   53.0748 H   0  0  0  0  0  0  0  0  0  0  0  0
   56.6828   31.6616   51.2709 H   0  0  0  0  0  0  0  0  0  0  0  0
   57.4235   32.1343   48.9188 H   0  0  0  0  0  0  0  0  0  0  0  0
  1  2  1  0
  2  3  1  0
  2  4  1  0
  4  5  1  0
  5  6  1  0
  6  7  1  0
  7  8  1  0
  8  9  1  0
  9 10  1  0
 10 11  1  0
 11 12  1  0
 12 13  1  0
 13 14  2  0
 14 15  1  0
 15 16  2  0
 16 17  1  0
 17 18  2  0
 18 19  1  0
 19 20  2  0
 20 21  1  0
 20 22  1  0
 22 23  2  0
 23 24  1  0
 24 25  2  0
 25 26  1  0
 26 27  2  0
 27 13  1  0
 19 14  1  0
 27 22  1  0
  1 28  1  0
  1 29  1  0
  1 30  1  0
  2 31  1  0
  3 32  1  0
  3 33  1  0
  3 34  1  0
  4 35  1  0
  5 36  1  0
  5 37  1  0
  6 38  1  0
  6 39  1  0
  7 40  1  0
  7 41  1  0
  8 42  1  0
  9 43  1  0
  9 44  1  0
 10 45  1  0
 10 46  1  0
 11 47  1  0
 11 48  1  0
 12 49  1  0
 15 50  1  0
 16 51  1  0
 17 52  1  0
 18 53  1  0
 21 54  1  0
 21 55  1  0
 21 56  1  0
 23 57  1  0
 24 58  1  0
 25 59  1  0
 26 60  1  0
M  CHG  1  20   1
M  END
>  <smiles>  (18) 
CC(C)NCCCNCCCNc1c2ccccc2[n+](C)c2ccccc12

>  <score_type>  (18) 
oracle

>  <origin>  (18) 
adg

>  <m_score__min__energy>  (18) 
-5.5700000000000003

>  <m_primary>  (18) 
energy

$$$$
20:0
     RDKit          3D

 53 56  0  0  0  0  0  0  0  0999 V2000
   58.1080   32.9090   43.7520 C   0  0  0  0  0  0  0  0  0  0  0  0
   57.7200   31.7120   42.9550 C   0  0  0  0  0  0  0  0  0  0  0  0
   57.4020   31.9750   41.5250 C   0  0  0  0  0  0  0  0  0  0  0  0
   56.6780   30.8410   43.5590 C   0  0  0  0  0  0  0  0  0  0  0  0
   56.9490   29.3360   43.3060 C   0  0  0  0  0  0  0  0  0  0  0  0
   57.2530   28.5780   44.3490 N   0  0  0  0  0  0  0  0  0  0  0  0
   57.5770   27.7670   45.4640 C   0  0  0  0  0  0  0  0  0  0  0  0
   57.2320   26.4600   45.6000 N   0  0  0  0  0  0  0  0  0  0  0  0
   57.5980   25.6410   46.5790 C   0  0  0  0  0  0  0  0  0  0  0  0
   57.1830   24.2900   46.6510 N   0  0  0  0  0  0  0  0  0  0  0  0
   57.7850   23.2700   45.7810 C   0  0  0  0  0  0  0  0  0  0  0  0
   57.1810   21.9580   46.2880 C   0  0  0  0  0  0  0  0  0  0  0  0
   57.3720   21.8240   47.6570 O   0  0  0  0  0  0  0  0  0  0  0  0
   56.5180   22.6740   48.3720 C   0  0  0  0  0  0  0  0  0  0  0  0
   56.1670   23.9060   47.5910 C   0  0  0  0  0  0  0  0  0  0  0  0
   58.3870   26.1440   47.5250 N   0  0  0  0  0  0  0  0  0  0  0  0
   58.7720   27.4090   47.4840 C   0  0  0  0  0  0  0  0  0  0  0  0
   59.5270   27.8180   48.4350 O   0  0  0  0  0  0  0  0  0  0  0  0
   58.3790   28.2640   46.4550 C   0  0  0  0  0  0  0  0  0  0  0  0
   58.7700   29.6380   46.6380 C   0  0  0  0  0  0  0  0  0  0  0  0
   58.1440   30.6700   46.7910 N   0  0  0  0  0  0  0  0  0  0  0  0
   58.6580   31.8730   46.8430 C   0  0  0  0  0  0  0  0  0  0  0  0
   57.9550   33.0740   46.9890 C   0  0  0  0  0  0  0  0  0  0  0  0
   58.6030   34.2670   47.0070 C   0  0  0  0  0  0  0  0  0  0  0  0
   59.9930   34.3940   46.8840 C   0  0  0  0  0  0  0  0  0  0  0  0
   60.6640   33.2070   46.7420 C   0  0  0  0  0  0  0  0  0  0  0  0
   60.0000   31.9790   46.7200 C   0  0  0  0  0  0  0  0  0  0  0  0
   60.4820   30.3160   46.5310 S   0  0  0  0  0  0  0  0  0  0  0  0
   58.0324   32.6758   44.8243 H   0  0  0  0  0  0  0  0  0  0  0  0
   59.1435   33.1907   43.5101 H   0  0  0  0  0  0  0  0  0  0  0  0
   57.4347   33.7446   43.5101 H   0  0  0  0  0  0  0  0  0  0  0  0
   58.6618   31.1443   42.9829 H   0  0  0  0  0  0  0  0  0  0  0  0
   56.5558   32.6748   41.4603 H   0  0  0  0  0  0  0  0  0  0  0  0
   58.2800   32.4144   41.0289 H   0  0  0  0  0  0  0  0  0  0  0  0
   57.1352   31.0302   41.0289 H   0  0  0  0  0  0  0  0  0  0  0  0
   56.6544   31.0185   44.6443 H   0  0  0  0  0  0  0  0  0  0  0  0
   55.7157   31.0929   43.0893 H   0  0  0  0  0  0  0  0  0  0  0  0
   56.0439   28.9128   42.8459 H   0  0  0  0  0  0  0  0  0  0  0  0
   57.8530   29.3195   42.6795 H   0  0  0  0  0  0  0  0  0  0  0  0
   56.7860   27.5070   43.7240 H   0  0  0  0  0  0  0  0  0  0  0  0
   57.5169   23.4443   44.7285 H   0  0  0  0  0  0  0  0  0  0  0  0
   58.8844   23.2748   45.8162 H   0  0  0  0  0  0  0  0  0  0  0  0
   56.1025   21.9502   46.0718 H   0  0  0  0  0  0  0  0  0  0  0  0
   57.6796   21.1201   45.7786 H   0  0  0  0  0  0  0  0  0  0  0  0
   55.5926   22.1291   48.6102 H   0  0  0  0  0  0  0  0  0  0  0  0
   57.0411   22.9896   49.2868 H   0  0  0  0  0  0  0  0  0  0  0  0
   55.2344   23.7161   47.0394 H   0  0  0  0  0  0  0  0  0  0  0  0
   56.0609   24.7302   48.3118 H   0  0  0  0  0  0  0  0  0  0  0  0
   58.6910   25.5550   48.2970 H   0  0  0  0  0  0  0  0  0  0  0  0
   56.8600   33.0513   47.0908 H   0  0  0  0  0  0  0  0  0  0  0  0
   58.0049   35.1827   47.1244 H   0  0  0  0  0  0  0  0  0  0  0  0
   60.5046   35.3677   46.9001 H   0  0  0  0  0  0  0  0  0  0  0  0
   61.7594   33.2225   46.6423 H   0  0  0  0  0  0  0  0  0  0  0  0
  1  2  1  0
  2  3  1  0
  2  4  1  0
  4  5  1  0
  5  6  1  0
  6  7  1  0
  7  8  1  0
  8  9  2  0
  9 10  1  0
 10 11  1  0
 11 12  1  0
 12 13  1  0
 13 14  1  0
 14 15  1  0
  9 16  1  0
 16 17  1  0
 17 18  2  0
 17 19  1  0
 19 20  1  0
 20 21  2  0
 21 22  1  0
 22 23  2  0
 23 24  1  0
 24 25  2  0
 25 26  1  0
 26 27  2  0
 27 28  1  0
 19  7  2  0
 28 20  1  0
 15 10  1  0
 27 22  1  0
  1 29  1  0
  1 30  1  0
  1 31  1  0
  2 32  1  0
  3 33  1  0
  3 34  1  0
  3 35  1  0
  4 36  1  0
  4 37  1  0
  5 38  1  0
  5 39  1  0
  6 40  1  0
 11 41  1  0
 11 42  1  0
 12 43  1  0
 12 44  1  0
 14 45  1  0
 14 46  1  0
 15 47  1  0
 15 48  1  0
 16 49  1  0
 23 50  1  0
 24 51  1  0
 25 52  1  0
 26 53  1  0
M  END
>  <smiles>  (19) 
CC(C)CCNc1nc(N2CCOCC2)[nH]c(=O)c1-c1nc2ccccc2s1

>  <score_type>  (19) 
oracle

>  <origin>  (19) 
adg

>  <m_score__min__energy>  (19) 
-8.5099999999999998

>  <m_primary>  (19) 
energy

$$$$
21:0
     RDKit          3D

 60 62  0  0  0  0  0  0  0  0999 V2000
   61.7720   30.1090   50.5280 C   0  0  0  0  0  0  0  0  0  0  0  0
   62.5540   30.8800   49.4570 C   0  0  0  0  0  0  0  0  0  0  0  0
   61.8500   30.7870   48.2700 O   0  0  0  0  0  0  0  0  0  0  0  0
   62.5170   31.3930   47.2480 C   0  0  0  0  0  0  0  0  0  0  0  0
   63.3150   32.5850   47.5840 C   0  0  0  0  0  0  0  0  0  0  0  0
   62.7070   33.8660   47.9710 C   0  0  0  0  0  0  0  0  0  0  0  0
   62.0760   34.1020   49.1730 N   0  0  0  0  0  0  0  0  0  0  0  0
   62.5650   33.8080   50.4370 C   0  0  0  0  0  0  0  0  0  0  0  0
   61.3520   33.5340   51.3530 C   0  0  0  0  0  0  0  0  0  0  0  0
   60.1510   33.8420   50.7960 O   0  0  0  0  0  0  0  0  0  0  0  0
   59.0690   33.0920   51.1630 C   0  0  0  0  0  0  0  0  0  0  0  0
   58.6250   32.2680   49.9770 C   0  0  0  0  0  0  0  0  0  0  0  0
   59.6510   32.2370   48.9690 N   0  0  0  0  0  0  0  0  0  0  0  0
   59.2120   31.9130   47.6300 C   0  0  0  0  0  0  0  0  0  0  0  0
   59.0960   32.9040   46.6830 C   0  0  0  0  0  0  0  0  0  0  0  0
   59.4110   34.1870   47.0800 C   0  0  0  0  0  0  0  0  0  0  0  0
   59.3170   35.2450   46.1980 C   0  0  0  0  0  0  0  0  0  0  0  0
   58.8960   34.9550   44.9150 C   0  0  0  0  0  0  0  0  0  0  0  0
   58.5820   33.6710   44.5250 C   0  0  0  0  0  0  0  0  0  0  0  0
   58.6740   32.5950   45.4030 C   0  0  0  0  0  0  0  0  0  0  0  0
   58.3600   31.3320   45.0220 N   0  0  0  0  0  0  0  0  0  0  0  0
   57.9430   31.0640   43.6720 C   0  0  0  0  0  0  0  0  0  0  0  0
   58.4790   30.3750   45.9630 C   0  0  0  0  0  0  0  0  0  0  0  0
   58.1700   29.0500   45.6610 C   0  0  0  0  0  0  0  0  0  0  0  0
   58.2810   28.0580   46.6160 C   0  0  0  0  0  0  0  0  0  0  0  0
   58.7010   28.3310   47.9080 C   0  0  0  0  0  0  0  0  0  0  0  0
   59.0110   29.6450   48.2170 C   0  0  0  0  0  0  0  0  0  0  0  0
   58.8960   30.6300   47.2550 C   0  0  0  0  0  0  0  0  0  0  0  0
   62.1007   30.4331   51.5265 H   0  0  0  0  0  0  0  0  0  0  0  0
   60.6967   30.3101   50.4128 H   0  0  0  0  0  0  0  0  0  0  0  0
   61.9578   29.0309   50.4128 H   0  0  0  0  0  0  0  0  0  0  0  0
   62.6520   31.9351   49.7522 H   0  0  0  0  0  0  0  0  0  0  0  0
   63.5628   30.4575   49.3394 H   0  0  0  0  0  0  0  0  0  0  0  0
   63.1992   30.6496   46.8100 H   0  0  0  0  0  0  0  0  0  0  0  0
   61.7310   31.7572   46.5701 H   0  0  0  0  0  0  0  0  0  0  0  0
   63.9635   32.2905   48.4223 H   0  0  0  0  0  0  0  0  0  0  0  0
   63.7616   32.8356   46.6105 H   0  0  0  0  0  0  0  0  0  0  0  0
   63.5180   34.6069   47.9130 H   0  0  0  0  0  0  0  0  0  0  0  0
   61.8496   33.8990   47.2827 H   0  0  0  0  0  0  0  0  0  0  0  0
   61.2790   34.7710   49.1880 H   0  0  0  0  0  0  0  0  0  0  0  0
   63.2102   32.9182   50.3923 H   0  0  0  0  0  0  0  0  0  0  0  0
   63.1619   34.6462   50.8257 H   0  0  0  0  0  0  0  0  0  0  0  0
   61.3487   32.4644   51.6100 H   0  0  0  0  0  0  0  0  0  0  0  0
   61.4678   34.1840   52.2328 H   0  0  0  0  0  0  0  0  0  0  0  0
   59.3451   32.4259   51.9937 H   0  0  0  0  0  0  0  0  0  0  0  0
   58.2503   33.7503   51.4891 H   0  0  0  0  0  0  0  0  0  0  0  0
   58.4136   31.2409   50.3093 H   0  0  0  0  0  0  0  0  0  0  0  0
   57.7202   32.7231   49.5479 H   0  0  0  0  0  0  0  0  0  0  0  0
   60.6610   32.4300   49.1520 H   0  0  0  0  0  0  0  0  0  0  0  0
   59.7415   34.3696   48.1132 H   0  0  0  0  0  0  0  0  0  0  0  0
   59.5661   36.2720   46.5032 H   0  0  0  0  0  0  0  0  0  0  0  0
   58.8088   35.7720   44.1837 H   0  0  0  0  0  0  0  0  0  0  0  0
   58.2497   33.4917   43.4918 H   0  0  0  0  0  0  0  0  0  0  0  0
   57.0177   30.4693   43.6853 H   0  0  0  0  0  0  0  0  0  0  0  0
   57.7606   32.0144   43.1491 H   0  0  0  0  0  0  0  0  0  0  0  0
   58.7318   30.5033   43.1491 H   0  0  0  0  0  0  0  0  0  0  0  0
   57.8326   28.7901   44.6468 H   0  0  0  0  0  0  0  0  0  0  0  0
   58.0290   27.0226   46.3432 H   0  0  0  0  0  0  0  0  0  0  0  0
   58.7851   27.5333   48.6607 H   0  0  0  0  0  0  0  0  0  0  0  0
   59.3496   29.9050   49.2308 H   0  0  0  0  0  0  0  0  0  0  0  0
  1  2  1  0
  2  3  1  0
  3  4  1  0
  4  5  1  0
  5  6  1  0
  6  7  1  0
  7  8  1  0
  8  9  1  0
  9 10  1  0
 10 11  1  0
 11 12  1  0
 12 13  1  0
 13 14  1  0
 14 15  2  0
 15 16  1  0
 16 17  2  0
 17 18  1  0
 18 19  2  0
 19 20  1  0
 20 21  2  0
 21 22  1  0
 21 23  1  0
 23 24  2  0
 24 25  1  0
 25 26  2  0
 26 27  1  0
 27 28  2  0
 28 14  1  0
 20 15  1  0
 28 23  1  0
  1 29  1  0
  1 30  1  0
  1 31  1  0
  2 32  1  0
  2 33  1  0
  4 34  1  0
  4 35  1  0
  5 36  1  0
  5 37  1  0
  6 38  1  0
  6 39  1  0
  7 40  1  0
  8 41  1  0
  8 42  1  0
  9 43  1  0
  9 44  1  0
 11 45  1  0
 11 46  1  0
 12 47  1  0
 12 48  1  0
 13 49  1  0
 16 50  1  0
 17 51  1  0
 18 52  1  0
 19 53  1  0
 22 54  1  0
 22 55  1  0
 22 56  1  0
 24 57  1  0
 25 58  1  0
 26 59  1  0
 27 60  1  0
M  CHG  1  21   1
M  END
>  <smiles>  (20) 
CCOCCCNCCOCCNc1c2ccccc2[n+](C)c2ccccc12

>  <score_type>  (20) 
oracle

>  <origin>  (20) 
adg

>  <m_score__min__energy>  (20) 
-4.9199999999999999

>  <m_primary>  (20) 
energy

$$$$
