0:0
     RDKit          3D

 76 78  0  0  0  0  0  0  0  0999 V2000
   60.6180   28.6410   44.8860 C   0  0  0  0  0  0  0  0  0  0  0  0
   59.5030   27.9010   44.1380 C   0  0  0  0  0  0  0  0  0  0  0  0
   58.4350   27.3880   45.0430 N   0  0  1  0  0  0  0  0  0  0  0  0
   57.8860   26.1020   44.5440 C   0  0  0  0  0  0  0  0  0  0  0  0
   58.9430   27.1950   46.4240 C   0  0  0  0  0  0  0  0  0  0  0  0
   58.7010   28.3920   47.3490 C   0  0  0  0  0  0  0  0  0  0  0  0
   57.7670   29.3480   46.7590 N   0  0  0  0  0  0  0  0  0  0  0  0
   58.1370   30.6880   46.3450 C   0  0  0  0  0  0  0  0  0  0  0  0
   57.8680   31.1260   45.0320 C   0  0  0  0  0  0  0  0  0  0  0  0
   57.3880   30.2370   44.0330 C   0  0  0  0  0  0  0  0  0  0  0  0
   57.2030   30.6710   42.7300 C   0  0  0  0  0  0  0  0  0  0  0  0
   57.4200   31.9990   42.3960 C   0  0  0  0  0  0  0  0  0  0  0  0
   57.1570   32.5280   40.7560 Cl  0  0  0  0  0  0  0  0  0  0  0  0
   57.8560   32.8990   43.3690 C   0  0  0  0  0  0  0  0  0  0  0  0
   58.1980   32.4560   44.6670 C   0  0  0  0  0  0  0  0  0  0  0  0
   58.8930   33.2740   45.5470 N   0  0  0  0  0  0  0  0  0  0  0  0
   59.5240   34.5140   45.0420 C   0  0  0  0  0  0  0  0  0  0  0  0
   59.0650   32.8860   46.8620 C   0  0  0  0  0  0  0  0  0  0  0  0
   59.5600   33.7680   47.8450 C   0  0  0  0  0  0  0  0  0  0  0  0
   59.9030   33.3270   49.1230 C   0  0  0  0  0  0  0  0  0  0  0  0
   60.5160   34.2030   50.0200 O   0  0  0  0  0  0  0  0  0  0  0  0
   61.8810   34.0770   50.4690 C   0  0  0  0  0  0  0  0  0  0  0  0
   62.8690   34.0970   49.2840 C   0  0  0  0  0  0  0  0  0  0  0  0
   63.6440   32.8160   49.0380 N   0  0  0  0  0  0  0  0  0  0  0  0
   62.9860   31.8100   49.9220 C   0  0  0  0  0  0  0  0  0  0  0  0
   63.4640   32.3830   47.6030 C   0  0  0  0  0  0  0  0  0  0  0  0
   62.3050   31.3770   47.3480 C   0  0  0  0  0  0  0  0  0  0  0  0
   65.0860   32.9870   49.4840 C   0  0  0  0  0  0  0  0  0  0  0  0
   65.6480   31.9190   50.4530 C   0  0  0  0  0  0  0  0  0  0  0  0
   59.6110   32.0250   49.5190 C   0  0  0  0  0  0  0  0  0  0  0  0
   59.8710   31.6420   50.8550 O   0  0  0  0  0  0  0  0  0  0  0  0
   59.4900   30.3900   51.4370 C   0  0  0  0  0  0  0  0  0  0  0  0
   59.0350   31.1540   48.5850 C   0  0  0  0  0  0  0  0  0  0  0  0
   58.7400   31.5650   47.2650 C   0  0  0  0  0  0  0  0  0  0  0  0
   60.4631   28.5382   45.9702 H   0  0  0  0  0  0  0  0  0  0  0  0
   61.5921   28.2096   44.6123 H   0  0  0  0  0  0  0  0  0  0  0  0
   60.5988   29.7062   44.6123 H   0  0  0  0  0  0  0  0  0  0  0  0
   59.0470   28.5931   43.4148 H   0  0  0  0  0  0  0  0  0  0  0  0
   59.9600   27.0316   43.6427 H   0  0  0  0  0  0  0  0  0  0  0  0
   57.6510   28.0740   45.0450 H   0  0  0  0  0  0  0  0  0  0  0  0
   57.6136   25.4638   45.3975 H   0  0  0  0  0  0  0  0  0  0  0  0
   56.9928   26.2973   43.9324 H   0  0  0  0  0  0  0  0  0  0  0  0
   58.6449   25.5921   43.9324 H   0  0  0  0  0  0  0  0  0  0  0  0
   58.4427   26.3163   46.8571 H   0  0  0  0  0  0  0  0  0  0  0  0
   60.0328   27.0666   46.3476 H   0  0  0  0  0  0  0  0  0  0  0  0
   58.2864   28.0292   48.3011 H   0  0  0  0  0  0  0  0  0  0  0  0
   59.6618   28.9034   47.5081 H   0  0  0  0  0  0  0  0  0  0  0  0
   56.8010   29.0210   46.5780 H   0  0  0  0  0  0  0  0  0  0  0  0
   57.1609   29.1935   44.2966 H   0  0  0  0  0  0  0  0  0  0  0  0
   56.8822   29.9579   41.9564 H   0  0  0  0  0  0  0  0  0  0  0  0
   57.9347   33.9681   43.1225 H   0  0  0  0  0  0  0  0  0  0  0  0
   59.8408   35.1365   45.8918 H   0  0  0  0  0  0  0  0  0  0  0  0
   60.4005   34.2562   44.4295 H   0  0  0  0  0  0  0  0  0  0  0  0
   58.7996   35.0708   44.4295 H   0  0  0  0  0  0  0  0  0  0  0  0
   59.6788   34.8331   47.5969 H   0  0  0  0  0  0  0  0  0  0  0  0
   62.1144   34.9141   51.1434 H   0  0  0  0  0  0  0  0  0  0  0  0
   61.9859   33.1140   50.9902 H   0  0  0  0  0  0  0  0  0  0  0  0
   62.2959   34.3231   48.3727 H   0  0  0  0  0  0  0  0  0  0  0  0
   63.6244   34.8537   49.5425 H   0  0  0  0  0  0  0  0  0  0  0  0
   63.1606   32.0770   50.9747 H   0  0  0  0  0  0  0  0  0  0  0  0
   61.9045   31.7973   49.7215 H   0  0  0  0  0  0  0  0  0  0  0  0
   63.4078   30.8141   49.7215 H   0  0  0  0  0  0  0  0  0  0  0  0
   63.2715   33.2821   46.9992 H   0  0  0  0  0  0  0  0  0  0  0  0
   64.3889   31.8545   47.3284 H   0  0  0  0  0  0  0  0  0  0  0  0
   61.9035   31.0285   48.3110 H   0  0  0  0  0  0  0  0  0  0  0  0
   61.5073   31.8739   46.7764 H   0  0  0  0  0  0  0  0  0  0  0  0
   62.6848   30.5173   46.7764 H   0  0  0  0  0  0  0  0  0  0  0  0
   65.7160   32.9826   48.5823 H   0  0  0  0  0  0  0  0  0  0  0  0
   65.1017   33.9284   50.0527 H   0  0  0  0  0  0  0  0  0  0  0  0
   65.4788   32.2406   51.4912 H   0  0  0  0  0  0  0  0  0  0  0  0
   65.1375   30.9604   50.2782 H   0  0  0  0  0  0  0  0  0  0  0  0
   66.7271   31.7969   50.2782 H   0  0  0  0  0  0  0  0  0  0  0  0
   59.5152   30.4727   52.5336 H   0  0  0  0  0  0  0  0  0  0  0  0
   58.4719   30.1294   51.1122 H   0  0  0  0  0  0  0  0  0  0  0  0
   60.1904   29.6064   51.1122 H   0  0  0  0  0  0  0  0  0  0  0  0
   58.8059   30.1215   48.8873 H   0  0  0  0  0  0  0  0  0  0  0  0
  1  2  1  0
  2  3  1  0
  3  4  1  0
  3  5  1  0
  5  6  1  0
  6  7  1  0
  7  8  1  0
  8  9  2  0
  9 10  1  0
 10 11  2  0
 11 12  1  0
 12 13  1  0
 12 14  2  0
 14 15  1  0
 15 16  2  0
 16 17  1  0
 16 18  1  0
 18 19  2  0
 19 20  1  0
 20 21  1  0
 21 22  1  0
 22 23  1  0
 23 24  1  0
 24 25  1  0
 24 26  1  0
 26 27  1  0
 24 28  1  0
 28 29  1  0
 20 30  2  0
 30 31  1  0
 31 32  1  0
 30 33  1  0
 33 34  2  0
 34  8  1  0
 15  9  1  0
 34 18  1  0
  1 35  1  0
  1 36  1  0
  1 37  1  0
  2 38  1  0
  2 39  1  0
  3 40  1  1
  4 41  1  0
  4 42  1  0
  4 43  1  0
  5 44  1  0
  5 45  1  0
  6 46  1  0
  6 47  1  0
  7 48  1  0
 10 49  1  0
 11 50  1  0
 14 51  1  0
 17 52  1  0
 17 53  1  0
 17 54  1  0
 19 55  1  0
 22 56  1  0
 22 57  1  0
 23 58  1  0
 23 59  1  0
 25 60  1  0
 25 61  1  0
 25 62  1  0
 26 63  1  0
 26 64  1  0
 27 65  1  0
 27 66  1  0
 27 67  1  0
 28 68  1  0
 28 69  1  0
 29 70  1  0
 29 71  1  0
 29 72  1  0
 32 73  1  0
 32 74  1  0
 32 75  1  0
 33 76  1  0
M  CHG  3   3   1  16   1  24   1
M  END
>  <UniqueID>  (1) 
1

>  <SMILES>  (1) 
CC[N@@H+](C)CCNc1c2ccc(Cl)cc2[n+](C)c2cc(OCC[N+](C)(CC)CC)c(OC)cc12

>  <Energy>  (1) 
139.19134914998443

>  <Genealogy>  (1) 
CC[NH+](C)CCNc1c2ccc(Cl)cc2[n+](C)c2cc(OCC[N+](C)(CC)CC)c(OC)cc12 (protonated)
CC[N@@H+](C)CCNc1c2ccc(Cl)cc2[n+](C)c2cc(OCC[N+](C)(CC)CC)c(OC)cc12 (chirality)
CC[N@@H+](C)CCNc1c2ccc(Cl)cc2[n+](C)c2cc(OCC[N+](C)(CC)CC)c(OC)cc12 (3D coordinates assigned)
CC[N@@H+](C)CCNc1c2ccc(Cl)cc2[n+](C)c2cc(OCC[N+](C)(CC)CC)c(OC)cc12 (optimized conformer: 139.19134914998443 kcal/mol)

>  <smiles>  (1) 
CCN(C)CCNc1c2ccc(Cl)cc2[n+](C)c2cc(OCC[N+](C)(CC)CC)c(OC)cc12

>  <score_type>  (1) 
oracle

>  <origin>  (1) 
adg

>  <m_score__min__energy>  (1) 
-2.5499999999999998

>  <m_primary>  (1) 
energy

$$$$
1:0
     RDKit          3D

 38 41  0  0  0  0  0  0  0  0999 V2000
   56.4030   30.2430   43.4370 C   0  0  0  0  0  0  0  0  0  0  0  0
   56.5530   30.4400   44.8390 O   0  0  0  0  0  0  0  0  0  0  0  0
   57.7060   30.9550   45.4540 C   0  0  0  0  0  0  0  0  0  0  0  0
   57.7820   32.2880   45.8970 C   0  0  0  0  0  0  0  0  0  0  0  0
   58.9280   32.7600   46.5510 C   0  0  0  0  0  0  0  0  0  0  0  0
   60.0370   31.9080   46.7450 C   0  0  0  0  0  0  0  0  0  0  0  0
   59.9480   30.5720   46.3100 C   0  0  0  0  0  0  0  0  0  0  0  0
   58.8090   30.1060   45.6440 C   0  0  0  0  0  0  0  0  0  0  0  0
   58.7600   28.7290   45.2380 N   0  0  0  0  0  0  0  0  0  0  0  0
   58.0520   27.7800   45.7860 C   0  0  0  0  0  0  0  0  0  0  0  0
   58.5850   26.8900   46.7430 C   0  0  0  0  0  0  0  0  0  0  0  0
   57.7650   25.9030   47.2960 C   0  0  0  0  0  0  0  0  0  0  0  0
   56.4630   25.8080   46.9220 N   0  0  0  0  0  0  0  0  0  0  0  0
   55.9190   26.6590   46.0130 C   0  0  0  0  0  0  0  0  0  0  0  0
   56.7010   27.6610   45.4340 C   0  0  0  0  0  0  0  0  0  0  0  0
   61.2370   32.4380   47.4590 C   0  0  0  0  0  0  0  0  0  0  0  0
   62.4660   31.7490   47.5240 C   0  0  0  0  0  0  0  0  0  0  0  0
   63.5290   32.2700   48.2680 C   0  0  0  0  0  0  0  0  0  0  0  0
   63.3840   33.4770   48.9540 C   0  0  0  0  0  0  0  0  0  0  0  0
   62.1790   34.1800   48.8800 C   0  0  0  0  0  0  0  0  0  0  0  0
   61.1180   33.6760   48.1200 C   0  0  0  0  0  0  0  0  0  0  0  0
   59.9320   34.4060   48.0280 O   0  0  0  0  0  0  0  0  0  0  0  0
   58.9990   34.2080   46.9670 C   0  0  0  0  0  0  0  0  0  0  0  0
   55.7457   29.3797   43.2563 H   0  0  0  0  0  0  0  0  0  0  0  0
   55.9591   31.1426   42.9857 H   0  0  0  0  0  0  0  0  0  0  0  0
   57.3883   30.0544   42.9857 H   0  0  0  0  0  0  0  0  0  0  0  0
   56.9331   32.9669   45.7283 H   0  0  0  0  0  0  0  0  0  0  0  0
   60.7861   29.8844   46.4964 H   0  0  0  0  0  0  0  0  0  0  0  0
   59.6377   26.9727   47.0511 H   0  0  0  0  0  0  0  0  0  0  0  0
   58.1754   25.2008   48.0366 H   0  0  0  0  0  0  0  0  0  0  0  0
   54.8601   26.5585   45.7325 H   0  0  0  0  0  0  0  0  0  0  0  0
   56.2578   28.3544   44.7041 H   0  0  0  0  0  0  0  0  0  0  0  0
   62.5888   30.7970   46.9867 H   0  0  0  0  0  0  0  0  0  0  0  0
   64.4841   31.7261   48.3130 H   0  0  0  0  0  0  0  0  0  0  0  0
   64.2174   33.8741   49.5521 H   0  0  0  0  0  0  0  0  0  0  0  0
   62.0642   35.1313   49.4202 H   0  0  0  0  0  0  0  0  0  0  0  0
   58.0029   34.5319   47.3029 H   0  0  0  0  0  0  0  0  0  0  0  0
   59.3335   34.7981   46.1010 H   0  0  0  0  0  0  0  0  0  0  0  0
  1  2  1  0
  2  3  1  0
  3  4  2  0
  4  5  1  0
  5  6  2  0
  6  7  1  0
  7  8  2  0
  8  9  1  0
  9 10  2  3
 10 11  1  0
 11 12  2  0
 12 13  1  0
 13 14  1  0
 14 15  2  0
  6 16  1  0
 16 17  2  0
 17 18  1  0
 18 19  2  0
 19 20  1  0
 20 21  2  0
 21 22  1  0
 22 23  1  0
  8  3  1  0
 15 10  1  0
 21 16  1  0
 23  5  1  0
  1 24  1  0
  1 25  1  0
  1 26  1  0
  4 27  1  0
  7 28  1  0
 11 29  1  0
 12 30  1  0
 14 31  1  0
 15 32  1  0
 17 33  1  0
 18 34  1  0
 19 35  1  0
 20 36  1  0
 23 37  1  0
 23 38  1  0
M  CHG  1  13  -1
M  END
>  <UniqueID>  (2) 
2

>  <SMILES>  (2) 
COc1cc2c(cc1N=c1cc[n-]cc1)-c1ccccc1OC2

>  <Energy>  (2) 
60.330591842723514

>  <Genealogy>  (2) 
COc1cc2c(cc1N=c1cc[n-]cc1)-c1ccccc1OC2 (protonated)
COc1cc2c(cc1N=c1cc[n-]cc1)-c1ccccc1OC2 (3D coordinates assigned)
COc1cc2c(cc1N=c1cc[n-]cc1)-c1ccccc1OC2 (nonaromatic ring conformer: 60.330591842723514 kcal/mol)

>  <smiles>  (2) 
COc1cc2c(cc1N=c1cc[nH]cc1)-c1ccccc1OC2

>  <score_type>  (2) 
oracle

>  <origin>  (2) 
adg

>  <m_score__min__energy>  (2) 
-8.9299999999999997

>  <m_primary>  (2) 
energy

$$$$
2:0
     RDKit          3D

 61 64  0  0  0  0  0  0  0  0999 V2000
   57.0280   31.2260   51.5800 C   0  0  0  0  0  0  0  0  0  0  0  0
   58.4530   31.4010   52.1040 C   0  0  0  0  0  0  0  0  0  0  0  0
   59.2880   32.1420   51.1310 N   0  0  0  0  0  0  0  0  0  0  0  0
   59.6210   33.5230   51.5490 C   0  0  0  0  0  0  0  0  0  0  0  0
   58.5270   34.1990   52.3830 C   0  0  0  0  0  0  0  0  0  0  0  0
   60.4100   31.3980   50.4980 C   0  0  0  0  0  0  0  0  0  0  0  0
   60.2410   31.1310   48.9890 C   0  0  0  0  0  0  0  0  0  0  0  0
   58.9220   31.5750   48.5470 N   0  0  0  0  0  0  0  0  0  0  0  0
   58.4950   31.3760   47.1940 C   0  0  0  0  0  0  0  0  0  0  0  0
   58.2570   32.4900   46.3690 C   0  0  0  0  0  0  0  0  0  0  0  0
   58.4580   34.1620   46.9990 S   0  0  0  0  0  0  0  0  0  0  0  0
   60.0040   34.4710   46.0830 C   0  0  0  0  0  0  0  0  0  0  0  0
   61.1760   34.1410   46.9610 C   0  0  0  0  0  0  0  0  0  0  0  0
   61.0780   34.2400   48.3600 C   0  0  0  0  0  0  0  0  0  0  0  0
   62.1700   33.9010   49.1680 C   0  0  0  0  0  0  0  0  0  0  0  0
   63.3590   33.4500   48.5850 C   0  0  0  0  0  0  0  0  0  0  0  0
   63.4630   33.3470   47.1950 C   0  0  0  0  0  0  0  0  0  0  0  0
   62.3740   33.6870   46.3840 C   0  0  0  0  0  0  0  0  0  0  0  0
   57.8830   32.3130   45.0350 C   0  0  0  0  0  0  0  0  0  0  0  0
   57.7170   31.0290   44.4990 C   0  0  0  0  0  0  0  0  0  0  0  0
   57.9650   29.9020   45.3160 C   0  0  0  0  0  0  0  0  0  0  0  0
   57.7950   28.6040   44.7910 C   0  0  0  0  0  0  0  0  0  0  0  0
   58.0340   27.4880   45.6040 C   0  0  0  0  0  0  0  0  0  0  0  0
   58.4060   27.6520   46.9360 C   0  0  0  0  0  0  0  0  0  0  0  0
   58.5730   28.9330   47.4690 C   0  0  0  0  0  0  0  0  0  0  0  0
   58.3530   30.0730   46.6690 C   0  0  0  0  0  0  0  0  0  0  0  0
   57.4060   28.4130   43.3500 C   0  0  0  0  0  0  0  0  0  0  0  0
   56.6400   29.6380   42.8390 C   0  0  0  0  0  0  0  0  0  0  0  0
   57.3940   30.8740   43.0960 N   0  0  0  0  0  0  0  0  0  0  0  0
   56.3332   31.1407   52.4285 H   0  0  0  0  0  0  0  0  0  0  0  0
   56.7531   32.0971   50.9672 H   0  0  0  0  0  0  0  0  0  0  0  0
   56.9721   30.3142   50.9672 H   0  0  0  0  0  0  0  0  0  0  0  0
   58.4221   31.9599   53.0509 H   0  0  0  0  0  0  0  0  0  0  0  0
   58.8946   30.4055   52.2588 H   0  0  0  0  0  0  0  0  0  0  0  0
   60.5432   33.4910   52.1477 H   0  0  0  0  0  0  0  0  0  0  0  0
   59.7353   34.1166   50.6300 H   0  0  0  0  0  0  0  0  0  0  0  0
   58.7453   34.0641   53.4526 H   0  0  0  0  0  0  0  0  0  0  0  0
   58.4974   35.2731   52.1474 H   0  0  0  0  0  0  0  0  0  0  0  0
   57.5532   33.7450   52.1474 H   0  0  0  0  0  0  0  0  0  0  0  0
   61.3311   31.9820   50.6408 H   0  0  0  0  0  0  0  0  0  0  0  0
   60.4404   30.4120   50.9847 H   0  0  0  0  0  0  0  0  0  0  0  0
   61.0152   31.6802   48.4331 H   0  0  0  0  0  0  0  0  0  0  0  0
   60.3403   30.0519   48.8003 H   0  0  0  0  0  0  0  0  0  0  0  0
   58.4110   32.2820   49.1240 H   0  0  0  0  0  0  0  0  0  0  0  0
   60.0301   33.8394   45.1828 H   0  0  0  0  0  0  0  0  0  0  0  0
   60.0517   35.5295   45.7876 H   0  0  0  0  0  0  0  0  0  0  0  0
   60.1407   34.5848   48.8211 H   0  0  0  0  0  0  0  0  0  0  0  0
   62.0930   33.9893   50.2617 H   0  0  0  0  0  0  0  0  0  0  0  0
   64.2133   33.1760   49.2215 H   0  0  0  0  0  0  0  0  0  0  0  0
   64.4011   32.9986   46.7382 H   0  0  0  0  0  0  0  0  0  0  0  0
   62.4564   33.5984   45.2907 H   0  0  0  0  0  0  0  0  0  0  0  0
   57.7165   33.1932   44.3967 H   0  0  0  0  0  0  0  0  0  0  0  0
   57.9271   26.4756   45.1873 H   0  0  0  0  0  0  0  0  0  0  0  0
   58.5691   26.7691   47.5715 H   0  0  0  0  0  0  0  0  0  0  0  0
   58.8780   29.0527   48.5191 H   0  0  0  0  0  0  0  0  0  0  0  0
   58.3137   28.2741   42.7444 H   0  0  0  0  0  0  0  0  0  0  0  0
   56.7593   27.5269   43.2684 H   0  0  0  0  0  0  0  0  0  0  0  0
   56.4766   29.5345   41.7561 H   0  0  0  0  0  0  0  0  0  0  0  0
   55.6780   29.6969   43.3692 H   0  0  0  0  0  0  0  0  0  0  0  0
   58.2850   30.8630   42.5460 H   0  0  0  0  0  0  0  0  0  0  0  0
   56.8110   31.6810   42.7730 H   0  0  0  0  0  0  0  0  0  0  0  0
  1  2  1  0
  2  3  1  0
  3  4  1  0
  4  5  1  0
  3  6  1  0
  6  7  1  0
  7  8  1  0
  8  9  1  0
  9 10  2  0
 10 11  1  0
 11 12  1  0
 12 13  1  0
 13 14  2  0
 14 15  1  0
 15 16  2  0
 16 17  1  0
 17 18  2  0
 10 19  1  0
 19 20  2  0
 20 21  1  0
 21 22  2  0
 22 23  1  0
 23 24  2  0
 24 25  1  0
 25 26  2  0
 22 27  1  0
 27 28  1  0
 28 29  1  0
 26  9  1  0
 18 13  1  0
 29 20  1  0
 26 21  1  0
  1 30  1  0
  1 31  1  0
  1 32  1  0
  2 33  1  0
  2 34  1  0
  4 35  1  0
  4 36  1  0
  5 37  1  0
  5 38  1  0
  5 39  1  0
  6 40  1  0
  6 41  1  0
  7 42  1  0
  7 43  1  0
  8 44  1  0
 12 45  1  0
 12 46  1  0
 14 47  1  0
 15 48  1  0
 16 49  1  0
 17 50  1  0
 18 51  1  0
 19 52  1  0
 23 53  1  0
 24 54  1  0
 25 55  1  0
 27 56  1  0
 27 57  1  0
 28 58  1  0
 28 59  1  0
 29 60  1  0
 29 61  1  0
M  CHG  1  29   1
M  END
>  <UniqueID>  (3) 
3

>  <SMILES>  (3) 
CCN(CC)CCNc1c(SCc2ccccc2)cc2c3c(cccc13)CC[NH2+]2

>  <Energy>  (3) 
75.1059876674517

>  <Genealogy>  (3) 
CCN(CC)CCNc1c(SCc2ccccc2)cc2c3c(cccc13)CC[NH2+]2 (protonated)
CCN(CC)CCNc1c(SCc2ccccc2)cc2c3c(cccc13)CC[NH2+]2 (3D coordinates assigned)
CCN(CC)CCNc1c(SCc2ccccc2)cc2c3c(cccc13)CC[NH2+]2 (nonaromatic ring conformer: 75.1059876674517 kcal/mol)

>  <smiles>  (3) 
CCN(CC)CCNc1c(SCc2ccccc2)cc2c3c(cccc13)CCN2

>  <score_type>  (3) 
oracle

>  <origin>  (3) 
adg

>  <m_score__min__energy>  (3) 
-6.4500000000000002

>  <m_primary>  (3) 
energy

$$$$
3:0
     RDKit          3D

 61 65  0  0  0  0  0  0  0  0999 V2000
   57.0660   31.1970   42.7160 C   0  0  0  0  0  0  0  0  0  0  0  0
   56.2440   30.4190   43.7440 C   0  0  0  0  0  0  0  0  0  0  0  0
   56.9700   30.2760   44.9500 O   0  0  0  0  0  0  0  0  0  0  0  0
   56.8120   28.9820   45.5000 C   0  0  0  0  0  0  0  0  0  0  0  0
   58.1810   28.3510   45.8000 C   0  0  0  0  0  0  0  0  0  0  0  0
   59.3020   29.2120   45.3470 N   0  0  0  0  0  0  0  0  0  0  0  0
   59.8780   29.9350   46.4560 C   0  0  0  0  0  0  0  0  0  0  0  0
   59.1430   30.1430   47.6290 C   0  0  0  0  0  0  0  0  0  0  0  0
   59.6940   30.8680   48.6830 C   0  0  0  0  0  0  0  0  0  0  0  0
   60.9780   31.4350   48.5860 C   0  0  0  0  0  0  0  0  0  0  0  0
   61.7350   31.2390   47.3900 C   0  0  0  0  0  0  0  0  0  0  0  0
   61.1650   30.4830   46.3490 C   0  0  0  0  0  0  0  0  0  0  0  0
   63.1570   31.7340   47.1450 C   0  0  0  0  0  0  0  0  0  0  0  0
   63.6750   32.8350   48.0700 C   0  0  0  0  0  0  0  0  0  0  0  0
   63.8930   32.2840   49.4470 C   0  0  0  0  0  0  0  0  0  0  0  0
   65.1840   32.0440   49.9420 C   0  0  0  0  0  0  0  0  0  0  0  0
   65.3550   31.5030   51.2200 C   0  0  0  0  0  0  0  0  0  0  0  0
   64.2410   31.1880   52.0040 C   0  0  0  0  0  0  0  0  0  0  0  0
   64.4090   30.6680   53.2440 F   0  0  0  0  0  0  0  0  0  0  0  0
   62.9540   31.4100   51.5070 C   0  0  0  0  0  0  0  0  0  0  0  0
   62.7790   31.9540   50.2260 C   0  0  0  0  0  0  0  0  0  0  0  0
   61.4640   32.2030   49.7100 N   0  0  0  0  0  0  0  0  0  0  0  0
   60.6540   33.2340   50.3170 C   0  0  0  0  0  0  0  0  0  0  0  0
   60.9560   33.6760   51.4590 O   0  0  0  0  0  0  0  0  0  0  0  0
   59.4410   33.7890   49.6210 C   0  0  0  0  0  0  0  0  0  0  0  0
   59.7240   34.0150   48.2050 N   0  0  0  0  0  0  0  0  0  0  0  0
   60.8710   34.4990   47.7330 N   0  0  0  0  0  0  0  0  0  0  0  0
   60.8220   34.6430   46.4080 N   0  0  0  0  0  0  0  0  0  0  0  0
   59.5910   34.2380   46.0430 C   0  0  0  0  0  0  0  0  0  0  0  0
   59.0260   34.1980   44.7710 C   0  0  0  0  0  0  0  0  0  0  0  0
   57.6950   33.7420   44.6670 C   0  0  0  0  0  0  0  0  0  0  0  0
   56.9760   33.3490   45.8250 C   0  0  0  0  0  0  0  0  0  0  0  0
   57.5830   33.4030   47.0960 C   0  0  0  0  0  0  0  0  0  0  0  0
   58.9040   33.8530   47.1540 C   0  0  0  0  0  0  0  0  0  0  0  0
   57.7695   31.8629   43.2372 H   0  0  0  0  0  0  0  0  0  0  0  0
   57.6273   30.4916   42.0856 H   0  0  0  0  0  0  0  0  0  0  0  0
   56.3925   31.7962   42.0856 H   0  0  0  0  0  0  0  0  0  0  0  0
   55.3088   30.9618   43.9461 H   0  0  0  0  0  0  0  0  0  0  0  0
   56.0217   29.4200   43.3408 H   0  0  0  0  0  0  0  0  0  0  0  0
   56.2347   29.0540   46.4336 H   0  0  0  0  0  0  0  0  0  0  0  0
   56.2818   28.3497   44.7726 H   0  0  0  0  0  0  0  0  0  0  0  0
   58.2696   28.1945   46.8852 H   0  0  0  0  0  0  0  0  0  0  0  0
   58.2426   27.3981   45.2539 H   0  0  0  0  0  0  0  0  0  0  0  0
   59.0000   29.9060   44.6160 H   0  0  0  0  0  0  0  0  0  0  0  0
   60.0390   28.6160   44.8920 H   0  0  0  0  0  0  0  0  0  0  0  0
   58.1265   29.7324   47.7187 H   0  0  0  0  0  0  0  0  0  0  0  0
   59.1144   30.9997   49.6086 H   0  0  0  0  0  0  0  0  0  0  0  0
   61.7432   30.3175   45.4280 H   0  0  0  0  0  0  0  0  0  0  0  0
   63.8313   30.8708   47.2458 H   0  0  0  0  0  0  0  0  0  0  0  0
   63.1339   32.1883   46.1434 H   0  0  0  0  0  0  0  0  0  0  0  0
   64.6265   33.2233   47.6777 H   0  0  0  0  0  0  0  0  0  0  0  0
   62.9337   33.6463   48.1178 H   0  0  0  0  0  0  0  0  0  0  0  0
   66.0624   32.2817   49.3240 H   0  0  0  0  0  0  0  0  0  0  0  0
   66.3682   31.3248   51.6094 H   0  0  0  0  0  0  0  0  0  0  0  0
   62.0770   31.1578   52.1212 H   0  0  0  0  0  0  0  0  0  0  0  0
   58.6105   33.0738   49.7148 H   0  0  0  0  0  0  0  0  0  0  0  0
   59.1695   34.7474   50.0877 H   0  0  0  0  0  0  0  0  0  0  0  0
   59.5948   34.5096   43.8825 H   0  0  0  0  0  0  0  0  0  0  0  0
   57.2111   33.6908   43.6805 H   0  0  0  0  0  0  0  0  0  0  0  0
   55.9373   32.9996   45.7304 H   0  0  0  0  0  0  0  0  0  0  0  0
   57.0392   33.1033   48.0040 H   0  0  0  0  0  0  0  0  0  0  0  0
  1  2  1  0
  2  3  1  0
  3  4  1  0
  4  5  1  0
  5  6  1  0
  6  7  1  0
  7  8  2  0
  8  9  1  0
  9 10  2  0
 10 11  1  0
 11 12  2  0
 11 13  1  0
 13 14  1  0
 14 15  1  0
 15 16  2  0
 16 17  1  0
 17 18  2  0
 18 19  1  0
 18 20  1  0
 20 21  2  0
 21 22  1  0
 22 23  1  0
 23 24  2  0
 23 25  1  0
 25 26  1  0
 26 27  1  0
 27 28  2  0
 28 29  1  0
 29 30  2  0
 30 31  1  0
 31 32  2  0
 32 33  1  0
 33 34  2  0
 12  7  1  0
 21 15  1  0
 34 26  1  0
 22 10  1  0
 34 29  1  0
  1 35  1  0
  1 36  1  0
  1 37  1  0
  2 38  1  0
  2 39  1  0
  4 40  1  0
  4 41  1  0
  5 42  1  0
  5 43  1  0
  6 44  1  0
  6 45  1  0
  8 46  1  0
  9 47  1  0
 12 48  1  0
 13 49  1  0
 13 50  1  0
 14 51  1  0
 14 52  1  0
 16 53  1  0
 17 54  1  0
 20 55  1  0
 25 56  1  0
 25 57  1  0
 30 58  1  0
 31 59  1  0
 32 60  1  0
 33 61  1  0
M  CHG  1   6   1
M  END
>  <UniqueID>  (4) 
4

>  <SMILES>  (4) 
CCOCC[NH2+]c1ccc2c(c1)CCc1ccc(F)cc1N2C(=O)Cn1nnc2ccccc21

>  <Energy>  (4) 
133.60187954753135

>  <Genealogy>  (4) 
CCOCC[NH2+]c1ccc2c(c1)CCc1ccc(F)cc1N2C(=O)Cn1nnc2ccccc21 (protonated)
CCOCC[NH2+]c1ccc2c(c1)CCc1ccc(F)cc1N2C(=O)Cn1nnc2ccccc21 (3D coordinates assigned)
CCOCC[NH2+]c1ccc2c(c1)CCc1ccc(F)cc1N2C(=O)Cn1nnc2ccccc21 (nonaromatic ring conformer: 133.60187954753135 kcal/mol)

>  <smiles>  (4) 
CCOCCNc1ccc2c(c1)CCc1ccc(F)cc1N2C(=O)Cn1nnc2ccccc21

>  <score_type>  (4) 
oracle

>  <origin>  (4) 
adg

>  <m_score__min__energy>  (4) 
-5.5199999999999996

>  <m_primary>  (4) 
energy

$$$$
4:0
     RDKit          3D

 65 67  0  0  0  0  0  0  0  0999 V2000
   64.9840   33.0570   49.7600 C   0  0  0  0  0  0  0  0  0  0  0  0
   63.5770   33.5640   49.4300 C   0  0  0  0  0  0  0  0  0  0  0  0
   62.6780   32.4580   48.9700 N   0  0  0  0  0  0  0  0  0  0  0  0
   62.8250   32.2240   47.5110 C   0  0  0  0  0  0  0  0  0  0  0  0
   63.2480   33.4900   46.7590 C   0  0  0  0  0  0  0  0  0  0  0  0
   62.9670   31.2190   49.7410 C   0  0  0  0  0  0  0  0  0  0  0  0
   61.8130   30.7670   50.6590 C   0  0  0  0  0  0  0  0  0  0  0  0
   60.7810   31.7320   50.6590 O   0  0  0  0  0  0  0  0  0  0  0  0
   59.5360   31.1010   50.8820 C   0  0  0  0  0  0  0  0  0  0  0  0
   58.8570   30.8210   49.5440 C   0  0  0  0  0  0  0  0  0  0  0  0
   59.7450   31.1500   48.4310 N   0  0  0  0  0  0  0  0  0  0  0  0
   59.2510   31.3570   47.0950 C   0  0  0  0  0  0  0  0  0  0  0  0
   59.2300   32.6500   46.5400 C   0  0  0  0  0  0  0  0  0  0  0  0
   59.7680   33.7510   47.2430 C   0  0  0  0  0  0  0  0  0  0  0  0
   59.7760   35.0230   46.6770 C   0  0  0  0  0  0  0  0  0  0  0  0
   59.2700   35.2210   45.3990 C   0  0  0  0  0  0  0  0  0  0  0  0
   58.7490   34.1470   44.6780 C   0  0  0  0  0  0  0  0  0  0  0  0
   58.7010   32.8430   45.2350 C   0  0  0  0  0  0  0  0  0  0  0  0
   58.1920   31.7710   44.5300 N   0  0  0  0  0  0  0  0  0  0  0  0
   57.3950   32.0020   43.3030 C   0  0  0  0  0  0  0  0  0  0  0  0
   58.4140   30.4820   44.9770 C   0  0  0  0  0  0  0  0  0  0  0  0
   58.1940   29.3610   44.1450 C   0  0  0  0  0  0  0  0  0  0  0  0
   58.3500   28.0630   44.6250 C   0  0  0  0  0  0  0  0  0  0  0  0
   58.7380   27.8240   45.9520 C   0  0  0  0  0  0  0  0  0  0  0  0
   58.8880   26.4670   46.4490 N   0  0  0  0  0  0  0  0  0  0  0  0
   57.7500   25.7610   47.0500 C   0  0  0  0  0  0  0  0  0  0  0  0
   60.1790   25.7730   46.3570 C   0  0  0  0  0  0  0  0  0  0  0  0
   59.0060   28.9340   46.7760 C   0  0  0  0  0  0  0  0  0  0  0  0
   58.8920   30.2560   46.2920 C   0  0  0  0  0  0  0  0  0  0  0  0
   65.1106   33.0114   50.8517 H   0  0  0  0  0  0  0  0  0  0  0  0
   65.1215   32.0528   49.3326 H   0  0  0  0  0  0  0  0  0  0  0  0
   65.7304   33.7427   49.3326 H   0  0  0  0  0  0  0  0  0  0  0  0
   63.1439   34.0227   50.3311 H   0  0  0  0  0  0  0  0  0  0  0  0
   63.6615   34.2963   48.6135 H   0  0  0  0  0  0  0  0  0  0  0  0
   61.6760   32.7130   49.1560 H   0  0  0  0  0  0  0  0  0  0  0  0
   63.5873   31.4470   47.3524 H   0  0  0  0  0  0  0  0  0  0  0  0
   61.8455   31.9116   47.1198 H   0  0  0  0  0  0  0  0  0  0  0  0
   63.5106   34.2758   47.4826 H   0  0  0  0  0  0  0  0  0  0  0  0
   64.1204   33.2670   46.1272 H   0  0  0  0  0  0  0  0  0  0  0  0
   62.4167   33.8362   46.1272 H   0  0  0  0  0  0  0  0  0  0  0  0
   63.1786   30.4091   49.0273 H   0  0  0  0  0  0  0  0  0  0  0  0
   63.8234   31.4433   50.3939 H   0  0  0  0  0  0  0  0  0  0  0  0
   61.4139   29.8086   50.2954 H   0  0  0  0  0  0  0  0  0  0  0  0
   62.1950   30.6510   51.6840 H   0  0  0  0  0  0  0  0  0  0  0  0
   59.6965   30.1531   51.4165 H   0  0  0  0  0  0  0  0  0  0  0  0
   58.8953   31.7603   51.4859 H   0  0  0  0  0  0  0  0  0  0  0  0
   58.5920   29.7547   49.4905 H   0  0  0  0  0  0  0  0  0  0  0  0
   57.9540   31.4449   49.4701 H   0  0  0  0  0  0  0  0  0  0  0  0
   60.7760   31.0450   48.5760 H   0  0  0  0  0  0  0  0  0  0  0  0
   60.1856   33.6015   48.2496 H   0  0  0  0  0  0  0  0  0  0  0  0
   60.1841   35.8731   47.2434 H   0  0  0  0  0  0  0  0  0  0  0  0
   59.2802   36.2271   44.9545 H   0  0  0  0  0  0  0  0  0  0  0  0
   58.3685   34.3138   43.6595 H   0  0  0  0  0  0  0  0  0  0  0  0
   56.3726   32.2983   43.5803 H   0  0  0  0  0  0  0  0  0  0  0  0
   57.8603   32.8022   42.7088 H   0  0  0  0  0  0  0  0  0  0  0  0
   57.3602   31.0770   42.7088 H   0  0  0  0  0  0  0  0  0  0  0  0
   57.8938   29.5167   43.0983 H   0  0  0  0  0  0  0  0  0  0  0  0
   58.1661   27.2117   43.9531 H   0  0  0  0  0  0  0  0  0  0  0  0
   57.8266   25.8085   48.1463 H   0  0  0  0  0  0  0  0  0  0  0  0
   56.8118   26.2359   46.7270 H   0  0  0  0  0  0  0  0  0  0  0  0
   57.7588   24.7095   46.7270 H   0  0  0  0  0  0  0  0  0  0  0  0
   60.5585   25.5690   47.3691 H   0  0  0  0  0  0  0  0  0  0  0  0
   60.0475   24.8240   45.8165 H   0  0  0  0  0  0  0  0  0  0  0  0
   60.8980   26.4062   45.8165 H   0  0  0  0  0  0  0  0  0  0  0  0
   59.3109   28.7678   47.8198 H   0  0  0  0  0  0  0  0  0  0  0  0
  1  2  1  0
  2  3  1  0
  3  4  1  0
  4  5  1  0
  3  6  1  0
  6  7  1  0
  7  8  1  0
  8  9  1  0
  9 10  1  0
 10 11  1  0
 11 12  1  0
 12 13  2  0
 13 14  1  0
 14 15  2  0
 15 16  1  0
 16 17  2  0
 17 18  1  0
 18 19  2  0
 19 20  1  0
 19 21  1  0
 21 22  2  0
 22 23  1  0
 23 24  2  0
 24 25  1  0
 25 26  1  0
 25 27  1  0
 24 28  1  0
 28 29  2  0
 29 12  1  0
 18 13  1  0
 29 21  1  0
  1 30  1  0
  1 31  1  0
  1 32  1  0
  2 33  1  0
  2 34  1  0
  3 35  1  0
  4 36  1  0
  4 37  1  0
  5 38  1  0
  5 39  1  0
  5 40  1  0
  6 41  1  0
  6 42  1  0
  7 43  1  0
  7 44  1  0
  9 45  1  0
  9 46  1  0
 10 47  1  0
 10 48  1  0
 11 49  1  0
 14 50  1  0
 15 51  1  0
 16 52  1  0
 17 53  1  0
 20 54  1  0
 20 55  1  0
 20 56  1  0
 22 57  1  0
 23 58  1  0
 26 59  1  0
 26 60  1  0
 26 61  1  0
 27 62  1  0
 27 63  1  0
 27 64  1  0
 28 65  1  0
M  CHG  2   3   1  19   1
M  END
>  <UniqueID>  (5) 
5

>  <SMILES>  (5) 
CC[NH+](CC)CCOCCNc1c2ccccc2[n+](C)c2ccc(N(C)C)cc12

>  <Energy>  (5) 
91.66726017946006

>  <Genealogy>  (5) 
CC[NH+](CC)CCOCCNc1c2ccccc2[n+](C)c2ccc(N(C)C)cc12 (protonated)
CC[NH+](CC)CCOCCNc1c2ccccc2[n+](C)c2ccc(N(C)C)cc12 (3D coordinates assigned)
CC[NH+](CC)CCOCCNc1c2ccccc2[n+](C)c2ccc(N(C)C)cc12 (optimized conformer: 91.66726017946006 kcal/mol)

>  <smiles>  (5) 
CCN(CC)CCOCCNc1c2ccccc2[n+](C)c2ccc(N(C)C)cc12

>  <score_type>  (5) 
oracle

>  <origin>  (5) 
adg

>  <m_score__min__energy>  (5) 
-4.0199999999999996

>  <m_primary>  (5) 
energy

$$$$
5:0
     RDKit          3D

 53 55  0  0  0  0  0  0  0  0999 V2000
   54.5670   23.0000   45.2100 C   0  0  0  0  0  0  0  0  0  0  0  0
   55.4080   21.7370   45.3540 C   0  0  0  0  0  0  0  0  0  0  0  0
   56.0140   21.3670   44.0660 N   0  0  0  0  0  0  0  0  0  0  0  0
   57.4320   21.7530   43.9680 C   0  0  0  0  0  0  0  0  0  0  0  0
   57.6520   23.2130   44.2910 C   0  0  0  0  0  0  0  0  0  0  0  0
   57.2120   24.2060   43.4030 C   0  0  0  0  0  0  0  0  0  0  0  0
   57.4020   25.5580   43.7030 C   0  0  0  0  0  0  0  0  0  0  0  0
   58.0360   25.9410   44.8990 C   0  0  0  0  0  0  0  0  0  0  0  0
   58.2370   27.3770   45.2200 C   0  0  0  0  0  0  0  0  0  0  0  0
   59.0810   27.7630   46.2760 C   0  0  0  0  0  0  0  0  0  0  0  0
   59.2690   29.1140   46.5780 C   0  0  0  0  0  0  0  0  0  0  0  0
   58.6210   30.1110   45.8290 C   0  0  0  0  0  0  0  0  0  0  0  0
   58.8060   31.5070   46.1480 N   0  0  0  0  0  0  0  0  0  0  0  0
   58.4310   32.5260   45.1480 C   0  0  0  0  0  0  0  0  0  0  0  0
   59.3000   33.7940   45.2160 C   0  0  0  0  0  0  0  0  0  0  0  0
   58.8300   34.8010   46.2870 C   0  0  0  0  0  0  0  0  0  0  0  0
   59.1750   34.3930   47.6670 N   0  0  0  0  0  0  0  0  0  0  0  0
   60.6370   34.2990   47.8050 C   0  0  0  0  0  0  0  0  0  0  0  0
   58.5400   33.1110   48.0480 C   0  0  0  0  0  0  0  0  0  0  0  0
   59.3080   31.8990   47.4760 C   0  0  0  0  0  0  0  0  0  0  0  0
   57.7730   29.7270   44.7770 C   0  0  0  0  0  0  0  0  0  0  0  0
   57.5840   28.3750   44.4740 C   0  0  0  0  0  0  0  0  0  0  0  0
   58.4750   24.9420   45.7860 C   0  0  0  0  0  0  0  0  0  0  0  0
   58.2850   23.5910   45.4840 C   0  0  0  0  0  0  0  0  0  0  0  0
   54.3104   23.3854   46.2078 H   0  0  0  0  0  0  0  0  0  0  0  0
   55.1394   23.7608   44.6591 H   0  0  0  0  0  0  0  0  0  0  0  0
   53.6443   22.7653   44.6591 H   0  0  0  0  0  0  0  0  0  0  0  0
   56.2055   21.9160   46.0902 H   0  0  0  0  0  0  0  0  0  0  0  0
   54.7578   20.9151   45.6883 H   0  0  0  0  0  0  0  0  0  0  0  0
   55.4760   21.8290   43.2940 H   0  0  0  0  0  0  0  0  0  0  0  0
   58.0145   21.1427   44.6739 H   0  0  0  0  0  0  0  0  0  0  0  0
   57.7558   21.5851   42.9302 H   0  0  0  0  0  0  0  0  0  0  0  0
   56.7144   23.9189   42.4649 H   0  0  0  0  0  0  0  0  0  0  0  0
   57.0533   26.3279   42.9989 H   0  0  0  0  0  0  0  0  0  0  0  0
   59.5979   26.9946   46.8696 H   0  0  0  0  0  0  0  0  0  0  0  0
   59.9301   29.3999   47.4094 H   0  0  0  0  0  0  0  0  0  0  0  0
   58.5338   32.0856   44.1453 H   0  0  0  0  0  0  0  0  0  0  0  0
   57.3956   32.8286   45.3636 H   0  0  0  0  0  0  0  0  0  0  0  0
   60.3337   33.4966   45.4464 H   0  0  0  0  0  0  0  0  0  0  0  0
   59.2201   34.2958   44.2404 H   0  0  0  0  0  0  0  0  0  0  0  0
   59.3016   35.7735   46.0824 H   0  0  0  0  0  0  0  0  0  0  0  0
   57.7328   34.8511   46.2272 H   0  0  0  0  0  0  0  0  0  0  0  0
   60.9042   34.2818   48.8719 H   0  0  0  0  0  0  0  0  0  0  0  0
   60.9922   33.3762   47.3231 H   0  0  0  0  0  0  0  0  0  0  0  0
   61.1075   35.1688   47.3231 H   0  0  0  0  0  0  0  0  0  0  0  0
   58.5211   33.0351   49.1452 H   0  0  0  0  0  0  0  0  0  0  0  0
   57.5212   33.0972   47.6335 H   0  0  0  0  0  0  0  0  0  0  0  0
   60.3729   32.1611   47.3904 H   0  0  0  0  0  0  0  0  0  0  0  0
   59.1621   31.0497   48.1597 H   0  0  0  0  0  0  0  0  0  0  0  0
   57.2534   30.4961   44.1867 H   0  0  0  0  0  0  0  0  0  0  0  0
   56.9192   28.0895   43.6454 H   0  0  0  0  0  0  0  0  0  0  0  0
   58.9720   25.2264   46.7252 H   0  0  0  0  0  0  0  0  0  0  0  0
   58.6340   22.8194   46.1861 H   0  0  0  0  0  0  0  0  0  0  0  0
  1  2  1  0
  2  3  1  0
  3  4  1  0
  4  5  1  0
  5  6  2  0
  6  7  1  0
  7  8  2  0
  8  9  1  0
  9 10  2  0
 10 11  1  0
 11 12  2  0
 12 13  1  0
 13 14  1  0
 14 15  1  0
 15 16  1  0
 16 17  1  0
 17 18  1  0
 17 19  1  0
 19 20  1  0
 12 21  1  0
 21 22  2  0
  8 23  1  0
 23 24  2  0
 24  5  1  0
 22  9  1  0
 20 13  1  0
  1 25  1  0
  1 26  1  0
  1 27  1  0
  2 28  1  0
  2 29  1  0
  3 30  1  0
  4 31  1  0
  4 32  1  0
  6 33  1  0
  7 34  1  0
 10 35  1  0
 11 36  1  0
 14 37  1  0
 14 38  1  0
 15 39  1  0
 15 40  1  0
 16 41  1  0
 16 42  1  0
 18 43  1  0
 18 44  1  0
 18 45  1  0
 19 46  1  0
 19 47  1  0
 20 48  1  0
 20 49  1  0
 21 50  1  0
 22 51  1  0
 23 52  1  0
 24 53  1  0
M  END
>  <UniqueID>  (6) 
6

>  <SMILES>  (6) 
CCNCc1ccc(-c2ccc(N3CCCN(C)CC3)cc2)cc1

>  <Energy>  (6) 
68.17411364943823

>  <Genealogy>  (6) 
CCNCc1ccc(-c2ccc(N3CCCN(C)CC3)cc2)cc1 (3D coordinates assigned)
CCNCc1ccc(-c2ccc(N3CCCN(C)CC3)cc2)cc1 (nonaromatic ring conformer: 68.17411364943823 kcal/mol)

>  <smiles>  (6) 
CCNCc1ccc(-c2ccc(N3CCCN(C)CC3)cc2)cc1

>  <score_type>  (6) 
oracle

>  <origin>  (6) 
adg

>  <m_score__min__energy>  (6) 
-5.2699999999999996

>  <m_primary>  (6) 
energy

$$$$
6:0
     RDKit          3D

 69 71  0  0  0  0  0  0  0  0999 V2000
   61.5590   33.4010   51.4510 C   0  0  0  0  0  0  0  0  0  0  0  0
   62.6460   33.7270   50.4330 C   0  0  0  0  0  0  0  0  0  0  0  0
   62.8600   32.5680   49.5350 N   0  0  0  0  0  0  0  0  0  0  0  0
   63.3620   31.4110   50.2980 C   0  0  0  0  0  0  0  0  0  0  0  0
   63.7790   32.8910   48.4190 C   0  0  0  0  0  0  0  0  0  0  0  0
   63.3800   32.1230   47.1550 C   0  0  0  0  0  0  0  0  0  0  0  0
   62.0720   32.4820   46.7670 O   0  0  0  0  0  0  0  0  0  0  0  0
   62.0400   33.8370   46.3680 C   0  0  0  0  0  0  0  0  0  0  0  0
   60.7450   34.4620   46.8800 C   0  0  0  0  0  0  0  0  0  0  0  0
   60.7170   34.4680   48.2970 O   0  0  0  0  0  0  0  0  0  0  0  0
   59.4070   34.2330   48.7850 C   0  0  0  0  0  0  0  0  0  0  0  0
   59.1730   32.7270   48.9920 C   0  0  0  0  0  0  0  0  0  0  0  0
   60.3730   31.9190   48.6990 N   0  0  0  0  0  0  0  0  0  0  0  0
   60.0480   30.6850   47.9880 C   0  0  0  0  0  0  0  0  0  0  0  0
   60.3390   29.4070   48.5510 C   0  0  0  0  0  0  0  0  0  0  0  0
   60.9440   29.2570   49.8280 C   0  0  0  0  0  0  0  0  0  0  0  0
   61.1350   28.0010   50.3950 C   0  0  0  0  0  0  0  0  0  0  0  0
   60.7380   26.8620   49.7150 C   0  0  0  0  0  0  0  0  0  0  0  0
   60.1840   26.9680   48.4450 C   0  0  0  0  0  0  0  0  0  0  0  0
   60.0180   28.2290   47.8150 C   0  0  0  0  0  0  0  0  0  0  0  0
   59.5470   28.3200   46.5220 N   0  0  0  0  0  0  0  0  0  0  0  0
   59.5490   27.1230   45.6490 C   0  0  0  0  0  0  0  0  0  0  0  0
   59.1120   29.5300   46.0260 C   0  0  0  0  0  0  0  0  0  0  0  0
   58.3620   29.6000   44.8230 C   0  0  0  0  0  0  0  0  0  0  0  0
   57.9760   30.8240   44.2590 C   0  0  0  0  0  0  0  0  0  0  0  0
   57.2270   30.8680   43.0210 N   0  0  0  0  0  0  0  0  0  0  0  0
   57.4240   31.9710   42.0740 C   0  0  0  0  0  0  0  0  0  0  0  0
   56.2680   29.8070   42.6960 C   0  0  0  0  0  0  0  0  0  0  0  0
   58.3260   32.0030   44.9200 C   0  0  0  0  0  0  0  0  0  0  0  0
   59.0120   31.9620   46.1300 C   0  0  0  0  0  0  0  0  0  0  0  0
   59.3960   30.7350   46.7220 C   0  0  0  0  0  0  0  0  0  0  0  0
   61.9609   33.5215   52.4678 H   0  0  0  0  0  0  0  0  0  0  0  0
   60.7079   34.0834   51.3098 H   0  0  0  0  0  0  0  0  0  0  0  0
   61.2239   32.3628   51.3098 H   0  0  0  0  0  0  0  0  0  0  0  0
   62.3377   34.5984   49.8367 H   0  0  0  0  0  0  0  0  0  0  0  0
   63.5831   33.9520   50.9633 H   0  0  0  0  0  0  0  0  0  0  0  0
   63.2732   31.6157   51.3751 H   0  0  0  0  0  0  0  0  0  0  0  0
   62.7698   30.5195   50.0441 H   0  0  0  0  0  0  0  0  0  0  0  0
   64.4176   31.2345   50.0441 H   0  0  0  0  0  0  0  0  0  0  0  0
   63.7351   33.9711   48.2152 H   0  0  0  0  0  0  0  0  0  0  0  0
   64.8007   32.5997   48.7042 H   0  0  0  0  0  0  0  0  0  0  0  0
   64.0811   32.3674   46.3433 H   0  0  0  0  0  0  0  0  0  0  0  0
   63.4124   31.0432   47.3623 H   0  0  0  0  0  0  0  0  0  0  0  0
   62.9029   34.3698   46.7940 H   0  0  0  0  0  0  0  0  0  0  0  0
   62.0850   33.9082   45.2712 H   0  0  0  0  0  0  0  0  0  0  0  0
   60.6738   35.4966   46.5132 H   0  0  0  0  0  0  0  0  0  0  0  0
   59.8960   33.8671   46.5123 H   0  0  0  0  0  0  0  0  0  0  0  0
   59.2790   34.7548   49.7449 H   0  0  0  0  0  0  0  0  0  0  0  0
   58.6801   34.6089   48.0499 H   0  0  0  0  0  0  0  0  0  0  0  0
   58.8810   32.5568   50.0388 H   0  0  0  0  0  0  0  0  0  0  0  0
   58.3829   32.4142   48.2935 H   0  0  0  0  0  0  0  0  0  0  0  0
   61.0830   32.5070   48.2190 H   0  0  0  0  0  0  0  0  0  0  0  0
   60.8610   31.6960   49.5950 H   0  0  0  0  0  0  0  0  0  0  0  0
   61.2679   30.1521   50.3794 H   0  0  0  0  0  0  0  0  0  0  0  0
   61.6029   27.9125   51.3866 H   0  0  0  0  0  0  0  0  0  0  0  0
   60.8612   25.8729   50.1803 H   0  0  0  0  0  0  0  0  0  0  0  0
   59.8677   26.0562   47.9173 H   0  0  0  0  0  0  0  0  0  0  0  0
   59.5505   26.2156   46.2709 H   0  0  0  0  0  0  0  0  0  0  0  0
   58.6508   27.1308   45.0140 H   0  0  0  0  0  0  0  0  0  0  0  0
   60.4471   27.1338   45.0140 H   0  0  0  0  0  0  0  0  0  0  0  0
   58.0750   28.6658   44.3181 H   0  0  0  0  0  0  0  0  0  0  0  0
   57.5909   32.9057   42.6294 H   0  0  0  0  0  0  0  0  0  0  0  0
   58.2985   31.7593   41.4413 H   0  0  0  0  0  0  0  0  0  0  0  0
   56.5302   32.0751   41.4413 H   0  0  0  0  0  0  0  0  0  0  0  0
   55.8741   29.3713   43.6261 H   0  0  0  0  0  0  0  0  0  0  0  0
   55.4390   30.2292   42.1091 H   0  0  0  0  0  0  0  0  0  0  0  0
   56.7716   29.0247   42.1091 H   0  0  0  0  0  0  0  0  0  0  0  0
   58.0567   32.9744   44.4797 H   0  0  0  0  0  0  0  0  0  0  0  0
   59.2617   32.9051   46.6382 H   0  0  0  0  0  0  0  0  0  0  0  0
  1  2  1  0
  2  3  1  0
  3  4  1  0
  3  5  1  0
  5  6  1  0
  6  7  1  0
  7  8  1  0
  8  9  1  0
  9 10  1  0
 10 11  1  0
 11 12  1  0
 12 13  1  0
 13 14  1  0
 14 15  2  0
 15 16  1  0
 16 17  2  0
 17 18  1  0
 18 19  2  0
 19 20  1  0
 20 21  2  0
 21 22  1  0
 21 23  1  0
 23 24  2  0
 24 25  1  0
 25 26  1  0
 26 27  1  0
 26 28  1  0
 25 29  2  0
 29 30  1  0
 30 31  2  0
 31 14  1  0
 20 15  1  0
 31 23  1  0
  1 32  1  0
  1 33  1  0
  1 34  1  0
  2 35  1  0
  2 36  1  0
  4 37  1  0
  4 38  1  0
  4 39  1  0
  5 40  1  0
  5 41  1  0
  6 42  1  0
  6 43  1  0
  8 44  1  0
  8 45  1  0
  9 46  1  0
  9 47  1  0
 11 48  1  0
 11 49  1  0
 12 50  1  0
 12 51  1  0
 13 52  1  0
 13 53  1  0
 16 54  1  0
 17 55  1  0
 18 56  1  0
 19 57  1  0
 22 58  1  0
 22 59  1  0
 22 60  1  0
 24 61  1  0
 27 62  1  0
 27 63  1  0
 27 64  1  0
 28 65  1  0
 28 66  1  0
 28 67  1  0
 29 68  1  0
 30 69  1  0
M  CHG  2  13   1  21   1
M  END
>  <UniqueID>  (7) 
7

>  <SMILES>  (7) 
CCN(C)CCOCCOCC[NH2+]c1c2ccccc2[n+](C)c2cc(N(C)C)ccc12

>  <Energy>  (7) 
101.0043130255289

>  <Genealogy>  (7) 
CCN(C)CCOCCOCC[NH2+]c1c2ccccc2[n+](C)c2cc(N(C)C)ccc12 (protonated)
CCN(C)CCOCCOCC[NH2+]c1c2ccccc2[n+](C)c2cc(N(C)C)ccc12 (3D coordinates assigned)
CCN(C)CCOCCOCC[NH2+]c1c2ccccc2[n+](C)c2cc(N(C)C)ccc12 (optimized conformer: 101.0043130255289 kcal/mol)

>  <smiles>  (7) 
CCN(C)CCOCCOCCNc1c2ccccc2[n+](C)c2cc(N(C)C)ccc12

>  <score_type>  (7) 
oracle

>  <origin>  (7) 
adg

>  <m_score__min__energy>  (7) 
-3.96

>  <m_primary>  (7) 
energy

$$$$
7:0
     RDKit          3D

 45 46  0  0  0  0  0  0  0  0999 V2000
   58.8860   30.5370   49.7340 C   0  0  0  0  0  0  0  0  0  0  0  0
   59.7190   30.5890   48.4490 C   0  0  0  0  0  0  0  0  0  0  0  0
   61.1190   29.9970   48.6560 C   0  0  0  0  0  0  0  0  0  0  0  0
   59.7460   31.9910   47.8420 C   0  0  0  0  0  0  0  0  0  0  0  0
   60.6250   32.9330   48.4080 C   0  0  0  0  0  0  0  0  0  0  0  0
   60.7250   34.2200   47.8910 C   0  0  0  0  0  0  0  0  0  0  0  0
   59.9710   34.5920   46.7830 C   0  0  0  0  0  0  0  0  0  0  0  0
   59.0950   33.6800   46.1710 C   0  0  0  0  0  0  0  0  0  0  0  0
   58.3140   34.1090   44.9320 C   0  0  0  0  0  0  0  0  0  0  0  0
   58.5210   33.1150   43.7830 C   0  0  0  0  0  0  0  0  0  0  0  0
   56.8220   34.2910   45.2410 C   0  0  0  0  0  0  0  0  0  0  0  0
   58.9530   32.3790   46.7260 C   0  0  0  0  0  0  0  0  0  0  0  0
   58.0020   31.4690   46.1600 N   0  0  0  0  0  0  0  0  0  0  0  0
   58.4220   30.2510   45.5270 C   0  0  0  0  0  0  0  0  0  0  0  0
   59.6480   30.0340   45.3210 O   0  0  0  0  0  0  0  0  0  0  0  0
   57.4070   29.2170   45.1260 C   0  0  2  0  0  0  0  0  0  0  0  0
   57.6520   28.7270   43.7030 C   0  0  0  0  0  0  0  0  0  0  0  0
   56.6010   29.4340   42.9070 C   0  0  0  0  0  0  0  0  0  0  0  0
   55.5240   29.7000   43.9360 C   0  0  0  0  0  0  0  0  0  0  0  0
   56.1120   29.7750   45.2130 O   0  0  0  0  0  0  0  0  0  0  0  0
   59.5547   30.5787   50.6064 H   0  0  0  0  0  0  0  0  0  0  0  0
   58.1967   31.3939   49.7590 H   0  0  0  0  0  0  0  0  0  0  0  0
   58.3086   29.6011   49.7590 H   0  0  0  0  0  0  0  0  0  0  0  0
   59.2210   29.9479   47.7067 H   0  0  0  0  0  0  0  0  0  0  0  0
   61.3247   29.9100   49.7331 H   0  0  0  0  0  0  0  0  0  0  0  0
   61.1683   29.0010   48.1917 H   0  0  0  0  0  0  0  0  0  0  0  0
   61.8679   30.6555   48.1917 H   0  0  0  0  0  0  0  0  0  0  0  0
   61.2423   32.6469   49.2724 H   0  0  0  0  0  0  0  0  0  0  0  0
   61.4036   34.9473   48.3605 H   0  0  0  0  0  0  0  0  0  0  0  0
   60.0616   35.6120   46.3813 H   0  0  0  0  0  0  0  0  0  0  0  0
   58.7064   35.0862   44.6140 H   0  0  0  0  0  0  0  0  0  0  0  0
   58.7289   32.1165   44.1950 H   0  0  0  0  0  0  0  0  0  0  0  0
   57.6120   33.0746   43.1649 H   0  0  0  0  0  0  0  0  0  0  0  0
   59.3706   33.4408   43.1649 H   0  0  0  0  0  0  0  0  0  0  0  0
   56.6728   34.3092   46.3307 H   0  0  0  0  0  0  0  0  0  0  0  0
   56.4706   35.2387   44.8069 H   0  0  0  0  0  0  0  0  0  0  0  0
   56.2531   33.4556   44.8069 H   0  0  0  0  0  0  0  0  0  0  0  0
   56.9920   31.6100   46.3800 H   0  0  0  0  0  0  0  0  0  0  0  0
   57.4981   28.3587   45.8079 H   0  0  0  0  0  0  0  0  0  0  0  0
   58.6594   29.0045   43.3591 H   0  0  0  0  0  0  0  0  0  0  0  0
   57.5970   27.6323   43.6104 H   0  0  0  0  0  0  0  0  0  0  0  0
   56.9878   30.3738   42.4862 H   0  0  0  0  0  0  0  0  0  0  0  0
   56.2445   28.8535   42.0433 H   0  0  0  0  0  0  0  0  0  0  0  0
   55.0221   30.6513   43.7057 H   0  0  0  0  0  0  0  0  0  0  0  0
   54.7852   28.8853   43.9167 H   0  0  0  0  0  0  0  0  0  0  0  0
  1  2  1  0
  2  3  1  0
  2  4  1  0
  4  5  2  0
  5  6  1  0
  6  7  2  0
  7  8  1  0
  8  9  1  0
  9 10  1  0
  9 11  1  0
  8 12  2  0
 12 13  1  0
 13 14  1  0
 14 15  2  0
 14 16  1  0
 16 17  1  0
 17 18  1  0
 18 19  1  0
 19 20  1  0
 12  4  1  0
 20 16  1  0
  1 21  1  0
  1 22  1  0
  1 23  1  0
  2 24  1  0
  3 25  1  0
  3 26  1  0
  3 27  1  0
  5 28  1  0
  6 29  1  0
  7 30  1  0
  9 31  1  0
 10 32  1  0
 10 33  1  0
 10 34  1  0
 11 35  1  0
 11 36  1  0
 11 37  1  0
 13 38  1  0
 16 39  1  1
 17 40  1  0
 17 41  1  0
 18 42  1  0
 18 43  1  0
 19 44  1  0
 19 45  1  0
M  END
>  <UniqueID>  (8) 
8

>  <SMILES>  (8) 
CC(C)c1cccc(C(C)C)c1NC(=O)[C@@H]1CCCO1

>  <Energy>  (8) 
46.02992133446471

>  <Genealogy>  (8) 
CC(C)c1cccc(C(C)C)c1NC(=O)[C@@H]1CCCO1 (chirality)
CC(C)c1cccc(C(C)C)c1NC(=O)[C@@H]1CCCO1 (3D coordinates assigned)
CC(C)c1cccc(C(C)C)c1NC(=O)[C@@H]1CCCO1 (nonaromatic ring conformer: 46.02992133446471 kcal/mol)

>  <smiles>  (8) 
CC(C)c1cccc(C(C)C)c1NC(=O)C1CCCO1

>  <score_type>  (8) 
oracle

>  <origin>  (8) 
adg

>  <m_score__min__energy>  (8) 
-7.1799999999999997

>  <m_primary>  (8) 
energy

$$$$
8:0
     RDKit          3D

 66 68  0  0  0  0  0  0  0  0999 V2000
   58.8083   33.9592   53.0089 H   0  0  0  0  0  0  0  0  0  0  0  0
   58.4480   33.3710   52.1520 C   0  0  0  0  0  0  0  0  0  0  0  0
   57.3650   32.6830   52.3050 N   0  0  0  0  0  0  0  0  0  0  0  0
   57.2100   31.5540   53.1990 C   0  0  0  0  0  0  0  0  0  0  0  0
   58.1189   31.4405   53.8082 H   0  0  0  0  0  0  0  0  0  0  0  0
   56.3465   31.7234   53.8591 H   0  0  0  0  0  0  0  0  0  0  0  0
   56.9850   30.2880   52.3800 C   0  0  0  0  0  0  0  0  0  0  0  0
   57.5710   29.4649   52.8148 H   0  0  0  0  0  0  0  0  0  0  0  0
   55.9145   30.0356   52.3957 H   0  0  0  0  0  0  0  0  0  0  0  0
   57.4040   30.5010   50.9990 N   0  0  0  0  0  0  0  0  0  0  0  0
   56.9220   31.3610   50.6520 H   0  0  0  0  0  0  0  0  0  0  0  0
   58.4300   30.7140   50.9990 H   0  0  0  0  0  0  0  0  0  0  0  0
   59.2540   33.4210   50.8710 C   0  0  0  0  0  0  0  0  0  0  0  0
   60.2897   33.1221   51.0899 H   0  0  0  0  0  0  0  0  0  0  0  0
   59.2136   34.4488   50.4810 H   0  0  0  0  0  0  0  0  0  0  0  0
   58.7040   32.5190   49.8440 N   0  0  0  0  0  0  0  0  0  0  0  0
   59.0830   31.5620   50.0370 H   0  0  0  0  0  0  0  0  0  0  0  0
   57.6810   32.4040   49.9680 H   0  0  0  0  0  0  0  0  0  0  0  0
   59.1080   32.9270   48.5070 C   0  0  0  0  0  0  0  0  0  0  0  0
   59.6410   34.2210   48.3750 C   0  0  0  0  0  0  0  0  0  0  0  0
   59.9321   34.7785   49.2774 H   0  0  0  0  0  0  0  0  0  0  0  0
   59.8070   34.8080   47.1320 C   0  0  0  0  0  0  0  0  0  0  0  0
   60.3000   35.7877   47.0475 H   0  0  0  0  0  0  0  0  0  0  0  0
   59.3520   34.1610   45.9950 C   0  0  0  0  0  0  0  0  0  0  0  0
   59.4444   34.6580   45.0180 H   0  0  0  0  0  0  0  0  0  0  0  0
   58.7710   32.8740   46.0660 C   0  0  0  0  0  0  0  0  0  0  0  0
   58.8000   32.1800   47.3140 C   0  0  0  0  0  0  0  0  0  0  0  0
   58.5320   30.7860   47.2950 C   0  0  0  0  0  0  0  0  0  0  0  0
   58.9000   29.9440   48.3970 N   0  0  0  0  0  0  0  0  0  0  0  0
   58.1900   29.7790   49.1450 H   0  0  0  0  0  0  0  0  0  0  0  0
   60.0170   29.0040   48.2930 C   0  0  0  0  0  0  0  0  0  0  0  0
   60.6965   29.3399   47.4959 H   0  0  0  0  0  0  0  0  0  0  0  0
   59.6147   28.0065   48.0622 H   0  0  0  0  0  0  0  0  0  0  0  0
   60.7990   28.9230   49.6220 C   0  0  0  0  0  0  0  0  0  0  0  0
   61.8740   28.9209   49.3886 H   0  0  0  0  0  0  0  0  0  0  0  0
   60.4665   28.0031   50.1253 H   0  0  0  0  0  0  0  0  0  0  0  0
   60.5310   30.0390   50.5620 N   0  0  0  0  0  0  0  0  0  0  0  0
   60.1920   29.6280   51.9420 C   0  0  0  0  0  0  0  0  0  0  0  0
   59.1339   29.8605   52.1328 H   0  0  0  0  0  0  0  0  0  0  0  0
   60.8487   30.1770   52.6330 H   0  0  0  0  0  0  0  0  0  0  0  0
   60.4170   28.1320   52.1610 C   0  0  0  0  0  0  0  0  0  0  0  0
   60.4489   27.9201   53.2399 H   0  0  0  0  0  0  0  0  0  0  0  0
   59.5939   27.5661   51.7003 H   0  0  0  0  0  0  0  0  0  0  0  0
   61.3702   27.8333   51.7003 H   0  0  0  0  0  0  0  0  0  0  0  0
   61.4620   31.1870   50.4360 C   0  0  0  0  0  0  0  0  0  0  0  0
   60.8955   32.1113   50.6222 H   0  0  0  0  0  0  0  0  0  0  0  0
   62.2655   31.0211   51.1688 H   0  0  0  0  0  0  0  0  0  0  0  0
   62.1370   31.3070   49.0680 C   0  0  0  0  0  0  0  0  0  0  0  0
   63.2116   31.4980   49.2049 H   0  0  0  0  0  0  0  0  0  0  0  0
   61.9995   30.3703   48.5079 H   0  0  0  0  0  0  0  0  0  0  0  0
   61.6851   32.1389   48.5079 H   0  0  0  0  0  0  0  0  0  0  0  0
   58.0760   30.1740   46.1110 C   0  0  0  0  0  0  0  0  0  0  0  0
   57.7760   28.7930   46.0830 C   0  0  0  0  0  0  0  0  0  0  0  0
   57.8719   28.1981   47.0033 H   0  0  0  0  0  0  0  0  0  0  0  0
   57.3610   28.1760   44.9070 C   0  0  0  0  0  0  0  0  0  0  0  0
   57.1224   27.1022   44.9040 H   0  0  0  0  0  0  0  0  0  0  0  0
   57.2480   28.9150   43.7380 C   0  0  0  0  0  0  0  0  0  0  0  0
   56.9358   28.4220   42.8055 H   0  0  0  0  0  0  0  0  0  0  0  0
   57.5290   30.2800   43.7420 C   0  0  0  0  0  0  0  0  0  0  0  0
   57.4455   30.8518   42.8060 H   0  0  0  0  0  0  0  0  0  0  0  0
   57.9210   30.9450   44.9330 C   0  0  0  0  0  0  0  0  0  0  0  0
   58.1910   32.2970   44.9530 N   0  0  0  0  0  0  0  0  0  0  0  0
   57.7980   33.1430   43.8030 C   0  0  0  0  0  0  0  0  0  0  0  0
   57.3614   34.0829   44.1716 H   0  0  0  0  0  0  0  0  0  0  0  0
   58.6849   33.3656   43.1916 H   0  0  0  0  0  0  0  0  0  0  0  0
   57.0558   32.6089   43.1916 H   0  0  0  0  0  0  0  0  0  0  0  0
  1  2  1  0
  2  3  2  0
  3  4  1  0
  4  5  1  0
  4  6  1  0
  4  7  1  0
  7  8  1  0
  7  9  1  0
  7 10  1  0
 10 11  1  0
 10 12  1  0
  2 13  1  0
 13 14  1  0
 13 15  1  0
 13 16  1  0
 16 17  1  0
 16 18  1  0
 16 19  1  0
 19 20  2  0
 20 21  1  0
 20 22  1  0
 22 23  1  0
 22 24  2  0
 24 25  1  0
 24 26  1  0
 26 27  2  0
 27 28  1  0
 28 29  1  0
 29 30  1  0
 29 31  1  0
 31 32  1  0
 31 33  1  0
 31 34  1  0
 34 35  1  0
 34 36  1  0
 34 37  1  0
 37 38  1  0
 38 39  1  0
 38 40  1  0
 38 41  1  0
 41 42  1  0
 41 43  1  0
 41 44  1  0
 37 45  1  0
 45 46  1  0
 45 47  1  0
 45 48  1  0
 48 49  1  0
 48 50  1  0
 48 51  1  0
 28 52  2  0
 52 53  1  0
 53 54  1  0
 53 55  2  0
 55 56  1  0
 55 57  1  0
 57 58  1  0
 57 59  2  0
 59 60  1  0
 59 61  1  0
 61 62  2  0
 62 63  1  0
 63 64  1  0
 63 65  1  0
 63 66  1  0
 27 19  1  0
 61 52  1  0
 62 26  1  0
M  CHG  2  16   1  62   1
M  END
>  <UniqueID>  (9) 
9

>  <SMILES>  (9) 
CCN(CC)CCNc1c2ccccc2[n+](C)c2cccc([NH2+]C/C=N\CCN)c12

>  <Energy>  (9) 
104.82227775684896

>  <Genealogy>  (9) 
CCN(CC)CCNc1c2ccccc2[n+](C)c2cccc([NH2+]CC=NCCN)c12 (protonated)
CCN(CC)CCNc1c2ccccc2[n+](C)c2cccc([NH2+]C/C=N\CCN)c12 (cis-trans isomerization)
CCN(CC)CCNc1c2ccccc2[n+](C)c2cccc([NH2+]C/C=N\CCN)c12 (3D coordinates assigned)
CCN(CC)CCNc1c2ccccc2[n+](C)c2cccc([NH2+]C/C=N\CCN)c12 (optimized conformer: 104.82227775684896 kcal/mol)

>  <smiles>  (9) 
CCN(CC)CCNc1c2ccccc2[n+](C)c2cccc(NCC=NCCN)c12

>  <score_type>  (9) 
oracle

>  <origin>  (9) 
adg

>  <m_score__min__energy>  (9) 
-3.5099999999999998

>  <m_primary>  (9) 
energy

$$$$
9:0
     RDKit          3D

 64 68  0  0  0  0  0  0  0  0999 V2000
   59.6830   34.9660   46.5730 C   0  0  0  0  0  0  0  0  0  0  0  0
   60.8460   34.0030   46.3160 C   0  0  0  0  0  0  0  0  0  0  0  0
   61.9740   34.2150   47.2360 N   0  0  0  0  0  0  0  0  0  0  0  0
   63.1930   33.5340   46.7800 C   0  0  0  0  0  0  0  0  0  0  0  0
   64.1530   33.3410   47.9530 C   0  0  0  0  0  0  0  0  0  0  0  0
   63.4880   33.5800   49.1930 O   0  0  0  0  0  0  0  0  0  0  0  0
   63.2950   32.5700   50.1460 C   0  0  0  0  0  0  0  0  0  0  0  0
   64.1170   32.5210   51.2890 C   0  0  0  0  0  0  0  0  0  0  0  0
   65.2140   33.4980   51.4890 C   0  0  0  0  0  0  0  0  0  0  0  0
   66.4820   33.2740   50.9250 C   0  0  0  0  0  0  0  0  0  0  0  0
   67.5040   34.2150   51.0890 C   0  0  0  0  0  0  0  0  0  0  0  0
   68.7210   33.9920   50.5370 F   0  0  0  0  0  0  0  0  0  0  0  0
   67.2690   35.3830   51.8210 C   0  0  0  0  0  0  0  0  0  0  0  0
   68.2610   36.2950   51.9760 F   0  0  0  0  0  0  0  0  0  0  0  0
   66.0140   35.6100   52.3920 C   0  0  0  0  0  0  0  0  0  0  0  0
   65.7820   36.7450   53.0970 F   0  0  0  0  0  0  0  0  0  0  0  0
   64.9910   34.6700   52.2320 C   0  0  0  0  0  0  0  0  0  0  0  0
   63.8650   31.5480   52.2650 C   0  0  0  0  0  0  0  0  0  0  0  0
   62.8620   30.6460   52.1020 N   0  0  0  0  0  0  0  0  0  0  0  0
   62.0730   30.6450   50.9900 C   0  0  0  0  0  0  0  0  0  0  0  0
   61.0590   29.6890   50.8450 C   0  0  0  0  0  0  0  0  0  0  0  0
   60.2570   29.6780   49.7020 C   0  0  0  0  0  0  0  0  0  0  0  0
   60.4590   30.6170   48.6780 C   0  0  0  0  0  0  0  0  0  0  0  0
   59.6090   30.5960   47.4610 C   0  0  0  0  0  0  0  0  0  0  0  0
   58.8440   31.7200   47.1060 C   0  0  0  0  0  0  0  0  0  0  0  0
   58.0490   31.7060   45.9580 C   0  0  0  0  0  0  0  0  0  0  0  0
   57.9890   30.5620   45.1510 C   0  0  0  0  0  0  0  0  0  0  0  0
   58.7570   29.4310   45.4900 C   0  0  0  0  0  0  0  0  0  0  0  0
   59.5610   29.4520   46.6420 C   0  0  0  0  0  0  0  0  0  0  0  0
   58.6910   28.2360   44.6210 C   0  0  0  0  0  0  0  0  0  0  0  0
   59.4860   27.2710   44.7990 O   0  0  0  0  0  0  0  0  0  0  0  0
   57.7220   28.1910   43.5600 N   0  0  0  0  0  0  0  0  0  0  0  0
   57.7760   27.1250   42.5580 C   0  0  0  0  0  0  0  0  0  0  0  0
   56.6410   29.1860   43.5420 C   0  0  0  0  0  0  0  0  0  0  0  0
   57.1860   30.5800   43.8730 C   0  0  0  0  0  0  0  0  0  0  0  0
   61.4760   31.5770   48.8210 C   0  0  0  0  0  0  0  0  0  0  0  0
   62.2800   31.6080   49.9760 C   0  0  0  0  0  0  0  0  0  0  0  0
   59.5386   35.0855   47.6569 H   0  0  0  0  0  0  0  0  0  0  0  0
   59.9104   35.9438   46.1233 H   0  0  0  0  0  0  0  0  0  0  0  0
   58.7648   34.5603   46.1233 H   0  0  0  0  0  0  0  0  0  0  0  0
   60.4823   32.9720   46.4373 H   0  0  0  0  0  0  0  0  0  0  0  0
   61.2111   34.1888   45.2951 H   0  0  0  0  0  0  0  0  0  0  0  0
   61.7160   33.8550   48.1850 H   0  0  0  0  0  0  0  0  0  0  0  0
   62.9270   32.5521   46.3615 H   0  0  0  0  0  0  0  0  0  0  0  0
   63.6828   34.1474   46.0094 H   0  0  0  0  0  0  0  0  0  0  0  0
   64.5352   32.3096   47.9410 H   0  0  0  0  0  0  0  0  0  0  0  0
   64.9826   34.0563   47.8527 H   0  0  0  0  0  0  0  0  0  0  0  0
   66.6715   32.3544   50.3520 H   0  0  0  0  0  0  0  0  0  0  0  0
   64.0069   34.8488   52.6899 H   0  0  0  0  0  0  0  0  0  0  0  0
   64.4855   31.5139   53.1726 H   0  0  0  0  0  0  0  0  0  0  0  0
   62.7100   29.9350   52.8540 H   0  0  0  0  0  0  0  0  0  0  0  0
   60.8938   28.9428   51.6362 H   0  0  0  0  0  0  0  0  0  0  0  0
   59.4596   28.9267   49.6030 H   0  0  0  0  0  0  0  0  0  0  0  0
   58.8717   32.6196   47.7385 H   0  0  0  0  0  0  0  0  0  0  0  0
   57.4664   32.5984   45.6856 H   0  0  0  0  0  0  0  0  0  0  0  0
   60.1582   28.5668   46.9063 H   0  0  0  0  0  0  0  0  0  0  0  0
   57.8254   26.1491   43.0632 H   0  0  0  0  0  0  0  0  0  0  0  0
   56.8746   27.1670   41.9290 H   0  0  0  0  0  0  0  0  0  0  0  0
   58.6686   27.2579   41.9290 H   0  0  0  0  0  0  0  0  0  0  0  0
   56.1834   29.2047   42.5419 H   0  0  0  0  0  0  0  0  0  0  0  0
   55.8914   28.9093   44.2980 H   0  0  0  0  0  0  0  0  0  0  0  0
   57.8309   30.9183   43.0486 H   0  0  0  0  0  0  0  0  0  0  0  0
   56.3352   31.2646   44.0054 H   0  0  0  0  0  0  0  0  0  0  0  0
   61.6455   32.3126   48.0209 H   0  0  0  0  0  0  0  0  0  0  0  0
  1  2  1  0
  2  3  1  0
  3  4  1  0
  4  5  1  0
  5  6  1  0
  6  7  1  0
  7  8  2  0
  8  9  1  0
  9 10  2  0
 10 11  1  0
 11 12  1  0
 11 13  2  0
 13 14  1  0
 13 15  1  0
 15 16  1  0
 15 17  2  0
  8 18  1  0
 18 19  2  0
 19 20  1  0
 20 21  2  0
 21 22  1  0
 22 23  2  0
 23 24  1  0
 24 25  2  0
 25 26  1  0
 26 27  2  0
 27 28  1  0
 28 29  2  0
 28 30  1  0
 30 31  2  0
 30 32  1  0
 32 33  1  0
 32 34  1  0
 34 35  1  0
 23 36  1  0
 36 37  2  0
 37  7  1  0
 17  9  1  0
 37 20  1  0
 29 24  1  0
 35 27  1  0
  1 38  1  0
  1 39  1  0
  1 40  1  0
  2 41  1  0
  2 42  1  0
  3 43  1  0
  4 44  1  0
  4 45  1  0
  5 46  1  0
  5 47  1  0
 10 48  1  0
 17 49  1  0
 18 50  1  0
 19 51  1  0
 21 52  1  0
 22 53  1  0
 25 54  1  0
 26 55  1  0
 29 56  1  0
 33 57  1  0
 33 58  1  0
 33 59  1  0
 34 60  1  0
 34 61  1  0
 35 62  1  0
 35 63  1  0
 36 64  1  0
M  CHG  1  19   1
M  END
>  <UniqueID>  (10) 
10

>  <SMILES>  (10) 
CCNCCOc1c(-c2cc(F)c(F)c(F)c2)c[nH+]c2ccc(-c3ccc4c(c3)C(=O)N(C)CC4)cc12

>  <Energy>  (10) 
84.41669913674674

>  <Genealogy>  (10) 
CCNCCOc1c(-c2cc(F)c(F)c(F)c2)c[nH+]c2ccc(-c3ccc4c(c3)C(=O)N(C)CC4)cc12 (protonated)
CCNCCOc1c(-c2cc(F)c(F)c(F)c2)c[nH+]c2ccc(-c3ccc4c(c3)C(=O)N(C)CC4)cc12 (3D coordinates assigned)
CCNCCOc1c(-c2cc(F)c(F)c(F)c2)c[nH+]c2ccc(-c3ccc4c(c3)C(=O)N(C)CC4)cc12 (nonaromatic ring conformer: 84.41669913674674 kcal/mol)

>  <smiles>  (10) 
CCNCCOc1c(-c2cc(F)c(F)c(F)c2)cnc2ccc(-c3ccc4c(c3)C(=O)N(C)CC4)cc12

>  <score_type>  (10) 
oracle

>  <origin>  (10) 
adg

>  <m_score__min__energy>  (10) 
-7.2699999999999996

>  <m_primary>  (10) 
energy

$$$$
10:0
     RDKit          3D

 52 54  0  0  0  0  0  0  0  0999 V2000
   64.9190   32.5810   49.6450 C   0  0  0  0  0  0  0  0  0  0  0  0
   63.7070   33.4750   49.8950 C   0  0  0  0  0  0  0  0  0  0  0  0
   62.7710   33.4020   48.7640 N   0  0  0  0  0  0  0  0  0  0  0  0
   63.3940   32.7680   47.5930 C   0  0  0  0  0  0  0  0  0  0  0  0
   62.5260   31.5890   47.1230 C   0  0  0  0  0  0  0  0  0  0  0  0
   61.3720   31.3540   48.0140 N   0  0  0  0  0  0  0  0  0  0  0  0
   60.1010   31.4100   47.2970 C   0  0  0  0  0  0  0  0  0  0  0  0
   59.7000   32.6050   46.6570 C   0  0  0  0  0  0  0  0  0  0  0  0
   60.0630   33.8740   47.1610 C   0  0  0  0  0  0  0  0  0  0  0  0
   59.6640   35.0390   46.5130 C   0  0  0  0  0  0  0  0  0  0  0  0
   58.8830   34.9670   45.3650 C   0  0  0  0  0  0  0  0  0  0  0  0
   58.4930   33.7290   44.8610 C   0  0  0  0  0  0  0  0  0  0  0  0
   58.8980   32.5250   45.4890 C   0  0  0  0  0  0  0  0  0  0  0  0
   58.5360   31.2930   44.9910 N   0  0  0  0  0  0  0  0  0  0  0  0
   58.0460   31.1700   43.6010 C   0  0  0  0  0  0  0  0  0  0  0  0
   58.6070   30.1810   45.8070 C   0  0  0  0  0  0  0  0  0  0  0  0
   57.9430   28.9790   45.4650 C   0  0  0  0  0  0  0  0  0  0  0  0
   58.0100   27.8630   46.2900 C   0  0  0  0  0  0  0  0  0  0  0  0
   58.6860   27.9260   47.4990 C   0  0  0  0  0  0  0  0  0  0  0  0
   59.3300   29.1040   47.8960 C   0  0  0  0  0  0  0  0  0  0  0  0
   59.8100   29.1860   49.2500 N   0  0  0  0  0  0  0  0  0  0  0  0
   59.0170   29.9350   50.2250 C   0  0  0  0  0  0  0  0  0  0  0  0
   60.7470   28.1810   49.7530 C   0  0  0  0  0  0  0  0  0  0  0  0
   59.3490   30.2330   47.0220 C   0  0  0  0  0  0  0  0  0  0  0  0
   65.3468   32.2655   50.6080 H   0  0  0  0  0  0  0  0  0  0  0  0
   64.6086   31.6939   49.0734 H   0  0  0  0  0  0  0  0  0  0  0  0
   65.6749   33.1395   49.0734 H   0  0  0  0  0  0  0  0  0  0  0  0
   63.1952   33.1432   50.8104 H   0  0  0  0  0  0  0  0  0  0  0  0
   64.0489   34.5145   50.0071 H   0  0  0  0  0  0  0  0  0  0  0  0
   62.5140   34.3800   48.4940 H   0  0  0  0  0  0  0  0  0  0  0  0
   63.4817   33.5048   46.7809 H   0  0  0  0  0  0  0  0  0  0  0  0
   64.3942   32.4000   47.8653 H   0  0  0  0  0  0  0  0  0  0  0  0
   62.1535   31.8051   46.1108 H   0  0  0  0  0  0  0  0  0  0  0  0
   63.1513   30.6841   47.1356 H   0  0  0  0  0  0  0  0  0  0  0  0
   61.4820   30.4450   48.5120 H   0  0  0  0  0  0  0  0  0  0  0  0
   61.4390   32.0810   48.7570 H   0  0  0  0  0  0  0  0  0  0  0  0
   60.6685   33.9419   48.0769 H   0  0  0  0  0  0  0  0  0  0  0  0
   59.9672   36.0191   46.9099 H   0  0  0  0  0  0  0  0  0  0  0  0
   58.5725   35.8901   44.8537 H   0  0  0  0  0  0  0  0  0  0  0  0
   57.8610   33.6849   43.9618 H   0  0  0  0  0  0  0  0  0  0  0  0
   56.9791   30.9022   43.6107 H   0  0  0  0  0  0  0  0  0  0  0  0
   58.1785   32.1293   43.0793 H   0  0  0  0  0  0  0  0  0  0  0  0
   58.6159   30.3870   43.0793 H   0  0  0  0  0  0  0  0  0  0  0  0
   57.3644   28.9274   44.5309 H   0  0  0  0  0  0  0  0  0  0  0  0
   57.5245   26.9251   45.9826 H   0  0  0  0  0  0  0  0  0  0  0  0
   58.7166   27.0418   48.1526 H   0  0  0  0  0  0  0  0  0  0  0  0
   59.3207   29.6481   51.2426 H   0  0  0  0  0  0  0  0  0  0  0  0
   59.1837   31.0129   50.0827 H   0  0  0  0  0  0  0  0  0  0  0  0
   57.9503   29.7071   50.0827 H   0  0  0  0  0  0  0  0  0  0  0  0
   60.7387   28.1899   50.8529 H   0  0  0  0  0  0  0  0  0  0  0  0
   60.4464   27.1863   49.3921 H   0  0  0  0  0  0  0  0  0  0  0  0
   61.7603   28.4112   49.3921 H   0  0  0  0  0  0  0  0  0  0  0  0
  1  2  1  0
  2  3  1  0
  3  4  1  0
  4  5  1  0
  5  6  1  0
  6  7  1  0
  7  8  2  0
  8  9  1  0
  9 10  2  0
 10 11  1  0
 11 12  2  0
 12 13  1  0
 13 14  2  0
 14 15  1  0
 14 16  1  0
 16 17  2  0
 17 18  1  0
 18 19  2  0
 19 20  1  0
 20 21  1  0
 21 22  1  0
 21 23  1  0
 20 24  2  0
 24  7  1  0
 13  8  1  0
 24 16  1  0
  1 25  1  0
  1 26  1  0
  1 27  1  0
  2 28  1  0
  2 29  1  0
  3 30  1  0
  4 31  1  0
  4 32  1  0
  5 33  1  0
  5 34  1  0
  6 35  1  0
  6 36  1  0
  9 37  1  0
 10 38  1  0
 11 39  1  0
 12 40  1  0
 15 41  1  0
 15 42  1  0
 15 43  1  0
 17 44  1  0
 18 45  1  0
 19 46  1  0
 22 47  1  0
 22 48  1  0
 22 49  1  0
 23 50  1  0
 23 51  1  0
 23 52  1  0
M  CHG  2   6   1  14   1
M  END
>  <UniqueID>  (11) 
11

>  <SMILES>  (11) 
CCNCC[NH2+]c1c2ccccc2[n+](C)c2cccc(N(C)C)c12

>  <Energy>  (11) 
90.82194796796267

>  <Genealogy>  (11) 
CCNCC[NH2+]c1c2ccccc2[n+](C)c2cccc(N(C)C)c12 (protonated)
CCNCC[NH2+]c1c2ccccc2[n+](C)c2cccc(N(C)C)c12 (3D coordinates assigned)
CCNCC[NH2+]c1c2ccccc2[n+](C)c2cccc(N(C)C)c12 (optimized conformer: 90.82194796796267 kcal/mol)

>  <smiles>  (11) 
CCNCCNc1c2ccccc2[n+](C)c2cccc(N(C)C)c12

>  <score_type>  (11) 
oracle

>  <origin>  (11) 
adg

>  <m_score__min__energy>  (11) 
-4.2199999999999998

>  <m_primary>  (11) 
energy

$$$$
11:0
     RDKit          3D

 65 67  0  0  0  0  0  0  0  0999 V2000
   54.7610   30.3270   51.9890 C   0  0  0  0  0  0  0  0  0  0  0  0
   55.9950   31.2210   51.9110 C   0  0  0  0  0  0  0  0  0  0  0  0
   57.1180   30.4680   51.4940 O   0  0  0  0  0  0  0  0  0  0  0  0
   57.3870   29.4300   52.4130 C   0  0  0  0  0  0  0  0  0  0  0  0
   58.8710   29.0940   52.3710 C   0  0  0  0  0  0  0  0  0  0  0  0
   59.4940   29.8920   51.3860 O   0  0  0  0  0  0  0  0  0  0  0  0
   60.3610   29.0930   50.6080 C   0  0  0  0  0  0  0  0  0  0  0  0
   59.8740   29.0700   49.1620 C   0  0  0  0  0  0  0  0  0  0  0  0
   58.8750   30.1130   48.9250 N   0  0  0  0  0  0  0  0  0  0  0  0
   58.8370   30.8110   47.6710 C   0  0  0  0  0  0  0  0  0  0  0  0
   58.5850   30.0930   46.4860 C   0  0  0  0  0  0  0  0  0  0  0  0
   58.5920   28.6810   46.4740 C   0  0  0  0  0  0  0  0  0  0  0  0
   58.3440   27.9760   45.2990 C   0  0  0  0  0  0  0  0  0  0  0  0
   58.1060   28.6600   44.1140 C   0  0  0  0  0  0  0  0  0  0  0  0
   58.1020   30.0540   44.0990 C   0  0  0  0  0  0  0  0  0  0  0  0
   58.3190   30.7990   45.2870 C   0  0  0  0  0  0  0  0  0  0  0  0
   58.2880   32.1780   45.2930 N   0  0  0  0  0  0  0  0  0  0  0  0
   57.7070   32.9100   44.1450 C   0  0  0  0  0  0  0  0  0  0  0  0
   58.8010   32.8750   46.3710 C   0  0  0  0  0  0  0  0  0  0  0  0
   59.1170   34.2500   46.2660 C   0  0  0  0  0  0  0  0  0  0  0  0
   59.6400   34.9520   47.3410 C   0  0  0  0  0  0  0  0  0  0  0  0
   59.8750   34.3110   48.5470 C   0  0  0  0  0  0  0  0  0  0  0  0
   59.5890   32.9450   48.7080 C   0  0  0  0  0  0  0  0  0  0  0  0
   59.8580   32.3030   49.9320 O   0  0  0  0  0  0  0  0  0  0  0  0
   60.9140   32.6400   50.8350 C   0  0  0  0  0  0  0  0  0  0  0  0
   60.4320   32.9300   52.2780 C   0  0  0  0  0  0  0  0  0  0  0  0
   59.0170   32.5910   52.5770 N   0  0  0  0  0  0  0  0  0  0  0  0
   58.0900   33.7190   52.3830 C   0  0  0  0  0  0  0  0  0  0  0  0
   58.8530   31.9910   53.9120 C   0  0  0  0  0  0  0  0  0  0  0  0
   59.0550   32.2070   47.6070 C   0  0  0  0  0  0  0  0  0  0  0  0
   54.5074   30.1433   53.0435 H   0  0  0  0  0  0  0  0  0  0  0  0
   53.9161   30.8239   51.4899 H   0  0  0  0  0  0  0  0  0  0  0  0
   54.9699   29.3693   51.4899 H   0  0  0  0  0  0  0  0  0  0  0  0
   55.8121   32.0307   51.1893 H   0  0  0  0  0  0  0  0  0  0  0  0
   56.1957   31.6437   52.9065 H   0  0  0  0  0  0  0  0  0  0  0  0
   57.1126   29.7565   53.4270 H   0  0  0  0  0  0  0  0  0  0  0  0
   56.7995   28.5393   52.1457 H   0  0  0  0  0  0  0  0  0  0  0  0
   59.3237   29.2987   53.3524 H   0  0  0  0  0  0  0  0  0  0  0  0
   59.0050   28.0297   52.1274 H   0  0  0  0  0  0  0  0  0  0  0  0
   61.3775   29.5117   50.6456 H   0  0  0  0  0  0  0  0  0  0  0  0
   60.3707   28.0680   51.0072 H   0  0  0  0  0  0  0  0  0  0  0  0
   60.7307   29.2344   48.4919 H   0  0  0  0  0  0  0  0  0  0  0  0
   59.4108   28.0919   48.9652 H   0  0  0  0  0  0  0  0  0  0  0  0
   58.3760   30.5220   49.7450 H   0  0  0  0  0  0  0  0  0  0  0  0
   58.7959   28.1310   47.4046 H   0  0  0  0  0  0  0  0  0  0  0  0
   58.3366   26.8761   45.3094 H   0  0  0  0  0  0  0  0  0  0  0  0
   57.9202   28.1006   43.1852 H   0  0  0  0  0  0  0  0  0  0  0  0
   57.9279   30.5847   43.1514 H   0  0  0  0  0  0  0  0  0  0  0  0
   57.0631   33.7213   44.5154 H   0  0  0  0  0  0  0  0  0  0  0  0
   58.5166   33.3347   43.5333 H   0  0  0  0  0  0  0  0  0  0  0  0
   57.1096   32.2180   43.5333 H   0  0  0  0  0  0  0  0  0  0  0  0
   58.9444   34.7720   45.3133 H   0  0  0  0  0  0  0  0  0  0  0  0
   59.8695   36.0227   47.2362 H   0  0  0  0  0  0  0  0  0  0  0  0
   60.2917   34.8803   49.3909 H   0  0  0  0  0  0  0  0  0  0  0  0
   61.6235   31.8000   50.8683 H   0  0  0  0  0  0  0  0  0  0  0  0
   61.3752   33.5650   50.4587 H   0  0  0  0  0  0  0  0  0  0  0  0
   61.0678   32.3540   52.9664 H   0  0  0  0  0  0  0  0  0  0  0  0
   60.5055   34.0208   52.3995 H   0  0  0  0  0  0  0  0  0  0  0  0
   58.7380   31.8520   51.8870 H   0  0  0  0  0  0  0  0  0  0  0  0
   57.7725   34.1053   53.3628 H   0  0  0  0  0  0  0  0  0  0  0  0
   58.5965   34.5173   51.8207 H   0  0  0  0  0  0  0  0  0  0  0  0
   57.2087   33.3768   51.8207 H   0  0  0  0  0  0  0  0  0  0  0  0
   59.0600   32.7484   54.6824 H   0  0  0  0  0  0  0  0  0  0  0  0
   57.8219   31.6250   54.0254 H   0  0  0  0  0  0  0  0  0  0  0  0
   59.5546   31.1514   54.0254 H   0  0  0  0  0  0  0  0  0  0  0  0
  1  2  1  0
  2  3  1  0
  3  4  1  0
  4  5  1  0
  5  6  1  0
  6  7  1  0
  7  8  1  0
  8  9  1  0
  9 10  1  0
 10 11  2  0
 11 12  1  0
 12 13  2  0
 13 14  1  0
 14 15  2  0
 15 16  1  0
 16 17  2  0
 17 18  1  0
 17 19  1  0
 19 20  2  0
 20 21  1  0
 21 22  2  0
 22 23  1  0
 23 24  1  0
 24 25  1  0
 25 26  1  0
 26 27  1  0
 27 28  1  0
 27 29  1  0
 23 30  2  0
 30 10  1  0
 16 11  1  0
 30 19  1  0
  1 31  1  0
  1 32  1  0
  1 33  1  0
  2 34  1  0
  2 35  1  0
  4 36  1  0
  4 37  1  0
  5 38  1  0
  5 39  1  0
  7 40  1  0
  7 41  1  0
  8 42  1  0
  8 43  1  0
  9 44  1  0
 12 45  1  0
 13 46  1  0
 14 47  1  0
 15 48  1  0
 18 49  1  0
 18 50  1  0
 18 51  1  0
 20 52  1  0
 21 53  1  0
 22 54  1  0
 25 55  1  0
 25 56  1  0
 26 57  1  0
 26 58  1  0
 27 59  1  0
 28 60  1  0
 28 61  1  0
 28 62  1  0
 29 63  1  0
 29 64  1  0
 29 65  1  0
M  CHG  2  17   1  27   1
M  END
>  <UniqueID>  (12) 
12

>  <SMILES>  (12) 
CCOCCOCCNc1c2ccccc2[n+](C)c2cccc(OCC[NH+](C)C)c12

>  <Energy>  (12) 
95.7564157744785

>  <Genealogy>  (12) 
CCOCCOCCNc1c2ccccc2[n+](C)c2cccc(OCC[NH+](C)C)c12 (protonated)
CCOCCOCCNc1c2ccccc2[n+](C)c2cccc(OCC[NH+](C)C)c12 (3D coordinates assigned)
CCOCCOCCNc1c2ccccc2[n+](C)c2cccc(OCC[NH+](C)C)c12 (optimized conformer: 95.7564157744785 kcal/mol)

>  <smiles>  (12) 
CCOCCOCCNc1c2ccccc2[n+](C)c2cccc(OCCN(C)C)c12

>  <score_type>  (12) 
oracle

>  <origin>  (12) 
adg

>  <m_score__min__energy>  (12) 
-2.5

>  <m_primary>  (12) 
energy

$$$$
12:0
     RDKit          3D

 57 59  0  0  0  0  0  0  0  0999 V2000
   65.7060   32.1480   50.3390 C   0  0  0  0  0  0  0  0  0  0  0  0
   64.9950   33.1050   49.3800 C   0  0  0  0  0  0  0  0  0  0  0  0
   63.8020   32.5030   48.7530 N   0  0  0  0  0  0  0  0  0  0  0  0
   63.7320   32.6610   47.2880 C   0  0  0  0  0  0  0  0  0  0  0  0
   62.7430   33.7320   46.7720 C   0  0  0  0  0  0  0  0  0  0  0  0
   61.2350   33.7220   47.1650 C   0  0  1  0  0  0  0  0  0  0  0  0
   60.2640   33.0910   46.1380 C   0  0  0  0  0  0  0  0  0  0  0  0
   58.9660   32.7640   46.7710 N   0  0  0  0  0  0  0  0  0  0  0  0
   57.8970   32.3430   45.8300 C   0  0  1  0  0  0  0  0  0  0  0  0
   57.6900   33.3310   44.6430 C   0  0  0  0  0  0  0  0  0  0  0  0
   58.4760   32.9310   43.3870 C   0  0  0  0  0  0  0  0  0  0  0  0
   57.7050   31.9490   42.4910 C   0  0  0  0  0  0  0  0  0  0  0  0
   56.7960   30.9680   43.2510 C   0  0  0  0  0  0  0  0  0  0  0  0
   57.5320   30.2150   44.3320 C   0  0  0  0  0  0  0  0  0  0  0  0
   57.7360   28.8320   44.1550 C   0  0  0  0  0  0  0  0  0  0  0  0
   58.4460   28.0870   45.0950 C   0  0  0  0  0  0  0  0  0  0  0  0
   58.9650   28.7090   46.2270 C   0  0  0  0  0  0  0  0  0  0  0  0
   58.7650   30.0740   46.4290 C   0  0  0  0  0  0  0  0  0  0  0  0
   58.0370   30.8510   45.5050 C   0  0  0  0  0  0  0  0  0  0  0  0
   58.5400   33.7840   47.7480 C   0  0  0  0  0  0  0  0  0  0  0  0
   59.5600   33.8860   48.9130 C   0  0  0  0  0  0  0  0  0  0  0  0
   60.9070   33.3530   48.5700 N   0  0  0  0  0  0  0  0  0  0  0  0
   60.9760   31.9050   48.8710 C   0  0  0  0  0  0  0  0  0  0  0  0
   65.4887   32.4404   51.3769 H   0  0  0  0  0  0  0  0  0  0  0  0
   65.3493   31.1221   50.1648 H   0  0  0  0  0  0  0  0  0  0  0  0
   66.7912   32.1934   50.1648 H   0  0  0  0  0  0  0  0  0  0  0  0
   64.6843   33.9987   49.9411 H   0  0  0  0  0  0  0  0  0  0  0  0
   65.7023   33.3546   48.5754 H   0  0  0  0  0  0  0  0  0  0  0  0
   62.9470   32.9490   49.1650 H   0  0  0  0  0  0  0  0  0  0  0  0
   63.7470   31.4940   49.0100 H   0  0  0  0  0  0  0  0  0  0  0  0
   64.7367   32.9290   46.9293 H   0  0  0  0  0  0  0  0  0  0  0  0
   63.3598   31.7006   46.9019 H   0  0  0  0  0  0  0  0  0  0  0  0
   63.1407   34.7029   47.1024 H   0  0  0  0  0  0  0  0  0  0  0  0
   62.7024   33.5090   45.6956 H   0  0  0  0  0  0  0  0  0  0  0  0
   61.0351   34.8027   47.1188 H   0  0  0  0  0  0  0  0  0  0  0  0
   60.0952   33.8033   45.3170 H   0  0  0  0  0  0  0  0  0  0  0  0
   60.7122   32.1625   45.7545 H   0  0  0  0  0  0  0  0  0  0  0  0
   56.9163   32.4232   46.3217 H   0  0  0  0  0  0  0  0  0  0  0  0
   56.6192   33.3589   44.3926 H   0  0  0  0  0  0  0  0  0  0  0  0
   58.0617   34.3150   44.9648 H   0  0  0  0  0  0  0  0  0  0  0  0
   58.6961   33.8387   42.8059 H   0  0  0  0  0  0  0  0  0  0  0  0
   59.3955   32.4261   43.7180 H   0  0  0  0  0  0  0  0  0  0  0  0
   57.0784   32.5333   41.8011 H   0  0  0  0  0  0  0  0  0  0  0  0
   58.4606   31.3384   41.9750 H   0  0  0  0  0  0  0  0  0  0  0  0
   55.9743   31.5347   43.7132 H   0  0  0  0  0  0  0  0  0  0  0  0
   56.4218   30.2301   42.5261 H   0  0  0  0  0  0  0  0  0  0  0  0
   57.3293   28.3335   43.2627 H   0  0  0  0  0  0  0  0  0  0  0  0
   58.5961   27.0080   44.9424 H   0  0  0  0  0  0  0  0  0  0  0  0
   59.5339   28.1226   46.9635 H   0  0  0  0  0  0  0  0  0  0  0  0
   59.1831   30.5537   47.3263 H   0  0  0  0  0  0  0  0  0  0  0  0
   58.4683   34.7592   47.2442 H   0  0  0  0  0  0  0  0  0  0  0  0
   57.5615   33.4942   48.1585 H   0  0  0  0  0  0  0  0  0  0  0  0
   59.6651   34.9447   49.1923 H   0  0  0  0  0  0  0  0  0  0  0  0
   59.1701   33.2737   49.7395 H   0  0  0  0  0  0  0  0  0  0  0  0
   60.9831   31.7570   49.9610 H   0  0  0  0  0  0  0  0  0  0  0  0
   60.1010   31.3983   48.4378 H   0  0  0  0  0  0  0  0  0  0  0  0
   61.8952   31.4838   48.4378 H   0  0  0  0  0  0  0  0  0  0  0  0
  1  2  1  0
  2  3  1  0
  3  4  1  0
  4  5  1  0
  5  6  1  0
  6  7  1  0
  7  8  1  0
  8  9  1  0
  9 10  1  0
 10 11  1  0
 11 12  1  0
 12 13  1  0
 13 14  1  0
 14 15  2  0
 15 16  1  0
 16 17  2  0
 17 18  1  0
 18 19  2  0
  8 20  1  0
 20 21  1  0
 21 22  1  0
 22 23  1  0
 22  6  1  0
 19  9  1  0
 19 14  1  0
  1 24  1  0
  1 25  1  0
  1 26  1  0
  2 27  1  0
  2 28  1  0
  3 29  1  0
  3 30  1  0
  4 31  1  0
  4 32  1  0
  5 33  1  0
  5 34  1  0
  6 35  1  1
  7 36  1  0
  7 37  1  0
  9 38  1  1
 10 39  1  0
 10 40  1  0
 11 41  1  0
 11 42  1  0
 12 43  1  0
 12 44  1  0
 13 45  1  0
 13 46  1  0
 15 47  1  0
 16 48  1  0
 17 49  1  0
 18 50  1  0
 20 51  1  0
 20 52  1  0
 21 53  1  0
 21 54  1  0
 23 55  1  0
 23 56  1  0
 23 57  1  0
M  CHG  1   3   1
M  END
>  <UniqueID>  (13) 
13

>  <SMILES>  (13) 
CC[NH2+]CC[C@H]1CN([C@H]2CCCCc3ccccc32)CCN1C

>  <Energy>  (13) 
94.54668540134514

>  <Genealogy>  (13) 
CC[NH2+]CCC1CN(C2CCCCc3ccccc32)CCN1C (protonated)
CC[NH2+]CC[C@H]1CN([C@H]2CCCCc3ccccc32)CCN1C (chirality)
CC[NH2+]CC[C@H]1CN([C@H]2CCCCc3ccccc32)CCN1C (3D coordinates assigned)
CC[NH2+]CC[C@H]1CN([C@H]2CCCCc3ccccc32)CCN1C (nonaromatic ring conformer: 94.54668540134514 kcal/mol)

>  <smiles>  (13) 
CCNCCC1CN(C2CCCCc3ccccc32)CCN1C

>  <score_type>  (13) 
oracle

>  <origin>  (13) 
adg

>  <m_score__min__energy>  (13) 
-4.79

>  <m_primary>  (13) 
energy

$$$$
13:0
     RDKit          3D

 49 52  0  0  0  0  0  0  0  0999 V2000
   63.3620   33.6420   47.0890 C   0  0  0  0  0  0  0  0  0  0  0  0
   63.1450   34.0590   48.5420 C   0  0  0  0  0  0  0  0  0  0  0  0
   62.7100   32.9300   49.3750 N   0  0  0  0  0  0  0  0  0  0  0  0
   63.5920   31.7740   49.5490 C   0  0  0  0  0  0  0  0  0  0  0  0
   61.7570   33.1980   50.4160 C   0  0  0  0  0  0  0  0  0  0  0  0
   62.1320   33.0610   51.7180 N   0  0  0  0  0  0  0  0  0  0  0  0
   61.2570   33.3050   52.7280 C   0  0  0  0  0  0  0  0  0  0  0  0
   59.9860   33.6880   52.4510 N   0  0  0  0  0  0  0  0  0  0  0  0
   59.5640   33.8380   51.1700 C   0  0  0  0  0  0  0  0  0  0  0  0
   60.4440   33.6030   50.1050 C   0  0  0  0  0  0  0  0  0  0  0  0
   59.9590   33.7280   48.6810 C   0  0  0  0  0  0  0  0  0  0  0  0
   59.6850   32.3710   48.0880 C   0  0  0  0  0  0  0  0  0  0  0  0
   60.0100   32.0970   46.7500 C   0  0  0  0  0  0  0  0  0  0  0  0
   59.7780   30.8290   46.2110 C   0  0  0  0  0  0  0  0  0  0  0  0
   59.2020   29.8200   46.9980 C   0  0  0  0  0  0  0  0  0  0  0  0
   58.9800   28.4710   46.4330 C   0  0  0  0  0  0  0  0  0  0  0  0
   59.8850   27.4530   46.7810 C   0  0  0  0  0  0  0  0  0  0  0  0
   59.6810   26.1410   46.3500 C   0  0  0  0  0  0  0  0  0  0  0  0
   58.5710   25.8280   45.5680 C   0  0  0  0  0  0  0  0  0  0  0  0
   57.6680   26.8280   45.2010 C   0  0  0  0  0  0  0  0  0  0  0  0
   57.8640   28.1610   45.6090 C   0  0  0  0  0  0  0  0  0  0  0  0
   56.9170   29.1950   45.1190 C   0  0  0  0  0  0  0  0  0  0  0  0
   55.6100   28.9890   44.8690 N   0  0  0  0  0  0  0  0  0  0  0  0
   55.1440   30.1710   44.5030 N   0  0  0  0  0  0  0  0  0  0  0  0
   56.1200   31.0650   44.5350 N   0  0  0  0  0  0  0  0  0  0  0  0
   57.2440   30.4860   44.9230 N   0  0  0  0  0  0  0  0  0  0  0  0
   58.8790   30.0910   48.3370 C   0  0  0  0  0  0  0  0  0  0  0  0
   59.1120   31.3590   48.8750 C   0  0  0  0  0  0  0  0  0  0  0  0
   63.8696   32.6666   47.0594 H   0  0  0  0  0  0  0  0  0  0  0  0
   62.3896   33.5649   46.5805 H   0  0  0  0  0  0  0  0  0  0  0  0
   63.9831   34.3941   46.5805 H   0  0  0  0  0  0  0  0  0  0  0  0
   64.0896   34.4545   48.9437 H   0  0  0  0  0  0  0  0  0  0  0  0
   62.3548   34.8239   48.5636 H   0  0  0  0  0  0  0  0  0  0  0  0
   63.7381   31.5825   50.6223 H   0  0  0  0  0  0  0  0  0  0  0  0
   63.1362   30.8908   49.0777 H   0  0  0  0  0  0  0  0  0  0  0  0
   64.5643   31.9804   49.0777 H   0  0  0  0  0  0  0  0  0  0  0  0
   63.1070   32.7660   51.9500 H   0  0  0  0  0  0  0  0  0  0  0  0
   61.5803   33.1916   53.7733 H   0  0  0  0  0  0  0  0  0  0  0  0
   58.5275   34.1452   50.9669 H   0  0  0  0  0  0  0  0  0  0  0  0
   59.0330   34.3216   48.6662 H   0  0  0  0  0  0  0  0  0  0  0  0
   60.7402   34.2220   48.0847 H   0  0  0  0  0  0  0  0  0  0  0  0
   60.4501   32.8856   46.1220 H   0  0  0  0  0  0  0  0  0  0  0  0
   60.0480   30.6207   45.1652 H   0  0  0  0  0  0  0  0  0  0  0  0
   60.7627   27.6927   47.3992 H   0  0  0  0  0  0  0  0  0  0  0  0
   60.3971   25.3536   46.6279 H   0  0  0  0  0  0  0  0  0  0  0  0
   58.4057   24.7914   45.2392 H   0  0  0  0  0  0  0  0  0  0  0  0
   56.7931   26.5710   44.5858 H   0  0  0  0  0  0  0  0  0  0  0  0
   58.4406   29.3016   48.9652 H   0  0  0  0  0  0  0  0  0  0  0  0
   58.8449   31.5660   49.9218 H   0  0  0  0  0  0  0  0  0  0  0  0
  1  2  1  0
  2  3  1  0
  3  4  1  0
  3  5  1  0
  5  6  2  0
  6  7  1  0
  7  8  2  0
  8  9  1  0
  9 10  2  0
 10 11  1  0
 11 12  1  0
 12 13  2  0
 13 14  1  0
 14 15  2  0
 15 16  1  0
 16 17  2  0
 17 18  1  0
 18 19  2  0
 19 20  1  0
 20 21  2  0
 21 22  1  0
 22 23  1  0
 23 24  2  0
 24 25  1  0
 25 26  1  0
 15 27  1  0
 27 28  2  0
 10  5  1  0
 28 12  1  0
 21 16  1  0
 26 22  2  0
  1 29  1  0
  1 30  1  0
  1 31  1  0
  2 32  1  0
  2 33  1  0
  4 34  1  0
  4 35  1  0
  4 36  1  0
  6 37  1  0
  7 38  1  0
  9 39  1  0
 11 40  1  0
 11 41  1  0
 13 42  1  0
 14 43  1  0
 17 44  1  0
 18 45  1  0
 19 46  1  0
 20 47  1  0
 27 48  1  0
 28 49  1  0
M  CHG  2   6   1  25  -1
M  END
>  <UniqueID>  (14) 
14

>  <SMILES>  (14) 
CCN(C)c1[nH+]cncc1Cc1ccc(-c2ccccc2-c2nn[n-]n2)cc1

>  <Energy>  (14) 
103.03749040791034

>  <Genealogy>  (14) 
CCN(C)c1[nH+]cncc1Cc1ccc(-c2ccccc2-c2nn[n-]n2)cc1 (protonated)
CCN(C)c1[nH+]cncc1Cc1ccc(-c2ccccc2-c2nn[n-]n2)cc1 (3D coordinates assigned)
CCN(C)c1[nH+]cncc1Cc1ccc(-c2ccccc2-c2nn[n-]n2)cc1 (optimized conformer: 103.03749040791034 kcal/mol)

>  <smiles>  (14) 
CCN(C)c1ncncc1Cc1ccc(-c2ccccc2-c2nn[nH]n2)cc1

>  <score_type>  (14) 
oracle

>  <origin>  (14) 
adg

>  <m_score__min__energy>  (14) 
-8.9299999999999997

>  <m_primary>  (14) 
energy

$$$$
14:0
     RDKit          3D

 76 78  0  0  0  0  0  0  0  0999 V2000
   58.1870   33.1660   47.5570 C   0  0  0  0  0  0  0  0  0  0  0  0
   59.2790   34.0660   48.1320 C   0  0  0  0  0  0  0  0  0  0  0  0
   60.0950   34.6510   47.0420 N   0  0  0  0  0  0  0  0  0  0  0  0
   59.2520   35.1670   45.9420 C   0  0  0  0  0  0  0  0  0  0  0  0
   59.2710   34.2100   44.7520 C   0  0  0  0  0  0  0  0  0  0  0  0
   61.1270   33.7020   46.5510 C   0  0  0  0  0  0  0  0  0  0  0  0
   62.4350   33.9050   47.3230 C   0  0  0  0  0  0  0  0  0  0  0  0
   63.5540   32.9660   46.8380 C   0  0  0  0  0  0  0  0  0  0  0  0
   63.4570   31.6370   47.4700 N   0  0  0  0  0  0  0  0  0  0  0  0
   62.9560   31.7210   48.8380 C   0  0  0  0  0  0  0  0  0  0  0  0
   63.7660   32.2990   49.8580 C   0  0  0  0  0  0  0  0  0  0  0  0
   65.1790   32.3640   49.7570 C   0  0  0  0  0  0  0  0  0  0  0  0
   65.9460   33.0060   50.7240 C   0  0  0  0  0  0  0  0  0  0  0  0
   65.3390   33.5510   51.8400 C   0  0  0  0  0  0  0  0  0  0  0  0
   63.9620   33.4420   52.0050 C   0  0  0  0  0  0  0  0  0  0  0  0
   63.1470   32.8260   51.0200 C   0  0  0  0  0  0  0  0  0  0  0  0
   61.7830   32.7300   51.1810 N   0  0  0  0  0  0  0  0  0  0  0  0
   61.0980   33.5470   52.2130 C   0  0  0  0  0  0  0  0  0  0  0  0
   61.0520   31.8780   50.3790 C   0  0  0  0  0  0  0  0  0  0  0  0
   59.7470   31.4880   50.7510 C   0  0  0  0  0  0  0  0  0  0  0  0
   58.9480   30.7320   49.9100 C   0  0  0  0  0  0  0  0  0  0  0  0
   59.4290   30.2990   48.6710 C   0  0  0  0  0  0  0  0  0  0  0  0
   58.5690   29.6030   47.7420 N   0  0  0  0  0  0  0  0  0  0  0  0
   58.5910   28.1580   47.5060 C   0  0  0  0  0  0  0  0  0  0  0  0
   57.6580   27.7800   46.3490 C   0  0  0  0  0  0  0  0  0  0  0  0
   57.8150   28.7780   45.1820 C   0  0  0  0  0  0  0  0  0  0  0  0
   56.9090   29.9450   45.2500 N   0  0  0  0  0  0  0  0  0  0  0  0
   55.6890   29.7790   44.4440 C   0  0  0  0  0  0  0  0  0  0  0  0
   57.5840   31.2160   44.9410 C   0  0  0  0  0  0  0  0  0  0  0  0
   60.7740   30.5560   48.3300 C   0  0  0  0  0  0  0  0  0  0  0  0
   61.2720   29.9530   47.1750 O   0  0  0  0  0  0  0  0  0  0  0  0
   60.6270   30.1040   45.9140 C   0  0  0  0  0  0  0  0  0  0  0  0
   61.6020   31.3790   49.1610 C   0  0  0  0  0  0  0  0  0  0  0  0
   57.6236   32.7017   48.3798 H   0  0  0  0  0  0  0  0  0  0  0  0
   57.5043   33.7672   46.9386 H   0  0  0  0  0  0  0  0  0  0  0  0
   58.6467   32.3810   46.9386 H   0  0  0  0  0  0  0  0  0  0  0  0
   58.8126   34.8770   48.7106 H   0  0  0  0  0  0  0  0  0  0  0  0
   59.9313   33.4641   48.7818 H   0  0  0  0  0  0  0  0  0  0  0  0
   58.2179   35.2766   46.3006 H   0  0  0  0  0  0  0  0  0  0  0  0
   59.6494   36.1405   45.6190 H   0  0  0  0  0  0  0  0  0  0  0  0
   59.2916   33.1723   45.1163 H   0  0  0  0  0  0  0  0  0  0  0  0
   58.3696   34.3664   44.1413 H   0  0  0  0  0  0  0  0  0  0  0  0
   60.1655   34.4020   44.1413 H   0  0  0  0  0  0  0  0  0  0  0  0
   60.7733   32.6709   46.6983 H   0  0  0  0  0  0  0  0  0  0  0  0
   61.3067   33.8854   45.4814 H   0  0  0  0  0  0  0  0  0  0  0  0
   62.7653   34.9459   47.1910 H   0  0  0  0  0  0  0  0  0  0  0  0
   62.2393   33.6754   48.3808 H   0  0  0  0  0  0  0  0  0  0  0  0
   63.4749   32.8495   45.7471 H   0  0  0  0  0  0  0  0  0  0  0  0
   64.5213   33.4101   47.1156 H   0  0  0  0  0  0  0  0  0  0  0  0
   62.8860   30.9820   46.8980 H   0  0  0  0  0  0  0  0  0  0  0  0
   64.4070   31.2220   47.4020 H   0  0  0  0  0  0  0  0  0  0  0  0
   65.6792   31.8969   48.8958 H   0  0  0  0  0  0  0  0  0  0  0  0
   67.0365   33.0800   50.6004 H   0  0  0  0  0  0  0  0  0  0  0  0
   65.9445   34.0706   52.5972 H   0  0  0  0  0  0  0  0  0  0  0  0
   63.4954   33.8414   52.9176 H   0  0  0  0  0  0  0  0  0  0  0  0
   61.3922   33.1962   53.2132 H   0  0  0  0  0  0  0  0  0  0  0  0
   61.3853   34.6023   52.0954 H   0  0  0  0  0  0  0  0  0  0  0  0
   60.0088   33.4482   52.0954 H   0  0  0  0  0  0  0  0  0  0  0  0
   59.3555   31.7922   51.7329 H   0  0  0  0  0  0  0  0  0  0  0  0
   57.9256   30.4698   50.2197 H   0  0  0  0  0  0  0  0  0  0  0  0
   57.8920   30.1540   47.1700 H   0  0  0  0  0  0  0  0  0  0  0  0
   59.6170   27.8489   47.2574 H   0  0  0  0  0  0  0  0  0  0  0  0
   58.2469   27.6470   48.4173 H   0  0  0  0  0  0  0  0  0  0  0  0
   57.9089   26.7685   45.9969 H   0  0  0  0  0  0  0  0  0  0  0  0
   56.6178   27.8094   46.7057 H   0  0  0  0  0  0  0  0  0  0  0  0
   58.8514   29.1466   45.1816 H   0  0  0  0  0  0  0  0  0  0  0  0
   57.5541   28.2311   44.2640 H   0  0  0  0  0  0  0  0  0  0  0  0
   54.8222   29.6611   45.1109 H   0  0  0  0  0  0  0  0  0  0  0  0
   55.5453   30.6659   43.8093 H   0  0  0  0  0  0  0  0  0  0  0  0
   55.7875   28.8860   43.8093 H   0  0  0  0  0  0  0  0  0  0  0  0
   57.8543   31.7249   45.8780 H   0  0  0  0  0  0  0  0  0  0  0  0
   58.4943   31.0152   44.3570 H   0  0  0  0  0  0  0  0  0  0  0  0
   56.9079   31.8577   44.3570 H   0  0  0  0  0  0  0  0  0  0  0  0
   59.5670   30.3522   46.0717 H   0  0  0  0  0  0  0  0  0  0  0  0
   61.1127   30.9127   45.3482 H   0  0  0  0  0  0  0  0  0  0  0  0
   60.7032   29.1637   45.3482 H   0  0  0  0  0  0  0  0  0  0  0  0
  1  2  1  0
  2  3  1  0
  3  4  1  0
  4  5  1  0
  3  6  1  0
  6  7  1  0
  7  8  1  0
  8  9  1  0
  9 10  1  0
 10 11  2  0
 11 12  1  0
 12 13  2  0
 13 14  1  0
 14 15  2  0
 15 16  1  0
 16 17  2  0
 17 18  1  0
 17 19  1  0
 19 20  2  0
 20 21  1  0
 21 22  2  0
 22 23  1  0
 23 24  1  0
 24 25  1  0
 25 26  1  0
 26 27  1  0
 27 28  1  0
 27 29  1  0
 22 30  1  0
 30 31  1  0
 31 32  1  0
 30 33  2  0
 33 10  1  0
 16 11  1  0
 33 19  1  0
  1 34  1  0
  1 35  1  0
  1 36  1  0
  2 37  1  0
  2 38  1  0
  4 39  1  0
  4 40  1  0
  5 41  1  0
  5 42  1  0
  5 43  1  0
  6 44  1  0
  6 45  1  0
  7 46  1  0
  7 47  1  0
  8 48  1  0
  8 49  1  0
  9 50  1  0
  9 51  1  0
 12 52  1  0
 13 53  1  0
 14 54  1  0
 15 55  1  0
 18 56  1  0
 18 57  1  0
 18 58  1  0
 20 59  1  0
 21 60  1  0
 23 61  1  0
 24 62  1  0
 24 63  1  0
 25 64  1  0
 25 65  1  0
 26 66  1  0
 26 67  1  0
 28 68  1  0
 28 69  1  0
 28 70  1  0
 29 71  1  0
 29 72  1  0
 29 73  1  0
 32 74  1  0
 32 75  1  0
 32 76  1  0
M  CHG  2   9   1  17   1
M  END
>  <UniqueID>  (15) 
15

>  <SMILES>  (15) 
CCN(CC)CCC[NH2+]c1c2ccccc2[n+](C)c2ccc(NCCCN(C)C)c(OC)c12

>  <Energy>  (15) 
118.37702268289115

>  <Genealogy>  (15) 
CCN(CC)CCC[NH2+]c1c2ccccc2[n+](C)c2ccc(NCCCN(C)C)c(OC)c12 (protonated)
CCN(CC)CCC[NH2+]c1c2ccccc2[n+](C)c2ccc(NCCCN(C)C)c(OC)c12 (3D coordinates assigned)
CCN(CC)CCC[NH2+]c1c2ccccc2[n+](C)c2ccc(NCCCN(C)C)c(OC)c12 (optimized conformer: 118.37702268289115 kcal/mol)

>  <smiles>  (15) 
CCN(CC)CCCNc1c2ccccc2[n+](C)c2ccc(NCCCN(C)C)c(OC)c12

>  <score_type>  (15) 
oracle

>  <origin>  (15) 
adg

>  <m_score__min__energy>  (15) 
-4.7199999999999998

>  <m_primary>  (15) 
energy

$$$$
15:0
     RDKit          3D

 65 67  0  0  0  0  0  0  0  0999 V2000
   63.2830   33.8830   46.4840 C   0  0  0  0  0  0  0  0  0  0  0  0
   63.3260   32.8690   47.6270 C   0  0  0  0  0  0  0  0  0  0  0  0
   62.3800   31.6730   47.4020 C   0  0  0  0  0  0  0  0  0  0  0  0
   61.5950   31.2350   48.6530 C   0  0  0  0  0  0  0  0  0  0  0  0
   60.1520   31.5700   48.6100 N   0  0  0  0  0  0  0  0  0  0  0  0
   59.6280   31.6210   47.2490 C   0  0  0  0  0  0  0  0  0  0  0  0
   59.4730   32.8740   46.5910 C   0  0  0  0  0  0  0  0  0  0  0  0
   59.9020   34.0890   47.1870 C   0  0  0  0  0  0  0  0  0  0  0  0
   59.7920   35.3020   46.5120 C   0  0  0  0  0  0  0  0  0  0  0  0
   59.2660   35.3410   45.2300 C   0  0  0  0  0  0  0  0  0  0  0  0
   58.8180   34.1710   44.6260 C   0  0  0  0  0  0  0  0  0  0  0  0
   58.8740   32.9240   45.3020 C   0  0  0  0  0  0  0  0  0  0  0  0
   58.3700   31.7780   44.7270 N   0  0  0  0  0  0  0  0  0  0  0  0
   57.4480   31.8780   43.5710 C   0  0  0  0  0  0  0  0  0  0  0  0
   58.6930   30.5420   45.2460 C   0  0  0  0  0  0  0  0  0  0  0  0
   58.4570   29.3580   44.5030 C   0  0  0  0  0  0  0  0  0  0  0  0
   58.6950   28.0880   45.0460 C   0  0  0  0  0  0  0  0  0  0  0  0
   58.4430   26.9020   44.3320 O   0  0  0  0  0  0  0  0  0  0  0  0
   57.4860   25.9020   44.6840 C   0  0  0  0  0  0  0  0  0  0  0  0
   57.3940   24.8290   43.5750 C   0  0  0  0  0  0  0  0  0  0  0  0
   57.1440   23.4370   44.0570 N   0  0  0  0  0  0  0  0  0  0  0  0
   56.6150   22.6450   42.9190 C   0  0  0  0  0  0  0  0  0  0  0  0
   58.3990   22.7980   44.5210 C   0  0  0  0  0  0  0  0  0  0  0  0
   56.1400   23.4130   45.1480 C   0  0  0  0  0  0  0  0  0  0  0  0
   59.2070   27.9790   46.3360 C   0  0  0  0  0  0  0  0  0  0  0  0
   59.4270   26.6910   46.8520 O   0  0  0  0  0  0  0  0  0  0  0  0
   60.3940   25.7700   46.3570 C   0  0  0  0  0  0  0  0  0  0  0  0
   59.4980   29.1400   47.0690 C   0  0  0  0  0  0  0  0  0  0  0  0
   59.2790   30.4340   46.5370 C   0  0  0  0  0  0  0  0  0  0  0  0
   63.2398   34.9010   46.8984 H   0  0  0  0  0  0  0  0  0  0  0  0
   64.1865   33.7769   45.8655 H   0  0  0  0  0  0  0  0  0  0  0  0
   62.3918   33.7008   45.8655 H   0  0  0  0  0  0  0  0  0  0  0  0
   64.3544   32.4903   47.7221 H   0  0  0  0  0  0  0  0  0  0  0  0
   62.9946   33.3855   48.5399 H   0  0  0  0  0  0  0  0  0  0  0  0
   61.6559   31.9498   46.6215 H   0  0  0  0  0  0  0  0  0  0  0  0
   63.0151   30.8212   47.1171 H   0  0  0  0  0  0  0  0  0  0  0  0
   61.6935   30.1445   48.7583 H   0  0  0  0  0  0  0  0  0  0  0  0
   62.0229   31.7845   49.5044 H   0  0  0  0  0  0  0  0  0  0  0  0
   59.5960   30.9590   49.2390 H   0  0  0  0  0  0  0  0  0  0  0  0
   60.0130   32.5050   49.0570 H   0  0  0  0  0  0  0  0  0  0  0  0
   60.3291   34.0719   48.2006 H   0  0  0  0  0  0  0  0  0  0  0  0
   60.1234   36.2318   46.9974 H   0  0  0  0  0  0  0  0  0  0  0  0
   59.2029   36.2974   44.6903 H   0  0  0  0  0  0  0  0  0  0  0  0
   58.4123   34.2128   43.6044 H   0  0  0  0  0  0  0  0  0  0  0  0
   56.4157   31.9900   43.9340 H   0  0  0  0  0  0  0  0  0  0  0  0
   57.7188   32.7520   42.9605 H   0  0  0  0  0  0  0  0  0  0  0  0
   57.5252   30.9662   42.9605 H   0  0  0  0  0  0  0  0  0  0  0  0
   58.0773   29.4381   43.4737 H   0  0  0  0  0  0  0  0  0  0  0  0
   57.7915   25.4238   45.6263 H   0  0  0  0  0  0  0  0  0  0  0  0
   56.5011   26.3772   44.8028 H   0  0  0  0  0  0  0  0  0  0  0  0
   56.5724   25.1079   42.8988 H   0  0  0  0  0  0  0  0  0  0  0  0
   58.3787   24.8106   43.0851 H   0  0  0  0  0  0  0  0  0  0  0  0
   56.0426   21.7880   43.3034 H   0  0  0  0  0  0  0  0  0  0  0  0
   55.9583   23.2788   42.3050 H   0  0  0  0  0  0  0  0  0  0  0  0
   57.4520   22.2811   42.3050 H   0  0  0  0  0  0  0  0  0  0  0  0
   58.4201   22.7872   45.6207 H   0  0  0  0  0  0  0  0  0  0  0  0
   58.4464   21.7660   44.1432 H   0  0  0  0  0  0  0  0  0  0  0  0
   59.2615   23.3667   44.1432 H   0  0  0  0  0  0  0  0  0  0  0  0
   56.6546   23.4253   46.1202 H   0  0  0  0  0  0  0  0  0  0  0  0
   55.4889   24.2958   45.0666 H   0  0  0  0  0  0  0  0  0  0  0  0
   55.5318   22.5001   45.0666 H   0  0  0  0  0  0  0  0  0  0  0  0
   60.9040   25.2843   47.2020 H   0  0  0  0  0  0  0  0  0  0  0  0
   59.8930   25.0068   45.7433 H   0  0  0  0  0  0  0  0  0  0  0  0
   61.1319   26.3075   45.7433 H   0  0  0  0  0  0  0  0  0  0  0  0
   59.9076   29.0420   48.0852 H   0  0  0  0  0  0  0  0  0  0  0  0
  1  2  1  0
  2  3  1  0
  3  4  1  0
  4  5  1  0
  5  6  1  0
  6  7  2  0
  7  8  1  0
  8  9  2  0
  9 10  1  0
 10 11  2  0
 11 12  1  0
 12 13  2  0
 13 14  1  0
 13 15  1  0
 15 16  2  0
 16 17  1  0
 17 18  1  0
 18 19  1  0
 19 20  1  0
 20 21  1  0
 21 22  1  0
 21 23  1  0
 21 24  1  0
 17 25  2  0
 25 26  1  0
 26 27  1  0
 25 28  1  0
 28 29  2  0
 29  6  1  0
 12  7  1  0
 29 15  1  0
  1 30  1  0
  1 31  1  0
  1 32  1  0
  2 33  1  0
  2 34  1  0
  3 35  1  0
  3 36  1  0
  4 37  1  0
  4 38  1  0
  5 39  1  0
  5 40  1  0
  8 41  1  0
  9 42  1  0
 10 43  1  0
 11 44  1  0
 14 45  1  0
 14 46  1  0
 14 47  1  0
 16 48  1  0
 19 49  1  0
 19 50  1  0
 20 51  1  0
 20 52  1  0
 22 53  1  0
 22 54  1  0
 22 55  1  0
 23 56  1  0
 23 57  1  0
 23 58  1  0
 24 59  1  0
 24 60  1  0
 24 61  1  0
 27 62  1  0
 27 63  1  0
 27 64  1  0
 28 65  1  0
M  CHG  3   5   1  13   1  21   1
M  END
>  <UniqueID>  (16) 
16

>  <SMILES>  (16) 
CCCC[NH2+]c1c2ccccc2[n+](C)c2cc(OCC[N+](C)(C)C)c(OC)cc12

>  <Energy>  (16) 
96.88059605295865

>  <Genealogy>  (16) 
CCCC[NH2+]c1c2ccccc2[n+](C)c2cc(OCC[N+](C)(C)C)c(OC)cc12 (protonated)
CCCC[NH2+]c1c2ccccc2[n+](C)c2cc(OCC[N+](C)(C)C)c(OC)cc12 (3D coordinates assigned)
CCCC[NH2+]c1c2ccccc2[n+](C)c2cc(OCC[N+](C)(C)C)c(OC)cc12 (optimized conformer: 96.88059605295865 kcal/mol)

>  <smiles>  (16) 
CCCCNc1c2ccccc2[n+](C)c2cc(OCC[N+](C)(C)C)c(OC)cc12

>  <score_type>  (16) 
oracle

>  <origin>  (16) 
adg

>  <m_score__min__energy>  (16) 
-2.8999999999999999

>  <m_primary>  (16) 
energy

$$$$
16:0
     RDKit          3D

 44 46  0  0  0  0  0  0  0  0999 V2000
   60.7400   30.3370   48.8320 C   0  0  0  0  0  0  0  0  0  0  0  0
   61.4580   29.9190   50.1200 C   0  0  0  0  0  0  0  0  0  0  0  0
   60.8680   30.5470   51.3170 N   0  0  0  0  0  0  0  0  0  0  0  0
   59.7220   31.4260   51.0060 C   0  0  0  0  0  0  0  0  0  0  0  0
   59.7520   32.7270   51.8230 C   0  0  0  0  0  0  0  0  0  0  0  0
   60.0100   33.8710   50.9480 N   0  0  0  0  0  0  0  0  0  0  0  0
   60.8580   33.7550   49.7920 C   0  0  0  0  0  0  0  0  0  0  0  0
   60.2990   33.7560   48.5000 C   0  0  0  0  0  0  0  0  0  0  0  0
   58.9050   33.8740   48.3150 C   0  0  0  0  0  0  0  0  0  0  0  0
   58.3470   33.8020   47.0430 C   0  0  0  0  0  0  0  0  0  0  0  0
   59.1610   33.5960   45.9340 C   0  0  0  0  0  0  0  0  0  0  0  0
   58.3810   33.4450   44.1960 Br  0  0  0  0  0  0  0  0  0  0  0  0
   60.5430   33.4930   46.0910 C   0  0  0  0  0  0  0  0  0  0  0  0
   61.1480   33.6090   47.3700 C   0  0  0  0  0  0  0  0  0  0  0  0
   62.5200   33.5610   47.5320 N   0  0  0  0  0  0  0  0  0  0  0  0
   63.4080   33.6960   46.3540 C   0  0  0  0  0  0  0  0  0  0  0  0
   63.0660   33.4290   48.7960 C   0  0  0  0  0  0  0  0  0  0  0  0
   64.4400   33.1340   48.9880 C   0  0  0  0  0  0  0  0  0  0  0  0
   64.9950   33.0880   50.2680 C   0  0  0  0  0  0  0  0  0  0  0  0
   66.8530   32.7020   50.4920 Br  0  0  0  0  0  0  0  0  0  0  0  0
   64.1990   33.3280   51.3830 C   0  0  0  0  0  0  0  0  0  0  0  0
   62.8370   33.5700   51.2280 C   0  0  0  0  0  0  0  0  0  0  0  0
   62.2470   33.5810   49.9460 C   0  0  0  0  0  0  0  0  0  0  0  0
   59.8151   30.8755   49.0860 H   0  0  0  0  0  0  0  0  0  0  0  0
   61.3967   30.9939   48.2428 H   0  0  0  0  0  0  0  0  0  0  0  0
   60.4929   29.4416   48.2428 H   0  0  0  0  0  0  0  0  0  0  0  0
   61.3907   28.8260   50.2241 H   0  0  0  0  0  0  0  0  0  0  0  0
   62.5041   30.2511   50.0459 H   0  0  0  0  0  0  0  0  0  0  0  0
   61.5970   31.1080   51.8160 H   0  0  0  0  0  0  0  0  0  0  0  0
   60.5640   29.7960   51.9810 H   0  0  0  0  0  0  0  0  0  0  0  0
   59.7492   31.6787   49.9358 H   0  0  0  0  0  0  0  0  0  0  0  0
   58.8002   30.8847   51.2654 H   0  0  0  0  0  0  0  0  0  0  0  0
   58.7817   32.8640   52.3227 H   0  0  0  0  0  0  0  0  0  0  0  0
   60.5555   32.6608   52.5713 H   0  0  0  0  0  0  0  0  0  0  0  0
   59.3680   34.6940   51.0150 H   0  0  0  0  0  0  0  0  0  0  0  0
   58.2519   34.0247   49.1872 H   0  0  0  0  0  0  0  0  0  0  0  0
   57.2598   33.9082   46.9137 H   0  0  0  0  0  0  0  0  0  0  0  0
   61.1755   33.3188   45.2080 H   0  0  0  0  0  0  0  0  0  0  0  0
   64.4431   33.8534   46.6912 H   0  0  0  0  0  0  0  0  0  0  0  0
   63.3551   32.7795   45.7480 H   0  0  0  0  0  0  0  0  0  0  0  0
   63.0851   34.5554   45.7480 H   0  0  0  0  0  0  0  0  0  0  0  0
   65.0786   32.9383   48.1140 H   0  0  0  0  0  0  0  0  0  0  0  0
   64.6461   33.3266   52.3880 H   0  0  0  0  0  0  0  0  0  0  0  0
   62.2133   33.7548   52.1151 H   0  0  0  0  0  0  0  0  0  0  0  0
  1  2  1  0
  2  3  1  0
  3  4  1  0
  4  5  1  0
  5  6  1  0
  6  7  1  0
  7  8  2  0
  8  9  1  0
  9 10  2  0
 10 11  1  0
 11 12  1  0
 11 13  2  0
 13 14  1  0
 14 15  2  0
 15 16  1  0
 15 17  1  0
 17 18  2  0
 18 19  1  0
 19 20  1  0
 19 21  2  0
 21 22  1  0
 22 23  2  0
 23  7  1  0
 14  8  1  0
 23 17  1  0
  1 24  1  0
  1 25  1  0
  1 26  1  0
  2 27  1  0
  2 28  1  0
  3 29  1  0
  3 30  1  0
  4 31  1  0
  4 32  1  0
  5 33  1  0
  5 34  1  0
  6 35  1  0
  9 36  1  0
 10 37  1  0
 13 38  1  0
 16 39  1  0
 16 40  1  0
 16 41  1  0
 18 42  1  0
 21 43  1  0
 22 44  1  0
M  CHG  2   3   1  15   1
M  END
>  <UniqueID>  (17) 
17

>  <SMILES>  (17) 
CC[NH2+]CCNc1c2ccc(Br)cc2[n+](C)c2cc(Br)ccc12

>  <Energy>  (17) 
69.52815400898679

>  <Genealogy>  (17) 
CC[NH2+]CCNc1c2ccc(Br)cc2[n+](C)c2cc(Br)ccc12 (protonated)
CC[NH2+]CCNc1c2ccc(Br)cc2[n+](C)c2cc(Br)ccc12 (3D coordinates assigned)
CC[NH2+]CCNc1c2ccc(Br)cc2[n+](C)c2cc(Br)ccc12 (optimized conformer: 69.52815400898679 kcal/mol)

>  <smiles>  (17) 
CCNCCNc1c2ccc(Br)cc2[n+](C)c2cc(Br)ccc12

>  <score_type>  (17) 
oracle

>  <origin>  (17) 
adg

>  <m_score__min__energy>  (17) 
-4.6200000000000001

>  <m_primary>  (17) 
energy

$$$$
17:0
     RDKit          3D

 37 41  0  0  0  0  0  0  0  0999 V2000
   60.0160   35.9500   45.9690 O   0  0  0  0  0  0  0  0  0  0  0  0
   59.4650   34.8190   45.8880 C   0  0  0  0  0  0  0  0  0  0  0  0
   58.3190   34.6050   45.2070 N   0  0  0  0  0  0  0  0  0  0  0  0
   58.1070   33.2860   45.3500 C   0  0  0  0  0  0  0  0  0  0  0  0
   57.0650   32.5350   44.8230 C   0  0  0  0  0  0  0  0  0  0  0  0
   57.0430   31.1950   45.0720 N   0  0  0  0  0  0  0  0  0  0  0  0
   58.0080   30.5760   45.8190 C   0  0  0  0  0  0  0  0  0  0  0  0
   57.9220   29.1890   46.0400 C   0  0  0  0  0  0  0  0  0  0  0  0
   58.9130   28.5890   46.8080 C   0  0  0  0  0  0  0  0  0  0  0  0
   59.9410   29.2940   47.3400 C   0  0  0  0  0  0  0  0  0  0  0  0
   60.0780   30.6670   47.1540 C   0  0  0  0  0  0  0  0  0  0  0  0
   59.0990   31.3320   46.3780 C   0  0  0  0  0  0  0  0  0  0  0  0
   59.1010   32.7170   46.1050 C   0  0  0  0  0  0  0  0  0  0  0  0
   59.9690   33.6970   46.4610 N   0  0  0  0  0  0  0  0  0  0  0  0
   61.2100   33.6100   47.1710 C   0  0  0  0  0  0  0  0  0  0  0  0
   62.4010   33.4870   46.4400 C   0  0  0  0  0  0  0  0  0  0  0  0
   63.6280   33.4040   47.0980 C   0  0  0  0  0  0  0  0  0  0  0  0
   63.6780   33.4490   48.4910 C   0  0  0  0  0  0  0  0  0  0  0  0
   62.5000   33.5780   49.2320 C   0  0  0  0  0  0  0  0  0  0  0  0
   61.2500   33.6590   48.5870 C   0  0  0  0  0  0  0  0  0  0  0  0
   59.9760   33.7960   49.3910 C   0  0  0  0  0  0  0  0  0  0  0  0
   59.2820   34.9470   49.0600 F   0  0  0  0  0  0  0  0  0  0  0  0
   59.1550   32.7090   49.1500 F   0  0  0  0  0  0  0  0  0  0  0  0
   60.2750   33.8470   50.7400 F   0  0  0  0  0  0  0  0  0  0  0  0
   60.7640   28.4420   48.0520 O   0  0  0  0  0  0  0  0  0  0  0  0
   60.2180   27.1190   47.9600 C   0  0  0  0  0  0  0  0  0  0  0  0
   59.0380   27.2580   47.1570 O   0  0  0  0  0  0  0  0  0  0  0  0
   57.7440   35.2990   44.6790 H   0  0  0  0  0  0  0  0  0  0  0  0
   56.2770   33.0094   44.2197 H   0  0  0  0  0  0  0  0  0  0  0  0
   57.0959   28.5978   45.6180 H   0  0  0  0  0  0  0  0  0  0  0  0
   60.9211   31.2178   47.5965 H   0  0  0  0  0  0  0  0  0  0  0  0
   62.3670   33.4558   45.3410 H   0  0  0  0  0  0  0  0  0  0  0  0
   64.5570   33.3030   46.5177 H   0  0  0  0  0  0  0  0  0  0  0  0
   64.6468   33.3828   49.0077 H   0  0  0  0  0  0  0  0  0  0  0  0
   62.5493   33.6167   50.3302 H   0  0  0  0  0  0  0  0  0  0  0  0
   60.9350   26.4377   47.4785 H   0  0  0  0  0  0  0  0  0  0  0  0
   59.9956   26.6946   48.9502 H   0  0  0  0  0  0  0  0  0  0  0  0
  1  2  2  0
  2  3  1  0
  3  4  1  0
  4  5  2  0
  5  6  1  0
  6  7  2  0
  7  8  1  0
  8  9  2  0
  9 10  1  0
 10 11  2  0
 11 12  1  0
 12 13  2  0
 13 14  1  0
 14 15  1  0
 15 16  2  0
 16 17  1  0
 17 18  2  0
 18 19  1  0
 19 20  2  0
 20 21  1  0
 21 22  1  0
 21 23  1  0
 21 24  1  0
 10 25  1  0
 25 26  1  0
 26 27  1  0
 14  2  1  0
 20 15  1  0
 13  4  1  0
 12  7  1  0
 27  9  1  0
  3 28  1  0
  5 29  1  0
  8 30  1  0
 11 31  1  0
 16 32  1  0
 17 33  1  0
 18 34  1  0
 19 35  1  0
 26 36  1  0
 26 37  1  0
M  END
>  <UniqueID>  (18) 
18

>  <SMILES>  (18) 
O=c1[nH]c2cnc3cc4c(cc3c2n1-c1ccccc1C(F)(F)F)OCO4

>  <Energy>  (18) 
126.54902461842028

>  <Genealogy>  (18) 
O=c1[nH]c2cnc3cc4c(cc3c2n1-c1ccccc1C(F)(F)F)OCO4 (3D coordinates assigned)
O=c1[nH]c2cnc3cc4c(cc3c2n1-c1ccccc1C(F)(F)F)OCO4 (nonaromatic ring conformer: 126.54902461842028 kcal/mol)

>  <smiles>  (18) 
O=c1[nH]c2cnc3cc4c(cc3c2n1-c1ccccc1C(F)(F)F)OCO4

>  <score_type>  (18) 
oracle

>  <origin>  (18) 
adg

>  <m_score__min__energy>  (18) 
-7.4900000000000002

>  <m_primary>  (18) 
energy

$$$$
18:0
     RDKit          3D

 64 67  0  0  0  0  0  0  0  0999 V2000
   61.5100   29.4930   51.3320 C   0  0  0  0  0  0  0  0  0  0  0  0
   62.7450   30.3560   51.5650 C   0  0  0  0  0  0  0  0  0  0  0  0
   62.4520   31.7700   51.2720 N   0  0  0  0  0  0  0  0  0  0  0  0
   61.9620   32.6540   52.3450 C   0  0  0  0  0  0  0  0  0  0  0  0
   60.4320   32.6000   52.4550 C   0  0  0  0  0  0  0  0  0  0  0  0
   59.8280   32.6740   51.1790 O   0  0  0  0  0  0  0  0  0  0  0  0
   58.5510   32.0760   51.1900 C   0  0  0  0  0  0  0  0  0  0  0  0
   58.4950   30.9840   50.1160 C   0  0  0  0  0  0  0  0  0  0  0  0
   59.6700   30.9960   49.2200 N   0  0  0  0  0  0  0  0  0  0  0  0
   59.3100   31.2340   47.8240 C   0  0  0  0  0  0  0  0  0  0  0  0
   59.3120   32.5480   47.2710 C   0  0  0  0  0  0  0  0  0  0  0  0
   59.5900   33.6980   48.0570 C   0  0  0  0  0  0  0  0  0  0  0  0
   59.6500   34.9670   47.4870 C   0  0  0  0  0  0  0  0  0  0  0  0
   59.4560   35.1300   46.1260 C   0  0  0  0  0  0  0  0  0  0  0  0
   59.1580   34.0310   45.3300 C   0  0  0  0  0  0  0  0  0  0  0  0
   59.0290   32.7280   45.8840 C   0  0  0  0  0  0  0  0  0  0  0  0
   58.6590   31.6530   45.0990 N   0  0  0  0  0  0  0  0  0  0  0  0
   58.1270   31.8830   43.7330 C   0  0  0  0  0  0  0  0  0  0  0  0
   58.7700   30.3650   45.5830 C   0  0  0  0  0  0  0  0  0  0  0  0
   58.6470   29.2400   44.7240 C   0  0  0  0  0  0  0  0  0  0  0  0
   58.6850   27.9410   45.2210 C   0  0  0  0  0  0  0  0  0  0  0  0
   58.8610   27.7210   46.5780 C   0  0  0  0  0  0  0  0  0  0  0  0
   59.0400   28.7980   47.4410 C   0  0  0  0  0  0  0  0  0  0  0  0
   59.0360   30.1350   46.9630 C   0  0  0  0  0  0  0  0  0  0  0  0
   62.6950   32.3030   49.9500 C   0  0  0  0  0  0  0  0  0  0  0  0
   62.7930   31.4460   48.8390 C   0  0  0  0  0  0  0  0  0  0  0  0
   63.0090   31.9650   47.5610 C   0  0  0  0  0  0  0  0  0  0  0  0
   63.1460   33.3480   47.3720 C   0  0  0  0  0  0  0  0  0  0  0  0
   63.3950   33.9140   46.0040 C   0  0  0  0  0  0  0  0  0  0  0  0
   63.0760   34.2050   48.4790 C   0  0  0  0  0  0  0  0  0  0  0  0
   62.8450   33.6880   49.7570 C   0  0  0  0  0  0  0  0  0  0  0  0
   61.0831   29.1947   52.3009 H   0  0  0  0  0  0  0  0  0  0  0  0
   60.7635   30.0670   50.7635 H   0  0  0  0  0  0  0  0  0  0  0  0
   61.7924   28.5946   50.7635 H   0  0  0  0  0  0  0  0  0  0  0  0
   63.0590   30.2619   52.6150 H   0  0  0  0  0  0  0  0  0  0  0  0
   63.5482   30.0141   50.8957 H   0  0  0  0  0  0  0  0  0  0  0  0
   62.4018   32.3348   53.3014 H   0  0  0  0  0  0  0  0  0  0  0  0
   62.2574   33.6865   52.1070 H   0  0  0  0  0  0  0  0  0  0  0  0
   60.1394   31.6555   52.9369 H   0  0  0  0  0  0  0  0  0  0  0  0
   60.0937   33.4594   53.0525 H   0  0  0  0  0  0  0  0  0  0  0  0
   58.3623   31.6302   52.1778 H   0  0  0  0  0  0  0  0  0  0  0  0
   57.7851   32.8377   50.9820 H   0  0  0  0  0  0  0  0  0  0  0  0
   58.4437   30.0045   50.6140 H   0  0  0  0  0  0  0  0  0  0  0  0
   57.6064   31.1762   49.4967 H   0  0  0  0  0  0  0  0  0  0  0  0
   60.3980   31.6470   49.5790 H   0  0  0  0  0  0  0  0  0  0  0  0
   60.1620   30.0770   49.2950 H   0  0  0  0  0  0  0  0  0  0  0  0
   59.7613   33.5838   49.1376 H   0  0  0  0  0  0  0  0  0  0  0  0
   59.8523   35.8432   48.1205 H   0  0  0  0  0  0  0  0  0  0  0  0
   59.5378   36.1298   45.6747 H   0  0  0  0  0  0  0  0  0  0  0  0
   59.0189   34.1720   44.2480 H   0  0  0  0  0  0  0  0  0  0  0  0
   57.1192   32.3187   43.8005 H   0  0  0  0  0  0  0  0  0  0  0  0
   58.7901   32.5748   43.1929 H   0  0  0  0  0  0  0  0  0  0  0  0
   58.0773   30.9260   43.1929 H   0  0  0  0  0  0  0  0  0  0  0  0
   58.5190   29.3994   43.6432 H   0  0  0  0  0  0  0  0  0  0  0  0
   58.5752   27.0874   44.5359 H   0  0  0  0  0  0  0  0  0  0  0  0
   58.8592   26.6944   46.9732 H   0  0  0  0  0  0  0  0  0  0  0  0
   59.1875   28.6098   48.5147 H   0  0  0  0  0  0  0  0  0  0  0  0
   62.6988   30.3589   48.9781 H   0  0  0  0  0  0  0  0  0  0  0  0
   63.0720   31.2858   46.6980 H   0  0  0  0  0  0  0  0  0  0  0  0
   63.8364   34.9173   46.0971 H   0  0  0  0  0  0  0  0  0  0  0  0
   64.0876   33.2581   45.4563 H   0  0  0  0  0  0  0  0  0  0  0  0
   62.4434   33.9814   45.4563 H   0  0  0  0  0  0  0  0  0  0  0  0
   63.2034   35.2889   48.3414 H   0  0  0  0  0  0  0  0  0  0  0  0
   62.7801   34.3694   50.6181 H   0  0  0  0  0  0  0  0  0  0  0  0
  1  2  1  0
  2  3  1  0
  3  4  1  0
  4  5  1  0
  5  6  1  0
  6  7  1  0
  7  8  1  0
  8  9  1  0
  9 10  1  0
 10 11  1  0
 11 12  2  0
 12 13  1  0
 13 14  2  0
 14 15  1  0
 15 16  2  0
 16 17  1  0
 17 18  1  0
 17 19  2  0
 19 20  1  0
 20 21  2  0
 21 22  1  0
 22 23  2  0
 23 24  1  0
  3 25  1  0
 25 26  2  0
 26 27  1  0
 27 28  2  0
 28 29  1  0
 28 30  1  0
 30 31  2  0
 24 10  2  0
 31 25  1  0
 16 11  1  0
 24 19  1  0
  1 32  1  0
  1 33  1  0
  1 34  1  0
  2 35  1  0
  2 36  1  0
  4 37  1  0
  4 38  1  0
  5 39  1  0
  5 40  1  0
  7 41  1  0
  7 42  1  0
  8 43  1  0
  8 44  1  0
  9 45  1  0
  9 46  1  0
 12 47  1  0
 13 48  1  0
 14 49  1  0
 15 50  1  0
 18 51  1  0
 18 52  1  0
 18 53  1  0
 20 54  1  0
 21 55  1  0
 22 56  1  0
 23 57  1  0
 26 58  1  0
 27 59  1  0
 29 60  1  0
 29 61  1  0
 29 62  1  0
 30 63  1  0
 31 64  1  0
M  CHG  2   9   1  17   1
M  END
>  <UniqueID>  (19) 
19

>  <SMILES>  (19) 
CCN(CCOCC[NH2+]c1c2ccccc2[n+](C)c2ccccc12)c1ccc(C)cc1

>  <Energy>  (19) 
90.43940078696264

>  <Genealogy>  (19) 
CCN(CCOCC[NH2+]c1c2ccccc2[n+](C)c2ccccc12)c1ccc(C)cc1 (protonated)
CCN(CCOCC[NH2+]c1c2ccccc2[n+](C)c2ccccc12)c1ccc(C)cc1 (3D coordinates assigned)
CCN(CCOCC[NH2+]c1c2ccccc2[n+](C)c2ccccc12)c1ccc(C)cc1 (optimized conformer: 90.43940078696264 kcal/mol)

>  <smiles>  (19) 
CCN(CCOCCNc1c2ccccc2[n+](C)c2ccccc12)c1ccc(C)cc1

>  <score_type>  (19) 
oracle

>  <origin>  (19) 
adg

>  <m_score__min__energy>  (19) 
-4.8399999999999999

>  <m_primary>  (19) 
energy

$$$$
19:0
     RDKit          3D

 53 55  0  0  0  0  0  0  0  0999 V2000
   63.3600   33.8500   46.0440 C   0  0  0  0  0  0  0  0  0  0  0  0
   63.7710   33.7460   47.5150 C   0  0  0  0  0  0  0  0  0  0  0  0
   63.8300   32.3500   47.9790 N   0  0  0  0  0  0  0  0  0  0  0  0
   64.1360   32.2330   49.4150 C   0  0  0  0  0  0  0  0  0  0  0  0
   63.2440   31.1640   50.0500 C   0  0  0  0  0  0  0  0  0  0  0  0
   61.7540   31.5150   49.8960 C   0  0  0  0  0  0  0  0  0  0  0  0
   61.0490   30.6290   48.8640 C   0  0  0  0  0  0  0  0  0  0  0  0
   61.1430   31.1930   47.5120 N   0  0  0  0  0  0  0  0  0  0  0  0
   60.0560   31.0460   46.5890 C   0  0  0  0  0  0  0  0  0  0  0  0
   59.7350   29.7550   46.1260 C   0  0  0  0  0  0  0  0  0  0  0  0
   60.3760   28.6120   46.6620 C   0  0  0  0  0  0  0  0  0  0  0  0
   60.0410   27.3350   46.2240 C   0  0  0  0  0  0  0  0  0  0  0  0
   59.0540   27.1650   45.2620 C   0  0  0  0  0  0  0  0  0  0  0  0
   58.4040   28.2740   44.7210 C   0  0  0  0  0  0  0  0  0  0  0  0
   58.7440   29.5910   45.1280 C   0  0  0  0  0  0  0  0  0  0  0  0
   58.1220   30.6960   44.5890 N   0  0  0  0  0  0  0  0  0  0  0  0
   57.3460   30.5690   43.3340 C   0  0  0  0  0  0  0  0  0  0  0  0
   58.2390   31.9260   45.2110 C   0  0  0  0  0  0  0  0  0  0  0  0
   57.3430   32.9770   44.8990 C   0  0  0  0  0  0  0  0  0  0  0  0
   57.4620   34.2280   45.4900 C   0  0  0  0  0  0  0  0  0  0  0  0
   58.4780   34.4730   46.3990 C   0  0  0  0  0  0  0  0  0  0  0  0
   59.3840   33.4680   46.7530 C   0  0  0  0  0  0  0  0  0  0  0  0
   60.6640   33.9760   47.9180 S   0  0  0  0  0  0  0  0  0  0  0  0
   59.5730   33.8510   49.3710 C   0  0  0  0  0  0  0  0  0  0  0  0
   59.2520   32.1520   46.1970 C   0  0  0  0  0  0  0  0  0  0  0  0
   62.2955   34.1194   45.9789 H   0  0  0  0  0  0  0  0  0  0  0  0
   63.9649   34.6234   45.5481 H   0  0  0  0  0  0  0  0  0  0  0  0
   63.5243   32.8820   45.5481 H   0  0  0  0  0  0  0  0  0  0  0  0
   64.7642   34.2025   47.6384 H   0  0  0  0  0  0  0  0  0  0  0  0
   63.0122   34.2694   48.1153 H   0  0  0  0  0  0  0  0  0  0  0  0
   64.5450   31.8170   47.4240 H   0  0  0  0  0  0  0  0  0  0  0  0
   65.1915   31.9501   49.5415 H   0  0  0  0  0  0  0  0  0  0  0  0
   63.9498   33.1997   49.9058 H   0  0  0  0  0  0  0  0  0  0  0  0
   63.4372   30.1986   49.5594 H   0  0  0  0  0  0  0  0  0  0  0  0
   63.4785   31.1092   51.1233 H   0  0  0  0  0  0  0  0  0  0  0  0
   61.2583   31.3863   50.8695 H   0  0  0  0  0  0  0  0  0  0  0  0
   61.6890   32.5555   49.5450 H   0  0  0  0  0  0  0  0  0  0  0  0
   61.5174   29.6337   48.8688 H   0  0  0  0  0  0  0  0  0  0  0  0
   59.9852   30.5643   49.1362 H   0  0  0  0  0  0  0  0  0  0  0  0
   61.8820   31.8940   47.2790 H   0  0  0  0  0  0  0  0  0  0  0  0
   61.1490   28.7355   47.4348 H   0  0  0  0  0  0  0  0  0  0  0  0
   60.5588   26.4583   46.6403 H   0  0  0  0  0  0  0  0  0  0  0  0
   58.7842   26.1530   44.9258 H   0  0  0  0  0  0  0  0  0  0  0  0
   57.6161   28.1261   43.9677 H   0  0  0  0  0  0  0  0  0  0  0  0
   56.2866   30.3956   43.5739 H   0  0  0  0  0  0  0  0  0  0  0  0
   57.4425   31.4949   42.7480 H   0  0  0  0  0  0  0  0  0  0  0  0
   57.7326   29.7222   42.7480 H   0  0  0  0  0  0  0  0  0  0  0  0
   56.5358   32.7989   44.1733 H   0  0  0  0  0  0  0  0  0  0  0  0
   56.7483   35.0256   45.2359 H   0  0  0  0  0  0  0  0  0  0  0  0
   58.5737   35.4722   46.8489 H   0  0  0  0  0  0  0  0  0  0  0  0
   60.1754   33.9200   50.2888 H   0  0  0  0  0  0  0  0  0  0  0  0
   58.8401   34.6711   49.3509 H   0  0  0  0  0  0  0  0  0  0  0  0
   59.0446   32.8864   49.3509 H   0  0  0  0  0  0  0  0  0  0  0  0
  1  2  1  0
  2  3  1  0
  3  4  1  0
  4  5  1  0
  5  6  1  0
  6  7  1  0
  7  8  1  0
  8  9  1  0
  9 10  2  0
 10 11  1  0
 11 12  2  0
 12 13  1  0
 13 14  2  0
 14 15  1  0
 15 16  2  0
 16 17  1  0
 16 18  1  0
 18 19  2  0
 19 20  1  0
 20 21  2  0
 21 22  1  0
 22 23  1  0
 23 24  1  0
 22 25  2  0
 25  9  1  0
 15 10  1  0
 25 18  1  0
  1 26  1  0
  1 27  1  0
  1 28  1  0
  2 29  1  0
  2 30  1  0
  3 31  1  0
  4 32  1  0
  4 33  1  0
  5 34  1  0
  5 35  1  0
  6 36  1  0
  6 37  1  0
  7 38  1  0
  7 39  1  0
  8 40  1  0
 11 41  1  0
 12 42  1  0
 13 43  1  0
 14 44  1  0
 17 45  1  0
 17 46  1  0
 17 47  1  0
 19 48  1  0
 20 49  1  0
 21 50  1  0
 24 51  1  0
 24 52  1  0
 24 53  1  0
M  CHG  1  16   1
M  END
>  <UniqueID>  (20) 
20

>  <SMILES>  (20) 
CCNCCCCNc1c2ccccc2[n+](C)c2cccc(SC)c12

>  <Energy>  (20) 
77.30680241685138

>  <Genealogy>  (20) 
CCNCCCCNc1c2ccccc2[n+](C)c2cccc(SC)c12 (3D coordinates assigned)
CCNCCCCNc1c2ccccc2[n+](C)c2cccc(SC)c12 (optimized conformer: 77.30680241685138 kcal/mol)

>  <smiles>  (20) 
CCNCCCCNc1c2ccccc2[n+](C)c2cccc(SC)c12

>  <score_type>  (20) 
oracle

>  <origin>  (20) 
adg

>  <m_score__min__energy>  (20) 
-6.29

>  <m_primary>  (20) 
energy

$$$$
20:0
     RDKit          3D

 56 58  0  0  0  0  0  0  0  0999 V2000
   57.1142   35.0033   44.0632 H   0  0  0  0  0  0  0  0  0  0  0  0
   57.6800   34.5080   44.8660 C   0  0  0  0  0  0  0  0  0  0  0  0
   57.0120   33.7280   45.8110 C   0  0  0  0  0  0  0  0  0  0  0  0
   55.9206   33.6061   45.7472 H   0  0  0  0  0  0  0  0  0  0  0  0
   57.7230   33.1010   46.8380 C   0  0  0  0  0  0  0  0  0  0  0  0
   57.1881   32.4862   47.5768 H   0  0  0  0  0  0  0  0  0  0  0  0
   59.1240   33.2520   46.9330 C   0  0  0  0  0  0  0  0  0  0  0  0
   59.8860   32.6350   47.9570 C   0  0  0  0  0  0  0  0  0  0  0  0
   59.2240   31.8100   48.9910 C   0  0  0  0  0  0  0  0  0  0  0  0
   58.8630   30.5980   48.6830 N   0  0  0  0  0  0  0  0  0  0  0  0
   59.6130   29.3890   49.0110 C   0  0  0  0  0  0  0  0  0  0  0  0
   58.9159   28.5956   49.3184 H   0  0  0  0  0  0  0  0  0  0  0  0
   60.3106   29.5989   49.8352 H   0  0  0  0  0  0  0  0  0  0  0  0
   60.3960   28.9330   47.7780 C   0  0  0  0  0  0  0  0  0  0  0  0
   60.1330   27.8854   47.5696 H   0  0  0  0  0  0  0  0  0  0  0  0
   61.4626   29.0643   48.0128 H   0  0  0  0  0  0  0  0  0  0  0  0
   60.1130   29.7670   46.5070 C   0  0  0  0  0  0  0  0  0  0  0  0
   60.8026   29.4211   45.7229 H   0  0  0  0  0  0  0  0  0  0  0  0
   60.2496   30.8138   46.8161 H   0  0  0  0  0  0  0  0  0  0  0  0
   58.7310   29.7050   45.9500 N   0  0  0  0  0  0  0  0  0  0  0  0
   58.1660   30.1670   46.7040 H   0  0  0  0  0  0  0  0  0  0  0  0
   58.5230   30.5680   44.7490 C   0  0  0  0  0  0  0  0  0  0  0  0
   59.2050   30.2183   43.9599 H   0  0  0  0  0  0  0  0  0  0  0  0
   58.7168   31.5977   45.0838 H   0  0  0  0  0  0  0  0  0  0  0  0
   57.0960   30.5780   44.1700 C   0  0  0  0  0  0  0  0  0  0  0  0
   56.3663   30.5831   44.9931 H   0  0  0  0  0  0  0  0  0  0  0  0
   56.9575   31.4771   43.5516 H   0  0  0  0  0  0  0  0  0  0  0  0
   56.9449   29.6809   43.5516 H   0  0  0  0  0  0  0  0  0  0  0  0
   58.1880   28.3240   45.8550 C   0  0  0  0  0  0  0  0  0  0  0  0
   58.3867   27.7993   46.8011 H   0  0  0  0  0  0  0  0  0  0  0  0
   57.1084   28.3983   45.6577 H   0  0  0  0  0  0  0  0  0  0  0  0
   58.8230   27.5300   44.7070 C   0  0  0  0  0  0  0  0  0  0  0  0
   59.4597   26.7338   45.1201 H   0  0  0  0  0  0  0  0  0  0  0  0
   58.0310   27.0824   44.0887 H   0  0  0  0  0  0  0  0  0  0  0  0
   59.4338   28.2043   44.0887 H   0  0  0  0  0  0  0  0  0  0  0  0
   59.0730   32.3570   50.3850 C   0  0  0  0  0  0  0  0  0  0  0  0
   59.2918   31.5643   51.1156 H   0  0  0  0  0  0  0  0  0  0  0  0
   59.7742   33.1922   50.5291 H   0  0  0  0  0  0  0  0  0  0  0  0
   58.0427   32.7142   50.5291 H   0  0  0  0  0  0  0  0  0  0  0  0
   61.2920   32.8130   47.9770 C   0  0  0  0  0  0  0  0  0  0  0  0
   62.1130   32.2400   48.9740 C   0  0  0  0  0  0  0  0  0  0  0  0
   61.6577   31.6389   49.7749 H   0  0  0  0  0  0  0  0  0  0  0  0
   63.5040   32.4300   48.9530 C   0  0  0  0  0  0  0  0  0  0  0  0
   64.3590   31.8420   50.0380 C   0  0  0  0  0  0  0  0  0  0  0  0
   63.9503   32.1231   51.0198 H   0  0  0  0  0  0  0  0  0  0  0  0
   64.3677   30.7460   49.9446 H   0  0  0  0  0  0  0  0  0  0  0  0
   65.3855   32.2261   49.9446 H   0  0  0  0  0  0  0  0  0  0  0  0
   64.0800   33.2260   47.9540 C   0  0  0  0  0  0  0  0  0  0  0  0
   65.1670   33.3944   47.9470 H   0  0  0  0  0  0  0  0  0  0  0  0
   63.2810   33.8060   46.9680 C   0  0  0  0  0  0  0  0  0  0  0  0
   63.7420   34.4235   46.1830 H   0  0  0  0  0  0  0  0  0  0  0  0
   61.8970   33.6060   46.9730 C   0  0  0  0  0  0  0  0  0  0  0  0
   61.1380   34.1880   46.0100 N   0  0  0  0  0  0  0  0  0  0  0  0
   59.7900   34.0370   45.9620 C   0  0  0  0  0  0  0  0  0  0  0  0
   59.0660   34.6600   44.9390 C   0  0  0  0  0  0  0  0  0  0  0  0
   59.5906   35.2714   44.1900 H   0  0  0  0  0  0  0  0  0  0  0  0
  1  2  1  0
  2  3  2  0
  3  4  1  0
  3  5  1  0
  5  6  1  0
  5  7  2  0
  7  8  1  0
  8  9  1  0
  9 10  2  0
 10 11  1  0
 11 12  1  0
 11 13  1  0
 11 14  1  0
 14 15  1  0
 14 16  1  0
 14 17  1  0
 17 18  1  0
 17 19  1  0
 17 20  1  0
 20 21  1  0
 20 22  1  0
 22 23  1  0
 22 24  1  0
 22 25  1  0
 25 26  1  0
 25 27  1  0
 25 28  1  0
 20 29  1  0
 29 30  1  0
 29 31  1  0
 29 32  1  0
 32 33  1  0
 32 34  1  0
 32 35  1  0
  9 36  1  0
 36 37  1  0
 36 38  1  0
 36 39  1  0
  8 40  2  0
 40 41  1  0
 41 42  1  0
 41 43  2  0
 43 44  1  0
 44 45  1  0
 44 46  1  0
 44 47  1  0
 43 48  1  0
 48 49  1  0
 48 50  2  0
 50 51  1  0
 50 52  1  0
 52 53  2  0
 53 54  1  0
 54 55  2  0
 55 56  1  0
 55  2  1  0
 54  7  1  0
 52 40  1  0
M  CHG  1  20   1
M  END
>  <UniqueID>  (21) 
21

>  <SMILES>  (21) 
CC[NH+](CC)CCC/N=C(\C)c1c2ccccc2nc2ccc(C)cc12

>  <Energy>  (21) 
79.31999396479894

>  <Genealogy>  (21) 
CC[NH+](CC)CCCN=C(C)c1c2ccccc2nc2ccc(C)cc12 (protonated)
CC[NH+](CC)CCC/N=C(\C)c1c2ccccc2nc2ccc(C)cc12 (cis-trans isomerization)
CC[NH+](CC)CCC/N=C(\C)c1c2ccccc2nc2ccc(C)cc12 (3D coordinates assigned)
CC[NH+](CC)CCC/N=C(\C)c1c2ccccc2nc2ccc(C)cc12 (optimized conformer: 79.31999396479894 kcal/mol)

>  <smiles>  (21) 
CCN(CC)CCCN=C(C)c1c2ccccc2nc2ccc(C)cc12

>  <score_type>  (21) 
oracle

>  <origin>  (21) 
adg

>  <m_score__min__energy>  (21) 
-6.8300000000000001

>  <m_primary>  (21) 
energy

$$$$
21:0
     RDKit          3D

 55 58  0  0  0  0  0  0  0  0999 V2000
   58.8400   34.5550   44.8610 C   0  0  0  0  0  0  0  0  0  0  0  0
   58.0930   34.4770   46.1290 N   0  0  0  0  0  0  0  0  0  0  0  0
   57.0320   33.4640   46.0070 C   0  0  0  0  0  0  0  0  0  0  0  0
   58.9880   34.1400   47.2570 C   0  0  0  0  0  0  0  0  0  0  0  0
   60.4600   34.3920   46.9090 C   0  0  0  0  0  0  0  0  0  0  0  0
   61.1320   33.1480   46.5340 N   0  0  0  0  0  0  0  0  0  0  0  0
   61.4040   32.1360   47.5150 C   0  0  0  0  0  0  0  0  0  0  0  0
   62.4770   32.2540   48.4300 C   0  0  0  0  0  0  0  0  0  0  0  0
   63.3830   33.3300   48.3430 C   0  0  0  0  0  0  0  0  0  0  0  0
   64.4490   33.4360   49.2340 C   0  0  0  0  0  0  0  0  0  0  0  0
   64.6400   32.4710   50.2170 C   0  0  0  0  0  0  0  0  0  0  0  0
   63.7570   31.3970   50.3310 C   0  0  0  0  0  0  0  0  0  0  0  0
   62.6460   31.2700   49.4630 C   0  0  0  0  0  0  0  0  0  0  0  0
   61.7430   30.2230   49.5890 N   0  0  0  0  0  0  0  0  0  0  0  0
   61.8270   29.2640   50.7070 C   0  0  0  0  0  0  0  0  0  0  0  0
   60.7730   30.0840   48.6320 C   0  0  0  0  0  0  0  0  0  0  0  0
   59.9000   29.0520   48.5120 N   0  0  0  0  0  0  0  0  0  0  0  0
   59.1780   29.3280   47.4070 C   0  0  0  0  0  0  0  0  0  0  0  0
   58.1790   28.5390   46.8490 C   0  0  0  0  0  0  0  0  0  0  0  0
   57.5770   28.9750   45.6580 C   0  0  0  0  0  0  0  0  0  0  0  0
   57.9890   30.1800   45.0220 C   0  0  0  0  0  0  0  0  0  0  0  0
   57.3710   30.6140   43.7830 N   0  0  0  0  0  0  0  0  0  0  0  0
   57.8200   31.8420   43.1150 C   0  0  0  0  0  0  0  0  0  0  0  0
   56.2890   29.8290   43.1730 C   0  0  0  0  0  0  0  0  0  0  0  0
   59.0220   30.9460   45.6180 C   0  0  0  0  0  0  0  0  0  0  0  0
   59.5760   30.5080   46.8230 C   0  0  0  0  0  0  0  0  0  0  0  0
   60.5990   31.0030   47.6160 C   0  0  0  0  0  0  0  0  0  0  0  0
   59.9133   34.6671   45.0741 H   0  0  0  0  0  0  0  0  0  0  0  0
   58.6754   33.6348   44.2813 H   0  0  0  0  0  0  0  0  0  0  0  0
   58.4888   35.4214   44.2813 H   0  0  0  0  0  0  0  0  0  0  0  0
   56.7055   33.1523   47.0101 H   0  0  0  0  0  0  0  0  0  0  0  0
   56.1786   33.8910   45.4598 H   0  0  0  0  0  0  0  0  0  0  0  0
   57.4190   32.5917   45.4598 H   0  0  0  0  0  0  0  0  0  0  0  0
   58.7160   34.7588   48.1248 H   0  0  0  0  0  0  0  0  0  0  0  0
   58.8675   33.0700   47.4820 H   0  0  0  0  0  0  0  0  0  0  0  0
   60.5145   35.0979   46.0671 H   0  0  0  0  0  0  0  0  0  0  0  0
   60.9626   34.8078   47.7947 H   0  0  0  0  0  0  0  0  0  0  0  0
   61.6470   33.1230   45.6260 H   0  0  0  0  0  0  0  0  0  0  0  0
   63.2472   34.0942   47.5635 H   0  0  0  0  0  0  0  0  0  0  0  0
   65.1425   34.2866   49.1596 H   0  0  0  0  0  0  0  0  0  0  0  0
   65.4916   32.5550   50.9081 H   0  0  0  0  0  0  0  0  0  0  0  0
   63.9268   30.6368   51.1077 H   0  0  0  0  0  0  0  0  0  0  0  0
   61.7793   29.8086   51.6616 H   0  0  0  0  0  0  0  0  0  0  0  0
   60.9874   28.5558   50.6465 H   0  0  0  0  0  0  0  0  0  0  0  0
   62.7769   28.7126   50.6465 H   0  0  0  0  0  0  0  0  0  0  0  0
   59.8150   28.1880   49.0920 H   0  0  0  0  0  0  0  0  0  0  0  0
   57.8685   27.5985   47.3276 H   0  0  0  0  0  0  0  0  0  0  0  0
   56.7725   28.3746   45.2082 H   0  0  0  0  0  0  0  0  0  0  0  0
   58.0942   32.5918   43.8717 H   0  0  0  0  0  0  0  0  0  0  0  0
   58.6946   31.6187   42.4864 H   0  0  0  0  0  0  0  0  0  0  0  0
   57.0076   32.2355   42.4864 H   0  0  0  0  0  0  0  0  0  0  0  0
   55.6705   29.3803   43.9643 H   0  0  0  0  0  0  0  0  0  0  0  0
   55.6658   30.4865   42.5490 H   0  0  0  0  0  0  0  0  0  0  0  0
   56.7207   29.0326   42.5490 H   0  0  0  0  0  0  0  0  0  0  0  0
   59.3811   31.8693   45.1399 H   0  0  0  0  0  0  0  0  0  0  0  0
  1  2  1  0
  2  3  1  0
  2  4  1  0
  4  5  1  0
  5  6  1  0
  6  7  1  0
  7  8  2  0
  8  9  1  0
  9 10  2  0
 10 11  1  0
 11 12  2  0
 12 13  1  0
 13 14  2  0
 14 15  1  0
 14 16  1  0
 16 17  1  0
 17 18  1  0
 18 19  2  0
 19 20  1  0
 20 21  2  0
 21 22  1  0
 22 23  1  0
 22 24  1  0
 21 25  1  0
 25 26  2  0
 26 27  1  0
 27  7  1  0
 13  8  1  0
 27 16  2  0
 26 18  1  0
  1 28  1  0
  1 29  1  0
  1 30  1  0
  3 31  1  0
  3 32  1  0
  3 33  1  0
  4 34  1  0
  4 35  1  0
  5 36  1  0
  5 37  1  0
  6 38  1  0
  9 39  1  0
 10 40  1  0
 11 41  1  0
 12 42  1  0
 15 43  1  0
 15 44  1  0
 15 45  1  0
 17 46  1  0
 19 47  1  0
 20 48  1  0
 23 49  1  0
 23 50  1  0
 23 51  1  0
 24 52  1  0
 24 53  1  0
 24 54  1  0
 25 55  1  0
M  CHG  1  14   1
M  END
>  <UniqueID>  (22) 
22

>  <SMILES>  (22) 
CN(C)CCNc1c2ccccc2[n+](C)c2[nH]c3ccc(N(C)C)cc3c12

>  <Energy>  (22) 
114.11335723502086

>  <Genealogy>  (22) 
CN(C)CCNc1c2ccccc2[n+](C)c2[nH]c3ccc(N(C)C)cc3c12 (3D coordinates assigned)
CN(C)CCNc1c2ccccc2[n+](C)c2[nH]c3ccc(N(C)C)cc3c12 (optimized conformer: 114.11335723502086 kcal/mol)

>  <smiles>  (22) 
CN(C)CCNc1c2ccccc2[n+](C)c2[nH]c3ccc(N(C)C)cc3c12

>  <score_type>  (22) 
oracle

>  <origin>  (22) 
adg

>  <m_score__min__energy>  (22) 
-5.79

>  <m_primary>  (22) 
energy

$$$$
22:0
     RDKit          3D

 27 27  0  0  0  0  0  0  0  0999 V2000
   59.9220   28.0210   45.7250 C   0  0  0  0  0  0  0  0  0  0  0  0
   58.8770   28.1830   46.8290 C   0  0  0  0  0  0  0  0  0  0  0  0
   57.6530   27.2700   46.6410 C   0  0  0  0  0  0  0  0  0  0  0  0
   57.0260   27.3670   45.2450 C   0  0  0  0  0  0  0  0  0  0  0  0
   55.9820   28.3820   45.2260 N   0  0  0  0  0  0  0  0  0  0  0  0
   56.1440   29.6530   44.5920 C   0  0  0  0  0  0  0  0  0  0  0  0
   55.1490   30.4030   44.4010 O   0  0  0  0  0  0  0  0  0  0  0  0
   57.4970   30.0730   44.1170 C   0  0  0  0  0  0  0  0  0  0  0  0
   57.8200   31.4410   44.6340 C   0  0  0  0  0  0  0  0  0  0  0  0
   58.1280   31.7020   45.9780 C   0  0  0  0  0  0  0  0  0  0  0  0
   58.3450   33.0460   46.2470 C   0  0  0  0  0  0  0  0  0  0  0  0
   58.1360   33.9030   44.8160 S   0  0  0  0  0  0  0  0  0  0  0  0
   57.7750   32.5840   43.8420 C   0  0  0  0  0  0  0  0  0  0  0  0
   60.9127   27.8674   46.1776 H   0  0  0  0  0  0  0  0  0  0  0  0
   59.6650   27.1520   45.1015 H   0  0  0  0  0  0  0  0  0  0  0  0
   59.9402   28.9271   45.1015 H   0  0  0  0  0  0  0  0  0  0  0  0
   59.3474   27.9434   47.7940 H   0  0  0  0  0  0  0  0  0  0  0  0
   58.5193   29.2225   46.7916 H   0  0  0  0  0  0  0  0  0  0  0  0
   57.9657   26.2291   46.8106 H   0  0  0  0  0  0  0  0  0  0  0  0
   56.8901   27.5992   47.3618 H   0  0  0  0  0  0  0  0  0  0  0  0
   57.8049   27.6347   44.5158 H   0  0  0  0  0  0  0  0  0  0  0  0
   56.5825   26.3945   44.9851 H   0  0  0  0  0  0  0  0  0  0  0  0
   58.2493   29.3585   44.4825 H   0  0  0  0  0  0  0  0  0  0  0  0
   57.5036   30.0920   43.0172 H   0  0  0  0  0  0  0  0  0  0  0  0
   58.1914   30.9162   46.7451 H   0  0  0  0  0  0  0  0  0  0  0  0
   58.6077   33.4753   47.2251 H   0  0  0  0  0  0  0  0  0  0  0  0
   57.5437   32.6176   42.7671 H   0  0  0  0  0  0  0  0  0  0  0  0
  1  2  1  0
  2  3  1  0
  3  4  1  0
  4  5  1  0
  5  6  1  0
  6  7  2  0
  6  8  1  0
  8  9  1  0
  9 10  1  0
 10 11  2  0
 11 12  1  0
 12 13  1  0
 13  9  2  0
  1 14  1  0
  1 15  1  0
  1 16  1  0
  2 17  1  0
  2 18  1  0
  3 19  1  0
  3 20  1  0
  4 21  1  0
  4 22  1  0
  8 23  1  0
  8 24  1  0
 10 25  1  0
 11 26  1  0
 13 27  1  0
M  CHG  1   5  -1
M  END
>  <UniqueID>  (23) 
23

>  <SMILES>  (23) 
CCCC[N-]C(=O)Cc1ccsc1

>  <Energy>  (23) 
40.04156746368427

>  <Genealogy>  (23) 
CCCC[N-]C(=O)Cc1ccsc1 (protonated)
CCCC[N-]C(=O)Cc1ccsc1 (3D coordinates assigned)
CCCC[N-]C(=O)Cc1ccsc1 (optimized conformer: 40.04156746368427 kcal/mol)

>  <smiles>  (23) 
CCCCNC(=O)Cc1ccsc1

>  <score_type>  (23) 
oracle

>  <origin>  (23) 
adg

>  <m_score__min__energy>  (23) 
-6.9699999999999998

>  <m_primary>  (23) 
energy

$$$$
23:0
     RDKit          3D

 42 43  0  0  0  0  0  0  0  0999 V2000
   58.8870   25.7870   45.6610 C   0  0  0  0  0  0  0  0  0  0  0  0
   58.6490   27.2430   45.3840 C   0  0  0  0  0  0  0  0  0  0  0  0
   59.3290   28.2160   46.1200 C   0  0  0  0  0  0  0  0  0  0  0  0
   59.1620   29.5800   45.8400 C   0  0  0  0  0  0  0  0  0  0  0  0
   59.8680   30.5840   46.7200 C   0  0  0  0  0  0  0  0  0  0  0  0
   58.2910   29.9850   44.7910 C   0  0  0  0  0  0  0  0  0  0  0  0
   58.1540   31.4590   44.4530 C   0  0  0  0  0  0  0  0  0  0  0  0
   56.8740   31.9900   44.9600 N   0  0  0  0  0  0  0  0  0  0  0  0
   57.0380   33.0960   45.9210 C   0  0  0  0  0  0  0  0  0  0  0  0
   57.2810   34.4330   45.2040 C   0  0  0  0  0  0  0  0  0  0  0  0
   58.7610   34.6910   44.8920 C   0  0  0  0  0  0  0  0  0  0  0  0
   59.6080   34.4100   46.0470 N   0  0  0  0  0  0  0  0  0  0  0  0
   60.8050   33.7940   46.0170 C   0  0  0  0  0  0  0  0  0  0  0  0
   61.3080   33.7850   47.2970 C   0  0  0  0  0  0  0  0  0  0  0  0
   62.9840   33.0850   47.8750 Br  0  0  0  0  0  0  0  0  0  0  0  0
   60.3530   34.4140   48.0700 C   0  0  0  0  0  0  0  0  0  0  0  0
   59.3230   34.7890   47.2840 N   0  0  0  0  0  0  0  0  0  0  0  0
   57.5840   28.9900   44.0590 C   0  0  0  0  0  0  0  0  0  0  0  0
   56.5860   29.3440   42.9850 C   0  0  0  0  0  0  0  0  0  0  0  0
   57.7890   27.6330   44.3560 C   0  0  0  0  0  0  0  0  0  0  0  0
   58.9143   25.6202   46.7479 H   0  0  0  0  0  0  0  0  0  0  0  0
   58.0742   25.1920   45.2190 H   0  0  0  0  0  0  0  0  0  0  0  0
   59.8470   25.4818   45.2190 H   0  0  0  0  0  0  0  0  0  0  0  0
   60.0053   27.9080   46.9310 H   0  0  0  0  0  0  0  0  0  0  0  0
   59.6918   30.3334   47.7765 H   0  0  0  0  0  0  0  0  0  0  0  0
   60.9479   30.5583   46.5122 H   0  0  0  0  0  0  0  0  0  0  0  0
   59.4785   31.5915   46.5122 H   0  0  0  0  0  0  0  0  0  0  0  0
   58.9840   32.0145   44.9139 H   0  0  0  0  0  0  0  0  0  0  0  0
   58.1791   31.5765   43.3596 H   0  0  0  0  0  0  0  0  0  0  0  0
   56.3420   32.3640   44.1390 H   0  0  0  0  0  0  0  0  0  0  0  0
   56.1262   33.1779   46.5308 H   0  0  0  0  0  0  0  0  0  0  0  0
   57.9125   32.8785   46.5518 H   0  0  0  0  0  0  0  0  0  0  0  0
   56.7197   34.4295   44.2580 H   0  0  0  0  0  0  0  0  0  0  0  0
   56.9452   35.2327   45.8806 H   0  0  0  0  0  0  0  0  0  0  0  0
   59.0685   34.0438   44.0574 H   0  0  0  0  0  0  0  0  0  0  0  0
   58.8782   35.7524   44.6281 H   0  0  0  0  0  0  0  0  0  0  0  0
   61.2940   33.3726   45.1263 H   0  0  0  0  0  0  0  0  0  0  0  0
   60.4211   34.5827   49.1549 H   0  0  0  0  0  0  0  0  0  0  0  0
   55.6474   29.6769   43.4520 H   0  0  0  0  0  0  0  0  0  0  0  0
   56.9916   30.1531   42.3598 H   0  0  0  0  0  0  0  0  0  0  0  0
   56.3911   28.4601   42.3598 H   0  0  0  0  0  0  0  0  0  0  0  0
   57.2636   26.8651   43.7693 H   0  0  0  0  0  0  0  0  0  0  0  0
  1  2  1  0
  2  3  2  0
  3  4  1  0
  4  5  1  0
  4  6  2  0
  6  7  1  0
  7  8  1  0
  8  9  1  0
  9 10  1  0
 10 11  1  0
 11 12  1  0
 12 13  1  0
 13 14  2  0
 14 15  1  0
 14 16  1  0
 16 17  2  0
  6 18  1  0
 18 19  1  0
 18 20  2  0
 20  2  1  0
 17 12  1  0
  1 21  1  0
  1 22  1  0
  1 23  1  0
  3 24  1  0
  5 25  1  0
  5 26  1  0
  5 27  1  0
  7 28  1  0
  7 29  1  0
  8 30  1  0
  9 31  1  0
  9 32  1  0
 10 33  1  0
 10 34  1  0
 11 35  1  0
 11 36  1  0
 13 37  1  0
 16 38  1  0
 19 39  1  0
 19 40  1  0
 19 41  1  0
 20 42  1  0
M  END
>  <UniqueID>  (24) 
24

>  <SMILES>  (24) 
Cc1cc(C)c(CNCCCn2cc(Br)cn2)c(C)c1

>  <Energy>  (24) 
67.08361541353764

>  <Genealogy>  (24) 
Cc1cc(C)c(CNCCCn2cc(Br)cn2)c(C)c1 (3D coordinates assigned)
Cc1cc(C)c(CNCCCn2cc(Br)cn2)c(C)c1 (optimized conformer: 67.08361541353764 kcal/mol)

>  <smiles>  (24) 
Cc1cc(C)c(CNCCCn2cc(Br)cn2)c(C)c1

>  <score_type>  (24) 
oracle

>  <origin>  (24) 
adg

>  <m_score__min__energy>  (24) 
-7.6799999999999997

>  <m_primary>  (24) 
energy

$$$$
24:0
     RDKit          3D

 74 77  0  0  0  0  0  0  0  0999 V2000
   58.1370   32.7020   47.7950 C   0  0  0  0  0  0  0  0  0  0  0  0
   57.7590   33.8520   46.8650 C   0  0  0  0  0  0  0  0  0  0  0  0
   57.4360   33.3330   45.5150 N   0  0  0  0  0  0  0  0  0  0  0  0
   58.3560   33.8890   44.4940 C   0  0  0  0  0  0  0  0  0  0  0  0
   59.2550   34.9570   45.1120 C   0  0  0  0  0  0  0  0  0  0  0  0
   57.4490   31.8520   45.4920 C   0  0  0  0  0  0  0  0  0  0  0  0
   57.7790   31.3250   44.0900 C   0  0  0  0  0  0  0  0  0  0  0  0
   58.6880   30.1800   44.1520 N   0  0  0  0  0  0  0  0  0  0  0  0
   59.0400   29.5800   45.4050 C   0  0  0  0  0  0  0  0  0  0  0  0
   58.5100   28.3350   45.8150 C   0  0  0  0  0  0  0  0  0  0  0  0
   57.5440   27.6730   45.0330 C   0  0  0  0  0  0  0  0  0  0  0  0
   56.9770   26.4770   45.4680 C   0  0  0  0  0  0  0  0  0  0  0  0
   57.3450   25.9330   46.6950 C   0  0  0  0  0  0  0  0  0  0  0  0
   58.3020   26.5650   47.4910 C   0  0  0  0  0  0  0  0  0  0  0  0
   58.9320   27.7580   47.0630 C   0  0  0  0  0  0  0  0  0  0  0  0
   59.9110   28.3820   47.8280 N   0  0  0  0  0  0  0  0  0  0  0  0
   60.5640   27.7050   48.9600 C   0  0  0  0  0  0  0  0  0  0  0  0
   60.3130   29.6390   47.4540 C   0  0  0  0  0  0  0  0  0  0  0  0
   59.9220   30.2150   46.2660 C   0  0  0  0  0  0  0  0  0  0  0  0
   60.4950   31.3850   46.0900 O   0  0  0  0  0  0  0  0  0  0  0  0
   61.2370   31.6150   47.1520 C   0  0  0  0  0  0  0  0  0  0  0  0
   62.0010   32.7540   47.4040 C   0  0  0  0  0  0  0  0  0  0  0  0
   62.1050   33.8540   46.3910 C   0  0  0  0  0  0  0  0  0  0  0  0
   62.7130   32.8110   48.6190 C   0  0  0  0  0  0  0  0  0  0  0  0
   62.6080   31.7610   49.5720 C   0  0  0  0  0  0  0  0  0  0  0  0
   63.2770   31.8070   50.8040 O   0  0  0  0  0  0  0  0  0  0  0  0
   63.3050   32.9460   51.6620 C   0  0  0  0  0  0  0  0  0  0  0  0
   64.4930   33.8430   51.2670 C   0  0  0  0  0  0  0  0  0  0  0  0
   65.8430   33.2170   51.4200 N   0  0  0  0  0  0  0  0  0  0  0  0
   66.7730   34.2570   51.9230 C   0  0  0  0  0  0  0  0  0  0  0  0
   65.8150   32.1050   52.4000 C   0  0  0  0  0  0  0  0  0  0  0  0
   66.3570   32.7230   50.1200 C   0  0  0  0  0  0  0  0  0  0  0  0
   61.8120   30.6360   49.2890 C   0  0  0  0  0  0  0  0  0  0  0  0
   61.1620   30.5690   48.0510 C   0  0  0  0  0  0  0  0  0  0  0  0
   58.0305   33.0260   48.8408 H   0  0  0  0  0  0  0  0  0  0  0  0
   57.4732   31.8452   47.6072 H   0  0  0  0  0  0  0  0  0  0  0  0
   59.1797   32.4061   47.6072 H   0  0  0  0  0  0  0  0  0  0  0  0
   56.8816   34.3756   47.2726 H   0  0  0  0  0  0  0  0  0  0  0  0
   58.6087   34.5464   46.7889 H   0  0  0  0  0  0  0  0  0  0  0  0
   58.9809   33.0790   44.0898 H   0  0  0  0  0  0  0  0  0  0  0  0
   57.7613   34.3456   43.6891 H   0  0  0  0  0  0  0  0  0  0  0  0
   59.2006   34.8923   46.2087 H   0  0  0  0  0  0  0  0  0  0  0  0
   60.2932   34.7957   44.7863 H   0  0  0  0  0  0  0  0  0  0  0  0
   58.9190   35.9525   44.7863 H   0  0  0  0  0  0  0  0  0  0  0  0
   58.2078   31.4882   46.2005 H   0  0  0  0  0  0  0  0  0  0  0  0
   56.4501   31.4892   45.7757 H   0  0  0  0  0  0  0  0  0  0  0  0
   56.8466   31.0158   43.5949 H   0  0  0  0  0  0  0  0  0  0  0  0
   58.2722   32.1292   43.5243 H   0  0  0  0  0  0  0  0  0  0  0  0
   58.9840   29.6960   43.2740 H   0  0  0  0  0  0  0  0  0  0  0  0
   57.2341   28.1042   44.0696 H   0  0  0  0  0  0  0  0  0  0  0  0
   56.2361   25.9610   44.8396 H   0  0  0  0  0  0  0  0  0  0  0  0
   56.8785   24.9985   47.0400 H   0  0  0  0  0  0  0  0  0  0  0  0
   58.5703   26.1296   48.4649 H   0  0  0  0  0  0  0  0  0  0  0  0
   60.1729   28.1105   49.9048 H   0  0  0  0  0  0  0  0  0  0  0  0
   60.3571   26.6258   48.9106 H   0  0  0  0  0  0  0  0  0  0  0  0
   61.6500   27.8728   48.9106 H   0  0  0  0  0  0  0  0  0  0  0  0
   62.1964   34.8208   46.9076 H   0  0  0  0  0  0  0  0  0  0  0  0
   62.9916   33.6897   45.7610 H   0  0  0  0  0  0  0  0  0  0  0  0
   61.2033   33.8587   45.7610 H   0  0  0  0  0  0  0  0  0  0  0  0
   63.3568   33.6770   48.8323 H   0  0  0  0  0  0  0  0  0  0  0  0
   62.3664   33.5099   51.5570 H   0  0  0  0  0  0  0  0  0  0  0  0
   63.4163   32.6211   52.7070 H   0  0  0  0  0  0  0  0  0  0  0  0
   64.3679   34.1282   50.2120 H   0  0  0  0  0  0  0  0  0  0  0  0
   64.4730   34.6978   51.9590 H   0  0  0  0  0  0  0  0  0  0  0  0
   66.7685   34.2519   53.0230 H   0  0  0  0  0  0  0  0  0  0  0  0
   67.7897   34.0465   51.5595 H   0  0  0  0  0  0  0  0  0  0  0  0
   66.4507   35.2439   51.5595 H   0  0  0  0  0  0  0  0  0  0  0  0
   65.8253   32.5153   53.4206 H   0  0  0  0  0  0  0  0  0  0  0  0
   64.9016   31.5099   52.2533 H   0  0  0  0  0  0  0  0  0  0  0  0
   66.6973   31.4647   52.2533 H   0  0  0  0  0  0  0  0  0  0  0  0
   67.1397   31.9707   50.2972 H   0  0  0  0  0  0  0  0  0  0  0  0
   65.5339   32.2683   49.5492 H   0  0  0  0  0  0  0  0  0  0  0  0
   66.7787   33.5634   49.5492 H   0  0  0  0  0  0  0  0  0  0  0  0
   61.7027   29.8260   50.0252 H   0  0  0  0  0  0  0  0  0  0  0  0
  1  2  1  0
  2  3  1  0
  3  4  1  0
  4  5  1  0
  3  6  1  0
  6  7  1  0
  7  8  1  0
  8  9  1  0
  9 10  2  0
 10 11  1  0
 11 12  2  0
 12 13  1  0
 13 14  2  0
 14 15  1  0
 15 16  2  0
 16 17  1  0
 16 18  1  0
 18 19  2  0
 19 20  1  0
 20 21  1  0
 21 22  2  0
 22 23  1  0
 22 24  1  0
 24 25  2  0
 25 26  1  0
 26 27  1  0
 27 28  1  0
 28 29  1  0
 29 30  1  0
 29 31  1  0
 29 32  1  0
 25 33  1  0
 33 34  2  0
 19  9  1  0
 34 21  1  0
 15 10  1  0
 34 18  1  0
  1 35  1  0
  1 36  1  0
  1 37  1  0
  2 38  1  0
  2 39  1  0
  4 40  1  0
  4 41  1  0
  5 42  1  0
  5 43  1  0
  5 44  1  0
  6 45  1  0
  6 46  1  0
  7 47  1  0
  7 48  1  0
  8 49  1  0
 11 50  1  0
 12 51  1  0
 13 52  1  0
 14 53  1  0
 17 54  1  0
 17 55  1  0
 17 56  1  0
 23 57  1  0
 23 58  1  0
 23 59  1  0
 24 60  1  0
 27 61  1  0
 27 62  1  0
 28 63  1  0
 28 64  1  0
 30 65  1  0
 30 66  1  0
 30 67  1  0
 31 68  1  0
 31 69  1  0
 31 70  1  0
 32 71  1  0
 32 72  1  0
 32 73  1  0
 33 74  1  0
M  CHG  2  16   1  29   1
M  END
>  <UniqueID>  (25) 
25

>  <SMILES>  (25) 
CCN(CC)CCNc1c2ccccc2[n+](C)c2c1oc1c(C)cc(OCC[N+](C)(C)C)cc12

>  <Energy>  (25) 
137.46846667420238

>  <Genealogy>  (25) 
CCN(CC)CCNc1c2ccccc2[n+](C)c2c1oc1c(C)cc(OCC[N+](C)(C)C)cc12 (3D coordinates assigned)
CCN(CC)CCNc1c2ccccc2[n+](C)c2c1oc1c(C)cc(OCC[N+](C)(C)C)cc12 (optimized conformer: 137.46846667420238 kcal/mol)

>  <smiles>  (25) 
CCN(CC)CCNc1c2ccccc2[n+](C)c2c1oc1c(C)cc(OCC[N+](C)(C)C)cc12

>  <score_type>  (25) 
oracle

>  <origin>  (25) 
adg

>  <m_score__min__energy>  (25) 
-4.9500000000000002

>  <m_primary>  (25) 
energy

$$$$
25:0
     RDKit          3D

 76 80  0  0  0  0  0  0  0  0999 V2000
   65.4590   32.6790   49.8580 C   0  0  0  0  0  0  0  0  0  0  0  0
   64.2070   33.4230   50.3080 C   0  0  0  0  0  0  0  0  0  0  0  0
   63.1630   33.3210   49.2620 N   0  0  0  0  0  0  0  0  0  0  0  0
   62.1310   34.3800   49.3880 C   0  0  0  0  0  0  0  0  0  0  0  0
   60.7320   33.8630   49.7600 C   0  0  0  0  0  0  0  0  0  0  0  0
   63.7380   33.1650   47.9070 C   0  0  0  0  0  0  0  0  0  0  0  0
   63.0490   32.0410   47.1210 C   0  0  0  0  0  0  0  0  0  0  0  0
   61.7940   31.6720   47.7700 N   0  0  0  0  0  0  0  0  0  0  0  0
   60.5900   31.4440   47.0200 C   0  0  0  0  0  0  0  0  0  0  0  0
   59.9020   32.4920   46.3630 C   0  0  0  0  0  0  0  0  0  0  0  0
   60.4070   33.8060   46.3740 C   0  0  0  0  0  0  0  0  0  0  0  0
   59.7040   34.8430   45.7660 C   0  0  0  0  0  0  0  0  0  0  0  0
   58.4860   34.5920   45.1430 C   0  0  0  0  0  0  0  0  0  0  0  0
   57.9720   33.2960   45.0920 C   0  0  0  0  0  0  0  0  0  0  0  0
   58.6790   32.2090   45.6610 C   0  0  0  0  0  0  0  0  0  0  0  0
   58.2090   30.9050   45.5680 N   0  0  0  0  0  0  0  0  0  0  0  0
   57.1200   30.5330   44.6490 C   0  0  0  0  0  0  0  0  0  0  0  0
   58.8400   29.9420   46.3120 C   0  0  0  0  0  0  0  0  0  0  0  0
   60.0100   30.1840   46.9950 C   0  0  0  0  0  0  0  0  0  0  0  0
   60.4380   29.1010   47.6090 O   0  0  0  0  0  0  0  0  0  0  0  0
   59.5650   28.1510   47.3610 C   0  0  0  0  0  0  0  0  0  0  0  0
   59.6040   26.8430   47.8330 C   0  0  0  0  0  0  0  0  0  0  0  0
   58.5400   25.9880   47.5060 C   0  0  0  0  0  0  0  0  0  0  0  0
   57.4430   26.4600   46.7360 C   0  0  0  0  0  0  0  0  0  0  0  0
   56.3480   25.6450   46.4170 O   0  0  0  0  0  0  0  0  0  0  0  0
   56.1360   24.3360   46.9350 C   0  0  0  0  0  0  0  0  0  0  0  0
   57.0720   23.3090   46.2610 C   0  0  0  0  0  0  0  0  0  0  0  0
   56.5040   22.5590   45.0910 N   0  0  0  0  0  0  0  0  0  0  0  0
   55.1630   22.0150   45.4480 C   0  0  0  0  0  0  0  0  0  0  0  0
   57.4300   21.4570   44.6690 C   0  0  0  0  0  0  0  0  0  0  0  0
   57.3950   21.1680   43.1540 C   0  0  0  0  0  0  0  0  0  0  0  0
   56.1310   21.4790   42.6160 O   0  0  0  0  0  0  0  0  0  0  0  0
   55.9330   22.8800   42.6370 C   0  0  0  0  0  0  0  0  0  0  0  0
   56.3510   23.5400   43.9780 C   0  0  0  0  0  0  0  0  0  0  0  0
   57.4340   27.7910   46.2740 C   0  0  0  0  0  0  0  0  0  0  0  0
   58.5300   28.6090   46.5700 C   0  0  0  0  0  0  0  0  0  0  0  0
   66.0234   32.3436   50.7406 H   0  0  0  0  0  0  0  0  0  0  0  0
   65.1697   31.8061   49.2543 H   0  0  0  0  0  0  0  0  0  0  0  0
   66.0874   33.3503   49.2543 H   0  0  0  0  0  0  0  0  0  0  0  0
   63.8334   32.9785   51.2422 H   0  0  0  0  0  0  0  0  0  0  0  0
   64.4528   34.4820   50.4755 H   0  0  0  0  0  0  0  0  0  0  0  0
   62.4554   35.0854   50.1672 H   0  0  0  0  0  0  0  0  0  0  0  0
   62.0391   34.8480   48.3968 H   0  0  0  0  0  0  0  0  0  0  0  0
   60.6337   33.8267   50.8550 H   0  0  0  0  0  0  0  0  0  0  0  0
   59.9692   34.5386   49.3456 H   0  0  0  0  0  0  0  0  0  0  0  0
   60.5919   32.8537   49.3456 H   0  0  0  0  0  0  0  0  0  0  0  0
   63.6160   34.1101   47.3576 H   0  0  0  0  0  0  0  0  0  0  0  0
   64.8013   32.9045   48.0148 H   0  0  0  0  0  0  0  0  0  0  0  0
   62.8415   32.3869   46.0976 H   0  0  0  0  0  0  0  0  0  0  0  0
   63.7113   31.1632   47.0921 H   0  0  0  0  0  0  0  0  0  0  0  0
   61.7370   31.7590   48.8110 H   0  0  0  0  0  0  0  0  0  0  0  0
   61.3671   34.0158   46.8681 H   0  0  0  0  0  0  0  0  0  0  0  0
   60.1133   35.8639   45.7785 H   0  0  0  0  0  0  0  0  0  0  0  0
   57.9243   35.4208   44.6875 H   0  0  0  0  0  0  0  0  0  0  0  0
   57.0034   33.1159   44.6027 H   0  0  0  0  0  0  0  0  0  0  0  0
   56.2364   30.2312   45.2306 H   0  0  0  0  0  0  0  0  0  0  0  0
   56.8647   31.3949   44.0150 H   0  0  0  0  0  0  0  0  0  0  0  0
   57.4454   29.6951   44.0150 H   0  0  0  0  0  0  0  0  0  0  0  0
   60.4458   26.4884   48.4459 H   0  0  0  0  0  0  0  0  0  0  0  0
   58.5555   24.9429   47.8490 H   0  0  0  0  0  0  0  0  0  0  0  0
   56.3313   24.3428   48.0175 H   0  0  0  0  0  0  0  0  0  0  0  0
   55.0952   24.0451   46.7298 H   0  0  0  0  0  0  0  0  0  0  0  0
   57.9651   23.8480   45.9120 H   0  0  0  0  0  0  0  0  0  0  0  0
   57.2725   22.5470   47.0285 H   0  0  0  0  0  0  0  0  0  0  0  0
   55.0633   21.9746   46.5427 H   0  0  0  0  0  0  0  0  0  0  0  0
   54.3804   22.6668   45.0324 H   0  0  0  0  0  0  0  0  0  0  0  0
   55.0556   21.0022   45.0324 H   0  0  0  0  0  0  0  0  0  0  0  0
   58.4564   21.7400   44.9455 H   0  0  0  0  0  0  0  0  0  0  0  0
   57.0967   20.5417   45.1801 H   0  0  0  0  0  0  0  0  0  0  0  0
   58.1607   21.7780   42.6524 H   0  0  0  0  0  0  0  0  0  0  0  0
   57.5935   20.0980   42.9938 H   0  0  0  0  0  0  0  0  0  0  0  0
   56.5271   23.3286   41.8272 H   0  0  0  0  0  0  0  0  0  0  0  0
   54.8551   23.0582   42.5087 H   0  0  0  0  0  0  0  0  0  0  0  0
   57.3120   24.0544   43.8303 H   0  0  0  0  0  0  0  0  0  0  0  0
   55.5498   24.2375   44.2637 H   0  0  0  0  0  0  0  0  0  0  0  0
   56.5840   28.1786   45.6933 H   0  0  0  0  0  0  0  0  0  0  0  0
  1  2  1  0
  2  3  1  0
  3  4  1  0
  4  5  1  0
  3  6  1  0
  6  7  1  0
  7  8  1  0
  8  9  1  0
  9 10  2  0
 10 11  1  0
 11 12  2  0
 12 13  1  0
 13 14  2  0
 14 15  1  0
 15 16  2  0
 16 17  1  0
 16 18  1  0
 18 19  2  0
 19 20  1  0
 20 21  1  0
 21 22  2  0
 22 23  1  0
 23 24  2  0
 24 25  1  0
 25 26  1  0
 26 27  1  0
 27 28  1  0
 28 29  1  0
 28 30  1  0
 30 31  1  0
 31 32  1  0
 32 33  1  0
 33 34  1  0
 24 35  1  0
 35 36  2  0
 19  9  1  0
 36 21  1  0
 15 10  1  0
 36 18  1  0
 34 28  1  0
  1 37  1  0
  1 38  1  0
  1 39  1  0
  2 40  1  0
  2 41  1  0
  4 42  1  0
  4 43  1  0
  5 44  1  0
  5 45  1  0
  5 46  1  0
  6 47  1  0
  6 48  1  0
  7 49  1  0
  7 50  1  0
  8 51  1  0
 11 52  1  0
 12 53  1  0
 13 54  1  0
 14 55  1  0
 17 56  1  0
 17 57  1  0
 17 58  1  0
 22 59  1  0
 23 60  1  0
 26 61  1  0
 26 62  1  0
 27 63  1  0
 27 64  1  0
 29 65  1  0
 29 66  1  0
 29 67  1  0
 30 68  1  0
 30 69  1  0
 31 70  1  0
 31 71  1  0
 33 72  1  0
 33 73  1  0
 34 74  1  0
 34 75  1  0
 35 76  1  0
M  CHG  2  16   1  28   1
M  END
>  <UniqueID>  (26) 
26

>  <SMILES>  (26) 
CCN(CC)CCNc1c2ccccc2[n+](C)c2c1oc1ccc(OCC[N+]3(C)CCOCC3)cc12

>  <Energy>  (26) 
161.05787446874263

>  <Genealogy>  (26) 
CCN(CC)CCNc1c2ccccc2[n+](C)c2c1oc1ccc(OCC[N+]3(C)CCOCC3)cc12 (3D coordinates assigned)
CCN(CC)CCNc1c2ccccc2[n+](C)c2c1oc1ccc(OCC[N+]3(C)CCOCC3)cc12 (nonaromatic ring conformer: 161.05787446874263 kcal/mol)

>  <smiles>  (26) 
CCN(CC)CCNc1c2ccccc2[n+](C)c2c1oc1ccc(OCC[N+]3(C)CCOCC3)cc12

>  <score_type>  (26) 
oracle

>  <origin>  (26) 
adg

>  <m_score__min__energy>  (26) 
-5.5800000000000001

>  <m_primary>  (26) 
energy

$$$$
26:0
     RDKit          3D

 60 63  0  0  0  0  0  0  0  0999 V2000
   56.9920   31.5770   52.0080 C   0  0  0  0  0  0  0  0  0  0  0  0
   58.2340   31.7680   51.1290 C   0  0  0  0  0  0  0  0  0  0  0  0
   59.4650   32.0580   51.9110 N   0  0  0  0  0  0  0  0  0  0  0  0
   60.1950   33.2710   51.4400 C   0  0  0  0  0  0  0  0  0  0  0  0
   59.7190   33.8440   50.0940 C   0  0  0  0  0  0  0  0  0  0  0  0
   60.3300   30.8450   51.9650 C   0  0  0  0  0  0  0  0  0  0  0  0
   60.0180   29.8130   50.8620 C   0  0  0  0  0  0  0  0  0  0  0  0
   61.1320   29.6720   49.9230 N   0  0  0  0  0  0  0  0  0  0  0  0
   61.5690   30.7930   49.1430 C   0  0  0  0  0  0  0  0  0  0  0  0
   60.7540   31.2860   48.1150 C   0  0  0  0  0  0  0  0  0  0  0  0
   61.1630   32.4210   47.3900 C   0  0  0  0  0  0  0  0  0  0  0  0
   62.4590   32.8830   47.5110 N   0  0  0  0  0  0  0  0  0  0  0  0
   63.0560   33.7180   46.4470 C   0  0  0  0  0  0  0  0  0  0  0  0
   63.2380   32.4770   48.5770 C   0  0  0  0  0  0  0  0  0  0  0  0
   64.4810   33.0920   48.8690 C   0  0  0  0  0  0  0  0  0  0  0  0
   65.2590   32.6750   49.9550 C   0  0  0  0  0  0  0  0  0  0  0  0
   66.5100   33.3110   50.2300 N   0  0  0  0  0  0  0  0  0  0  0  0
   64.8040   31.6430   50.7750 C   0  0  0  0  0  0  0  0  0  0  0  0
   63.5830   31.0260   50.5180 C   0  0  0  0  0  0  0  0  0  0  0  0
   62.7920   31.4260   49.4220 C   0  0  0  0  0  0  0  0  0  0  0  0
   60.1430   33.0460   46.4870 C   0  0  0  0  0  0  0  0  0  0  0  0
   60.1020   34.4390   46.2870 C   0  0  0  0  0  0  0  0  0  0  0  0
   59.1240   34.9920   45.4640 C   0  0  0  0  0  0  0  0  0  0  0  0
   58.1710   34.1690   44.8730 C   0  0  0  0  0  0  0  0  0  0  0  0
   58.1820   32.8030   45.1490 C   0  0  0  0  0  0  0  0  0  0  0  0
   59.1300   32.2680   45.9770 N   0  0  0  0  0  0  0  0  0  0  0  0
   59.0690   30.8410   46.3210 C   0  0  0  0  0  0  0  0  0  0  0  0
   59.4220   30.6400   47.7990 C   0  0  0  0  0  0  0  0  0  0  0  0
   57.2826   31.6217   53.0680 H   0  0  0  0  0  0  0  0  0  0  0  0
   56.2647   32.3739   51.7933 H   0  0  0  0  0  0  0  0  0  0  0  0
   56.5378   30.5984   51.7933 H   0  0  0  0  0  0  0  0  0  0  0  0
   58.3968   30.8477   50.5489 H   0  0  0  0  0  0  0  0  0  0  0  0
   58.0458   32.6366   50.4808 H   0  0  0  0  0  0  0  0  0  0  0  0
   59.1460   32.2640   52.8870 H   0  0  0  0  0  0  0  0  0  0  0  0
   60.0792   34.0549   52.2030 H   0  0  0  0  0  0  0  0  0  0  0  0
   61.2378   32.9571   51.2850 H   0  0  0  0  0  0  0  0  0  0  0  0
   59.0257   34.6786   50.2754 H   0  0  0  0  0  0  0  0  0  0  0  0
   60.5863   34.2055   49.5221 H   0  0  0  0  0  0  0  0  0  0  0  0
   59.2046   33.0577   49.5221 H   0  0  0  0  0  0  0  0  0  0  0  0
   61.3784   31.1608   51.8590 H   0  0  0  0  0  0  0  0  0  0  0  0
   60.1359   30.3537   52.9299 H   0  0  0  0  0  0  0  0  0  0  0  0
   59.8215   28.8377   51.3313 H   0  0  0  0  0  0  0  0  0  0  0  0
   59.1391   30.1645   50.3017 H   0  0  0  0  0  0  0  0  0  0  0  0
   61.7000   28.7950   49.8900 H   0  0  0  0  0  0  0  0  0  0  0  0
   63.6382   34.5322   46.9032 H   0  0  0  0  0  0  0  0  0  0  0  0
   63.7176   33.0991   45.8231 H   0  0  0  0  0  0  0  0  0  0  0  0
   62.2564   34.1439   45.8231 H   0  0  0  0  0  0  0  0  0  0  0  0
   64.8409   33.9121   48.2303 H   0  0  0  0  0  0  0  0  0  0  0  0
   66.6110   33.9680   51.0350 H   0  0  0  0  0  0  0  0  0  0  0  0
   67.3440   33.1350   49.6260 H   0  0  0  0  0  0  0  0  0  0  0  0
   65.4134   31.3146   51.6298 H   0  0  0  0  0  0  0  0  0  0  0  0
   63.2319   30.2181   51.1768 H   0  0  0  0  0  0  0  0  0  0  0  0
   60.8404   35.0888   46.7794 H   0  0  0  0  0  0  0  0  0  0  0  0
   59.1052   36.0767   45.2818 H   0  0  0  0  0  0  0  0  0  0  0  0
   57.4159   34.5923   44.1943 H   0  0  0  0  0  0  0  0  0  0  0  0
   57.4215   32.1494   44.6969 H   0  0  0  0  0  0  0  0  0  0  0  0
   58.0520   30.4652   46.1355 H   0  0  0  0  0  0  0  0  0  0  0  0
   59.7907   30.2898   45.7003 H   0  0  0  0  0  0  0  0  0  0  0  0
   58.6403   31.0965   48.4239 H   0  0  0  0  0  0  0  0  0  0  0  0
   59.4896   29.5619   48.0067 H   0  0  0  0  0  0  0  0  0  0  0  0
  1  2  1  0
  2  3  1  0
  3  4  1  0
  4  5  1  0
  3  6  1  0
  6  7  1  0
  7  8  1  0
  8  9  1  0
  9 10  2  0
 10 11  1  0
 11 12  2  0
 12 13  1  0
 12 14  1  0
 14 15  2  0
 15 16  1  0
 16 17  1  0
 16 18  2  0
 18 19  1  0
 19 20  2  0
 11 21  1  0
 21 22  2  0
 22 23  1  0
 23 24  2  0
 24 25  1  0
 25 26  2  0
 26 27  1  0
 27 28  1  0
 20  9  1  0
 26 21  1  0
 28 10  1  0
 20 14  1  0
  1 29  1  0
  1 30  1  0
  1 31  1  0
  2 32  1  0
  2 33  1  0
  3 34  1  0
  4 35  1  0
  4 36  1  0
  5 37  1  0
  5 38  1  0
  5 39  1  0
  6 40  1  0
  6 41  1  0
  7 42  1  0
  7 43  1  0
  8 44  1  0
 13 45  1  0
 13 46  1  0
 13 47  1  0
 15 48  1  0
 17 49  1  0
 17 50  1  0
 18 51  1  0
 19 52  1  0
 22 53  1  0
 23 54  1  0
 24 55  1  0
 25 56  1  0
 27 57  1  0
 27 58  1  0
 28 59  1  0
 28 60  1  0
M  CHG  3   3   1  12   1  26   1
M  END
>  <UniqueID>  (27) 
27

>  <SMILES>  (27) 
CC[NH+](CC)CCNc1c2c([n+](C)c3cc(N)ccc13)-c1cccc[n+]1CC2

>  <Energy>  (27) 
95.42430755177136

>  <Genealogy>  (27) 
CC[NH+](CC)CCNc1c2c([n+](C)c3cc(N)ccc13)-c1cccc[n+]1CC2 (protonated)
CC[NH+](CC)CCNc1c2c([n+](C)c3cc(N)ccc13)-c1cccc[n+]1CC2 (3D coordinates assigned)
CC[NH+](CC)CCNc1c2c([n+](C)c3cc(N)ccc13)-c1cccc[n+]1CC2 (nonaromatic ring conformer: 95.42430755177136 kcal/mol)

>  <smiles>  (27) 
CCN(CC)CCNc1c2c([n+](C)c3cc(N)ccc13)-c1cccc[n+]1CC2

>  <score_type>  (27) 
oracle

>  <origin>  (27) 
adg

>  <m_score__min__energy>  (27) 
-3.2000000000000002

>  <m_primary>  (27) 
energy

$$$$
27:0
     RDKit          3D

 43 44  0  0  0  0  0  0  0  0999 V2000
   58.8980   29.2840   44.6250 C   0  0  0  0  0  0  0  0  0  0  0  0
   57.8640   29.9490   45.5460 C   0  0  0  0  0  0  0  0  0  0  0  0
   56.8070   30.7240   44.8440 N   0  0  0  0  0  0  0  0  0  0  0  0
   55.8600   29.8740   44.0840 C   0  0  0  0  0  0  0  0  0  0  0  0
   56.3020   29.7030   42.6300 C   0  0  0  0  0  0  0  0  0  0  0  0
   57.3920   31.7940   44.0070 C   0  0  0  0  0  0  0  0  0  0  0  0
   58.2470   32.7870   44.8130 C   0  0  0  0  0  0  0  0  0  0  0  0
   57.5010   33.3750   46.3830 S   0  0  0  0  0  0  0  0  0  0  0  0
   59.0280   33.7810   47.2450 C   0  0  0  0  0  0  0  0  0  0  0  0
   59.3570   35.0210   47.6450 N   0  0  0  0  0  0  0  0  0  0  0  0
   60.5310   34.9580   48.2510 N   0  0  0  0  0  0  0  0  0  0  0  0
   60.8940   33.6590   48.2470 C   0  0  0  0  0  0  0  0  0  0  0  0
   62.1650   33.2070   48.8430 C   0  0  0  0  0  0  0  0  0  0  0  0
   62.4010   32.8200   50.1590 C   0  0  0  0  0  0  0  0  0  0  0  0
   63.7420   32.5020   50.4110 C   0  0  0  0  0  0  0  0  0  0  0  0
   64.5690   32.6500   49.3080 C   0  0  0  0  0  0  0  0  0  0  0  0
   63.6310   33.1830   48.0210 S   0  0  0  0  0  0  0  0  0  0  0  0
   59.9710   32.8870   47.6160 N   0  0  0  0  0  0  0  0  0  0  0  0
   59.9040   31.4250   47.4840 C   0  0  0  0  0  0  0  0  0  0  0  0
   61.1440   30.8600   46.8000 C   0  0  0  0  0  0  0  0  0  0  0  0
   59.6678   28.7889   45.2352 H   0  0  0  0  0  0  0  0  0  0  0  0
   58.3975   28.5380   43.9902 H   0  0  0  0  0  0  0  0  0  0  0  0
   59.3691   30.0488   43.9902 H   0  0  0  0  0  0  0  0  0  0  0  0
   57.3744   29.1601   46.1359 H   0  0  0  0  0  0  0  0  0  0  0  0
   58.4191   30.6720   46.1617 H   0  0  0  0  0  0  0  0  0  0  0  0
   55.8073   28.8838   44.5602 H   0  0  0  0  0  0  0  0  0  0  0  0
   54.8755   30.3646   44.0897 H   0  0  0  0  0  0  0  0  0  0  0  0
   57.3276   29.3062   42.6028 H   0  0  0  0  0  0  0  0  0  0  0  0
   55.6241   29.0022   42.1207 H   0  0  0  0  0  0  0  0  0  0  0  0
   56.2722   30.6775   42.1207 H   0  0  0  0  0  0  0  0  0  0  0  0
   58.0259   31.3299   43.2371 H   0  0  0  0  0  0  0  0  0  0  0  0
   56.5583   32.3598   43.5657 H   0  0  0  0  0  0  0  0  0  0  0  0
   59.2012   32.2956   45.0539 H   0  0  0  0  0  0  0  0  0  0  0  0
   58.3565   33.6780   44.1773 H   0  0  0  0  0  0  0  0  0  0  0  0
   58.8090   35.8970   47.5060 H   0  0  0  0  0  0  0  0  0  0  0  0
   61.6131   32.7689   50.9249 H   0  0  0  0  0  0  0  0  0  0  0  0
   64.1053   32.1659   51.3934 H   0  0  0  0  0  0  0  0  0  0  0  0
   65.6508   32.4527   49.2807 H   0  0  0  0  0  0  0  0  0  0  0  0
   59.8170   30.9807   48.4865 H   0  0  0  0  0  0  0  0  0  0  0  0
   59.0295   31.1777   46.8643 H   0  0  0  0  0  0  0  0  0  0  0  0
   61.8656   30.5312   47.5624 H   0  0  0  0  0  0  0  0  0  0  0  0
   60.8581   30.0033   46.1721 H   0  0  0  0  0  0  0  0  0  0  0  0
   61.6029   31.6379   46.1721 H   0  0  0  0  0  0  0  0  0  0  0  0
  1  2  1  0
  2  3  1  0
  3  4  1  0
  4  5  1  0
  3  6  1  0
  6  7  1  0
  7  8  1  0
  8  9  1  0
  9 10  2  0
 10 11  1  0
 11 12  2  0
 12 13  1  0
 13 14  2  0
 14 15  1  0
 15 16  2  0
 16 17  1  0
 12 18  1  0
 18 19  1  0
 19 20  1  0
 18  9  1  0
 17 13  1  0
  1 21  1  0
  1 22  1  0
  1 23  1  0
  2 24  1  0
  2 25  1  0
  4 26  1  0
  4 27  1  0
  5 28  1  0
  5 29  1  0
  5 30  1  0
  6 31  1  0
  6 32  1  0
  7 33  1  0
  7 34  1  0
 10 35  1  0
 14 36  1  0
 15 37  1  0
 16 38  1  0
 19 39  1  0
 19 40  1  0
 20 41  1  0
 20 42  1  0
 20 43  1  0
M  CHG  1  10   1
M  END
>  <UniqueID>  (28) 
28

>  <SMILES>  (28) 
CCN(CC)CCSc1[nH+]nc(-c2cccs2)n1CC

>  <Energy>  (28) 
106.55370793707735

>  <Genealogy>  (28) 
CCN(CC)CCSc1[nH+]nc(-c2cccs2)n1CC (protonated)
CCN(CC)CCSc1[nH+]nc(-c2cccs2)n1CC (3D coordinates assigned)
CCN(CC)CCSc1[nH+]nc(-c2cccs2)n1CC (optimized conformer: 106.55370793707735 kcal/mol)

>  <smiles>  (28) 
CCN(CC)CCSc1nnc(-c2cccs2)n1CC

>  <score_type>  (28) 
oracle

>  <origin>  (28) 
adg

>  <m_score__min__energy>  (28) 
-5.3700000000000001

>  <m_primary>  (28) 
energy

$$$$
28:0
     RDKit          3D

 52 54  0  0  0  0  0  0  0  0999 V2000
   58.6530   32.6750   49.2300 C   0  0  0  0  0  0  0  0  0  0  0  0
   59.6860   33.6860   49.7250 C   0  0  0  0  0  0  0  0  0  0  0  0
   60.6470   33.0920   50.7660 C   0  0  0  0  0  0  0  0  0  0  0  0
   60.3750   31.5990   51.0360 C   0  0  0  0  0  0  0  0  0  0  0  0
   61.5660   30.8950   51.5490 N   0  0  0  0  0  0  0  0  0  0  0  0
   61.7530   29.5790   50.9130 C   0  0  0  0  0  0  0  0  0  0  0  0
   60.6410   29.2840   49.8980 C   0  0  0  0  0  0  0  0  0  0  0  0
   61.1430   29.3540   48.5260 N   0  0  0  0  0  0  0  0  0  0  0  0
   60.7490   30.4380   47.6700 C   0  0  0  0  0  0  0  0  0  0  0  0
   61.5440   31.5930   47.5830 C   0  0  0  0  0  0  0  0  0  0  0  0
   62.7520   31.6940   48.3070 C   0  0  0  0  0  0  0  0  0  0  0  0
   63.5680   32.8150   48.1750 C   0  0  0  0  0  0  0  0  0  0  0  0
   63.2070   33.8410   47.3100 C   0  0  0  0  0  0  0  0  0  0  0  0
   62.0140   33.7680   46.5930 C   0  0  0  0  0  0  0  0  0  0  0  0
   61.1380   32.6600   46.7380 C   0  0  0  0  0  0  0  0  0  0  0  0
   59.9310   32.5940   46.0660 N   0  0  0  0  0  0  0  0  0  0  0  0
   59.3750   33.8070   45.4250 C   0  0  0  0  0  0  0  0  0  0  0  0
   59.2250   31.4050   46.0260 C   0  0  0  0  0  0  0  0  0  0  0  0
   58.1280   31.2170   45.1460 C   0  0  0  0  0  0  0  0  0  0  0  0
   57.3650   30.0380   45.1630 C   0  0  0  0  0  0  0  0  0  0  0  0
   56.2480   29.8770   44.2680 N   0  0  0  0  0  0  0  0  0  0  0  0
   55.1690   29.4000   44.6750 O   0  0  0  0  0  0  0  0  0  0  0  0
   56.3490   30.2520   42.9460 O   0  0  0  0  0  0  0  0  0  0  0  0
   57.7070   29.0220   46.0630 C   0  0  0  0  0  0  0  0  0  0  0  0
   58.8090   29.1610   46.9010 C   0  0  0  0  0  0  0  0  0  0  0  0
   59.5980   30.3270   46.8700 C   0  0  0  0  0  0  0  0  0  0  0  0
   58.1650   32.1973   50.0924 H   0  0  0  0  0  0  0  0  0  0  0  0
   57.8969   33.1918   48.6206 H   0  0  0  0  0  0  0  0  0  0  0  0
   59.1534   31.9080   48.6206 H   0  0  0  0  0  0  0  0  0  0  0  0
   60.2737   34.0383   48.8645 H   0  0  0  0  0  0  0  0  0  0  0  0
   59.1395   34.5087   50.2093 H   0  0  0  0  0  0  0  0  0  0  0  0
   61.6777   33.2019   50.3978 H   0  0  0  0  0  0  0  0  0  0  0  0
   60.4948   33.6356   51.7101 H   0  0  0  0  0  0  0  0  0  0  0  0
   59.5679   31.5155   51.7787 H   0  0  0  0  0  0  0  0  0  0  0  0
   60.0936   31.1309   50.0812 H   0  0  0  0  0  0  0  0  0  0  0  0
   61.4930   30.7890   52.5870 H   0  0  0  0  0  0  0  0  0  0  0  0
   62.4010   31.4910   51.3390 H   0  0  0  0  0  0  0  0  0  0  0  0
   62.7231   29.5668   50.3945 H   0  0  0  0  0  0  0  0  0  0  0  0
   61.7193   28.8080   51.6969 H   0  0  0  0  0  0  0  0  0  0  0  0
   60.2446   28.2749   50.0837 H   0  0  0  0  0  0  0  0  0  0  0  0
   59.8511   30.0400   50.0182 H   0  0  0  0  0  0  0  0  0  0  0  0
   61.4670   28.4710   48.0670 H   0  0  0  0  0  0  0  0  0  0  0  0
   63.0517   30.8790   48.9822 H   0  0  0  0  0  0  0  0  0  0  0  0
   64.4991   32.8883   48.7560 H   0  0  0  0  0  0  0  0  0  0  0  0
   63.8653   34.7141   47.1907 H   0  0  0  0  0  0  0  0  0  0  0  0
   61.7467   34.5822   45.9034 H   0  0  0  0  0  0  0  0  0  0  0  0
   59.0502   34.5157   46.2011 H   0  0  0  0  0  0  0  0  0  0  0  0
   60.1473   34.2776   44.7988 H   0  0  0  0  0  0  0  0  0  0  0  0
   58.5144   33.5291   44.7988 H   0  0  0  0  0  0  0  0  0  0  0  0
   57.8689   32.0138   44.4333 H   0  0  0  0  0  0  0  0  0  0  0  0
   57.0995   28.1061   46.1082 H   0  0  0  0  0  0  0  0  0  0  0  0
   59.0673   28.3493   47.5970 H   0  0  0  0  0  0  0  0  0  0  0  0
  1  2  1  0
  2  3  1  0
  3  4  1  0
  4  5  1  0
  5  6  1  0
  6  7  1  0
  7  8  1  0
  8  9  1  0
  9 10  2  0
 10 11  1  0
 11 12  2  0
 12 13  1  0
 13 14  2  0
 14 15  1  0
 15 16  2  0
 16 17  1  0
 16 18  1  0
 18 19  2  0
 19 20  1  0
 20 21  1  0
 21 22  2  0
 21 23  1  0
 20 24  2  0
 24 25  1  0
 25 26  2  0
 26  9  1  0
 15 10  1  0
 26 18  1  0
  1 27  1  0
  1 28  1  0
  1 29  1  0
  2 30  1  0
  2 31  1  0
  3 32  1  0
  3 33  1  0
  4 34  1  0
  4 35  1  0
  5 36  1  0
  5 37  1  0
  6 38  1  0
  6 39  1  0
  7 40  1  0
  7 41  1  0
  8 42  1  0
 11 43  1  0
 12 44  1  0
 13 45  1  0
 14 46  1  0
 17 47  1  0
 17 48  1  0
 17 49  1  0
 19 50  1  0
 24 51  1  0
 25 52  1  0
M  CHG  4   5   1  16   1  21   1  23  -1
M  END
>  <UniqueID>  (29) 
29

>  <SMILES>  (29) 
CCCC[NH2+]CCNc1c2ccccc2[n+](C)c2cc([N+](=O)[O-])ccc12

>  <Energy>  (29) 
74.14110383754566

>  <Genealogy>  (29) 
CCCC[NH2+]CCNc1c2ccccc2[n+](C)c2cc([N+](=O)[O-])ccc12 (protonated)
CCCC[NH2+]CCNc1c2ccccc2[n+](C)c2cc([N+](=O)[O-])ccc12 (3D coordinates assigned)
CCCC[NH2+]CCNc1c2ccccc2[n+](C)c2cc([N+](=O)[O-])ccc12 (optimized conformer: 74.14110383754566 kcal/mol)

>  <smiles>  (29) 
CCCCNCCNc1c2ccccc2[n+](C)c2cc([N+](=O)[O-])ccc12

>  <score_type>  (29) 
oracle

>  <origin>  (29) 
adg

>  <m_score__min__energy>  (29) 
-4.6500000000000004

>  <m_primary>  (29) 
energy

$$$$
