0:0
     RDKit          3D

 59 61  0  0  0  0  0  0  0  0999 V2000
   62.6700   33.9170   46.3670 C   0  0  0  0  0  0  0  0  0  0  0  0
   63.7520   33.7890   47.4540 C   0  0  0  0  0  0  0  0  0  0  0  0
   63.9320   32.3860   47.9210 N   0  0  0  0  0  0  0  0  0  0  0  0
   64.1860   32.3430   49.3880 C   0  0  0  0  0  0  0  0  0  0  0  0
   65.6150   32.7800   49.7430 C   0  0  0  0  0  0  0  0  0  0  0  0
   62.7250   31.5800   47.5930 C   0  0  0  0  0  0  0  0  0  0  0  0
   61.9490   31.1120   48.8520 C   0  0  0  0  0  0  0  0  0  0  0  0
   61.1160   32.2290   49.4910 C   0  0  0  0  0  0  0  0  0  0  0  0
   59.6850   32.0500   49.2380 N   0  0  0  0  0  0  0  0  0  0  0  0
   59.2200   31.8240   47.9000 C   0  0  0  0  0  0  0  0  0  0  0  0
   59.1690   32.9170   47.0130 C   0  0  0  0  0  0  0  0  0  0  0  0
   59.3870   34.2350   47.4750 C   0  0  0  0  0  0  0  0  0  0  0  0
   59.3940   35.3100   46.5910 C   0  0  0  0  0  0  0  0  0  0  0  0
   59.1960   35.0920   45.2320 C   0  0  0  0  0  0  0  0  0  0  0  0
   58.9630   33.8030   44.7570 C   0  0  0  0  0  0  0  0  0  0  0  0
   58.9110   32.6920   45.6380 C   0  0  0  0  0  0  0  0  0  0  0  0
   58.6530   31.4160   45.1820 N   0  0  0  0  0  0  0  0  0  0  0  0
   58.1180   31.2180   43.8150 C   0  0  0  0  0  0  0  0  0  0  0  0
   58.8420   30.3270   46.0130 C   0  0  0  0  0  0  0  0  0  0  0  0
   58.8910   29.0140   45.4880 C   0  0  0  0  0  0  0  0  0  0  0  0
   58.9760   27.9000   46.3230 C   0  0  0  0  0  0  0  0  0  0  0  0
   59.0610   26.5210   45.7330 C   0  0  0  0  0  0  0  0  0  0  0  0
   59.0020   28.0760   47.7050 C   0  0  0  0  0  0  0  0  0  0  0  0
   58.9630   29.3580   48.2700 C   0  0  0  0  0  0  0  0  0  0  0  0
   58.7900   29.4350   49.7650 C   0  0  0  0  0  0  0  0  0  0  0  0
   59.0090   30.5080   47.4170 C   0  0  0  0  0  0  0  0  0  0  0  0
   61.6848   34.0335   46.8422 H   0  0  0  0  0  0  0  0  0  0  0  0
   62.8814   34.7964   45.7409 H   0  0  0  0  0  0  0  0  0  0  0  0
   62.6704   33.0125   45.7409 H   0  0  0  0  0  0  0  0  0  0  0  0
   64.7072   34.1492   47.0443 H   0  0  0  0  0  0  0  0  0  0  0  0
   63.4290   34.3887   48.3177 H   0  0  0  0  0  0  0  0  0  0  0  0
   64.7510   31.9680   47.4220 H   0  0  0  0  0  0  0  0  0  0  0  0
   63.4749   33.0153   49.8904 H   0  0  0  0  0  0  0  0  0  0  0  0
   64.0584   31.3028   49.7222 H   0  0  0  0  0  0  0  0  0  0  0  0
   65.7269   32.8142   50.8368 H   0  0  0  0  0  0  0  0  0  0  0  0
   66.3334   32.0605   49.3232 H   0  0  0  0  0  0  0  0  0  0  0  0
   65.8081   33.7783   49.3232 H   0  0  0  0  0  0  0  0  0  0  0  0
   62.0524   32.1918   46.9738 H   0  0  0  0  0  0  0  0  0  0  0  0
   63.0652   30.6788   47.0619 H   0  0  0  0  0  0  0  0  0  0  0  0
   61.2742   30.2926   48.5635 H   0  0  0  0  0  0  0  0  0  0  0  0
   62.6923   30.7889   49.5957 H   0  0  0  0  0  0  0  0  0  0  0  0
   61.2891   32.2258   50.5773 H   0  0  0  0  0  0  0  0  0  0  0  0
   61.4259   33.1857   49.0452 H   0  0  0  0  0  0  0  0  0  0  0  0
   58.9810   32.2630   49.9800 H   0  0  0  0  0  0  0  0  0  0  0  0
   59.5534   34.4134   48.5476 H   0  0  0  0  0  0  0  0  0  0  0  0
   59.5560   36.3310   46.9670 H   0  0  0  0  0  0  0  0  0  0  0  0
   59.2234   35.9389   44.5305 H   0  0  0  0  0  0  0  0  0  0  0  0
   58.8166   33.6437   43.6785 H   0  0  0  0  0  0  0  0  0  0  0  0
   57.0880   30.8368   43.8760 H   0  0  0  0  0  0  0  0  0  0  0  0
   58.1226   32.1774   43.2769 H   0  0  0  0  0  0  0  0  0  0  0  0
   58.7461   30.4928   43.2769 H   0  0  0  0  0  0  0  0  0  0  0  0
   58.8614   28.8687   44.3980 H   0  0  0  0  0  0  0  0  0  0  0  0
   59.1068   25.7779   46.5428 H   0  0  0  0  0  0  0  0  0  0  0  0
   58.1728   26.3324   45.1121 H   0  0  0  0  0  0  0  0  0  0  0  0
   59.9657   26.4429   45.1121 H   0  0  0  0  0  0  0  0  0  0  0  0
   59.0539   27.1956   48.3624 H   0  0  0  0  0  0  0  0  0  0  0  0
   59.6879   29.0354   50.2591 H   0  0  0  0  0  0  0  0  0  0  0  0
   58.6431   30.4835   50.0636 H   0  0  0  0  0  0  0  0  0  0  0  0
   57.9127   28.8424   50.0636 H   0  0  0  0  0  0  0  0  0  0  0  0
  1  2  1  0
  2  3  1  0
  3  4  1  0
  4  5  1  0
  3  6  1  0
  6  7  1  0
  7  8  1  0
  8  9  1  0
  9 10  1  0
 10 11  2  0
 11 12  1  0
 12 13  2  0
 13 14  1  0
 14 15  2  0
 15 16  1  0
 16 17  2  0
 17 18  1  0
 17 19  1  0
 19 20  2  0
 20 21  1  0
 21 22  1  0
 21 23  2  0
 23 24  1  0
 24 25  1  0
 24 26  2  0
 26 10  1  0
 16 11  1  0
 26 19  1  0
  1 27  1  0
  1 28  1  0
  1 29  1  0
  2 30  1  0
  2 31  1  0
  3 32  1  0
  4 33  1  0
  4 34  1  0
  5 35  1  0
  5 36  1  0
  5 37  1  0
  6 38  1  0
  6 39  1  0
  7 40  1  0
  7 41  1  0
  8 42  1  0
  8 43  1  0
  9 44  1  0
 12 45  1  0
 13 46  1  0
 14 47  1  0
 15 48  1  0
 18 49  1  0
 18 50  1  0
 18 51  1  0
 20 52  1  0
 22 53  1  0
 22 54  1  0
 22 55  1  0
 23 56  1  0
 25 57  1  0
 25 58  1  0
 25 59  1  0
M  CHG  2   3   1  17   1
M  END
>  <UniqueID>  (1) 
1

>  <SMILES>  (1) 
CC[NH+](CC)CCCNc1c2ccccc2[n+](C)c2cc(C)cc(C)c12

>  <Energy>  (1) 
95.49896529603879

>  <Genealogy>  (1) 
CC[NH+](CC)CCCNc1c2ccccc2[n+](C)c2cc(C)cc(C)c12 (protonated)
CC[NH+](CC)CCCNc1c2ccccc2[n+](C)c2cc(C)cc(C)c12 (3D coordinates assigned)
CC[NH+](CC)CCCNc1c2ccccc2[n+](C)c2cc(C)cc(C)c12 (optimized conformer: 95.49896529603879 kcal/mol)

>  <smiles>  (1) 
CCN(CC)CCCNc1c2ccccc2[n+](C)c2cc(C)cc(C)c12

>  <score_type>  (1) 
oracle

>  <origin>  (1) 
adg

>  <m_score__min__energy>  (1) 
-4.9299999999999997

>  <m_primary>  (1) 
energy

$$$$
1:0
     RDKit          3D

 54 57  0  0  0  0  0  0  0  0999 V2000
   63.3490   33.8320   46.3740 C   0  0  0  0  0  0  0  0  0  0  0  0
   63.2080   33.1790   47.7450 C   0  0  0  0  0  0  0  0  0  0  0  0
   62.2200   33.9060   48.5500 N   0  0  0  0  0  0  0  0  0  0  0  0
   62.7920   34.2710   49.8510 C   0  0  0  0  0  0  0  0  0  0  0  0
   62.0800   33.5190   50.9800 C   0  0  0  0  0  0  0  0  0  0  0  0
   61.1300   32.6090   50.4580 O   0  0  0  0  0  0  0  0  0  0  0  0
   61.7210   31.3560   50.1620 C   0  0  0  0  0  0  0  0  0  0  0  0
   61.0050   30.6850   48.9870 C   0  0  0  0  0  0  0  0  0  0  0  0
   59.7600   31.3800   48.6630 N   0  0  0  0  0  0  0  0  0  0  0  0
   59.2620   31.3830   47.3210 C   0  0  0  0  0  0  0  0  0  0  0  0
   58.9210   30.1920   46.6930 C   0  0  0  0  0  0  0  0  0  0  0  0
   58.4600   30.1720   45.3870 C   0  0  0  0  0  0  0  0  0  0  0  0
   58.2030   31.3290   44.6970 N   0  0  0  0  0  0  0  0  0  0  0  0
   57.4240   31.2850   43.4490 C   0  0  0  0  0  0  0  0  0  0  0  0
   58.6310   32.5320   45.2410 C   0  0  0  0  0  0  0  0  0  0  0  0
   58.6000   33.7390   44.5000 C   0  0  0  0  0  0  0  0  0  0  0  0
   59.0040   34.9450   45.0740 C   0  0  0  0  0  0  0  0  0  0  0  0
   59.4610   34.9820   46.3880 C   0  0  0  0  0  0  0  0  0  0  0  0
   59.5380   33.8090   47.1370 C   0  0  0  0  0  0  0  0  0  0  0  0
   59.1430   32.5770   46.5800 C   0  0  0  0  0  0  0  0  0  0  0  0
   58.2480   28.7530   45.0010 C   0  0  0  0  0  0  0  0  0  0  0  0
   57.9970   28.1530   43.7590 C   0  0  0  0  0  0  0  0  0  0  0  0
   57.9250   26.7510   43.6890 C   0  0  0  0  0  0  0  0  0  0  0  0
   58.1450   25.9660   44.8370 C   0  0  0  0  0  0  0  0  0  0  0  0
   58.4620   26.5730   46.0600 C   0  0  0  0  0  0  0  0  0  0  0  0
   58.5160   27.9650   46.1110 C   0  0  0  0  0  0  0  0  0  0  0  0
   58.9360   28.8240   47.2060 C   0  0  0  0  0  0  0  0  0  0  0  0
   59.2370   28.4560   48.3710 O   0  0  0  0  0  0  0  0  0  0  0  0
   63.5797   34.9003   46.4987 H   0  0  0  0  0  0  0  0  0  0  0  0
   64.1624   33.3438   45.8172 H   0  0  0  0  0  0  0  0  0  0  0  0
   62.4066   33.7229   45.8172 H   0  0  0  0  0  0  0  0  0  0  0  0
   62.8793   32.1368   47.6196 H   0  0  0  0  0  0  0  0  0  0  0  0
   64.1805   33.2053   48.2583 H   0  0  0  0  0  0  0  0  0  0  0  0
   61.4150   33.2570   48.7250 H   0  0  0  0  0  0  0  0  0  0  0  0
   63.8611   34.0125   49.8618 H   0  0  0  0  0  0  0  0  0  0  0  0
   62.6618   35.3522   50.0062 H   0  0  0  0  0  0  0  0  0  0  0  0
   62.8249   32.9640   51.5692 H   0  0  0  0  0  0  0  0  0  0  0  0
   61.5564   34.2495   51.6142 H   0  0  0  0  0  0  0  0  0  0  0  0
   62.7788   31.5081   49.9012 H   0  0  0  0  0  0  0  0  0  0  0  0
   61.6358   30.7068   51.0459 H   0  0  0  0  0  0  0  0  0  0  0  0
   61.6651   30.7015   48.1072 H   0  0  0  0  0  0  0  0  0  0  0  0
   60.7638   29.6497   49.2700 H   0  0  0  0  0  0  0  0  0  0  0  0
   59.3200   32.0280   49.3560 H   0  0  0  0  0  0  0  0  0  0  0  0
   56.3520   31.2244   43.6879 H   0  0  0  0  0  0  0  0  0  0  0  0
   57.6183   32.1955   42.8632 H   0  0  0  0  0  0  0  0  0  0  0  0
   57.7196   30.4021   42.8632 H   0  0  0  0  0  0  0  0  0  0  0  0
   58.2522   33.7253   43.4565 H   0  0  0  0  0  0  0  0  0  0  0  0
   58.9610   35.8724   44.4841 H   0  0  0  0  0  0  0  0  0  0  0  0
   59.7624   35.9399   46.8369 H   0  0  0  0  0  0  0  0  0  0  0  0
   59.9102   33.8457   48.1715 H   0  0  0  0  0  0  0  0  0  0  0  0
   57.8591   28.7674   42.8570 H   0  0  0  0  0  0  0  0  0  0  0  0
   57.6951   26.2634   42.7302 H   0  0  0  0  0  0  0  0  0  0  0  0
   58.0677   24.8705   44.7737 H   0  0  0  0  0  0  0  0  0  0  0  0
   58.6628   25.9670   46.9558 H   0  0  0  0  0  0  0  0  0  0  0  0
  1  2  1  0
  2  3  1  0
  3  4  1  0
  4  5  1  0
  5  6  1  0
  6  7  1  0
  7  8  1  0
  8  9  1  0
  9 10  1  0
 10 11  2  0
 11 12  1  0
 12 13  2  0
 13 14  1  0
 13 15  1  0
 15 16  2  0
 16 17  1  0
 17 18  2  0
 18 19  1  0
 19 20  2  0
 12 21  1  0
 21 22  2  0
 22 23  1  0
 23 24  2  0
 24 25  1  0
 25 26  2  0
 26 27  1  0
 27 28  2  0
 20 10  1  0
 26 21  1  0
 27 11  1  0
 20 15  1  0
  1 29  1  0
  1 30  1  0
  1 31  1  0
  2 32  1  0
  2 33  1  0
  3 34  1  0
  4 35  1  0
  4 36  1  0
  5 37  1  0
  5 38  1  0
  7 39  1  0
  7 40  1  0
  8 41  1  0
  8 42  1  0
  9 43  1  0
 14 44  1  0
 14 45  1  0
 14 46  1  0
 16 47  1  0
 17 48  1  0
 18 49  1  0
 19 50  1  0
 22 51  1  0
 23 52  1  0
 24 53  1  0
 25 54  1  0
M  CHG  1  13   1
M  END
>  <UniqueID>  (2) 
2

>  <SMILES>  (2) 
CCNCCOCCNc1c2c([n+](C)c3ccccc13)-c1ccccc1C2=O

>  <Energy>  (2) 
106.83733461351817

>  <Genealogy>  (2) 
CCNCCOCCNc1c2c([n+](C)c3ccccc13)-c1ccccc1C2=O (3D coordinates assigned)
CCNCCOCCNc1c2c([n+](C)c3ccccc13)-c1ccccc1C2=O (nonaromatic ring conformer: 106.83733461351817 kcal/mol)

>  <smiles>  (2) 
CCNCCOCCNc1c2c([n+](C)c3ccccc13)-c1ccccc1C2=O

>  <score_type>  (2) 
oracle

>  <origin>  (2) 
adg

>  <m_score__min__energy>  (2) 
-6.3499999999999996

>  <m_primary>  (2) 
energy

$$$$
2:0
     RDKit          3D

 81 84  0  0  0  0  0  0  0  0999 V2000
   65.6930   32.7990   49.9200 C   0  0  0  0  0  0  0  0  0  0  0  0
   64.3340   32.1040   49.9990 C   0  0  0  0  0  0  0  0  0  0  0  0
   63.3850   32.6120   48.9750 N   0  0  0  0  0  0  0  0  0  0  0  0
   64.0880   33.4690   47.9880 C   0  0  0  0  0  0  0  0  0  0  0  0
   63.2650   33.7080   46.7160 C   0  0  0  0  0  0  0  0  0  0  0  0
   62.2690   33.3770   49.6000 C   0  0  0  0  0  0  0  0  0  0  0  0
   60.8960   32.7730   49.2440 C   0  0  0  0  0  0  0  0  0  0  0  0
   60.9760   31.6930   48.2330 N   0  0  0  0  0  0  0  0  0  0  0  0
   59.8170   31.6320   47.3430 C   0  0  0  0  0  0  0  0  0  0  0  0
   59.4460   32.7560   46.5590 C   0  0  0  0  0  0  0  0  0  0  0  0
   59.8550   34.0710   46.8970 C   0  0  0  0  0  0  0  0  0  0  0  0
   59.5850   35.1470   46.0580 C   0  0  0  0  0  0  0  0  0  0  0  0
   58.8920   34.9480   44.8740 C   0  0  0  0  0  0  0  0  0  0  0  0
   58.4070   33.6830   44.5550 C   0  0  0  0  0  0  0  0  0  0  0  0
   58.6150   32.5740   45.4170 C   0  0  0  0  0  0  0  0  0  0  0  0
   58.0640   31.3370   45.1430 N   0  0  0  0  0  0  0  0  0  0  0  0
   57.0420   31.2050   44.0770 C   0  0  0  0  0  0  0  0  0  0  0  0
   58.3970   30.2420   45.9130 C   0  0  0  0  0  0  0  0  0  0  0  0
   58.0380   28.9260   45.5220 C   0  0  0  0  0  0  0  0  0  0  0  0
   58.2520   27.8400   46.3670 C   0  0  0  0  0  0  0  0  0  0  0  0
   57.7920   26.2240   45.8600 Cl  0  0  0  0  0  0  0  0  0  0  0  0
   58.7700   28.0450   47.6380 C   0  0  0  0  0  0  0  0  0  0  0  0
   59.1430   29.3250   48.0510 C   0  0  0  0  0  0  0  0  0  0  0  0
   59.4620   29.4950   49.4350 N   0  0  0  0  0  0  0  0  0  0  0  0
   60.6860   29.0820   50.0630 C   0  0  0  0  0  0  0  0  0  0  0  0
   61.7190   29.7820   49.8880 O   0  0  0  0  0  0  0  0  0  0  0  0
   60.7970   27.8220   50.8860 C   0  0  0  0  0  0  0  0  0  0  0  0
   60.1650   27.9780   52.2780 C   0  0  0  0  0  0  0  0  0  0  0  0
   60.4450   29.3760   52.8850 C   0  0  0  0  0  0  0  0  0  0  0  0
   59.3270   30.3780   52.8240 N   0  0  0  0  0  0  0  0  0  0  0  0
   59.0250   30.7320   54.2410 C   0  0  0  0  0  0  0  0  0  0  0  0
   59.7500   31.5980   52.0720 C   0  0  0  0  0  0  0  0  0  0  0  0
   58.6200   32.6300   51.8960 C   0  0  0  0  0  0  0  0  0  0  0  0
   57.3980   31.9910   51.2360 C   0  0  0  0  0  0  0  0  0  0  0  0
   56.9500   30.7440   51.9990 C   0  0  0  0  0  0  0  0  0  0  0  0
   58.1200   29.7590   52.1930 C   0  0  0  0  0  0  0  0  0  0  0  0
   59.1220   30.4080   47.1230 C   0  0  0  0  0  0  0  0  0  0  0  0
   66.0667   32.9901   50.9368 H   0  0  0  0  0  0  0  0  0  0  0  0
   66.4041   32.1539   49.3832 H   0  0  0  0  0  0  0  0  0  0  0  0
   65.5862   33.7532   49.3832 H   0  0  0  0  0  0  0  0  0  0  0  0
   64.4783   31.0246   49.8441 H   0  0  0  0  0  0  0  0  0  0  0  0
   63.9050   32.3116   50.9904 H   0  0  0  0  0  0  0  0  0  0  0  0
   64.3020   34.4412   48.4560 H   0  0  0  0  0  0  0  0  0  0  0  0
   65.0099   32.9466   47.6928 H   0  0  0  0  0  0  0  0  0  0  0  0
   62.2423   34.0050   46.9914 H   0  0  0  0  0  0  0  0  0  0  0  0
   63.7317   34.5077   46.1222 H   0  0  0  0  0  0  0  0  0  0  0  0
   63.2308   32.7827   46.1222 H   0  0  0  0  0  0  0  0  0  0  0  0
   62.3934   33.3607   50.6928 H   0  0  0  0  0  0  0  0  0  0  0  0
   62.3012   34.4072   49.2157 H   0  0  0  0  0  0  0  0  0  0  0  0
   60.4474   32.3613   50.1601 H   0  0  0  0  0  0  0  0  0  0  0  0
   60.2869   33.5803   48.8113 H   0  0  0  0  0  0  0  0  0  0  0  0
   61.1230   30.8150   48.7710 H   0  0  0  0  0  0  0  0  0  0  0  0
   61.8470   31.7950   47.6720 H   0  0  0  0  0  0  0  0  0  0  0  0
   60.3954   34.2432   47.8395 H   0  0  0  0  0  0  0  0  0  0  0  0
   59.9218   36.1571   46.3343 H   0  0  0  0  0  0  0  0  0  0  0  0
   58.7253   35.7902   44.1863 H   0  0  0  0  0  0  0  0  0  0  0  0
   57.8515   33.5395   43.6165 H   0  0  0  0  0  0  0  0  0  0  0  0
   56.0498   31.0768   44.5342 H   0  0  0  0  0  0  0  0  0  0  0  0
   57.0440   32.1109   43.4530 H   0  0  0  0  0  0  0  0  0  0  0  0
   57.2741   30.3294   43.4530 H   0  0  0  0  0  0  0  0  0  0  0  0
   57.5828   28.7608   44.5343 H   0  0  0  0  0  0  0  0  0  0  0  0
   58.8874   27.1934   48.3243 H   0  0  0  0  0  0  0  0  0  0  0  0
   60.2855   27.0060   50.3545 H   0  0  0  0  0  0  0  0  0  0  0  0
   61.8661   27.6029   51.0241 H   0  0  0  0  0  0  0  0  0  0  0  0
   59.0772   27.8385   52.1926 H   0  0  0  0  0  0  0  0  0  0  0  0
   60.6102   27.2222   52.9417 H   0  0  0  0  0  0  0  0  0  0  0  0
   60.7059   29.2327   53.9440 H   0  0  0  0  0  0  0  0  0  0  0  0
   61.2478   29.8028   52.2658 H   0  0  0  0  0  0  0  0  0  0  0  0
   59.5903   30.0694   54.9129 H   0  0  0  0  0  0  0  0  0  0  0  0
   59.3143   31.7767   54.4276 H   0  0  0  0  0  0  0  0  0  0  0  0
   57.9477   30.6109   54.4276 H   0  0  0  0  0  0  0  0  0  0  0  0
   60.5765   32.0756   52.6187 H   0  0  0  0  0  0  0  0  0  0  0  0
   60.0513   31.2713   51.0658 H   0  0  0  0  0  0  0  0  0  0  0  0
   58.3330   33.0221   52.8829 H   0  0  0  0  0  0  0  0  0  0  0  0
   58.9834   33.4437   51.2512 H   0  0  0  0  0  0  0  0  0  0  0  0
   56.5742   32.7198   51.2233 H   0  0  0  0  0  0  0  0  0  0  0  0
   57.6684   31.6957   50.2115 H   0  0  0  0  0  0  0  0  0  0  0  0
   56.5671   31.0451   52.9853 H   0  0  0  0  0  0  0  0  0  0  0  0
   56.1648   30.2416   51.4150 H   0  0  0  0  0  0  0  0  0  0  0  0
   57.7770   28.9339   52.8345 H   0  0  0  0  0  0  0  0  0  0  0  0
   58.4204   29.4146   51.1924 H   0  0  0  0  0  0  0  0  0  0  0  0
  1  2  1  0
  2  3  1  0
  3  4  1  0
  4  5  1  0
  3  6  1  0
  6  7  1  0
  7  8  1  0
  8  9  1  0
  9 10  2  0
 10 11  1  0
 11 12  2  0
 12 13  1  0
 13 14  2  0
 14 15  1  0
 15 16  2  0
 16 17  1  0
 16 18  1  0
 18 19  2  0
 19 20  1  0
 20 21  1  0
 20 22  2  0
 22 23  1  0
 23 24  1  0
 24 25  1  0
 25 26  2  0
 25 27  1  0
 27 28  1  0
 28 29  1  0
 29 30  1  0
 30 31  1  0
 30 32  1  0
 32 33  1  0
 33 34  1  0
 34 35  1  0
 35 36  1  0
 23 37  2  0
 37  9  1  0
 15 10  1  0
 37 18  1  0
 36 30  1  0
  1 38  1  0
  1 39  1  0
  1 40  1  0
  2 41  1  0
  2 42  1  0
  4 43  1  0
  4 44  1  0
  5 45  1  0
  5 46  1  0
  5 47  1  0
  6 48  1  0
  6 49  1  0
  7 50  1  0
  7 51  1  0
  8 52  1  0
  8 53  1  0
 11 54  1  0
 12 55  1  0
 13 56  1  0
 14 57  1  0
 17 58  1  0
 17 59  1  0
 17 60  1  0
 19 61  1  0
 22 62  1  0
 27 63  1  0
 27 64  1  0
 28 65  1  0
 28 66  1  0
 29 67  1  0
 29 68  1  0
 31 69  1  0
 31 70  1  0
 31 71  1  0
 32 72  1  0
 32 73  1  0
 33 74  1  0
 33 75  1  0
 34 76  1  0
 34 77  1  0
 35 78  1  0
 35 79  1  0
 36 80  1  0
 36 81  1  0
M  CHG  4   8   1  16   1  24  -1  30   1
M  END
>  <UniqueID>  (3) 
3

>  <SMILES>  (3) 
CCN(CC)CC[NH2+]c1c2ccccc2[n+](C)c2cc(Cl)cc([N-]C(=O)CCC[N+]3(C)CCCCC3)c12

>  <Energy>  (3) 
132.59137231056124

>  <Genealogy>  (3) 
CCN(CC)CC[NH2+]c1c2ccccc2[n+](C)c2cc(Cl)cc([N-]C(=O)CCC[N+]3(C)CCCCC3)c12 (protonated)
CCN(CC)CC[NH2+]c1c2ccccc2[n+](C)c2cc(Cl)cc([N-]C(=O)CCC[N+]3(C)CCCCC3)c12 (3D coordinates assigned)
CCN(CC)CC[NH2+]c1c2ccccc2[n+](C)c2cc(Cl)cc([N-]C(=O)CCC[N+]3(C)CCCCC3)c12 (nonaromatic ring conformer: 132.59137231056124 kcal/mol)

>  <smiles>  (3) 
CCN(CC)CCNc1c2ccccc2[n+](C)c2cc(Cl)cc(NC(=O)CCC[N+]3(C)CCCCC3)c12

>  <score_type>  (3) 
oracle

>  <origin>  (3) 
adg

>  <m_score__min__energy>  (3) 
-6.4699999999999998

>  <m_primary>  (3) 
energy

$$$$
3:0
     RDKit          3D

 58 60  0  0  0  0  0  0  0  0999 V2000
   59.8620   33.8640   50.4080 C   0  0  0  0  0  0  0  0  0  0  0  0
   59.8440   33.5560   48.9170 C   0  0  0  0  0  0  0  0  0  0  0  0
   60.8730   34.3750   48.2310 N   0  0  0  0  0  0  0  0  0  0  0  0
   60.8620   34.2250   46.7600 C   0  0  0  0  0  0  0  0  0  0  0  0
   59.8420   35.1640   46.1210 C   0  0  0  0  0  0  0  0  0  0  0  0
   62.2240   34.2010   48.8120 C   0  0  0  0  0  0  0  0  0  0  0  0
   63.2730   33.6670   47.8070 C   0  0  0  0  0  0  0  0  0  0  0  0
   63.5350   32.2450   48.0310 N   0  0  0  0  0  0  0  0  0  0  0  0
   62.6410   31.3860   48.7610 C   0  0  0  0  0  0  0  0  0  0  0  0
   62.8690   31.1290   50.1290 C   0  0  0  0  0  0  0  0  0  0  0  0
   63.9890   31.6990   50.7570 O   0  0  0  0  0  0  0  0  0  0  0  0
   64.0010   32.9720   51.3930 C   0  0  0  0  0  0  0  0  0  0  0  0
   61.9840   30.2860   50.8220 C   0  0  0  0  0  0  0  0  0  0  0  0
   60.9430   29.7030   50.1780 N   0  0  0  0  0  0  0  0  0  0  0  0
   60.7090   29.9050   48.8570 C   0  0  0  0  0  0  0  0  0  0  0  0
   59.6240   29.2710   48.2440 C   0  0  0  0  0  0  0  0  0  0  0  0
   59.3610   29.4740   46.8850 C   0  0  0  0  0  0  0  0  0  0  0  0
   58.0150   28.6300   46.1270 S   0  0  0  0  0  0  0  0  0  0  0  0
   58.5330   27.8640   44.9430 O   0  0  0  0  0  0  0  0  0  0  0  0
   57.3740   27.6640   47.0840 O   0  0  0  0  0  0  0  0  0  0  0  0
   56.8350   29.7850   45.5940 N   0  0  0  0  0  0  0  0  0  0  0  0
   57.0860   30.7190   44.5290 C   0  0  0  0  0  0  0  0  0  0  0  0
   56.8760   30.3500   43.1860 C   0  0  0  0  0  0  0  0  0  0  0  0
   57.1190   31.2570   42.1520 C   0  0  0  0  0  0  0  0  0  0  0  0
   57.5820   32.5400   42.4410 C   0  0  0  0  0  0  0  0  0  0  0  0
   57.8030   32.9200   43.7670 C   0  0  0  0  0  0  0  0  0  0  0  0
   57.5610   32.0190   44.8120 C   0  0  0  0  0  0  0  0  0  0  0  0
   57.8280   32.5660   46.4630 Cl  0  0  0  0  0  0  0  0  0  0  0  0
   60.1910   30.3170   46.1370 C   0  0  0  0  0  0  0  0  0  0  0  0
   61.2810   30.9510   46.7400 C   0  0  0  0  0  0  0  0  0  0  0  0
   61.5580   30.7520   48.1070 C   0  0  0  0  0  0  0  0  0  0  0  0
   59.8071   32.9243   50.9772 H   0  0  0  0  0  0  0  0  0  0  0  0
   60.7926   34.3927   50.6620 H   0  0  0  0  0  0  0  0  0  0  0  0
   58.9993   34.4975   50.6620 H   0  0  0  0  0  0  0  0  0  0  0  0
   60.0602   32.4889   48.7603 H   0  0  0  0  0  0  0  0  0  0  0  0
   58.8519   33.7932   48.5053 H   0  0  0  0  0  0  0  0  0  0  0  0
   61.8623   34.4597   46.3672 H   0  0  0  0  0  0  0  0  0  0  0  0
   60.5850   33.1888   46.5159 H   0  0  0  0  0  0  0  0  0  0  0  0
   59.2776   35.6836   46.9094 H   0  0  0  0  0  0  0  0  0  0  0  0
   60.3650   35.9033   45.4966 H   0  0  0  0  0  0  0  0  0  0  0  0
   59.1484   34.5818   45.4966 H   0  0  0  0  0  0  0  0  0  0  0  0
   62.5683   35.1761   49.1871 H   0  0  0  0  0  0  0  0  0  0  0  0
   62.1346   33.4499   49.6107 H   0  0  0  0  0  0  0  0  0  0  0  0
   62.8947   33.8065   46.7836 H   0  0  0  0  0  0  0  0  0  0  0  0
   64.2110   34.2236   47.9495 H   0  0  0  0  0  0  0  0  0  0  0  0
   64.3730   31.8240   47.5690 H   0  0  0  0  0  0  0  0  0  0  0  0
   63.9997   32.8365   52.4846 H   0  0  0  0  0  0  0  0  0  0  0  0
   64.9044   33.5233   51.0930 H   0  0  0  0  0  0  0  0  0  0  0  0
   63.1082   33.5402   51.0930 H   0  0  0  0  0  0  0  0  0  0  0  0
   62.1368   30.0976   51.8949 H   0  0  0  0  0  0  0  0  0  0  0  0
   58.9733   28.6086   48.8338 H   0  0  0  0  0  0  0  0  0  0  0  0
   55.8740   29.6930   45.9920 H   0  0  0  0  0  0  0  0  0  0  0  0
   56.5171   29.3375   42.9492 H   0  0  0  0  0  0  0  0  0  0  0  0
   56.9448   30.9585   41.1077 H   0  0  0  0  0  0  0  0  0  0  0  0
   57.7732   33.2527   41.6252 H   0  0  0  0  0  0  0  0  0  0  0  0
   58.1692   33.9326   43.9919 H   0  0  0  0  0  0  0  0  0  0  0  0
   59.9844   30.4814   45.0692 H   0  0  0  0  0  0  0  0  0  0  0  0
   61.9276   31.6105   46.1426 H   0  0  0  0  0  0  0  0  0  0  0  0
  1  2  1  0
  2  3  1  0
  3  4  1  0
  4  5  1  0
  3  6  1  0
  6  7  1  0
  7  8  1  0
  8  9  1  0
  9 10  2  0
 10 11  1  0
 11 12  1  0
 10 13  1  0
 13 14  2  0
 14 15  1  0
 15 16  2  0
 16 17  1  0
 17 18  1  0
 18 19  2  0
 18 20  2  0
 18 21  1  0
 21 22  1  0
 22 23  2  0
 23 24  1  0
 24 25  2  0
 25 26  1  0
 26 27  2  0
 27 28  1  0
 17 29  2  0
 29 30  1  0
 30 31  2  0
 31  9  1  0
 31 15  1  0
 27 22  1  0
  1 32  1  0
  1 33  1  0
  1 34  1  0
  2 35  1  0
  2 36  1  0
  4 37  1  0
  4 38  1  0
  5 39  1  0
  5 40  1  0
  5 41  1  0
  6 42  1  0
  6 43  1  0
  7 44  1  0
  7 45  1  0
  8 46  1  0
 12 47  1  0
 12 48  1  0
 12 49  1  0
 13 50  1  0
 16 51  1  0
 21 52  1  0
 23 53  1  0
 24 54  1  0
 25 55  1  0
 26 56  1  0
 29 57  1  0
 30 58  1  0
M  END
>  <UniqueID>  (4) 
4

>  <SMILES>  (4) 
CCN(CC)CCNc1c(OC)cnc2cc(S(=O)(=O)Nc3ccccc3Cl)ccc12

>  <Energy>  (4) 
72.15892856202318

>  <Genealogy>  (4) 
CCN(CC)CCNc1c(OC)cnc2cc(S(=O)(=O)Nc3ccccc3Cl)ccc12 (3D coordinates assigned)
CCN(CC)CCNc1c(OC)cnc2cc(S(=O)(=O)Nc3ccccc3Cl)ccc12 (optimized conformer: 72.15892856202318 kcal/mol)

>  <smiles>  (4) 
CCN(CC)CCNc1c(OC)cnc2cc(S(=O)(=O)Nc3ccccc3Cl)ccc12

>  <score_type>  (4) 
oracle

>  <origin>  (4) 
adg

>  <m_score__min__energy>  (4) 
-8.7599999999999998

>  <m_primary>  (4) 
energy

$$$$
4:0
     RDKit          3D

 51 54  0  0  0  0  0  0  0  0999 V2000
   56.0860   31.1930   51.7800 C   0  0  0  0  0  0  0  0  0  0  0  0
   57.4350   31.5180   51.2900 N   0  0  0  0  0  0  0  0  0  0  0  0
   58.1020   32.4170   52.2480 C   0  0  0  0  0  0  0  0  0  0  0  0
   58.2180   30.2780   51.0890 C   0  0  0  0  0  0  0  0  0  0  0  0
   59.3110   30.4750   50.0310 C   0  0  0  0  0  0  0  0  0  0  0  0
   59.5190   31.8970   49.7360 N   0  0  0  0  0  0  0  0  0  0  0  0
   60.7330   32.3470   49.1130 C   0  0  0  0  0  0  0  0  0  0  0  0
   60.7960   32.4510   47.7140 C   0  0  0  0  0  0  0  0  0  0  0  0
   59.6300   32.1330   46.8600 C   0  0  0  0  0  0  0  0  0  0  0  0
   58.5780   33.0560   46.7360 C   0  0  0  0  0  0  0  0  0  0  0  0
   57.4600   32.7510   45.9510 C   0  0  0  0  0  0  0  0  0  0  0  0
   57.3920   31.5280   45.2820 C   0  0  0  0  0  0  0  0  0  0  0  0
   58.4320   30.5970   45.4110 C   0  0  0  0  0  0  0  0  0  0  0  0
   59.5590   30.9070   46.1770 C   0  0  0  0  0  0  0  0  0  0  0  0
   58.3240   29.3610   44.7670 O   0  0  0  0  0  0  0  0  0  0  0  0
   57.0750   28.9200   44.2270 C   0  0  0  0  0  0  0  0  0  0  0  0
   56.3310   30.0950   43.5810 C   0  0  0  0  0  0  0  0  0  0  0  0
   56.2930   31.2100   44.4770 O   0  0  0  0  0  0  0  0  0  0  0  0
   61.9880   32.8590   47.1090 C   0  0  0  0  0  0  0  0  0  0  0  0
   63.0950   33.1470   47.8450 N   0  0  0  0  0  0  0  0  0  0  0  0
   64.2340   33.4620   47.1270 O   0  0  0  0  0  0  0  0  0  0  0  0
   63.0540   33.1220   49.2240 C   0  0  0  0  0  0  0  0  0  0  0  0
   64.1610   33.5130   50.0120 C   0  0  0  0  0  0  0  0  0  0  0  0
   64.0800   33.5200   51.4050 C   0  0  0  0  0  0  0  0  0  0  0  0
   62.8970   33.1610   52.0410 C   0  0  0  0  0  0  0  0  0  0  0  0
   61.7860   32.7810   51.2910 C   0  0  0  0  0  0  0  0  0  0  0  0
   61.8530   32.7310   49.8840 C   0  0  0  0  0  0  0  0  0  0  0  0
   56.0856   31.1929   52.8800 H   0  0  0  0  0  0  0  0  0  0  0  0
   55.3717   31.9447   51.4131 H   0  0  0  0  0  0  0  0  0  0  0  0
   55.7924   30.1984   51.4131 H   0  0  0  0  0  0  0  0  0  0  0  0
   57.8662   32.0992   53.2743 H   0  0  0  0  0  0  0  0  0  0  0  0
   59.1902   32.3763   52.0924 H   0  0  0  0  0  0  0  0  0  0  0  0
   57.7476   33.4467   52.0924 H   0  0  0  0  0  0  0  0  0  0  0  0
   58.6884   29.9928   52.0415 H   0  0  0  0  0  0  0  0  0  0  0  0
   57.5355   29.4888   50.7407 H   0  0  0  0  0  0  0  0  0  0  0  0
   60.2523   30.0453   50.4043 H   0  0  0  0  0  0  0  0  0  0  0  0
   58.9927   29.9720   49.1060 H   0  0  0  0  0  0  0  0  0  0  0  0
   58.6910   32.5330   49.6830 H   0  0  0  0  0  0  0  0  0  0  0  0
   58.6332   34.0226   47.2581 H   0  0  0  0  0  0  0  0  0  0  0  0
   56.6361   33.4743   45.8615 H   0  0  0  0  0  0  0  0  0  0  0  0
   60.3911   30.1908   46.2453 H   0  0  0  0  0  0  0  0  0  0  0  0
   57.2608   28.1463   43.4675 H   0  0  0  0  0  0  0  0  0  0  0  0
   56.4584   28.5090   45.0400 H   0  0  0  0  0  0  0  0  0  0  0  0
   56.8499   30.3893   42.6568 H   0  0  0  0  0  0  0  0  0  0  0  0
   55.3010   29.7844   43.3515 H   0  0  0  0  0  0  0  0  0  0  0  0
   62.0319   32.9492   46.0136 H   0  0  0  0  0  0  0  0  0  0  0  0
   64.9000   32.7830   46.7920 H   0  0  0  0  0  0  0  0  0  0  0  0
   65.0976   33.8154   49.5208 H   0  0  0  0  0  0  0  0  0  0  0  0
   64.9564   33.8110   52.0028 H   0  0  0  0  0  0  0  0  0  0  0  0
   62.8380   33.1770   53.1393 H   0  0  0  0  0  0  0  0  0  0  0  0
   60.8480   32.5176   51.8016 H   0  0  0  0  0  0  0  0  0  0  0  0
  1  2  1  0
  2  3  1  0
  2  4  1  0
  4  5  1  0
  5  6  1  0
  6  7  1  0
  7  8  2  0
  8  9  1  0
  9 10  2  0
 10 11  1  0
 11 12  2  0
 12 13  1  0
 13 14  2  0
 13 15  1  0
 15 16  1  0
 16 17  1  0
 17 18  1  0
  8 19  1  0
 19 20  2  0
 20 21  1  0
 20 22  1  0
 22 23  2  0
 23 24  1  0
 24 25  2  0
 25 26  1  0
 26 27  2  0
 27  7  1  0
 14  9  1  0
 27 22  1  0
 18 12  1  0
  1 28  1  0
  1 29  1  0
  1 30  1  0
  3 31  1  0
  3 32  1  0
  3 33  1  0
  4 34  1  0
  4 35  1  0
  5 36  1  0
  5 37  1  0
  6 38  1  0
 10 39  1  0
 11 40  1  0
 14 41  1  0
 16 42  1  0
 16 43  1  0
 17 44  1  0
 17 45  1  0
 19 46  1  0
 21 47  1  0
 23 48  1  0
 24 49  1  0
 25 50  1  0
 26 51  1  0
M  CHG  1  20   1
M  END
>  <UniqueID>  (5) 
5

>  <SMILES>  (5) 
CN(C)CCNc1c(-c2ccc3c(c2)OCCO3)c[n+](O)c2ccccc12

>  <Energy>  (5) 
74.75302409795077

>  <Genealogy>  (5) 
CN(C)CCNc1c(-c2ccc3c(c2)OCCO3)c[n+](O)c2ccccc12 (protonated)
CN(C)CCNc1c(-c2ccc3c(c2)OCCO3)c[n+](O)c2ccccc12 (3D coordinates assigned)
CN(C)CCNc1c(-c2ccc3c(c2)OCCO3)c[n+](O)c2ccccc12 (nonaromatic ring conformer: 74.75302409795077 kcal/mol)

>  <smiles>  (5) 
CN(C)CCNc1c(-c2ccc3c(c2)OCCO3)c[n+]([O-])c2ccccc12

>  <score_type>  (5) 
oracle

>  <origin>  (5) 
adg

>  <m_score__min__energy>  (5) 
-6.2199999999999998

>  <m_primary>  (5) 
energy

$$$$
5:0
     RDKit          3D

 65 67  0  0  0  0  0  0  0  0999 V2000
   67.1820   33.1440   50.3270 C   0  0  0  0  0  0  0  0  0  0  0  0
   66.5390   31.7620   50.5110 C   0  0  0  0  0  0  0  0  0  0  0  0
   65.0630   31.7890   50.3350 N   0  0  0  0  0  0  0  0  0  0  0  0
   64.3890   30.8150   51.2350 C   0  0  0  0  0  0  0  0  0  0  0  0
   62.9330   30.4820   50.8590 C   0  0  0  0  0  0  0  0  0  0  0  0
   64.5150   33.1680   50.4770 C   0  0  0  0  0  0  0  0  0  0  0  0
   63.7450   33.6320   49.2300 C   0  0  0  0  0  0  0  0  0  0  0  0
   63.3850   32.4970   48.4690 O   0  0  0  0  0  0  0  0  0  0  0  0
   63.7650   32.6800   47.1210 C   0  0  0  0  0  0  0  0  0  0  0  0
   62.9660   33.8400   46.5210 C   0  0  0  0  0  0  0  0  0  0  0  0
   61.5040   33.8550   46.9900 C   0  0  0  0  0  0  0  0  0  0  0  0
   60.5960   33.8650   45.8380 N   0  0  0  0  0  0  0  0  0  0  0  0
   59.6350   34.9690   45.9510 C   0  0  0  0  0  0  0  0  0  0  0  0
   58.2730   34.5650   45.3710 C   0  0  0  0  0  0  0  0  0  0  0  0
   57.5810   33.5970   46.2270 N   0  0  0  0  0  0  0  0  0  0  0  0
   58.0710   32.2690   46.4850 C   0  0  0  0  0  0  0  0  0  0  0  0
   57.8590   31.2200   45.5640 C   0  0  0  0  0  0  0  0  0  0  0  0
   57.0900   31.4330   44.4020 C   0  0  0  0  0  0  0  0  0  0  0  0
   56.8580   30.3930   43.5050 C   0  0  0  0  0  0  0  0  0  0  0  0
   57.3760   29.1280   43.7520 C   0  0  0  0  0  0  0  0  0  0  0  0
   58.1260   28.8860   44.9020 C   0  0  0  0  0  0  0  0  0  0  0  0
   58.3980   29.9200   45.8320 C   0  0  0  0  0  0  0  0  0  0  0  0
   59.1490   29.6930   46.9780 N   0  0  0  0  0  0  0  0  0  0  0  0
   59.7970   28.3860   47.2080 C   0  0  0  0  0  0  0  0  0  0  0  0
   59.2720   30.7030   47.9040 C   0  0  0  0  0  0  0  0  0  0  0  0
   59.9000   30.6160   49.1670 C   0  0  0  0  0  0  0  0  0  0  0  0
   59.9140   31.8200   49.8620 C   0  0  0  0  0  0  0  0  0  0  0  0
   59.1380   32.9890   48.9360 S   0  0  0  0  0  0  0  0  0  0  0  0
   58.7660   31.9710   47.6510 C   0  0  0  0  0  0  0  0  0  0  0  0
   67.3880   33.5867   51.3127 H   0  0  0  0  0  0  0  0  0  0  0  0
   68.1237   33.0388   49.7682 H   0  0  0  0  0  0  0  0  0  0  0  0
   66.4950   33.7966   49.7682 H   0  0  0  0  0  0  0  0  0  0  0  0
   66.9694   31.0720   49.7703 H   0  0  0  0  0  0  0  0  0  0  0  0
   66.7454   31.4334   51.5403 H   0  0  0  0  0  0  0  0  0  0  0  0
   64.8640   31.4580   49.3610 H   0  0  0  0  0  0  0  0  0  0  0  0
   64.9678   29.8797   51.2205 H   0  0  0  0  0  0  0  0  0  0  0  0
   64.3500   31.2887   52.2270 H   0  0  0  0  0  0  0  0  0  0  0  0
   62.3396   30.3463   51.7752 H   0  0  0  0  0  0  0  0  0  0  0  0
   62.5095   31.3065   50.2666 H   0  0  0  0  0  0  0  0  0  0  0  0
   62.9100   29.5554   50.2666 H   0  0  0  0  0  0  0  0  0  0  0  0
   63.8328   33.1884   51.3396 H   0  0  0  0  0  0  0  0  0  0  0  0
   65.3661   33.8510   50.6151 H   0  0  0  0  0  0  0  0  0  0  0  0
   62.8385   34.1748   49.5359 H   0  0  0  0  0  0  0  0  0  0  0  0
   64.3772   34.3009   48.6276 H   0  0  0  0  0  0  0  0  0  0  0  0
   64.8396   32.9095   47.0704 H   0  0  0  0  0  0  0  0  0  0  0  0
   63.5606   31.7603   46.5533 H   0  0  0  0  0  0  0  0  0  0  0  0
   63.4412   34.7863   46.8188 H   0  0  0  0  0  0  0  0  0  0  0  0
   62.9640   33.7132   45.4283 H   0  0  0  0  0  0  0  0  0  0  0  0
   61.3091   32.9585   47.5970 H   0  0  0  0  0  0  0  0  0  0  0  0
   61.3310   34.7621   47.5878 H   0  0  0  0  0  0  0  0  0  0  0  0
   61.1730   34.0300   44.9810 H   0  0  0  0  0  0  0  0  0  0  0  0
   59.5117   35.2330   47.0117 H   0  0  0  0  0  0  0  0  0  0  0  0
   60.0186   35.8307   45.3849 H   0  0  0  0  0  0  0  0  0  0  0  0
   57.6472   35.4643   45.2727 H   0  0  0  0  0  0  0  0  0  0  0  0
   58.4451   34.0934   44.3922 H   0  0  0  0  0  0  0  0  0  0  0  0
   56.7750   33.9420   46.7950 H   0  0  0  0  0  0  0  0  0  0  0  0
   56.6694   32.4295   44.2018 H   0  0  0  0  0  0  0  0  0  0  0  0
   56.2626   30.5740   42.5980 H   0  0  0  0  0  0  0  0  0  0  0  0
   57.1934   28.3128   43.0364 H   0  0  0  0  0  0  0  0  0  0  0  0
   58.5137   27.8741   45.0909 H   0  0  0  0  0  0  0  0  0  0  0  0
   59.8861   28.2062   48.2895 H   0  0  0  0  0  0  0  0  0  0  0  0
   59.1891   27.5902   46.7529 H   0  0  0  0  0  0  0  0  0  0  0  0
   60.7984   28.3881   46.7529 H   0  0  0  0  0  0  0  0  0  0  0  0
   60.3354   29.6862   49.5618 H   0  0  0  0  0  0  0  0  0  0  0  0
   60.3596   31.9812   50.8547 H   0  0  0  0  0  0  0  0  0  0  0  0
  1  2  1  0
  2  3  1  0
  3  4  1  0
  4  5  1  0
  3  6  1  0
  6  7  1  0
  7  8  1  0
  8  9  1  0
  9 10  1  0
 10 11  1  0
 11 12  1  0
 12 13  1  0
 13 14  1  0
 14 15  1  0
 15 16  1  0
 16 17  2  0
 17 18  1  0
 18 19  2  0
 19 20  1  0
 20 21  2  0
 21 22  1  0
 22 23  2  0
 23 24  1  0
 23 25  1  0
 25 26  1  0
 26 27  2  0
 27 28  1  0
 28 29  1  0
 29 16  1  0
 22 17  1  0
 29 25  2  0
  1 30  1  0
  1 31  1  0
  1 32  1  0
  2 33  1  0
  2 34  1  0
  3 35  1  0
  4 36  1  0
  4 37  1  0
  5 38  1  0
  5 39  1  0
  5 40  1  0
  6 41  1  0
  6 42  1  0
  7 43  1  0
  7 44  1  0
  9 45  1  0
  9 46  1  0
 10 47  1  0
 10 48  1  0
 11 49  1  0
 11 50  1  0
 12 51  1  0
 13 52  1  0
 13 53  1  0
 14 54  1  0
 14 55  1  0
 15 56  1  0
 18 57  1  0
 19 58  1  0
 20 59  1  0
 21 60  1  0
 24 61  1  0
 24 62  1  0
 24 63  1  0
 26 64  1  0
 27 65  1  0
M  CHG  2   3   1  23   1
M  END
>  <UniqueID>  (6) 
6

>  <SMILES>  (6) 
CC[NH+](CC)CCOCCCNCCNc1c2ccccc2[n+](C)c2ccsc12

>  <Energy>  (6) 
103.97838418836562

>  <Genealogy>  (6) 
CC[NH+](CC)CCOCCCNCCNc1c2ccccc2[n+](C)c2ccsc12 (protonated)
CC[NH+](CC)CCOCCCNCCNc1c2ccccc2[n+](C)c2ccsc12 (3D coordinates assigned)
CC[NH+](CC)CCOCCCNCCNc1c2ccccc2[n+](C)c2ccsc12 (optimized conformer: 103.97838418836562 kcal/mol)

>  <smiles>  (6) 
CCN(CC)CCOCCCNCCNc1c2ccccc2[n+](C)c2ccsc12

>  <score_type>  (6) 
oracle

>  <origin>  (6) 
adg

>  <m_score__min__energy>  (6) 
-3.54

>  <m_primary>  (6) 
energy

$$$$
6:0
     RDKit          3D

 49 51  0  0  0  0  0  0  0  0999 V2000
   63.7660   32.0930   47.1350 C   0  0  0  0  0  0  0  0  0  0  0  0
   62.8480   33.2760   47.4380 C   0  0  0  0  0  0  0  0  0  0  0  0
   61.7490   32.8870   48.3510 N   0  0  0  0  0  0  0  0  0  0  0  0
   61.2600   34.0520   49.1140 C   0  0  0  0  0  0  0  0  0  0  0  0
   62.1890   31.8140   49.2750 C   0  0  0  0  0  0  0  0  0  0  0  0
   60.9940   31.0700   49.9010 C   0  0  0  0  0  0  0  0  0  0  0  0
   60.1070   30.3270   48.8880 C   0  0  0  0  0  0  0  0  0  0  0  0
   60.4780   30.6270   47.5000 N   0  0  0  0  0  0  0  0  0  0  0  0
   59.5280   30.6360   46.4170 C   0  0  0  0  0  0  0  0  0  0  0  0
   59.1460   29.4250   45.8110 C   0  0  0  0  0  0  0  0  0  0  0  0
   59.6480   28.1910   46.2840 C   0  0  0  0  0  0  0  0  0  0  0  0
   59.3450   27.0020   45.6290 C   0  0  0  0  0  0  0  0  0  0  0  0
   58.5560   27.0170   44.4860 C   0  0  0  0  0  0  0  0  0  0  0  0
   58.0370   28.2190   44.0090 C   0  0  0  0  0  0  0  0  0  0  0  0
   58.2840   29.4460   44.6810 C   0  0  0  0  0  0  0  0  0  0  0  0
   57.7340   30.6380   44.2460 N   0  0  0  0  0  0  0  0  0  0  0  0
   56.6440   30.6250   43.2430 C   0  0  0  0  0  0  0  0  0  0  0  0
   58.1660   31.8370   44.7800 C   0  0  0  0  0  0  0  0  0  0  0  0
   57.7930   33.0840   44.2150 C   0  0  0  0  0  0  0  0  0  0  0  0
   58.1440   34.2870   44.8270 C   0  0  0  0  0  0  0  0  0  0  0  0
   58.8720   34.2810   46.0110 C   0  0  0  0  0  0  0  0  0  0  0  0
   59.1780   35.4520   46.6220 F   0  0  0  0  0  0  0  0  0  0  0  0
   59.3010   33.0760   46.5570 C   0  0  0  0  0  0  0  0  0  0  0  0
   59.0130   31.8490   45.9210 C   0  0  0  0  0  0  0  0  0  0  0  0
   64.1124   31.6466   48.0788 H   0  0  0  0  0  0  0  0  0  0  0  0
   63.2137   31.3397   46.5540 H   0  0  0  0  0  0  0  0  0  0  0  0
   64.6328   32.4409   46.5540 H   0  0  0  0  0  0  0  0  0  0  0  0
   63.4384   34.0757   47.9090 H   0  0  0  0  0  0  0  0  0  0  0  0
   62.4061   33.6224   46.4921 H   0  0  0  0  0  0  0  0  0  0  0  0
   61.3460   33.8471   50.1913 H   0  0  0  0  0  0  0  0  0  0  0  0
   61.8629   34.9362   48.8597 H   0  0  0  0  0  0  0  0  0  0  0  0
   60.2066   34.2410   48.8597 H   0  0  0  0  0  0  0  0  0  0  0  0
   62.8036   31.0931   48.7160 H   0  0  0  0  0  0  0  0  0  0  0  0
   62.7652   32.2792   50.0883 H   0  0  0  0  0  0  0  0  0  0  0  0
   61.3847   30.3351   50.6202 H   0  0  0  0  0  0  0  0  0  0  0  0
   60.3595   31.8353   50.3719 H   0  0  0  0  0  0  0  0  0  0  0  0
   60.2085   29.2446   49.0556 H   0  0  0  0  0  0  0  0  0  0  0  0
   59.0698   30.6606   49.0395 H   0  0  0  0  0  0  0  0  0  0  0  0
   61.4510   30.9570   47.3120 H   0  0  0  0  0  0  0  0  0  0  0  0
   60.2855   28.1709   47.1802 H   0  0  0  0  0  0  0  0  0  0  0  0
   59.7310   26.0478   46.0170 H   0  0  0  0  0  0  0  0  0  0  0  0
   58.3403   26.0776   43.9560 H   0  0  0  0  0  0  0  0  0  0  0  0
   57.4247   28.2178   43.0952 H   0  0  0  0  0  0  0  0  0  0  0  0
   55.6720   30.6134   43.7579 H   0  0  0  0  0  0  0  0  0  0  0  0
   56.7146   31.5241   42.6131 H   0  0  0  0  0  0  0  0  0  0  0  0
   56.7360   29.7279   42.6131 H   0  0  0  0  0  0  0  0  0  0  0  0
   57.2170   33.1022   43.2780 H   0  0  0  0  0  0  0  0  0  0  0  0
   57.8441   35.2424   44.3718 H   0  0  0  0  0  0  0  0  0  0  0  0
   59.8723   33.0790   47.4970 H   0  0  0  0  0  0  0  0  0  0  0  0
  1  2  1  0
  2  3  1  0
  3  4  1  0
  3  5  1  0
  5  6  1  0
  6  7  1  0
  7  8  1  0
  8  9  1  0
  9 10  2  0
 10 11  1  0
 11 12  2  0
 12 13  1  0
 13 14  2  0
 14 15  1  0
 15 16  2  0
 16 17  1  0
 16 18  1  0
 18 19  2  0
 19 20  1  0
 20 21  2  0
 21 22  1  0
 21 23  1  0
 23 24  2  0
 24  9  1  0
 15 10  1  0
 24 18  1  0
  1 25  1  0
  1 26  1  0
  1 27  1  0
  2 28  1  0
  2 29  1  0
  4 30  1  0
  4 31  1  0
  4 32  1  0
  5 33  1  0
  5 34  1  0
  6 35  1  0
  6 36  1  0
  7 37  1  0
  7 38  1  0
  8 39  1  0
 11 40  1  0
 12 41  1  0
 13 42  1  0
 14 43  1  0
 17 44  1  0
 17 45  1  0
 17 46  1  0
 19 47  1  0
 20 48  1  0
 23 49  1  0
M  CHG  1  16   1
M  END
>  <UniqueID>  (7) 
7

>  <SMILES>  (7) 
CCN(C)CCCNc1c2ccccc2[n+](C)c2ccc(F)cc12

>  <Energy>  (7) 
71.90301655731975

>  <Genealogy>  (7) 
CCN(C)CCCNc1c2ccccc2[n+](C)c2ccc(F)cc12 (3D coordinates assigned)
CCN(C)CCCNc1c2ccccc2[n+](C)c2ccc(F)cc12 (optimized conformer: 71.90301655731975 kcal/mol)

>  <smiles>  (7) 
CCN(C)CCCNc1c2ccccc2[n+](C)c2ccc(F)cc12

>  <score_type>  (7) 
oracle

>  <origin>  (7) 
adg

>  <m_score__min__energy>  (7) 
-5.2999999999999998

>  <m_primary>  (7) 
energy

$$$$
7:0
     RDKit          3D

 77 79  0  0  0  0  0  0  0  0999 V2000
   56.6180   31.3220   51.9870 C   0  0  0  0  0  0  0  0  0  0  0  0
   57.3870   32.6430   52.1340 C   0  0  0  0  0  0  0  0  0  0  0  0
   58.8360   32.5380   51.8370 N   0  0  0  0  0  0  0  0  0  0  0  0
   59.6770   32.1450   52.9910 C   0  0  0  0  0  0  0  0  0  0  0  0
   60.7830   33.1640   53.2470 C   0  0  0  0  0  0  0  0  0  0  0  0
   59.3610   33.7270   51.1270 C   0  0  0  0  0  0  0  0  0  0  0  0
   59.4450   33.4430   49.6250 C   0  0  0  0  0  0  0  0  0  0  0  0
   58.6220   32.2910   49.2550 N   0  0  0  0  0  0  0  0  0  0  0  0
   58.8490   31.6090   48.0130 C   0  0  0  0  0  0  0  0  0  0  0  0
   58.4420   32.2200   46.8130 C   0  0  0  0  0  0  0  0  0  0  0  0
   58.0270   33.5700   46.7890 C   0  0  0  0  0  0  0  0  0  0  0  0
   57.6930   34.1890   45.5870 C   0  0  0  0  0  0  0  0  0  0  0  0
   57.7700   33.4810   44.3940 C   0  0  0  0  0  0  0  0  0  0  0  0
   58.1400   32.1360   44.4000 C   0  0  0  0  0  0  0  0  0  0  0  0
   58.4400   31.4660   45.6150 C   0  0  0  0  0  0  0  0  0  0  0  0
   58.7070   30.1130   45.6530 N   0  0  0  0  0  0  0  0  0  0  0  0
   58.3490   29.2580   44.4980 C   0  0  0  0  0  0  0  0  0  0  0  0
   59.2930   29.5550   46.7760 C   0  0  0  0  0  0  0  0  0  0  0  0
   59.7980   28.2330   46.7550 C   0  0  0  0  0  0  0  0  0  0  0  0
   60.3700   27.6620   47.8820 C   0  0  0  0  0  0  0  0  0  0  0  0
   60.5240   28.4050   49.0410 C   0  0  0  0  0  0  0  0  0  0  0  0
   60.0980   29.7420   49.1040 C   0  0  0  0  0  0  0  0  0  0  0  0
   60.4970   30.5500   50.2330 N   0  0  0  0  0  0  0  0  0  0  0  0
   61.8750   30.9610   50.5090 C   0  0  0  0  0  0  0  0  0  0  0  0
   62.6220   31.2420   49.2020 C   0  0  0  0  0  0  0  0  0  0  0  0
   62.5340   32.6930   48.8680 N   0  0  0  0  0  0  0  0  0  0  0  0
   62.4170   32.8770   47.3860 C   0  0  0  0  0  0  0  0  0  0  0  0
   61.3290   33.8920   47.0000 C   0  0  0  0  0  0  0  0  0  0  0  0
   63.7610   33.1450   46.6830 C   0  0  0  0  0  0  0  0  0  0  0  0
   63.5540   33.5180   49.5980 C   0  0  0  0  0  0  0  0  0  0  0  0
   64.7530   32.6480   50.0510 C   0  0  0  0  0  0  0  0  0  0  0  0
   62.9900   34.1850   50.8690 C   0  0  0  0  0  0  0  0  0  0  0  0
   59.4160   30.3120   47.9820 C   0  0  0  0  0  0  0  0  0  0  0  0
   56.3844   30.9208   52.9842 H   0  0  0  0  0  0  0  0  0  0  0  0
   55.6831   31.5013   51.4357 H   0  0  0  0  0  0  0  0  0  0  0  0
   57.2356   30.5976   51.4357 H   0  0  0  0  0  0  0  0  0  0  0  0
   56.9457   33.3778   51.4446 H   0  0  0  0  0  0  0  0  0  0  0  0
   57.3010   32.9436   53.1886 H   0  0  0  0  0  0  0  0  0  0  0  0
   59.0433   32.0720   53.8872 H   0  0  0  0  0  0  0  0  0  0  0  0
   60.1452   31.1759   52.7637 H   0  0  0  0  0  0  0  0  0  0  0  0
   60.9208   33.2910   54.3309 H   0  0  0  0  0  0  0  0  0  0  0  0
   61.7214   32.8074   52.7973 H   0  0  0  0  0  0  0  0  0  0  0  0
   60.5043   34.1284   52.7973 H   0  0  0  0  0  0  0  0  0  0  0  0
   58.6893   34.5808   51.2996 H   0  0  0  0  0  0  0  0  0  0  0  0
   60.3661   33.9612   51.5077 H   0  0  0  0  0  0  0  0  0  0  0  0
   59.0930   34.3269   49.0729 H   0  0  0  0  0  0  0  0  0  0  0  0
   60.4916   33.2176   49.3722 H   0  0  0  0  0  0  0  0  0  0  0  0
   57.9930   31.8420   49.9570 H   0  0  0  0  0  0  0  0  0  0  0  0
   57.9670   34.1380   47.7291 H   0  0  0  0  0  0  0  0  0  0  0  0
   57.3678   35.2398   45.5821 H   0  0  0  0  0  0  0  0  0  0  0  0
   57.5387   33.9822   43.4426 H   0  0  0  0  0  0  0  0  0  0  0  0
   58.2002   31.5864   43.4491 H   0  0  0  0  0  0  0  0  0  0  0  0
   57.9480   28.3002   44.8612 H   0  0  0  0  0  0  0  0  0  0  0  0
   57.5881   29.7662   43.8875 H   0  0  0  0  0  0  0  0  0  0  0  0
   59.2450   29.0725   43.8875 H   0  0  0  0  0  0  0  0  0  0  0  0
   59.7356   27.6468   45.8263 H   0  0  0  0  0  0  0  0  0  0  0  0
   60.7030   26.6140   47.8555 H   0  0  0  0  0  0  0  0  0  0  0  0
   60.9866   27.9413   49.9247 H   0  0  0  0  0  0  0  0  0  0  0  0
   59.7540   31.0450   50.7750 H   0  0  0  0  0  0  0  0  0  0  0  0
   61.8646   31.8733   51.1235 H   0  0  0  0  0  0  0  0  0  0  0  0
   62.3882   30.1490   51.0450 H   0  0  0  0  0  0  0  0  0  0  0  0
   63.6784   30.9579   49.3175 H   0  0  0  0  0  0  0  0  0  0  0  0
   62.1654   30.6557   48.3910 H   0  0  0  0  0  0  0  0  0  0  0  0
   62.0842   31.9022   46.9999 H   0  0  0  0  0  0  0  0  0  0  0  0
   60.8791   34.3117   47.9118 H   0  0  0  0  0  0  0  0  0  0  0  0
   61.7774   34.7020   46.4060 H   0  0  0  0  0  0  0  0  0  0  0  0
   60.5520   33.3885   46.4060 H   0  0  0  0  0  0  0  0  0  0  0  0
   64.5452   33.3014   47.4384 H   0  0  0  0  0  0  0  0  0  0  0  0
   64.0245   32.2817   46.0543 H   0  0  0  0  0  0  0  0  0  0  0  0
   63.6732   34.0433   46.0543 H   0  0  0  0  0  0  0  0  0  0  0  0
   63.8630   34.2915   48.8796 H   0  0  0  0  0  0  0  0  0  0  0  0
   64.7913   32.6202   51.1500 H   0  0  0  0  0  0  0  0  0  0  0  0
   64.6321   31.6261   49.6623 H   0  0  0  0  0  0  0  0  0  0  0  0
   65.6870   33.0800   49.6623 H   0  0  0  0  0  0  0  0  0  0  0  0
   63.4078   33.6909   51.7586 H   0  0  0  0  0  0  0  0  0  0  0  0
   63.2658   35.2498   50.8775 H   0  0  0  0  0  0  0  0  0  0  0  0
   61.8941   34.0900   50.8775 H   0  0  0  0  0  0  0  0  0  0  0  0
  1  2  1  0
  2  3  1  0
  3  4  1  0
  4  5  1  0
  3  6  1  0
  6  7  1  0
  7  8  1  0
  8  9  1  0
  9 10  2  0
 10 11  1  0
 11 12  2  0
 12 13  1  0
 13 14  2  0
 14 15  1  0
 15 16  2  0
 16 17  1  0
 16 18  1  0
 18 19  2  0
 19 20  1  0
 20 21  2  0
 21 22  1  0
 22 23  1  0
 23 24  1  0
 24 25  1  0
 25 26  1  0
 26 27  1  0
 27 28  1  0
 27 29  1  0
 26 30  1  0
 30 31  1  0
 30 32  1  0
 22 33  2  0
 33  9  1  0
 15 10  1  0
 33 18  1  0
  1 34  1  0
  1 35  1  0
  1 36  1  0
  2 37  1  0
  2 38  1  0
  4 39  1  0
  4 40  1  0
  5 41  1  0
  5 42  1  0
  5 43  1  0
  6 44  1  0
  6 45  1  0
  7 46  1  0
  7 47  1  0
  8 48  1  0
 11 49  1  0
 12 50  1  0
 13 51  1  0
 14 52  1  0
 17 53  1  0
 17 54  1  0
 17 55  1  0
 19 56  1  0
 20 57  1  0
 21 58  1  0
 23 59  1  0
 24 60  1  0
 24 61  1  0
 25 62  1  0
 25 63  1  0
 27 64  1  0
 28 65  1  0
 28 66  1  0
 28 67  1  0
 29 68  1  0
 29 69  1  0
 29 70  1  0
 30 71  1  0
 31 72  1  0
 31 73  1  0
 31 74  1  0
 32 75  1  0
 32 76  1  0
 32 77  1  0
M  CHG  1  16   1
M  END
>  <UniqueID>  (8) 
8

>  <SMILES>  (8) 
CCN(CC)CCNc1c2ccccc2[n+](C)c2cccc(NCCN(C(C)C)C(C)C)c12

>  <Energy>  (8) 
118.43633574397431

>  <Genealogy>  (8) 
CCN(CC)CCNc1c2ccccc2[n+](C)c2cccc(NCCN(C(C)C)C(C)C)c12 (3D coordinates assigned)
CCN(CC)CCNc1c2ccccc2[n+](C)c2cccc(NCCN(C(C)C)C(C)C)c12 (optimized conformer: 118.43633574397431 kcal/mol)

>  <smiles>  (8) 
CCN(CC)CCNc1c2ccccc2[n+](C)c2cccc(NCCN(C(C)C)C(C)C)c12

>  <score_type>  (8) 
oracle

>  <origin>  (8) 
adg

>  <m_score__min__energy>  (8) 
-5.8300000000000001

>  <m_primary>  (8) 
energy

$$$$
8:0
     RDKit          3D

 55 57  0  0  0  0  0  0  0  0999 V2000
   64.1130   33.4510   48.3800 C   0  0  0  0  0  0  0  0  0  0  0  0
   63.7390   31.9940   48.6310 C   0  0  0  0  0  0  0  0  0  0  0  0
   62.9710   31.8350   49.9560 C   0  0  0  0  0  0  0  0  0  0  0  0
   61.5380   32.2100   49.8280 N   0  0  2  0  0  0  0  0  0  0  0  0
   61.1690   33.3130   50.7670 C   0  0  0  0  0  0  0  0  0  0  0  0
   59.6500   33.5040   50.8560 C   0  0  0  0  0  0  0  0  0  0  0  0
   60.6850   31.0090   50.0470 C   0  0  0  0  0  0  0  0  0  0  0  0
   59.7920   30.6830   48.8310 C   0  0  0  0  0  0  0  0  0  0  0  0
   60.4560   30.9920   47.5580 N   0  0  0  0  0  0  0  0  0  0  0  0
   59.7470   30.9770   46.3070 C   0  0  0  0  0  0  0  0  0  0  0  0
   59.3880   29.7420   45.7390 C   0  0  0  0  0  0  0  0  0  0  0  0
   59.9730   28.5430   46.2030 C   0  0  0  0  0  0  0  0  0  0  0  0
   59.5680   27.3100   45.6990 C   0  0  0  0  0  0  0  0  0  0  0  0
   58.5710   27.2500   44.7330 C   0  0  0  0  0  0  0  0  0  0  0  0
   57.9980   28.4210   44.2410 C   0  0  0  0  0  0  0  0  0  0  0  0
   58.4180   29.6950   44.7050 C   0  0  0  0  0  0  0  0  0  0  0  0
   57.8770   30.8650   44.2100 N   0  0  0  0  0  0  0  0  0  0  0  0
   57.0380   30.8320   42.9910 C   0  0  0  0  0  0  0  0  0  0  0  0
   58.1450   32.0720   44.8290 C   0  0  0  0  0  0  0  0  0  0  0  0
   57.3670   33.2250   44.5620 C   0  0  0  0  0  0  0  0  0  0  0  0
   57.6690   34.4480   45.1470 C   0  0  0  0  0  0  0  0  0  0  0  0
   58.7770   34.5720   45.9730 C   0  0  0  0  0  0  0  0  0  0  0  0
   59.5620   33.4560   46.2830 C   0  0  0  0  0  0  0  0  0  0  0  0
   60.7920   33.6670   46.9910 N   0  0  0  0  0  0  0  0  0  0  0  0
   61.7930   32.9680   46.7300 O   0  0  0  0  0  0  0  0  0  0  0  0
   60.7820   34.4050   48.1530 O   0  0  0  0  0  0  0  0  0  0  0  0
   59.1860   32.1700   45.7960 C   0  0  0  0  0  0  0  0  0  0  0  0
   64.2454   33.9666   49.3426 H   0  0  0  0  0  0  0  0  0  0  0  0
   65.0516   33.4953   47.8082 H   0  0  0  0  0  0  0  0  0  0  0  0
   63.3118   33.9420   47.8082 H   0  0  0  0  0  0  0  0  0  0  0  0
   63.1057   31.6390   47.8047 H   0  0  0  0  0  0  0  0  0  0  0  0
   64.6648   31.4031   48.6927 H   0  0  0  0  0  0  0  0  0  0  0  0
   63.0342   30.7849   50.2773 H   0  0  0  0  0  0  0  0  0  0  0  0
   63.4301   32.5099   50.6933 H   0  0  0  0  0  0  0  0  0  0  0  0
   61.4010   32.5260   48.8440 H   0  0  0  0  0  0  0  0  0  0  0  0
   61.5564   33.0724   51.7680 H   0  0  0  0  0  0  0  0  0  0  0  0
   61.6082   34.2466   50.3856 H   0  0  0  0  0  0  0  0  0  0  0  0
   59.3465   33.5422   51.9126 H   0  0  0  0  0  0  0  0  0  0  0  0
   59.3690   34.4446   50.3596 H   0  0  0  0  0  0  0  0  0  0  0  0
   59.1449   32.6623   50.3596 H   0  0  0  0  0  0  0  0  0  0  0  0
   61.3371   30.1458   50.2463 H   0  0  0  0  0  0  0  0  0  0  0  0
   60.0220   31.2230   50.8983 H   0  0  0  0  0  0  0  0  0  0  0  0
   59.5439   29.6115   48.8505 H   0  0  0  0  0  0  0  0  0  0  0  0
   58.8868   31.3041   48.8999 H   0  0  0  0  0  0  0  0  0  0  0  0
   61.4990   30.9870   47.5380 H   0  0  0  0  0  0  0  0  0  0  0  0
   60.7583   28.5840   46.9721 H   0  0  0  0  0  0  0  0  0  0  0  0
   60.0366   26.3846   46.0650 H   0  0  0  0  0  0  0  0  0  0  0  0
   58.2326   26.2739   44.3551 H   0  0  0  0  0  0  0  0  0  0  0  0
   57.2065   28.3570   43.4798 H   0  0  0  0  0  0  0  0  0  0  0  0
   55.9767   30.7903   43.2773 H   0  0  0  0  0  0  0  0  0  0  0  0
   57.2216   31.7381   42.3949 H   0  0  0  0  0  0  0  0  0  0  0  0
   57.2922   29.9432   42.3949 H   0  0  0  0  0  0  0  0  0  0  0  0
   56.5080   33.1506   43.8789 H   0  0  0  0  0  0  0  0  0  0  0  0
   57.0278   35.3209   44.9549 H   0  0  0  0  0  0  0  0  0  0  0  0
   59.0405   35.5562   46.3877 H   0  0  0  0  0  0  0  0  0  0  0  0
  1  2  1  0
  2  3  1  0
  3  4  1  0
  4  5  1  0
  5  6  1  0
  4  7  1  0
  7  8  1  0
  8  9  1  0
  9 10  1  0
 10 11  2  0
 11 12  1  0
 12 13  2  0
 13 14  1  0
 14 15  2  0
 15 16  1  0
 16 17  2  0
 17 18  1  0
 17 19  1  0
 19 20  2  0
 20 21  1  0
 21 22  2  0
 22 23  1  0
 23 24  1  0
 24 25  2  0
 24 26  1  0
 23 27  2  0
 27 10  1  0
 16 11  1  0
 27 19  1  0
  1 28  1  0
  1 29  1  0
  1 30  1  0
  2 31  1  0
  2 32  1  0
  3 33  1  0
  3 34  1  0
  4 35  1  6
  5 36  1  0
  5 37  1  0
  6 38  1  0
  6 39  1  0
  6 40  1  0
  7 41  1  0
  7 42  1  0
  8 43  1  0
  8 44  1  0
  9 45  1  0
 12 46  1  0
 13 47  1  0
 14 48  1  0
 15 49  1  0
 18 50  1  0
 18 51  1  0
 18 52  1  0
 20 53  1  0
 21 54  1  0
 22 55  1  0
M  CHG  4   4   1  17   1  24   1  26  -1
M  END
>  <UniqueID>  (9) 
9

>  <SMILES>  (9) 
CCC[N@H+](CC)CCNc1c2ccccc2[n+](C)c2cccc([N+](=O)[O-])c12

>  <Energy>  (9) 
90.80271699742914

>  <Genealogy>  (9) 
CCC[NH+](CC)CCNc1c2ccccc2[n+](C)c2cccc([N+](=O)[O-])c12 (protonated)
CCC[N@H+](CC)CCNc1c2ccccc2[n+](C)c2cccc([N+](=O)[O-])c12 (chirality)
CCC[N@H+](CC)CCNc1c2ccccc2[n+](C)c2cccc([N+](=O)[O-])c12 (3D coordinates assigned)
CCC[N@H+](CC)CCNc1c2ccccc2[n+](C)c2cccc([N+](=O)[O-])c12 (optimized conformer: 90.80271699742914 kcal/mol)

>  <smiles>  (9) 
CCCN(CC)CCNc1c2ccccc2[n+](C)c2cccc([N+](=O)[O-])c12

>  <score_type>  (9) 
oracle

>  <origin>  (9) 
adg

>  <m_score__min__energy>  (9) 
-4.5700000000000003

>  <m_primary>  (9) 
energy

$$$$
9:0
     RDKit          3D

 39 39  0  0  0  0  0  0  0  0999 V2000
   60.2550   29.8360   46.0030 C   0  0  0  0  0  0  0  0  0  0  0  0
   60.2470   28.6530   45.0360 C   0  0  0  0  0  0  0  0  0  0  0  0
   59.0910   27.6890   45.3550 C   0  0  0  0  0  0  0  0  0  0  0  0
   58.1340   27.5280   44.1690 C   0  0  0  0  0  0  0  0  0  0  0  0
   57.7780   28.8330   43.6110 N   0  0  0  0  0  0  0  0  0  0  0  0
   57.0830   29.8420   44.3600 C   0  0  0  0  0  0  0  0  0  0  0  0
   56.6230   29.5800   45.5050 O   0  0  0  0  0  0  0  0  0  0  0  0
   56.8890   31.2160   43.7820 C   0  0  2  0  0  0  0  0  0  0  0  0
   58.1290   31.6200   42.9680 C   0  0  0  0  0  0  0  0  0  0  0  0
   56.6240   32.1620   44.8870 N   0  0  0  0  0  0  0  0  0  0  0  0
   57.3870   33.4170   44.7830 C   0  0  0  0  0  0  0  0  0  0  0  0
   58.3620   33.5800   45.9230 C   0  0  0  0  0  0  0  0  0  0  0  0
   58.1250   32.9540   47.1590 C   0  0  0  0  0  0  0  0  0  0  0  0
   59.0140   33.1390   48.2230 C   0  0  0  0  0  0  0  0  0  0  0  0
   60.1460   33.9440   48.0590 C   0  0  0  0  0  0  0  0  0  0  0  0
   60.3920   34.5620   46.8300 C   0  0  0  0  0  0  0  0  0  0  0  0
   59.5020   34.3850   45.7640 C   0  0  0  0  0  0  0  0  0  0  0  0
   60.2525   29.4636   47.0380 H   0  0  0  0  0  0  0  0  0  0  0  0
   61.1573   30.4420   45.8336 H   0  0  0  0  0  0  0  0  0  0  0  0
   59.3610   30.4541   45.8336 H   0  0  0  0  0  0  0  0  0  0  0  0
   60.1293   29.0286   44.0088 H   0  0  0  0  0  0  0  0  0  0  0  0
   61.1970   28.1083   45.1402 H   0  0  0  0  0  0  0  0  0  0  0  0
   59.5098   26.7042   45.6097 H   0  0  0  0  0  0  0  0  0  0  0  0
   58.5210   28.1088   46.1970 H   0  0  0  0  0  0  0  0  0  0  0  0
   58.6223   26.9234   43.3905 H   0  0  0  0  0  0  0  0  0  0  0  0
   57.2173   27.0310   44.5192 H   0  0  0  0  0  0  0  0  0  0  0  0
   58.1230   29.0600   42.6520 H   0  0  0  0  0  0  0  0  0  0  0  0
   56.0286   31.2290   43.0968 H   0  0  0  0  0  0  0  0  0  0  0  0
   58.9469   31.8865   43.6536 H   0  0  0  0  0  0  0  0  0  0  0  0
   58.4419   30.7773   42.3340 H   0  0  0  0  0  0  0  0  0  0  0  0
   57.8855   32.4853   42.3340 H   0  0  0  0  0  0  0  0  0  0  0  0
   56.7830   31.7220   45.8240 H   0  0  0  0  0  0  0  0  0  0  0  0
   57.9453   33.4161   43.8352 H   0  0  0  0  0  0  0  0  0  0  0  0
   56.6737   34.2534   44.8228 H   0  0  0  0  0  0  0  0  0  0  0  0
   57.2379   32.3168   47.2899 H   0  0  0  0  0  0  0  0  0  0  0  0
   58.8226   32.6508   49.1899 H   0  0  0  0  0  0  0  0  0  0  0  0
   60.8427   34.0907   48.8975 H   0  0  0  0  0  0  0  0  0  0  0  0
   61.2866   35.1887   46.7000 H   0  0  0  0  0  0  0  0  0  0  0  0
   59.6959   34.8775   44.7997 H   0  0  0  0  0  0  0  0  0  0  0  0
  1  2  1  0
  2  3  1  0
  3  4  1  0
  4  5  1  0
  5  6  1  0
  6  7  2  0
  6  8  1  0
  8  9  1  0
  8 10  1  0
 10 11  1  0
 11 12  1  0
 12 13  2  0
 13 14  1  0
 14 15  2  0
 15 16  1  0
 16 17  2  0
 17 12  1  0
  1 18  1  0
  1 19  1  0
  1 20  1  0
  2 21  1  0
  2 22  1  0
  3 23  1  0
  3 24  1  0
  4 25  1  0
  4 26  1  0
  5 27  1  0
  8 28  1  6
  9 29  1  0
  9 30  1  0
  9 31  1  0
 10 32  1  0
 11 33  1  0
 11 34  1  0
 13 35  1  0
 14 36  1  0
 15 37  1  0
 16 38  1  0
 17 39  1  0
M  END
>  <UniqueID>  (10) 
10

>  <SMILES>  (10) 
CCCCNC(=O)[C@H](C)NCc1ccccc1

>  <Energy>  (10) 
27.391001398070596

>  <Genealogy>  (10) 
CCCCNC(=O)[C@H](C)NCc1ccccc1 (chirality)
CCCCNC(=O)[C@H](C)NCc1ccccc1 (3D coordinates assigned)
CCCCNC(=O)[C@H](C)NCc1ccccc1 (optimized conformer: 27.391001398070596 kcal/mol)

>  <smiles>  (10) 
CCCCNC(=O)C(C)NCc1ccccc1

>  <score_type>  (10) 
oracle

>  <origin>  (10) 
adg

>  <m_score__min__energy>  (10) 
-6.6399999999999997

>  <m_primary>  (10) 
energy

$$$$
10:0
     RDKit          3D

 50 54  0  0  0  0  0  0  0  0999 V2000
   62.9530   31.3390   47.1100 C   0  0  0  0  0  0  0  0  0  0  0  0
   63.4260   32.7910   47.2510 C   0  0  0  0  0  0  0  0  0  0  0  0
   64.4710   32.9410   48.2790 N   0  0  0  0  0  0  0  0  0  0  0  0
   63.9640   33.6220   49.4830 C   0  0  0  0  0  0  0  0  0  0  0  0
   62.5120   34.1060   49.3010 C   0  0  0  0  0  0  0  0  0  0  0  0
   61.5270   33.2810   50.0160 N   0  0  0  0  0  0  0  0  0  0  0  0
   60.9380   32.0730   49.4930 C   0  0  0  0  0  0  0  0  0  0  0  0
   61.1470   30.8430   50.1300 C   0  0  0  0  0  0  0  0  0  0  0  0
   61.7930   30.5910   51.2840 N   0  0  0  0  0  0  0  0  0  0  0  0
   61.7110   29.2550   51.4740 C   0  0  0  0  0  0  0  0  0  0  0  0
   61.0000   28.6560   50.4440 C   0  0  0  0  0  0  0  0  0  0  0  0
   60.6420   29.6910   49.6100 C   0  0  0  0  0  0  0  0  0  0  0  0
   59.8760   29.6840   48.4600 C   0  0  0  0  0  0  0  0  0  0  0  0
   59.6030   30.9240   47.8390 C   0  0  0  0  0  0  0  0  0  0  0  0
   60.1590   32.0940   48.3460 N   0  0  0  0  0  0  0  0  0  0  0  0
   59.8350   33.3810   47.6880 C   0  0  0  0  0  0  0  0  0  0  0  0
   59.7900   33.2360   46.1650 C   0  0  0  0  0  0  0  0  0  0  0  0
   58.8490   32.1340   45.7820 C   0  0  0  0  0  0  0  0  0  0  0  0
   58.0980   32.2240   44.5910 C   0  0  0  0  0  0  0  0  0  0  0  0
   57.2470   31.1720   44.2780 C   0  0  0  0  0  0  0  0  0  0  0  0
   57.1290   30.0830   45.0740 C   0  0  0  0  0  0  0  0  0  0  0  0
   57.8610   29.9420   46.2490 C   0  0  0  0  0  0  0  0  0  0  0  0
   58.7620   30.9800   46.6050 C   0  0  0  0  0  0  0  0  0  0  0  0
   56.2090   29.2100   44.5280 O   0  0  0  0  0  0  0  0  0  0  0  0
   55.7200   29.7880   43.3090 C   0  0  0  0  0  0  0  0  0  0  0  0
   56.4090   31.0400   43.1870 O   0  0  0  0  0  0  0  0  0  0  0  0
   62.8104   30.9012   48.1090 H   0  0  0  0  0  0  0  0  0  0  0  0
   62.0007   31.3154   46.5599 H   0  0  0  0  0  0  0  0  0  0  0  0
   63.7087   30.7590   46.5599 H   0  0  0  0  0  0  0  0  0  0  0  0
   63.8296   33.1271   46.2845 H   0  0  0  0  0  0  0  0  0  0  0  0
   62.5618   33.3983   47.5582 H   0  0  0  0  0  0  0  0  0  0  0  0
   65.2810   33.4600   47.8770 H   0  0  0  0  0  0  0  0  0  0  0  0
   64.8020   31.9870   48.5530 H   0  0  0  0  0  0  0  0  0  0  0  0
   64.0018   32.9215   50.3303 H   0  0  0  0  0  0  0  0  0  0  0  0
   64.5963   34.5028   49.6682 H   0  0  0  0  0  0  0  0  0  0  0  0
   62.4392   35.1380   49.6746 H   0  0  0  0  0  0  0  0  0  0  0  0
   62.2780   34.0343   48.2286 H   0  0  0  0  0  0  0  0  0  0  0  0
   61.1450   33.6670   50.9080 H   0  0  0  0  0  0  0  0  0  0  0  0
   62.2360   31.2710   51.9380 H   0  0  0  0  0  0  0  0  0  0  0  0
   62.1480   28.7167   52.3280 H   0  0  0  0  0  0  0  0  0  0  0  0
   60.7721   27.5870   50.3207 H   0  0  0  0  0  0  0  0  0  0  0  0
   59.4907   28.7428   48.0409 H   0  0  0  0  0  0  0  0  0  0  0  0
   58.8532   33.7270   48.0434 H   0  0  0  0  0  0  0  0  0  0  0  0
   60.6214   34.1067   47.9427 H   0  0  0  0  0  0  0  0  0  0  0  0
   59.4452   34.1807   45.7193 H   0  0  0  0  0  0  0  0  0  0  0  0
   60.7976   32.9948   45.7956 H   0  0  0  0  0  0  0  0  0  0  0  0
   58.1838   33.0999   43.9311 H   0  0  0  0  0  0  0  0  0  0  0  0
   57.7449   29.0514   46.8842 H   0  0  0  0  0  0  0  0  0  0  0  0
   55.9492   29.1360   42.4532 H   0  0  0  0  0  0  0  0  0  0  0  0
   54.6278   29.9181   43.3234 H   0  0  0  0  0  0  0  0  0  0  0  0
  1  2  1  0
  2  3  1  0
  3  4  1  0
  4  5  1  0
  5  6  1  0
  6  7  1  0
  7  8  2  0
  8  9  1  0
  9 10  1  0
 10 11  2  0
 11 12  1  0
 12 13  2  0
 13 14  1  0
 14 15  2  0
 15 16  1  0
 16 17  1  0
 17 18  1  0
 18 19  2  0
 19 20  1  0
 20 21  2  0
 21 22  1  0
 22 23  2  0
 21 24  1  0
 24 25  1  0
 25 26  1  0
 15  7  1  0
 23 18  1  0
 12  8  1  0
 23 14  1  0
 26 20  1  0
  1 27  1  0
  1 28  1  0
  1 29  1  0
  2 30  1  0
  2 31  1  0
  3 32  1  0
  3 33  1  0
  4 34  1  0
  4 35  1  0
  5 36  1  0
  5 37  1  0
  6 38  1  0
  9 39  1  0
 10 40  1  0
 11 41  1  0
 13 42  1  0
 16 43  1  0
 16 44  1  0
 17 45  1  0
 17 46  1  0
 19 47  1  0
 22 48  1  0
 25 49  1  0
 25 50  1  0
M  CHG  2   3   1  15   1
M  END
>  <UniqueID>  (11) 
11

>  <SMILES>  (11) 
CC[NH2+]CCNc1c2[nH]ccc2cc2[n+]1CCc1cc3c(cc1-2)OCO3

>  <Energy>  (11) 
124.44556681271987

>  <Genealogy>  (11) 
CC[NH2+]CCNc1c2[nH]ccc2cc2[n+]1CCc1cc3c(cc1-2)OCO3 (protonated)
CC[NH2+]CCNc1c2[nH]ccc2cc2[n+]1CCc1cc3c(cc1-2)OCO3 (3D coordinates assigned)
CC[NH2+]CCNc1c2[nH]ccc2cc2[n+]1CCc1cc3c(cc1-2)OCO3 (nonaromatic ring conformer: 124.44556681271987 kcal/mol)

>  <smiles>  (11) 
CCNCCNc1c2[nH]ccc2cc2[n+]1CCc1cc3c(cc1-2)OCO3

>  <score_type>  (11) 
oracle

>  <origin>  (11) 
adg

>  <m_score__min__energy>  (11) 
-4.3899999999999997

>  <m_primary>  (11) 
energy

$$$$
11:0
     RDKit          3D

 43 46  0  0  0  0  0  0  0  0999 V2000
   56.6640   26.3360   46.3180 C   0  0  0  0  0  0  0  0  0  0  0  0
   58.0330   25.7050   46.0850 C   0  0  0  0  0  0  0  0  0  0  0  0
   58.9360   25.9970   47.2080 N   0  0  0  0  0  0  0  0  0  0  0  0
   60.2710   26.3890   46.7350 C   0  0  0  0  0  0  0  0  0  0  0  0
   60.2390   27.7970   46.1330 C   0  0  0  0  0  0  0  0  0  0  0  0
   59.1250   28.5760   46.6750 N   0  0  0  0  0  0  0  0  0  0  0  0
   58.9120   29.9350   46.2680 C   0  0  0  0  0  0  0  0  0  0  0  0
   59.8520   30.9680   46.5130 C   0  0  0  0  0  0  0  0  0  0  0  0
   61.0250   30.7450   47.2540 C   0  0  0  0  0  0  0  0  0  0  0  0
   61.9310   31.7890   47.4690 C   0  0  0  0  0  0  0  0  0  0  0  0
   63.1130   31.5850   48.1980 C   0  0  0  0  0  0  0  0  0  0  0  0
   64.0030   32.6440   48.3980 C   0  0  0  0  0  0  0  0  0  0  0  0
   63.7210   33.9090   47.8730 C   0  0  0  0  0  0  0  0  0  0  0  0
   62.5450   34.1220   47.1490 C   0  0  0  0  0  0  0  0  0  0  0  0
   61.6460   33.0680   46.9440 C   0  0  0  0  0  0  0  0  0  0  0  0
   60.4980   33.2800   46.2500 N   0  0  0  0  0  0  0  0  0  0  0  0
   59.5890   32.2900   46.0210 C   0  0  0  0  0  0  0  0  0  0  0  0
   58.4280   32.5650   45.3320 N   0  0  0  0  0  0  0  0  0  0  0  0
   58.1570   33.9150   44.8200 C   0  0  0  0  0  0  0  0  0  0  0  0
   57.5400   31.5460   45.1460 C   0  0  0  0  0  0  0  0  0  0  0  0
   56.3650   31.5810   44.5010 N   0  0  0  0  0  0  0  0  0  0  0  0
   55.9190   30.3520   44.5800 O   0  0  0  0  0  0  0  0  0  0  0  0
   56.7140   29.5290   45.2210 N   0  0  0  0  0  0  0  0  0  0  0  0
   57.7540   30.2900   45.5900 C   0  0  0  0  0  0  0  0  0  0  0  0
   56.4788   26.4214   47.3989 H   0  0  0  0  0  0  0  0  0  0  0  0
   56.6389   27.3365   45.8616 H   0  0  0  0  0  0  0  0  0  0  0  0
   55.8870   25.7052   45.8616 H   0  0  0  0  0  0  0  0  0  0  0  0
   57.9170   24.6154   45.9884 H   0  0  0  0  0  0  0  0  0  0  0  0
   58.4648   26.1251   45.1646 H   0  0  0  0  0  0  0  0  0  0  0  0
   58.5310   26.8150   47.7240 H   0  0  0  0  0  0  0  0  0  0  0  0
   60.9731   26.3739   47.5817 H   0  0  0  0  0  0  0  0  0  0  0  0
   60.5943   25.6794   45.9591 H   0  0  0  0  0  0  0  0  0  0  0  0
   61.1836   28.3096   46.3675 H   0  0  0  0  0  0  0  0  0  0  0  0
   60.1070   27.7089   45.0445 H   0  0  0  0  0  0  0  0  0  0  0  0
   58.3020   28.0470   47.0420 H   0  0  0  0  0  0  0  0  0  0  0  0
   61.2315   29.7463   47.6663 H   0  0  0  0  0  0  0  0  0  0  0  0
   63.3390   30.5913   48.6121 H   0  0  0  0  0  0  0  0  0  0  0  0
   64.9283   32.4818   48.9703 H   0  0  0  0  0  0  0  0  0  0  0  0
   64.4265   34.7382   48.0303 H   0  0  0  0  0  0  0  0  0  0  0  0
   62.3251   35.1190   46.7395 H   0  0  0  0  0  0  0  0  0  0  0  0
   58.0182   34.6063   45.6643 H   0  0  0  0  0  0  0  0  0  0  0  0
   59.0055   34.2515   44.2062 H   0  0  0  0  0  0  0  0  0  0  0  0
   57.2444   33.8980   44.2062 H   0  0  0  0  0  0  0  0  0  0  0  0
  1  2  1  0
  2  3  1  0
  3  4  1  0
  4  5  1  0
  5  6  1  0
  6  7  1  0
  7  8  2  0
  8  9  1  0
  9 10  2  0
 10 11  1  0
 11 12  2  0
 12 13  1  0
 13 14  2  0
 14 15  1  0
 15 16  2  0
 16 17  1  0
 17 18  2  0
 18 19  1  0
 18 20  1  0
 20 21  2  0
 21 22  1  0
 22 23  1  0
 23 24  2  0
 24  7  1  0
 17  8  1  0
 24 20  1  0
 15 10  1  0
  1 25  1  0
  1 26  1  0
  1 27  1  0
  2 28  1  0
  2 29  1  0
  3 30  1  0
  4 31  1  0
  4 32  1  0
  5 33  1  0
  5 34  1  0
  6 35  1  0
  9 36  1  0
 11 37  1  0
 12 38  1  0
 13 39  1  0
 14 40  1  0
 19 41  1  0
 19 42  1  0
 19 43  1  0
M  CHG  1  18   1
M  END
>  <UniqueID>  (12) 
12

>  <SMILES>  (12) 
CCNCCNc1c2cc3ccccc3nc2[n+](C)c2nonc12

>  <Energy>  (12) 
98.73905083094607

>  <Genealogy>  (12) 
CCNCCNc1c2cc3ccccc3nc2[n+](C)c2nonc12 (3D coordinates assigned)
CCNCCNc1c2cc3ccccc3nc2[n+](C)c2nonc12 (optimized conformer: 98.73905083094607 kcal/mol)

>  <smiles>  (12) 
CCNCCNc1c2cc3ccccc3nc2[n+](C)c2nonc12

>  <score_type>  (12) 
oracle

>  <origin>  (12) 
adg

>  <m_score__min__energy>  (12) 
-6.8799999999999999

>  <m_primary>  (12) 
energy

$$$$
12:0
     RDKit          3D

 58 60  0  0  0  0  0  0  0  0999 V2000
   58.1280   26.5850   42.6320 C   0  0  0  0  0  0  0  0  0  0  0  0
   57.8610   27.8510   43.4460 C   0  0  0  0  0  0  0  0  0  0  0  0
   56.9930   28.7810   42.7050 N   0  0  0  0  0  0  0  0  0  0  0  0
   56.2190   29.6150   43.6360 C   0  0  0  0  0  0  0  0  0  0  0  0
   56.8260   31.0180   43.7450 C   0  0  0  0  0  0  0  0  0  0  0  0
   58.2310   30.9310   44.1350 N   0  0  0  0  0  0  0  0  0  0  0  0
   58.6670   31.3240   45.4470 C   0  0  0  0  0  0  0  0  0  0  0  0
   58.9610   32.6710   45.7180 C   0  0  0  0  0  0  0  0  0  0  0  0
   58.9100   33.6420   44.6930 C   0  0  0  0  0  0  0  0  0  0  0  0
   59.2460   34.9670   44.9510 C   0  0  0  0  0  0  0  0  0  0  0  0
   59.6590   35.3460   46.2220 C   0  0  0  0  0  0  0  0  0  0  0  0
   59.7220   34.4050   47.2490 C   0  0  0  0  0  0  0  0  0  0  0  0
   59.3480   33.0540   47.0300 C   0  0  0  0  0  0  0  0  0  0  0  0
   59.3780   32.1150   48.0460 N   0  0  0  0  0  0  0  0  0  0  0  0
   59.5110   32.5550   49.4530 C   0  0  0  0  0  0  0  0  0  0  0  0
   59.2660   30.7690   47.7470 C   0  0  0  0  0  0  0  0  0  0  0  0
   59.5460   29.7660   48.7080 C   0  0  0  0  0  0  0  0  0  0  0  0
   59.3650   28.4160   48.4160 C   0  0  0  0  0  0  0  0  0  0  0  0
   58.9190   28.0100   47.1550 C   0  0  0  0  0  0  0  0  0  0  0  0
   58.7320   26.6050   46.8630 N   0  0  0  0  0  0  0  0  0  0  0  0
   59.8440   25.8100   46.3220 C   0  0  0  0  0  0  0  0  0  0  0  0
   59.3700   24.4230   45.8990 C   0  0  0  0  0  0  0  0  0  0  0  0
   57.4410   25.9480   47.1300 C   0  0  0  0  0  0  0  0  0  0  0  0
   56.4080   26.3280   46.0740 C   0  0  0  0  0  0  0  0  0  0  0  0
   58.6790   28.9840   46.1770 C   0  0  0  0  0  0  0  0  0  0  0  0
   58.8710   30.3560   46.4480 C   0  0  0  0  0  0  0  0  0  0  0  0
   58.3060   25.7410   43.3146 H   0  0  0  0  0  0  0  0  0  0  0  0
   57.2562   26.3662   41.9978 H   0  0  0  0  0  0  0  0  0  0  0  0
   59.0139   26.7369   41.9978 H   0  0  0  0  0  0  0  0  0  0  0  0
   57.3690   27.5746   44.3902 H   0  0  0  0  0  0  0  0  0  0  0  0
   58.8213   28.3498   43.6437 H   0  0  0  0  0  0  0  0  0  0  0  0
   56.3300   28.2330   42.1040 H   0  0  0  0  0  0  0  0  0  0  0  0
   57.5870   29.3960   42.0980 H   0  0  0  0  0  0  0  0  0  0  0  0
   55.1844   29.6972   43.2714 H   0  0  0  0  0  0  0  0  0  0  0  0
   56.2390   29.1445   44.6301 H   0  0  0  0  0  0  0  0  0  0  0  0
   56.7499   31.5235   42.7710 H   0  0  0  0  0  0  0  0  0  0  0  0
   56.2764   31.5885   44.5082 H   0  0  0  0  0  0  0  0  0  0  0  0
   58.8840   30.3830   43.5280 H   0  0  0  0  0  0  0  0  0  0  0  0
   58.6011   33.3469   43.6794 H   0  0  0  0  0  0  0  0  0  0  0  0
   59.1846   35.7157   44.1474 H   0  0  0  0  0  0  0  0  0  0  0  0
   59.9372   36.3919   46.4189 H   0  0  0  0  0  0  0  0  0  0  0  0
   60.0676   34.7154   48.2461 H   0  0  0  0  0  0  0  0  0  0  0  0
   59.2587   31.7203   50.1236 H   0  0  0  0  0  0  0  0  0  0  0  0
   60.5463   32.8759   49.6405 H   0  0  0  0  0  0  0  0  0  0  0  0
   58.8268   33.3957   49.6405 H   0  0  0  0  0  0  0  0  0  0  0  0
   59.9130   30.0588   49.7028 H   0  0  0  0  0  0  0  0  0  0  0  0
   59.5756   27.6603   49.1871 H   0  0  0  0  0  0  0  0  0  0  0  0
   60.2647   26.3284   45.4478 H   0  0  0  0  0  0  0  0  0  0  0  0
   60.6067   25.6954   47.1063 H   0  0  0  0  0  0  0  0  0  0  0  0
   59.1631   23.8175   46.7938 H   0  0  0  0  0  0  0  0  0  0  0  0
   58.4527   24.5161   45.2991 H   0  0  0  0  0  0  0  0  0  0  0  0
   60.1525   23.9352   45.2991 H   0  0  0  0  0  0  0  0  0  0  0  0
   57.5829   24.8572   47.1188 H   0  0  0  0  0  0  0  0  0  0  0  0
   57.0756   26.2780   48.1137 H   0  0  0  0  0  0  0  0  0  0  0  0
   55.4858   26.6672   46.5685 H   0  0  0  0  0  0  0  0  0  0  0  0
   56.8067   27.1383   45.4460 H   0  0  0  0  0  0  0  0  0  0  0  0
   56.1865   25.4525   45.4460 H   0  0  0  0  0  0  0  0  0  0  0  0
   58.3346   28.6739   45.1794 H   0  0  0  0  0  0  0  0  0  0  0  0
  1  2  1  0
  2  3  1  0
  3  4  1  0
  4  5  1  0
  5  6  1  0
  6  7  1  0
  7  8  2  0
  8  9  1  0
  9 10  2  0
 10 11  1  0
 11 12  2  0
 12 13  1  0
 13 14  2  0
 14 15  1  0
 14 16  1  0
 16 17  2  0
 17 18  1  0
 18 19  2  0
 19 20  1  0
 20 21  1  0
 21 22  1  0
 20 23  1  0
 23 24  1  0
 19 25  1  0
 25 26  2  0
 26  7  1  0
 13  8  1  0
 26 16  1  0
  1 27  1  0
  1 28  1  0
  1 29  1  0
  2 30  1  0
  2 31  1  0
  3 32  1  0
  3 33  1  0
  4 34  1  0
  4 35  1  0
  5 36  1  0
  5 37  1  0
  6 38  1  0
  9 39  1  0
 10 40  1  0
 11 41  1  0
 12 42  1  0
 15 43  1  0
 15 44  1  0
 15 45  1  0
 17 46  1  0
 18 47  1  0
 21 48  1  0
 21 49  1  0
 22 50  1  0
 22 51  1  0
 22 52  1  0
 23 53  1  0
 23 54  1  0
 24 55  1  0
 24 56  1  0
 24 57  1  0
 25 58  1  0
M  CHG  2   3   1  14   1
M  END
>  <UniqueID>  (13) 
13

>  <SMILES>  (13) 
CC[NH2+]CCNc1c2ccccc2[n+](C)c2ccc(N(CC)CC)cc12

>  <Energy>  (13) 
76.21075639080829

>  <Genealogy>  (13) 
CC[NH2+]CCNc1c2ccccc2[n+](C)c2ccc(N(CC)CC)cc12 (protonated)
CC[NH2+]CCNc1c2ccccc2[n+](C)c2ccc(N(CC)CC)cc12 (3D coordinates assigned)
CC[NH2+]CCNc1c2ccccc2[n+](C)c2ccc(N(CC)CC)cc12 (optimized conformer: 76.21075639080829 kcal/mol)

>  <smiles>  (13) 
CCNCCNc1c2ccccc2[n+](C)c2ccc(N(CC)CC)cc12

>  <score_type>  (13) 
oracle

>  <origin>  (13) 
adg

>  <m_score__min__energy>  (13) 
-4.6900000000000004

>  <m_primary>  (13) 
energy

$$$$
13:0
     RDKit          3D

 49 51  0  0  0  0  0  0  0  0999 V2000
   56.6750   30.8120   42.6970 C   0  0  0  0  0  0  0  0  0  0  0  0
   56.6430   29.3980   43.2710 C   0  0  0  0  0  0  0  0  0  0  0  0
   57.9760   28.9900   43.7390 N   0  0  0  0  0  0  0  0  0  0  0  0
   58.0700   27.5240   43.8200 C   0  0  0  0  0  0  0  0  0  0  0  0
   58.9500   27.0860   44.9930 C   0  0  0  0  0  0  0  0  0  0  0  0
   59.4860   28.2250   45.6350 O   0  0  0  0  0  0  0  0  0  0  0  0
   59.6250   27.9920   47.0250 C   0  0  0  0  0  0  0  0  0  0  0  0
   58.7360   28.9570   47.8120 C   0  0  0  0  0  0  0  0  0  0  0  0
   59.0290   30.3450   47.4350 N   0  0  0  0  0  0  0  0  0  0  0  0
   60.0690   30.9440   48.0180 N   0  0  0  0  0  0  0  0  0  0  0  0
   60.4490   32.2140   47.7250 C   0  0  0  0  0  0  0  0  0  0  0  0
   61.6340   32.7600   48.4180 C   0  0  0  0  0  0  0  0  0  0  0  0
   62.9220   32.3370   48.0460 C   0  0  0  0  0  0  0  0  0  0  0  0
   63.0880   31.4010   47.0760 F   0  0  0  0  0  0  0  0  0  0  0  0
   64.0470   32.8680   48.6840 C   0  0  0  0  0  0  0  0  0  0  0  0
   63.8970   33.8300   49.6860 C   0  0  0  0  0  0  0  0  0  0  0  0
   62.6200   34.2680   50.0500 C   0  0  0  0  0  0  0  0  0  0  0  0
   61.4900   33.7410   49.4160 C   0  0  0  0  0  0  0  0  0  0  0  0
   60.2600   34.1980   49.7630 F   0  0  0  0  0  0  0  0  0  0  0  0
   59.7100   32.9490   46.7740 C   0  0  0  0  0  0  0  0  0  0  0  0
   60.0080   34.2920   46.4630 C   0  0  0  0  0  0  0  0  0  0  0  0
   59.2560   34.9810   45.5090 C   0  0  0  0  0  0  0  0  0  0  0  0
   58.1960   34.3480   44.8600 C   0  0  0  0  0  0  0  0  0  0  0  0
   57.8750   33.0260   45.1690 C   0  0  0  0  0  0  0  0  0  0  0  0
   58.6190   32.3170   46.1320 C   0  0  0  0  0  0  0  0  0  0  0  0
   58.2970   30.9930   46.4770 C   0  0  0  0  0  0  0  0  0  0  0  0
   57.3340   30.4050   45.9070 O   0  0  0  0  0  0  0  0  0  0  0  0
   56.6915   31.5416   43.5201 H   0  0  0  0  0  0  0  0  0  0  0  0
   57.5762   30.9364   42.0786 H   0  0  0  0  0  0  0  0  0  0  0  0
   55.7804   30.9770   42.0786 H   0  0  0  0  0  0  0  0  0  0  0  0
   55.9401   29.3687   44.1166 H   0  0  0  0  0  0  0  0  0  0  0  0
   56.3218   28.7051   42.4793 H   0  0  0  0  0  0  0  0  0  0  0  0
   58.1460   29.4010   44.6880 H   0  0  0  0  0  0  0  0  0  0  0  0
   58.6990   29.3460   43.0710 H   0  0  0  0  0  0  0  0  0  0  0  0
   57.0609   27.1073   43.9543 H   0  0  0  0  0  0  0  0  0  0  0  0
   58.5239   27.1537   42.8889 H   0  0  0  0  0  0  0  0  0  0  0  0
   58.3448   26.5123   45.7104 H   0  0  0  0  0  0  0  0  0  0  0  0
   59.7714   26.4575   44.6185 H   0  0  0  0  0  0  0  0  0  0  0  0
   59.3285   26.9573   47.2518 H   0  0  0  0  0  0  0  0  0  0  0  0
   60.6742   28.1528   47.3136 H   0  0  0  0  0  0  0  0  0  0  0  0
   57.6805   28.7372   47.5939 H   0  0  0  0  0  0  0  0  0  0  0  0
   58.9343   28.8294   48.8864 H   0  0  0  0  0  0  0  0  0  0  0  0
   65.0527   32.5276   48.3964 H   0  0  0  0  0  0  0  0  0  0  0  0
   64.7839   34.2430   50.1888 H   0  0  0  0  0  0  0  0  0  0  0  0
   62.5038   35.0284   50.8363 H   0  0  0  0  0  0  0  0  0  0  0  0
   60.8383   34.8001   46.9753 H   0  0  0  0  0  0  0  0  0  0  0  0
   59.5004   36.0262   45.2686 H   0  0  0  0  0  0  0  0  0  0  0  0
   57.6121   34.8922   44.1031 H   0  0  0  0  0  0  0  0  0  0  0  0
   57.0350   32.5339   44.6569 H   0  0  0  0  0  0  0  0  0  0  0  0
  1  2  1  0
  2  3  1  0
  3  4  1  0
  4  5  1  0
  5  6  1  0
  6  7  1  0
  7  8  1  0
  8  9  1  0
  9 10  1  0
 10 11  2  0
 11 12  1  0
 12 13  2  0
 13 14  1  0
 13 15  1  0
 15 16  2  0
 16 17  1  0
 17 18  2  0
 18 19  1  0
 11 20  1  0
 20 21  2  0
 21 22  1  0
 22 23  2  0
 23 24  1  0
 24 25  2  0
 25 26  1  0
 26 27  2  0
 26  9  1  0
 18 12  1  0
 25 20  1  0
  1 28  1  0
  1 29  1  0
  1 30  1  0
  2 31  1  0
  2 32  1  0
  3 33  1  0
  3 34  1  0
  4 35  1  0
  4 36  1  0
  5 37  1  0
  5 38  1  0
  7 39  1  0
  7 40  1  0
  8 41  1  0
  8 42  1  0
 15 43  1  0
 16 44  1  0
 17 45  1  0
 21 46  1  0
 22 47  1  0
 23 48  1  0
 24 49  1  0
M  CHG  1   3   1
M  END
>  <UniqueID>  (14) 
14

>  <SMILES>  (14) 
CC[NH2+]CCOCCn1nc(-c2c(F)cccc2F)c2ccccc2c1=O

>  <Energy>  (14) 
60.32835710192597

>  <Genealogy>  (14) 
CC[NH2+]CCOCCn1nc(-c2c(F)cccc2F)c2ccccc2c1=O (protonated)
CC[NH2+]CCOCCn1nc(-c2c(F)cccc2F)c2ccccc2c1=O (3D coordinates assigned)
CC[NH2+]CCOCCn1nc(-c2c(F)cccc2F)c2ccccc2c1=O (optimized conformer: 60.32835710192597 kcal/mol)

>  <smiles>  (14) 
CCNCCOCCn1nc(-c2c(F)cccc2F)c2ccccc2c1=O

>  <score_type>  (14) 
oracle

>  <origin>  (14) 
adg

>  <m_score__min__energy>  (14) 
-5.7300000000000004

>  <m_primary>  (14) 
energy

$$$$
14:0
     RDKit          3D

 64 67  0  0  1  0  0  0  0  0999 V2000
   63.3110   33.8420   46.6970 C   0  0  0  0  0  0  0  0  0  0  0  0
   62.8140   32.6780   47.5660 C   0  0  0  0  0  0  0  0  0  0  0  0
   61.3930   32.5840   47.4330 N   0  0  0  0  0  0  0  0  0  0  0  0
   60.7070   33.8260   47.3150 C   0  0  0  0  0  0  0  0  0  0  0  0
   59.2380   33.7780   47.6500 C   0  0  0  0  0  0  0  0  0  0  0  0
   58.8680   32.5080   48.1330 O   0  0  0  0  0  0  0  0  0  0  0  0
   58.5820   31.5010   47.2250 C   0  0  0  0  0  0  0  0  0  0  0  0
   57.7810   31.8210   46.1670 C   0  0  0  0  0  0  0  0  0  0  0  0
   57.4900   30.8370   45.2650 C   0  0  0  0  0  0  0  0  0  0  0  0
   56.7020   31.1530   44.2250 N   0  0  0  0  0  0  0  0  0  0  0  0
   56.3820   30.2200   43.3040 C   0  0  0  0  0  0  0  0  0  0  0  0
   56.8870   28.9960   43.4910 N   0  0  0  0  0  0  0  0  0  0  0  0
   57.6820   28.6380   44.5230 C   0  0  0  0  0  0  0  0  0  0  0  0
   58.0710   27.4830   44.6030 N   0  0  0  0  0  0  0  0  0  0  0  0
   57.5060   26.3280   45.0180 C   0  0  0  0  0  0  0  0  0  0  0  0
   57.2290   26.1590   46.4000 C   0  0  0  0  0  0  0  0  0  0  0  0
   56.7780   24.9080   46.8280 C   0  0  0  0  0  0  0  0  0  0  0  0
   56.5990   23.8640   45.9600 C   0  0  0  0  0  0  0  0  0  0  0  0
   56.8640   24.0250   44.6260 C   0  0  0  0  0  0  0  0  0  0  0  0
   56.6350   22.6010   43.3530 Br  0  0  0  0  0  0  0  0  0  0  0  0
   57.3070   25.2220   44.1510 C   0  0  0  0  0  0  0  0  0  0  0  0
   58.0200   29.5740   45.4690 C   0  0  0  0  0  0  0  0  0  0  0  0
   58.8230   29.2780   46.5380 C   0  0  0  0  0  0  0  0  0  0  0  0
   59.1370   30.2750   47.4820 C   0  0  0  0  0  0  0  0  0  0  0  0
   59.9080   30.1170   48.5670 O   0  0  0  0  0  0  0  0  0  0  0  0
   61.1480   29.6860   48.8890 C   0  0  0  0  0  0  0  0  0  0  0  0
   61.8530   30.4740   49.9780 C   0  0  0  0  0  0  0  0  0  0  0  0
   61.2220   31.7770   50.0500 N   0  0  0  0  0  0  0  0  0  0  0  0
   60.7060   32.1070   51.3490 C   0  0  0  0  0  0  0  0  0  0  0  0
   59.2480   31.8120   51.4930 C   0  0  0  0  0  0  0  0  0  0  0  0
   58.3220   32.7170   51.9030 C   0  0  0  0  0  0  0  0  0  0  0  0
   56.9940   32.2900   51.9870 C   0  0  0  0  0  0  0  0  0  0  0  0
   56.6200   30.9990   51.6700 C   0  0  0  0  0  0  0  0  0  0  0  0
   57.5730   30.1290   51.2650 N   0  0  0  0  0  0  0  0  0  0  0  0
   58.8520   30.5240   51.1800 C   0  0  0  0  0  0  0  0  0  0  0  0
   63.6602   34.6599   47.3444 H   0  0  0  0  0  0  0  0  0  0  0  0
   64.1404   33.4974   46.0620 H   0  0  0  0  0  0  0  0  0  0  0  0
   62.4884   34.2027   46.0620 H   0  0  0  0  0  0  0  0  0  0  0  0
   63.2805   31.7398   47.2310 H   0  0  0  0  0  0  0  0  0  0  0  0
   63.0823   32.8532   48.6183 H   0  0  0  0  0  0  0  0  0  0  0  0
   60.9620   31.9420   48.1050 H   0  0  0  0  0  0  0  0  0  0  0  0
   61.1879   34.5469   47.9925 H   0  0  0  0  0  0  0  0  0  0  0  0
   60.7708   34.1124   46.2549 H   0  0  0  0  0  0  0  0  0  0  0  0
   59.0207   34.5324   48.4205 H   0  0  0  0  0  0  0  0  0  0  0  0
   58.6645   33.9834   46.7341 H   0  0  0  0  0  0  0  0  0  0  0  0
   57.3824   32.8389   46.0445 H   0  0  0  0  0  0  0  0  0  0  0  0
   55.7385   30.4544   42.4432 H   0  0  0  0  0  0  0  0  0  0  0  0
   56.6180   28.2800   42.7510 H   0  0  0  0  0  0  0  0  0  0  0  0
   57.3652   26.9869   47.1114 H   0  0  0  0  0  0  0  0  0  0  0  0
   56.5599   24.7568   47.8955 H   0  0  0  0  0  0  0  0  0  0  0  0
   56.2415   22.8937   46.3351 H   0  0  0  0  0  0  0  0  0  0  0  0
   57.5142   25.3336   43.0765 H   0  0  0  0  0  0  0  0  0  0  0  0
   59.2232   28.2606   46.6596 H   0  0  0  0  0  0  0  0  0  0  0  0
   61.0669   28.6418   49.2252 H   0  0  0  0  0  0  0  0  0  0  0  0
   61.7567   29.8146   47.9819 H   0  0  0  0  0  0  0  0  0  0  0  0
   61.7530   29.9544   50.9424 H   0  0  0  0  0  0  0  0  0  0  0  0
   62.9249   30.5742   49.7520 H   0  0  0  0  0  0  0  0  0  0  0  0
   60.4080   31.7750   49.3820 H   0  0  0  0  0  0  0  0  0  0  0  0
   61.2570   31.5253   52.1027 H   0  0  0  0  0  0  0  0  0  0  0  0
   60.8368   33.1903   51.4884 H   0  0  0  0  0  0  0  0  0  0  0  0
   58.6068   33.7481   52.1595 H   0  0  0  0  0  0  0  0  0  0  0  0
   56.2238   33.0034   52.3154 H   0  0  0  0  0  0  0  0  0  0  0  0
   55.5686   30.6847   51.7453 H   0  0  0  0  0  0  0  0  0  0  0  0
   59.6114   29.7996   50.8504 H   0  0  0  0  0  0  0  0  0  0  0  0
  1  2  1  0
  2  3  1  0
  3  4  1  0
  4  5  1  0
  5  6  1  0
  6  7  1  0
  7  8  2  0
  8  9  1  0
  9 10  1  0
 10 11  2  0
 11 12  1  0
 12 13  1  0
 13 14  2  0
 14 15  1  0
 15 16  2  0
 16 17  1  0
 17 18  2  0
 18 19  1  0
 19 20  1  0
 19 21  2  0
 13 22  1  0
 22 23  1  0
 23 24  2  0
 24 25  1  0
 25 26  1  0
 26 27  1  0
 27 28  1  0
 28 29  1  0
 29 30  1  0
 30 31  2  0
 31 32  1  0
 32 33  2  0
 33 34  1  0
 34 35  2  0
 24  7  1  0
 35 30  1  0
 22  9  2  0
 21 15  1  0
  1 36  1  0
  1 37  1  0
  1 38  1  0
  2 39  1  0
  2 40  1  0
  3 41  1  0
  4 42  1  0
  4 43  1  0
  5 44  1  0
  5 45  1  0
  8 46  1  0
 11 47  1  0
 12 48  1  0
 16 49  1  0
 17 50  1  0
 18 51  1  0
 21 52  1  0
 23 53  1  0
 26 54  1  0
 26 55  1  0
 27 56  1  0
 27 57  1  0
 28 58  1  0
 29 59  1  0
 29 60  1  0
 31 61  1  0
 32 62  1  0
 33 63  1  0
 35 64  1  0
M  END
>  <smiles>  (15) 
CCNCCOc1cc2nc[nH]c(=Nc3cccc(Br)c3)c2cc1OCCNCc1cccnc1

>  <score_type>  (15) 
oracle

>  <origin>  (15) 
adg

>  <m_score__min__energy>  (15) 
-7.6200000000000001

>  <m_primary>  (15) 
energy

$$$$
15:0
     RDKit          3D

 43 44  0  0  0  0  0  0  0  0999 V2000
   57.5640   32.3340   41.2720 C   0  0  0  0  0  0  0  0  0  0  0  0
   58.1280   32.3380   42.7060 C   0  0  0  0  0  0  0  0  0  0  0  0
   57.2040   31.8260   43.7580 N   0  0  1  0  0  0  0  0  0  0  0  0
   57.4980   30.4300   44.1730 C   0  0  0  0  0  0  0  0  0  0  0  0
   56.2550   29.6760   44.5940 C   0  0  0  0  0  0  0  0  0  0  0  0
   55.1270   30.2090   44.4220 O   0  0  0  0  0  0  0  0  0  0  0  0
   56.3130   28.3850   45.2160 N   0  0  0  0  0  0  0  0  0  0  0  0
   57.3920   27.8450   45.9980 C   0  0  0  0  0  0  0  0  0  0  0  0
   58.5090   28.6360   46.3230 C   0  0  0  0  0  0  0  0  0  0  0  0
   59.5560   28.1050   47.0770 C   0  0  0  0  0  0  0  0  0  0  0  0
   59.5140   26.7760   47.4930 C   0  0  0  0  0  0  0  0  0  0  0  0
   58.4320   25.9660   47.1420 C   0  0  0  0  0  0  0  0  0  0  0  0
   57.3640   26.4850   46.3840 C   0  0  0  0  0  0  0  0  0  0  0  0
   56.2110   25.5960   45.9690 C   0  0  0  0  0  0  0  0  0  0  0  0
   56.0430   24.5800   46.8920 F   0  0  0  0  0  0  0  0  0  0  0  0
   55.0510   26.3460   45.9070 F   0  0  0  0  0  0  0  0  0  0  0  0
   56.4250   25.0200   44.7280 F   0  0  0  0  0  0  0  0  0  0  0  0
   57.0250   32.7650   44.9010 C   0  0  0  0  0  0  0  0  0  0  0  0
   58.3120   33.2370   45.5440 C   0  0  0  0  0  0  0  0  0  0  0  0
   59.1080   32.3490   46.2860 C   0  0  0  0  0  0  0  0  0  0  0  0
   60.2950   32.7870   46.8780 C   0  0  0  0  0  0  0  0  0  0  0  0
   60.6920   34.1200   46.7470 C   0  0  0  0  0  0  0  0  0  0  0  0
   59.8980   35.0170   46.0290 C   0  0  0  0  0  0  0  0  0  0  0  0
   58.7100   34.5820   45.4350 C   0  0  0  0  0  0  0  0  0  0  0  0
   56.4647   32.3262   41.3104 H   0  0  0  0  0  0  0  0  0  0  0  0
   57.9060   33.2346   40.7410 H   0  0  0  0  0  0  0  0  0  0  0  0
   57.9187   31.4383   40.7410 H   0  0  0  0  0  0  0  0  0  0  0  0
   59.0334   31.7134   42.7163 H   0  0  0  0  0  0  0  0  0  0  0  0
   58.3158   33.3929   42.9549 H   0  0  0  0  0  0  0  0  0  0  0  0
   56.2670   31.8010   43.2880 H   0  0  0  0  0  0  0  0  0  0  0  0
   57.9619   29.9010   43.3275 H   0  0  0  0  0  0  0  0  0  0  0  0
   58.1718   30.4745   45.0413 H   0  0  0  0  0  0  0  0  0  0  0  0
   58.5573   29.6802   45.9804 H   0  0  0  0  0  0  0  0  0  0  0  0
   60.4161   28.7368   47.3435 H   0  0  0  0  0  0  0  0  0  0  0  0
   60.3345   26.3641   48.0989 H   0  0  0  0  0  0  0  0  0  0  0  0
   58.4135   24.9132   47.4602 H   0  0  0  0  0  0  0  0  0  0  0  0
   56.4811   33.6486   44.5357 H   0  0  0  0  0  0  0  0  0  0  0  0
   56.4784   32.2079   45.6761 H   0  0  0  0  0  0  0  0  0  0  0  0
   58.7944   31.3010   46.4018 H   0  0  0  0  0  0  0  0  0  0  0  0
   60.9177   32.0817   47.4479 H   0  0  0  0  0  0  0  0  0  0  0  0
   61.6295   34.4629   47.2091 H   0  0  0  0  0  0  0  0  0  0  0  0
   60.2082   36.0678   45.9308 H   0  0  0  0  0  0  0  0  0  0  0  0
   58.0830   35.2949   44.8794 H   0  0  0  0  0  0  0  0  0  0  0  0
  1  2  1  0
  2  3  1  0
  3  4  1  0
  4  5  1  0
  5  6  2  0
  5  7  1  0
  7  8  1  0
  8  9  2  0
  9 10  1  0
 10 11  2  0
 11 12  1  0
 12 13  2  0
 13 14  1  0
 14 15  1  0
 14 16  1  0
 14 17  1  0
  3 18  1  0
 18 19  1  0
 19 20  2  0
 20 21  1  0
 21 22  2  0
 22 23  1  0
 23 24  2  0
 13  8  1  0
 24 19  1  0
  1 25  1  0
  1 26  1  0
  1 27  1  0
  2 28  1  0
  2 29  1  0
  3 30  1  6
  4 31  1  0
  4 32  1  0
  9 33  1  0
 10 34  1  0
 11 35  1  0
 12 36  1  0
 18 37  1  0
 18 38  1  0
 20 39  1  0
 21 40  1  0
 22 41  1  0
 23 42  1  0
 24 43  1  0
M  CHG  2   3   1   7  -1
M  END
>  <UniqueID>  (16) 
15

>  <SMILES>  (16) 
CC[N@@H+](CC(=O)[N-]c1ccccc1C(F)(F)F)Cc1ccccc1

>  <Energy>  (16) 
56.428040802211235

>  <Genealogy>  (16) 
CC[NH+](CC(=O)[N-]c1ccccc1C(F)(F)F)Cc1ccccc1 (protonated)
CC[N@@H+](CC(=O)[N-]c1ccccc1C(F)(F)F)Cc1ccccc1 (chirality)
CC[N@@H+](CC(=O)[N-]c1ccccc1C(F)(F)F)Cc1ccccc1 (3D coordinates assigned)
CC[N@@H+](CC(=O)[N-]c1ccccc1C(F)(F)F)Cc1ccccc1 (optimized conformer: 56.428040802211235 kcal/mol)

>  <smiles>  (16) 
CCN(CC(=O)Nc1ccccc1C(F)(F)F)Cc1ccccc1

>  <score_type>  (16) 
oracle

>  <origin>  (16) 
adg

>  <m_score__min__energy>  (16) 
-7.3499999999999996

>  <m_primary>  (16) 
energy

$$$$
16:0
     RDKit          3D

 42 45  0  0  0  0  0  0  0  0999 V2000
   56.2730   29.8020   42.8460 C   0  0  0  0  0  0  0  0  0  0  0  0
   57.2400   29.1000   43.7940 C   0  0  0  0  0  0  0  0  0  0  0  0
   57.1080   29.6090   45.1210 O   0  0  0  0  0  0  0  0  0  0  0  0
   57.7640   30.7420   45.6310 C   0  0  0  0  0  0  0  0  0  0  0  0
   58.3610   30.7670   46.9060 C   0  0  0  0  0  0  0  0  0  0  0  0
   59.0060   31.9190   47.3650 C   0  0  0  0  0  0  0  0  0  0  0  0
   59.0810   33.0630   46.5520 C   0  0  0  0  0  0  0  0  0  0  0  0
   59.7330   34.2440   46.9690 C   0  0  0  0  0  0  0  0  0  0  0  0
   60.3930   34.3330   48.2020 O   0  0  0  0  0  0  0  0  0  0  0  0
   61.7270   33.9520   48.4130 C   0  0  0  0  0  0  0  0  0  0  0  0
   62.5580   33.4880   47.3520 C   0  0  0  0  0  0  0  0  0  0  0  0
   63.8900   33.1110   47.5970 C   0  0  0  0  0  0  0  0  0  0  0  0
   64.3630   33.2170   48.9010 C   0  0  0  0  0  0  0  0  0  0  0  0
   65.5830   32.9100   49.3740 N   0  0  0  0  0  0  0  0  0  0  0  0
   65.5120   33.1880   50.6990 C   0  0  0  0  0  0  0  0  0  0  0  0
   64.2940   33.6640   51.0600 N   0  0  0  0  0  0  0  0  0  0  0  0
   63.8490   34.0270   52.4000 C   0  0  0  0  0  0  0  0  0  0  0  0
   63.5780   33.6720   49.9210 C   0  0  0  0  0  0  0  0  0  0  0  0
   62.2510   34.0510   49.7180 C   0  0  0  0  0  0  0  0  0  0  0  0
   59.7100   35.3700   46.1410 C   0  0  0  0  0  0  0  0  0  0  0  0
   59.0860   35.3040   44.8960 C   0  0  0  0  0  0  0  0  0  0  0  0
   58.4880   34.1530   44.4920 N   0  0  0  0  0  0  0  0  0  0  0  0
   58.4660   33.0430   45.2780 C   0  0  0  0  0  0  0  0  0  0  0  0
   57.8230   31.8850   44.8270 C   0  0  0  0  0  0  0  0  0  0  0  0
   55.5189   30.3494   43.4306 H   0  0  0  0  0  0  0  0  0  0  0  0
   56.8290   30.5082   42.2119 H   0  0  0  0  0  0  0  0  0  0  0  0
   55.7737   29.0546   42.2119 H   0  0  0  0  0  0  0  0  0  0  0  0
   57.0222   28.0218   43.7980 H   0  0  0  0  0  0  0  0  0  0  0  0
   58.2680   29.2817   43.4473 H   0  0  0  0  0  0  0  0  0  0  0  0
   58.3195   29.8731   47.5457 H   0  0  0  0  0  0  0  0  0  0  0  0
   59.4574   31.9303   48.3681 H   0  0  0  0  0  0  0  0  0  0  0  0
   62.1530   33.4243   46.3312 H   0  0  0  0  0  0  0  0  0  0  0  0
   64.5360   32.7448   46.7855 H   0  0  0  0  0  0  0  0  0  0  0  0
   66.4000   32.5330   48.8440 H   0  0  0  0  0  0  0  0  0  0  0  0
   66.3465   33.0441   51.4010 H   0  0  0  0  0  0  0  0  0  0  0  0
   64.4757   33.5158   53.1455 H   0  0  0  0  0  0  0  0  0  0  0  0
   63.9355   35.1155   52.5328 H   0  0  0  0  0  0  0  0  0  0  0  0
   62.8000   33.7236   52.5328 H   0  0  0  0  0  0  0  0  0  0  0  0
   61.6322   34.4161   50.5509 H   0  0  0  0  0  0  0  0  0  0  0  0
   60.1834   36.3064   46.4711 H   0  0  0  0  0  0  0  0  0  0  0  0
   59.0778   36.1863   44.2391 H   0  0  0  0  0  0  0  0  0  0  0  0
   57.3591   31.8734   43.8297 H   0  0  0  0  0  0  0  0  0  0  0  0
  1  2  1  0
  2  3  1  0
  3  4  1  0
  4  5  2  0
  5  6  1  0
  6  7  2  0
  7  8  1  0
  8  9  1  0
  9 10  1  0
 10 11  2  0
 11 12  1  0
 12 13  2  0
 13 14  1  0
 14 15  2  0
 15 16  1  0
 16 17  1  0
 16 18  1  0
 18 19  2  0
  8 20  2  0
 20 21  1  0
 21 22  2  0
 22 23  1  0
 23 24  2  0
 24  4  1  0
 23  7  1  0
 19 10  1  0
 18 13  1  0
  1 25  1  0
  1 26  1  0
  1 27  1  0
  2 28  1  0
  2 29  1  0
  5 30  1  0
  6 31  1  0
 11 32  1  0
 12 33  1  0
 14 34  1  0
 15 35  1  0
 17 36  1  0
 17 37  1  0
 17 38  1  0
 19 39  1  0
 20 40  1  0
 21 41  1  0
 24 42  1  0
M  CHG  1  14   1
M  END
>  <UniqueID>  (17) 
16

>  <SMILES>  (17) 
CCOc1ccc2c(Oc3ccc4[nH+]cn(C)c4c3)ccnc2c1

>  <Energy>  (17) 
94.51104278918582

>  <Genealogy>  (17) 
CCOc1ccc2c(Oc3ccc4[nH+]cn(C)c4c3)ccnc2c1 (protonated)
CCOc1ccc2c(Oc3ccc4[nH+]cn(C)c4c3)ccnc2c1 (3D coordinates assigned)
CCOc1ccc2c(Oc3ccc4[nH+]cn(C)c4c3)ccnc2c1 (optimized conformer: 94.51104278918582 kcal/mol)

>  <smiles>  (17) 
CCOc1ccc2c(Oc3ccc4ncn(C)c4c3)ccnc2c1

>  <score_type>  (17) 
oracle

>  <origin>  (17) 
adg

>  <m_score__min__energy>  (17) 
-6.2400000000000002

>  <m_primary>  (17) 
energy

$$$$
17:0
     RDKit          3D

 57 59  0  0  0  0  0  0  0  0999 V2000
   63.4040   33.6760   46.6130 C   0  0  0  0  0  0  0  0  0  0  0  0
   63.2990   32.2790   47.2180 C   0  0  0  0  0  0  0  0  0  0  0  0
   62.1730   32.2180   48.1780 N   0  0  0  0  0  0  0  0  0  0  0  0
   61.9310   33.5440   48.7740 C   0  0  0  0  0  0  0  0  0  0  0  0
   62.4250   31.2280   49.2500 C   0  0  0  0  0  0  0  0  0  0  0  0
   61.1180   30.6000   49.7710 C   0  0  0  0  0  0  0  0  0  0  0  0
   60.5260   29.5330   48.8370 C   0  0  0  0  0  0  0  0  0  0  0  0
   60.8010   29.8230   47.4300 N   0  0  0  0  0  0  0  0  0  0  0  0
   59.7560   29.7060   46.4530 C   0  0  0  0  0  0  0  0  0  0  0  0
   59.2890   28.4360   46.0760 C   0  0  0  0  0  0  0  0  0  0  0  0
   59.8110   27.2680   46.6740 C   0  0  0  0  0  0  0  0  0  0  0  0
   59.3120   26.0130   46.3360 C   0  0  0  0  0  0  0  0  0  0  0  0
   58.2830   25.9000   45.4090 C   0  0  0  0  0  0  0  0  0  0  0  0
   57.7680   27.0380   44.7880 C   0  0  0  0  0  0  0  0  0  0  0  0
   58.2850   28.3270   45.0780 C   0  0  0  0  0  0  0  0  0  0  0  0
   57.8310   29.4570   44.4260 N   0  0  0  0  0  0  0  0  0  0  0  0
   57.0170   29.3250   43.1970 C   0  0  0  0  0  0  0  0  0  0  0  0
   58.1590   30.7120   44.9090 C   0  0  0  0  0  0  0  0  0  0  0  0
   57.5090   31.8790   44.4440 C   0  0  0  0  0  0  0  0  0  0  0  0
   57.8760   33.1430   44.9000 C   0  0  0  0  0  0  0  0  0  0  0  0
   58.8900   33.3020   45.8590 C   0  0  0  0  0  0  0  0  0  0  0  0
   59.2810   34.6280   46.3170 N   0  0  0  0  0  0  0  0  0  0  0  0
   59.6480   35.6760   45.3570 C   0  0  0  0  0  0  0  0  0  0  0  0
   59.2940   34.9510   47.7500 C   0  0  0  0  0  0  0  0  0  0  0  0
   59.5040   32.1440   46.3710 C   0  0  0  0  0  0  0  0  0  0  0  0
   59.1510   30.8550   45.9110 C   0  0  0  0  0  0  0  0  0  0  0  0
   63.4600   34.4217   47.4197 H   0  0  0  0  0  0  0  0  0  0  0  0
   64.3094   33.7394   45.9916 H   0  0  0  0  0  0  0  0  0  0  0  0
   62.5182   33.8740   45.9916 H   0  0  0  0  0  0  0  0  0  0  0  0
   63.1306   31.5472   46.4142 H   0  0  0  0  0  0  0  0  0  0  0  0
   64.2344   32.0475   47.7485 H   0  0  0  0  0  0  0  0  0  0  0  0
   61.9461   33.4613   49.8708 H   0  0  0  0  0  0  0  0  0  0  0  0
   62.7167   34.2414   48.4480 H   0  0  0  0  0  0  0  0  0  0  0  0
   60.9496   33.9189   48.4480 H   0  0  0  0  0  0  0  0  0  0  0  0
   63.0693   30.4299   48.8527 H   0  0  0  0  0  0  0  0  0  0  0  0
   62.9105   31.7493   50.0882 H   0  0  0  0  0  0  0  0  0  0  0  0
   61.3224   30.1327   50.7456 H   0  0  0  0  0  0  0  0  0  0  0  0
   60.3783   31.4113   49.8394 H   0  0  0  0  0  0  0  0  0  0  0  0
   60.9642   28.5564   49.0906 H   0  0  0  0  0  0  0  0  0  0  0  0
   59.4348   29.5276   48.9758 H   0  0  0  0  0  0  0  0  0  0  0  0
   61.6700   30.3340   47.1540 H   0  0  0  0  0  0  0  0  0  0  0  0
   60.6202   27.3506   47.4145 H   0  0  0  0  0  0  0  0  0  0  0  0
   59.7326   25.1103   46.8031 H   0  0  0  0  0  0  0  0  0  0  0  0
   57.8729   24.9092   45.1639 H   0  0  0  0  0  0  0  0  0  0  0  0
   56.9481   26.9344   44.0620 H   0  0  0  0  0  0  0  0  0  0  0  0
   55.9652   29.1544   43.4704 H   0  0  0  0  0  0  0  0  0  0  0  0
   57.0966   30.2478   42.6036 H   0  0  0  0  0  0  0  0  0  0  0  0
   57.3841   28.4747   42.6036 H   0  0  0  0  0  0  0  0  0  0  0  0
   56.6973   31.7865   43.7074 H   0  0  0  0  0  0  0  0  0  0  0  0
   57.3633   34.0313   44.5025 H   0  0  0  0  0  0  0  0  0  0  0  0
   59.9639   36.5779   45.9017 H   0  0  0  0  0  0  0  0  0  0  0  0
   60.4753   35.3209   44.7249 H   0  0  0  0  0  0  0  0  0  0  0  0
   58.7799   35.9146   44.7249 H   0  0  0  0  0  0  0  0  0  0  0  0
   59.2566   34.0208   48.3359 H   0  0  0  0  0  0  0  0  0  0  0  0
   60.2150   35.5009   47.9936 H   0  0  0  0  0  0  0  0  0  0  0  0
   58.4202   35.5732   47.9936 H   0  0  0  0  0  0  0  0  0  0  0  0
   60.2768   32.2443   47.1474 H   0  0  0  0  0  0  0  0  0  0  0  0
  1  2  1  0
  2  3  1  0
  3  4  1  0
  3  5  1  0
  5  6  1  0
  6  7  1  0
  7  8  1  0
  8  9  1  0
  9 10  2  0
 10 11  1  0
 11 12  2  0
 12 13  1  0
 13 14  2  0
 14 15  1  0
 15 16  2  0
 16 17  1  0
 16 18  1  0
 18 19  2  0
 19 20  1  0
 20 21  2  0
 21 22  1  0
 22 23  1  0
 22 24  1  0
 21 25  1  0
 25 26  2  0
 26  9  1  0
 15 10  1  0
 26 18  1  0
  1 27  1  0
  1 28  1  0
  1 29  1  0
  2 30  1  0
  2 31  1  0
  4 32  1  0
  4 33  1  0
  4 34  1  0
  5 35  1  0
  5 36  1  0
  6 37  1  0
  6 38  1  0
  7 39  1  0
  7 40  1  0
  8 41  1  0
 11 42  1  0
 12 43  1  0
 13 44  1  0
 14 45  1  0
 17 46  1  0
 17 47  1  0
 17 48  1  0
 19 49  1  0
 20 50  1  0
 23 51  1  0
 23 52  1  0
 23 53  1  0
 24 54  1  0
 24 55  1  0
 24 56  1  0
 25 57  1  0
M  CHG  1  16   1
M  END
>  <UniqueID>  (18) 
17

>  <SMILES>  (18) 
CCN(C)CCCNc1c2ccccc2[n+](C)c2ccc(N(C)C)cc12

>  <Energy>  (18) 
80.52094340071858

>  <Genealogy>  (18) 
CCN(C)CCCNc1c2ccccc2[n+](C)c2ccc(N(C)C)cc12 (3D coordinates assigned)
CCN(C)CCCNc1c2ccccc2[n+](C)c2ccc(N(C)C)cc12 (optimized conformer: 80.52094340071858 kcal/mol)

>  <smiles>  (18) 
CCN(C)CCCNc1c2ccccc2[n+](C)c2ccc(N(C)C)cc12

>  <score_type>  (18) 
oracle

>  <origin>  (18) 
adg

>  <m_score__min__energy>  (18) 
-5.6399999999999997

>  <m_primary>  (18) 
energy

$$$$
18:0
     RDKit          3D

 61 64  0  0  0  0  0  0  0  0999 V2000
   58.5980   31.4990   49.6570 C   0  0  0  0  0  0  0  0  0  0  0  0
   59.8050   30.9270   50.3920 C   0  0  0  0  0  0  0  0  0  0  0  0
   60.0050   29.5230   50.0180 N   0  0  0  0  0  0  0  0  0  0  0  0
   59.3870   29.2510   48.7160 C   0  0  0  0  0  0  0  0  0  0  0  0
   60.4060   28.6010   47.7780 C   0  0  0  0  0  0  0  0  0  0  0  0
   60.7530   29.5060   46.6750 N   0  0  0  0  0  0  0  0  0  0  0  0
   60.3960   30.8950   46.7070 C   0  0  0  0  0  0  0  0  0  0  0  0
   61.2680   31.8030   47.3490 C   0  0  0  0  0  0  0  0  0  0  0  0
   62.5100   31.3770   47.8740 C   0  0  0  0  0  0  0  0  0  0  0  0
   63.3620   32.2720   48.5150 C   0  0  0  0  0  0  0  0  0  0  0  0
   63.0090   33.6120   48.6240 C   0  0  0  0  0  0  0  0  0  0  0  0
   61.8070   34.0630   48.0840 C   0  0  0  0  0  0  0  0  0  0  0  0
   60.9110   33.1700   47.4410 C   0  0  0  0  0  0  0  0  0  0  0  0
   59.7400   33.6130   46.8680 N   0  0  0  0  0  0  0  0  0  0  0  0
   59.2220   34.9610   47.1930 C   0  0  0  0  0  0  0  0  0  0  0  0
   59.0540   32.8020   45.9870 C   0  0  0  0  0  0  0  0  0  0  0  0
   58.1280   33.3550   45.0800 C   0  0  0  0  0  0  0  0  0  0  0  0
   57.4060   32.5580   44.2090 C   0  0  0  0  0  0  0  0  0  0  0  0
   57.5290   31.1710   44.2460 C   0  0  0  0  0  0  0  0  0  0  0  0
   56.7000   30.3560   43.2880 C   0  0  0  0  0  0  0  0  0  0  0  0
   58.4510   30.5680   45.1370 C   0  0  0  0  0  0  0  0  0  0  0  0
   58.4080   29.1340   45.2920 N   0  0  0  0  0  0  0  0  0  0  0  0
   59.1560   28.2540   44.3780 C   0  0  0  0  0  0  0  0  0  0  0  0
   58.2510   27.1520   43.8040 C   0  0  0  0  0  0  0  0  0  0  0  0
   57.4000   26.4290   44.8730 C   0  0  0  0  0  0  0  0  0  0  0  0
   57.5030   27.0470   46.2750 C   0  0  0  0  0  0  0  0  0  0  0  0
   57.4040   28.5740   46.2090 C   0  0  0  0  0  0  0  0  0  0  0  0
   59.2970   31.3950   45.9540 C   0  0  0  0  0  0  0  0  0  0  0  0
   57.8559   31.8507   50.3888 H   0  0  0  0  0  0  0  0  0  0  0  0
   58.9182   32.3411   49.0259 H   0  0  0  0  0  0  0  0  0  0  0  0
   58.1490   30.7179   49.0259 H   0  0  0  0  0  0  0  0  0  0  0  0
   60.7014   31.5058   50.1247 H   0  0  0  0  0  0  0  0  0  0  0  0
   59.6285   30.9888   51.4760 H   0  0  0  0  0  0  0  0  0  0  0  0
   61.0360   29.3620   49.9230 H   0  0  0  0  0  0  0  0  0  0  0  0
   58.5330   28.5714   48.8531 H   0  0  0  0  0  0  0  0  0  0  0  0
   59.0433   30.1982   48.2748 H   0  0  0  0  0  0  0  0  0  0  0  0
   61.3164   28.3599   48.3463 H   0  0  0  0  0  0  0  0  0  0  0  0
   59.9632   27.6864   47.3568 H   0  0  0  0  0  0  0  0  0  0  0  0
   61.4940   29.2310   45.9920 H   0  0  0  0  0  0  0  0  0  0  0  0
   62.8073   30.3226   47.7744 H   0  0  0  0  0  0  0  0  0  0  0  0
   64.3151   31.9186   48.9355 H   0  0  0  0  0  0  0  0  0  0  0  0
   63.6796   34.3169   49.1372 H   0  0  0  0  0  0  0  0  0  0  0  0
   61.5478   35.1295   48.1572 H   0  0  0  0  0  0  0  0  0  0  0  0
   59.1754   35.0824   48.2853 H   0  0  0  0  0  0  0  0  0  0  0  0
   59.8912   35.7234   46.7676 H   0  0  0  0  0  0  0  0  0  0  0  0
   58.2145   35.0790   46.7676 H   0  0  0  0  0  0  0  0  0  0  0  0
   57.9757   34.4443   45.0640 H   0  0  0  0  0  0  0  0  0  0  0  0
   56.7277   33.0248   43.4796 H   0  0  0  0  0  0  0  0  0  0  0  0
   56.0279   29.6952   43.8552 H   0  0  0  0  0  0  0  0  0  0  0  0
   56.1037   31.0293   42.6546 H   0  0  0  0  0  0  0  0  0  0  0  0
   57.3630   29.7483   42.6546 H   0  0  0  0  0  0  0  0  0  0  0  0
   59.5585   28.8556   43.5497 H   0  0  0  0  0  0  0  0  0  0  0  0
   59.9710   27.7772   44.9422 H   0  0  0  0  0  0  0  0  0  0  0  0
   57.5715   27.6081   43.0690 H   0  0  0  0  0  0  0  0  0  0  0  0
   58.9106   26.3964   43.3524 H   0  0  0  0  0  0  0  0  0  0  0  0
   56.3469   26.4615   44.5570 H   0  0  0  0  0  0  0  0  0  0  0  0
   57.7878   25.4024   44.9481 H   0  0  0  0  0  0  0  0  0  0  0  0
   56.6847   26.6599   46.9000 H   0  0  0  0  0  0  0  0  0  0  0  0
   58.4779   26.7768   46.7069 H   0  0  0  0  0  0  0  0  0  0  0  0
   56.4004   28.8533   45.8558 H   0  0  0  0  0  0  0  0  0  0  0  0
   57.5882   28.9783   47.2153 H   0  0  0  0  0  0  0  0  0  0  0  0
  1  2  1  0
  2  3  1  0
  3  4  1  0
  4  5  1  0
  5  6  1  0
  6  7  1  0
  7  8  2  0
  8  9  1  0
  9 10  2  0
 10 11  1  0
 11 12  2  0
 12 13  1  0
 13 14  2  0
 14 15  1  0
 14 16  1  0
 16 17  2  0
 17 18  1  0
 18 19  2  0
 19 20  1  0
 19 21  1  0
 21 22  1  0
 22 23  1  0
 23 24  1  0
 24 25  1  0
 25 26  1  0
 26 27  1  0
 21 28  2  0
 28  7  1  0
 13  8  1  0
 28 16  1  0
 27 22  1  0
  1 29  1  0
  1 30  1  0
  1 31  1  0
  2 32  1  0
  2 33  1  0
  3 34  1  0
  4 35  1  0
  4 36  1  0
  5 37  1  0
  5 38  1  0
  6 39  1  0
  9 40  1  0
 10 41  1  0
 11 42  1  0
 12 43  1  0
 15 44  1  0
 15 45  1  0
 15 46  1  0
 17 47  1  0
 18 48  1  0
 20 49  1  0
 20 50  1  0
 20 51  1  0
 23 52  1  0
 23 53  1  0
 24 54  1  0
 24 55  1  0
 25 56  1  0
 25 57  1  0
 26 58  1  0
 26 59  1  0
 27 60  1  0
 27 61  1  0
M  CHG  1  14   1
M  END
>  <UniqueID>  (19) 
18

>  <SMILES>  (19) 
CCNCCNc1c2ccccc2[n+](C)c2ccc(C)c(N3CCCCC3)c12

>  <Energy>  (19) 
97.75737057304922

>  <Genealogy>  (19) 
CCNCCNc1c2ccccc2[n+](C)c2ccc(C)c(N3CCCCC3)c12 (3D coordinates assigned)
CCNCCNc1c2ccccc2[n+](C)c2ccc(C)c(N3CCCCC3)c12 (nonaromatic ring conformer: 97.75737057304922 kcal/mol)

>  <smiles>  (19) 
CCNCCNc1c2ccccc2[n+](C)c2ccc(C)c(N3CCCCC3)c12

>  <score_type>  (19) 
oracle

>  <origin>  (19) 
adg

>  <m_score__min__energy>  (19) 
-6.5099999999999998

>  <m_primary>  (19) 
energy

$$$$
19:0
     RDKit          3D

 55 58  0  0  0  0  0  0  0  0999 V2000
   57.2580   29.5340   45.2380 C   0  0  0  0  0  0  0  0  0  0  0  0
   58.0090   28.2790   45.6180 C   0  0  0  0  0  0  0  0  0  0  0  0
   57.6090   27.0390   45.0880 C   0  0  0  0  0  0  0  0  0  0  0  0
   58.2970   25.8680   45.4230 C   0  0  0  0  0  0  0  0  0  0  0  0
   59.3960   25.9210   46.2880 C   0  0  0  0  0  0  0  0  0  0  0  0
   59.7950   27.1430   46.8400 C   0  0  0  0  0  0  0  0  0  0  0  0
   59.0990   28.3280   46.5220 C   0  0  0  0  0  0  0  0  0  0  0  0
   59.4930   29.5660   47.1460 N   0  0  0  0  0  0  0  0  0  0  0  0
   59.9350   30.7270   46.3720 C   0  0  0  0  0  0  0  0  0  0  0  0
   61.3830   31.0450   46.7580 C   0  0  0  0  0  0  0  0  0  0  0  0
   61.5240   31.2420   48.2270 N   0  0  0  0  0  0  0  0  0  0  0  0
   62.9400   31.6070   48.5170 C   0  0  0  0  0  0  0  0  0  0  0  0
   63.3170   33.1060   48.3440 C   0  0  1  0  0  0  0  0  0  0  0  0
   63.0680   33.5160   47.0170 O   0  0  0  0  0  0  0  0  0  0  0  0
   62.6770   34.1210   49.3410 C   0  0  0  0  0  0  0  0  0  0  0  0
   61.4490   34.7140   48.8970 O   0  0  0  0  0  0  0  0  0  0  0  0
   60.2240   34.0800   48.6480 C   0  0  0  0  0  0  0  0  0  0  0  0
   59.7380   33.2230   49.6500 C   0  0  0  0  0  0  0  0  0  0  0  0
   58.5190   32.5750   49.4810 C   0  0  0  0  0  0  0  0  0  0  0  0
   58.0610   31.8490   50.4030 O   0  0  0  0  0  0  0  0  0  0  0  0
   57.8410   32.6920   48.3400 O   0  0  0  0  0  0  0  0  0  0  0  0
   58.2820   33.4330   47.3230 C   0  0  0  0  0  0  0  0  0  0  0  0
   57.5320   33.4800   46.1380 C   0  0  0  0  0  0  0  0  0  0  0  0
   58.0070   34.1850   45.0310 C   0  0  0  0  0  0  0  0  0  0  0  0
   59.2420   34.8340   45.0950 C   0  0  0  0  0  0  0  0  0  0  0  0
   59.9980   34.8120   46.2760 C   0  0  0  0  0  0  0  0  0  0  0  0
   59.5110   34.1320   47.4170 C   0  0  0  0  0  0  0  0  0  0  0  0
   61.0980   30.0150   48.9450 C   0  0  0  0  0  0  0  0  0  0  0  0
   59.6460   29.6400   48.5980 C   0  0  0  0  0  0  0  0  0  0  0  0
   56.9419   30.0623   46.1496 H   0  0  0  0  0  0  0  0  0  0  0  0
   57.9134   30.1878   44.6439 H   0  0  0  0  0  0  0  0  0  0  0  0
   56.3720   29.2654   44.6439 H   0  0  0  0  0  0  0  0  0  0  0  0
   56.7484   26.9897   44.4047 H   0  0  0  0  0  0  0  0  0  0  0  0
   57.9734   24.9031   45.0055 H   0  0  0  0  0  0  0  0  0  0  0  0
   59.9465   25.0010   46.5340 H   0  0  0  0  0  0  0  0  0  0  0  0
   60.6550   27.1799   47.5248 H   0  0  0  0  0  0  0  0  0  0  0  0
   59.8787   30.4998   45.2972 H   0  0  0  0  0  0  0  0  0  0  0  0
   59.2891   31.5912   46.5862 H   0  0  0  0  0  0  0  0  0  0  0  0
   62.0280   30.2105   46.4455 H   0  0  0  0  0  0  0  0  0  0  0  0
   61.6783   31.9772   46.2543 H   0  0  0  0  0  0  0  0  0  0  0  0
   63.1510   31.3270   49.5596 H   0  0  0  0  0  0  0  0  0  0  0  0
   63.5399   31.0667   47.7699 H   0  0  0  0  0  0  0  0  0  0  0  0
   64.3888   33.1352   48.5898 H   0  0  0  0  0  0  0  0  0  0  0  0
   62.1690   33.9420   47.0090 H   0  0  0  0  0  0  0  0  0  0  0  0
   62.4791   33.5930   50.2855 H   0  0  0  0  0  0  0  0  0  0  0  0
   63.3971   34.9460   49.4446 H   0  0  0  0  0  0  0  0  0  0  0  0
   60.3220   33.0645   50.5686 H   0  0  0  0  0  0  0  0  0  0  0  0
   56.5650   32.9587   46.0812 H   0  0  0  0  0  0  0  0  0  0  0  0
   57.4090   34.2294   44.1088 H   0  0  0  0  0  0  0  0  0  0  0  0
   59.6248   35.3667   44.2120 H   0  0  0  0  0  0  0  0  0  0  0  0
   60.9708   35.3241   46.3152 H   0  0  0  0  0  0  0  0  0  0  0  0
   61.7606   29.1846   48.6597 H   0  0  0  0  0  0  0  0  0  0  0  0
   61.1582   30.2068   50.0265 H   0  0  0  0  0  0  0  0  0  0  0  0
   59.4039   28.6631   49.0420 H   0  0  0  0  0  0  0  0  0  0  0  0
   58.9650   30.4052   48.9989 H   0  0  0  0  0  0  0  0  0  0  0  0
  1  2  1  0
  2  3  2  0
  3  4  1  0
  4  5  2  0
  5  6  1  0
  6  7  2  0
  7  8  1  0
  8  9  1  0
  9 10  1  0
 10 11  1  0
 11 12  1  0
 12 13  1  0
 13 14  1  0
 13 15  1  0
 15 16  1  0
 16 17  1  0
 17 18  2  0
 18 19  1  0
 19 20  2  0
 19 21  1  0
 21 22  1  0
 22 23  2  0
 23 24  1  0
 24 25  2  0
 25 26  1  0
 26 27  2  0
 11 28  1  0
 28 29  1  0
  7  2  1  0
 29  8  1  0
 27 17  1  0
 27 22  1  0
  1 30  1  0
  1 31  1  0
  1 32  1  0
  3 33  1  0
  4 34  1  0
  5 35  1  0
  6 36  1  0
  9 37  1  0
  9 38  1  0
 10 39  1  0
 10 40  1  0
 12 41  1  0
 12 42  1  0
 13 43  1  1
 14 44  1  0
 15 45  1  0
 15 46  1  0
 18 47  1  0
 23 48  1  0
 24 49  1  0
 25 50  1  0
 26 51  1  0
 28 52  1  0
 28 53  1  0
 29 54  1  0
 29 55  1  0
M  END
>  <UniqueID>  (20) 
19

>  <SMILES>  (20) 
Cc1ccccc1N1CCN(C[C@@H](O)COc2cc(=O)oc3ccccc23)CC1

>  <Energy>  (20) 
87.80289686763234

>  <Genealogy>  (20) 
Cc1ccccc1N1CCN(C[C@@H](O)COc2cc(=O)oc3ccccc23)CC1 (chirality)
Cc1ccccc1N1CCN(C[C@@H](O)COc2cc(=O)oc3ccccc23)CC1 (3D coordinates assigned)
Cc1ccccc1N1CCN(C[C@@H](O)COc2cc(=O)oc3ccccc23)CC1 (nonaromatic ring conformer: 87.80289686763234 kcal/mol)

>  <smiles>  (20) 
Cc1ccccc1N1CCN(CC(O)COc2cc(=O)oc3ccccc23)CC1

>  <score_type>  (20) 
oracle

>  <origin>  (20) 
adg

>  <m_score__min__energy>  (20) 
-8.4199999999999999

>  <m_primary>  (20) 
energy

$$$$
20:0
     RDKit          3D

 71 75  0  0  0  0  0  0  0  0999 V2000
   55.9380   29.8680   44.3720 C   0  0  0  0  0  0  0  0  0  0  0  0
   56.6940   30.7420   43.3700 C   0  0  0  0  0  0  0  0  0  0  0  0
   57.5910   31.6910   44.0650 N   0  0  0  0  0  0  0  0  0  0  0  0
   58.1580   32.6680   43.1060 C   0  0  0  0  0  0  0  0  0  0  0  0
   57.7850   32.3120   41.6660 C   0  0  0  0  0  0  0  0  0  0  0  0
   56.9070   32.3670   45.2000 C   0  0  0  0  0  0  0  0  0  0  0  0
   57.8820   32.5120   46.3690 C   0  0  0  0  0  0  0  0  0  0  0  0
   59.2310   32.8080   45.8670 N   0  0  0  0  0  0  0  0  0  0  0  0
   60.1310   31.6570   46.0330 C   0  0  0  0  0  0  0  0  0  0  0  0
   59.4910   30.5800   46.8850 C   0  0  0  0  0  0  0  0  0  0  0  0
   58.9980   29.4120   46.2860 C   0  0  0  0  0  0  0  0  0  0  0  0
   58.4530   28.4110   47.0480 C   0  0  0  0  0  0  0  0  0  0  0  0
   58.3560   28.4840   48.3940 N   0  0  0  0  0  0  0  0  0  0  0  0
   58.8140   29.5930   49.0390 C   0  0  0  0  0  0  0  0  0  0  0  0
   58.7150   29.6650   50.4330 C   0  0  0  0  0  0  0  0  0  0  0  0
   59.1890   30.7860   51.1140 C   0  0  0  0  0  0  0  0  0  0  0  0
   59.7600   31.8480   50.4100 C   0  0  0  0  0  0  0  0  0  0  0  0
   59.8650   31.7980   49.0170 C   0  0  0  0  0  0  0  0  0  0  0  0
   59.3970   30.6740   48.3050 C   0  0  0  0  0  0  0  0  0  0  0  0
   58.0610   27.3390   46.1690 C   0  0  0  0  0  0  0  0  0  0  0  0
   57.4930   26.1130   46.4920 C   0  0  0  0  0  0  0  0  0  0  0  0
   57.1920   25.2020   45.4520 C   0  0  0  0  0  0  0  0  0  0  0  0
   57.5070   25.5750   44.1090 C   0  0  0  0  0  0  0  0  0  0  0  0
   58.1110   26.8290   43.8560 C   0  0  0  0  0  0  0  0  0  0  0  0
   58.4270   27.1710   42.6840 O   0  0  0  0  0  0  0  0  0  0  0  0
   58.3550   27.6680   44.8980 N   0  0  0  0  0  0  0  0  0  0  0  0
   58.9710   28.9990   44.8380 C   0  0  0  0  0  0  0  0  0  0  0  0
   57.2610   24.6140   42.9720 C   0  0  0  0  0  0  0  0  0  0  0  0
   56.0020   23.8010   43.2270 C   0  0  0  0  0  0  0  0  0  0  0  0
   56.1350   23.0840   44.5350 C   0  0  0  0  0  0  0  0  0  0  0  0
   55.8060   21.9070   44.5970 O   0  0  0  0  0  0  0  0  0  0  0  0
   56.6070   23.8130   45.7940 C   0  0  1  0  0  0  0  0  0  0  0  0
   57.7510   22.9690   46.4060 C   0  0  0  0  0  0  0  0  0  0  0  0
   55.3540   23.9570   46.7420 C   0  0  0  0  0  0  0  0  0  0  0  0
   55.2190   22.9230   47.8680 C   0  0  0  0  0  0  0  0  0  0  0  0
   56.2012   30.1723   45.3958 H   0  0  0  0  0  0  0  0  0  0  0  0
   54.8552   29.9891   44.2204 H   0  0  0  0  0  0  0  0  0  0  0  0
   56.2138   28.8140   44.2204 H   0  0  0  0  0  0  0  0  0  0  0  0
   57.2938   30.0971   42.7110 H   0  0  0  0  0  0  0  0  0  0  0  0
   55.9617   31.3170   42.7843 H   0  0  0  0  0  0  0  0  0  0  0  0
   57.7670   33.6690   43.3406 H   0  0  0  0  0  0  0  0  0  0  0  0
   59.2541   32.6480   43.1964 H   0  0  0  0  0  0  0  0  0  0  0  0
   56.9893   31.5525   41.6704 H   0  0  0  0  0  0  0  0  0  0  0  0
   57.4286   33.2134   41.1460 H   0  0  0  0  0  0  0  0  0  0  0  0
   58.6688   31.9140   41.1460 H   0  0  0  0  0  0  0  0  0  0  0  0
   56.5655   33.3630   44.8816 H   0  0  0  0  0  0  0  0  0  0  0  0
   56.0414   31.7666   45.5167 H   0  0  0  0  0  0  0  0  0  0  0  0
   57.5484   33.3323   47.0215 H   0  0  0  0  0  0  0  0  0  0  0  0
   57.9073   31.5697   46.9360 H   0  0  0  0  0  0  0  0  0  0  0  0
   59.6230   33.5920   46.4430 H   0  0  0  0  0  0  0  0  0  0  0  0
   60.3656   31.2392   45.0429 H   0  0  0  0  0  0  0  0  0  0  0  0
   61.0471   32.0006   46.5357 H   0  0  0  0  0  0  0  0  0  0  0  0
   58.2616   28.8343   50.9938 H   0  0  0  0  0  0  0  0  0  0  0  0
   59.1127   30.8337   52.2103 H   0  0  0  0  0  0  0  0  0  0  0  0
   60.1294   32.7293   50.9548 H   0  0  0  0  0  0  0  0  0  0  0  0
   60.3156   32.6409   48.4725 H   0  0  0  0  0  0  0  0  0  0  0  0
   57.2806   25.8545   47.5399 H   0  0  0  0  0  0  0  0  0  0  0  0
   59.9873   28.9481   44.4203 H   0  0  0  0  0  0  0  0  0  0  0  0
   58.4285   29.7042   44.1912 H   0  0  0  0  0  0  0  0  0  0  0  0
   57.1426   25.1815   42.0372 H   0  0  0  0  0  0  0  0  0  0  0  0
   58.1178   23.9287   42.8928 H   0  0  0  0  0  0  0  0  0  0  0  0
   55.1314   24.4724   43.2624 H   0  0  0  0  0  0  0  0  0  0  0  0
   55.8642   23.0695   42.4171 H   0  0  0  0  0  0  0  0  0  0  0  0
   57.6920   23.0125   47.5036 H   0  0  0  0  0  0  0  0  0  0  0  0
   57.6538   21.9246   46.0747 H   0  0  0  0  0  0  0  0  0  0  0  0
   58.7202   23.3701   46.0747 H   0  0  0  0  0  0  0  0  0  0  0  0
   55.4010   24.9525   47.2076 H   0  0  0  0  0  0  0  0  0  0  0  0
   54.4806   23.7937   46.0935 H   0  0  0  0  0  0  0  0  0  0  0  0
   55.2853   23.4305   48.8417 H   0  0  0  0  0  0  0  0  0  0  0  0
   54.2469   22.4150   47.7847 H   0  0  0  0  0  0  0  0  0  0  0  0
   56.0281   22.1824   47.7847 H   0  0  0  0  0  0  0  0  0  0  0  0
  1  2  1  0
  2  3  1  0
  3  4  1  0
  4  5  1  0
  3  6  1  0
  6  7  1  0
  7  8  1  0
  8  9  1  0
  9 10  1  0
 10 11  2  0
 11 12  1  0
 12 13  2  0
 13 14  1  0
 14 15  2  0
 15 16  1  0
 16 17  2  0
 17 18  1  0
 18 19  2  0
 12 20  1  0
 20 21  2  0
 21 22  1  0
 22 23  2  0
 23 24  1  0
 24 25  2  0
 24 26  1  0
 26 27  1  0
 23 28  1  0
 28 29  1  0
 29 30  1  0
 30 31  2  0
 30 32  1  0
 32 33  1  1
 32 34  1  0
 34 35  1  0
 19 10  1  0
 26 20  1  0
 27 11  1  0
 19 14  1  0
 32 22  1  0
  1 36  1  0
  1 37  1  0
  1 38  1  0
  2 39  1  0
  2 40  1  0
  4 41  1  0
  4 42  1  0
  5 43  1  0
  5 44  1  0
  5 45  1  0
  6 46  1  0
  6 47  1  0
  7 48  1  0
  7 49  1  0
  8 50  1  0
  9 51  1  0
  9 52  1  0
 15 53  1  0
 16 54  1  0
 17 55  1  0
 18 56  1  0
 21 57  1  0
 27 58  1  0
 27 59  1  0
 28 60  1  0
 28 61  1  0
 29 62  1  0
 29 63  1  0
 33 64  1  0
 33 65  1  0
 33 66  1  0
 34 67  1  0
 34 68  1  0
 35 69  1  0
 35 70  1  0
 35 71  1  0
M  END
>  <UniqueID>  (21) 
20

>  <SMILES>  (21) 
CCN(CC)CCNCc1c2c(nc3ccccc13)-c1cc3c(c(=O)n1C2)CCC(=O)[C@]3(C)CC

>  <Energy>  (21) 
110.89589483774733

>  <Genealogy>  (21) 
CCN(CC)CCNCc1c2c(nc3ccccc13)-c1cc3c(c(=O)n1C2)CCC(=O)[C@]3(C)CC (chirality)
CCN(CC)CCNCc1c2c(nc3ccccc13)-c1cc3c(c(=O)n1C2)CCC(=O)[C@]3(C)CC (3D coordinates assigned)
CCN(CC)CCNCc1c2c(nc3ccccc13)-c1cc3c(c(=O)n1C2)CCC(=O)[C@]3(C)CC (nonaromatic ring conformer: 110.89589483774733 kcal/mol)

>  <smiles>  (21) 
CCN(CC)CCNCc1c2c(nc3ccccc13)-c1cc3c(c(=O)n1C2)CCC(=O)C3(C)CC

>  <score_type>  (21) 
oracle

>  <origin>  (21) 
adg

>  <m_score__min__energy>  (21) 
-8.4900000000000002

>  <m_primary>  (21) 
energy

$$$$
21:0
     RDKit          3D

 30 31  0  0  0  0  0  0  0  0999 V2000
   54.4480   29.3650   43.3710 O   0  0  0  0  0  0  0  0  0  0  0  0
   55.4580   29.6800   44.0550 C   0  0  0  0  0  0  0  0  0  0  0  0
   56.3090   30.8330   43.6200 C   0  0  0  0  0  0  0  0  0  0  0  0
   56.7620   31.5960   44.7910 N   0  0  0  0  0  0  0  0  0  0  0  0
   58.1540   32.0340   44.6390 C   0  0  0  0  0  0  0  0  0  0  0  0
   58.4830   33.0290   45.7040 C   0  0  0  0  0  0  0  0  0  0  0  0
   58.4550   32.7950   47.0740 C   0  0  0  0  0  0  0  0  0  0  0  0
   58.8890   33.8900   47.8280 C   0  0  0  0  0  0  0  0  0  0  0  0
   59.2700   34.9810   47.0560 C   0  0  0  0  0  0  0  0  0  0  0  0
   59.0700   34.5800   45.4330 S   0  0  0  0  0  0  0  0  0  0  0  0
   55.8030   28.9530   45.2410 N   0  0  0  0  0  0  0  0  0  0  0  0
   57.0170   28.2300   45.4970 C   0  0  0  0  0  0  0  0  0  0  0  0
   56.9270   26.9620   46.0860 C   0  0  0  0  0  0  0  0  0  0  0  0
   58.0840   26.2330   46.3770 C   0  0  0  0  0  0  0  0  0  0  0  0
   59.3430   26.7710   46.0910 C   0  0  0  0  0  0  0  0  0  0  0  0
   59.4450   28.0440   45.5260 C   0  0  0  0  0  0  0  0  0  0  0  0
   60.6670   28.5740   45.2680 F   0  0  0  0  0  0  0  0  0  0  0  0
   58.2900   28.7780   45.2380 C   0  0  0  0  0  0  0  0  0  0  0  0
   57.1841   30.4531   43.0725 H   0  0  0  0  0  0  0  0  0  0  0  0
   55.7167   31.4919   42.9680 H   0  0  0  0  0  0  0  0  0  0  0  0
   56.7180   30.9600   45.6210 H   0  0  0  0  0  0  0  0  0  0  0  0
   58.8234   31.1658   44.7292 H   0  0  0  0  0  0  0  0  0  0  0  0
   58.2861   32.4982   43.6505 H   0  0  0  0  0  0  0  0  0  0  0  0
   58.1250   31.8451   47.5198 H   0  0  0  0  0  0  0  0  0  0  0  0
   58.9253   33.8879   48.9274 H   0  0  0  0  0  0  0  0  0  0  0  0
   59.6395   35.9432   47.4401 H   0  0  0  0  0  0  0  0  0  0  0  0
   55.9399   26.5373   46.3210 H   0  0  0  0  0  0  0  0  0  0  0  0
   58.0040   25.2346   46.8317 H   0  0  0  0  0  0  0  0  0  0  0  0
   60.2520   26.1919   46.3109 H   0  0  0  0  0  0  0  0  0  0  0  0
   58.3750   29.7868   44.8077 H   0  0  0  0  0  0  0  0  0  0  0  0
  1  2  2  0
  2  3  1  0
  3  4  1  0
  4  5  1  0
  5  6  1  0
  6  7  2  0
  7  8  1  0
  8  9  2  0
  9 10  1  0
  2 11  1  0
 11 12  1  0
 12 13  2  0
 13 14  1  0
 14 15  2  0
 15 16  1  0
 16 17  1  0
 16 18  2  0
 10  6  1  0
 18 12  1  0
  3 19  1  0
  3 20  1  0
  4 21  1  0
  5 22  1  0
  5 23  1  0
  7 24  1  0
  8 25  1  0
  9 26  1  0
 13 27  1  0
 14 28  1  0
 15 29  1  0
 18 30  1  0
M  CHG  1  11  -1
M  END
>  <UniqueID>  (22) 
21

>  <SMILES>  (22) 
O=C(CNCc1cccs1)[N-]c1cccc(F)c1

>  <Energy>  (22) 
56.449888899123806

>  <Genealogy>  (22) 
O=C(CNCc1cccs1)[N-]c1cccc(F)c1 (protonated)
O=C(CNCc1cccs1)[N-]c1cccc(F)c1 (3D coordinates assigned)
O=C(CNCc1cccs1)[N-]c1cccc(F)c1 (optimized conformer: 56.449888899123806 kcal/mol)

>  <smiles>  (22) 
O=C(CNCc1cccs1)Nc1cccc(F)c1

>  <score_type>  (22) 
oracle

>  <origin>  (22) 
adg

>  <m_score__min__energy>  (22) 
-8.1899999999999995

>  <m_primary>  (22) 
energy

$$$$
