0:0
     RDKit          3D

 76 80  0  0  0  0  0  0  0  0999 V2000
   59.6460   35.3770   46.7360 C   0  0  0  0  0  0  0  0  0  0  0  0
   59.9540   34.1670   45.8510 C   0  0  0  0  0  0  0  0  0  0  0  0
   58.8160   33.3150   45.7600 N   0  0  0  0  0  0  0  0  0  0  0  0
   57.8650   33.4910   46.8180 C   0  0  0  0  0  0  0  0  0  0  0  0
   58.1470   32.5030   47.9290 C   0  0  0  0  0  0  0  0  0  0  0  0
   58.0830   33.5370   44.4970 C   0  0  0  0  0  0  0  0  0  0  0  0
   57.4170   32.2850   44.0320 C   0  0  0  0  0  0  0  0  0  0  0  0
   57.2190   31.2450   44.8250 O   0  0  0  0  0  0  0  0  0  0  0  0
   57.5830   29.9960   44.6660 C   0  0  0  0  0  0  0  0  0  0  0  0
   56.9830   28.9960   45.5910 C   0  0  0  0  0  0  0  0  0  0  0  0
   58.0890   28.4730   46.4230 N   0  0  0  0  0  0  0  0  0  0  0  0
   58.5460   29.1480   47.5050 C   0  0  0  0  0  0  0  0  0  0  0  0
   59.5710   28.4020   48.0400 C   0  0  0  0  0  0  0  0  0  0  0  0
   60.4200   28.7190   49.2520 C   0  0  0  0  0  0  0  0  0  0  0  0
   60.8780   29.9760   49.3860 N   0  0  0  0  0  0  0  0  0  0  0  0
   60.8270   31.1750   49.5570 C   0  0  0  0  0  0  0  0  0  0  0  0
   60.0050   31.8550   50.4320 C   0  0  0  0  0  0  0  0  0  0  0  0
   59.1110   31.1710   51.2260 C   0  0  0  0  0  0  0  0  0  0  0  0
   58.2590   31.7790   52.1200 C   0  0  0  0  0  0  0  0  0  0  0  0
   58.2740   33.1530   52.2570 C   0  0  0  0  0  0  0  0  0  0  0  0
   59.1680   33.8490   51.4650 C   0  0  0  0  0  0  0  0  0  0  0  0
   60.0180   33.2310   50.5730 C   0  0  0  0  0  0  0  0  0  0  0  0
   60.8780   33.9220   49.8100 N   0  0  0  0  0  0  0  0  0  0  0  0
   61.7150   33.3550   48.9310 C   0  0  0  0  0  0  0  0  0  0  0  0
   62.5450   34.1910   48.2150 C   0  0  0  0  0  0  0  0  0  0  0  0
   63.4150   33.6100   47.3040 C   0  0  0  0  0  0  0  0  0  0  0  0
   63.4320   32.2450   47.1370 C   0  0  0  0  0  0  0  0  0  0  0  0
   62.5690   31.4350   47.8860 C   0  0  0  0  0  0  0  0  0  0  0  0
   61.6950   31.9920   48.7980 C   0  0  0  0  0  0  0  0  0  0  0  0
   59.6780   27.3200   47.2550 N   0  0  0  0  0  0  0  0  0  0  0  0
   58.7890   27.3360   46.2620 C   0  0  0  0  0  0  0  0  0  0  0  0
   58.5390   26.3630   45.1650 C   0  0  0  0  0  0  0  0  0  0  0  0
   57.1300   25.2910   45.4950 S   0  0  0  0  0  0  0  0  0  0  0  0
   57.1240   23.7850   44.5640 C   0  0  0  0  0  0  0  0  0  0  0  0
   56.2910   23.6890   43.4500 C   0  0  0  0  0  0  0  0  0  0  0  0
   56.2400   22.5310   42.7100 C   0  0  0  0  0  0  0  0  0  0  0  0
   57.0080   21.4140   43.0360 C   0  0  0  0  0  0  0  0  0  0  0  0
   57.8300   21.5020   44.1310 C   0  0  0  0  0  0  0  0  0  0  0  0
   57.8690   22.6700   44.8610 C   0  0  0  0  0  0  0  0  0  0  0  0
   59.7201   35.0857   47.7941 H   0  0  0  0  0  0  0  0  0  0  0  0
   60.3686   36.1790   46.5250 H   0  0  0  0  0  0  0  0  0  0  0  0
   58.6278   35.7359   46.5250 H   0  0  0  0  0  0  0  0  0  0  0  0
   60.2276   34.5149   44.8440 H   0  0  0  0  0  0  0  0  0  0  0  0
   60.7871   33.6029   46.2957 H   0  0  0  0  0  0  0  0  0  0  0  0
   57.9419   34.5153   47.2117 H   0  0  0  0  0  0  0  0  0  0  0  0
   56.8510   33.3196   46.4277 H   0  0  0  0  0  0  0  0  0  0  0  0
   58.0064   32.9958   48.9023 H   0  0  0  0  0  0  0  0  0  0  0  0
   57.4562   31.6510   47.8461 H   0  0  0  0  0  0  0  0  0  0  0  0
   59.1835   32.1440   47.8461 H   0  0  0  0  0  0  0  0  0  0  0  0
   57.3187   34.3117   44.6572 H   0  0  0  0  0  0  0  0  0  0  0  0
   58.8025   33.8549   43.7281 H   0  0  0  0  0  0  0  0  0  0  0  0
   56.4229   32.5853   43.6694 H   0  0  0  0  0  0  0  0  0  0  0  0
   58.1579   31.8876   43.3226 H   0  0  0  0  0  0  0  0  0  0  0  0
   57.3177   29.7007   43.6401 H   0  0  0  0  0  0  0  0  0  0  0  0
   58.6603   29.9812   44.8878 H   0  0  0  0  0  0  0  0  0  0  0  0
   56.2235   29.4747   46.2266 H   0  0  0  0  0  0  0  0  0  0  0  0
   56.4887   28.1866   45.0338 H   0  0  0  0  0  0  0  0  0  0  0  0
   58.1693   30.1096   47.8838 H   0  0  0  0  0  0  0  0  0  0  0  0
   59.8163   28.4932   50.1434 H   0  0  0  0  0  0  0  0  0  0  0  0
   61.3250   28.1070   49.1236 H   0  0  0  0  0  0  0  0  0  0  0  0
   59.0759   30.0749   51.1406 H   0  0  0  0  0  0  0  0  0  0  0  0
   57.5681   31.1721   52.7236 H   0  0  0  0  0  0  0  0  0  0  0  0
   57.6064   33.6691   52.9627 H   0  0  0  0  0  0  0  0  0  0  0  0
   59.2026   34.9451   51.5504 H   0  0  0  0  0  0  0  0  0  0  0  0
   60.8760   34.9590   49.9260 H   0  0  0  0  0  0  0  0  0  0  0  0
   62.5183   35.2809   48.3610 H   0  0  0  0  0  0  0  0  0  0  0  0
   64.0934   34.2431   46.7133 H   0  0  0  0  0  0  0  0  0  0  0  0
   64.1243   31.7887   46.4142 H   0  0  0  0  0  0  0  0  0  0  0  0
   62.5878   30.3441   47.7461 H   0  0  0  0  0  0  0  0  0  0  0  0
   58.3470   26.9209   44.2366 H   0  0  0  0  0  0  0  0  0  0  0  0
   59.4299   25.7237   45.0783 H   0  0  0  0  0  0  0  0  0  0  0  0
   55.6683   24.5482   43.1601 H   0  0  0  0  0  0  0  0  0  0  0  0
   55.5741   22.4847   41.8357 H   0  0  0  0  0  0  0  0  0  0  0  0
   56.9567   20.4936   42.4358 H   0  0  0  0  0  0  0  0  0  0  0  0
   58.4542   20.6451   44.4244 H   0  0  0  0  0  0  0  0  0  0  0  0
   58.5369   22.7120   45.7340 H   0  0  0  0  0  0  0  0  0  0  0  0
  1  2  1  0
  2  3  1  0
  3  4  1  0
  4  5  1  0
  3  6  1  0
  6  7  1  0
  7  8  1  0
  8  9  1  0
  9 10  1  0
 10 11  1  0
 11 12  1  0
 12 13  2  0
 13 14  1  0
 14 15  1  0
 15 16  2  3
 16 17  1  0
 17 18  2  0
 18 19  1  0
 19 20  2  0
 20 21  1  0
 21 22  2  0
 22 23  1  0
 23 24  1  0
 24 25  2  0
 25 26  1  0
 26 27  2  0
 27 28  1  0
 28 29  2  0
 13 30  1  0
 30 31  2  0
 31 32  1  0
 32 33  1  0
 33 34  1  0
 34 35  2  0
 35 36  1  0
 36 37  2  0
 37 38  1  0
 38 39  2  0
 31 11  1  0
 39 34  1  0
 29 16  1  0
 22 17  1  0
 29 24  1  0
  1 40  1  0
  1 41  1  0
  1 42  1  0
  2 43  1  0
  2 44  1  0
  4 45  1  0
  4 46  1  0
  5 47  1  0
  5 48  1  0
  5 49  1  0
  6 50  1  0
  6 51  1  0
  7 52  1  0
  7 53  1  0
  9 54  1  0
  9 55  1  0
 10 56  1  0
 10 57  1  0
 12 58  1  0
 14 59  1  0
 14 60  1  0
 18 61  1  0
 19 62  1  0
 20 63  1  0
 21 64  1  0
 23 65  1  0
 25 66  1  0
 26 67  1  0
 27 68  1  0
 28 69  1  0
 32 70  1  0
 32 71  1  0
 35 72  1  0
 36 73  1  0
 37 74  1  0
 38 75  1  0
 39 76  1  0
M  END
>  <smiles>  (1) 
CCN(CC)CCOCCn1cc(CN=c2c3ccccc3[nH]c3ccccc23)nc1CSc1ccccc1

>  <score_type>  (1) 
oracle

>  <origin>  (1) 
adg

>  <m_score__min__energy>  (1) 
-9.4199999999999999

>  <m_primary>  (1) 
energy

$$$$
1:0
     RDKit          3D

 43 45  0  0  0  0  0  0  0  0999 V2000
   60.4280   30.3550   47.9100 C   0  0  0  0  0  0  0  0  0  0  0  0
   58.9280   30.4920   47.9910 C   0  0  0  0  0  0  0  0  0  0  0  0
   58.3640   31.2520   46.9490 O   0  0  0  0  0  0  0  0  0  0  0  0
   58.7410   32.5620   46.7470 C   0  0  0  0  0  0  0  0  0  0  0  0
   59.2410   33.3950   47.7190 C   0  0  0  0  0  0  0  0  0  0  0  0
   59.6060   34.7060   47.4710 C   0  0  0  0  0  0  0  0  0  0  0  0
   59.4730   35.2260   46.2070 C   0  0  0  0  0  0  0  0  0  0  0  0
   58.9730   34.3940   45.2270 C   0  0  0  0  0  0  0  0  0  0  0  0
   58.6030   33.0840   45.4570 C   0  0  0  0  0  0  0  0  0  0  0  0
   58.0690   32.2290   44.3690 C   0  0  0  0  0  0  0  0  0  0  0  0
   56.9260   31.5300   44.8750 N   0  0  0  0  0  0  0  0  0  0  0  0
   56.5490   30.3880   44.0690 C   0  0  0  0  0  0  0  0  0  0  0  0
   56.9260   29.1210   44.7430 C   0  0  0  0  0  0  0  0  0  0  0  0
   56.1600   28.1470   45.2500 N   0  0  0  0  0  0  0  0  0  0  0  0
   56.9100   27.1890   45.7650 N   0  0  0  0  0  0  0  0  0  0  0  0
   56.4780   25.9560   46.4140 C   0  0  0  0  0  0  0  0  0  0  0  0
   58.2310   27.5050   45.6120 C   0  0  0  0  0  0  0  0  0  0  0  0
   59.4110   26.8730   45.9580 C   0  0  0  0  0  0  0  0  0  0  0  0
   60.5980   27.5020   45.6370 C   0  0  0  0  0  0  0  0  0  0  0  0
   60.6560   28.7200   44.9930 C   0  0  0  0  0  0  0  0  0  0  0  0
   59.4340   29.3190   44.6650 C   0  0  0  0  0  0  0  0  0  0  0  0
   58.2270   28.7240   44.9670 C   0  0  0  0  0  0  0  0  0  0  0  0
   60.8481   30.3166   48.9259 H   0  0  0  0  0  0  0  0  0  0  0  0
   60.6832   29.4298   47.3725 H   0  0  0  0  0  0  0  0  0  0  0  0
   60.8466   31.2187   47.3725 H   0  0  0  0  0  0  0  0  0  0  0  0
   58.4869   29.4847   47.9620 H   0  0  0  0  0  0  0  0  0  0  0  0
   58.7079   31.0249   48.9278 H   0  0  0  0  0  0  0  0  0  0  0  0
   59.3561   33.0017   48.7398 H   0  0  0  0  0  0  0  0  0  0  0  0
   60.0021   35.3310   48.2849 H   0  0  0  0  0  0  0  0  0  0  0  0
   59.7543   36.2659   45.9846 H   0  0  0  0  0  0  0  0  0  0  0  0
   58.8633   34.7954   44.2087 H   0  0  0  0  0  0  0  0  0  0  0  0
   57.7752   32.8543   43.5131 H   0  0  0  0  0  0  0  0  0  0  0  0
   58.8355   31.5150   44.0334 H   0  0  0  0  0  0  0  0  0  0  0  0
   56.9750   31.3250   45.8760 H   0  0  0  0  0  0  0  0  0  0  0  0
   55.4606   30.4021   43.9100 H   0  0  0  0  0  0  0  0  0  0  0  0
   57.0770   30.4461   43.1058 H   0  0  0  0  0  0  0  0  0  0  0  0
   56.5220   26.0815   47.5059 H   0  0  0  0  0  0  0  0  0  0  0  0
   55.4455   25.7253   46.1127 H   0  0  0  0  0  0  0  0  0  0  0  0
   57.1408   25.1314   46.1127 H   0  0  0  0  0  0  0  0  0  0  0  0
   59.4047   25.9007   46.4723 H   0  0  0  0  0  0  0  0  0  0  0  0
   61.5425   27.0076   45.9081 H   0  0  0  0  0  0  0  0  0  0  0  0
   61.6162   29.1979   44.7488 H   0  0  0  0  0  0  0  0  0  0  0  0
   59.4365   30.2919   44.1518 H   0  0  0  0  0  0  0  0  0  0  0  0
  1  2  1  0
  2  3  1  0
  3  4  1  0
  4  5  2  0
  5  6  1  0
  6  7  2  0
  7  8  1  0
  8  9  2  0
  9 10  1  0
 10 11  1  0
 11 12  1  0
 12 13  1  0
 13 14  2  0
 14 15  1  0
 15 16  1  0
 15 17  1  0
 17 18  2  0
 18 19  1  0
 19 20  2  0
 20 21  1  0
 21 22  2  0
  9  4  1  0
 22 13  1  0
 22 17  1  0
  1 23  1  0
  1 24  1  0
  1 25  1  0
  2 26  1  0
  2 27  1  0
  5 28  1  0
  6 29  1  0
  7 30  1  0
  8 31  1  0
 10 32  1  0
 10 33  1  0
 11 34  1  0
 12 35  1  0
 12 36  1  0
 16 37  1  0
 16 38  1  0
 16 39  1  0
 18 40  1  0
 19 41  1  0
 20 42  1  0
 21 43  1  0
M  END
>  <smiles>  (2) 
CCOc1ccccc1CNCc1nn(C)c2ccccc12

>  <score_type>  (2) 
oracle

>  <origin>  (2) 
adg

>  <m_score__min__energy>  (2) 
-7.3200000000000003

>  <m_primary>  (2) 
energy

$$$$
2:0
     RDKit          3D

 26 27  0  0  1  0  0  0  0  0999 V2000
   57.4400   31.6000   43.7580 C   0  0  0  0  0  0  0  0  0  0  0  0
   58.0050   32.5570   44.7190 C   0  0  0  0  0  0  0  0  0  0  0  0
   58.4790   33.3490   45.4990 C   0  0  0  0  0  0  0  0  0  0  0  0
   59.0620   34.3040   46.4730 C   0  0  2  0  0  0  0  0  0  0  0  0
   60.3380   34.7930   46.0020 N   0  0  0  0  0  0  0  0  0  0  0  0
   61.2990   34.0800   46.4770 C   0  0  0  0  0  0  0  0  0  0  0  0
   63.0850   33.8390   46.5260 S   0  0  0  0  0  0  0  0  0  0  0  0
   63.0660   32.2620   47.4230 C   0  0  0  0  0  0  0  0  0  0  0  0
   61.6260   31.9720   47.4890 C   0  0  0  0  0  0  0  0  0  0  0  0
   61.1920   30.7820   47.6950 O   0  0  0  0  0  0  0  0  0  0  0  0
   60.7740   33.0650   47.3130 N   0  0  0  0  0  0  0  0  0  0  0  0
   59.4480   33.5640   47.6940 C   0  0  0  0  0  0  0  0  0  0  0  0
   58.5100   32.4960   48.1380 C   0  0  0  0  0  0  0  0  0  0  0  0
   59.6560   34.5870   48.7860 C   0  0  0  0  0  0  0  0  0  0  0  0
   56.9541   30.7770   44.3026 H   0  0  0  0  0  0  0  0  0  0  0  0
   56.6980   32.1099   43.1259 H   0  0  0  0  0  0  0  0  0  0  0  0
   58.2448   31.1966   43.1259 H   0  0  0  0  0  0  0  0  0  0  0  0
   58.3196   35.1008   46.6281 H   0  0  0  0  0  0  0  0  0  0  0  0
   63.6073   31.4801   46.8702 H   0  0  0  0  0  0  0  0  0  0  0  0
   63.5582   32.3022   48.4059 H   0  0  0  0  0  0  0  0  0  0  0  0
   58.4831   32.4654   49.2372 H   0  0  0  0  0  0  0  0  0  0  0  0
   57.5022   32.7096   47.7524 H   0  0  0  0  0  0  0  0  0  0  0  0
   58.8518   31.5242   47.7524 H   0  0  0  0  0  0  0  0  0  0  0  0
   59.5571   34.1007   49.7677 H   0  0  0  0  0  0  0  0  0  0  0  0
   60.6613   35.0237   48.6927 H   0  0  0  0  0  0  0  0  0  0  0  0
   58.9010   35.3816   48.6927 H   0  0  0  0  0  0  0  0  0  0  0  0
  1  2  1  0
  2  3  3  0
  3  4  1  0
  4  5  1  0
  5  6  2  0
  6  7  1  0
  7  8  1  0
  8  9  1  0
  9 10  2  0
  9 11  1  0
 11 12  1  0
 12 13  1  0
 12 14  1  0
 12  4  1  0
 11  6  1  0
  1 15  1  0
  1 16  1  0
  1 17  1  0
  4 18  1  1
  8 19  1  0
  8 20  1  0
 13 21  1  0
 13 22  1  0
 13 23  1  0
 14 24  1  0
 14 25  1  0
 14 26  1  0
M  END
>  <smiles>  (3) 
CC#CC1N=C2SCC(=O)N2C1(C)C

>  <score_type>  (3) 
oracle

>  <origin>  (3) 
adg

>  <m_score__min__energy>  (3) 
-5.0899999999999999

>  <m_primary>  (3) 
energy

$$$$
3:0
     RDKit          3D

 77 80  0  0  0  0  0  0  0  0999 V2000
   56.6100   30.0640   42.8690 C   0  0  0  0  0  0  0  0  0  0  0  0
   55.5840   30.0930   43.9950 C   0  0  0  0  0  0  0  0  0  0  0  0
   56.1660   29.7400   45.2510 N   0  0  0  0  0  0  0  0  0  0  0  0
   56.7090   28.4030   45.2210 C   0  0  0  0  0  0  0  0  0  0  0  0
   58.2200   28.4710   45.4550 C   0  0  0  0  0  0  0  0  0  0  0  0
   58.7050   29.7470   44.9520 N   0  0  0  0  0  0  0  0  0  0  0  0
   59.9790   30.0750   45.6450 C   0  0  0  0  0  0  0  0  0  0  0  0
   59.6370   30.3110   47.0920 C   0  0  0  0  0  0  0  0  0  0  0  0
   60.3330   29.5780   48.0040 C   0  0  0  0  0  0  0  0  0  0  0  0
   60.1140   29.8190   49.3330 C   0  0  0  0  0  0  0  0  0  0  0  0
   61.0750   28.8010   50.6020 Br  0  0  0  0  0  0  0  0  0  0  0  0
   59.2380   30.7550   49.7640 C   0  0  0  0  0  0  0  0  0  0  0  0
   58.5430   31.4840   48.8220 C   0  0  0  0  0  0  0  0  0  0  0  0
   58.6980   31.3040   47.4450 C   0  0  0  0  0  0  0  0  0  0  0  0
   58.0630   31.9660   46.5620 O   0  0  0  0  0  0  0  0  0  0  0  0
   57.4090   32.6530   45.6560 C   0  0  0  0  0  0  0  0  0  0  0  0
   58.2250   32.8850   44.3460 C   0  0  0  0  0  0  0  0  0  0  0  0
   58.8810   34.2030   44.4700 C   0  0  0  0  0  0  0  0  0  0  0  0
   59.9920   34.2590   45.5440 C   0  0  0  0  0  0  0  0  0  0  0  0
   59.5940   35.2010   46.6160 C   0  0  0  0  0  0  0  0  0  0  0  0
   59.1120   34.6560   47.8660 C   0  0  0  0  0  0  0  0  0  0  0  0
   59.6420   34.8260   49.1670 N   0  0  0  0  0  0  0  0  0  0  0  0
   60.5550   33.9680   49.8020 C   0  0  0  0  0  0  0  0  0  0  0  0
   60.2030   33.5910   51.1180 C   0  0  0  0  0  0  0  0  0  0  0  0
   59.0310   34.0830   51.6840 C   0  0  0  0  0  0  0  0  0  0  0  0
   58.6210   33.7750   52.9600 C   0  0  0  0  0  0  0  0  0  0  0  0
   59.4300   32.9340   53.6960 C   0  0  0  0  0  0  0  0  0  0  0  0
   60.6020   32.4340   53.1500 C   0  0  0  0  0  0  0  0  0  0  0  0
   61.0050   32.7540   51.8590 C   0  0  0  0  0  0  0  0  0  0  0  0
   62.1700   32.2480   51.3730 N   0  0  0  0  0  0  0  0  0  0  0  0
   63.0080   31.3520   52.1140 C   0  0  0  0  0  0  0  0  0  0  0  0
   62.5240   32.6040   50.1140 C   0  0  0  0  0  0  0  0  0  0  0  0
   63.7090   32.1680   49.5680 C   0  0  0  0  0  0  0  0  0  0  0  0
   64.1290   32.5420   48.2880 C   0  0  0  0  0  0  0  0  0  0  0  0
   63.3310   33.3840   47.5420 C   0  0  0  0  0  0  0  0  0  0  0  0
   62.1460   33.8210   48.0860 C   0  0  0  0  0  0  0  0  0  0  0  0
   61.7220   33.4550   49.3420 C   0  0  0  0  0  0  0  0  0  0  0  0
   57.6231   30.0354   43.2967 H   0  0  0  0  0  0  0  0  0  0  0  0
   56.4485   29.1701   42.2487 H   0  0  0  0  0  0  0  0  0  0  0  0
   56.4992   30.9656   42.2487 H   0  0  0  0  0  0  0  0  0  0  0  0
   55.1649   31.1073   44.0691 H   0  0  0  0  0  0  0  0  0  0  0  0
   54.7996   29.3577   43.7624 H   0  0  0  0  0  0  0  0  0  0  0  0
   56.7870   30.4640   45.6330 H   0  0  0  0  0  0  0  0  0  0  0  0
   56.2408   27.7974   46.0110 H   0  0  0  0  0  0  0  0  0  0  0  0
   56.5057   27.9422   44.2431 H   0  0  0  0  0  0  0  0  0  0  0  0
   58.4334   28.3904   46.5311 H   0  0  0  0  0  0  0  0  0  0  0  0
   58.7213   27.6432   44.9322 H   0  0  0  0  0  0  0  0  0  0  0  0
   58.0480   30.4990   45.3210 H   0  0  0  0  0  0  0  0  0  0  0  0
   60.6862   29.2373   45.5545 H   0  0  0  0  0  0  0  0  0  0  0  0
   60.4534   30.9626   45.2010 H   0  0  0  0  0  0  0  0  0  0  0  0
   61.0529   28.8117   47.6808 H   0  0  0  0  0  0  0  0  0  0  0  0
   59.0838   30.9304   50.8389 H   0  0  0  0  0  0  0  0  0  0  0  0
   57.8307   32.2456   49.1723 H   0  0  0  0  0  0  0  0  0  0  0  0
   56.4886   32.1070   45.4015 H   0  0  0  0  0  0  0  0  0  0  0  0
   57.1992   33.6428   46.0876 H   0  0  0  0  0  0  0  0  0  0  0  0
   58.9825   32.0961   44.2287 H   0  0  0  0  0  0  0  0  0  0  0  0
   57.5671   32.8567   43.4649 H   0  0  0  0  0  0  0  0  0  0  0  0
   59.3276   34.4590   43.4979 H   0  0  0  0  0  0  0  0  0  0  0  0
   58.1031   34.9153   44.7822 H   0  0  0  0  0  0  0  0  0  0  0  0
   60.1390   33.2566   45.9724 H   0  0  0  0  0  0  0  0  0  0  0  0
   60.9305   34.6017   45.0839 H   0  0  0  0  0  0  0  0  0  0  0  0
   60.4734   35.8196   46.8484 H   0  0  0  0  0  0  0  0  0  0  0  0
   58.7257   35.7330   46.2001 H   0  0  0  0  0  0  0  0  0  0  0  0
   58.0755   35.0164   47.9419 H   0  0  0  0  0  0  0  0  0  0  0  0
   59.4098   33.6089   47.7084 H   0  0  0  0  0  0  0  0  0  0  0  0
   59.3250   35.6760   49.7180 H   0  0  0  0  0  0  0  0  0  0  0  0
   58.4005   34.7522   51.0802 H   0  0  0  0  0  0  0  0  0  0  0  0
   57.6876   34.1819   53.3762 H   0  0  0  0  0  0  0  0  0  0  0  0
   59.1434   32.6587   54.7217 H   0  0  0  0  0  0  0  0  0  0  0  0
   61.2309   31.7650   53.7558 H   0  0  0  0  0  0  0  0  0  0  0  0
   62.8561   31.5144   53.1913 H   0  0  0  0  0  0  0  0  0  0  0  0
   62.7496   30.3135   51.8597 H   0  0  0  0  0  0  0  0  0  0  0  0
   64.0615   31.5405   51.8597 H   0  0  0  0  0  0  0  0  0  0  0  0
   64.3505   31.4997   50.1611 H   0  0  0  0  0  0  0  0  0  0  0  0
   65.0814   32.1704   47.8821 H   0  0  0  0  0  0  0  0  0  0  0  0
   63.6360   33.6993   46.5333 H   0  0  0  0  0  0  0  0  0  0  0  0
   61.5097   34.4924   47.4907 H   0  0  0  0  0  0  0  0  0  0  0  0
  1  2  1  0
  2  3  1  0
  3  4  1  0
  4  5  1  0
  5  6  1  0
  6  7  1  0
  7  8  1  0
  8  9  2  0
  9 10  1  0
 10 11  1  0
 10 12  2  0
 12 13  1  0
 13 14  2  0
 14 15  1  0
 15 16  1  0
 16 17  1  0
 17 18  1  0
 18 19  1  0
 19 20  1  0
 20 21  1  0
 21 22  1  0
 22 23  1  0
 23 24  1  0
 24 25  2  0
 25 26  1  0
 26 27  2  0
 27 28  1  0
 28 29  2  0
 29 30  1  0
 30 31  1  0
 30 32  2  0
 32 33  1  0
 33 34  2  0
 34 35  1  0
 35 36  2  0
 36 37  1  0
 14  8  1  0
 37 23  2  0
 29 24  1  0
 37 32  1  0
  1 38  1  0
  1 39  1  0
  1 40  1  0
  2 41  1  0
  2 42  1  0
  3 43  1  0
  4 44  1  0
  4 45  1  0
  5 46  1  0
  5 47  1  0
  6 48  1  0
  7 49  1  0
  7 50  1  0
  9 51  1  0
 12 52  1  0
 13 53  1  0
 16 54  1  0
 16 55  1  0
 17 56  1  0
 17 57  1  0
 18 58  1  0
 18 59  1  0
 19 60  1  0
 19 61  1  0
 20 62  1  0
 20 63  1  0
 21 64  1  0
 21 65  1  0
 22 66  1  0
 25 67  1  0
 26 68  1  0
 27 69  1  0
 28 70  1  0
 31 71  1  0
 31 72  1  0
 31 73  1  0
 33 74  1  0
 34 75  1  0
 35 76  1  0
 36 77  1  0
M  CHG  1  30   1
M  END
>  <smiles>  (4) 
CCNCCNCc1cc(Br)ccc1OCCCCCCNc1c2ccccc2[n+](C)c2ccccc12

>  <score_type>  (4) 
oracle

>  <origin>  (4) 
adg

>  <m_score__min__energy>  (4) 
-7.7699999999999996

>  <m_primary>  (4) 
energy

$$$$
4:0
     RDKit          3D

 61 64  0  0  0  0  0  0  0  0999 V2000
   56.2370   29.7550   43.0100 C   0  0  0  0  0  0  0  0  0  0  0  0
   57.3120   29.1730   43.8720 C   0  0  0  0  0  0  0  0  0  0  0  0
   57.7110   30.1710   44.8730 N   0  0  0  0  0  0  0  0  0  0  0  0
   57.1080   31.4870   44.6820 C   0  0  0  0  0  0  0  0  0  0  0  0
   57.9030   32.3710   43.7560 C   0  0  0  0  0  0  0  0  0  0  0  0
   58.6800   33.3070   44.5050 N   0  0  0  0  0  0  0  0  0  0  0  0
   57.9270   34.2650   45.2560 C   0  0  0  0  0  0  0  0  0  0  0  0
   58.2300   34.2100   46.7440 C   0  0  0  0  0  0  0  0  0  0  0  0
   58.9270   32.9720   47.0980 N   0  0  0  0  0  0  0  0  0  0  0  0
   59.8760   32.9240   48.1380 C   0  0  0  0  0  0  0  0  0  0  0  0
   59.4910   32.5900   49.4300 C   0  0  0  0  0  0  0  0  0  0  0  0
   58.1440   32.3210   49.6040 C   0  0  0  0  0  0  0  0  0  0  0  0
   57.6750   31.9890   50.8560 C   0  0  0  0  0  0  0  0  0  0  0  0
   58.5600   31.9300   51.9120 C   0  0  0  0  0  0  0  0  0  0  0  0
   59.9070   32.2040   51.7070 C   0  0  0  0  0  0  0  0  0  0  0  0
   60.4080   32.5410   50.4580 C   0  0  0  0  0  0  0  0  0  0  0  0
   61.7300   32.8140   50.2700 N   0  0  0  0  0  0  0  0  0  0  0  0
   62.6230   32.7280   51.3770 C   0  0  0  0  0  0  0  0  0  0  0  0
   62.0890   33.1370   49.0140 C   0  0  0  0  0  0  0  0  0  0  0  0
   63.4060   33.4360   48.7480 C   0  0  0  0  0  0  0  0  0  0  0  0
   63.8090   33.7820   47.4540 C   0  0  0  0  0  0  0  0  0  0  0  0
   62.9210   33.8400   46.4020 C   0  0  0  0  0  0  0  0  0  0  0  0
   61.6010   33.5410   46.6690 C   0  0  0  0  0  0  0  0  0  0  0  0
   61.2120   33.1990   47.9550 C   0  0  0  0  0  0  0  0  0  0  0  0
   58.6160   29.8820   45.9280 C   0  0  0  0  0  0  0  0  0  0  0  0
   58.2190   29.2700   47.1150 C   0  0  0  0  0  0  0  0  0  0  0  0
   59.1000   29.0060   48.1440 C   0  0  0  0  0  0  0  0  0  0  0  0
   60.4300   29.3300   48.0620 C   0  0  0  0  0  0  0  0  0  0  0  0
   60.8480   29.9370   46.8920 C   0  0  0  0  0  0  0  0  0  0  0  0
   59.9570   30.2080   45.8470 C   0  0  0  0  0  0  0  0  0  0  0  0
   55.4479   30.1822   43.6463 H   0  0  0  0  0  0  0  0  0  0  0  0
   56.6639   30.5452   42.3749 H   0  0  0  0  0  0  0  0  0  0  0  0
   55.8087   28.9656   42.3749 H   0  0  0  0  0  0  0  0  0  0  0  0
   56.9327   28.2732   44.3784 H   0  0  0  0  0  0  0  0  0  0  0  0
   58.1788   28.8987   43.2528 H   0  0  0  0  0  0  0  0  0  0  0  0
   56.1011   31.3531   44.2599 H   0  0  0  0  0  0  0  0  0  0  0  0
   57.0795   31.9812   45.6643 H   0  0  0  0  0  0  0  0  0  0  0  0
   58.5746   31.7474   43.1476 H   0  0  0  0  0  0  0  0  0  0  0  0
   57.2080   32.9235   43.1066 H   0  0  0  0  0  0  0  0  0  0  0  0
   59.4340   32.8500   45.0430 H   0  0  0  0  0  0  0  0  0  0  0  0
   58.1679   35.2719   44.8844 H   0  0  0  0  0  0  0  0  0  0  0  0
   56.8609   34.0281   45.1242 H   0  0  0  0  0  0  0  0  0  0  0  0
   58.8639   35.0679   47.0129 H   0  0  0  0  0  0  0  0  0  0  0  0
   57.2781   34.2429   47.2943 H   0  0  0  0  0  0  0  0  0  0  0  0
   58.7230   32.0990   46.5790 H   0  0  0  0  0  0  0  0  0  0  0  0
   57.4537   32.3720   48.7491 H   0  0  0  0  0  0  0  0  0  0  0  0
   56.6076   31.7736   51.0115 H   0  0  0  0  0  0  0  0  0  0  0  0
   58.1996   31.6659   52.9172 H   0  0  0  0  0  0  0  0  0  0  0  0
   60.5974   32.1520   52.5618 H   0  0  0  0  0  0  0  0  0  0  0  0
   62.0508   32.7831   52.3148 H   0  0  0  0  0  0  0  0  0  0  0  0
   63.1677   31.7732   51.3354 H   0  0  0  0  0  0  0  0  0  0  0  0
   63.3399   33.5613   51.3354 H   0  0  0  0  0  0  0  0  0  0  0  0
   64.1476   33.4026   49.5597 H   0  0  0  0  0  0  0  0  0  0  0  0
   64.8682   34.0151   47.2704 H   0  0  0  0  0  0  0  0  0  0  0  0
   63.2516   34.1139   45.3892 H   0  0  0  0  0  0  0  0  0  0  0  0
   60.8560   33.5740   45.8604 H   0  0  0  0  0  0  0  0  0  0  0  0
   57.1632   28.9864   47.2366 H   0  0  0  0  0  0  0  0  0  0  0  0
   58.7242   28.5213   49.0571 H   0  0  0  0  0  0  0  0  0  0  0  0
   61.1285   29.1179   48.8848 H   0  0  0  0  0  0  0  0  0  0  0  0
   61.9067   30.2137   46.7797 H   0  0  0  0  0  0  0  0  0  0  0  0
   60.3346   30.6942   44.9354 H   0  0  0  0  0  0  0  0  0  0  0  0
  1  2  1  0
  2  3  1  0
  3  4  1  0
  4  5  1  0
  5  6  1  0
  6  7  1  0
  7  8  1  0
  8  9  1  0
  9 10  1  0
 10 11  1  0
 11 12  2  0
 12 13  1  0
 13 14  2  0
 14 15  1  0
 15 16  2  0
 16 17  1  0
 17 18  1  0
 17 19  2  0
 19 20  1  0
 20 21  2  0
 21 22  1  0
 22 23  2  0
 23 24  1  0
  3 25  1  0
 25 26  2  0
 26 27  1  0
 27 28  2  0
 28 29  1  0
 29 30  2  0
 24 10  2  0
 30 25  1  0
 16 11  1  0
 24 19  1  0
  1 31  1  0
  1 32  1  0
  1 33  1  0
  2 34  1  0
  2 35  1  0
  4 36  1  0
  4 37  1  0
  5 38  1  0
  5 39  1  0
  6 40  1  0
  7 41  1  0
  7 42  1  0
  8 43  1  0
  8 44  1  0
  9 45  1  0
 12 46  1  0
 13 47  1  0
 14 48  1  0
 15 49  1  0
 18 50  1  0
 18 51  1  0
 18 52  1  0
 20 53  1  0
 21 54  1  0
 22 55  1  0
 23 56  1  0
 26 57  1  0
 27 58  1  0
 28 59  1  0
 29 60  1  0
 30 61  1  0
M  CHG  1  17   1
M  END
>  <smiles>  (5) 
CCN(CCNCCNc1c2ccccc2[n+](C)c2ccccc12)c1ccccc1

>  <score_type>  (5) 
oracle

>  <origin>  (5) 
adg

>  <m_score__min__energy>  (5) 
-6.3200000000000003

>  <m_primary>  (5) 
energy

$$$$
5:0
     RDKit          3D

 41 44  0  0  1  0  0  0  0  0999 V2000
   57.1340   24.5010   47.0550 C   0  0  0  0  0  0  0  0  0  0  0  0
   57.2760   25.8100   46.4430 N   0  0  0  0  0  0  0  0  0  0  0  0
   56.2780   26.6240   45.9840 C   0  0  0  0  0  0  0  0  0  0  0  0
   55.0610   26.3470   46.0270 O   0  0  0  0  0  0  0  0  0  0  0  0
   56.8150   27.7550   45.4850 N   0  0  0  0  0  0  0  0  0  0  0  0
   58.1320   27.6270   45.6410 C   0  0  0  0  0  0  0  0  0  0  0  0
   59.0610   28.5680   45.2610 C   0  0  0  0  0  0  0  0  0  0  0  0
   60.3980   28.3050   45.4830 C   0  0  0  0  0  0  0  0  0  0  0  0
   60.7530   27.0930   46.0850 C   0  0  0  0  0  0  0  0  0  0  0  0
   59.7810   26.1660   46.4540 C   0  0  0  0  0  0  0  0  0  0  0  0
   58.4480   26.4350   46.2310 C   0  0  0  0  0  0  0  0  0  0  0  0
   58.5760   29.8310   44.6290 C   0  0  0  0  0  0  0  0  0  0  0  0
   57.1770   30.1040   45.0610 C   0  0  1  0  0  0  0  0  0  0  0  0
   56.6380   31.3160   44.5330 N   0  0  0  0  0  0  0  0  0  0  0  0
   57.6340   32.2690   44.1790 C   0  0  0  0  0  0  0  0  0  0  0  0
   57.4300   33.6170   44.8240 C   0  0  0  0  0  0  0  0  0  0  0  0
   58.2950   33.7970   46.0190 C   0  0  0  0  0  0  0  0  0  0  0  0
   58.2730   33.1630   47.2070 C   0  0  0  0  0  0  0  0  0  0  0  0
   59.1590   33.4940   48.1490 C   0  0  0  0  0  0  0  0  0  0  0  0
   60.0600   34.4810   47.8490 C   0  0  0  0  0  0  0  0  0  0  0  0
   59.6400   34.9900   46.1130 S   0  0  0  0  0  0  0  0  0  0  0  0
   56.2290   28.9330   44.8800 C   0  0  0  0  0  0  0  0  0  0  0  0
   57.1453   24.6050   48.1500 H   0  0  0  0  0  0  0  0  0  0  0  0
   56.1817   24.0500   46.7393 H   0  0  0  0  0  0  0  0  0  0  0  0
   57.9675   23.8563   46.7393 H   0  0  0  0  0  0  0  0  0  0  0  0
   61.1689   29.0339   45.1923 H   0  0  0  0  0  0  0  0  0  0  0  0
   61.8141   26.8691   46.2694 H   0  0  0  0  0  0  0  0  0  0  0  0
   60.0781   25.2171   46.9245 H   0  0  0  0  0  0  0  0  0  0  0  0
   59.2231   30.6656   44.9367 H   0  0  0  0  0  0  0  0  0  0  0  0
   58.6049   29.7249   43.5345 H   0  0  0  0  0  0  0  0  0  0  0  0
   57.2648   30.2519   46.1475 H   0  0  0  0  0  0  0  0  0  0  0  0
   55.9070   31.7510   45.1290 H   0  0  0  0  0  0  0  0  0  0  0  0
   58.6150   31.8793   44.4885 H   0  0  0  0  0  0  0  0  0  0  0  0
   57.5696   32.4168   43.0909 H   0  0  0  0  0  0  0  0  0  0  0  0
   57.6687   34.4016   44.0909 H   0  0  0  0  0  0  0  0  0  0  0  0
   56.3814   33.6836   45.1495 H   0  0  0  0  0  0  0  0  0  0  0  0
   57.5287   32.3764   47.4001 H   0  0  0  0  0  0  0  0  0  0  0  0
   59.1653   32.9934   49.1284 H   0  0  0  0  0  0  0  0  0  0  0  0
   60.8558   34.8830   48.4933 H   0  0  0  0  0  0  0  0  0  0  0  0
   55.2680   29.1579   45.3656 H   0  0  0  0  0  0  0  0  0  0  0  0
   56.0584   28.7548   43.8080 H   0  0  0  0  0  0  0  0  0  0  0  0
  1  2  1  0
  2  3  1  0
  3  4  2  0
  3  5  1  0
  5  6  1  0
  6  7  2  0
  7  8  1  0
  8  9  2  0
  9 10  1  0
 10 11  2  0
  7 12  1  0
 12 13  1  0
 13 14  1  0
 14 15  1  0
 15 16  1  0
 16 17  1  0
 17 18  2  0
 18 19  1  0
 19 20  2  0
 20 21  1  0
 13 22  1  0
 11  2  1  0
 21 17  1  0
 22  5  1  0
 11  6  1  0
  1 23  1  0
  1 24  1  0
  1 25  1  0
  8 26  1  0
  9 27  1  0
 10 28  1  0
 12 29  1  0
 12 30  1  0
 13 31  1  1
 14 32  1  0
 15 33  1  0
 15 34  1  0
 16 35  1  0
 16 36  1  0
 18 37  1  0
 19 38  1  0
 20 39  1  0
 22 40  1  0
 22 41  1  0
M  END
>  <smiles>  (6) 
Cn1c(=O)n2c3c(cccc31)CC(NCCc1cccs1)C2

>  <score_type>  (6) 
oracle

>  <origin>  (6) 
adg

>  <m_score__min__energy>  (6) 
-8.4900000000000002

>  <m_primary>  (6) 
energy

$$$$
6:0
     RDKit          3D

 52 54  0  0  0  0  0  0  0  0999 V2000
   60.3750   29.4050   45.6070 C   0  0  0  0  0  0  0  0  0  0  0  0
   59.7210   29.5630   46.9490 C   0  0  0  0  0  0  0  0  0  0  0  0
   58.2860   29.2710   46.8150 N   0  0  0  0  0  0  0  0  0  0  0  0
   58.1410   28.2070   45.8140 C   0  0  0  0  0  0  0  0  0  0  0  0
   57.0210   28.5830   44.8190 C   0  0  0  0  0  0  0  0  0  0  0  0
   56.4450   29.7680   45.1350 O   0  0  0  0  0  0  0  0  0  0  0  0
   56.5250   30.8190   44.2860 C   0  0  0  0  0  0  0  0  0  0  0  0
   57.4260   31.9290   44.6470 C   0  0  0  0  0  0  0  0  0  0  0  0
   57.9780   32.8110   43.7510 C   0  0  0  0  0  0  0  0  0  0  0  0
   58.8460   33.8310   44.1430 C   0  0  0  0  0  0  0  0  0  0  0  0
   59.1310   33.9130   45.5110 C   0  0  0  0  0  0  0  0  0  0  0  0
   58.5750   33.0260   46.4030 C   0  0  0  0  0  0  0  0  0  0  0  0
   58.8640   33.1010   47.8300 C   0  0  0  0  0  0  0  0  0  0  0  0
   58.3970   32.2090   48.7580 C   0  0  0  0  0  0  0  0  0  0  0  0
   58.6910   32.3040   50.1150 C   0  0  0  0  0  0  0  0  0  0  0  0
   59.4880   33.3330   50.5850 C   0  0  0  0  0  0  0  0  0  0  0  0
   59.8140   33.4660   51.9620 N   0  0  0  0  0  0  0  0  0  0  0  0
   60.9950   32.8390   52.5220 C   0  0  0  0  0  0  0  0  0  0  0  0
   61.4050   33.7310   53.7040 C   0  0  0  0  0  0  0  0  0  0  0  0
   60.3940   33.5680   54.6320 O   0  0  0  0  0  0  0  0  0  0  0  0
   59.2430   34.2090   54.2560 C   0  0  0  0  0  0  0  0  0  0  0  0
   58.9410   34.2430   52.8030 C   0  0  0  0  0  0  0  0  0  0  0  0
   59.9570   34.2270   49.6510 C   0  0  0  0  0  0  0  0  0  0  0  0
   59.6670   34.1330   48.3110 C   0  0  0  0  0  0  0  0  0  0  0  0
   57.7480   32.0730   45.9440 N   0  0  0  0  0  0  0  0  0  0  0  0
   61.4359   29.1487   45.7440 H   0  0  0  0  0  0  0  0  0  0  0  0
   59.8732   28.6022   45.0468 H   0  0  0  0  0  0  0  0  0  0  0  0
   60.2951   30.3483   45.0468 H   0  0  0  0  0  0  0  0  0  0  0  0
   60.1751   28.8633   47.6661 H   0  0  0  0  0  0  0  0  0  0  0  0
   59.8604   30.5914   47.3136 H   0  0  0  0  0  0  0  0  0  0  0  0
   57.7990   30.1270   46.4950 H   0  0  0  0  0  0  0  0  0  0  0  0
   59.0889   28.0846   45.2695 H   0  0  0  0  0  0  0  0  0  0  0  0
   57.8819   27.2639   46.3173 H   0  0  0  0  0  0  0  0  0  0  0  0
   57.4509   28.6540   43.8090 H   0  0  0  0  0  0  0  0  0  0  0  0
   56.2466   27.8031   44.8647 H   0  0  0  0  0  0  0  0  0  0  0  0
   56.8582   30.4296   43.3127 H   0  0  0  0  0  0  0  0  0  0  0  0
   55.5190   31.2636   44.3009 H   0  0  0  0  0  0  0  0  0  0  0  0
   57.7267   32.7098   42.6849 H   0  0  0  0  0  0  0  0  0  0  0  0
   59.2824   34.5323   43.4166 H   0  0  0  0  0  0  0  0  0  0  0  0
   59.8090   34.6977   45.8777 H   0  0  0  0  0  0  0  0  0  0  0  0
   57.7606   31.3797   48.4154 H   0  0  0  0  0  0  0  0  0  0  0  0
   58.2884   31.5585   50.8165 H   0  0  0  0  0  0  0  0  0  0  0  0
   60.7631   31.8214   52.8694 H   0  0  0  0  0  0  0  0  0  0  0  0
   61.8012   32.7455   51.7795 H   0  0  0  0  0  0  0  0  0  0  0  0
   62.3698   33.4051   54.1198 H   0  0  0  0  0  0  0  0  0  0  0  0
   61.5332   34.7826   53.4077 H   0  0  0  0  0  0  0  0  0  0  0  0
   58.4031   33.7075   54.7590 H   0  0  0  0  0  0  0  0  0  0  0  0
   59.3911   35.2602   54.5443 H   0  0  0  0  0  0  0  0  0  0  0  0
   57.9163   33.8685   52.6627 H   0  0  0  0  0  0  0  0  0  0  0  0
   59.0821   35.2891   52.4935 H   0  0  0  0  0  0  0  0  0  0  0  0
   60.5941   35.0561   49.9926 H   0  0  0  0  0  0  0  0  0  0  0  0
   60.0725   34.8792   47.6119 H   0  0  0  0  0  0  0  0  0  0  0  0
  1  2  1  0
  2  3  1  0
  3  4  1  0
  4  5  1  0
  5  6  1  0
  6  7  1  0
  7  8  1  0
  8  9  2  0
  9 10  1  0
 10 11  2  0
 11 12  1  0
 12 13  1  0
 13 14  2  0
 14 15  1  0
 15 16  2  0
 16 17  1  0
 17 18  1  0
 18 19  1  0
 19 20  1  0
 20 21  1  0
 21 22  1  0
 16 23  1  0
 23 24  2  0
 12 25  2  0
 25  8  1  0
 24 13  1  0
 22 17  1  0
  1 26  1  0
  1 27  1  0
  1 28  1  0
  2 29  1  0
  2 30  1  0
  3 31  1  0
  4 32  1  0
  4 33  1  0
  5 34  1  0
  5 35  1  0
  7 36  1  0
  7 37  1  0
  9 38  1  0
 10 39  1  0
 11 40  1  0
 14 41  1  0
 15 42  1  0
 18 43  1  0
 18 44  1  0
 19 45  1  0
 19 46  1  0
 21 47  1  0
 21 48  1  0
 22 49  1  0
 22 50  1  0
 23 51  1  0
 24 52  1  0
M  END
>  <smiles>  (7) 
CCNCCOCc1cccc(-c2ccc(N3CCOCC3)cc2)n1

>  <score_type>  (7) 
oracle

>  <origin>  (7) 
adg

>  <m_score__min__energy>  (7) 
-6.9900000000000002

>  <m_primary>  (7) 
energy

$$$$
7:0
     RDKit          3D

 60 62  0  0  0  0  0  0  0  0999 V2000
   62.6700   33.8350   46.3620 C   0  0  0  0  0  0  0  0  0  0  0  0
   63.7870   33.1020   47.0200 C   0  0  0  0  0  0  0  0  0  0  0  0
   63.4260   32.5400   48.2970 N   0  0  0  0  0  0  0  0  0  0  0  0
   64.2790   32.9370   49.3870 C   0  0  0  0  0  0  0  0  0  0  0  0
   64.7150   31.7590   50.2480 C   0  0  0  0  0  0  0  0  0  0  0  0
   63.5060   31.0800   50.8950 C   0  0  0  0  0  0  0  0  0  0  0  0
   62.4090   31.1130   50.0770 O   0  0  0  0  0  0  0  0  0  0  0  0
   61.4110   30.1890   50.3550 C   0  0  0  0  0  0  0  0  0  0  0  0
   60.4260   30.1090   49.2490 C   0  0  0  0  0  0  0  0  0  0  0  0
   60.6540   30.9400   48.1100 N   0  0  0  0  0  0  0  0  0  0  0  0
   59.7920   31.0300   46.9780 C   0  0  0  0  0  0  0  0  0  0  0  0
   59.2040   32.2640   46.6600 C   0  0  0  0  0  0  0  0  0  0  0  0
   58.3630   32.3690   45.5540 C   0  0  0  0  0  0  0  0  0  0  0  0
   58.0840   31.3130   44.7610 N   0  0  0  0  0  0  0  0  0  0  0  0
   57.1970   31.4370   43.6310 C   0  0  0  0  0  0  0  0  0  0  0  0
   57.9620   31.9730   42.4710 C   0  0  0  0  0  0  0  0  0  0  0  0
   58.6480   30.1030   45.0510 C   0  0  0  0  0  0  0  0  0  0  0  0
   58.4250   28.9870   44.2830 C   0  0  0  0  0  0  0  0  0  0  0  0
   58.9920   27.7520   44.5410 C   0  0  0  0  0  0  0  0  0  0  0  0
   59.8210   27.6180   45.6160 C   0  0  0  0  0  0  0  0  0  0  0  0
   60.0510   28.7290   46.3940 C   0  0  0  0  0  0  0  0  0  0  0  0
   59.4980   29.9660   46.1560 C   0  0  0  0  0  0  0  0  0  0  0  0
   57.8080   33.7330   45.3000 C   0  0  0  0  0  0  0  0  0  0  0  0
   58.9770   34.7040   45.5190 C   0  0  0  0  0  0  0  0  0  0  0  0
   59.4440   34.7440   46.9310 C   0  0  0  0  0  0  0  0  0  0  0  0
   59.5160   33.3890   47.5450 C   0  0  0  0  0  0  0  0  0  0  0  0
   62.0119   34.2669   47.1304 H   0  0  0  0  0  0  0  0  0  0  0  0
   63.0793   34.6407   45.7348 H   0  0  0  0  0  0  0  0  0  0  0  0
   62.0938   33.1389   45.7348 H   0  0  0  0  0  0  0  0  0  0  0  0
   64.1069   32.2848   46.3568 H   0  0  0  0  0  0  0  0  0  0  0  0
   64.5925   33.8292   47.2001 H   0  0  0  0  0  0  0  0  0  0  0  0
   63.4740   31.4910   48.2370 H   0  0  0  0  0  0  0  0  0  0  0  0
   65.1755   33.4225   48.9741 H   0  0  0  0  0  0  0  0  0  0  0  0
   63.7047   33.6230   50.0269 H   0  0  0  0  0  0  0  0  0  0  0  0
   65.2442   31.0287   49.6182 H   0  0  0  0  0  0  0  0  0  0  0  0
   65.3774   32.1307   51.0436 H   0  0  0  0  0  0  0  0  0  0  0  0
   63.7589   30.0313   51.1101 H   0  0  0  0  0  0  0  0  0  0  0  0
   63.2611   31.6239   51.8192 H   0  0  0  0  0  0  0  0  0  0  0  0
   61.8692   29.1994   50.4988 H   0  0  0  0  0  0  0  0  0  0  0  0
   60.8845   30.5107   51.2657 H   0  0  0  0  0  0  0  0  0  0  0  0
   60.4055   29.0664   48.8990 H   0  0  0  0  0  0  0  0  0  0  0  0
   59.4832   30.4744   49.6822 H   0  0  0  0  0  0  0  0  0  0  0  0
   61.5190   31.5590   48.0490 H   0  0  0  0  0  0  0  0  0  0  0  0
   56.7841   30.4498   43.3761 H   0  0  0  0  0  0  0  0  0  0  0  0
   56.3715   32.1202   43.8796 H   0  0  0  0  0  0  0  0  0  0  0  0
   58.8119   32.5685   42.8359 H   0  0  0  0  0  0  0  0  0  0  0  0
   58.3349   31.1376   41.8602 H   0  0  0  0  0  0  0  0  0  0  0  0
   57.3042   32.6088   41.8602 H   0  0  0  0  0  0  0  0  0  0  0  0
   57.7578   29.0803   43.4135 H   0  0  0  0  0  0  0  0  0  0  0  0
   58.7779   26.8917   43.8898 H   0  0  0  0  0  0  0  0  0  0  0  0
   60.2908   26.6521   45.8533 H   0  0  0  0  0  0  0  0  0  0  0  0
   60.7192   28.6215   47.2611 H   0  0  0  0  0  0  0  0  0  0  0  0
   57.4342   33.8091   44.2682 H   0  0  0  0  0  0  0  0  0  0  0  0
   56.9625   33.9582   45.9667 H   0  0  0  0  0  0  0  0  0  0  0  0
   59.8167   34.3910   44.8810 H   0  0  0  0  0  0  0  0  0  0  0  0
   58.6193   35.7121   45.2625 H   0  0  0  0  0  0  0  0  0  0  0  0
   60.4456   35.1979   46.9589 H   0  0  0  0  0  0  0  0  0  0  0  0
   58.7169   35.3347   47.5076 H   0  0  0  0  0  0  0  0  0  0  0  0
   60.5387   33.2453   47.9237 H   0  0  0  0  0  0  0  0  0  0  0  0
   58.7404   33.3759   48.3249 H   0  0  0  0  0  0  0  0  0  0  0  0
  1  2  1  0
  2  3  1  0
  3  4  1  0
  4  5  1  0
  5  6  1  0
  6  7  1  0
  7  8  1  0
  8  9  1  0
  9 10  1  0
 10 11  1  0
 11 12  2  0
 12 13  1  0
 13 14  2  0
 14 15  1  0
 15 16  1  0
 14 17  1  0
 17 18  2  0
 18 19  1  0
 19 20  2  0
 20 21  1  0
 21 22  2  0
 13 23  1  0
 23 24  1  0
 24 25  1  0
 25 26  1  0
 22 11  1  0
 26 12  1  0
 22 17  1  0
  1 27  1  0
  1 28  1  0
  1 29  1  0
  2 30  1  0
  2 31  1  0
  3 32  1  0
  4 33  1  0
  4 34  1  0
  5 35  1  0
  5 36  1  0
  6 37  1  0
  6 38  1  0
  8 39  1  0
  8 40  1  0
  9 41  1  0
  9 42  1  0
 10 43  1  0
 15 44  1  0
 15 45  1  0
 16 46  1  0
 16 47  1  0
 16 48  1  0
 18 49  1  0
 19 50  1  0
 20 51  1  0
 21 52  1  0
 23 53  1  0
 23 54  1  0
 24 55  1  0
 24 56  1  0
 25 57  1  0
 25 58  1  0
 26 59  1  0
 26 60  1  0
M  CHG  1  14   1
M  END
>  <smiles>  (8) 
CCNCCCOCCNc1c2c([n+](CC)c3ccccc13)CCCC2

>  <score_type>  (8) 
oracle

>  <origin>  (8) 
adg

>  <m_score__min__energy>  (8) 
-5.4199999999999999

>  <m_primary>  (8) 
energy

$$$$
8:0
     RDKit          3D

 45 47  0  0  0  0  0  0  0  0999 V2000
   58.4260   32.3330   41.6830 C   0  0  0  0  0  0  0  0  0  0  0  0
   57.2280   31.6900   42.3370 C   0  0  0  0  0  0  0  0  0  0  0  0
   57.4380   31.6590   43.7840 N   0  0  0  0  0  0  0  0  0  0  0  0
   57.1010   30.6220   44.6020 C   0  0  0  0  0  0  0  0  0  0  0  0
   56.4660   29.3680   44.1110 C   0  0  0  0  0  0  0  0  0  0  0  0
   56.0280   28.5190   45.2050 N   0  0  0  0  0  0  0  0  0  0  0  0
   57.0350   27.6000   45.6220 C   0  0  0  0  0  0  0  0  0  0  0  0
   58.3400   28.2450   45.9920 C   0  0  0  0  0  0  0  0  0  0  0  0
   58.8780   27.8070   47.3080 C   0  0  0  0  0  0  0  0  0  0  0  0
   60.2650   28.3280   47.5080 C   0  0  0  0  0  0  0  0  0  0  0  0
   60.7260   29.3210   46.4920 C   0  0  0  0  0  0  0  0  0  0  0  0
   60.4850   28.9260   45.0720 C   0  0  0  0  0  0  0  0  0  0  0  0
   59.3730   27.9110   44.9360 C   0  0  0  0  0  0  0  0  0  0  0  0
   57.4460   30.9610   45.8600 N   0  0  0  0  0  0  0  0  0  0  0  0
   57.9960   32.1830   45.8920 C   0  0  0  0  0  0  0  0  0  0  0  0
   58.5190   33.0260   46.8490 C   0  0  0  0  0  0  0  0  0  0  0  0
   59.0240   34.2730   46.5120 C   0  0  0  0  0  0  0  0  0  0  0  0
   59.0130   34.7030   45.1970 C   0  0  0  0  0  0  0  0  0  0  0  0
   58.4890   33.8630   44.2240 C   0  0  0  0  0  0  0  0  0  0  0  0
   57.9840   32.6120   44.5680 C   0  0  0  0  0  0  0  0  0  0  0  0
   59.1132   32.7019   42.4587 H   0  0  0  0  0  0  0  0  0  0  0  0
   58.9438   31.5916   41.0568 H   0  0  0  0  0  0  0  0  0  0  0  0
   58.0943   33.1743   41.0568 H   0  0  0  0  0  0  0  0  0  0  0  0
   56.3243   32.2737   42.1074 H   0  0  0  0  0  0  0  0  0  0  0  0
   57.1009   30.6656   41.9568 H   0  0  0  0  0  0  0  0  0  0  0  0
   55.5946   29.6291   43.4925 H   0  0  0  0  0  0  0  0  0  0  0  0
   57.2145   28.8127   43.5268 H   0  0  0  0  0  0  0  0  0  0  0  0
   55.1440   28.0930   44.8980 H   0  0  0  0  0  0  0  0  0  0  0  0
   56.6602   27.0515   46.4987 H   0  0  0  0  0  0  0  0  0  0  0  0
   57.2387   26.9425   44.7640 H   0  0  0  0  0  0  0  0  0  0  0  0
   58.1401   29.3246   46.0594 H   0  0  0  0  0  0  0  0  0  0  0  0
   58.2289   28.1894   48.1095 H   0  0  0  0  0  0  0  0  0  0  0  0
   58.9047   26.7076   47.3326 H   0  0  0  0  0  0  0  0  0  0  0  0
   60.3085   28.8081   48.4967 H   0  0  0  0  0  0  0  0  0  0  0  0
   60.9333   27.4598   47.4102 H   0  0  0  0  0  0  0  0  0  0  0  0
   60.1993   30.2688   46.6771 H   0  0  0  0  0  0  0  0  0  0  0  0
   61.8169   29.3988   46.6096 H   0  0  0  0  0  0  0  0  0  0  0  0
   60.2157   29.8240   44.4966 H   0  0  0  0  0  0  0  0  0  0  0  0
   61.4081   28.4646   44.6914 H   0  0  0  0  0  0  0  0  0  0  0  0
   58.9236   27.9744   43.9340 H   0  0  0  0  0  0  0  0  0  0  0  0
   59.7554   26.8882   45.0692 H   0  0  0  0  0  0  0  0  0  0  0  0
   58.5362   32.7034   47.9005 H   0  0  0  0  0  0  0  0  0  0  0  0
   59.4364   34.9250   47.2961 H   0  0  0  0  0  0  0  0  0  0  0  0
   59.4120   35.6920   44.9276 H   0  0  0  0  0  0  0  0  0  0  0  0
   58.4726   34.1882   43.1733 H   0  0  0  0  0  0  0  0  0  0  0  0
  1  2  1  0
  2  3  1  0
  3  4  1  0
  4  5  1  0
  5  6  1  0
  6  7  1  0
  7  8  1  0
  8  9  1  0
  9 10  1  0
 10 11  1  0
 11 12  1  0
 12 13  1  0
  4 14  2  0
 14 15  1  0
 15 16  2  0
 16 17  1  0
 17 18  2  0
 18 19  1  0
 19 20  2  0
 20  3  1  0
 13  8  1  0
 20 15  1  0
  1 21  1  0
  1 22  1  0
  1 23  1  0
  2 24  1  0
  2 25  1  0
  5 26  1  0
  5 27  1  0
  6 28  1  0
  7 29  1  0
  7 30  1  0
  8 31  1  0
  9 32  1  0
  9 33  1  0
 10 34  1  0
 10 35  1  0
 11 36  1  0
 11 37  1  0
 12 38  1  0
 12 39  1  0
 13 40  1  0
 13 41  1  0
 16 42  1  0
 17 43  1  0
 18 44  1  0
 19 45  1  0
M  END
>  <smiles>  (9) 
CCn1c(CNCC2CCCCC2)nc2ccccc21

>  <score_type>  (9) 
oracle

>  <origin>  (9) 
adg

>  <m_score__min__energy>  (9) 
-7.8200000000000003

>  <m_primary>  (9) 
energy

$$$$
10:0
     RDKit          3D

 38 40  0  0  0  0  0  0  0  0999 V2000
   59.3230   29.7270   44.5680 C   0  0  0  0  0  0  0  0  0  0  0  0
   57.8850   29.8880   44.6040 N   0  0  0  0  0  0  0  0  0  0  0  0
   57.1740   31.0050   44.2970 C   0  0  0  0  0  0  0  0  0  0  0  0
   57.7860   32.5760   43.8010 S   0  0  0  0  0  0  0  0  0  0  0  0
   57.4370   33.7990   45.1210 C   0  0  0  0  0  0  0  0  0  0  0  0
   58.7410   34.4560   45.5470 C   0  0  0  0  0  0  0  0  0  0  0  0
   58.8720   34.4290   46.9990 N   0  0  0  0  0  0  0  0  0  0  0  0
   60.2750   34.5850   47.3710 C   0  0  0  0  0  0  0  0  0  0  0  0
   61.1700   33.5340   46.7850 C   0  0  0  0  0  0  0  0  0  0  0  0
   60.7360   32.3160   47.2570 O   0  0  0  0  0  0  0  0  0  0  0  0
   59.4120   32.0420   47.0340 C   0  0  0  0  0  0  0  0  0  0  0  0
   58.4520   33.1120   47.5010 C   0  0  0  0  0  0  0  0  0  0  0  0
   55.8760   30.6680   44.4710 N   0  0  0  0  0  0  0  0  0  0  0  0
   55.8070   29.4070   44.8660 N   0  0  0  0  0  0  0  0  0  0  0  0
   57.0480   28.9010   44.9570 C   0  0  0  0  0  0  0  0  0  0  0  0
   57.3860   27.5580   45.3750 C   0  0  0  0  0  0  0  0  0  0  0  0
   58.5150   26.8390   45.4160 C   0  0  0  0  0  0  0  0  0  0  0  0
   58.5120   25.5770   45.8650 C   0  0  0  0  0  0  0  0  0  0  0  0
   57.2730   25.0770   46.2820 C   0  0  0  0  0  0  0  0  0  0  0  0
   56.0970   26.4790   46.0080 S   0  0  0  0  0  0  0  0  0  0  0  0
   59.7129   29.6833   45.5957 H   0  0  0  0  0  0  0  0  0  0  0  0
   59.5745   28.7951   44.0405 H   0  0  0  0  0  0  0  0  0  0  0  0
   59.7744   30.5802   44.0405 H   0  0  0  0  0  0  0  0  0  0  0  0
   56.7456   34.5651   44.7401 H   0  0  0  0  0  0  0  0  0  0  0  0
   56.9774   33.2934   45.9831 H   0  0  0  0  0  0  0  0  0  0  0  0
   59.5848   33.9128   45.0966 H   0  0  0  0  0  0  0  0  0  0  0  0
   58.7414   35.5023   45.2077 H   0  0  0  0  0  0  0  0  0  0  0  0
   60.6201   35.5697   47.0228 H   0  0  0  0  0  0  0  0  0  0  0  0
   60.3325   34.4855   48.4650 H   0  0  0  0  0  0  0  0  0  0  0  0
   61.1074   33.5560   45.6870 H   0  0  0  0  0  0  0  0  0  0  0  0
   62.2173   33.7113   47.0709 H   0  0  0  0  0  0  0  0  0  0  0  0
   59.2694   31.9039   45.9521 H   0  0  0  0  0  0  0  0  0  0  0  0
   59.1803   31.1422   47.6228 H   0  0  0  0  0  0  0  0  0  0  0  0
   57.4439   32.8846   47.1241 H   0  0  0  0  0  0  0  0  0  0  0  0
   58.4473   33.1332   48.6008 H   0  0  0  0  0  0  0  0  0  0  0  0
   59.4584   27.2912   45.0761 H   0  0  0  0  0  0  0  0  0  0  0  0
   59.4285   24.9699   45.9037 H   0  0  0  0  0  0  0  0  0  0  0  0
   57.0491   24.0771   46.6820 H   0  0  0  0  0  0  0  0  0  0  0  0
  1  2  1  0
  2  3  1  0
  3  4  1  0
  4  5  1  0
  5  6  1  0
  6  7  1  0
  7  8  1  0
  8  9  1  0
  9 10  1  0
 10 11  1  0
 11 12  1  0
  3 13  2  0
 13 14  1  0
 14 15  2  0
 15 16  1  0
 16 17  2  0
 17 18  1  0
 18 19  2  0
 19 20  1  0
 15  2  1  0
 20 16  1  0
 12  7  1  0
  1 21  1  0
  1 22  1  0
  1 23  1  0
  5 24  1  0
  5 25  1  0
  6 26  1  0
  6 27  1  0
  8 28  1  0
  8 29  1  0
  9 30  1  0
  9 31  1  0
 11 32  1  0
 11 33  1  0
 12 34  1  0
 12 35  1  0
 17 36  1  0
 18 37  1  0
 19 38  1  0
M  END
>  <smiles>  (10) 
Cn1c(SCCN2CCOCC2)nnc1-c1cccs1

>  <score_type>  (10) 
oracle

>  <origin>  (10) 
adg

>  <m_score__min__energy>  (10) 
-7.3700000000000001

>  <m_primary>  (10) 
energy

$$$$
11:0
     RDKit          3D

 51 54  0  0  0  0  0  0  0  0999 V2000
   56.6310   26.8110   45.7330 C   0  0  0  0  0  0  0  0  0  0  0  0
   57.4890   27.9760   45.8380 N   0  0  0  0  0  0  0  0  0  0  0  0
   58.4720   28.2000   46.7510 C   0  0  0  0  0  0  0  0  0  0  0  0
   59.0280   29.4340   46.4790 C   0  0  0  0  0  0  0  0  0  0  0  0
   60.1080   30.1760   47.1300 C   0  0  0  0  0  0  0  0  0  0  0  0
   60.1610   29.9750   48.6210 C   0  0  0  0  0  0  0  0  0  0  0  0
   58.8920   30.0570   49.2600 N   0  0  0  0  0  0  0  0  0  0  0  0
   59.0610   30.5300   50.6080 C   0  0  0  0  0  0  0  0  0  0  0  0
   58.6430   31.9470   50.8140 C   0  0  0  0  0  0  0  0  0  0  0  0
   58.1300   32.5450   49.5710 N   0  0  0  0  0  0  0  0  0  0  0  0
   59.0430   33.1300   48.6590 C   0  0  0  0  0  0  0  0  0  0  0  0
   60.3680   33.2830   49.0180 C   0  0  0  0  0  0  0  0  0  0  0  0
   61.3170   33.8420   48.1920 C   0  0  0  0  0  0  0  0  0  0  0  0
   60.9260   34.2720   46.9450 C   0  0  0  0  0  0  0  0  0  0  0  0
   59.6150   34.1300   46.5660 C   0  0  0  0  0  0  0  0  0  0  0  0
   59.2740   34.5760   45.3030 C   0  0  0  0  0  0  0  0  0  0  0  0
   57.9710   34.4620   44.8610 C   0  0  0  0  0  0  0  0  0  0  0  0
   57.0380   33.8910   45.7220 C   0  0  0  0  0  0  0  0  0  0  0  0
   57.3970   33.4520   46.9800 C   0  0  0  0  0  0  0  0  0  0  0  0
   58.6880   33.5720   47.4030 C   0  0  0  0  0  0  0  0  0  0  0  0
   58.3340   29.9320   45.3690 C   0  0  0  0  0  0  0  0  0  0  0  0
   58.4630   31.1310   44.6570 C   0  0  0  0  0  0  0  0  0  0  0  0
   57.6690   31.4290   43.5780 C   0  0  0  0  0  0  0  0  0  0  0  0
   56.7080   30.4950   43.1940 C   0  0  0  0  0  0  0  0  0  0  0  0
   56.5900   29.3200   43.9020 C   0  0  0  0  0  0  0  0  0  0  0  0
   57.3980   29.0200   44.9980 C   0  0  0  0  0  0  0  0  0  0  0  0
   56.3696   26.4561   46.7408 H   0  0  0  0  0  0  0  0  0  0  0  0
   55.7132   27.0794   45.1893 H   0  0  0  0  0  0  0  0  0  0  0  0
   57.1596   26.0141   45.1893 H   0  0  0  0  0  0  0  0  0  0  0  0
   58.7708   27.5192   47.5617 H   0  0  0  0  0  0  0  0  0  0  0  0
   61.0653   29.8464   46.7000 H   0  0  0  0  0  0  0  0  0  0  0  0
   59.9177   31.2451   46.9542 H   0  0  0  0  0  0  0  0  0  0  0  0
   60.5859   28.9804   48.8214 H   0  0  0  0  0  0  0  0  0  0  0  0
   60.7777   30.7885   49.0308 H   0  0  0  0  0  0  0  0  0  0  0  0
   58.3620   29.1700   49.3000 H   0  0  0  0  0  0  0  0  0  0  0  0
   58.4619   29.8928   51.2752 H   0  0  0  0  0  0  0  0  0  0  0  0
   60.1377   30.4821   50.8279 H   0  0  0  0  0  0  0  0  0  0  0  0
   57.8527   31.9788   51.5785 H   0  0  0  0  0  0  0  0  0  0  0  0
   59.5233   32.5228   51.1359 H   0  0  0  0  0  0  0  0  0  0  0  0
   57.1030   32.4950   49.4470 H   0  0  0  0  0  0  0  0  0  0  0  0
   60.6811   32.9405   50.0153 H   0  0  0  0  0  0  0  0  0  0  0  0
   62.3619   33.9423   48.5209 H   0  0  0  0  0  0  0  0  0  0  0  0
   61.6569   34.7249   46.2589 H   0  0  0  0  0  0  0  0  0  0  0  0
   60.0398   35.0212   44.6508 H   0  0  0  0  0  0  0  0  0  0  0  0
   57.6792   34.8115   43.8597 H   0  0  0  0  0  0  0  0  0  0  0  0
   55.9935   33.7877   45.3929 H   0  0  0  0  0  0  0  0  0  0  0  0
   56.6411   33.0048   47.6423 H   0  0  0  0  0  0  0  0  0  0  0  0
   59.2258   31.8578   44.9730 H   0  0  0  0  0  0  0  0  0  0  0  0
   57.7874   32.3768   43.0323 H   0  0  0  0  0  0  0  0  0  0  0  0
   56.0510   30.6946   42.3346 H   0  0  0  0  0  0  0  0  0  0  0  0
   55.8287   28.5895   43.5909 H   0  0  0  0  0  0  0  0  0  0  0  0
  1  2  1  0
  2  3  1  0
  3  4  2  0
  4  5  1  0
  5  6  1  0
  6  7  1  0
  7  8  1  0
  8  9  1  0
  9 10  1  0
 10 11  1  0
 11 12  2  0
 12 13  1  0
 13 14  2  0
 14 15  1  0
 15 16  2  0
 16 17  1  0
 17 18  2  0
 18 19  1  0
 19 20  2  0
  4 21  1  0
 21 22  2  0
 22 23  1  0
 23 24  2  0
 24 25  1  0
 25 26  2  0
 26  2  1  0
 20 11  1  0
 26 21  1  0
 20 15  1  0
  1 27  1  0
  1 28  1  0
  1 29  1  0
  3 30  1  0
  5 31  1  0
  5 32  1  0
  6 33  1  0
  6 34  1  0
  7 35  1  0
  8 36  1  0
  8 37  1  0
  9 38  1  0
  9 39  1  0
 10 40  1  0
 12 41  1  0
 13 42  1  0
 14 43  1  0
 16 44  1  0
 17 45  1  0
 18 46  1  0
 19 47  1  0
 22 48  1  0
 23 49  1  0
 24 50  1  0
 25 51  1  0
M  END
>  <smiles>  (11) 
Cn1cc(CCNCCNc2cccc3ccccc23)c2ccccc21

>  <score_type>  (11) 
oracle

>  <origin>  (11) 
adg

>  <m_score__min__energy>  (11) 
-8.25

>  <m_primary>  (11) 
energy

$$$$
