0:0
     RDKit          3D

 44 45  0  0  0  0  0  0  0  0999 V2000
   67.4250   33.0630   50.3630 C   0  0  0  0  0  0  0  0  0  0  0  0
   66.2300   33.0000   50.2150 C   0  0  0  0  0  0  0  0  0  0  0  0
   64.7800   32.9230   50.0330 C   0  0  0  0  0  0  0  0  0  0  0  0
   64.4770   33.0050   48.6440 O   0  0  0  0  0  0  0  0  0  0  0  0
   63.1990   32.8120   48.0980 C   0  0  0  0  0  0  0  0  0  0  0  0
   62.6600   31.5210   48.1160 C   0  0  0  0  0  0  0  0  0  0  0  0
   61.3910   31.2690   47.5870 C   0  0  0  0  0  0  0  0  0  0  0  0
   60.6410   32.3130   47.0300 C   0  0  0  0  0  0  0  0  0  0  0  0
   59.3680   32.0690   46.4920 C   0  0  0  0  0  0  0  0  0  0  0  0
   58.6260   33.1160   45.9230 C   0  0  0  0  0  0  0  0  0  0  0  0
   57.2950   32.8360   45.2750 C   0  0  0  0  0  0  0  0  0  0  0  0
   57.3660   31.6240   44.3390 C   0  0  0  0  0  0  0  0  0  0  0  0
   56.6800   30.4620   44.9540 N   0  0  0  0  0  0  0  0  0  0  0  0
   57.6230   29.5550   45.6500 C   0  0  0  0  0  0  0  0  0  0  0  0
   58.8140   29.1960   44.7640 C   0  0  0  0  0  0  0  0  0  0  0  0
   55.7480   29.7820   44.0230 C   0  0  0  0  0  0  0  0  0  0  0  0
   56.2720   29.6690   42.5850 C   0  0  0  0  0  0  0  0  0  0  0  0
   59.1660   34.4100   45.8920 C   0  0  0  0  0  0  0  0  0  0  0  0
   60.4290   34.6640   46.4320 C   0  0  0  0  0  0  0  0  0  0  0  0
   61.1760   33.6220   47.0020 C   0  0  0  0  0  0  0  0  0  0  0  0
   62.4500   33.8660   47.5360 C   0  0  0  0  0  0  0  0  0  0  0  0
   68.5152   33.1205   50.4980 H   0  0  0  0  0  0  0  0  0  0  0  0
   64.4090   31.9685   50.4347 H   0  0  0  0  0  0  0  0  0  0  0  0
   64.2961   33.7545   50.5663 H   0  0  0  0  0  0  0  0  0  0  0  0
   63.2415   30.6950   48.5514 H   0  0  0  0  0  0  0  0  0  0  0  0
   60.9803   30.2488   47.6081 H   0  0  0  0  0  0  0  0  0  0  0  0
   58.9495   31.0520   46.5163 H   0  0  0  0  0  0  0  0  0  0  0  0
   56.5506   32.6374   46.0601 H   0  0  0  0  0  0  0  0  0  0  0  0
   57.0117   33.7153   44.6779 H   0  0  0  0  0  0  0  0  0  0  0  0
   56.8768   31.8720   43.3855 H   0  0  0  0  0  0  0  0  0  0  0  0
   58.4210   31.3668   44.1637 H   0  0  0  0  0  0  0  0  0  0  0  0
   57.9915   30.0524   46.5593 H   0  0  0  0  0  0  0  0  0  0  0  0
   57.0875   28.6272   45.8997 H   0  0  0  0  0  0  0  0  0  0  0  0
   59.6760   28.9362   45.3960 H   0  0  0  0  0  0  0  0  0  0  0  0
   58.5527   28.3367   44.1289 H   0  0  0  0  0  0  0  0  0  0  0  0
   59.0711   30.0566   44.1289 H   0  0  0  0  0  0  0  0  0  0  0  0
   55.5592   28.7671   44.4029 H   0  0  0  0  0  0  0  0  0  0  0  0
   54.8362   30.3959   43.9815 H   0  0  0  0  0  0  0  0  0  0  0  0
   57.3471   29.4372   42.6037 H   0  0  0  0  0  0  0  0  0  0  0  0
   55.7329   28.8665   42.0603 H   0  0  0  0  0  0  0  0  0  0  0  0
   56.1116   30.6224   42.0603 H   0  0  0  0  0  0  0  0  0  0  0  0
   58.5907   35.2309   45.4391 H   0  0  0  0  0  0  0  0  0  0  0  0
   60.8393   35.6844   46.4103 H   0  0  0  0  0  0  0  0  0  0  0  0
   62.8664   34.8840   47.5162 H   0  0  0  0  0  0  0  0  0  0  0  0
  1  2  3  0
  2  3  1  0
  3  4  1  0
  4  5  1  0
  5  6  2  0
  6  7  1  0
  7  8  2  0
  8  9  1  0
  9 10  2  0
 10 11  1  0
 11 12  1  0
 12 13  1  0
 13 14  1  0
 14 15  1  0
 13 16  1  0
 16 17  1  0
 10 18  1  0
 18 19  2  0
 19 20  1  0
 20 21  2  0
 21  5  1  0
 20  8  1  0
  1 22  1  0
  3 23  1  0
  3 24  1  0
  6 25  1  0
  7 26  1  0
  9 27  1  0
 11 28  1  0
 11 29  1  0
 12 30  1  0
 12 31  1  0
 14 32  1  0
 14 33  1  0
 15 34  1  0
 15 35  1  0
 15 36  1  0
 16 37  1  0
 16 38  1  0
 17 39  1  0
 17 40  1  0
 17 41  1  0
 18 42  1  0
 19 43  1  0
 21 44  1  0
M  END
>  <UniqueID>  (1) 
1

>  <SMILES>  (1) 
C#CCOc1ccc2cc(CCN(CC)CC)ccc2c1

>  <Energy>  (1) 
42.35154103789246

>  <Genealogy>  (1) 
C#CCOc1ccc2cc(CCN(CC)CC)ccc2c1 (3D coordinates assigned)
C#CCOc1ccc2cc(CCN(CC)CC)ccc2c1 (optimized conformer: 42.35154103789246 kcal/mol)

>  <smiles>  (1) 
C#CCOc1ccc2cc(CCN(CC)CC)ccc2c1

>  <score_type>  (1) 
oracle

>  <origin>  (1) 
adg

>  <m_score__min__energy>  (1) 
-6.8799999999999999

>  <m_primary>  (1) 
energy

$$$$
1:0
     RDKit          3D

 46 47  0  0  0  0  0  0  0  0999 V2000
   60.2920   30.2170   47.4180 C   0  0  0  0  0  0  0  0  0  0  0  0
   58.8670   29.8820   47.8490 C   0  0  0  0  0  0  0  0  0  0  0  0
   58.0790   29.5450   46.7220 O   0  0  0  0  0  0  0  0  0  0  0  0
   58.8680   28.9850   45.6880 C   0  0  0  0  0  0  0  0  0  0  0  0
   58.0130   28.1290   44.7410 C   0  0  0  0  0  0  0  0  0  0  0  0
   56.6110   27.8390   45.3010 C   0  0  0  0  0  0  0  0  0  0  0  0
   55.7320   29.0110   45.1780 N   0  0  0  0  0  0  0  0  0  0  0  0
   55.8210   29.6140   43.8430 C   0  0  0  0  0  0  0  0  0  0  0  0
   56.7370   30.7940   43.8880 C   0  0  0  0  0  0  0  0  0  0  0  0
   57.2660   31.4500   42.8000 C   0  0  0  0  0  0  0  0  0  0  0  0
   57.9590   32.4630   43.2550 O   0  0  0  0  0  0  0  0  0  0  0  0
   57.8590   32.4490   44.5680 C   0  0  0  0  0  0  0  0  0  0  0  0
   58.5050   33.4450   45.4490 C   0  0  0  0  0  0  0  0  0  0  0  0
   59.0600   34.6170   44.9120 C   0  0  0  0  0  0  0  0  0  0  0  0
   59.6690   35.5550   45.7480 C   0  0  0  0  0  0  0  0  0  0  0  0
   59.7320   35.3320   47.1240 C   0  0  0  0  0  0  0  0  0  0  0  0
   59.1900   34.1680   47.6810 C   0  0  0  0  0  0  0  0  0  0  0  0
   59.2830   33.9980   49.0730 O   0  0  0  0  0  0  0  0  0  0  0  0
   59.6380   32.7880   49.7420 C   0  0  0  0  0  0  0  0  0  0  0  0
   58.4280   32.1840   50.4470 C   0  0  0  0  0  0  0  0  0  0  0  0
   58.5710   33.2250   46.8350 C   0  0  0  0  0  0  0  0  0  0  0  0
   57.0970   31.4290   45.0190 N   0  0  0  0  0  0  0  0  0  0  0  0
   60.9195   30.3645   48.3093 H   0  0  0  0  0  0  0  0  0  0  0  0
   60.6974   29.3897   46.8170 H   0  0  0  0  0  0  0  0  0  0  0  0
   60.2863   31.1383   46.8170 H   0  0  0  0  0  0  0  0  0  0  0  0
   58.8891   29.0299   48.5442 H   0  0  0  0  0  0  0  0  0  0  0  0
   58.4269   30.7605   48.3434 H   0  0  0  0  0  0  0  0  0  0  0  0
   59.3363   29.7977   45.1133 H   0  0  0  0  0  0  0  0  0  0  0  0
   59.6350   28.3415   46.1436 H   0  0  0  0  0  0  0  0  0  0  0  0
   57.9060   28.6628   43.7852 H   0  0  0  0  0  0  0  0  0  0  0  0
   58.5250   27.1636   44.6147 H   0  0  0  0  0  0  0  0  0  0  0  0
   56.1692   27.0000   44.7433 H   0  0  0  0  0  0  0  0  0  0  0  0
   56.7088   27.5897   46.3679 H   0  0  0  0  0  0  0  0  0  0  0  0
   56.0580   29.7270   45.8700 H   0  0  0  0  0  0  0  0  0  0  0  0
   56.2133   28.8725   43.1314 H   0  0  0  0  0  0  0  0  0  0  0  0
   54.8208   29.9391   43.5207 H   0  0  0  0  0  0  0  0  0  0  0  0
   57.1314   31.1742   41.7437 H   0  0  0  0  0  0  0  0  0  0  0  0
   59.0150   34.7973   43.8278 H   0  0  0  0  0  0  0  0  0  0  0  0
   60.1003   36.4723   45.3207 H   0  0  0  0  0  0  0  0  0  0  0  0
   60.2114   36.0769   47.7761 H   0  0  0  0  0  0  0  0  0  0  0  0
   60.0226   32.0678   49.0048 H   0  0  0  0  0  0  0  0  0  0  0  0
   60.4080   33.0139   50.4943 H   0  0  0  0  0  0  0  0  0  0  0  0
   58.5660   32.2529   51.5361 H   0  0  0  0  0  0  0  0  0  0  0  0
   57.5215   32.7353   50.1567 H   0  0  0  0  0  0  0  0  0  0  0  0
   58.3238   31.1281   50.1567 H   0  0  0  0  0  0  0  0  0  0  0  0
   58.1364   32.3099   47.2636 H   0  0  0  0  0  0  0  0  0  0  0  0
  1  2  1  0
  2  3  1  0
  3  4  1  0
  4  5  1  0
  5  6  1  0
  6  7  1  0
  7  8  1  0
  8  9  1  0
  9 10  2  0
 10 11  1  0
 11 12  1  0
 12 13  1  0
 13 14  2  0
 14 15  1  0
 15 16  2  0
 16 17  1  0
 17 18  1  0
 18 19  1  0
 19 20  1  0
 17 21  2  0
 12 22  2  0
 22  9  1  0
 21 13  1  0
  1 23  1  0
  1 24  1  0
  1 25  1  0
  2 26  1  0
  2 27  1  0
  4 28  1  0
  4 29  1  0
  5 30  1  0
  5 31  1  0
  6 32  1  0
  6 33  1  0
  7 34  1  0
  8 35  1  0
  8 36  1  0
 10 37  1  0
 14 38  1  0
 15 39  1  0
 16 40  1  0
 19 41  1  0
 19 42  1  0
 20 43  1  0
 20 44  1  0
 20 45  1  0
 21 46  1  0
M  END
>  <UniqueID>  (2) 
2

>  <SMILES>  (2) 
CCOCCCNCc1coc(-c2cccc(OCC)c2)n1

>  <Energy>  (2) 
68.6434707404074

>  <Genealogy>  (2) 
CCOCCCNCc1coc(-c2cccc(OCC)c2)n1 (3D coordinates assigned)
CCOCCCNCc1coc(-c2cccc(OCC)c2)n1 (optimized conformer: 68.6434707404074 kcal/mol)

>  <smiles>  (2) 
CCOCCCNCc1coc(-c2cccc(OCC)c2)n1

>  <score_type>  (2) 
oracle

>  <origin>  (2) 
adg

>  <m_score__min__energy>  (2) 
-6.7000000000000002

>  <m_primary>  (2) 
energy

$$$$
2:0
     RDKit          3D

 51 54  0  0  0  0  0  0  0  0999 V2000
   63.3900   34.2060   46.3450 C   0  0  0  0  0  0  0  0  0  0  0  0
   63.6740   33.5310   47.6910 C   0  0  0  0  0  0  0  0  0  0  0  0
   63.9300   32.0820   47.5610 N   0  0  0  0  0  0  0  0  0  0  0  0
   62.7030   31.2630   47.5390 C   0  0  0  0  0  0  0  0  0  0  0  0
   61.8780   31.4100   48.8330 C   0  0  0  0  0  0  0  0  0  0  0  0
   60.4770   31.0450   48.6080 N   0  0  0  0  0  0  0  0  0  0  0  0
   59.7860   31.2150   47.3500 C   0  0  0  0  0  0  0  0  0  0  0  0
   59.5690   32.4960   46.7760 C   0  0  0  0  0  0  0  0  0  0  0  0
   59.9740   33.6730   47.4430 C   0  0  0  0  0  0  0  0  0  0  0  0
   59.8190   34.9220   46.8450 C   0  0  0  0  0  0  0  0  0  0  0  0
   59.2650   35.0270   45.5750 C   0  0  0  0  0  0  0  0  0  0  0  0
   58.8170   33.8890   44.9070 C   0  0  0  0  0  0  0  0  0  0  0  0
   58.9100   32.6060   45.5010 C   0  0  0  0  0  0  0  0  0  0  0  0
   58.3950   31.4780   44.8770 N   0  0  0  0  0  0  0  0  0  0  0  0
   57.5320   31.5810   43.6850 C   0  0  0  0  0  0  0  0  0  0  0  0
   58.6890   30.2520   45.4170 C   0  0  0  0  0  0  0  0  0  0  0  0
   58.4550   28.9550   44.9610 C   0  0  0  0  0  0  0  0  0  0  0  0
   58.9680   28.1340   45.9520 C   0  0  0  0  0  0  0  0  0  0  0  0
   59.5060   28.8460   46.9160 O   0  0  0  0  0  0  0  0  0  0  0  0
   59.3510   30.1140   46.6130 C   0  0  0  0  0  0  0  0  0  0  0  0
   58.9710   26.6380   45.8900 C   0  0  0  0  0  0  0  0  0  0  0  0
   57.9960   26.1330   44.8120 C   0  0  0  0  0  0  0  0  0  0  0  0
   58.1400   26.9360   43.5050 C   0  0  0  0  0  0  0  0  0  0  0  0
   57.7970   28.4230   43.7160 C   0  0  0  0  0  0  0  0  0  0  0  0
   62.9687   35.2072   46.5186 H   0  0  0  0  0  0  0  0  0  0  0  0
   64.3265   34.2960   45.7751 H   0  0  0  0  0  0  0  0  0  0  0  0
   62.6708   33.5994   45.7751 H   0  0  0  0  0  0  0  0  0  0  0  0
   64.5579   34.0051   48.1426 H   0  0  0  0  0  0  0  0  0  0  0  0
   62.7795   33.6546   48.3192 H   0  0  0  0  0  0  0  0  0  0  0  0
   64.5380   31.7750   48.3570 H   0  0  0  0  0  0  0  0  0  0  0  0
   64.4690   31.9050   46.6810 H   0  0  0  0  0  0  0  0  0  0  0  0
   62.0830   31.5776   46.6866 H   0  0  0  0  0  0  0  0  0  0  0  0
   63.0038   30.2087   47.4497 H   0  0  0  0  0  0  0  0  0  0  0  0
   62.3013   30.7518   49.6060 H   0  0  0  0  0  0  0  0  0  0  0  0
   61.9184   32.4606   49.1564 H   0  0  0  0  0  0  0  0  0  0  0  0
   59.9620   30.6590   49.4280 H   0  0  0  0  0  0  0  0  0  0  0  0
   60.4174   33.6029   48.4472 H   0  0  0  0  0  0  0  0  0  0  0  0
   60.1366   35.8288   47.3806 H   0  0  0  0  0  0  0  0  0  0  0  0
   59.1797   36.0129   45.0947 H   0  0  0  0  0  0  0  0  0  0  0  0
   58.3836   33.9885   43.9009 H   0  0  0  0  0  0  0  0  0  0  0  0
   56.4854   31.7059   43.9997 H   0  0  0  0  0  0  0  0  0  0  0  0
   57.8400   32.4488   43.0832 H   0  0  0  0  0  0  0  0  0  0  0  0
   57.6271   30.6651   43.0832 H   0  0  0  0  0  0  0  0  0  0  0  0
   59.9862   26.2892   45.6497 H   0  0  0  0  0  0  0  0  0  0  0  0
   58.6515   26.2444   46.8662 H   0  0  0  0  0  0  0  0  0  0  0  0
   58.2071   25.0732   44.6063 H   0  0  0  0  0  0  0  0  0  0  0  0
   56.9694   26.2604   45.1859 H   0  0  0  0  0  0  0  0  0  0  0  0
   59.1775   26.8555   43.1483 H   0  0  0  0  0  0  0  0  0  0  0  0
   57.4388   26.5213   42.7658 H   0  0  0  0  0  0  0  0  0  0  0  0
   58.1485   29.0003   42.8482 H   0  0  0  0  0  0  0  0  0  0  0  0
   56.7068   28.5199   43.8260 H   0  0  0  0  0  0  0  0  0  0  0  0
  1  2  1  0
  2  3  1  0
  3  4  1  0
  4  5  1  0
  5  6  1  0
  6  7  1  0
  7  8  2  0
  8  9  1  0
  9 10  2  0
 10 11  1  0
 11 12  2  0
 12 13  1  0
 13 14  2  0
 14 15  1  0
 14 16  1  0
 16 17  1  0
 17 18  2  0
 18 19  1  0
 19 20  1  0
 18 21  1  0
 21 22  1  0
 22 23  1  0
 23 24  1  0
 20  7  1  0
 13  8  1  0
 20 16  2  0
 24 17  1  0
  1 25  1  0
  1 26  1  0
  1 27  1  0
  2 28  1  0
  2 29  1  0
  3 30  1  0
  3 31  1  0
  4 32  1  0
  4 33  1  0
  5 34  1  0
  5 35  1  0
  6 36  1  0
  9 37  1  0
 10 38  1  0
 11 39  1  0
 12 40  1  0
 15 41  1  0
 15 42  1  0
 15 43  1  0
 21 44  1  0
 21 45  1  0
 22 46  1  0
 22 47  1  0
 23 48  1  0
 23 49  1  0
 24 50  1  0
 24 51  1  0
M  CHG  2   3   1  14   1
M  END
>  <UniqueID>  (3) 
3

>  <SMILES>  (3) 
CC[NH2+]CCNc1c2ccccc2[n+](C)c2c3c(oc12)CCCC3

>  <Energy>  (3) 
101.35356236636214

>  <Genealogy>  (3) 
CC[NH2+]CCNc1c2ccccc2[n+](C)c2c3c(oc12)CCCC3 (protonated)
CC[NH2+]CCNc1c2ccccc2[n+](C)c2c3c(oc12)CCCC3 (3D coordinates assigned)
CC[NH2+]CCNc1c2ccccc2[n+](C)c2c3c(oc12)CCCC3 (nonaromatic ring conformer: 101.35356236636214 kcal/mol)

>  <smiles>  (3) 
CCNCCNc1c2ccccc2[n+](C)c2c3c(oc12)CCCC3

>  <score_type>  (3) 
oracle

>  <origin>  (3) 
adg

>  <m_score__min__energy>  (3) 
-4.9400000000000004

>  <m_primary>  (3) 
energy

$$$$
3:0
     RDKit          3D

 17 16  0  0  0  0  0  0  0  0999 V2000
   56.9970   30.9050   44.4140 C   0  0  0  0  0  0  0  0  0  0  0  0
   56.3110   29.6140   43.9840 C   0  0  0  0  0  0  0  0  0  0  0  0
   55.9310   28.8290   45.1660 N   0  0  0  0  0  0  0  0  0  0  0  0
   57.0480   27.9990   45.6470 C   0  0  0  0  0  0  0  0  0  0  0  0
   56.5300   26.6580   46.1690 C   0  0  0  0  0  0  0  0  0  0  0  0
   55.1340   26.5840   46.0670 O   0  0  0  0  0  0  0  0  0  0  0  0
   57.0247   30.9572   45.5124 H   0  0  0  0  0  0  0  0  0  0  0  0
   58.0239   30.9234   44.0200 H   0  0  0  0  0  0  0  0  0  0  0  0
   56.4376   31.7663   44.0200 H   0  0  0  0  0  0  0  0  0  0  0  0
   55.4093   29.8568   43.4027 H   0  0  0  0  0  0  0  0  0  0  0  0
   57.0052   29.0245   43.3670 H   0  0  0  0  0  0  0  0  0  0  0  0
   55.1510   28.1890   44.8820 H   0  0  0  0  0  0  0  0  0  0  0  0
   57.7488   27.8191   44.8184 H   0  0  0  0  0  0  0  0  0  0  0  0
   57.5582   28.5274   46.4658 H   0  0  0  0  0  0  0  0  0  0  0  0
   56.9773   25.8451   45.5782 H   0  0  0  0  0  0  0  0  0  0  0  0
   56.8092   26.5633   47.2288 H   0  0  0  0  0  0  0  0  0  0  0  0
   54.7810   27.4670   46.3530 H   0  0  0  0  0  0  0  0  0  0  0  0
  1  2  1  0
  2  3  1  0
  3  4  1  0
  4  5  1  0
  5  6  1  0
  1  7  1  0
  1  8  1  0
  1  9  1  0
  2 10  1  0
  2 11  1  0
  3 12  1  0
  4 13  1  0
  4 14  1  0
  5 15  1  0
  5 16  1  0
  6 17  1  0
M  END
>  <UniqueID>  (4) 
4

>  <SMILES>  (4) 
CCNCCO

>  <Energy>  (4) 
7.692018988036736

>  <Genealogy>  (4) 
CCNCCO (3D coordinates assigned)
CCNCCO (optimized conformer: 7.692018988036736 kcal/mol)

>  <smiles>  (4) 
CCNCCO

>  <score_type>  (4) 
oracle

>  <origin>  (4) 
adg

>  <m_score__min__energy>  (4) 
-4.46

>  <m_primary>  (4) 
energy

$$$$
4:0
     RDKit          3D

 56 58  0  0  0  0  0  0  0  0999 V2000
   57.4520   34.3430   45.2110 C   0  0  0  0  0  0  0  0  0  0  0  0
   58.9080   34.7000   44.9240 C   0  0  0  0  0  0  0  0  0  0  0  0
   59.6450   35.1060   46.2050 C   0  0  0  0  0  0  0  0  0  0  0  0
   60.1160   33.8960   46.9360 N   0  0  0  0  0  0  0  0  0  0  0  0
   61.3920   34.1430   47.6500 C   0  0  0  0  0  0  0  0  0  0  0  0
   62.6100   33.7880   46.7830 C   0  0  0  0  0  0  0  0  0  0  0  0
   63.4060   32.6230   47.3690 C   0  0  0  0  0  0  0  0  0  0  0  0
   59.0820   33.3860   47.8700 C   0  0  0  0  0  0  0  0  0  0  0  0
   58.8180   31.8930   47.6190 C   0  0  0  0  0  0  0  0  0  0  0  0
   59.7620   31.3450   46.6290 N   0  0  0  0  0  0  0  0  0  0  0  0
   59.2110   30.1480   46.0070 C   0  0  0  0  0  0  0  0  0  0  0  0
   58.4100   30.2420   44.8350 C   0  0  0  0  0  0  0  0  0  0  0  0
   58.1790   31.4810   44.1860 C   0  0  0  0  0  0  0  0  0  0  0  0
   57.3150   31.5750   43.0980 C   0  0  0  0  0  0  0  0  0  0  0  0
   56.6550   30.4470   42.6360 C   0  0  0  0  0  0  0  0  0  0  0  0
   56.8980   29.2090   43.2220 C   0  0  0  0  0  0  0  0  0  0  0  0
   57.8200   29.0670   44.2910 C   0  0  0  0  0  0  0  0  0  0  0  0
   58.1370   27.8250   44.8020 N   0  0  0  0  0  0  0  0  0  0  0  0
   57.7820   26.6030   44.0430 C   0  0  0  0  0  0  0  0  0  0  0  0
   58.8330   27.7180   45.9910 C   0  0  0  0  0  0  0  0  0  0  0  0
   58.9580   26.4710   46.6590 C   0  0  0  0  0  0  0  0  0  0  0  0
   59.7380   26.3410   47.8050 C   0  0  0  0  0  0  0  0  0  0  0  0
   60.4010   27.4430   48.3230 C   0  0  0  0  0  0  0  0  0  0  0  0
   60.2500   28.6910   47.7260 C   0  0  0  0  0  0  0  0  0  0  0  0
   59.4340   28.8650   46.5790 C   0  0  0  0  0  0  0  0  0  0  0  0
   57.2916   34.3037   46.2985 H   0  0  0  0  0  0  0  0  0  0  0  0
   56.7937   35.1063   44.7706 H   0  0  0  0  0  0  0  0  0  0  0  0
   57.2214   33.3617   44.7706 H   0  0  0  0  0  0  0  0  0  0  0  0
   59.4108   33.8267   44.4829 H   0  0  0  0  0  0  0  0  0  0  0  0
   58.9258   35.5520   44.2284 H   0  0  0  0  0  0  0  0  0  0  0  0
   60.5110   35.7315   45.9427 H   0  0  0  0  0  0  0  0  0  0  0  0
   58.9556   35.6689   46.8514 H   0  0  0  0  0  0  0  0  0  0  0  0
   61.4471   35.2073   47.9225 H   0  0  0  0  0  0  0  0  0  0  0  0
   61.4119   33.5038   48.5450 H   0  0  0  0  0  0  0  0  0  0  0  0
   62.2618   33.5106   45.7771 H   0  0  0  0  0  0  0  0  0  0  0  0
   63.2699   34.6673   46.7456 H   0  0  0  0  0  0  0  0  0  0  0  0
   63.3726   32.6718   48.4674 H   0  0  0  0  0  0  0  0  0  0  0  0
   62.9677   31.6725   47.0307 H   0  0  0  0  0  0  0  0  0  0  0  0
   64.4508   32.6859   47.0307 H   0  0  0  0  0  0  0  0  0  0  0  0
   59.4297   33.5230   48.9046 H   0  0  0  0  0  0  0  0  0  0  0  0
   58.1486   33.9444   47.7061 H   0  0  0  0  0  0  0  0  0  0  0  0
   58.9317   31.3442   48.5655 H   0  0  0  0  0  0  0  0  0  0  0  0
   57.7966   31.7806   47.2264 H   0  0  0  0  0  0  0  0  0  0  0  0
   60.6820   31.1450   47.0790 H   0  0  0  0  0  0  0  0  0  0  0  0
   60.0170   32.0640   45.9180 H   0  0  0  0  0  0  0  0  0  0  0  0
   58.6915   32.3844   44.5484 H   0  0  0  0  0  0  0  0  0  0  0  0
   57.1561   32.5453   42.6047 H   0  0  0  0  0  0  0  0  0  0  0  0
   55.9386   30.5309   41.8055 H   0  0  0  0  0  0  0  0  0  0  0  0
   56.3646   28.3222   42.8491 H   0  0  0  0  0  0  0  0  0  0  0  0
   57.5459   25.7904   44.7459 H   0  0  0  0  0  0  0  0  0  0  0  0
   56.9058   26.8062   43.4098 H   0  0  0  0  0  0  0  0  0  0  0  0
   58.6307   26.3051   43.4098 H   0  0  0  0  0  0  0  0  0  0  0  0
   58.4287   25.5915   46.2637 H   0  0  0  0  0  0  0  0  0  0  0  0
   59.8283   25.3628   48.3000 H   0  0  0  0  0  0  0  0  0  0  0  0
   61.0468   27.3308   49.2064 H   0  0  0  0  0  0  0  0  0  0  0  0
   60.7737   29.5595   48.1520 H   0  0  0  0  0  0  0  0  0  0  0  0
  1  2  1  0
  2  3  1  0
  3  4  1  0
  4  5  1  0
  5  6  1  0
  6  7  1  0
  4  8  1  0
  8  9  1  0
  9 10  1  0
 10 11  1  0
 11 12  2  0
 12 13  1  0
 13 14  2  0
 14 15  1  0
 15 16  2  0
 16 17  1  0
 17 18  2  0
 18 19  1  0
 18 20  1  0
 20 21  2  0
 21 22  1  0
 22 23  2  0
 23 24  1  0
 24 25  2  0
 25 11  1  0
 17 12  1  0
 25 20  1  0
  1 26  1  0
  1 27  1  0
  1 28  1  0
  2 29  1  0
  2 30  1  0
  3 31  1  0
  3 32  1  0
  5 33  1  0
  5 34  1  0
  6 35  1  0
  6 36  1  0
  7 37  1  0
  7 38  1  0
  7 39  1  0
  8 40  1  0
  8 41  1  0
  9 42  1  0
  9 43  1  0
 10 44  1  0
 10 45  1  0
 13 46  1  0
 14 47  1  0
 15 48  1  0
 16 49  1  0
 19 50  1  0
 19 51  1  0
 19 52  1  0
 21 53  1  0
 22 54  1  0
 23 55  1  0
 24 56  1  0
M  CHG  2  10   1  18   1
M  END
>  <UniqueID>  (5) 
5

>  <SMILES>  (5) 
CCCN(CCC)CC[NH2+]c1c2ccccc2[n+](C)c2ccccc12

>  <Energy>  (5) 
79.86440679080442

>  <Genealogy>  (5) 
CCCN(CCC)CC[NH2+]c1c2ccccc2[n+](C)c2ccccc12 (protonated)
CCCN(CCC)CC[NH2+]c1c2ccccc2[n+](C)c2ccccc12 (3D coordinates assigned)
CCCN(CCC)CC[NH2+]c1c2ccccc2[n+](C)c2ccccc12 (optimized conformer: 79.86440679080442 kcal/mol)

>  <smiles>  (5) 
CCCN(CCC)CCNc1c2ccccc2[n+](C)c2ccccc12

>  <score_type>  (5) 
oracle

>  <origin>  (5) 
adg

>  <m_score__min__energy>  (5) 
-4.3300000000000001

>  <m_primary>  (5) 
energy

$$$$
5:0
     RDKit          3D

 49 50  0  0  0  0  0  0  0  0999 V2000
   57.7780   28.1320   44.0720 C   0  0  0  0  0  0  0  0  0  0  0  0
   56.7220   28.6020   45.0670 C   0  0  0  0  0  0  0  0  0  0  0  0
   56.4420   29.9760   44.8760 O   0  0  0  0  0  0  0  0  0  0  0  0
   57.1800   30.5100   43.7910 C   0  0  0  0  0  0  0  0  0  0  0  0
   57.4550   31.9970   44.0210 C   0  0  0  0  0  0  0  0  0  0  0  0
   56.6670   32.4920   45.1620 N   0  0  0  0  0  0  0  0  0  0  0  0
   57.0820   33.8350   45.6000 C   0  0  0  0  0  0  0  0  0  0  0  0
   58.4050   33.8100   46.3320 C   0  0  0  0  0  0  0  0  0  0  0  0
   59.5800   34.2070   45.6750 C   0  0  0  0  0  0  0  0  0  0  0  0
   60.8010   34.2110   46.3540 C   0  0  0  0  0  0  0  0  0  0  0  0
   60.8660   33.8240   47.7020 C   0  0  0  0  0  0  0  0  0  0  0  0
   62.1870   33.8410   48.4350 C   0  0  0  0  0  0  0  0  0  0  0  0
   62.6870   32.4800   48.7230 N   0  0  0  0  0  0  0  0  0  0  0  0
   62.6130   31.5680   47.5670 C   0  0  0  0  0  0  0  0  0  0  0  0
   61.3940   30.6740   47.5960 C   0  0  0  0  0  0  0  0  0  0  0  0
   60.6960   30.3890   46.4100 C   0  0  0  0  0  0  0  0  0  0  0  0
   59.5910   29.5340   46.4300 C   0  0  0  0  0  0  0  0  0  0  0  0
   59.1790   28.9470   47.6290 C   0  0  0  0  0  0  0  0  0  0  0  0
   58.1200   28.1010   47.6410 F   0  0  0  0  0  0  0  0  0  0  0  0
   59.8660   29.2260   48.8140 C   0  0  0  0  0  0  0  0  0  0  0  0
   60.9750   30.0780   48.7980 C   0  0  0  0  0  0  0  0  0  0  0  0
   59.6940   33.4040   48.3510 C   0  0  0  0  0  0  0  0  0  0  0  0
   58.4720   33.4040   47.6740 C   0  0  0  0  0  0  0  0  0  0  0  0
   58.6500   27.7439   44.6188 H   0  0  0  0  0  0  0  0  0  0  0  0
   57.3576   27.3360   43.4398 H   0  0  0  0  0  0  0  0  0  0  0  0
   58.0880   28.9771   43.4398 H   0  0  0  0  0  0  0  0  0  0  0  0
   55.8002   28.0202   44.9193 H   0  0  0  0  0  0  0  0  0  0  0  0
   57.1026   28.4537   46.0884 H   0  0  0  0  0  0  0  0  0  0  0  0
   58.1359   29.9730   43.7024 H   0  0  0  0  0  0  0  0  0  0  0  0
   56.5959   30.3915   42.8664 H   0  0  0  0  0  0  0  0  0  0  0  0
   58.5255   32.1400   44.2300 H   0  0  0  0  0  0  0  0  0  0  0  0
   57.1691   32.5575   43.1187 H   0  0  0  0  0  0  0  0  0  0  0  0
   56.7640   31.8210   45.9600 H   0  0  0  0  0  0  0  0  0  0  0  0
   57.1777   34.4828   44.7161 H   0  0  0  0  0  0  0  0  0  0  0  0
   56.3180   34.2168   46.2932 H   0  0  0  0  0  0  0  0  0  0  0  0
   59.5394   34.5165   44.6202 H   0  0  0  0  0  0  0  0  0  0  0  0
   61.7172   34.5193   45.8291 H   0  0  0  0  0  0  0  0  0  0  0  0
   62.9286   34.3664   47.8153 H   0  0  0  0  0  0  0  0  0  0  0  0
   62.0316   34.3526   49.3963 H   0  0  0  0  0  0  0  0  0  0  0  0
   62.2040   32.0630   49.5530 H   0  0  0  0  0  0  0  0  0  0  0  0
   63.6980   32.5660   48.9810 H   0  0  0  0  0  0  0  0  0  0  0  0
   62.5841   32.1702   46.6469 H   0  0  0  0  0  0  0  0  0  0  0  0
   63.4990   30.9171   47.6046 H   0  0  0  0  0  0  0  0  0  0  0  0
   61.0211   30.8412   45.4614 H   0  0  0  0  0  0  0  0  0  0  0  0
   59.0441   29.3225   45.4993 H   0  0  0  0  0  0  0  0  0  0  0  0
   59.5338   28.7747   49.7606 H   0  0  0  0  0  0  0  0  0  0  0  0
   61.5218   30.2826   49.7303 H   0  0  0  0  0  0  0  0  0  0  0  0
   59.7382   33.0729   49.3991 H   0  0  0  0  0  0  0  0  0  0  0  0
   57.5577   33.0842   48.1953 H   0  0  0  0  0  0  0  0  0  0  0  0
  1  2  1  0
  2  3  1  0
  3  4  1  0
  4  5  1  0
  5  6  1  0
  6  7  1  0
  7  8  1  0
  8  9  2  0
  9 10  1  0
 10 11  2  0
 11 12  1  0
 12 13  1  0
 13 14  1  0
 14 15  1  0
 15 16  2  0
 16 17  1  0
 17 18  2  0
 18 19  1  0
 18 20  1  0
 20 21  2  0
 11 22  1  0
 22 23  2  0
 23  8  1  0
 21 15  1  0
  1 24  1  0
  1 25  1  0
  1 26  1  0
  2 27  1  0
  2 28  1  0
  4 29  1  0
  4 30  1  0
  5 31  1  0
  5 32  1  0
  6 33  1  0
  7 34  1  0
  7 35  1  0
  9 36  1  0
 10 37  1  0
 12 38  1  0
 12 39  1  0
 13 40  1  0
 13 41  1  0
 14 42  1  0
 14 43  1  0
 16 44  1  0
 17 45  1  0
 20 46  1  0
 21 47  1  0
 22 48  1  0
 23 49  1  0
M  CHG  1  13   1
M  END
>  <UniqueID>  (6) 
6

>  <SMILES>  (6) 
CCOCCNCc1ccc(C[NH2+]Cc2ccc(F)cc2)cc1

>  <Energy>  (6) 
45.69851437316467

>  <Genealogy>  (6) 
CCOCCNCc1ccc(C[NH2+]Cc2ccc(F)cc2)cc1 (protonated)
CCOCCNCc1ccc(C[NH2+]Cc2ccc(F)cc2)cc1 (3D coordinates assigned)
CCOCCNCc1ccc(C[NH2+]Cc2ccc(F)cc2)cc1 (optimized conformer: 45.69851437316467 kcal/mol)

>  <smiles>  (6) 
CCOCCNCc1ccc(CNCc2ccc(F)cc2)cc1

>  <score_type>  (6) 
oracle

>  <origin>  (6) 
adg

>  <m_score__min__energy>  (6) 
-5.1900000000000004

>  <m_primary>  (6) 
energy

$$$$
6:0
     RDKit          3D

 36 37  0  0  0  0  0  0  0  0999 V2000
   56.6520   30.6860   42.4850 C   0  0  0  0  0  0  0  0  0  0  0  0
   56.0310   29.9050   43.6400 C   0  0  0  0  0  0  0  0  0  0  0  0
   56.7560   30.1690   44.8910 N   0  0  0  0  0  0  0  0  0  0  0  0
   57.5520   31.4000   44.8000 C   0  0  0  0  0  0  0  0  0  0  0  0
   58.5940   31.4320   45.9190 C   0  0  0  0  0  0  0  0  0  0  0  0
   58.7950   30.1280   46.4340 O   0  0  0  0  0  0  0  0  0  0  0  0
   60.1730   29.8140   46.4670 C   0  0  0  0  0  0  0  0  0  0  0  0
   60.5270   28.9530   45.2570 C   0  0  0  0  0  0  0  0  0  0  0  0
   59.4040   28.0910   44.8940 N   0  0  0  0  0  0  0  0  0  0  0  0
   58.7240   28.1790   43.7540 N   0  0  0  0  0  0  0  0  0  0  0  0
   57.7240   27.2990   43.7460 N   0  0  0  0  0  0  0  0  0  0  0  0
   57.7690   26.6450   44.9190 C   0  0  0  0  0  0  0  0  0  0  0  0
   56.9320   25.6450   45.4070 C   0  0  0  0  0  0  0  0  0  0  0  0
   57.2060   25.1500   46.6970 C   0  0  0  0  0  0  0  0  0  0  0  0
   58.2920   25.6630   47.4500 C   0  0  0  0  0  0  0  0  0  0  0  0
   59.1140   26.6780   46.9220 C   0  0  0  0  0  0  0  0  0  0  0  0
   58.8130   27.1380   45.6400 C   0  0  0  0  0  0  0  0  0  0  0  0
   57.2896   31.4879   42.8855 H   0  0  0  0  0  0  0  0  0  0  0  0
   57.2600   30.0075   41.8685 H   0  0  0  0  0  0  0  0  0  0  0  0
   55.8540   31.1255   41.8685 H   0  0  0  0  0  0  0  0  0  0  0  0
   54.9808   30.2098   43.7594 H   0  0  0  0  0  0  0  0  0  0  0  0
   56.0916   28.8300   43.4147 H   0  0  0  0  0  0  0  0  0  0  0  0
   57.4190   29.3740   45.0470 H   0  0  0  0  0  0  0  0  0  0  0  0
   58.0621   31.4330   43.8260 H   0  0  0  0  0  0  0  0  0  0  0  0
   56.8859   32.2695   44.9014 H   0  0  0  0  0  0  0  0  0  0  0  0
   59.5445   31.8162   45.5203 H   0  0  0  0  0  0  0  0  0  0  0  0
   58.2351   32.0868   46.7267 H   0  0  0  0  0  0  0  0  0  0  0  0
   60.7616   30.7429   46.4410 H   0  0  0  0  0  0  0  0  0  0  0  0
   60.4015   29.2613   47.3902 H   0  0  0  0  0  0  0  0  0  0  0  0
   60.7707   29.6069   44.4067 H   0  0  0  0  0  0  0  0  0  0  0  0
   61.3914   28.3219   45.5110 H   0  0  0  0  0  0  0  0  0  0  0  0
   57.0410   27.1690   42.9670 H   0  0  0  0  0  0  0  0  0  0  0  0
   56.0926   25.2580   44.8106 H   0  0  0  0  0  0  0  0  0  0  0  0
   56.5720   24.3588   47.1236 H   0  0  0  0  0  0  0  0  0  0  0  0
   58.4946   25.2651   48.4553 H   0  0  0  0  0  0  0  0  0  0  0  0
   59.9570   27.0901   47.4961 H   0  0  0  0  0  0  0  0  0  0  0  0
  1  2  1  0
  2  3  1  0
  3  4  1  0
  4  5  1  0
  5  6  1  0
  6  7  1  0
  7  8  1  0
  8  9  1  0
  9 10  1  0
 10 11  2  0
 11 12  1  0
 12 13  2  0
 13 14  1  0
 14 15  2  0
 15 16  1  0
 16 17  2  0
 17  9  1  0
 17 12  1  0
  1 18  1  0
  1 19  1  0
  1 20  1  0
  2 21  1  0
  2 22  1  0
  3 23  1  0
  4 24  1  0
  4 25  1  0
  5 26  1  0
  5 27  1  0
  7 28  1  0
  7 29  1  0
  8 30  1  0
  8 31  1  0
 11 32  1  0
 13 33  1  0
 14 34  1  0
 15 35  1  0
 16 36  1  0
M  CHG  1  11   1
M  END
>  <UniqueID>  (7) 
7

>  <SMILES>  (7) 
CCNCCOCCn1n[nH+]c2ccccc21

>  <Energy>  (7) 
75.05466483797959

>  <Genealogy>  (7) 
CCNCCOCCn1n[nH+]c2ccccc21 (protonated)
CCNCCOCCn1n[nH+]c2ccccc21 (3D coordinates assigned)
CCNCCOCCn1n[nH+]c2ccccc21 (optimized conformer: 75.05466483797959 kcal/mol)

>  <smiles>  (7) 
CCNCCOCCn1nnc2ccccc21

>  <score_type>  (7) 
oracle

>  <origin>  (7) 
adg

>  <m_score__min__energy>  (7) 
-5.0599999999999996

>  <m_primary>  (7) 
energy

$$$$
7:0
     RDKit          3D

 54 56  0  0  0  0  0  0  0  0999 V2000
   53.5700   30.8070   51.2410 C   0  0  0  0  0  0  0  0  0  0  0  0
   54.0610   29.6930   52.1840 C   0  0  0  0  0  0  0  0  0  0  0  0
   55.5260   29.6850   52.4660 N   0  0  2  0  0  0  0  0  0  0  0  0
   55.9390   28.8180   53.5870 C   0  0  0  0  0  0  0  0  0  0  0  0
   56.1450   31.0370   52.5160 C   0  0  0  0  0  0  0  0  0  0  0  0
   57.3550   31.2500   51.5940 C   0  0  0  0  0  0  0  0  0  0  0  0
   57.6180   30.0760   50.8530 O   0  0  0  0  0  0  0  0  0  0  0  0
   58.9620   30.0710   50.4180 C   0  0  0  0  0  0  0  0  0  0  0  0
   59.1860   31.2490   49.4760 C   0  0  0  0  0  0  0  0  0  0  0  0
   59.7270   30.7820   48.2020 N   0  0  0  0  0  0  0  0  0  0  0  0
   59.1950   31.2530   46.9520 C   0  0  0  0  0  0  0  0  0  0  0  0
   59.3130   32.6090   46.6000 C   0  0  0  0  0  0  0  0  0  0  0  0
   59.8760   33.5420   47.4960 C   0  0  0  0  0  0  0  0  0  0  0  0
   59.9600   34.8920   47.1580 C   0  0  0  0  0  0  0  0  0  0  0  0
   59.4740   35.3340   45.9340 C   0  0  0  0  0  0  0  0  0  0  0  0
   58.9240   34.4270   45.0280 C   0  0  0  0  0  0  0  0  0  0  0  0
   58.8580   33.0410   45.3250 C   0  0  0  0  0  0  0  0  0  0  0  0
   58.3610   32.1240   44.4160 N   0  0  0  0  0  0  0  0  0  0  0  0
   58.1580   32.5180   43.0040 C   0  0  0  0  0  0  0  0  0  0  0  0
   58.0710   30.8330   44.8250 C   0  0  0  0  0  0  0  0  0  0  0  0
   57.3130   29.9460   44.0200 C   0  0  0  0  0  0  0  0  0  0  0  0
   57.0590   28.6380   44.4310 C   0  0  0  0  0  0  0  0  0  0  0  0
   57.5320   28.1840   45.6570 C   0  0  0  0  0  0  0  0  0  0  0  0
   57.1710   26.3920   46.2160 Br  0  0  0  0  0  0  0  0  0  0  0  0
   58.2490   29.0430   46.4870 C   0  0  0  0  0  0  0  0  0  0  0  0
   58.5180   30.3710   46.0920 C   0  0  0  0  0  0  0  0  0  0  0  0
   53.1969   31.6534   51.8364 H   0  0  0  0  0  0  0  0  0  0  0  0
   54.4030   31.1439   50.6065 H   0  0  0  0  0  0  0  0  0  0  0  0
   52.7593   30.4194   50.6065 H   0  0  0  0  0  0  0  0  0  0  0  0
   53.5327   29.8039   53.1424 H   0  0  0  0  0  0  0  0  0  0  0  0
   53.8496   28.7459   51.6659 H   0  0  0  0  0  0  0  0  0  0  0  0
   55.9610   29.2420   51.6210 H   0  0  0  0  0  0  0  0  0  0  0  0
   55.7029   29.3137   54.5402 H   0  0  0  0  0  0  0  0  0  0  0  0
   55.4001   27.8609   53.5281 H   0  0  0  0  0  0  0  0  0  0  0  0
   57.0218   28.6334   53.5281 H   0  0  0  0  0  0  0  0  0  0  0  0
   55.3750   31.7718   52.2382 H   0  0  0  0  0  0  0  0  0  0  0  0
   56.5249   31.1551   53.5415 H   0  0  0  0  0  0  0  0  0  0  0  0
   57.1421   32.0770   50.9006 H   0  0  0  0  0  0  0  0  0  0  0  0
   58.2353   31.4911   52.2079 H   0  0  0  0  0  0  0  0  0  0  0  0
   59.6307   30.1617   51.2867 H   0  0  0  0  0  0  0  0  0  0  0  0
   59.1776   29.1295   49.8917 H   0  0  0  0  0  0  0  0  0  0  0  0
   58.2278   31.7592   49.2984 H   0  0  0  0  0  0  0  0  0  0  0  0
   59.9030   31.9447   49.9364 H   0  0  0  0  0  0  0  0  0  0  0  0
   60.4230   30.0000   48.1950 H   0  0  0  0  0  0  0  0  0  0  0  0
   60.2527   33.2008   48.4715 H   0  0  0  0  0  0  0  0  0  0  0  0
   60.4114   35.6076   47.8610 H   0  0  0  0  0  0  0  0  0  0  0  0
   59.5230   36.4028   45.6783 H   0  0  0  0  0  0  0  0  0  0  0  0
   58.5346   34.7927   44.0664 H   0  0  0  0  0  0  0  0  0  0  0  0
   57.6545   33.4952   42.9648 H   0  0  0  0  0  0  0  0  0  0  0  0
   59.1327   32.5872   42.4989 H   0  0  0  0  0  0  0  0  0  0  0  0
   57.5359   31.7645   42.4989 H   0  0  0  0  0  0  0  0  0  0  0  0
   56.9184   30.2955   43.0545 H   0  0  0  0  0  0  0  0  0  0  0  0
   56.4819   27.9625   43.7824 H   0  0  0  0  0  0  0  0  0  0  0  0
   58.6097   28.6820   47.4615 H   0  0  0  0  0  0  0  0  0  0  0  0
  1  2  1  0
  2  3  1  0
  3  4  1  0
  3  5  1  0
  5  6  1  0
  6  7  1  0
  7  8  1  0
  8  9  1  0
  9 10  1  0
 10 11  1  0
 11 12  2  0
 12 13  1  0
 13 14  2  0
 14 15  1  0
 15 16  2  0
 16 17  1  0
 17 18  2  0
 18 19  1  0
 18 20  1  0
 20 21  2  0
 21 22  1  0
 22 23  2  0
 23 24  1  0
 23 25  1  0
 25 26  2  0
 26 11  1  0
 17 12  1  0
 26 20  1  0
  1 27  1  0
  1 28  1  0
  1 29  1  0
  2 30  1  0
  2 31  1  0
  3 32  1  6
  4 33  1  0
  4 34  1  0
  4 35  1  0
  5 36  1  0
  5 37  1  0
  6 38  1  0
  6 39  1  0
  8 40  1  0
  8 41  1  0
  9 42  1  0
  9 43  1  0
 10 44  1  0
 13 45  1  0
 14 46  1  0
 15 47  1  0
 16 48  1  0
 19 49  1  0
 19 50  1  0
 19 51  1  0
 21 52  1  0
 22 53  1  0
 25 54  1  0
M  CHG  2   3   1  18   1
M  END
>  <UniqueID>  (8) 
8

>  <SMILES>  (8) 
CC[N@H+](C)CCOCCNc1c2ccccc2[n+](C)c2ccc(Br)cc12

>  <Energy>  (8) 
88.06645699780404

>  <Genealogy>  (8) 
CC[NH+](C)CCOCCNc1c2ccccc2[n+](C)c2ccc(Br)cc12 (protonated)
CC[N@H+](C)CCOCCNc1c2ccccc2[n+](C)c2ccc(Br)cc12 (chirality)
CC[N@H+](C)CCOCCNc1c2ccccc2[n+](C)c2ccc(Br)cc12 (3D coordinates assigned)
CC[N@H+](C)CCOCCNc1c2ccccc2[n+](C)c2ccc(Br)cc12 (optimized conformer: 88.06645699780404 kcal/mol)

>  <smiles>  (8) 
CCN(C)CCOCCNc1c2ccccc2[n+](C)c2ccc(Br)cc12

>  <score_type>  (8) 
oracle

>  <origin>  (8) 
adg

>  <m_score__min__energy>  (8) 
-4.7300000000000004

>  <m_primary>  (8) 
energy

$$$$
8:0
     RDKit          3D

 54 56  0  0  0  0  0  0  0  0999 V2000
   56.6420   30.4340   42.9620 C   0  0  0  0  0  0  0  0  0  0  0  0
   55.6030   30.0850   44.0180 C   0  0  0  0  0  0  0  0  0  0  0  0
   56.2740   29.6650   45.2510 N   0  0  0  0  0  0  0  0  0  0  0  0
   56.7330   28.2770   45.1480 C   0  0  0  0  0  0  0  0  0  0  0  0
   58.2540   28.2020   45.3240 C   0  0  0  0  0  0  0  0  0  0  0  0
   58.7070   28.5860   46.7440 C   0  0  0  0  0  0  0  0  0  0  0  0
   58.3380   29.9670   47.0690 N   0  0  0  0  0  0  0  0  0  0  0  0
   59.3040   31.0320   47.1740 C   0  0  0  0  0  0  0  0  0  0  0  0
   59.1820   32.1950   46.3880 C   0  0  0  0  0  0  0  0  0  0  0  0
   58.1400   32.3380   45.4440 C   0  0  0  0  0  0  0  0  0  0  0  0
   58.0020   33.5110   44.7050 C   0  0  0  0  0  0  0  0  0  0  0  0
   58.9040   34.5540   44.8800 C   0  0  0  0  0  0  0  0  0  0  0  0
   59.9730   34.4140   45.7620 C   0  0  0  0  0  0  0  0  0  0  0  0
   60.1580   33.2190   46.5030 C   0  0  0  0  0  0  0  0  0  0  0  0
   61.2670   33.0350   47.3010 N   0  0  0  0  0  0  0  0  0  0  0  0
   62.4800   33.8410   47.0340 C   0  0  0  0  0  0  0  0  0  0  0  0
   61.3030   31.9980   48.2150 C   0  0  0  0  0  0  0  0  0  0  0  0
   62.2440   31.9510   49.2930 C   0  0  0  0  0  0  0  0  0  0  0  0
   62.9740   33.1160   49.7180 N   0  0  0  0  0  0  0  0  0  0  0  0
   64.4350   33.0670   49.7970 C   0  0  0  0  0  0  0  0  0  0  0  0
   62.2630   34.1530   50.4640 C   0  0  0  0  0  0  0  0  0  0  0  0
   62.3560   30.7900   50.0700 C   0  0  0  0  0  0  0  0  0  0  0  0
   61.5260   29.7020   49.8480 C   0  0  0  0  0  0  0  0  0  0  0  0
   60.5300   29.7720   48.8820 C   0  0  0  0  0  0  0  0  0  0  0  0
   60.3760   30.9240   48.0840 C   0  0  0  0  0  0  0  0  0  0  0  0
   57.5744   30.7472   43.4545 H   0  0  0  0  0  0  0  0  0  0  0  0
   56.8372   29.5521   42.3342 H   0  0  0  0  0  0  0  0  0  0  0  0
   56.2653   31.2549   42.3342 H   0  0  0  0  0  0  0  0  0  0  0  0
   54.9796   30.9677   44.2234 H   0  0  0  0  0  0  0  0  0  0  0  0
   54.9706   29.2639   43.6495 H   0  0  0  0  0  0  0  0  0  0  0  0
   55.5680   29.7030   46.0240 H   0  0  0  0  0  0  0  0  0  0  0  0
   56.2476   27.6758   45.9309 H   0  0  0  0  0  0  0  0  0  0  0  0
   56.4695   27.8872   44.1537 H   0  0  0  0  0  0  0  0  0  0  0  0
   58.5820   27.1728   45.1162 H   0  0  0  0  0  0  0  0  0  0  0  0
   58.7054   28.9216   44.6251 H   0  0  0  0  0  0  0  0  0  0  0  0
   58.2296   27.9085   47.4672 H   0  0  0  0  0  0  0  0  0  0  0  0
   59.8026   28.5003   46.7925 H   0  0  0  0  0  0  0  0  0  0  0  0
   57.3210   30.2090   47.0960 H   0  0  0  0  0  0  0  0  0  0  0  0
   57.4290   31.5128   45.2908 H   0  0  0  0  0  0  0  0  0  0  0  0
   57.1787   33.6118   43.9825 H   0  0  0  0  0  0  0  0  0  0  0  0
   58.7733   35.4921   44.3207 H   0  0  0  0  0  0  0  0  0  0  0  0
   60.6849   35.2434   45.8857 H   0  0  0  0  0  0  0  0  0  0  0  0
   62.9361   34.1441   47.9880 H   0  0  0  0  0  0  0  0  0  0  0  0
   63.1996   33.2408   46.4578 H   0  0  0  0  0  0  0  0  0  0  0  0
   62.2054   34.7369   46.4578 H   0  0  0  0  0  0  0  0  0  0  0  0
   64.7450   33.0566   50.8524 H   0  0  0  0  0  0  0  0  0  0  0  0
   64.7988   32.1562   49.2990 H   0  0  0  0  0  0  0  0  0  0  0  0
   64.8590   33.9514   49.2990 H   0  0  0  0  0  0  0  0  0  0  0  0
   62.3839   33.9766   51.5430 H   0  0  0  0  0  0  0  0  0  0  0  0
   62.6758   35.1392   50.2051 H   0  0  0  0  0  0  0  0  0  0  0  0
   61.1943   34.1234   50.2051 H   0  0  0  0  0  0  0  0  0  0  0  0
   63.1128   30.7414   50.8668 H   0  0  0  0  0  0  0  0  0  0  0  0
   61.6562   28.7823   50.4373 H   0  0  0  0  0  0  0  0  0  0  0  0
   59.8526   28.9174   48.7379 H   0  0  0  0  0  0  0  0  0  0  0  0
  1  2  1  0
  2  3  1  0
  3  4  1  0
  4  5  1  0
  5  6  1  0
  6  7  1  0
  7  8  1  0
  8  9  2  0
  9 10  1  0
 10 11  2  0
 11 12  1  0
 12 13  2  0
 13 14  1  0
 14 15  2  0
 15 16  1  0
 15 17  1  0
 17 18  2  0
 18 19  1  0
 19 20  1  0
 19 21  1  0
 18 22  1  0
 22 23  2  0
 23 24  1  0
 24 25  2  0
 25  8  1  0
 14  9  1  0
 25 17  1  0
  1 26  1  0
  1 27  1  0
  1 28  1  0
  2 29  1  0
  2 30  1  0
  3 31  1  0
  4 32  1  0
  4 33  1  0
  5 34  1  0
  5 35  1  0
  6 36  1  0
  6 37  1  0
  7 38  1  0
 10 39  1  0
 11 40  1  0
 12 41  1  0
 13 42  1  0
 16 43  1  0
 16 44  1  0
 16 45  1  0
 20 46  1  0
 20 47  1  0
 20 48  1  0
 21 49  1  0
 21 50  1  0
 21 51  1  0
 22 52  1  0
 23 53  1  0
 24 54  1  0
M  CHG  1  15   1
M  END
>  <UniqueID>  (9) 
9

>  <SMILES>  (9) 
CCNCCCNc1c2ccccc2[n+](C)c2c(N(C)C)cccc12

>  <Energy>  (9) 
81.49252702531795

>  <Genealogy>  (9) 
CCNCCCNc1c2ccccc2[n+](C)c2c(N(C)C)cccc12 (3D coordinates assigned)
CCNCCCNc1c2ccccc2[n+](C)c2c(N(C)C)cccc12 (optimized conformer: 81.49252702531795 kcal/mol)

>  <smiles>  (9) 
CCNCCCNc1c2ccccc2[n+](C)c2c(N(C)C)cccc12

>  <score_type>  (9) 
oracle

>  <origin>  (9) 
adg

>  <m_score__min__energy>  (9) 
-5.8899999999999997

>  <m_primary>  (9) 
energy

$$$$
9:0
     RDKit          3D

 41 43  0  0  0  0  0  0  0  0999 V2000
   55.6730   29.7080   43.9560 C   0  0  0  0  0  0  0  0  0  0  0  0
   57.0230   29.0250   44.1850 C   0  0  0  0  0  0  0  0  0  0  0  0
   58.1570   29.8570   43.7450 N   0  0  0  0  0  0  0  0  0  0  0  0
   58.1140   31.1810   44.3300 C   0  0  0  0  0  0  0  0  0  0  0  0
   58.2610   31.3210   45.7240 C   0  0  0  0  0  0  0  0  0  0  0  0
   58.2150   32.5840   46.3340 C   0  0  0  0  0  0  0  0  0  0  0  0
   58.3410   32.7440   47.7220 O   0  0  0  0  0  0  0  0  0  0  0  0
   59.5460   32.9470   48.4110 C   0  0  0  0  0  0  0  0  0  0  0  0
   59.4940   33.3450   49.7510 C   0  0  0  0  0  0  0  0  0  0  0  0
   60.6680   33.5680   50.4750 C   0  0  0  0  0  0  0  0  0  0  0  0
   61.9170   33.4080   49.8570 C   0  0  0  0  0  0  0  0  0  0  0  0
   63.1030   33.6280   50.5740 C   0  0  0  0  0  0  0  0  0  0  0  0
   64.3420   33.4720   49.9450 C   0  0  0  0  0  0  0  0  0  0  0  0
   64.4050   33.0980   48.6000 C   0  0  0  0  0  0  0  0  0  0  0  0
   63.2310   32.8760   47.8750 C   0  0  0  0  0  0  0  0  0  0  0  0
   61.9810   33.0270   48.4950 C   0  0  0  0  0  0  0  0  0  0  0  0
   60.7950   32.8070   47.7780 C   0  0  0  0  0  0  0  0  0  0  0  0
   57.9920   33.7150   45.5480 C   0  0  0  0  0  0  0  0  0  0  0  0
   57.8520   33.6000   44.1650 C   0  0  0  0  0  0  0  0  0  0  0  0
   57.9080   32.3430   43.5390 C   0  0  0  0  0  0  0  0  0  0  0  0
   57.8050   32.2750   42.0380 C   0  0  0  0  0  0  0  0  0  0  0  0
   55.2110   29.9417   44.9265 H   0  0  0  0  0  0  0  0  0  0  0  0
   55.8242   30.6380   43.3884 H   0  0  0  0  0  0  0  0  0  0  0  0
   55.0133   29.0352   43.3884 H   0  0  0  0  0  0  0  0  0  0  0  0
   57.1348   28.8154   45.2590 H   0  0  0  0  0  0  0  0  0  0  0  0
   57.0355   28.1002   43.5896 H   0  0  0  0  0  0  0  0  0  0  0  0
   59.0610   29.3850   43.9850 H   0  0  0  0  0  0  0  0  0  0  0  0
   58.1440   29.9270   42.7010 H   0  0  0  0  0  0  0  0  0  0  0  0
   58.4143   30.4257   46.3445 H   0  0  0  0  0  0  0  0  0  0  0  0
   58.5185   33.4839   50.2399 H   0  0  0  0  0  0  0  0  0  0  0  0
   60.6127   33.8695   51.5314 H   0  0  0  0  0  0  0  0  0  0  0  0
   63.0579   33.9236   51.6326 H   0  0  0  0  0  0  0  0  0  0  0  0
   65.2697   33.6441   50.5104 H   0  0  0  0  0  0  0  0  0  0  0  0
   65.3825   32.9779   48.1100 H   0  0  0  0  0  0  0  0  0  0  0  0
   63.2868   32.5824   46.8164 H   0  0  0  0  0  0  0  0  0  0  0  0
   60.8418   32.5238   46.7161 H   0  0  0  0  0  0  0  0  0  0  0  0
   57.9261   34.7051   46.0227 H   0  0  0  0  0  0  0  0  0  0  0  0
   57.6960   34.5035   43.5573 H   0  0  0  0  0  0  0  0  0  0  0  0
   56.9173   31.6890   41.7576 H   0  0  0  0  0  0  0  0  0  0  0  0
   57.7164   33.2927   41.6301 H   0  0  0  0  0  0  0  0  0  0  0  0
   58.7060   31.7936   41.6301 H   0  0  0  0  0  0  0  0  0  0  0  0
  1  2  1  0
  2  3  1  0
  3  4  1  0
  4  5  2  0
  5  6  1  0
  6  7  1  0
  7  8  1  0
  8  9  2  0
  9 10  1  0
 10 11  2  0
 11 12  1  0
 12 13  2  0
 13 14  1  0
 14 15  2  0
 15 16  1  0
 16 17  2  0
  6 18  2  0
 18 19  1  0
 19 20  2  0
 20 21  1  0
 20  4  1  0
 17  8  1  0
 16 11  1  0
  1 22  1  0
  1 23  1  0
  1 24  1  0
  2 25  1  0
  2 26  1  0
  3 27  1  0
  3 28  1  0
  5 29  1  0
  9 30  1  0
 10 31  1  0
 12 32  1  0
 13 33  1  0
 14 34  1  0
 15 35  1  0
 17 36  1  0
 18 37  1  0
 19 38  1  0
 21 39  1  0
 21 40  1  0
 21 41  1  0
M  CHG  1   3   1
M  END
>  <UniqueID>  (10) 
10

>  <SMILES>  (10) 
CC[NH2+]c1cc(Oc2ccc3ccccc3c2)ccc1C

>  <Energy>  (10) 
52.85731503162737

>  <Genealogy>  (10) 
CC[NH2+]c1cc(Oc2ccc3ccccc3c2)ccc1C (protonated)
CC[NH2+]c1cc(Oc2ccc3ccccc3c2)ccc1C (3D coordinates assigned)
CC[NH2+]c1cc(Oc2ccc3ccccc3c2)ccc1C (optimized conformer: 52.85731503162737 kcal/mol)

>  <smiles>  (10) 
CCNc1cc(Oc2ccc3ccccc3c2)ccc1C

>  <score_type>  (10) 
oracle

>  <origin>  (10) 
adg

>  <m_score__min__energy>  (10) 
-5.9699999999999998

>  <m_primary>  (10) 
energy

$$$$
10:0
     RDKit          3D

 77 80  0  0  0  0  0  0  0  0999 V2000
   62.2270   34.5740   49.5970 C   0  0  0  0  0  0  0  0  0  0  0  0
   63.5670   33.9670   50.0110 C   0  0  0  0  0  0  0  0  0  0  0  0
   63.8080   32.7070   49.2760 N   0  0  0  0  0  0  0  0  0  0  0  0
   65.0240   32.0140   49.7660 C   0  0  0  0  0  0  0  0  0  0  0  0
   66.1150   33.0000   50.1790 C   0  0  0  0  0  0  0  0  0  0  0  0
   63.7480   32.8830   47.7990 C   0  0  0  0  0  0  0  0  0  0  0  0
   62.4000   32.5140   47.1490 C   0  0  0  0  0  0  0  0  0  0  0  0
   61.8940   31.3250   47.7180 O   0  0  0  0  0  0  0  0  0  0  0  0
   61.5250   30.3990   46.7120 C   0  0  0  0  0  0  0  0  0  0  0  0
   60.0960   30.6570   46.2120 C   0  0  0  0  0  0  0  0  0  0  0  0
   59.3920   29.3820   45.9260 N   0  0  0  0  0  0  0  0  0  0  0  0
   60.3100   28.2170   45.8410 C   0  0  0  0  0  0  0  0  0  0  0  0
   60.5250   27.5110   47.1960 C   0  0  0  0  0  0  0  0  0  0  0  0
   60.2040   28.4370   48.2950 N   0  0  0  0  0  0  0  0  0  0  0  0
   60.7330   28.0140   49.6090 C   0  0  0  0  0  0  0  0  0  0  0  0
   60.8840   29.1570   50.6360 C   0  0  0  0  0  0  0  0  0  0  0  0
   61.0830   30.4410   49.9470 N   0  0  0  0  0  0  0  0  0  0  0  0
   60.9010   31.5370   50.8680 C   0  0  0  0  0  0  0  0  0  0  0  0
   59.7310   32.3280   50.9430 C   0  0  0  0  0  0  0  0  0  0  0  0
   58.5310   32.2610   50.0750 C   0  0  0  0  0  0  0  0  0  0  0  0
   57.3780   32.3420   50.5810 O   0  0  0  0  0  0  0  0  0  0  0  0
   58.6430   31.9840   48.6720 N   0  0  0  0  0  0  0  0  0  0  0  0
   58.6810   32.9570   47.6170 C   0  0  0  0  0  0  0  0  0  0  0  0
   59.6220   33.9910   47.6880 C   0  0  0  0  0  0  0  0  0  0  0  0
   59.7070   34.9400   46.6650 C   0  0  0  0  0  0  0  0  0  0  0  0
   58.8700   34.8440   45.5480 C   0  0  0  0  0  0  0  0  0  0  0  0
   57.9400   33.8030   45.4580 C   0  0  0  0  0  0  0  0  0  0  0  0
   57.8540   32.8510   46.4800 C   0  0  0  0  0  0  0  0  0  0  0  0
   59.9100   33.4580   52.1940 S   0  0  0  0  0  0  0  0  0  0  0  0
   61.4260   32.9290   52.6620 C   0  0  0  0  0  0  0  0  0  0  0  0
   62.1770   33.4200   53.6770 N   0  0  0  0  0  0  0  0  0  0  0  0
   63.3950   32.8650   53.9420 C   0  0  0  0  0  0  0  0  0  0  0  0
   63.8650   31.7840   53.1750 C   0  0  0  0  0  0  0  0  0  0  0  0
   63.0780   31.2750   52.1300 C   0  0  0  0  0  0  0  0  0  0  0  0
   61.8390   31.8750   51.8680 C   0  0  0  0  0  0  0  0  0  0  0  0
   58.7750   28.8000   48.2980 C   0  0  0  0  0  0  0  0  0  0  0  0
   58.2790   29.1330   46.8700 C   0  0  0  0  0  0  0  0  0  0  0  0
   61.6496   34.8356   50.4960 H   0  0  0  0  0  0  0  0  0  0  0  0
   62.4040   35.4798   48.9985 H   0  0  0  0  0  0  0  0  0  0  0  0
   61.6629   33.8436   48.9985 H   0  0  0  0  0  0  0  0  0  0  0  0
   64.3738   34.6795   49.7842 H   0  0  0  0  0  0  0  0  0  0  0  0
   63.5453   33.7536   51.0899 H   0  0  0  0  0  0  0  0  0  0  0  0
   64.7551   31.3965   50.6357 H   0  0  0  0  0  0  0  0  0  0  0  0
   65.4170   31.3950   48.9460 H   0  0  0  0  0  0  0  0  0  0  0  0
   66.1688   33.0487   51.2766 H   0  0  0  0  0  0  0  0  0  0  0  0
   67.0831   32.6644   49.7789 H   0  0  0  0  0  0  0  0  0  0  0  0
   65.8787   33.9970   49.7789 H   0  0  0  0  0  0  0  0  0  0  0  0
   63.9570   33.9391   47.5732 H   0  0  0  0  0  0  0  0  0  0  0  0
   64.4903   32.1888   47.3782 H   0  0  0  0  0  0  0  0  0  0  0  0
   61.6814   33.3303   47.3140 H   0  0  0  0  0  0  0  0  0  0  0  0
   62.5517   32.3597   46.0705 H   0  0  0  0  0  0  0  0  0  0  0  0
   62.2225   30.4918   45.8665 H   0  0  0  0  0  0  0  0  0  0  0  0
   61.5650   29.3868   47.1408 H   0  0  0  0  0  0  0  0  0  0  0  0
   59.5396   31.2095   46.9835 H   0  0  0  0  0  0  0  0  0  0  0  0
   60.1513   31.2420   45.2821 H   0  0  0  0  0  0  0  0  0  0  0  0
   59.8875   27.4903   45.1315 H   0  0  0  0  0  0  0  0  0  0  0  0
   61.2887   28.5960   45.5115 H   0  0  0  0  0  0  0  0  0  0  0  0
   59.8694   26.6298   47.2572 H   0  0  0  0  0  0  0  0  0  0  0  0
   61.5757   27.1965   47.2800 H   0  0  0  0  0  0  0  0  0  0  0  0
   60.0484   27.2626   50.0293 H   0  0  0  0  0  0  0  0  0  0  0  0
   61.7441   27.6206   49.4275 H   0  0  0  0  0  0  0  0  0  0  0  0
   59.9746   29.2133   51.2523 H   0  0  0  0  0  0  0  0  0  0  0  0
   61.7585   28.9532   51.2714 H   0  0  0  0  0  0  0  0  0  0  0  0
   62.0450   30.4720   49.5400 H   0  0  0  0  0  0  0  0  0  0  0  0
   60.4260   30.5270   49.1410 H   0  0  0  0  0  0  0  0  0  0  0  0
   60.2980   34.0571   48.5532 H   0  0  0  0  0  0  0  0  0  0  0  0
   60.4329   35.7632   46.7384 H   0  0  0  0  0  0  0  0  0  0  0  0
   58.9433   35.5873   44.7404 H   0  0  0  0  0  0  0  0  0  0  0  0
   57.2762   33.7327   44.5837 H   0  0  0  0  0  0  0  0  0  0  0  0
   57.1399   32.0185   46.3962 H   0  0  0  0  0  0  0  0  0  0  0  0
   64.0124   33.2651   54.7597 H   0  0  0  0  0  0  0  0  0  0  0  0
   64.8468   31.3385   53.3934 H   0  0  0  0  0  0  0  0  0  0  0  0
   63.4268   30.4224   51.5289 H   0  0  0  0  0  0  0  0  0  0  0  0
   58.1911   27.9555   48.6928 H   0  0  0  0  0  0  0  0  0  0  0  0
   58.6434   29.6913   48.9291 H   0  0  0  0  0  0  0  0  0  0  0  0
   57.6833   28.2867   46.4974 H   0  0  0  0  0  0  0  0  0  0  0  0
   57.6804   30.0539   46.9308 H   0  0  0  0  0  0  0  0  0  0  0  0
  1  2  1  0
  2  3  1  0
  3  4  1  0
  4  5  1  0
  3  6  1  0
  6  7  1  0
  7  8  1  0
  8  9  1  0
  9 10  1  0
 10 11  1  0
 11 12  1  0
 12 13  1  0
 13 14  1  0
 14 15  1  0
 15 16  1  0
 16 17  1  0
 17 18  1  0
 18 19  2  0
 19 20  1  0
 20 21  2  0
 20 22  1  0
 22 23  1  0
 23 24  2  0
 24 25  1  0
 25 26  2  0
 26 27  1  0
 27 28  2  0
 19 29  1  0
 29 30  1  0
 30 31  2  0
 31 32  1  0
 32 33  2  0
 33 34  1  0
 34 35  2  0
 14 36  1  0
 36 37  1  0
 37 11  1  0
 35 18  1  0
 28 23  1  0
 35 30  1  0
  1 38  1  0
  1 39  1  0
  1 40  1  0
  2 41  1  0
  2 42  1  0
  4 43  1  0
  4 44  1  0
  5 45  1  0
  5 46  1  0
  5 47  1  0
  6 48  1  0
  6 49  1  0
  7 50  1  0
  7 51  1  0
  9 52  1  0
  9 53  1  0
 10 54  1  0
 10 55  1  0
 12 56  1  0
 12 57  1  0
 13 58  1  0
 13 59  1  0
 15 60  1  0
 15 61  1  0
 16 62  1  0
 16 63  1  0
 17 64  1  0
 17 65  1  0
 24 66  1  0
 25 67  1  0
 26 68  1  0
 27 69  1  0
 28 70  1  0
 32 71  1  0
 33 72  1  0
 34 73  1  0
 36 74  1  0
 36 75  1  0
 37 76  1  0
 37 77  1  0
M  CHG  2  17   1  22  -1
M  END
>  <UniqueID>  (11) 
11

>  <SMILES>  (11) 
CCN(CC)CCOCCN1CCN(CC[NH2+]c2c(C(=O)[N-]c3ccccc3)sc3ncccc23)CC1

>  <Energy>  (11) 
136.14977226681467

>  <Genealogy>  (11) 
CCN(CC)CCOCCN1CCN(CC[NH2+]c2c(C(=O)[N-]c3ccccc3)sc3ncccc23)CC1 (protonated)
CCN(CC)CCOCCN1CCN(CC[NH2+]c2c(C(=O)[N-]c3ccccc3)sc3ncccc23)CC1 (3D coordinates assigned)
CCN(CC)CCOCCN1CCN(CC[NH2+]c2c(C(=O)[N-]c3ccccc3)sc3ncccc23)CC1 (nonaromatic ring conformer: 136.14977226681467 kcal/mol)

>  <smiles>  (11) 
CCN(CC)CCOCCN1CCN(CCNc2c(C(=O)Nc3ccccc3)sc3ncccc23)CC1

>  <score_type>  (11) 
oracle

>  <origin>  (11) 
adg

>  <m_score__min__energy>  (11) 
-7.6600000000000001

>  <m_primary>  (11) 
energy

$$$$
11:0
     RDKit          3D

100102  0  0  0  0  0  0  0  0999 V2000
   64.2910   33.4860   50.2500 C   0  0  0  0  0  0  0  0  0  0  0  0
   64.2020   31.9650   50.2050 C   0  0  0  0  0  0  0  0  0  0  0  0
   63.3090   31.4830   51.2680 N   0  0  0  0  0  0  0  0  0  0  0  0
   63.2410   30.0140   51.2910 C   0  0  0  0  0  0  0  0  0  0  0  0
   62.2520   29.5250   52.3610 C   0  0  0  0  0  0  0  0  0  0  0  0
   61.4710   28.2860   51.9140 C   0  0  0  0  0  0  0  0  0  0  0  0
   61.5860   28.1330   50.5130 O   0  0  0  0  0  0  0  0  0  0  0  0
   60.7610   27.0770   50.0600 C   0  0  0  0  0  0  0  0  0  0  0  0
   60.5330   27.1780   48.6130 C   0  0  0  0  0  0  0  0  0  0  0  0
   60.3390   27.2780   47.4270 C   0  0  0  0  0  0  0  0  0  0  0  0
   60.1250   27.3930   45.9740 C   0  0  0  0  0  0  0  0  0  0  0  0
   59.4910   28.6890   45.6230 N   0  0  2  0  0  0  0  0  0  0  0  0
   58.4900   29.0610   46.6450 C   0  0  0  0  0  0  0  0  0  0  0  0
   58.8380   28.6220   44.2920 C   0  0  0  0  0  0  0  0  0  0  0  0
   57.3070   28.4490   44.4000 C   0  0  0  0  0  0  0  0  0  0  0  0
   56.5430   29.7680   44.2000 C   0  0  0  0  0  0  0  0  0  0  0  0
   56.9540   30.5640   42.9480 C   0  0  0  0  0  0  0  0  0  0  0  0
   57.6280   31.9190   43.2630 C   0  0  0  0  0  0  0  0  0  0  0  0
   58.3530   31.9090   44.6160 C   0  0  0  0  0  0  0  0  0  0  0  0
   57.5160   32.4400   45.6280 O   0  0  0  0  0  0  0  0  0  0  0  0
   57.3080   33.8320   45.4520 C   0  0  0  0  0  0  0  0  0  0  0  0
   58.6060   34.5410   45.0350 C   0  0  0  0  0  0  0  0  0  0  0  0
   59.6130   34.7200   46.1870 C   0  0  0  0  0  0  0  0  0  0  0  0
   60.8760   33.8620   46.0290 C   0  0  0  0  0  0  0  0  0  0  0  0
   61.2010   33.1540   47.2680 N   0  0  0  0  0  0  0  0  0  0  0  0
   61.2660   33.7770   48.5800 C   0  0  0  0  0  0  0  0  0  0  0  0
   61.0090   32.7220   49.6000 N   0  0  0  0  0  0  0  0  0  0  0  0
   59.7270   32.9510   50.3230 C   0  0  2  0  0  0  0  0  0  0  0  0
   59.7600   32.2930   51.6900 C   0  0  0  0  0  0  0  0  0  0  0  0
   60.7910   32.4000   52.4100 O   0  0  0  0  0  0  0  0  0  0  0  0
   58.6350   31.5450   52.1810 N   0  0  0  0  0  0  0  0  0  0  0  0
   57.2970   32.1500   52.2320 C   0  0  0  0  0  0  0  0  0  0  0  0
   56.1870   31.0840   52.0950 C   0  0  0  0  0  0  0  0  0  0  0  0
   56.6860   29.7610   52.0020 O   0  0  0  0  0  0  0  0  0  0  0  0
   57.5690   29.5110   53.0740 C   0  0  0  0  0  0  0  0  0  0  0  0
   58.8830   30.2590   52.8430 C   0  0  0  0  0  0  0  0  0  0  0  0
   58.5200   32.4850   49.4750 C   0  0  0  0  0  0  0  0  0  0  0  0
   58.5850   30.9920   49.1100 C   0  0  0  0  0  0  0  0  0  0  0  0
   59.9970   30.4000   49.2330 C   0  0  0  0  0  0  0  0  0  0  0  0
   61.1090   31.4130   48.8890 C   0  0  1  0  0  0  0  0  0  0  0  0
   61.1140   31.7630   47.4540 C   0  0  0  0  0  0  0  0  0  0  0  0
   61.0950   30.9330   46.5070 O   0  0  0  0  0  0  0  0  0  0  0  0
   64.3106   33.8213   51.2975 H   0  0  0  0  0  0  0  0  0  0  0  0
   65.2099   33.8147   49.7425 H   0  0  0  0  0  0  0  0  0  0  0  0
   63.4167   33.9196   49.7425 H   0  0  0  0  0  0  0  0  0  0  0  0
   63.8070   31.6518   49.2273 H   0  0  0  0  0  0  0  0  0  0  0  0
   65.2052   31.5396   50.3552 H   0  0  0  0  0  0  0  0  0  0  0  0
   62.3480   31.8460   51.0600 H   0  0  0  0  0  0  0  0  0  0  0  0
   62.9117   29.6537   50.3053 H   0  0  0  0  0  0  0  0  0  0  0  0
   64.2398   29.6207   51.5311 H   0  0  0  0  0  0  0  0  0  0  0  0
   62.8135   29.2778   53.2740 H   0  0  0  0  0  0  0  0  0  0  0  0
   61.5259   30.3319   52.5393 H   0  0  0  0  0  0  0  0  0  0  0  0
   61.8794   27.3956   52.4143 H   0  0  0  0  0  0  0  0  0  0  0  0
   60.4111   28.4056   52.1827 H   0  0  0  0  0  0  0  0  0  0  0  0
   61.2496   26.1168   50.2820 H   0  0  0  0  0  0  0  0  0  0  0  0
   59.7912   27.1410   50.5753 H   0  0  0  0  0  0  0  0  0  0  0  0
   61.0957   27.3186   45.4618 H   0  0  0  0  0  0  0  0  0  0  0  0
   59.4542   26.5811   45.6565 H   0  0  0  0  0  0  0  0  0  0  0  0
   60.2200   29.4420   45.6100 H   0  0  0  0  0  0  0  0  0  0  0  0
   58.9138   28.9035   47.6478 H   0  0  0  0  0  0  0  0  0  0  0  0
   58.2185   30.1201   46.5239 H   0  0  0  0  0  0  0  0  0  0  0  0
   57.5927   28.4363   46.5239 H   0  0  0  0  0  0  0  0  0  0  0  0
   59.0515   29.5526   43.7457 H   0  0  0  0  0  0  0  0  0  0  0  0
   59.2399   27.7453   43.7630 H   0  0  0  0  0  0  0  0  0  0  0  0
   56.9791   27.7330   43.6320 H   0  0  0  0  0  0  0  0  0  0  0  0
   57.0852   28.0884   45.4153 H   0  0  0  0  0  0  0  0  0  0  0  0
   55.4709   29.5348   44.1215 H   0  0  0  0  0  0  0  0  0  0  0  0
   56.7848   30.4023   45.0656 H   0  0  0  0  0  0  0  0  0  0  0  0
   57.6590   29.9533   42.3649 H   0  0  0  0  0  0  0  0  0  0  0  0
   56.0308   30.7870   42.3930 H   0  0  0  0  0  0  0  0  0  0  0  0
   58.3587   32.1429   42.4719 H   0  0  0  0  0  0  0  0  0  0  0  0
   56.8391   32.6842   43.3098 H   0  0  0  0  0  0  0  0  0  0  0  0
   58.6234   30.8746   44.8748 H   0  0  0  0  0  0  0  0  0  0  0  0
   59.2588   32.5285   44.5403 H   0  0  0  0  0  0  0  0  0  0  0  0
   56.5489   33.9851   44.6708 H   0  0  0  0  0  0  0  0  0  0  0  0
   56.9717   34.2571   46.4092 H   0  0  0  0  0  0  0  0  0  0  0  0
   59.0865   33.9477   44.2431 H   0  0  0  0  0  0  0  0  0  0  0  0
   58.3260   35.5487   44.6941 H   0  0  0  0  0  0  0  0  0  0  0  0
   59.9124   35.7777   46.2277 H   0  0  0  0  0  0  0  0  0  0  0  0
   59.1120   34.3949   47.1108 H   0  0  0  0  0  0  0  0  0  0  0  0
   60.7101   33.1253   45.2292 H   0  0  0  0  0  0  0  0  0  0  0  0
   61.7164   34.5268   45.7804 H   0  0  0  0  0  0  0  0  0  0  0  0
   62.2630   34.2143   48.7373 H   0  0  0  0  0  0  0  0  0  0  0  0
   60.5179   34.5794   48.6611 H   0  0  0  0  0  0  0  0  0  0  0  0
   59.6027   34.0320   50.4845 H   0  0  0  0  0  0  0  0  0  0  0  0
   57.1764   32.6698   53.1939 H   0  0  0  0  0  0  0  0  0  0  0  0
   57.2046   32.8539   51.3917 H   0  0  0  0  0  0  0  0  0  0  0  0
   55.5312   31.1482   52.9758 H   0  0  0  0  0  0  0  0  0  0  0  0
   55.6482   31.2945   51.1594 H   0  0  0  0  0  0  0  0  0  0  0  0
   57.1116   29.8563   54.0129 H   0  0  0  0  0  0  0  0  0  0  0  0
   57.7700   28.4313   53.1369 H   0  0  0  0  0  0  0  0  0  0  0  0
   59.3716   30.4393   53.8119 H   0  0  0  0  0  0  0  0  0  0  0  0
   59.5311   29.6471   52.1984 H   0  0  0  0  0  0  0  0  0  0  0  0
   57.5982   32.6666   50.0471 H   0  0  0  0  0  0  0  0  0  0  0  0
   58.5375   33.0556   48.5347 H   0  0  0  0  0  0  0  0  0  0  0  0
   57.9138   30.4381   49.7828 H   0  0  0  0  0  0  0  0  0  0  0  0
   58.2824   30.8995   48.0565 H   0  0  0  0  0  0  0  0  0  0  0  0
   60.1439   30.0565   50.2676 H   0  0  0  0  0  0  0  0  0  0  0  0
   60.0707   29.5735   48.5108 H   0  0  0  0  0  0  0  0  0  0  0  0
   62.0192   30.8823   49.2051 H   0  0  0  0  0  0  0  0  0  0  0  0
  1  2  1  0
  2  3  1  0
  3  4  1  0
  4  5  1  0
  5  6  1  0
  6  7  1  0
  7  8  1  0
  8  9  1  0
  9 10  3  0
 10 11  1  0
 11 12  1  0
 12 13  1  0
 12 14  1  0
 14 15  1  0
 15 16  1  0
 16 17  1  0
 17 18  1  0
 18 19  1  0
 19 20  1  0
 20 21  1  0
 21 22  1  0
 22 23  1  0
 23 24  1  0
 24 25  1  0
 25 26  1  0
 26 27  1  0
 27 28  1  0
 28 29  1  0
 29 30  2  0
 29 31  1  0
 31 32  1  0
 32 33  1  0
 33 34  1  0
 34 35  1  0
 35 36  1  0
 28 37  1  0
 37 38  1  0
 38 39  1  0
 39 40  1  0
 40 41  1  0
 41 42  2  0
 41 25  1  0
 40 27  1  0
 36 31  1  0
  1 43  1  0
  1 44  1  0
  1 45  1  0
  2 46  1  0
  2 47  1  0
  3 48  1  0
  4 49  1  0
  4 50  1  0
  5 51  1  0
  5 52  1  0
  6 53  1  0
  6 54  1  0
  8 55  1  0
  8 56  1  0
 11 57  1  0
 11 58  1  0
 12 59  1  6
 13 60  1  0
 13 61  1  0
 13 62  1  0
 14 63  1  0
 14 64  1  0
 15 65  1  0
 15 66  1  0
 16 67  1  0
 16 68  1  0
 17 69  1  0
 17 70  1  0
 18 71  1  0
 18 72  1  0
 19 73  1  0
 19 74  1  0
 21 75  1  0
 21 76  1  0
 22 77  1  0
 22 78  1  0
 23 79  1  0
 23 80  1  0
 24 81  1  0
 24 82  1  0
 26 83  1  0
 26 84  1  0
 28 85  1  1
 32 86  1  0
 32 87  1  0
 33 88  1  0
 33 89  1  0
 35 90  1  0
 35 91  1  0
 36 92  1  0
 36 93  1  0
 37 94  1  0
 37 95  1  0
 38 96  1  0
 38 97  1  0
 39 98  1  0
 39 99  1  0
 40100  1  1
M  CHG  1  12   1
M  END
>  <UniqueID>  (12) 
12

>  <SMILES>  (12) 
CCNCCCOCC#CC[N@H+](C)CCCCCCOCCCCN1CN2C(CCC[C@H]2C(=O)N2CCOCC2)C1=O

>  <Energy>  (12) 
112.52019283930451

>  <Genealogy>  (12) 
CCNCCCOCC#CC[NH+](C)CCCCCCOCCCCN1CN2C(C(=O)N3CCOCC3)CCCC2C1=O (protonated)
CCNCCCOCC#CC[N@H+](C)CCCCCCOCCCCN1CN2C(CCC[C@H]2C(=O)N2CCOCC2)C1=O (chirality)
CCNCCCOCC#CC[N@H+](C)CCCCCCOCCCCN1CN2C(CCC[C@H]2C(=O)N2CCOCC2)C1=O (3D coordinates assigned)
CCNCCCOCC#CC[N@H+](C)CCCCCCOCCCCN1CN2C(CCC[C@H]2C(=O)N2CCOCC2)C1=O (nonaromatic ring conformer: 112.52019283930451 kcal/mol)

>  <smiles>  (12) 
CCNCCCOCC#CCN(C)CCCCCCOCCCCN1CN2C(C(=O)N3CCOCC3)CCCC2C1=O

>  <score_type>  (12) 
oracle

>  <origin>  (12) 
adg

>  <m_score__min__energy>  (12) 
-7.5199999999999996

>  <m_primary>  (12) 
energy

$$$$
12:0
     RDKit          3D

 58 60  0  0  0  0  0  0  0  0999 V2000
   59.9496   32.2432   52.0952 H   0  0  0  0  0  0  0  0  0  0  0  0
   60.3610   32.5080   51.1100 C   0  0  0  0  0  0  0  0  0  0  0  0
   61.4110   31.8850   50.6920 N   0  0  0  0  0  0  0  0  0  0  0  0
   62.0700   30.8200   51.4130 C   0  0  0  0  0  0  0  0  0  0  0  0
   61.9649   30.9898   52.4947 H   0  0  0  0  0  0  0  0  0  0  0  0
   61.6096   29.8572   51.1465 H   0  0  0  0  0  0  0  0  0  0  0  0
   63.1371   30.8024   51.1465 H   0  0  0  0  0  0  0  0  0  0  0  0
   59.6730   33.5840   50.3060 C   0  0  0  0  0  0  0  0  0  0  0  0
   59.5041   34.4608   50.9484 H   0  0  0  0  0  0  0  0  0  0  0  0
   58.7158   33.1877   49.9361 H   0  0  0  0  0  0  0  0  0  0  0  0
   60.4890   33.9820   49.1570 N   0  0  0  0  0  0  0  0  0  0  0  0
   61.4810   34.2460   49.3510 H   0  0  0  0  0  0  0  0  0  0  0  0
   60.0740   33.8740   47.7800 C   0  0  0  0  0  0  0  0  0  0  0  0
   59.6280   35.0220   47.1070 C   0  0  0  0  0  0  0  0  0  0  0  0
   59.8392   36.0160   47.5282 H   0  0  0  0  0  0  0  0  0  0  0  0
   58.9240   34.9170   45.9170 C   0  0  0  0  0  0  0  0  0  0  0  0
   58.5976   35.8268   45.3918 H   0  0  0  0  0  0  0  0  0  0  0  0
   58.6290   33.6680   45.3850 C   0  0  0  0  0  0  0  0  0  0  0  0
   58.0060   33.5983   44.4811 H   0  0  0  0  0  0  0  0  0  0  0  0
   59.1170   32.4840   45.9870 C   0  0  0  0  0  0  0  0  0  0  0  0
   59.9100   32.5980   47.1640 C   0  0  0  0  0  0  0  0  0  0  0  0
   60.5390   31.4250   47.6610 C   0  0  0  0  0  0  0  0  0  0  0  0
   61.8960   31.4770   48.2000 N   0  0  0  0  0  0  0  0  0  0  0  0
   62.1050   30.6900   48.8470 H   0  0  0  0  0  0  0  0  0  0  0  0
   62.0440   32.3270   48.7780 H   0  0  0  0  0  0  0  0  0  0  0  0
   62.9150   31.4580   47.1310 C   0  0  0  0  0  0  0  0  0  0  0  0
   62.4446   31.0820   46.2105 H   0  0  0  0  0  0  0  0  0  0  0  0
   63.7334   30.8116   47.4808 H   0  0  0  0  0  0  0  0  0  0  0  0
   63.5320   32.8410   46.8320 C   0  0  0  0  0  0  0  0  0  0  0  0
   63.0545   33.2501   45.9295 H   0  0  0  0  0  0  0  0  0  0  0  0
   64.6137   32.6958   46.6945 H   0  0  0  0  0  0  0  0  0  0  0  0
   63.3460   33.8400   47.9780 C   0  0  0  0  0  0  0  0  0  0  0  0
   62.3657   34.3294   47.8800 H   0  0  0  0  0  0  0  0  0  0  0  0
   64.1443   34.5955   47.9336 H   0  0  0  0  0  0  0  0  0  0  0  0
   63.4140   33.1390   49.2670 N   0  0  0  0  0  0  0  0  0  0  0  0
   62.6150   33.4830   49.8540 H   0  0  0  0  0  0  0  0  0  0  0  0
   64.6590   33.4520   49.9840 C   0  0  0  0  0  0  0  0  0  0  0  0
   64.4133   33.8319   50.9866 H   0  0  0  0  0  0  0  0  0  0  0  0
   65.2149   34.2121   49.4155 H   0  0  0  0  0  0  0  0  0  0  0  0
   65.5280   32.2040   50.1190 C   0  0  0  0  0  0  0  0  0  0  0  0
   65.6843   31.9795   51.1845 H   0  0  0  0  0  0  0  0  0  0  0  0
   65.0258   31.3534   49.6349 H   0  0  0  0  0  0  0  0  0  0  0  0
   66.5000   32.3799   49.6349 H   0  0  0  0  0  0  0  0  0  0  0  0
   59.9570   30.1810   47.3260 C   0  0  0  0  0  0  0  0  0  0  0  0
   60.2160   29.0150   48.0810 C   0  0  0  0  0  0  0  0  0  0  0  0
   60.8820   29.0700   48.9547 H   0  0  0  0  0  0  0  0  0  0  0  0
   59.6380   27.7970   47.7320 C   0  0  0  0  0  0  0  0  0  0  0  0
   59.8692   26.8927   48.3141 H   0  0  0  0  0  0  0  0  0  0  0  0
   58.7700   27.7220   46.6500 C   0  0  0  0  0  0  0  0  0  0  0  0
   58.3101   26.7595   46.3817 H   0  0  0  0  0  0  0  0  0  0  0  0
   58.4800   28.8630   45.9030 C   0  0  0  0  0  0  0  0  0  0  0  0
   57.7776   28.7944   45.0592 H   0  0  0  0  0  0  0  0  0  0  0  0
   59.0770   30.1100   46.2150 C   0  0  0  0  0  0  0  0  0  0  0  0
   58.8340   31.2390   45.4600 N   0  0  0  0  0  0  0  0  0  0  0  0
   58.2520   31.1120   44.1060 C   0  0  0  0  0  0  0  0  0  0  0  0
   57.1803   30.8781   44.1880 H   0  0  0  0  0  0  0  0  0  0  0  0
   58.3800   32.0592   43.5616 H   0  0  0  0  0  0  0  0  0  0  0  0
   58.7629   30.3042   43.5616 H   0  0  0  0  0  0  0  0  0  0  0  0
  1  2  1  0
  2  3  2  0
  3  4  1  0
  4  5  1  0
  4  6  1  0
  4  7  1  0
  2  8  1  0
  8  9  1  0
  8 10  1  0
  8 11  1  0
 11 12  1  0
 11 13  1  0
 13 14  2  0
 14 15  1  0
 14 16  1  0
 16 17  1  0
 16 18  2  0
 18 19  1  0
 18 20  1  0
 20 21  2  0
 21 22  1  0
 22 23  1  0
 23 24  1  0
 23 25  1  0
 23 26  1  0
 26 27  1  0
 26 28  1  0
 26 29  1  0
 29 30  1  0
 29 31  1  0
 29 32  1  0
 32 33  1  0
 32 34  1  0
 32 35  1  0
 35 36  1  0
 35 37  1  0
 37 38  1  0
 37 39  1  0
 37 40  1  0
 40 41  1  0
 40 42  1  0
 40 43  1  0
 22 44  2  0
 44 45  1  0
 45 46  1  0
 45 47  2  0
 47 48  1  0
 47 49  1  0
 49 50  1  0
 49 51  2  0
 51 52  1  0
 51 53  1  0
 53 54  2  0
 54 55  1  0
 55 56  1  0
 55 57  1  0
 55 58  1  0
 21 13  1  0
 53 44  1  0
 54 20  1  0
M  CHG  2  23   1  54   1
M  END
>  <UniqueID>  (13) 
13

>  <SMILES>  (13) 
CCNCCC[NH2+]c1c2ccccc2[n+](C)c2cccc(NC/C=N\C)c12

>  <Energy>  (13) 
94.33662921809461

>  <Genealogy>  (13) 
CCNCCC[NH2+]c1c2ccccc2[n+](C)c2cccc(NCC=NC)c12 (protonated)
CCNCCC[NH2+]c1c2ccccc2[n+](C)c2cccc(NC/C=N\C)c12 (cis-trans isomerization)
CCNCCC[NH2+]c1c2ccccc2[n+](C)c2cccc(NC/C=N\C)c12 (3D coordinates assigned)
CCNCCC[NH2+]c1c2ccccc2[n+](C)c2cccc(NC/C=N\C)c12 (optimized conformer: 94.33662921809461 kcal/mol)

>  <smiles>  (13) 
CCNCCCNc1c2ccccc2[n+](C)c2cccc(NCC=NC)c12

>  <score_type>  (13) 
oracle

>  <origin>  (13) 
adg

>  <m_score__min__energy>  (13) 
-2.9100000000000001

>  <m_primary>  (13) 
energy

$$$$
13:0
     RDKit          3D

 45 47  0  0  0  0  0  0  0  0999 V2000
   58.9290   32.7290   50.5250 C   0  0  0  0  0  0  0  0  0  0  0  0
   60.1800   33.4440   51.0220 C   0  0  0  0  0  0  0  0  0  0  0  0
   61.2180   33.4160   49.9820 N   0  0  0  0  0  0  0  0  0  0  0  0
   62.4480   34.0820   50.4340 C   0  0  0  0  0  0  0  0  0  0  0  0
   63.6860   33.4500   49.7900 C   0  0  0  0  0  0  0  0  0  0  0  0
   63.3100   32.6280   48.6990 O   0  0  0  0  0  0  0  0  0  0  0  0
   63.7730   33.1520   47.4670 C   0  0  0  0  0  0  0  0  0  0  0  0
   62.6160   33.8150   46.7010 C   0  0  0  0  0  0  0  0  0  0  0  0
   61.3240   33.6530   47.3910 N   0  0  0  0  0  0  0  0  0  0  0  0
   60.2140   33.6950   46.4680 C   0  0  0  0  0  0  0  0  0  0  0  0
   59.7190   34.9240   45.9970 C   0  0  0  0  0  0  0  0  0  0  0  0
   58.6290   34.9600   45.1180 C   0  0  0  0  0  0  0  0  0  0  0  0
   58.0290   33.7660   44.7060 C   0  0  0  0  0  0  0  0  0  0  0  0
   58.5130   32.5760   45.1670 N   0  0  0  0  0  0  0  0  0  0  0  0
   59.5730   32.5260   46.0230 C   0  0  0  0  0  0  0  0  0  0  0  0
   59.9730   30.9320   46.4360 S   0  0  0  0  0  0  0  0  0  0  0  0
   58.7420   30.2950   45.4850 C   0  0  0  0  0  0  0  0  0  0  0  0
   58.4100   28.9560   45.2990 C   0  0  0  0  0  0  0  0  0  0  0  0
   57.3360   28.6490   44.4520 C   0  0  0  0  0  0  0  0  0  0  0  0
   56.6180   29.6770   43.8150 C   0  0  0  0  0  0  0  0  0  0  0  0
   56.9660   31.0240   44.0160 C   0  0  0  0  0  0  0  0  0  0  0  0
   58.0450   31.3270   44.8640 C   0  0  0  0  0  0  0  0  0  0  0  0
   58.3345   32.3892   51.3859 H   0  0  0  0  0  0  0  0  0  0  0  0
   58.3292   33.4207   49.9152 H   0  0  0  0  0  0  0  0  0  0  0  0
   59.2205   31.8611   49.9152 H   0  0  0  0  0  0  0  0  0  0  0  0
   59.9322   34.4885   51.2621 H   0  0  0  0  0  0  0  0  0  0  0  0
   60.5550   32.9348   51.9220 H   0  0  0  0  0  0  0  0  0  0  0  0
   61.4480   32.4120   49.7950 H   0  0  0  0  0  0  0  0  0  0  0  0
   62.4028   35.1458   50.1578 H   0  0  0  0  0  0  0  0  0  0  0  0
   62.5257   33.9689   51.5254 H   0  0  0  0  0  0  0  0  0  0  0  0
   64.3540   34.2465   49.4303 H   0  0  0  0  0  0  0  0  0  0  0  0
   64.2028   32.8332   50.5400 H   0  0  0  0  0  0  0  0  0  0  0  0
   64.5552   33.9004   47.6619 H   0  0  0  0  0  0  0  0  0  0  0  0
   64.1806   32.3307   46.8592 H   0  0  0  0  0  0  0  0  0  0  0  0
   62.8297   34.8891   46.5974 H   0  0  0  0  0  0  0  0  0  0  0  0
   62.5374   33.3250   45.7193 H   0  0  0  0  0  0  0  0  0  0  0  0
   61.2180   34.4220   48.0940 H   0  0  0  0  0  0  0  0  0  0  0  0
   61.3200   32.7540   47.9280 H   0  0  0  0  0  0  0  0  0  0  0  0
   60.1909   35.8633   46.3210 H   0  0  0  0  0  0  0  0  0  0  0  0
   58.2462   35.9245   44.7530 H   0  0  0  0  0  0  0  0  0  0  0  0
   57.1731   33.7857   44.0153 H   0  0  0  0  0  0  0  0  0  0  0  0
   58.9759   28.1592   45.8037 H   0  0  0  0  0  0  0  0  0  0  0  0
   57.0535   27.5991   44.2848 H   0  0  0  0  0  0  0  0  0  0  0  0
   55.7763   29.4246   43.1533 H   0  0  0  0  0  0  0  0  0  0  0  0
   56.4033   31.8273   43.5180 H   0  0  0  0  0  0  0  0  0  0  0  0
  1  2  1  0
  2  3  1  0
  3  4  1  0
  4  5  1  0
  5  6  1  0
  6  7  1  0
  7  8  1  0
  8  9  1  0
  9 10  1  0
 10 11  2  0
 11 12  1  0
 12 13  2  0
 13 14  1  0
 14 15  2  0
 15 16  1  0
 16 17  1  0
 17 18  2  0
 18 19  1  0
 19 20  2  0
 20 21  1  0
 21 22  2  0
 15 10  1  0
 22 17  1  0
 22 14  1  0
  1 23  1  0
  1 24  1  0
  1 25  1  0
  2 26  1  0
  2 27  1  0
  3 28  1  0
  4 29  1  0
  4 30  1  0
  5 31  1  0
  5 32  1  0
  7 33  1  0
  7 34  1  0
  8 35  1  0
  8 36  1  0
  9 37  1  0
  9 38  1  0
 11 39  1  0
 12 40  1  0
 13 41  1  0
 18 42  1  0
 19 43  1  0
 20 44  1  0
 21 45  1  0
M  CHG  2   9   1  14   1
M  END
>  <UniqueID>  (14) 
14

>  <SMILES>  (14) 
CCNCCOCC[NH2+]c1ccc[n+]2c1sc1ccccc12

>  <Energy>  (14) 
84.23710490324808

>  <Genealogy>  (14) 
CCNCCOCC[NH2+]c1ccc[n+]2c1sc1ccccc12 (protonated)
CCNCCOCC[NH2+]c1ccc[n+]2c1sc1ccccc12 (3D coordinates assigned)
CCNCCOCC[NH2+]c1ccc[n+]2c1sc1ccccc12 (optimized conformer: 84.23710490324808 kcal/mol)

>  <smiles>  (14) 
CCNCCOCCNc1ccc[n+]2c1sc1ccccc12

>  <score_type>  (14) 
oracle

>  <origin>  (14) 
adg

>  <m_score__min__energy>  (14) 
-3.7400000000000002

>  <m_primary>  (14) 
energy

$$$$
14:0
     RDKit          3D

 57 59  0  0  0  0  0  0  0  0999 V2000
   58.6050   30.1180   50.0890 C   0  0  0  0  0  0  0  0  0  0  0  0
   58.7240   31.6380   50.0500 C   0  0  0  0  0  0  0  0  0  0  0  0
   59.8720   32.0670   50.7570 O   0  0  0  0  0  0  0  0  0  0  0  0
   59.8250   33.4600   50.9880 C   0  0  0  0  0  0  0  0  0  0  0  0
   60.0830   34.2060   49.6770 C   0  0  0  0  0  0  0  0  0  0  0  0
   61.4050   34.0010   49.2120 O   0  0  0  0  0  0  0  0  0  0  0  0
   62.3700   34.4780   50.1350 C   0  0  0  0  0  0  0  0  0  0  0  0
   63.2010   33.3020   50.6360 C   0  0  0  0  0  0  0  0  0  0  0  0
   62.7950   32.0710   49.9440 N   0  0  0  0  0  0  0  0  0  0  0  0
   63.5260   31.8680   48.6840 C   0  0  0  0  0  0  0  0  0  0  0  0
   62.5900   31.5870   47.4980 C   0  0  0  0  0  0  0  0  0  0  0  0
   61.1930   31.7460   47.8940 N   0  0  0  0  0  0  0  0  0  0  0  0
   60.1450   31.5240   46.9400 C   0  0  0  0  0  0  0  0  0  0  0  0
   59.5580   32.6110   46.2760 C   0  0  0  0  0  0  0  0  0  0  0  0
   60.0190   33.9260   46.5000 C   0  0  0  0  0  0  0  0  0  0  0  0
   59.4650   35.0000   45.8070 C   0  0  0  0  0  0  0  0  0  0  0  0
   58.4590   34.7810   44.8730 C   0  0  0  0  0  0  0  0  0  0  0  0
   57.9800   33.4910   44.6440 C   0  0  0  0  0  0  0  0  0  0  0  0
   58.4930   32.3800   45.3650 C   0  0  0  0  0  0  0  0  0  0  0  0
   57.9950   31.1030   45.1900 N   0  0  0  0  0  0  0  0  0  0  0  0
   56.7170   30.8980   44.4720 C   0  0  0  0  0  0  0  0  0  0  0  0
   58.6770   30.0170   45.7080 C   0  0  0  0  0  0  0  0  0  0  0  0
   58.3570   28.6850   45.3390 C   0  0  0  0  0  0  0  0  0  0  0  0
   59.0230   27.5980   45.9100 C   0  0  0  0  0  0  0  0  0  0  0  0
   58.5990   25.9620   45.4370 Cl  0  0  0  0  0  0  0  0  0  0  0  0
   60.0320   27.8100   46.8440 C   0  0  0  0  0  0  0  0  0  0  0  0
   60.3970   29.1060   47.1950 C   0  0  0  0  0  0  0  0  0  0  0  0
   59.7430   30.2170   46.6250 C   0  0  0  0  0  0  0  0  0  0  0  0
   58.5785   29.7790   51.1351 H   0  0  0  0  0  0  0  0  0  0  0  0
   57.6800   29.8095   49.5800 H   0  0  0  0  0  0  0  0  0  0  0  0
   59.4708   29.6692   49.5800 H   0  0  0  0  0  0  0  0  0  0  0  0
   58.8001   31.9677   49.0033 H   0  0  0  0  0  0  0  0  0  0  0  0
   57.8326   32.0753   50.5234 H   0  0  0  0  0  0  0  0  0  0  0  0
   58.8327   33.7336   51.3759 H   0  0  0  0  0  0  0  0  0  0  0  0
   60.5959   33.7349   51.7229 H   0  0  0  0  0  0  0  0  0  0  0  0
   59.3766   33.8442   48.9154 H   0  0  0  0  0  0  0  0  0  0  0  0
   59.9458   35.2819   49.8606 H   0  0  0  0  0  0  0  0  0  0  0  0
   63.0260   35.2082   49.6385 H   0  0  0  0  0  0  0  0  0  0  0  0
   61.8651   34.9643   50.9827 H   0  0  0  0  0  0  0  0  0  0  0  0
   64.2653   33.4972   50.4384 H   0  0  0  0  0  0  0  0  0  0  0  0
   63.0395   33.1794   51.7172 H   0  0  0  0  0  0  0  0  0  0  0  0
   61.7680   32.1140   49.7440 H   0  0  0  0  0  0  0  0  0  0  0  0
   64.1100   32.7742   48.4653 H   0  0  0  0  0  0  0  0  0  0  0  0
   64.1750   30.9892   48.8125 H   0  0  0  0  0  0  0  0  0  0  0  0
   62.8170   32.2912   46.6841 H   0  0  0  0  0  0  0  0  0  0  0  0
   62.7466   30.5515   47.1614 H   0  0  0  0  0  0  0  0  0  0  0  0
   60.9310   31.8690   48.8990 H   0  0  0  0  0  0  0  0  0  0  0  0
   60.8234   34.1045   47.2287 H   0  0  0  0  0  0  0  0  0  0  0  0
   59.8238   36.0220   45.9990 H   0  0  0  0  0  0  0  0  0  0  0  0
   58.0388   35.6287   44.3120 H   0  0  0  0  0  0  0  0  0  0  0  0
   57.1923   33.3317   43.8929 H   0  0  0  0  0  0  0  0  0  0  0  0
   55.9037   30.7675   45.2010 H   0  0  0  0  0  0  0  0  0  0  0  0
   56.5065   31.7739   43.8407 H   0  0  0  0  0  0  0  0  0  0  0  0
   56.7910   30.0002   43.8407 H   0  0  0  0  0  0  0  0  0  0  0  0
   57.5711   28.5052   44.5906 H   0  0  0  0  0  0  0  0  0  0  0  0
   60.5421   26.9517   47.3057 H   0  0  0  0  0  0  0  0  0  0  0  0
   61.2044   29.2652   47.9249 H   0  0  0  0  0  0  0  0  0  0  0  0
  1  2  1  0
  2  3  1  0
  3  4  1  0
  4  5  1  0
  5  6  1  0
  6  7  1  0
  7  8  1  0
  8  9  1  0
  9 10  1  0
 10 11  1  0
 11 12  1  0
 12 13  1  0
 13 14  2  0
 14 15  1  0
 15 16  2  0
 16 17  1  0
 17 18  2  0
 18 19  1  0
 19 20  2  0
 20 21  1  0
 20 22  1  0
 22 23  2  0
 23 24  1  0
 24 25  1  0
 24 26  2  0
 26 27  1  0
 27 28  2  0
 28 13  1  0
 19 14  1  0
 28 22  1  0
  1 29  1  0
  1 30  1  0
  1 31  1  0
  2 32  1  0
  2 33  1  0
  4 34  1  0
  4 35  1  0
  5 36  1  0
  5 37  1  0
  7 38  1  0
  7 39  1  0
  8 40  1  0
  8 41  1  0
  9 42  1  0
 10 43  1  0
 10 44  1  0
 11 45  1  0
 11 46  1  0
 12 47  1  0
 15 48  1  0
 16 49  1  0
 17 50  1  0
 18 51  1  0
 21 52  1  0
 21 53  1  0
 21 54  1  0
 23 55  1  0
 26 56  1  0
 27 57  1  0
M  CHG  1  20   1
M  END
>  <UniqueID>  (15) 
15

>  <SMILES>  (15) 
CCOCCOCCNCCNc1c2ccccc2[n+](C)c2cc(Cl)ccc12

>  <Energy>  (15) 
80.09394915088856

>  <Genealogy>  (15) 
CCOCCOCCNCCNc1c2ccccc2[n+](C)c2cc(Cl)ccc12 (3D coordinates assigned)
CCOCCOCCNCCNc1c2ccccc2[n+](C)c2cc(Cl)ccc12 (optimized conformer: 80.09394915088856 kcal/mol)

>  <smiles>  (15) 
CCOCCOCCNCCNc1c2ccccc2[n+](C)c2cc(Cl)ccc12

>  <score_type>  (15) 
oracle

>  <origin>  (15) 
adg

>  <m_score__min__energy>  (15) 
-5.5999999999999996

>  <m_primary>  (15) 
energy

$$$$
15:0
     RDKit          3D

 66 68  0  0  0  0  0  0  0  0999 V2000
   58.7890   33.7890   52.0130 C   0  0  0  0  0  0  0  0  0  0  0  0
   59.6190   33.6100   50.7420 C   0  0  0  0  0  0  0  0  0  0  0  0
   59.9160   32.1840   50.4760 N   0  0  0  0  0  0  0  0  0  0  0  0
   60.6720   31.4900   51.5500 C   0  0  0  0  0  0  0  0  0  0  0  0
   61.8630   32.2820   52.1090 C   0  0  0  0  0  0  0  0  0  0  0  0
   58.7140   31.4340   50.0450 C   0  0  0  0  0  0  0  0  0  0  0  0
   59.0900   30.3320   49.0410 C   0  0  0  0  0  0  0  0  0  0  0  0
   60.1190   30.7950   48.0860 N   0  0  0  0  0  0  0  0  0  0  0  0
   59.6050   30.8540   46.7270 C   0  0  0  0  0  0  0  0  0  0  0  0
   59.3070   29.6710   46.0200 C   0  0  0  0  0  0  0  0  0  0  0  0
   60.0010   28.4680   46.2720 C   0  0  0  0  0  0  0  0  0  0  0  0
   59.6900   27.3080   45.5660 C   0  0  0  0  0  0  0  0  0  0  0  0
   58.6970   27.3290   44.5920 C   0  0  0  0  0  0  0  0  0  0  0  0
   58.0030   28.5080   44.3220 C   0  0  0  0  0  0  0  0  0  0  0  0
   58.2870   29.6990   45.0370 C   0  0  0  0  0  0  0  0  0  0  0  0
   57.5940   30.8690   44.8090 N   0  0  0  0  0  0  0  0  0  0  0  0
   56.3000   30.8360   44.0940 C   0  0  0  0  0  0  0  0  0  0  0  0
   58.1400   32.0720   45.2160 C   0  0  0  0  0  0  0  0  0  0  0  0
   57.6620   33.3020   44.7090 C   0  0  0  0  0  0  0  0  0  0  0  0
   58.2690   34.5040   45.0510 C   0  0  0  0  0  0  0  0  0  0  0  0
   59.4090   34.5100   45.8400 C   0  0  0  0  0  0  0  0  0  0  0  0
   59.9330   33.3200   46.3670 C   0  0  0  0  0  0  0  0  0  0  0  0
   61.3500   33.3850   46.9190 C   0  0  0  0  0  0  0  0  0  0  0  0
   61.3760   33.6560   48.3670 N   0  0  0  0  0  0  0  0  0  0  0  0
   62.6500   34.2140   48.8510 C   0  0  0  0  0  0  0  0  0  0  0  0
   63.8290   33.3700   48.3530 C   0  0  0  0  0  0  0  0  0  0  0  0
   63.8370   31.9710   48.9780 C   0  0  0  0  0  0  0  0  0  0  0  0
   62.4890   31.4090   48.9760 N   0  0  0  0  0  0  0  0  0  0  0  0
   59.2330   32.0890   46.1340 C   0  0  0  0  0  0  0  0  0  0  0  0
   59.4329   33.6501   52.8940 H   0  0  0  0  0  0  0  0  0  0  0  0
   58.3578   34.8008   52.0298 H   0  0  0  0  0  0  0  0  0  0  0  0
   57.9791   33.0449   52.0298 H   0  0  0  0  0  0  0  0  0  0  0  0
   59.0587   34.0221   49.8898 H   0  0  0  0  0  0  0  0  0  0  0  0
   60.5739   34.1384   50.8797 H   0  0  0  0  0  0  0  0  0  0  0  0
   59.9787   31.2829   52.3785 H   0  0  0  0  0  0  0  0  0  0  0  0
   61.0892   30.5782   51.0977 H   0  0  0  0  0  0  0  0  0  0  0  0
   61.8330   32.2621   53.2084 H   0  0  0  0  0  0  0  0  0  0  0  0
   62.8019   31.8278   51.7595 H   0  0  0  0  0  0  0  0  0  0  0  0
   61.8072   33.3235   51.7595 H   0  0  0  0  0  0  0  0  0  0  0  0
   58.2409   30.9741   50.9251 H   0  0  0  0  0  0  0  0  0  0  0  0
   58.0179   32.1327   49.5579 H   0  0  0  0  0  0  0  0  0  0  0  0
   59.4797   29.4639   49.5929 H   0  0  0  0  0  0  0  0  0  0  0  0
   58.1882   30.0625   48.4717 H   0  0  0  0  0  0  0  0  0  0  0  0
   60.9660   30.1820   48.1240 H   0  0  0  0  0  0  0  0  0  0  0  0
   60.3730   31.7480   48.4060 H   0  0  0  0  0  0  0  0  0  0  0  0
   60.7949   28.4462   47.0331 H   0  0  0  0  0  0  0  0  0  0  0  0
   60.2305   26.3740   45.7791 H   0  0  0  0  0  0  0  0  0  0  0  0
   58.4584   26.4123   44.0328 H   0  0  0  0  0  0  0  0  0  0  0  0
   57.2251   28.5141   43.5442 H   0  0  0  0  0  0  0  0  0  0  0  0
   55.4779   30.8150   44.8245 H   0  0  0  0  0  0  0  0  0  0  0  0
   56.2069   31.7321   43.4628 H   0  0  0  0  0  0  0  0  0  0  0  0
   56.2527   29.9364   43.4628 H   0  0  0  0  0  0  0  0  0  0  0  0
   56.7948   33.3075   44.0323 H   0  0  0  0  0  0  0  0  0  0  0  0
   57.8438   35.4539   44.6947 H   0  0  0  0  0  0  0  0  0  0  0  0
   59.9114   35.4643   46.0566 H   0  0  0  0  0  0  0  0  0  0  0  0
   61.8471   32.4220   46.7307 H   0  0  0  0  0  0  0  0  0  0  0  0
   61.8697   34.2121   46.4133 H   0  0  0  0  0  0  0  0  0  0  0  0
   61.2130   32.7450   48.8590 H   0  0  0  0  0  0  0  0  0  0  0  0
   62.7590   35.2434   48.4790 H   0  0  0  0  0  0  0  0  0  0  0  0
   62.6467   34.2069   49.9510 H   0  0  0  0  0  0  0  0  0  0  0  0
   63.7579   33.2703   47.2598 H   0  0  0  0  0  0  0  0  0  0  0  0
   64.7592   33.8787   48.6461 H   0  0  0  0  0  0  0  0  0  0  0  0
   64.5039   31.3173   48.3966 H   0  0  0  0  0  0  0  0  0  0  0  0
   64.1934   32.0441   50.0161 H   0  0  0  0  0  0  0  0  0  0  0  0
   61.9210   31.9520   49.6660 H   0  0  0  0  0  0  0  0  0  0  0  0
   62.0610   31.5860   48.0380 H   0  0  0  0  0  0  0  0  0  0  0  0
  1  2  1  0
  2  3  1  0
  3  4  1  0
  4  5  1  0
  3  6  1  0
  6  7  1  0
  7  8  1  0
  8  9  1  0
  9 10  2  0
 10 11  1  0
 11 12  2  0
 12 13  1  0
 13 14  2  0
 14 15  1  0
 15 16  2  0
 16 17  1  0
 16 18  1  0
 18 19  2  0
 19 20  1  0
 20 21  2  0
 21 22  1  0
 22 23  1  0
 23 24  1  0
 24 25  1  0
 25 26  1  0
 26 27  1  0
 27 28  1  0
 22 29  2  0
 29  9  1  0
 15 10  1  0
 29 18  1  0
  1 30  1  0
  1 31  1  0
  1 32  1  0
  2 33  1  0
  2 34  1  0
  4 35  1  0
  4 36  1  0
  5 37  1  0
  5 38  1  0
  5 39  1  0
  6 40  1  0
  6 41  1  0
  7 42  1  0
  7 43  1  0
  8 44  1  0
  8 45  1  0
 11 46  1  0
 12 47  1  0
 13 48  1  0
 14 49  1  0
 17 50  1  0
 17 51  1  0
 17 52  1  0
 19 53  1  0
 20 54  1  0
 21 55  1  0
 23 56  1  0
 23 57  1  0
 24 58  1  0
 25 59  1  0
 25 60  1  0
 26 61  1  0
 26 62  1  0
 27 63  1  0
 27 64  1  0
 28 65  1  0
 28 66  1  0
M  CHG  2   8   1  16   1
M  END
>  <UniqueID>  (16) 
16

>  <SMILES>  (16) 
CCN(CC)CC[NH2+]c1c2ccccc2[n+](C)c2cccc(CNCCCN)c12

>  <Energy>  (16) 
106.40959696820072

>  <Genealogy>  (16) 
CCN(CC)CC[NH2+]c1c2ccccc2[n+](C)c2cccc(CNCCCN)c12 (protonated)
CCN(CC)CC[NH2+]c1c2ccccc2[n+](C)c2cccc(CNCCCN)c12 (3D coordinates assigned)
CCN(CC)CC[NH2+]c1c2ccccc2[n+](C)c2cccc(CNCCCN)c12 (optimized conformer: 106.40959696820072 kcal/mol)

>  <smiles>  (16) 
CCN(CC)CCNc1c2ccccc2[n+](C)c2cccc(CNCCCN)c12

>  <score_type>  (16) 
oracle

>  <origin>  (16) 
adg

>  <m_score__min__energy>  (16) 
-4.6299999999999999

>  <m_primary>  (16) 
energy

$$$$
16:0
     RDKit          3D

 31 31  0  0  0  0  0  0  0  0999 V2000
   56.6840   28.5360   45.2380 C   0  0  0  0  0  0  0  0  0  0  0  0
   55.6260   29.3740   44.8280 O   0  0  0  0  0  0  0  0  0  0  0  0
   55.9780   30.0600   43.6410 C   0  0  0  0  0  0  0  0  0  0  0  0
   56.9680   31.1480   43.9370 C   0  0  0  0  0  0  0  0  0  0  0  0
   57.3370   31.5220   45.1710 N   0  0  0  0  0  0  0  0  0  0  0  0
   58.1750   32.5680   44.9920 C   0  0  0  0  0  0  0  0  0  0  0  0
   58.8230   33.3280   46.1350 C   0  0  0  0  0  0  0  0  0  0  0  0
   57.8190   33.4600   47.2950 C   0  0  0  0  0  0  0  0  0  0  0  0
   60.0780   32.5860   46.6430 C   0  0  0  0  0  0  0  0  0  0  0  0
   59.2340   34.7280   45.6430 C   0  0  0  0  0  0  0  0  0  0  0  0
   58.3420   32.8820   43.6840 N   0  0  0  0  0  0  0  0  0  0  0  0
   57.5840   31.9830   43.0280 C   0  0  0  0  0  0  0  0  0  0  0  0
   57.4150   31.9630   41.5440 C   0  0  0  0  0  0  0  0  0  0  0  0
   56.7227   28.5053   46.3369 H   0  0  0  0  0  0  0  0  0  0  0  0
   56.5195   27.5205   44.8484 H   0  0  0  0  0  0  0  0  0  0  0  0
   57.6348   28.9286   44.8484 H   0  0  0  0  0  0  0  0  0  0  0  0
   56.4237   29.3485   42.9303 H   0  0  0  0  0  0  0  0  0  0  0  0
   55.0725   30.5108   43.2086 H   0  0  0  0  0  0  0  0  0  0  0  0
   57.0240   31.1020   46.0750 H   0  0  0  0  0  0  0  0  0  0  0  0
   58.3545   33.3896   48.2532 H   0  0  0  0  0  0  0  0  0  0  0  0
   57.3097   34.4328   47.2302 H   0  0  0  0  0  0  0  0  0  0  0  0
   57.0755   32.6519   47.2302 H   0  0  0  0  0  0  0  0  0  0  0  0
   60.0823   32.5835   47.7430 H   0  0  0  0  0  0  0  0  0  0  0  0
   60.0658   31.5498   46.2740 H   0  0  0  0  0  0  0  0  0  0  0  0
   60.9800   33.0961   46.2740 H   0  0  0  0  0  0  0  0  0  0  0  0
   59.4252   35.3793   46.5086 H   0  0  0  0  0  0  0  0  0  0  0  0
   60.1470   34.6494   45.0345 H   0  0  0  0  0  0  0  0  0  0  0  0
   58.4234   35.1554   45.0345 H   0  0  0  0  0  0  0  0  0  0  0  0
   56.3503   31.8370   41.2979 H   0  0  0  0  0  0  0  0  0  0  0  0
   57.7796   32.9106   41.1206 H   0  0  0  0  0  0  0  0  0  0  0  0
   57.9907   31.1267   41.1206 H   0  0  0  0  0  0  0  0  0  0  0  0
  1  2  1  0
  2  3  1  0
  3  4  1  0
  4  5  1  0
  5  6  1  0
  6  7  1  0
  7  8  1  0
  7  9  1  0
  7 10  1  0
  6 11  2  0
 11 12  1  0
 12 13  1  0
 12  4  2  0
  1 14  1  0
  1 15  1  0
  1 16  1  0
  3 17  1  0
  3 18  1  0
  5 19  1  0
  8 20  1  0
  8 21  1  0
  8 22  1  0
  9 23  1  0
  9 24  1  0
  9 25  1  0
 10 26  1  0
 10 27  1  0
 10 28  1  0
 13 29  1  0
 13 30  1  0
 13 31  1  0
M  END
>  <UniqueID>  (17) 
17

>  <SMILES>  (17) 
COCc1[nH]c(C(C)(C)C)nc1C

>  <Energy>  (17) 
52.076255911786575

>  <Genealogy>  (17) 
COCc1[nH]c(C(C)(C)C)nc1C (3D coordinates assigned)
COCc1[nH]c(C(C)(C)C)nc1C (optimized conformer: 52.076255911786575 kcal/mol)

>  <smiles>  (17) 
COCc1[nH]c(C(C)(C)C)nc1C

>  <score_type>  (17) 
oracle

>  <origin>  (17) 
adg

>  <m_score__min__energy>  (17) 
-5.6200000000000001

>  <m_primary>  (17) 
energy

$$$$
17:0
     RDKit          3D

 73 75  0  0  0  0  0  0  0  0999 V2000
   65.0720   33.0480   49.7510 C   0  0  0  0  0  0  0  0  0  0  0  0
   64.0800   31.9060   49.5460 C   0  0  0  0  0  0  0  0  0  0  0  0
   62.8820   32.3890   48.8200 N   0  0  0  0  0  0  0  0  0  0  0  0
   63.1390   33.6970   48.1760 C   0  0  0  0  0  0  0  0  0  0  0  0
   63.3750   33.5130   46.6790 C   0  0  0  0  0  0  0  0  0  0  0  0
   61.7070   32.4580   49.7200 C   0  0  0  0  0  0  0  0  0  0  0  0
   60.5050   31.7630   49.0740 C   0  0  0  0  0  0  0  0  0  0  0  0
   60.8200   31.3520   47.7060 N   0  0  0  0  0  0  0  0  0  0  0  0
   59.8160   31.3530   46.6780 C   0  0  0  0  0  0  0  0  0  0  0  0
   59.4320   32.5560   46.0630 C   0  0  0  0  0  0  0  0  0  0  0  0
   59.9170   33.7930   46.5330 C   0  0  0  0  0  0  0  0  0  0  0  0
   59.4950   34.9880   45.9550 C   0  0  0  0  0  0  0  0  0  0  0  0
   58.5720   34.9690   44.9150 C   0  0  0  0  0  0  0  0  0  0  0  0
   58.0840   33.7560   44.4300 C   0  0  0  0  0  0  0  0  0  0  0  0
   58.5250   32.5220   44.9710 C   0  0  0  0  0  0  0  0  0  0  0  0
   58.0860   31.3080   44.4740 N   0  0  0  0  0  0  0  0  0  0  0  0
   57.4100   31.2490   43.1590 C   0  0  0  0  0  0  0  0  0  0  0  0
   58.3050   30.1470   45.1940 C   0  0  0  0  0  0  0  0  0  0  0  0
   57.6600   28.9310   44.8620 C   0  0  0  0  0  0  0  0  0  0  0  0
   57.9350   27.7380   45.5520 C   0  0  0  0  0  0  0  0  0  0  0  0
   57.3010   26.5050   45.1370 N   0  0  0  0  0  0  0  0  0  0  0  0
   57.7690   26.0730   43.8080 C   0  0  0  0  0  0  0  0  0  0  0  0
   57.1990   24.7020   43.4050 C   0  0  0  0  0  0  0  0  0  0  0  0
   56.8780   23.8520   44.6430 C   0  0  0  0  0  0  0  0  0  0  0  0
   55.8160   24.4840   45.4580 N   0  0  0  0  0  0  0  0  0  0  0  0
   55.9530   24.1260   46.8820 C   0  0  0  0  0  0  0  0  0  0  0  0
   54.4900   24.0660   44.9750 C   0  0  0  0  0  0  0  0  0  0  0  0
   58.8430   27.7490   46.6240 C   0  0  0  0  0  0  0  0  0  0  0  0
   59.1090   26.5460   47.2990 O   0  0  0  0  0  0  0  0  0  0  0  0
   60.0280   26.4060   48.3780 C   0  0  0  0  0  0  0  0  0  0  0  0
   59.4510   28.9570   46.9970 C   0  0  0  0  0  0  0  0  0  0  0  0
   59.1920   30.1520   46.2980 C   0  0  0  0  0  0  0  0  0  0  0  0
   65.2189   33.2172   50.8279 H   0  0  0  0  0  0  0  0  0  0  0  0
   66.0340   32.7859   49.2864 H   0  0  0  0  0  0  0  0  0  0  0  0
   64.6779   33.9639   49.2864 H   0  0  0  0  0  0  0  0  0  0  0  0
   64.5612   31.1080   48.9615 H   0  0  0  0  0  0  0  0  0  0  0  0
   63.7712   31.5198   50.5286 H   0  0  0  0  0  0  0  0  0  0  0  0
   62.2697   34.3536   48.3283 H   0  0  0  0  0  0  0  0  0  0  0  0
   64.0353   34.1480   48.6269 H   0  0  0  0  0  0  0  0  0  0  0  0
   64.2337   32.8435   46.5227 H   0  0  0  0  0  0  0  0  0  0  0  0
   62.4784   33.0731   46.2178 H   0  0  0  0  0  0  0  0  0  0  0  0
   63.5829   34.4898   46.2178 H   0  0  0  0  0  0  0  0  0  0  0  0
   61.9475   31.9593   50.6705 H   0  0  0  0  0  0  0  0  0  0  0  0
   61.4561   33.5133   49.9027 H   0  0  0  0  0  0  0  0  0  0  0  0
   60.2402   30.8746   49.6662 H   0  0  0  0  0  0  0  0  0  0  0  0
   59.6612   32.4682   49.0463 H   0  0  0  0  0  0  0  0  0  0  0  0
   61.7670   30.9740   47.4870 H   0  0  0  0  0  0  0  0  0  0  0  0
   60.6363   33.8150   47.3650 H   0  0  0  0  0  0  0  0  0  0  0  0
   59.8917   35.9464   46.3211 H   0  0  0  0  0  0  0  0  0  0  0  0
   58.2254   35.9148   44.4730 H   0  0  0  0  0  0  0  0  0  0  0  0
   57.3453   33.7567   43.6149 H   0  0  0  0  0  0  0  0  0  0  0  0
   56.3244   31.1542   43.3087 H   0  0  0  0  0  0  0  0  0  0  0  0
   57.6235   32.1692   42.5954 H   0  0  0  0  0  0  0  0  0  0  0  0
   57.7797   30.3797   42.5954 H   0  0  0  0  0  0  0  0  0  0  0  0
   56.9252   28.9198   44.0435 H   0  0  0  0  0  0  0  0  0  0  0  0
   56.2590   26.6040   45.1290 H   0  0  0  0  0  0  0  0  0  0  0  0
   57.5220   25.7530   45.8320 H   0  0  0  0  0  0  0  0  0  0  0  0
   57.4557   26.8191   43.0629 H   0  0  0  0  0  0  0  0  0  0  0  0
   58.8645   25.9826   43.8502 H   0  0  0  0  0  0  0  0  0  0  0  0
   56.2774   24.8527   42.8237 H   0  0  0  0  0  0  0  0  0  0  0  0
   57.9529   24.1730   42.8035 H   0  0  0  0  0  0  0  0  0  0  0  0
   56.5387   22.8572   44.3185 H   0  0  0  0  0  0  0  0  0  0  0  0
   57.7874   23.7673   45.2561 H   0  0  0  0  0  0  0  0  0  0  0  0
   55.6291   24.9723   47.5056 H   0  0  0  0  0  0  0  0  0  0  0  0
   55.3272   23.2483   47.1013 H   0  0  0  0  0  0  0  0  0  0  0  0
   57.0048   23.8903   47.1013 H   0  0  0  0  0  0  0  0  0  0  0  0
   53.8351   23.8595   45.8343 H   0  0  0  0  0  0  0  0  0  0  0  0
   54.0519   24.8696   44.3648 H   0  0  0  0  0  0  0  0  0  0  0  0
   54.5920   23.1564   44.3648 H   0  0  0  0  0  0  0  0  0  0  0  0
   59.4878   26.4883   49.3327 H   0  0  0  0  0  0  0  0  0  0  0  0
   60.5177   25.4229   48.3173 H   0  0  0  0  0  0  0  0  0  0  0  0
   60.7882   27.1987   48.3173 H   0  0  0  0  0  0  0  0  0  0  0  0
   60.1433   28.9712   47.8517 H   0  0  0  0  0  0  0  0  0  0  0  0
  1  2  1  0
  2  3  1  0
  3  4  1  0
  4  5  1  0
  3  6  1  0
  6  7  1  0
  7  8  1  0
  8  9  1  0
  9 10  2  0
 10 11  1  0
 11 12  2  0
 12 13  1  0
 13 14  2  0
 14 15  1  0
 15 16  2  0
 16 17  1  0
 16 18  1  0
 18 19  2  0
 19 20  1  0
 20 21  1  0
 21 22  1  0
 22 23  1  0
 23 24  1  0
 24 25  1  0
 25 26  1  0
 25 27  1  0
 20 28  2  0
 28 29  1  0
 29 30  1  0
 28 31  1  0
 31 32  2  0
 32  9  1  0
 15 10  1  0
 32 18  1  0
  1 33  1  0
  1 34  1  0
  1 35  1  0
  2 36  1  0
  2 37  1  0
  4 38  1  0
  4 39  1  0
  5 40  1  0
  5 41  1  0
  5 42  1  0
  6 43  1  0
  6 44  1  0
  7 45  1  0
  7 46  1  0
  8 47  1  0
 11 48  1  0
 12 49  1  0
 13 50  1  0
 14 51  1  0
 17 52  1  0
 17 53  1  0
 17 54  1  0
 19 55  1  0
 21 56  1  0
 21 57  1  0
 22 58  1  0
 22 59  1  0
 23 60  1  0
 23 61  1  0
 24 62  1  0
 24 63  1  0
 26 64  1  0
 26 65  1  0
 26 66  1  0
 27 67  1  0
 27 68  1  0
 27 69  1  0
 30 70  1  0
 30 71  1  0
 30 72  1  0
 31 73  1  0
M  CHG  2  16   1  21   1
M  END
>  <UniqueID>  (18) 
18

>  <SMILES>  (18) 
CCN(CC)CCNc1c2ccccc2[n+](C)c2cc([NH2+]CCCN(C)C)c(OC)cc12

>  <Energy>  (18) 
93.78609347286555

>  <Genealogy>  (18) 
CCN(CC)CCNc1c2ccccc2[n+](C)c2cc([NH2+]CCCN(C)C)c(OC)cc12 (protonated)
CCN(CC)CCNc1c2ccccc2[n+](C)c2cc([NH2+]CCCN(C)C)c(OC)cc12 (3D coordinates assigned)
CCN(CC)CCNc1c2ccccc2[n+](C)c2cc([NH2+]CCCN(C)C)c(OC)cc12 (optimized conformer: 93.78609347286555 kcal/mol)

>  <smiles>  (18) 
CCN(CC)CCNc1c2ccccc2[n+](C)c2cc(NCCCN(C)C)c(OC)cc12

>  <score_type>  (18) 
oracle

>  <origin>  (18) 
adg

>  <m_score__min__energy>  (18) 
-3.9300000000000002

>  <m_primary>  (18) 
energy

$$$$
18:0
     RDKit          3D

 38 40  0  0  0  0  0  0  0  0999 V2000
   57.1290   32.2760   40.8910 C   0  0  0  0  0  0  0  0  0  0  0  0
   57.2770   31.5970   42.2480 C   0  0  0  0  0  0  0  0  0  0  0  0
   56.6170   30.2840   42.2330 N   0  0  0  0  0  0  0  0  0  0  0  0
   55.8740   30.0010   43.4750 C   0  0  0  0  0  0  0  0  0  0  0  0
   56.7830   29.5390   44.6270 C   0  0  0  0  0  0  0  0  0  0  0  0
   58.1830   29.8590   44.3490 N   0  0  0  0  0  0  0  0  0  0  0  0
   59.0480   30.5090   45.2990 C   0  0  0  0  0  0  0  0  0  0  0  0
   60.1270   29.7960   45.8960 C   0  0  0  0  0  0  0  0  0  0  0  0
   61.0090   30.4290   46.7950 C   0  0  0  0  0  0  0  0  0  0  0  0
   60.8100   31.7770   47.0870 C   0  0  0  0  0  0  0  0  0  0  0  0
   59.7820   32.4540   46.5130 C   0  0  0  0  0  0  0  0  0  0  0  0
   59.7330   33.7510   46.9170 C   0  0  0  0  0  0  0  0  0  0  0  0
   58.7290   34.5950   46.4410 C   0  0  0  0  0  0  0  0  0  0  0  0
   57.7780   34.0680   45.5430 C   0  0  0  0  0  0  0  0  0  0  0  0
   57.8450   32.7150   45.1340 C   0  0  0  0  0  0  0  0  0  0  0  0
   58.8760   31.8810   45.6210 C   0  0  0  0  0  0  0  0  0  0  0  0
   60.8440   34.0400   47.8770 C   0  0  0  0  0  0  0  0  0  0  0  0
   61.5870   32.6780   47.9950 C   0  0  0  0  0  0  0  0  0  0  0  0
   56.8968   33.3412   41.0374 H   0  0  0  0  0  0  0  0  0  0  0  0
   58.0692   32.1796   40.3283 H   0  0  0  0  0  0  0  0  0  0  0  0
   56.3142   31.7971   40.3283 H   0  0  0  0  0  0  0  0  0  0  0  0
   58.3455   31.4641   42.4732 H   0  0  0  0  0  0  0  0  0  0  0  0
   56.8065   32.2265   43.0176 H   0  0  0  0  0  0  0  0  0  0  0  0
   55.9740   30.2250   41.4100 H   0  0  0  0  0  0  0  0  0  0  0  0
   55.3508   30.9169   43.7870 H   0  0  0  0  0  0  0  0  0  0  0  0
   55.1731   29.1810   43.2597 H   0  0  0  0  0  0  0  0  0  0  0  0
   56.4752   30.0454   45.5537 H   0  0  0  0  0  0  0  0  0  0  0  0
   56.6868   28.4485   44.7343 H   0  0  0  0  0  0  0  0  0  0  0  0
   58.5250   29.6970   43.3760 H   0  0  0  0  0  0  0  0  0  0  0  0
   60.2744   28.7337   45.6514 H   0  0  0  0  0  0  0  0  0  0  0  0
   61.8369   29.8707   47.2564 H   0  0  0  0  0  0  0  0  0  0  0  0
   58.6805   35.6470   46.7588 H   0  0  0  0  0  0  0  0  0  0  0  0
   56.9765   34.7148   45.1568 H   0  0  0  0  0  0  0  0  0  0  0  0
   57.0947   32.3129   44.4373 H   0  0  0  0  0  0  0  0  0  0  0  0
   61.5122   34.8193   47.4817 H   0  0  0  0  0  0  0  0  0  0  0  0
   60.4851   34.4172   48.8460 H   0  0  0  0  0  0  0  0  0  0  0  0
   62.6307   32.7690   47.6598 H   0  0  0  0  0  0  0  0  0  0  0  0
   61.6371   32.3052   49.0287 H   0  0  0  0  0  0  0  0  0  0  0  0
  1  2  1  0
  2  3  1  0
  3  4  1  0
  4  5  1  0
  5  6  1  0
  6  7  1  0
  7  8  2  0
  8  9  1  0
  9 10  2  0
 10 11  1  0
 11 12  2  0
 12 13  1  0
 13 14  2  0
 14 15  1  0
 15 16  2  0
 12 17  1  0
 17 18  1  0
 16  7  1  0
 18 10  1  0
 16 11  1  0
  1 19  1  0
  1 20  1  0
  1 21  1  0
  2 22  1  0
  2 23  1  0
  3 24  1  0
  4 25  1  0
  4 26  1  0
  5 27  1  0
  5 28  1  0
  6 29  1  0
  8 30  1  0
  9 31  1  0
 13 32  1  0
 14 33  1  0
 15 34  1  0
 17 35  1  0
 17 36  1  0
 18 37  1  0
 18 38  1  0
M  END
>  <UniqueID>  (19) 
19

>  <SMILES>  (19) 
CCNCCNc1ccc2c3c(cccc13)CC2

>  <Energy>  (19) 
60.297117702301264

>  <Genealogy>  (19) 
CCNCCNc1ccc2c3c(cccc13)CC2 (3D coordinates assigned)
CCNCCNc1ccc2c3c(cccc13)CC2 (nonaromatic ring conformer: 60.297117702301264 kcal/mol)

>  <smiles>  (19) 
CCNCCNc1ccc2c3c(cccc13)CC2

>  <score_type>  (19) 
oracle

>  <origin>  (19) 
adg

>  <m_score__min__energy>  (19) 
-7.1399999999999997

>  <m_primary>  (19) 
energy

$$$$
19:0
     RDKit          3D

 56 59  0  0  0  0  0  0  0  0999 V2000
   56.6310   22.4640   43.0420 C   0  0  0  0  0  0  0  0  0  0  0  0
   56.4640   23.9470   43.3560 C   0  0  0  0  0  0  0  0  0  0  0  0
   57.5170   24.4080   44.2020 O   0  0  0  0  0  0  0  0  0  0  0  0
   57.7450   25.7440   44.5700 C   0  0  0  0  0  0  0  0  0  0  0  0
   58.1200   26.7370   43.6450 C   0  0  0  0  0  0  0  0  0  0  0  0
   58.3360   28.0520   44.0690 C   0  0  0  0  0  0  0  0  0  0  0  0
   58.1840   28.4010   45.4230 C   0  0  0  0  0  0  0  0  0  0  0  0
   58.4140   29.7980   45.8730 C   0  0  0  0  0  0  0  0  0  0  0  0
   58.7480   30.0680   47.2110 C   0  0  0  0  0  0  0  0  0  0  0  0
   58.9720   31.3870   47.6530 C   0  0  0  0  0  0  0  0  0  0  0  0
   59.3070   31.6700   48.9890 O   0  0  0  0  0  0  0  0  0  0  0  0
   60.0560   30.8060   49.8410 C   0  0  0  0  0  0  0  0  0  0  0  0
   61.5560   30.9800   49.5340 C   0  0  0  0  0  0  0  0  0  0  0  0
   61.9040   32.2210   48.7940 N   0  0  0  0  0  0  0  0  0  0  0  0
   62.8240   33.1200   49.5470 C   0  0  0  0  0  0  0  0  0  0  0  0
   64.1970   33.2470   48.8620 C   0  0  0  0  0  0  0  0  0  0  0  0
   64.1030   33.7380   47.5340 O   0  0  0  0  0  0  0  0  0  0  0  0
   62.9970   33.2140   46.8030 C   0  0  0  0  0  0  0  0  0  0  0  0
   62.3640   31.9490   47.4120 C   0  0  0  0  0  0  0  0  0  0  0  0
   58.8560   32.4500   46.7350 C   0  0  0  0  0  0  0  0  0  0  0  0
   59.0750   33.7820   47.1360 C   0  0  0  0  0  0  0  0  0  0  0  0
   58.9600   34.8260   46.2140 C   0  0  0  0  0  0  0  0  0  0  0  0
   58.6290   34.5570   44.8850 C   0  0  0  0  0  0  0  0  0  0  0  0
   58.4090   33.2410   44.4690 C   0  0  0  0  0  0  0  0  0  0  0  0
   58.5200   32.1830   45.3850 C   0  0  0  0  0  0  0  0  0  0  0  0
   58.3020   30.8640   44.9660 C   0  0  0  0  0  0  0  0  0  0  0  0
   57.8130   27.4060   46.3430 C   0  0  0  0  0  0  0  0  0  0  0  0
   57.5980   26.0920   45.9180 C   0  0  0  0  0  0  0  0  0  0  0  0
   56.6950   21.8953   43.9814 H   0  0  0  0  0  0  0  0  0  0  0  0
   55.7667   22.1130   42.4591 H   0  0  0  0  0  0  0  0  0  0  0  0
   57.5517   22.3140   42.4591 H   0  0  0  0  0  0  0  0  0  0  0  0
   56.4800   24.5186   42.4163 H   0  0  0  0  0  0  0  0  0  0  0  0
   55.5054   24.0914   43.8759 H   0  0  0  0  0  0  0  0  0  0  0  0
   58.2437   26.4771   42.5833 H   0  0  0  0  0  0  0  0  0  0  0  0
   58.6273   28.8200   43.3373 H   0  0  0  0  0  0  0  0  0  0  0  0
   58.8360   29.2359   47.9251 H   0  0  0  0  0  0  0  0  0  0  0  0
   59.8618   31.0649   50.8923 H   0  0  0  0  0  0  0  0  0  0  0  0
   59.7586   29.7614   49.6669 H   0  0  0  0  0  0  0  0  0  0  0  0
   62.1015   30.9875   50.4892 H   0  0  0  0  0  0  0  0  0  0  0  0
   61.8358   30.1418   48.8789 H   0  0  0  0  0  0  0  0  0  0  0  0
   60.9990   32.7420   48.6970 H   0  0  0  0  0  0  0  0  0  0  0  0
   62.3676   34.1185   49.6150 H   0  0  0  0  0  0  0  0  0  0  0  0
   62.9817   32.6851   50.5450 H   0  0  0  0  0  0  0  0  0  0  0  0
   64.8207   33.9372   49.4491 H   0  0  0  0  0  0  0  0  0  0  0  0
   64.6386   32.2407   48.8137 H   0  0  0  0  0  0  0  0  0  0  0  0
   62.2221   33.9929   46.7490 H   0  0  0  0  0  0  0  0  0  0  0  0
   63.3869   32.9221   45.8167 H   0  0  0  0  0  0  0  0  0  0  0  0
   61.5054   31.6405   46.7975 H   0  0  0  0  0  0  0  0  0  0  0  0
   63.1166   31.1471   47.4357 H   0  0  0  0  0  0  0  0  0  0  0  0
   59.3382   34.0021   48.1811 H   0  0  0  0  0  0  0  0  0  0  0  0
   59.1310   35.8635   46.5369 H   0  0  0  0  0  0  0  0  0  0  0  0
   58.5411   35.3826   44.1634 H   0  0  0  0  0  0  0  0  0  0  0  0
   58.1481   33.0336   43.4207 H   0  0  0  0  0  0  0  0  0  0  0  0
   58.0407   30.6616   43.9168 H   0  0  0  0  0  0  0  0  0  0  0  0
   57.6909   27.6630   47.4055 H   0  0  0  0  0  0  0  0  0  0  0  0
   57.3103   25.3233   46.6503 H   0  0  0  0  0  0  0  0  0  0  0  0
  1  2  1  0
  2  3  1  0
  3  4  1  0
  4  5  2  0
  5  6  1  0
  6  7  2  0
  7  8  1  0
  8  9  2  0
  9 10  1  0
 10 11  1  0
 11 12  1  0
 12 13  1  0
 13 14  1  0
 14 15  1  0
 15 16  1  0
 16 17  1  0
 17 18  1  0
 18 19  1  0
 10 20  2  0
 20 21  1  0
 21 22  2  0
 22 23  1  0
 23 24  2  0
 24 25  1  0
 25 26  2  0
  7 27  1  0
 27 28  2  0
 28  4  1  0
 26  8  1  0
 19 14  1  0
 25 20  1  0
  1 29  1  0
  1 30  1  0
  1 31  1  0
  2 32  1  0
  2 33  1  0
  5 34  1  0
  6 35  1  0
  9 36  1  0
 12 37  1  0
 12 38  1  0
 13 39  1  0
 13 40  1  0
 14 41  1  0
 15 42  1  0
 15 43  1  0
 16 44  1  0
 16 45  1  0
 18 46  1  0
 18 47  1  0
 19 48  1  0
 19 49  1  0
 21 50  1  0
 22 51  1  0
 23 52  1  0
 24 53  1  0
 26 54  1  0
 27 55  1  0
 28 56  1  0
M  CHG  1  14   1
M  END
>  <UniqueID>  (20) 
20

>  <SMILES>  (20) 
CCOc1ccc(-c2cc(OCC[NH+]3CCOCC3)c3ccccc3c2)cc1

>  <Energy>  (20) 
82.03130361506008

>  <Genealogy>  (20) 
CCOc1ccc(-c2cc(OCC[NH+]3CCOCC3)c3ccccc3c2)cc1 (protonated)
CCOc1ccc(-c2cc(OCC[NH+]3CCOCC3)c3ccccc3c2)cc1 (3D coordinates assigned)
CCOc1ccc(-c2cc(OCC[NH+]3CCOCC3)c3ccccc3c2)cc1 (nonaromatic ring conformer: 82.03130361506008 kcal/mol)

>  <smiles>  (20) 
CCOc1ccc(-c2cc(OCCN3CCOCC3)c3ccccc3c2)cc1

>  <score_type>  (20) 
oracle

>  <origin>  (20) 
adg

>  <m_score__min__energy>  (20) 
-6.1399999999999997

>  <m_primary>  (20) 
energy

$$$$
20:0
     RDKit          3D

 85 90  0  0  0  0  0  0  0  0999 V2000
   64.9731   33.8454   48.6250 H   0  0  0  0  0  0  0  0  0  0  0  0
   64.7140   33.3590   49.5770 C   0  0  0  0  0  0  0  0  0  0  0  0
   63.5280   33.4740   50.0630 N   0  0  0  0  0  0  0  0  0  0  0  0
   62.6450   34.5670   49.7360 C   0  0  0  0  0  0  0  0  0  0  0  0
   62.0607   34.8500   50.6240 H   0  0  0  0  0  0  0  0  0  0  0  0
   63.2303   35.4369   49.4032 H   0  0  0  0  0  0  0  0  0  0  0  0
   61.7040   34.1150   48.6240 C   0  0  0  0  0  0  0  0  0  0  0  0
   62.0735   34.4888   47.6577 H   0  0  0  0  0  0  0  0  0  0  0  0
   61.6648   33.0159   48.6039 H   0  0  0  0  0  0  0  0  0  0  0  0
   60.4070   34.6260   48.8610 O   0  0  0  0  0  0  0  0  0  0  0  0
   59.4580   33.9400   48.0640 C   0  0  0  0  0  0  0  0  0  0  0  0
   58.8849   33.2464   48.6968 H   0  0  0  0  0  0  0  0  0  0  0  0
   58.7798   34.6722   47.6016 H   0  0  0  0  0  0  0  0  0  0  0  0
   60.1690   33.1500   46.9620 C   0  0  0  0  0  0  0  0  0  0  0  0
   59.8725   33.5488   45.9806 H   0  0  0  0  0  0  0  0  0  0  0  0
   61.2564   33.2484   47.0957 H   0  0  0  0  0  0  0  0  0  0  0  0
   59.8040   31.7260   47.0380 N   0  0  0  0  0  0  0  0  0  0  0  0
   58.8300   31.1780   46.1310 C   0  0  0  0  0  0  0  0  0  0  0  0
   58.2670   31.9200   45.2790 O   0  0  0  0  0  0  0  0  0  0  0  0
   58.4870   29.7380   46.1960 C   0  0  0  0  0  0  0  0  0  0  0  0
   57.5100   29.1940   45.3430 C   0  0  0  0  0  0  0  0  0  0  0  0
   56.9992   29.8419   44.6155 H   0  0  0  0  0  0  0  0  0  0  0  0
   57.1830   27.8380   45.4120 C   0  0  0  0  0  0  0  0  0  0  0  0
   56.4129   27.4257   44.7435 H   0  0  0  0  0  0  0  0  0  0  0  0
   57.8280   27.0050   46.3240 C   0  0  0  0  0  0  0  0  0  0  0  0
   57.5672   25.9374   46.3702 H   0  0  0  0  0  0  0  0  0  0  0  0
   58.8080   27.5220   47.1830 C   0  0  0  0  0  0  0  0  0  0  0  0
   59.4570   26.6810   48.0980 C   0  0  0  0  0  0  0  0  0  0  0  0
   59.1999   25.6122   48.1381 H   0  0  0  0  0  0  0  0  0  0  0  0
   60.4270   27.1950   48.9570 C   0  0  0  0  0  0  0  0  0  0  0  0
   60.9289   26.5301   49.6753 H   0  0  0  0  0  0  0  0  0  0  0  0
   60.7650   28.5480   48.9110 C   0  0  0  0  0  0  0  0  0  0  0  0
   61.5324   28.9428   49.5931 H   0  0  0  0  0  0  0  0  0  0  0  0
   60.1310   29.4110   47.9980 C   0  0  0  0  0  0  0  0  0  0  0  0
   59.1430   28.8990   47.1270 C   0  0  0  0  0  0  0  0  0  0  0  0
   60.4890   30.8470   47.9490 C   0  0  0  0  0  0  0  0  0  0  0  0
   61.3940   31.2980   48.7040 O   0  0  0  0  0  0  0  0  0  0  0  0
   65.7410   32.5550   50.3210 C   0  0  0  0  0  0  0  0  0  0  0  0
   66.4267   33.2340   50.8489 H   0  0  0  0  0  0  0  0  0  0  0  0
   66.3113   31.9393   49.6099 H   0  0  0  0  0  0  0  0  0  0  0  0
   65.0700   31.6870   51.2910 N   0  0  0  0  0  0  0  0  0  0  0  0
   64.7110   32.1720   52.1340 H   0  0  0  0  0  0  0  0  0  0  0  0
   65.2230   30.2550   51.3560 C   0  0  0  0  0  0  0  0  0  0  0  0
   66.5320   29.7450   51.2960 C   0  0  0  0  0  0  0  0  0  0  0  0
   67.3559   30.4102   50.9982 H   0  0  0  0  0  0  0  0  0  0  0  0
   66.8050   28.4270   51.6030 C   0  0  0  0  0  0  0  0  0  0  0  0
   67.8401   28.0567   51.5649 H   0  0  0  0  0  0  0  0  0  0  0  0
   65.7790   27.5730   51.9580 C   0  0  0  0  0  0  0  0  0  0  0  0
   66.0183   26.5423   52.2588 H   0  0  0  0  0  0  0  0  0  0  0  0
   64.4250   27.9930   51.9440 C   0  0  0  0  0  0  0  0  0  0  0  0
   64.1210   29.3650   51.6500 C   0  0  0  0  0  0  0  0  0  0  0  0
   62.7360   29.7550   51.6450 C   0  0  0  0  0  0  0  0  0  0  0  0
   62.2870   31.0130   51.0620 N   0  0  0  0  0  0  0  0  0  0  0  0
   61.4460   30.8180   50.4700 H   0  0  0  0  0  0  0  0  0  0  0  0
   62.9630   31.3520   50.3420 H   0  0  0  0  0  0  0  0  0  0  0  0
   61.9500   32.1090   52.0170 C   0  0  0  0  0  0  0  0  0  0  0  0
   62.7151   32.8923   51.9119 H   0  0  0  0  0  0  0  0  0  0  0  0
   61.9192   31.6347   53.0090 H   0  0  0  0  0  0  0  0  0  0  0  0
   60.5610   32.7770   51.8340 C   0  0  0  0  0  0  0  0  0  0  0  0
   60.6956   33.8555   51.6644 H   0  0  0  0  0  0  0  0  0  0  0  0
   59.9604   32.6126   52.7408 H   0  0  0  0  0  0  0  0  0  0  0  0
   59.8640   32.1870   50.6820 N   0  0  0  0  0  0  0  0  0  0  0  0
   60.1590   32.6800   49.8060 H   0  0  0  0  0  0  0  0  0  0  0  0
   58.3980   32.2820   50.8120 C   0  0  0  0  0  0  0  0  0  0  0  0
   57.9956   32.7661   49.9099 H   0  0  0  0  0  0  0  0  0  0  0  0
   58.1826   32.8664   51.7187 H   0  0  0  0  0  0  0  0  0  0  0  0
   57.7280   30.9150   50.9740 C   0  0  0  0  0  0  0  0  0  0  0  0
   57.6158   30.6861   52.0441 H   0  0  0  0  0  0  0  0  0  0  0  0
   56.7369   30.9336   50.4972 H   0  0  0  0  0  0  0  0  0  0  0  0
   58.3499   30.1431   50.4972 H   0  0  0  0  0  0  0  0  0  0  0  0
   61.7670   28.8500   52.1590 C   0  0  0  0  0  0  0  0  0  0  0  0
   60.4120   29.2280   52.3340 C   0  0  0  0  0  0  0  0  0  0  0  0
   60.0885   30.2312   52.0194 H   0  0  0  0  0  0  0  0  0  0  0  0
   59.4820   28.3580   52.8950 C   0  0  0  0  0  0  0  0  0  0  0  0
   58.4354   28.6741   53.0160 H   0  0  0  0  0  0  0  0  0  0  0  0
   59.8760   27.0930   53.3010 C   0  0  0  0  0  0  0  0  0  0  0  0
   59.1482   26.4149   53.7706 H   0  0  0  0  0  0  0  0  0  0  0  0
   61.1920   26.6800   53.1150 C   0  0  0  0  0  0  0  0  0  0  0  0
   61.4965   25.6776   53.4504 H   0  0  0  0  0  0  0  0  0  0  0  0
   62.1480   27.5300   52.5000 C   0  0  0  0  0  0  0  0  0  0  0  0
   63.4200   27.0880   52.2210 N   0  0  0  0  0  0  0  0  0  0  0  0
   63.7000   25.6320   52.1960 C   0  0  0  0  0  0  0  0  0  0  0  0
   63.7725   25.2548   53.2268 H   0  0  0  0  0  0  0  0  0  0  0  0
   62.8856   25.1110   51.6713 H   0  0  0  0  0  0  0  0  0  0  0  0
   64.6496   25.4502   51.6713 H   0  0  0  0  0  0  0  0  0  0  0  0
  1  2  1  0
  2  3  2  0
  3  4  1  0
  4  5  1  0
  4  6  1  0
  4  7  1  0
  7  8  1  0
  7  9  1  0
  7 10  1  0
 10 11  1  0
 11 12  1  0
 11 13  1  0
 11 14  1  0
 14 15  1  0
 14 16  1  0
 14 17  1  0
 17 18  1  0
 18 19  2  0
 18 20  1  0
 20 21  2  0
 21 22  1  0
 21 23  1  0
 23 24  1  0
 23 25  2  0
 25 26  1  0
 25 27  1  0
 27 28  2  0
 28 29  1  0
 28 30  1  0
 30 31  1  0
 30 32  2  0
 32 33  1  0
 32 34  1  0
 34 35  2  0
 34 36  1  0
 36 37  2  0
  2 38  1  0
 38 39  1  0
 38 40  1  0
 38 41  1  0
 41 42  1  0
 41 43  1  0
 43 44  2  0
 44 45  1  0
 44 46  1  0
 46 47  1  0
 46 48  2  0
 48 49  1  0
 48 50  1  0
 50 51  2  0
 51 52  1  0
 52 53  1  0
 53 54  1  0
 53 55  1  0
 53 56  1  0
 56 57  1  0
 56 58  1  0
 56 59  1  0
 59 60  1  0
 59 61  1  0
 59 62  1  0
 62 63  1  0
 62 64  1  0
 64 65  1  0
 64 66  1  0
 64 67  1  0
 67 68  1  0
 67 69  1  0
 67 70  1  0
 52 71  2  0
 71 72  1  0
 72 73  1  0
 72 74  2  0
 74 75  1  0
 74 76  1  0
 76 77  1  0
 76 78  2  0
 78 79  1  0
 78 80  1  0
 80 81  2  0
 81 82  1  0
 82 83  1  0
 82 84  1  0
 82 85  1  0
 36 17  1  0
 51 43  1  0
 80 71  1  0
 35 20  1  0
 81 50  1  0
 35 27  1  0
M  CHG  2  53   1  81   1
M  END
>  <UniqueID>  (21) 
21

>  <SMILES>  (21) 
CCNCC[NH2+]c1c2ccccc2[n+](C)c2cccc(NC/C=N/CCOCCN3C(=O)c4cccc5cccc(c45)C3=O)c12

>  <Energy>  (21) 
137.3610506669696

>  <Genealogy>  (21) 
CCNCC[NH2+]c1c2ccccc2[n+](C)c2cccc(NCC=NCCOCCN3C(=O)c4cccc5cccc(c45)C3=O)c12 (protonated)
CCNCC[NH2+]c1c2ccccc2[n+](C)c2cccc(NC/C=N/CCOCCN3C(=O)c4cccc5cccc(c45)C3=O)c12 (cis-trans isomerization)
CCNCC[NH2+]c1c2ccccc2[n+](C)c2cccc(NC/C=N/CCOCCN3C(=O)c4cccc5cccc(c45)C3=O)c12 (3D coordinates assigned)
CCNCC[NH2+]c1c2ccccc2[n+](C)c2cccc(NC/C=N/CCOCCN3C(=O)c4cccc5cccc(c45)C3=O)c12 (nonaromatic ring conformer: 137.3610506669696 kcal/mol)

>  <smiles>  (21) 
CCNCCNc1c2ccccc2[n+](C)c2cccc(NCC=NCCOCCN3C(=O)c4cccc5cccc(c45)C3=O)c12

>  <score_type>  (21) 
oracle

>  <origin>  (21) 
adg

>  <m_score__min__energy>  (21) 
-6.4800000000000004

>  <m_primary>  (21) 
energy

$$$$
21:0
     RDKit          3D

 29 31  0  0  0  0  0  0  0  0999 V2000
   57.4130   31.9380   42.3330 C   0  0  0  0  0  0  0  0  0  0  0  0
   57.7490   31.5650   43.6990 N   0  0  0  0  0  0  0  0  0  0  0  0
   58.5080   32.2880   44.5230 N   0  0  0  0  0  0  0  0  0  0  0  0
   58.6820   31.5800   45.6760 C   0  0  0  0  0  0  0  0  0  0  0  0
   58.0160   30.3810   45.5340 C   0  0  0  0  0  0  0  0  0  0  0  0
   57.8070   29.2080   46.2420 C   0  0  0  0  0  0  0  0  0  0  0  0
   57.0410   28.3170   45.4640 C   0  0  0  0  0  0  0  0  0  0  0  0
   56.6280   26.9740   45.8910 C   0  0  0  0  0  0  0  0  0  0  0  0
   55.4020   26.7020   46.0030 O   0  0  0  0  0  0  0  0  0  0  0  0
   57.6250   26.0010   46.2260 N   0  0  0  0  0  0  0  0  0  0  0  0
   57.8770   24.7640   45.5420 C   0  0  0  0  0  0  0  0  0  0  0  0
   56.9030   24.2610   44.6760 C   0  0  0  0  0  0  0  0  0  0  0  0
   57.1130   23.0520   44.0150 C   0  0  0  0  0  0  0  0  0  0  0  0
   58.2940   22.3440   44.2400 C   0  0  0  0  0  0  0  0  0  0  0  0
   59.2300   22.8230   45.1060 N   0  0  0  0  0  0  0  0  0  0  0  0
   60.3750   22.0860   45.3200 O   0  0  0  0  0  0  0  0  0  0  0  0
   59.0420   24.0070   45.7610 C   0  0  0  0  0  0  0  0  0  0  0  0
   56.6590   29.0040   43.9340 S   0  0  0  0  0  0  0  0  0  0  0  0
   57.4700   30.4160   44.3200 C   0  0  0  0  0  0  0  0  0  0  0  0
   56.6768   32.7552   42.3466 H   0  0  0  0  0  0  0  0  0  0  0  0
   58.3214   32.2715   41.8100 H   0  0  0  0  0  0  0  0  0  0  0  0
   56.9868   31.0692   41.8100 H   0  0  0  0  0  0  0  0  0  0  0  0
   59.2507   31.9065   46.5592 H   0  0  0  0  0  0  0  0  0  0  0  0
   58.1816   29.0038   47.2559 H   0  0  0  0  0  0  0  0  0  0  0  0
   55.9692   24.8198   44.5156 H   0  0  0  0  0  0  0  0  0  0  0  0
   56.3543   22.6595   43.3220 H   0  0  0  0  0  0  0  0  0  0  0  0
   58.4703   21.3935   43.7151 H   0  0  0  0  0  0  0  0  0  0  0  0
   61.1310   22.0730   44.6460 H   0  0  0  0  0  0  0  0  0  0  0  0
   59.8062   24.3704   46.4638 H   0  0  0  0  0  0  0  0  0  0  0  0
  1  2  1  0
  2  3  1  0
  3  4  2  0
  4  5  1  0
  5  6  1  0
  6  7  2  0
  7  8  1  0
  8  9  2  0
  8 10  1  0
 10 11  1  0
 11 12  2  0
 12 13  1  0
 13 14  2  0
 14 15  1  0
 15 16  1  0
 15 17  2  0
  7 18  1  0
 18 19  1  0
 19  2  1  0
 19  5  2  0
 17 11  1  0
  1 20  1  0
  1 21  1  0
  1 22  1  0
  4 23  1  0
  6 24  1  0
 12 25  1  0
 13 26  1  0
 14 27  1  0
 16 28  1  0
 17 29  1  0
M  CHG  2  10  -1  15   1
M  END
>  <UniqueID>  (22) 
22

>  <SMILES>  (22) 
Cn1ncc2cc(C(=O)[N-]c3ccc[n+](O)c3)sc21

>  <Energy>  (22) 
114.7950647343589

>  <Genealogy>  (22) 
Cn1ncc2cc(C(=O)[N-]c3ccc[n+](O)c3)sc21 (protonated)
Cn1ncc2cc(C(=O)[N-]c3ccc[n+](O)c3)sc21 (3D coordinates assigned)
Cn1ncc2cc(C(=O)[N-]c3ccc[n+](O)c3)sc21 (optimized conformer: 114.7950647343589 kcal/mol)

>  <smiles>  (22) 
Cn1ncc2cc(C(=O)Nc3ccc[n+]([O-])c3)sc21

>  <score_type>  (22) 
oracle

>  <origin>  (22) 
adg

>  <m_score__min__energy>  (22) 
-7.1799999999999997

>  <m_primary>  (22) 
energy

$$$$
22:0
     RDKit          3D

 50 53  0  0  0  0  0  0  0  0999 V2000
   63.3720   33.8420   46.3800 C   0  0  0  0  0  0  0  0  0  0  0  0
   63.2120   32.9490   47.5280 C   0  0  0  0  0  0  0  0  0  0  0  0
   63.0700   32.2160   48.4740 C   0  0  0  0  0  0  0  0  0  0  0  0
   62.8800   31.3130   49.6200 C   0  0  0  0  0  0  0  0  0  0  0  0
   61.7530   31.7480   50.4710 N   0  0  0  0  0  0  0  0  0  0  0  0
   60.4990   31.0080   50.2200 C   0  0  0  0  0  0  0  0  0  0  0  0
   60.3940   30.4210   48.8010 C   0  0  0  0  0  0  0  0  0  0  0  0
   59.0600   30.6210   48.2340 N   0  0  0  0  0  0  0  0  0  0  0  0
   58.8960   31.0690   46.8810 C   0  0  0  0  0  0  0  0  0  0  0  0
   59.0200   32.4330   46.5290 C   0  0  0  0  0  0  0  0  0  0  0  0
   59.3960   33.3930   47.4890 C   0  0  0  0  0  0  0  0  0  0  0  0
   59.5420   34.7320   47.1370 C   0  0  0  0  0  0  0  0  0  0  0  0
   59.3270   35.1380   45.8240 C   0  0  0  0  0  0  0  0  0  0  0  0
   58.9450   34.2130   44.8530 C   0  0  0  0  0  0  0  0  0  0  0  0
   58.7590   32.8470   45.1790 C   0  0  0  0  0  0  0  0  0  0  0  0
   58.3470   31.9230   44.2280 N   0  0  0  0  0  0  0  0  0  0  0  0
   57.9650   32.3400   42.8660 C   0  0  0  0  0  0  0  0  0  0  0  0
   58.3220   30.5980   44.5780 C   0  0  0  0  0  0  0  0  0  0  0  0
   58.0850   29.5500   43.7500 N   0  0  0  0  0  0  0  0  0  0  0  0
   58.2130   28.4540   44.5260 C   0  0  0  0  0  0  0  0  0  0  0  0
   58.1030   27.1260   44.1160 C   0  0  0  0  0  0  0  0  0  0  0  0
   58.3320   26.1190   45.0710 C   0  0  0  0  0  0  0  0  0  0  0  0
   58.6790   26.4560   46.3960 C   0  0  0  0  0  0  0  0  0  0  0  0
   58.7930   27.8020   46.7850 C   0  0  0  0  0  0  0  0  0  0  0  0
   58.5300   28.7860   45.8260 C   0  0  0  0  0  0  0  0  0  0  0  0
   58.5910   30.1690   45.8620 C   0  0  0  0  0  0  0  0  0  0  0  0
   63.5556   34.8667   46.7353 H   0  0  0  0  0  0  0  0  0  0  0  0
   64.2244   33.5069   45.7708 H   0  0  0  0  0  0  0  0  0  0  0  0
   62.4563   33.8237   45.7708 H   0  0  0  0  0  0  0  0  0  0  0  0
   62.6749   30.2991   49.2460 H   0  0  0  0  0  0  0  0  0  0  0  0
   63.7971   31.3283   50.2273 H   0  0  0  0  0  0  0  0  0  0  0  0
   61.6000   32.7800   50.3960 H   0  0  0  0  0  0  0  0  0  0  0  0
   62.0190   31.5620   51.4660 H   0  0  0  0  0  0  0  0  0  0  0  0
   60.4344   30.1810   50.9425 H   0  0  0  0  0  0  0  0  0  0  0  0
   59.6756   31.7293   50.3287 H   0  0  0  0  0  0  0  0  0  0  0  0
   61.1346   30.9146   48.1545 H   0  0  0  0  0  0  0  0  0  0  0  0
   60.5845   29.3393   48.8606 H   0  0  0  0  0  0  0  0  0  0  0  0
   58.2250   30.2610   48.7490 H   0  0  0  0  0  0  0  0  0  0  0  0
   59.5762   33.0811   48.5283 H   0  0  0  0  0  0  0  0  0  0  0  0
   59.8283   35.4713   47.8996 H   0  0  0  0  0  0  0  0  0  0  0  0
   59.4591   36.1951   45.5501 H   0  0  0  0  0  0  0  0  0  0  0  0
   58.7856   34.5492   43.8178 H   0  0  0  0  0  0  0  0  0  0  0  0
   57.2230   33.1499   42.9251 H   0  0  0  0  0  0  0  0  0  0  0  0
   58.8558   32.6972   42.3285 H   0  0  0  0  0  0  0  0  0  0  0  0
   57.5312   31.4839   42.3285 H   0  0  0  0  0  0  0  0  0  0  0  0
   57.9020   29.5480   42.7240 H   0  0  0  0  0  0  0  0  0  0  0  0
   57.8449   26.8733   43.0770 H   0  0  0  0  0  0  0  0  0  0  0  0
   58.2399   25.0615   44.7826 H   0  0  0  0  0  0  0  0  0  0  0  0
   58.8620   25.6586   47.1313 H   0  0  0  0  0  0  0  0  0  0  0  0
   59.0801   28.0732   47.8117 H   0  0  0  0  0  0  0  0  0  0  0  0
  1  2  1  0
  2  3  3  0
  3  4  1  0
  4  5  1  0
  5  6  1  0
  6  7  1  0
  7  8  1  0
  8  9  1  0
  9 10  2  0
 10 11  1  0
 11 12  2  0
 12 13  1  0
 13 14  2  0
 14 15  1  0
 15 16  2  0
 16 17  1  0
 16 18  1  0
 18 19  1  0
 19 20  1  0
 20 21  2  0
 21 22  1  0
 22 23  2  0
 23 24  1  0
 24 25  2  0
 25 26  1  0
 26  9  1  0
 15 10  1  0
 26 18  2  0
 25 20  1  0
  1 27  1  0
  1 28  1  0
  1 29  1  0
  4 30  1  0
  4 31  1  0
  5 32  1  0
  5 33  1  0
  6 34  1  0
  6 35  1  0
  7 36  1  0
  7 37  1  0
  8 38  1  0
 11 39  1  0
 12 40  1  0
 13 41  1  0
 14 42  1  0
 17 43  1  0
 17 44  1  0
 17 45  1  0
 19 46  1  0
 21 47  1  0
 22 48  1  0
 23 49  1  0
 24 50  1  0
M  CHG  2   5   1  16   1
M  END
>  <UniqueID>  (23) 
23

>  <SMILES>  (23) 
CC#CC[NH2+]CCNc1c2ccccc2[n+](C)c2[nH]c3ccccc3c12

>  <Energy>  (23) 
105.81519192287948

>  <Genealogy>  (23) 
CC#CC[NH2+]CCNc1c2ccccc2[n+](C)c2[nH]c3ccccc3c12 (protonated)
CC#CC[NH2+]CCNc1c2ccccc2[n+](C)c2[nH]c3ccccc3c12 (3D coordinates assigned)
CC#CC[NH2+]CCNc1c2ccccc2[n+](C)c2[nH]c3ccccc3c12 (optimized conformer: 105.81519192287948 kcal/mol)

>  <smiles>  (23) 
CC#CCNCCNc1c2ccccc2[n+](C)c2[nH]c3ccccc3c12

>  <score_type>  (23) 
oracle

>  <origin>  (23) 
adg

>  <m_score__min__energy>  (23) 
-4.8799999999999999

>  <m_primary>  (23) 
energy

$$$$
23:0
     RDKit          3D

 44 46  0  0  0  0  0  0  0  0999 V2000
   62.9980   34.0420   48.4850 C   0  0  0  0  0  0  0  0  0  0  0  0
   63.2120   33.3640   47.1280 C   0  0  0  0  0  0  0  0  0  0  0  0
   63.2360   31.8920   47.2190 N   0  0  0  0  0  0  0  0  0  0  0  0
   62.5900   31.3370   48.4250 C   0  0  0  0  0  0  0  0  0  0  0  0
   61.2910   30.5870   48.1130 C   0  0  0  0  0  0  0  0  0  0  0  0
   61.0280   30.6650   46.7150 O   0  0  0  0  0  0  0  0  0  0  0  0
   59.7940   30.2880   46.1740 C   0  0  0  0  0  0  0  0  0  0  0  0
   58.8540   31.2690   45.7770 C   0  0  0  0  0  0  0  0  0  0  0  0
   59.1110   32.7140   45.9870 C   0  0  0  0  0  0  0  0  0  0  0  0
   59.4370   33.2050   47.2650 C   0  0  0  0  0  0  0  0  0  0  0  0
   59.6940   34.5660   47.4540 C   0  0  0  0  0  0  0  0  0  0  0  0
   59.6220   35.4490   46.3730 C   0  0  0  0  0  0  0  0  0  0  0  0
   59.2900   34.9740   45.1030 C   0  0  0  0  0  0  0  0  0  0  0  0
   59.0330   33.6130   44.9080 C   0  0  0  0  0  0  0  0  0  0  0  0
   57.6430   30.8650   45.1950 C   0  0  0  0  0  0  0  0  0  0  0  0
   57.3460   29.5120   45.0280 C   0  0  0  0  0  0  0  0  0  0  0  0
   58.2560   28.5330   45.4430 C   0  0  0  0  0  0  0  0  0  0  0  0
   57.9550   27.1720   45.2840 C   0  0  0  0  0  0  0  0  0  0  0  0
   58.8680   26.1970   45.6950 C   0  0  0  0  0  0  0  0  0  0  0  0
   60.0850   26.5720   46.2660 C   0  0  0  0  0  0  0  0  0  0  0  0
   60.3980   27.9240   46.4300 C   0  0  0  0  0  0  0  0  0  0  0  0
   59.4900   28.9200   46.0240 C   0  0  0  0  0  0  0  0  0  0  0  0
   63.2233   33.3282   49.2911 H   0  0  0  0  0  0  0  0  0  0  0  0
   63.6650   34.9126   48.5691 H   0  0  0  0  0  0  0  0  0  0  0  0
   61.9520   34.3720   48.5691 H   0  0  0  0  0  0  0  0  0  0  0  0
   62.3944   33.6607   46.4546 H   0  0  0  0  0  0  0  0  0  0  0  0
   64.1926   33.6872   46.7486 H   0  0  0  0  0  0  0  0  0  0  0  0
   62.7600   31.4930   46.3750 H   0  0  0  0  0  0  0  0  0  0  0  0
   64.2320   31.5720   47.1910 H   0  0  0  0  0  0  0  0  0  0  0  0
   63.2901   30.6403   48.9092 H   0  0  0  0  0  0  0  0  0  0  0  0
   62.3343   32.1819   49.0813 H   0  0  0  0  0  0  0  0  0  0  0  0
   61.3948   29.5328   48.4094 H   0  0  0  0  0  0  0  0  0  0  0  0
   60.4592   31.0417   48.6710 H   0  0  0  0  0  0  0  0  0  0  0  0
   59.4898   32.5143   48.1195 H   0  0  0  0  0  0  0  0  0  0  0  0
   59.9532   34.9424   48.4546 H   0  0  0  0  0  0  0  0  0  0  0  0
   59.8271   36.5192   46.5231 H   0  0  0  0  0  0  0  0  0  0  0  0
   59.2304   35.6712   44.2542 H   0  0  0  0  0  0  0  0  0  0  0  0
   58.7686   33.2439   43.9061 H   0  0  0  0  0  0  0  0  0  0  0  0
   56.9185   31.6246   44.8662 H   0  0  0  0  0  0  0  0  0  0  0  0
   56.3924   29.2134   44.5681 H   0  0  0  0  0  0  0  0  0  0  0  0
   56.9972   26.8713   44.8343 H   0  0  0  0  0  0  0  0  0  0  0  0
   58.6268   25.1313   45.5681 H   0  0  0  0  0  0  0  0  0  0  0  0
   60.8002   25.8008   46.5880 H   0  0  0  0  0  0  0  0  0  0  0  0
   61.3600   28.2117   46.8792 H   0  0  0  0  0  0  0  0  0  0  0  0
  1  2  1  0
  2  3  1  0
  3  4  1  0
  4  5  1  0
  5  6  1  0
  6  7  1  0
  7  8  2  0
  8  9  1  0
  9 10  2  0
 10 11  1  0
 11 12  2  0
 12 13  1  0
 13 14  2  0
  8 15  1  0
 15 16  2  0
 16 17  1  0
 17 18  2  0
 18 19  1  0
 19 20  2  0
 20 21  1  0
 21 22  2  0
 22  7  1  0
 14  9  1  0
 22 17  1  0
  1 23  1  0
  1 24  1  0
  1 25  1  0
  2 26  1  0
  2 27  1  0
  3 28  1  0
  3 29  1  0
  4 30  1  0
  4 31  1  0
  5 32  1  0
  5 33  1  0
 10 34  1  0
 11 35  1  0
 12 36  1  0
 13 37  1  0
 14 38  1  0
 15 39  1  0
 16 40  1  0
 18 41  1  0
 19 42  1  0
 20 43  1  0
 21 44  1  0
M  CHG  1   3   1
M  END
>  <UniqueID>  (24) 
24

>  <SMILES>  (24) 
CC[NH2+]CCOc1c(-c2ccccc2)ccc2ccccc12

>  <Energy>  (24) 
58.687390854886715

>  <Genealogy>  (24) 
CC[NH2+]CCOc1c(-c2ccccc2)ccc2ccccc12 (protonated)
CC[NH2+]CCOc1c(-c2ccccc2)ccc2ccccc12 (3D coordinates assigned)
CC[NH2+]CCOc1c(-c2ccccc2)ccc2ccccc12 (optimized conformer: 58.687390854886715 kcal/mol)

>  <smiles>  (24) 
CCNCCOc1c(-c2ccccc2)ccc2ccccc12

>  <score_type>  (24) 
oracle

>  <origin>  (24) 
adg

>  <m_score__min__energy>  (24) 
-5.3399999999999999

>  <m_primary>  (24) 
energy

$$$$
