0:0
     RDKit          3D

 43 44  0  0  0  0  0  0  0  0999 V2000
   57.8190   26.3090   44.1730 C   0  0  0  0  0  0  0  0  0  0  0  0
   58.3880   27.4710   43.3590 C   0  0  0  0  0  0  0  0  0  0  0  0
   58.0720   28.7720   43.9880 N   0  0  0  0  0  0  0  0  0  0  0  0
   56.8660   29.3890   43.3840 C   0  0  0  0  0  0  0  0  0  0  0  0
   56.2410   30.4710   44.2920 C   0  0  0  0  0  0  0  0  0  0  0  0
   57.2230   31.0380   45.2370 N   0  0  0  0  0  0  0  0  0  0  0  0
   58.2590   31.8480   44.5540 C   0  0  0  0  0  0  0  0  0  0  0  0
   57.8030   33.3130   44.3870 C   0  0  1  0  0  0  0  0  0  0  0  0
   56.6290   33.5180   45.1310 O   0  0  0  0  0  0  0  0  0  0  0  0
   58.8630   34.3140   44.8790 C   0  0  0  0  0  0  0  0  0  0  0  0
   59.5050   33.8650   46.1170 N   0  0  0  0  0  0  0  0  0  0  0  0
   60.9400   33.8370   46.3430 C   0  0  0  0  0  0  0  0  0  0  0  0
   61.1360   33.2500   47.7540 C   0  0  0  0  0  0  0  0  0  0  0  0
   59.7470   33.1330   48.4000 C   0  0  0  0  0  0  0  0  0  0  0  0
   58.8300   33.4970   47.3040 C   0  0  0  0  0  0  0  0  0  0  0  0
   57.5750   33.4890   47.4120 O   0  0  0  0  0  0  0  0  0  0  0  0
   57.7940   29.9920   46.1210 C   0  0  0  0  0  0  0  0  0  0  0  0
   57.8990   28.6120   45.4420 C   0  0  0  0  0  0  0  0  0  0  0  0
   57.9254   26.5263   45.2461 H   0  0  0  0  0  0  0  0  0  0  0  0
   56.7544   26.1773   43.9293 H   0  0  0  0  0  0  0  0  0  0  0  0
   58.3677   25.3873   43.9293 H   0  0  0  0  0  0  0  0  0  0  0  0
   59.4804   27.3610   43.2923 H   0  0  0  0  0  0  0  0  0  0  0  0
   57.9334   27.4495   42.3576 H   0  0  0  0  0  0  0  0  0  0  0  0
   57.1475   29.8510   42.4262 H   0  0  0  0  0  0  0  0  0  0  0  0
   56.1175   28.5952   43.2439 H   0  0  0  0  0  0  0  0  0  0  0  0
   55.8485   31.2811   43.6598 H   0  0  0  0  0  0  0  0  0  0  0  0
   55.4395   29.9988   44.8791 H   0  0  0  0  0  0  0  0  0  0  0  0
   59.1828   31.8257   45.1507 H   0  0  0  0  0  0  0  0  0  0  0  0
   58.4317   31.4213   43.5550 H   0  0  0  0  0  0  0  0  0  0  0  0
   57.6362   33.4843   43.3133 H   0  0  0  0  0  0  0  0  0  0  0  0
   56.7300   33.0090   45.9770 H   0  0  0  0  0  0  0  0  0  0  0  0
   59.6320   34.4288   44.1009 H   0  0  0  0  0  0  0  0  0  0  0  0
   58.3599   35.2706   45.0833 H   0  0  0  0  0  0  0  0  0  0  0  0
   61.4328   33.2013   45.5927 H   0  0  0  0  0  0  0  0  0  0  0  0
   61.3808   34.8413   46.2595 H   0  0  0  0  0  0  0  0  0  0  0  0
   61.6041   32.2568   47.6864 H   0  0  0  0  0  0  0  0  0  0  0  0
   61.7911   33.8967   48.3561 H   0  0  0  0  0  0  0  0  0  0  0  0
   59.5589   32.1060   48.7462 H   0  0  0  0  0  0  0  0  0  0  0  0
   59.6306   33.7717   49.2880 H   0  0  0  0  0  0  0  0  0  0  0  0
   58.8018   30.3072   46.4294 H   0  0  0  0  0  0  0  0  0  0  0  0
   57.1139   29.8827   46.9786 H   0  0  0  0  0  0  0  0  0  0  0  0
   58.7631   28.0696   45.8532 H   0  0  0  0  0  0  0  0  0  0  0  0
   56.9749   28.0467   45.6333 H   0  0  0  0  0  0  0  0  0  0  0  0
  1  2  1  0
  2  3  1  0
  3  4  1  0
  4  5  1  0
  5  6  1  0
  6  7  1  0
  7  8  1  0
  8  9  1  0
  8 10  1  0
 10 11  1  0
 11 12  1  0
 12 13  1  0
 13 14  1  0
 14 15  1  0
 15 16  2  0
  6 17  1  0
 17 18  1  0
 18  3  1  0
 15 11  1  0
  1 19  1  0
  1 20  1  0
  1 21  1  0
  2 22  1  0
  2 23  1  0
  4 24  1  0
  4 25  1  0
  5 26  1  0
  5 27  1  0
  7 28  1  0
  7 29  1  0
  8 30  1  6
  9 31  1  0
 10 32  1  0
 10 33  1  0
 12 34  1  0
 12 35  1  0
 13 36  1  0
 13 37  1  0
 14 38  1  0
 14 39  1  0
 17 40  1  0
 17 41  1  0
 18 42  1  0
 18 43  1  0
M  END
>  <UniqueID>  (1) 
1

>  <SMILES>  (1) 
CCN1CCN(C[C@@H](O)CN2CCCC2=O)CC1

>  <Energy>  (1) 
51.3443742802691

>  <Genealogy>  (1) 
CCN1CCN(C[C@@H](O)CN2CCCC2=O)CC1 (chirality)
CCN1CCN(C[C@@H](O)CN2CCCC2=O)CC1 (3D coordinates assigned)
CCN1CCN(C[C@@H](O)CN2CCCC2=O)CC1 (nonaromatic ring conformer: 51.3443742802691 kcal/mol)

>  <smiles>  (1) 
CCN1CCN(CC(O)CN2CCCC2=O)CC1

>  <score_type>  (1) 
oracle

>  <origin>  (1) 
adg

>  <m_score__min__energy>  (1) 
-6.7800000000000002

>  <m_primary>  (1) 
energy

$$$$
1:0
     RDKit          3D

 37 38  0  0  0  0  0  0  0  0999 V2000
   57.8988   33.6181   42.9939 H   0  0  0  0  0  0  0  0  0  0  0  0
   57.8600   33.0990   43.9630 C   0  0  0  0  0  0  0  0  0  0  0  0
   57.7390   31.8080   43.9850 N   0  0  0  0  0  0  0  0  0  0  0  0
   56.6280   31.1900   44.5160 O   0  0  0  0  0  0  0  0  0  0  0  0
   56.0230   30.0960   43.8470 C   0  0  0  0  0  0  0  0  0  0  0  0
   55.6870   30.4157   42.8496 H   0  0  0  0  0  0  0  0  0  0  0  0
   55.1582   29.7422   44.4275 H   0  0  0  0  0  0  0  0  0  0  0  0
   57.0430   28.9620   43.7040 C   0  0  0  0  0  0  0  0  0  0  0  0
   57.0689   28.6408   42.6522 H   0  0  0  0  0  0  0  0  0  0  0  0
   56.7292   28.1433   44.3682 H   0  0  0  0  0  0  0  0  0  0  0  0
   58.4000   29.3720   44.1070 N   0  0  0  0  0  0  0  0  0  0  0  0
   58.8140   29.9920   43.3720 H   0  0  0  0  0  0  0  0  0  0  0  0
   58.3020   29.9580   44.9700 H   0  0  0  0  0  0  0  0  0  0  0  0
   59.2870   28.2290   44.4260 C   0  0  0  0  0  0  0  0  0  0  0  0
   59.3941   27.6014   43.5289 H   0  0  0  0  0  0  0  0  0  0  0  0
   58.8310   27.6658   45.2536 H   0  0  0  0  0  0  0  0  0  0  0  0
   60.6760   28.6890   44.8760 C   0  0  0  0  0  0  0  0  0  0  0  0
   60.7193   28.7033   45.9751 H   0  0  0  0  0  0  0  0  0  0  0  0
   61.4358   27.9945   44.4882 H   0  0  0  0  0  0  0  0  0  0  0  0
   60.8710   29.6997   44.4882 H   0  0  0  0  0  0  0  0  0  0  0  0
   57.9490   33.9070   45.2360 C   0  0  2  0  0  0  0  0  0  0  0  0
   56.9508   34.3691   45.2302 H   0  0  0  0  0  0  0  0  0  0  0  0
   59.1180   34.9220   45.2680 C   0  0  0  0  0  0  0  0  0  0  0  0
   59.7897   34.7611   44.4119 H   0  0  0  0  0  0  0  0  0  0  0  0
   58.7580   35.9595   45.2040 H   0  0  0  0  0  0  0  0  0  0  0  0
   59.8330   34.6670   46.5420 N   0  0  0  0  0  0  0  0  0  0  0  0
   60.5960   33.4100   46.3720 C   0  0  0  0  0  0  0  0  0  0  0  0
   61.1514   33.4227   45.4226 H   0  0  0  0  0  0  0  0  0  0  0  0
   61.3358   33.2697   47.1738 H   0  0  0  0  0  0  0  0  0  0  0  0
   59.5420   32.2880   46.3640 C   0  0  0  0  0  0  0  0  0  0  0  0
   59.5624   31.7242   45.4197 H   0  0  0  0  0  0  0  0  0  0  0  0
   59.6907   31.5274   47.1446 H   0  0  0  0  0  0  0  0  0  0  0  0
   58.2380   33.0910   46.5110 C   0  0  1  0  0  0  0  0  0  0  0  0
   57.3898   32.4531   46.8000 H   0  0  0  0  0  0  0  0  0  0  0  0
   58.7400   34.2040   47.3900 C   0  0  0  0  0  0  0  0  0  0  0  0
   57.9795   34.9826   47.5491 H   0  0  0  0  0  0  0  0  0  0  0  0
   59.0170   33.9174   48.4152 H   0  0  0  0  0  0  0  0  0  0  0  0
  1  2  1  0
  2  3  2  0
  3  4  1  0
  4  5  1  0
  5  6  1  0
  5  7  1  0
  5  8  1  0
  8  9  1  0
  8 10  1  0
  8 11  1  0
 11 12  1  0
 11 13  1  0
 11 14  1  0
 14 15  1  0
 14 16  1  0
 14 17  1  0
 17 18  1  0
 17 19  1  0
 17 20  1  0
  2 21  1  0
 21 22  1  1
 21 23  1  0
 23 24  1  0
 23 25  1  0
 26 23  1  0
 26 27  1  0
 27 28  1  0
 27 29  1  0
 27 30  1  0
 30 31  1  0
 30 32  1  0
 30 33  1  0
 33 34  1  1
 33 35  1  0
 35 36  1  0
 35 37  1  0
 33 21  1  0
 35 26  1  0
M  CHG  1  11   1
M  END
>  <UniqueID>  (2) 
2

>  <SMILES>  (2) 
CC[NH2+]CCO/N=C\[C@@H]1C[N@]2CCC1C2

>  <Energy>  (2) 
59.147720530564

>  <Genealogy>  (2) 
CC[NH2+]CCON=CC1CN2CCC1C2 (protonated)
CC[NH2+]CCON=C[C@@H]1C[N@]2CCC1C2 (chirality)
CC[NH2+]CCO/N=C\[C@@H]1C[N@]2CCC1C2 (cis-trans isomerization)
CC[NH2+]CCO/N=C\[C@@H]1C[N@]2CCC1C2 (3D coordinates assigned)
CC[NH2+]CCO/N=C\[C@@H]1C[N@]2CCC1C2 (nonaromatic ring conformer: 59.147720530564 kcal/mol)

>  <smiles>  (2) 
CCNCCON=CC1CN2CCC1C2

>  <score_type>  (2) 
oracle

>  <origin>  (2) 
adg

>  <m_score__min__energy>  (2) 
-4.3099999999999996

>  <m_primary>  (2) 
energy

$$$$
2:0
     RDKit          3D

 71 74  0  0  0  0  0  0  0  0999 V2000
   59.3150   34.5960   47.9080 C   0  0  0  0  0  0  0  0  0  0  0  0
   58.4110   33.4100   47.5590 C   0  0  0  0  0  0  0  0  0  0  0  0
   59.0110   32.5300   46.5410 N   0  0  0  0  0  0  0  0  0  0  0  0
   59.2640   33.2250   45.2690 C   0  0  0  0  0  0  0  0  0  0  0  0
   57.9500   33.4190   44.5020 C   0  0  0  0  0  0  0  0  0  0  0  0
   57.4620   32.1190   43.8560 C   0  0  0  0  0  0  0  0  0  0  0  0
   56.8990   31.2190   44.8780 N   0  0  0  0  0  0  0  0  0  0  0  0
   56.5090   29.9250   44.3040 C   0  0  0  0  0  0  0  0  0  0  0  0
   57.2170   28.7890   45.0460 C   0  0  0  0  0  0  0  0  0  0  0  0
   58.7340   29.0220   45.1080 C   0  0  0  0  0  0  0  0  0  0  0  0
   59.1340   29.6720   46.3730 N   0  0  0  0  0  0  0  0  0  0  0  0
   59.9980   28.8210   47.2060 C   0  0  0  0  0  0  0  0  0  0  0  0
   60.7440   29.6380   48.2810 C   0  0  0  0  0  0  0  0  0  0  0  0
   60.3270   31.0550   48.3100 N   0  0  0  0  0  0  0  0  0  0  0  0
   60.5860   31.6760   49.5980 C   0  0  0  0  0  0  0  0  0  0  0  0
   61.8930   32.0640   49.9240 C   0  0  0  0  0  0  0  0  0  0  0  0
   62.1840   32.6630   51.1340 C   0  0  0  0  0  0  0  0  0  0  0  0
   61.2440   32.7980   52.1210 N   0  0  0  0  0  0  0  0  0  0  0  0
   61.6600   33.1060   53.5000 C   0  0  0  0  0  0  0  0  0  0  0  0
   59.9170   32.5550   51.8090 C   0  0  0  0  0  0  0  0  0  0  0  0
   58.8800   32.9010   52.7080 C   0  0  0  0  0  0  0  0  0  0  0  0
   57.5500   32.6090   52.4210 C   0  0  0  0  0  0  0  0  0  0  0  0
   57.2140   31.9740   51.2330 C   0  0  0  0  0  0  0  0  0  0  0  0
   58.2030   31.6510   50.3060 C   0  0  0  0  0  0  0  0  0  0  0  0
   59.5630   31.9540   50.5520 C   0  0  0  0  0  0  0  0  0  0  0  0
   63.6140   33.0000   51.1410 C   0  0  0  0  0  0  0  0  0  0  0  0
   64.3750   33.8060   52.0020 C   0  0  0  0  0  0  0  0  0  0  0  0
   65.7290   34.0210   51.7050 C   0  0  0  0  0  0  0  0  0  0  0  0
   66.2960   33.4770   50.5380 C   0  0  0  0  0  0  0  0  0  0  0  0
   65.5060   32.7350   49.6490 C   0  0  0  0  0  0  0  0  0  0  0  0
   64.1630   32.5180   49.9660 C   0  0  0  0  0  0  0  0  0  0  0  0
   63.1380   31.8680   49.0980 C   0  0  0  0  0  0  0  0  0  0  0  0
   59.3882   34.6920   49.0014 H   0  0  0  0  0  0  0  0  0  0  0  0
   60.3174   34.4295   47.4867 H   0  0  0  0  0  0  0  0  0  0  0  0
   58.8888   35.5184   47.4867 H   0  0  0  0  0  0  0  0  0  0  0  0
   58.2296   32.8230   48.4714 H   0  0  0  0  0  0  0  0  0  0  0  0
   57.4736   33.8114   47.1465 H   0  0  0  0  0  0  0  0  0  0  0  0
   58.3820   31.7120   46.3680 H   0  0  0  0  0  0  0  0  0  0  0  0
   59.7133   34.2077   45.4748 H   0  0  0  0  0  0  0  0  0  0  0  0
   59.9501   32.6192   44.6589 H   0  0  0  0  0  0  0  0  0  0  0  0
   57.1807   33.7779   45.2016 H   0  0  0  0  0  0  0  0  0  0  0  0
   58.1313   34.1487   43.6991 H   0  0  0  0  0  0  0  0  0  0  0  0
   56.6866   32.3527   43.1116 H   0  0  0  0  0  0  0  0  0  0  0  0
   58.3133   31.6199   43.3700 H   0  0  0  0  0  0  0  0  0  0  0  0
   57.6340   31.0390   45.6030 H   0  0  0  0  0  0  0  0  0  0  0  0
   55.4203   29.7983   44.3973 H   0  0  0  0  0  0  0  0  0  0  0  0
   56.7979   29.8987   43.2429 H   0  0  0  0  0  0  0  0  0  0  0  0
   56.8216   28.7294   46.0707 H   0  0  0  0  0  0  0  0  0  0  0  0
   57.0321   27.8511   44.5019 H   0  0  0  0  0  0  0  0  0  0  0  0
   59.2475   28.0526   45.0270 H   0  0  0  0  0  0  0  0  0  0  0  0
   59.0140   29.6860   44.2769 H   0  0  0  0  0  0  0  0  0  0  0  0
   59.6090   30.5930   46.2130 H   0  0  0  0  0  0  0  0  0  0  0  0
   59.3765   28.0619   47.7036 H   0  0  0  0  0  0  0  0  0  0  0  0
   60.7480   28.3522   46.5520 H   0  0  0  0  0  0  0  0  0  0  0  0
   60.5422   29.1913   49.2658 H   0  0  0  0  0  0  0  0  0  0  0  0
   61.8158   29.6115   48.0349 H   0  0  0  0  0  0  0  0  0  0  0  0
   60.7390   31.5870   47.5140 H   0  0  0  0  0  0  0  0  0  0  0  0
   59.2970   31.0870   48.1290 H   0  0  0  0  0  0  0  0  0  0  0  0
   60.9832   32.6049   54.2077 H   0  0  0  0  0  0  0  0  0  0  0  0
   62.6882   32.7497   53.6611 H   0  0  0  0  0  0  0  0  0  0  0  0
   61.6193   34.1934   53.6611 H   0  0  0  0  0  0  0  0  0  0  0  0
   59.1299   33.4099   53.6506 H   0  0  0  0  0  0  0  0  0  0  0  0
   56.7619   32.8823   53.1381 H   0  0  0  0  0  0  0  0  0  0  0  0
   56.1634   31.7250   51.0228 H   0  0  0  0  0  0  0  0  0  0  0  0
   57.9216   31.1520   49.3670 H   0  0  0  0  0  0  0  0  0  0  0  0
   63.9180   34.2607   52.8933 H   0  0  0  0  0  0  0  0  0  0  0  0
   66.3508   34.6181   52.3882 H   0  0  0  0  0  0  0  0  0  0  0  0
   67.3631   33.6345   50.3224 H   0  0  0  0  0  0  0  0  0  0  0  0
   65.9352   32.3316   48.7200 H   0  0  0  0  0  0  0  0  0  0  0  0
   63.0583   32.3698   48.1224 H   0  0  0  0  0  0  0  0  0  0  0  0
   63.3554   30.8189   48.8486 H   0  0  0  0  0  0  0  0  0  0  0  0
  1  2  1  0
  2  3  1  0
  3  4  1  0
  4  5  1  0
  5  6  1  0
  6  7  1  0
  7  8  1  0
  8  9  1  0
  9 10  1  0
 10 11  1  0
 11 12  1  0
 12 13  1  0
 13 14  1  0
 14 15  1  0
 15 16  2  0
 16 17  1  0
 17 18  2  0
 18 19  1  0
 18 20  1  0
 20 21  2  0
 21 22  1  0
 22 23  2  0
 23 24  1  0
 24 25  2  0
 17 26  1  0
 26 27  2  0
 27 28  1  0
 28 29  2  0
 29 30  1  0
 30 31  2  0
 31 32  1  0
 25 15  1  0
 31 26  1  0
 32 16  1  0
 25 20  1  0
  1 33  1  0
  1 34  1  0
  1 35  1  0
  2 36  1  0
  2 37  1  0
  3 38  1  0
  4 39  1  0
  4 40  1  0
  5 41  1  0
  5 42  1  0
  6 43  1  0
  6 44  1  0
  7 45  1  0
  8 46  1  0
  8 47  1  0
  9 48  1  0
  9 49  1  0
 10 50  1  0
 10 51  1  0
 11 52  1  0
 12 53  1  0
 12 54  1  0
 13 55  1  0
 13 56  1  0
 14 57  1  0
 14 58  1  0
 19 59  1  0
 19 60  1  0
 19 61  1  0
 21 62  1  0
 22 63  1  0
 23 64  1  0
 24 65  1  0
 27 66  1  0
 28 67  1  0
 29 68  1  0
 30 69  1  0
 32 70  1  0
 32 71  1  0
M  CHG  2  14   1  18   1
M  END
>  <UniqueID>  (3) 
3

>  <SMILES>  (3) 
CCNCCCNCCCNCC[NH2+]c1c2c([n+](C)c3ccccc13)-c1ccccc1C2

>  <Energy>  (3) 
110.64905477618365

>  <Genealogy>  (3) 
CCNCCCNCCCNCC[NH2+]c1c2c([n+](C)c3ccccc13)-c1ccccc1C2 (protonated)
CCNCCCNCCCNCC[NH2+]c1c2c([n+](C)c3ccccc13)-c1ccccc1C2 (3D coordinates assigned)
CCNCCCNCCCNCC[NH2+]c1c2c([n+](C)c3ccccc13)-c1ccccc1C2 (nonaromatic ring conformer: 110.64905477618365 kcal/mol)

>  <smiles>  (3) 
CCNCCCNCCCNCCNc1c2c([n+](C)c3ccccc13)-c1ccccc1C2

>  <score_type>  (3) 
oracle

>  <origin>  (3) 
adg

>  <m_score__min__energy>  (3) 
-5.3300000000000001

>  <m_primary>  (3) 
energy

$$$$
3:0
     RDKit          3D

 47 49  0  0  0  0  0  0  0  0999 V2000
   65.0690   32.7420   49.7390 C   0  0  0  0  0  0  0  0  0  0  0  0
   63.6840   32.7900   49.0810 C   0  0  0  0  0  0  0  0  0  0  0  0
   63.7060   32.3430   47.6650 N   0  0  2  0  0  0  0  0  0  0  0  0
   63.6700   33.4970   46.7440 C   0  0  0  0  0  0  0  0  0  0  0  0
   62.5600   31.4310   47.3920 C   0  0  0  0  0  0  0  0  0  0  0  0
   61.6680   31.2060   48.6320 C   0  0  0  0  0  0  0  0  0  0  0  0
   60.2490   31.4150   48.3260 N   0  0  0  0  0  0  0  0  0  0  0  0
   59.7430   31.2890   46.9890 C   0  0  0  0  0  0  0  0  0  0  0  0
   59.6480   30.0120   46.4130 C   0  0  0  0  0  0  0  0  0  0  0  0
   60.3320   28.9130   46.9760 C   0  0  0  0  0  0  0  0  0  0  0  0
   60.2660   27.6550   46.3820 C   0  0  0  0  0  0  0  0  0  0  0  0
   59.5290   27.4740   45.2170 C   0  0  0  0  0  0  0  0  0  0  0  0
   58.8360   28.5430   44.6510 C   0  0  0  0  0  0  0  0  0  0  0  0
   58.8570   29.8280   45.2530 C   0  0  0  0  0  0  0  0  0  0  0  0
   58.1290   30.8830   44.7440 N   0  0  0  0  0  0  0  0  0  0  0  0
   57.0420   30.6270   43.7730 C   0  0  0  0  0  0  0  0  0  0  0  0
   58.4070   32.1750   45.1520 C   0  0  0  0  0  0  0  0  0  0  0  0
   57.8860   33.2900   44.4520 C   0  0  0  0  0  0  0  0  0  0  0  0
   58.1310   34.5880   44.8800 C   0  0  0  0  0  0  0  0  0  0  0  0
   58.9330   34.8190   45.9860 C   0  0  0  0  0  0  0  0  0  0  0  0
   59.5090   33.7560   46.6840 C   0  0  0  0  0  0  0  0  0  0  0  0
   60.6530   34.2190   47.9430 Cl  0  0  0  0  0  0  0  0  0  0  0  0
   59.2360   32.4100   46.2920 C   0  0  0  0  0  0  0  0  0  0  0  0
   64.9555   32.7459   50.8331 H   0  0  0  0  0  0  0  0  0  0  0  0
   65.5912   31.8252   49.4278 H   0  0  0  0  0  0  0  0  0  0  0  0
   65.6534   33.6204   49.4278 H   0  0  0  0  0  0  0  0  0  0  0  0
   63.0033   32.1361   49.6458 H   0  0  0  0  0  0  0  0  0  0  0  0
   63.3465   33.8369   49.0936 H   0  0  0  0  0  0  0  0  0  0  0  0
   64.6060   31.8380   47.5000 H   0  0  0  0  0  0  0  0  0  0  0  0
   63.6409   34.4299   47.3261 H   0  0  0  0  0  0  0  0  0  0  0  0
   64.5689   33.4883   46.1100 H   0  0  0  0  0  0  0  0  0  0  0  0
   62.7734   33.4323   46.1100 H   0  0  0  0  0  0  0  0  0  0  0  0
   61.9455   31.8683   46.5913 H   0  0  0  0  0  0  0  0  0  0  0  0
   62.9748   30.4549   47.1000 H   0  0  0  0  0  0  0  0  0  0  0  0
   61.8074   30.1748   48.9888 H   0  0  0  0  0  0  0  0  0  0  0  0
   61.9629   31.9336   49.4025 H   0  0  0  0  0  0  0  0  0  0  0  0
   59.6440   31.8730   49.0450 H   0  0  0  0  0  0  0  0  0  0  0  0
   60.9232   29.0516   47.8932 H   0  0  0  0  0  0  0  0  0  0  0  0
   60.7970   26.8046   46.8346 H   0  0  0  0  0  0  0  0  0  0  0  0
   59.4926   26.4834   44.7401 H   0  0  0  0  0  0  0  0  0  0  0  0
   58.2644   28.3882   43.7240 H   0  0  0  0  0  0  0  0  0  0  0  0
   56.1103   30.4076   44.3150 H   0  0  0  0  0  0  0  0  0  0  0  0
   56.8980   31.5158   43.1411 H   0  0  0  0  0  0  0  0  0  0  0  0
   57.3097   29.7673   43.1411 H   0  0  0  0  0  0  0  0  0  0  0  0
   57.2755   33.1248   43.5520 H   0  0  0  0  0  0  0  0  0  0  0  0
   57.6866   35.4363   44.3388 H   0  0  0  0  0  0  0  0  0  0  0  0
   59.1179   35.8514   46.3177 H   0  0  0  0  0  0  0  0  0  0  0  0
  1  2  1  0
  2  3  1  0
  3  4  1  0
  3  5  1  0
  5  6  1  0
  6  7  1  0
  7  8  1  0
  8  9  2  0
  9 10  1  0
 10 11  2  0
 11 12  1  0
 12 13  2  0
 13 14  1  0
 14 15  2  0
 15 16  1  0
 15 17  1  0
 17 18  2  0
 18 19  1  0
 19 20  2  0
 20 21  1  0
 21 22  1  0
 21 23  2  0
 23  8  1  0
 14  9  1  0
 23 17  1  0
  1 24  1  0
  1 25  1  0
  1 26  1  0
  2 27  1  0
  2 28  1  0
  3 29  1  1
  4 30  1  0
  4 31  1  0
  4 32  1  0
  5 33  1  0
  5 34  1  0
  6 35  1  0
  6 36  1  0
  7 37  1  0
 10 38  1  0
 11 39  1  0
 12 40  1  0
 13 41  1  0
 16 42  1  0
 16 43  1  0
 16 44  1  0
 18 45  1  0
 19 46  1  0
 20 47  1  0
M  CHG  2   3   1  15   1
M  END
>  <UniqueID>  (4) 
4

>  <SMILES>  (4) 
CC[N@H+](C)CCNc1c2ccccc2[n+](C)c2cccc(Cl)c12

>  <Energy>  (4) 
80.90604128093861

>  <Genealogy>  (4) 
CC[NH+](C)CCNc1c2ccccc2[n+](C)c2cccc(Cl)c12 (protonated)
CC[N@H+](C)CCNc1c2ccccc2[n+](C)c2cccc(Cl)c12 (chirality)
CC[N@H+](C)CCNc1c2ccccc2[n+](C)c2cccc(Cl)c12 (3D coordinates assigned)
CC[N@H+](C)CCNc1c2ccccc2[n+](C)c2cccc(Cl)c12 (optimized conformer: 80.90604128093861 kcal/mol)

>  <smiles>  (4) 
CCN(C)CCNc1c2ccccc2[n+](C)c2cccc(Cl)c12

>  <score_type>  (4) 
oracle

>  <origin>  (4) 
adg

>  <m_score__min__energy>  (4) 
-4.8799999999999999

>  <m_primary>  (4) 
energy

$$$$
4:0
     RDKit          3D

 58 61  0  0  0  0  0  0  0  0999 V2000
   63.3680   33.8300   46.6850 C   0  0  0  0  0  0  0  0  0  0  0  0
   63.3200   32.4040   47.2230 C   0  0  0  0  0  0  0  0  0  0  0  0
   62.8480   32.3950   48.6150 N   0  0  0  0  0  0  0  0  0  0  0  0
   63.2500   33.6160   49.3260 C   0  0  0  0  0  0  0  0  0  0  0  0
   62.2080   33.9680   50.3890 C   0  0  0  0  0  0  0  0  0  0  0  0
   61.3950   32.8430   50.6700 O   0  0  0  0  0  0  0  0  0  0  0  0
   60.0460   33.2160   50.8800 C   0  0  0  0  0  0  0  0  0  0  0  0
   59.1360   32.5910   49.8160 C   0  0  0  0  0  0  0  0  0  0  0  0
   59.9060   31.8490   48.8140 N   0  0  0  0  0  0  0  0  0  0  0  0
   59.4480   31.6740   47.4620 C   0  0  0  0  0  0  0  0  0  0  0  0
   59.0510   30.4050   46.9920 C   0  0  0  0  0  0  0  0  0  0  0  0
   58.5380   30.2840   45.6810 C   0  0  0  0  0  0  0  0  0  0  0  0
   58.1630   31.4280   45.0060 N   0  0  0  0  0  0  0  0  0  0  0  0
   57.0130   31.4130   44.0790 C   0  0  0  0  0  0  0  0  0  0  0  0
   58.7150   32.6410   45.3560 C   0  0  0  0  0  0  0  0  0  0  0  0
   58.5970   33.7770   44.5190 C   0  0  0  0  0  0  0  0  0  0  0  0
   59.1540   35.0010   44.8930 C   0  0  0  0  0  0  0  0  0  0  0  0
   59.8330   35.1210   46.1020 C   0  0  0  0  0  0  0  0  0  0  0  0
   59.9560   34.0200   46.9470 C   0  0  0  0  0  0  0  0  0  0  0  0
   59.4010   32.7740   46.5890 C   0  0  0  0  0  0  0  0  0  0  0  0
   58.4200   28.9020   45.0840 C   0  0  0  0  0  0  0  0  0  0  0  0
   58.2260   28.7080   43.7410 N   0  0  0  0  0  0  0  0  0  0  0  0
   58.0530   27.4690   43.2070 C   0  0  0  0  0  0  0  0  0  0  0  0
   58.1480   26.3380   44.0100 C   0  0  0  0  0  0  0  0  0  0  0  0
   58.4880   26.4870   45.3510 C   0  0  0  0  0  0  0  0  0  0  0  0
   58.6520   27.7680   45.8960 C   0  0  0  0  0  0  0  0  0  0  0  0
   59.3240   27.9010   47.2310 C   0  0  0  0  0  0  0  0  0  0  0  0
   58.9970   29.2160   47.9260 C   0  0  0  0  0  0  0  0  0  0  0  0
   63.3919   34.5386   47.5260 H   0  0  0  0  0  0  0  0  0  0  0  0
   64.2710   33.9598   46.0704 H   0  0  0  0  0  0  0  0  0  0  0  0
   62.4758   34.0203   46.0704 H   0  0  0  0  0  0  0  0  0  0  0  0
   62.6343   31.8065   46.6043 H   0  0  0  0  0  0  0  0  0  0  0  0
   64.3327   31.9760   47.1878 H   0  0  0  0  0  0  0  0  0  0  0  0
   61.8010   32.3740   48.5950 H   0  0  0  0  0  0  0  0  0  0  0  0
   64.2238   33.4518   49.8105 H   0  0  0  0  0  0  0  0  0  0  0  0
   63.3269   34.4446   48.6066 H   0  0  0  0  0  0  0  0  0  0  0  0
   62.7207   34.2845   51.3093 H   0  0  0  0  0  0  0  0  0  0  0  0
   61.5733   34.7837   50.0125 H   0  0  0  0  0  0  0  0  0  0  0  0
   59.7272   32.8712   51.8747 H   0  0  0  0  0  0  0  0  0  0  0  0
   59.9683   34.3111   50.8111 H   0  0  0  0  0  0  0  0  0  0  0  0
   58.4332   31.9023   50.3076 H   0  0  0  0  0  0  0  0  0  0  0  0
   58.5984   33.4027   49.3041 H   0  0  0  0  0  0  0  0  0  0  0  0
   60.8620   31.5100   49.0660 H   0  0  0  0  0  0  0  0  0  0  0  0
   56.0768   31.4008   44.6564 H   0  0  0  0  0  0  0  0  0  0  0  0
   57.0412   32.3116   43.4452 H   0  0  0  0  0  0  0  0  0  0  0  0
   57.0646   30.5155   43.4452 H   0  0  0  0  0  0  0  0  0  0  0  0
   58.0600   33.6939   43.5626 H   0  0  0  0  0  0  0  0  0  0  0  0
   59.0560   35.8734   44.2302 H   0  0  0  0  0  0  0  0  0  0  0  0
   60.2733   36.0867   46.3909 H   0  0  0  0  0  0  0  0  0  0  0  0
   60.4911   34.1237   47.9025 H   0  0  0  0  0  0  0  0  0  0  0  0
   58.2630   29.5010   43.0690 H   0  0  0  0  0  0  0  0  0  0  0  0
   57.8367   27.3613   42.1339 H   0  0  0  0  0  0  0  0  0  0  0  0
   57.9570   25.3391   43.5909 H   0  0  0  0  0  0  0  0  0  0  0  0
   58.6283   25.5985   45.9842 H   0  0  0  0  0  0  0  0  0  0  0  0
   58.9951   27.0717   47.8745 H   0  0  0  0  0  0  0  0  0  0  0  0
   60.4103   27.8773   47.0596 H   0  0  0  0  0  0  0  0  0  0  0  0
   57.9837   29.1472   48.3484 H   0  0  0  0  0  0  0  0  0  0  0  0
   59.7559   29.3745   48.7063 H   0  0  0  0  0  0  0  0  0  0  0  0
  1  2  1  0
  2  3  1  0
  3  4  1  0
  4  5  1  0
  5  6  1  0
  6  7  1  0
  7  8  1  0
  8  9  1  0
  9 10  1  0
 10 11  2  0
 11 12  1  0
 12 13  2  0
 13 14  1  0
 13 15  1  0
 15 16  2  0
 16 17  1  0
 17 18  2  0
 18 19  1  0
 19 20  2  0
 12 21  1  0
 21 22  2  0
 22 23  1  0
 23 24  2  0
 24 25  1  0
 25 26  2  0
 26 27  1  0
 27 28  1  0
 20 10  1  0
 26 21  1  0
 28 11  1  0
 20 15  1  0
  1 29  1  0
  1 30  1  0
  1 31  1  0
  2 32  1  0
  2 33  1  0
  3 34  1  0
  4 35  1  0
  4 36  1  0
  5 37  1  0
  5 38  1  0
  7 39  1  0
  7 40  1  0
  8 41  1  0
  8 42  1  0
  9 43  1  0
 14 44  1  0
 14 45  1  0
 14 46  1  0
 16 47  1  0
 17 48  1  0
 18 49  1  0
 19 50  1  0
 22 51  1  0
 23 52  1  0
 24 53  1  0
 25 54  1  0
 27 55  1  0
 27 56  1  0
 28 57  1  0
 28 58  1  0
M  CHG  2  13   1  22   1
M  END
>  <UniqueID>  (5) 
5

>  <SMILES>  (5) 
CCNCCOCCNc1c2c([n+](C)c3ccccc13)-c1[nH+]cccc1CC2

>  <Energy>  (5) 
95.6348849189041

>  <Genealogy>  (5) 
CCNCCOCCNc1c2c([n+](C)c3ccccc13)-c1[nH+]cccc1CC2 (protonated)
CCNCCOCCNc1c2c([n+](C)c3ccccc13)-c1[nH+]cccc1CC2 (3D coordinates assigned)
CCNCCOCCNc1c2c([n+](C)c3ccccc13)-c1[nH+]cccc1CC2 (nonaromatic ring conformer: 95.6348849189041 kcal/mol)

>  <smiles>  (5) 
CCNCCOCCNc1c2c([n+](C)c3ccccc13)-c1ncccc1CC2

>  <score_type>  (5) 
oracle

>  <origin>  (5) 
adg

>  <m_score__min__energy>  (5) 
-5.96

>  <m_primary>  (5) 
energy

$$$$
5:0
     RDKit          3D

 63 65  0  0  0  0  0  0  0  0999 V2000
   64.5094   33.9387   47.2314 H   0  0  0  0  0  0  0  0  0  0  0  0
   63.6180   33.4330   47.6310 C   0  0  0  0  0  0  0  0  0  0  0  0
   63.2370   32.1880   47.1260 C   0  0  0  0  0  0  0  0  0  0  0  0
   63.8361   31.7118   46.3359 H   0  0  0  0  0  0  0  0  0  0  0  0
   62.0980   31.5430   47.6190 C   0  0  0  0  0  0  0  0  0  0  0  0
   61.8118   30.5581   47.2215 H   0  0  0  0  0  0  0  0  0  0  0  0
   61.3130   32.1500   48.6250 C   0  0  0  0  0  0  0  0  0  0  0  0
   60.1420   31.5560   49.1590 C   0  0  0  0  0  0  0  0  0  0  0  0
   59.6140   30.3140   48.6420 N   0  0  0  0  0  0  0  0  0  0  0  0
   59.2860   30.2640   47.6520 H   0  0  0  0  0  0  0  0  0  0  0  0
   59.5040   29.1010   49.4570 C   0  0  0  0  0  0  0  0  0  0  0  0
   58.4554   28.9673   49.7612 H   0  0  0  0  0  0  0  0  0  0  0  0
   60.1528   29.2140   50.3381 H   0  0  0  0  0  0  0  0  0  0  0  0
   59.9590   27.8640   48.6760 C   0  0  0  0  0  0  0  0  0  0  0  0
   60.0539   27.0148   49.3687 H   0  0  0  0  0  0  0  0  0  0  0  0
   60.9279   28.0821   48.2030 H   0  0  0  0  0  0  0  0  0  0  0  0
   58.9460   27.5090   47.5810 C   0  0  0  0  0  0  0  0  0  0  0  0
   57.9336   27.7488   47.9382 H   0  0  0  0  0  0  0  0  0  0  0  0
   59.0366   26.4354   47.3594 H   0  0  0  0  0  0  0  0  0  0  0  0
   59.2200   28.2940   46.2920 C   0  0  0  0  0  0  0  0  0  0  0  0
   59.4572   27.5897   45.4810 H   0  0  0  0  0  0  0  0  0  0  0  0
   60.0686   28.9737   46.4588 H   0  0  0  0  0  0  0  0  0  0  0  0
   58.0100   29.1030   45.9100 C   0  0  0  0  0  0  0  0  0  0  0  0
   57.9320   30.3260   46.3560 N   0  0  0  0  0  0  0  0  0  0  0  0
   57.7000   31.5290   45.6070 C   0  0  0  0  0  0  0  0  0  0  0  0
   56.7900   31.5750   44.7350 O   0  0  0  0  0  0  0  0  0  0  0  0
   58.6080   32.7160   45.7910 C   0  0  0  0  0  0  0  0  0  0  0  0
   59.6436   32.3713   45.6539 H   0  0  0  0  0  0  0  0  0  0  0  0
   58.4920   33.2990   47.2180 C   0  0  0  0  0  0  0  0  0  0  0  0
   57.4465   33.2152   47.5494 H   0  0  0  0  0  0  0  0  0  0  0  0
   59.1696   32.7270   47.8689 H   0  0  0  0  0  0  0  0  0  0  0  0
   58.9160   34.7820   47.2870 C   0  0  0  0  0  0  0  0  0  0  0  0
   58.0208   35.4132   47.1859 H   0  0  0  0  0  0  0  0  0  0  0  0
   59.4121   34.9508   48.2542 H   0  0  0  0  0  0  0  0  0  0  0  0
   59.8650   35.1290   46.2210 N   0  0  0  0  0  0  0  0  0  0  0  0
   60.7040   34.5040   46.2920 H   0  0  0  0  0  0  0  0  0  0  0  0
   59.2650   35.0010   44.8800 C   0  0  0  0  0  0  0  0  0  0  0  0
   58.6991   35.9192   44.6639 H   0  0  0  0  0  0  0  0  0  0  0  0
   60.0918   34.8404   44.1725 H   0  0  0  0  0  0  0  0  0  0  0  0
   58.3090   33.7940   44.7380 C   0  0  0  0  0  0  0  0  0  0  0  0
   57.2729   34.1410   44.8651 H   0  0  0  0  0  0  0  0  0  0  0  0
   58.4531   33.3534   43.7405 H   0  0  0  0  0  0  0  0  0  0  0  0
   56.9840   28.4890   45.0310 C   0  0  0  0  0  0  0  0  0  0  0  0
   57.0110   28.6750   43.7840 O   0  0  0  0  0  0  0  0  0  0  0  0
   55.9150   27.7380   45.6150 N   0  0  0  0  0  0  0  0  0  0  0  0
   56.0510   26.3510   46.0390 C   0  0  0  0  0  0  0  0  0  0  0  0
   55.0917   25.8317   45.8971 H   0  0  0  0  0  0  0  0  0  0  0  0
   56.3374   26.3261   47.1008 H   0  0  0  0  0  0  0  0  0  0  0  0
   57.1320   25.6510   45.2130 C   0  0  0  0  0  0  0  0  0  0  0  0
   57.8472   26.4046   44.8517 H   0  0  0  0  0  0  0  0  0  0  0  0
   56.6405   25.1365   44.3741 H   0  0  0  0  0  0  0  0  0  0  0  0
   57.8880   24.6050   46.0330 C   0  0  0  0  0  0  0  0  0  0  0  0
   57.7435   24.8049   47.1050 H   0  0  0  0  0  0  0  0  0  0  0  0
   57.5043   23.6027   45.7920 H   0  0  0  0  0  0  0  0  0  0  0  0
   58.9601   24.6549   45.7920 H   0  0  0  0  0  0  0  0  0  0  0  0
   59.4730   32.2260   50.1990 C   0  0  0  0  0  0  0  0  0  0  0  0
   58.5675   31.7883   50.6444 H   0  0  0  0  0  0  0  0  0  0  0  0
   59.9610   33.4470   50.6640 C   0  0  0  0  0  0  0  0  0  0  0  0
   59.3660   34.0470   51.5960 O   0  0  0  0  0  0  0  0  0  0  0  0
   61.0500   33.9850   50.1290 O   0  0  0  0  0  0  0  0  0  0  0  0
   61.7290   33.4020   49.1480 C   0  0  0  0  0  0  0  0  0  0  0  0
   62.8690   34.0360   48.6420 C   0  0  0  0  0  0  0  0  0  0  0  0
   63.1759   35.0134   49.0427 H   0  0  0  0  0  0  0  0  0  0  0  0
  1  2  1  0
  2  3  2  0
  3  4  1  0
  3  5  1  0
  5  6  1  0
  5  7  2  0
  7  8  1  0
  8  9  1  0
  9 10  1  0
  9 11  1  0
 11 12  1  0
 11 13  1  0
 11 14  1  0
 14 15  1  0
 14 16  1  0
 14 17  1  0
 17 18  1  0
 17 19  1  0
 17 20  1  0
 20 21  1  0
 20 22  1  0
 20 23  1  0
 23 24  2  0
 24 25  1  0
 25 26  2  0
 25 27  1  0
 27 28  1  0
 27 29  1  0
 29 30  1  0
 29 31  1  0
 29 32  1  0
 32 33  1  0
 32 34  1  0
 32 35  1  0
 35 36  1  0
 35 37  1  0
 37 38  1  0
 37 39  1  0
 37 40  1  0
 40 41  1  0
 40 42  1  0
 23 43  1  0
 43 44  2  0
 43 45  1  0
 45 46  1  0
 46 47  1  0
 46 48  1  0
 46 49  1  0
 49 50  1  0
 49 51  1  0
 49 52  1  0
 52 53  1  0
 52 54  1  0
 52 55  1  0
  8 56  2  0
 56 57  1  0
 56 58  1  0
 58 59  2  0
 58 60  1  0
 60 61  1  0
 61 62  2  0
 62 63  1  0
 62  2  1  0
 61  7  1  0
 40 27  1  0
M  CHG  1  45  -1
M  END
>  <UniqueID>  (6) 
6

>  <SMILES>  (6) 
CCC[N-]C(=O)/C(CCCCNc1cc(=O)oc2ccccc12)=N\C(=O)C1CCNCC1

>  <Energy>  (6) 
67.86054909701996

>  <Genealogy>  (6) 
CCC[N-]C(=O)C(CCCCNc1cc(=O)oc2ccccc12)=NC(=O)C1CCNCC1 (protonated)
CCC[N-]C(=O)/C(CCCCNc1cc(=O)oc2ccccc12)=N\C(=O)C1CCNCC1 (cis-trans isomerization)
CCC[N-]C(=O)/C(CCCCNc1cc(=O)oc2ccccc12)=N\C(=O)C1CCNCC1 (3D coordinates assigned)
CCC[N-]C(=O)/C(CCCCNc1cc(=O)oc2ccccc12)=N\C(=O)C1CCNCC1 (nonaromatic ring conformer: 67.86054909701996 kcal/mol)

>  <smiles>  (6) 
CCCNC(=O)C(CCCCNc1cc(=O)oc2ccccc12)=NC(=O)C1CCNCC1

>  <score_type>  (6) 
oracle

>  <origin>  (6) 
adg

>  <m_score__min__energy>  (6) 
-11.279999999999999

>  <m_primary>  (6) 
energy

$$$$
6:0
     RDKit          3D

 53 55  0  0  0  0  0  0  0  0999 V2000
   58.1430   27.5750   43.6630 C   0  0  0  0  0  0  0  0  0  0  0  0
   57.8760   27.4890   45.1620 C   0  0  0  0  0  0  0  0  0  0  0  0
   58.8540   28.3390   45.9270 C   0  0  0  0  0  0  0  0  0  0  0  0
   59.9690   28.8910   45.2790 C   0  0  0  0  0  0  0  0  0  0  0  0
   60.8570   29.7110   45.9800 C   0  0  0  0  0  0  0  0  0  0  0  0
   60.6430   30.0020   47.3320 C   0  0  0  0  0  0  0  0  0  0  0  0
   61.5620   30.8440   47.9780 O   0  0  0  0  0  0  0  0  0  0  0  0
   62.8340   31.2410   47.4670 C   0  0  0  0  0  0  0  0  0  0  0  0
   63.1560   32.7260   47.7500 C   0  0  0  0  0  0  0  0  0  0  0  0
   62.0110   33.6740   47.6520 N   0  0  0  0  0  0  0  0  0  0  0  0
   61.1400   33.6790   48.8640 C   0  0  0  0  0  0  0  0  0  0  0  0
   59.6740   33.3380   48.5600 C   0  0  0  0  0  0  0  0  0  0  0  0
   59.1250   34.2200   47.5070 N   0  0  0  0  0  0  0  0  0  0  0  0
   57.7660   33.8200   47.0770 C   0  0  0  0  0  0  0  0  0  0  0  0
   57.7530   33.0290   45.7930 C   0  0  0  0  0  0  0  0  0  0  0  0
   57.7720   31.6410   45.6970 C   0  0  0  0  0  0  0  0  0  0  0  0
   57.7840   31.1750   44.3780 C   0  0  0  0  0  0  0  0  0  0  0  0
   57.7820   32.1970   43.4370 C   0  0  0  0  0  0  0  0  0  0  0  0
   57.7370   32.0180   41.9560 C   0  0  0  0  0  0  0  0  0  0  0  0
   57.7360   33.6750   44.2380 S   0  0  0  0  0  0  0  0  0  0  0  0
   60.0510   34.4990   46.3820 C   0  0  0  0  0  0  0  0  0  0  0  0
   61.2620   33.5580   46.3770 C   0  0  0  0  0  0  0  0  0  0  0  0
   59.5200   29.4530   47.9830 C   0  0  0  0  0  0  0  0  0  0  0  0
   58.6300   28.6340   47.2810 C   0  0  0  0  0  0  0  0  0  0  0  0
   59.1775   27.9082   43.4934 H   0  0  0  0  0  0  0  0  0  0  0  0
   57.9974   26.5845   43.2072 H   0  0  0  0  0  0  0  0  0  0  0  0
   57.4467   28.2943   43.2072 H   0  0  0  0  0  0  0  0  0  0  0  0
   56.8542   27.8409   45.3674 H   0  0  0  0  0  0  0  0  0  0  0  0
   57.9914   26.4429   45.4819 H   0  0  0  0  0  0  0  0  0  0  0  0
   60.1450   28.6774   44.2144 H   0  0  0  0  0  0  0  0  0  0  0  0
   61.7327   30.1318   45.4642 H   0  0  0  0  0  0  0  0  0  0  0  0
   63.6106   30.6177   47.9343 H   0  0  0  0  0  0  0  0  0  0  0  0
   62.8079   31.1099   46.3751 H   0  0  0  0  0  0  0  0  0  0  0  0
   63.5622   32.7936   48.7700 H   0  0  0  0  0  0  0  0  0  0  0  0
   63.8611   33.0312   46.9628 H   0  0  0  0  0  0  0  0  0  0  0  0
   62.4580   34.6230   47.6220 H   0  0  0  0  0  0  0  0  0  0  0  0
   61.5301   32.9381   49.5773 H   0  0  0  0  0  0  0  0  0  0  0  0
   61.1587   34.6994   49.2744 H   0  0  0  0  0  0  0  0  0  0  0  0
   59.6118   32.2934   48.2210 H   0  0  0  0  0  0  0  0  0  0  0  0
   59.0856   33.4846   49.4778 H   0  0  0  0  0  0  0  0  0  0  0  0
   57.3162   33.2048   47.8702 H   0  0  0  0  0  0  0  0  0  0  0  0
   57.1976   34.7441   46.8951 H   0  0  0  0  0  0  0  0  0  0  0  0
   57.7771   30.9752   46.5726 H   0  0  0  0  0  0  0  0  0  0  0  0
   57.7940   30.1075   44.1128 H   0  0  0  0  0  0  0  0  0  0  0  0
   57.4750   30.9760   41.7204 H   0  0  0  0  0  0  0  0  0  0  0  0
   56.9804   32.6921   41.5280 H   0  0  0  0  0  0  0  0  0  0  0  0
   58.7224   32.2541   41.5280 H   0  0  0  0  0  0  0  0  0  0  0  0
   59.5043   34.3768   45.4353 H   0  0  0  0  0  0  0  0  0  0  0  0
   60.4244   35.5268   46.5008 H   0  0  0  0  0  0  0  0  0  0  0  0
   60.9153   32.5214   46.2531 H   0  0  0  0  0  0  0  0  0  0  0  0
   61.9267   33.8356   45.5457 H   0  0  0  0  0  0  0  0  0  0  0  0
   59.3430   29.6695   49.0469 H   0  0  0  0  0  0  0  0  0  0  0  0
   57.7494   28.2186   47.7928 H   0  0  0  0  0  0  0  0  0  0  0  0
  1  2  1  0
  2  3  1  0
  3  4  2  0
  4  5  1  0
  5  6  2  0
  6  7  1  0
  7  8  1  0
  8  9  1  0
  9 10  1  0
 10 11  1  0
 11 12  1  0
 12 13  1  0
 13 14  1  0
 14 15  1  0
 15 16  2  0
 16 17  1  0
 17 18  2  0
 18 19  1  0
 18 20  1  0
 13 21  1  0
 21 22  1  0
  6 23  1  0
 23 24  2  0
 24  3  1  0
 22 10  1  0
 20 15  1  0
  1 25  1  0
  1 26  1  0
  1 27  1  0
  2 28  1  0
  2 29  1  0
  4 30  1  0
  5 31  1  0
  8 32  1  0
  8 33  1  0
  9 34  1  0
  9 35  1  0
 10 36  1  0
 11 37  1  0
 11 38  1  0
 12 39  1  0
 12 40  1  0
 14 41  1  0
 14 42  1  0
 16 43  1  0
 17 44  1  0
 19 45  1  0
 19 46  1  0
 19 47  1  0
 21 48  1  0
 21 49  1  0
 22 50  1  0
 22 51  1  0
 23 52  1  0
 24 53  1  0
M  CHG  1  10   1
M  END
>  <UniqueID>  (7) 
7

>  <SMILES>  (7) 
CCc1ccc(OCC[NH+]2CCN(Cc3ccc(C)s3)CC2)cc1

>  <Energy>  (7) 
91.90001830002625

>  <Genealogy>  (7) 
CCc1ccc(OCC[NH+]2CCN(Cc3ccc(C)s3)CC2)cc1 (protonated)
CCc1ccc(OCC[NH+]2CCN(Cc3ccc(C)s3)CC2)cc1 (3D coordinates assigned)
CCc1ccc(OCC[NH+]2CCN(Cc3ccc(C)s3)CC2)cc1 (nonaromatic ring conformer: 91.90001830002625 kcal/mol)

>  <smiles>  (7) 
CCc1ccc(OCCN2CCN(Cc3ccc(C)s3)CC2)cc1

>  <score_type>  (7) 
oracle

>  <origin>  (7) 
adg

>  <m_score__min__energy>  (7) 
-6.0599999999999996

>  <m_primary>  (7) 
energy

$$$$
7:0
     RDKit          3D

 45 47  0  0  0  0  0  0  0  0999 V2000
   56.2700   30.0140   42.7030 C   0  0  0  0  0  0  0  0  0  0  0  0
   55.5230   30.0380   44.0400 C   0  0  0  0  0  0  0  0  0  0  0  0
   55.8940   28.9150   44.9130 N   0  0  0  0  0  0  0  0  0  0  0  0
   57.1840   28.3180   44.5390 C   0  0  0  0  0  0  0  0  0  0  0  0
   58.3240   29.2790   44.8780 C   0  0  0  0  0  0  0  0  0  0  0  0
   57.9460   30.1790   45.9680 N   0  0  0  0  0  0  0  0  0  0  0  0
   58.9160   31.0090   46.6350 C   0  0  0  0  0  0  0  0  0  0  0  0
   59.0830   32.3520   46.2460 C   0  0  0  0  0  0  0  0  0  0  0  0
   58.3280   32.9000   45.1860 C   0  0  0  0  0  0  0  0  0  0  0  0
   58.4330   34.2490   44.8590 C   0  0  0  0  0  0  0  0  0  0  0  0
   59.2800   35.0770   45.5830 C   0  0  0  0  0  0  0  0  0  0  0  0
   60.0530   34.5540   46.6200 C   0  0  0  0  0  0  0  0  0  0  0  0
   60.0030   33.1750   46.9500 C   0  0  0  0  0  0  0  0  0  0  0  0
   60.8030   32.6360   47.9400 N   0  0  0  0  0  0  0  0  0  0  0  0
   61.9470   33.4130   48.4710 C   0  0  0  0  0  0  0  0  0  0  0  0
   60.5640   31.3550   48.4050 C   0  0  0  0  0  0  0  0  0  0  0  0
   61.1980   30.8550   49.5720 C   0  0  0  0  0  0  0  0  0  0  0  0
   61.0230   29.5280   49.9820 C   0  0  0  0  0  0  0  0  0  0  0  0
   61.6820   29.0440   51.1550 N   0  0  0  0  0  0  0  0  0  0  0  0
   60.2050   28.6790   49.2390 C   0  0  0  0  0  0  0  0  0  0  0  0
   59.5280   29.1590   48.1210 C   0  0  0  0  0  0  0  0  0  0  0  0
   59.6570   30.5050   47.7190 C   0  0  0  0  0  0  0  0  0  0  0  0
   57.3536   29.9792   42.8890 H   0  0  0  0  0  0  0  0  0  0  0  0
   55.9676   29.1251   42.1299 H   0  0  0  0  0  0  0  0  0  0  0  0
   56.0253   30.9205   42.1299 H   0  0  0  0  0  0  0  0  0  0  0  0
   55.7573   30.9797   44.5580 H   0  0  0  0  0  0  0  0  0  0  0  0
   54.4480   29.9517   43.8235 H   0  0  0  0  0  0  0  0  0  0  0  0
   55.1480   28.1800   44.8710 H   0  0  0  0  0  0  0  0  0  0  0  0
   57.3240   27.3775   45.0921 H   0  0  0  0  0  0  0  0  0  0  0  0
   57.1894   28.1194   43.4571 H   0  0  0  0  0  0  0  0  0  0  0  0
   59.2065   28.6969   45.1820 H   0  0  0  0  0  0  0  0  0  0  0  0
   58.5487   29.8836   43.9869 H   0  0  0  0  0  0  0  0  0  0  0  0
   57.0210   30.0240   46.4300 H   0  0  0  0  0  0  0  0  0  0  0  0
   57.6486   32.2530   44.6117 H   0  0  0  0  0  0  0  0  0  0  0  0
   57.8439   34.6595   44.0257 H   0  0  0  0  0  0  0  0  0  0  0  0
   59.3418   36.1477   45.3385 H   0  0  0  0  0  0  0  0  0  0  0  0
   60.7130   35.2227   47.1920 H   0  0  0  0  0  0  0  0  0  0  0  0
   61.9226   33.3964   49.5706 H   0  0  0  0  0  0  0  0  0  0  0  0
   62.8886   32.9668   48.1183 H   0  0  0  0  0  0  0  0  0  0  0  0
   61.8793   34.4527   48.1183 H   0  0  0  0  0  0  0  0  0  0  0  0
   61.8393   31.5230   50.1658 H   0  0  0  0  0  0  0  0  0  0  0  0
   61.5100   29.4820   52.0870 H   0  0  0  0  0  0  0  0  0  0  0  0
   62.3490   28.2420   51.1010 H   0  0  0  0  0  0  0  0  0  0  0  0
   60.0938   27.6259   49.5368 H   0  0  0  0  0  0  0  0  0  0  0  0
   58.8839   28.4795   47.5435 H   0  0  0  0  0  0  0  0  0  0  0  0
  1  2  1  0
  2  3  1  0
  3  4  1  0
  4  5  1  0
  5  6  1  0
  6  7  1  0
  7  8  2  0
  8  9  1  0
  9 10  2  0
 10 11  1  0
 11 12  2  0
 12 13  1  0
 13 14  2  0
 14 15  1  0
 14 16  1  0
 16 17  2  0
 17 18  1  0
 18 19  1  0
 18 20  2  0
 20 21  1  0
 21 22  2  0
 22  7  1  0
 13  8  1  0
 22 16  1  0
  1 23  1  0
  1 24  1  0
  1 25  1  0
  2 26  1  0
  2 27  1  0
  3 28  1  0
  4 29  1  0
  4 30  1  0
  5 31  1  0
  5 32  1  0
  6 33  1  0
  9 34  1  0
 10 35  1  0
 11 36  1  0
 12 37  1  0
 15 38  1  0
 15 39  1  0
 15 40  1  0
 17 41  1  0
 19 42  1  0
 19 43  1  0
 20 44  1  0
 21 45  1  0
M  CHG  1  14   1
M  END
>  <UniqueID>  (8) 
8

>  <SMILES>  (8) 
CCNCCNc1c2ccccc2[n+](C)c2cc(N)ccc12

>  <Energy>  (8) 
66.84855825751258

>  <Genealogy>  (8) 
CCNCCNc1c2ccccc2[n+](C)c2cc(N)ccc12 (3D coordinates assigned)
CCNCCNc1c2ccccc2[n+](C)c2cc(N)ccc12 (optimized conformer: 66.84855825751258 kcal/mol)

>  <smiles>  (8) 
CCNCCNc1c2ccccc2[n+](C)c2cc(N)ccc12

>  <score_type>  (8) 
oracle

>  <origin>  (8) 
adg

>  <m_score__min__energy>  (8) 
-5.6900000000000004

>  <m_primary>  (8) 
energy

$$$$
8:0
     RDKit          3D

 54 57  0  0  0  0  0  0  0  0999 V2000
   58.5310   34.5420   52.6910 C   0  0  0  0  0  0  0  0  0  0  0  0
   58.9660   33.3880   53.6000 C   0  0  0  0  0  0  0  0  0  0  0  0
   58.4630   32.0680   53.1190 N   0  0  0  0  0  0  0  0  0  0  0  0
   57.5310   32.1940   51.9670 C   0  0  0  0  0  0  0  0  0  0  0  0
   56.4130   31.1470   52.0020 C   0  0  0  0  0  0  0  0  0  0  0  0
   59.5750   31.1310   52.8070 C   0  0  0  0  0  0  0  0  0  0  0  0
   60.0460   31.1600   51.3300 C   0  0  0  0  0  0  0  0  0  0  0  0
   60.5530   32.4830   50.9610 N   0  0  0  0  0  0  0  0  0  0  0  0
   61.1740   32.7220   49.6870 C   0  0  0  0  0  0  0  0  0  0  0  0
   60.4190   33.1020   48.5500 C   0  0  0  0  0  0  0  0  0  0  0  0
   59.0100   33.0910   48.5840 C   0  0  0  0  0  0  0  0  0  0  0  0
   58.2670   33.4420   47.4600 C   0  0  0  0  0  0  0  0  0  0  0  0
   58.9090   33.7900   46.2750 C   0  0  0  0  0  0  0  0  0  0  0  0
   57.9590   34.2020   44.8580 Cl  0  0  0  0  0  0  0  0  0  0  0  0
   60.3030   33.7930   46.2050 C   0  0  0  0  0  0  0  0  0  0  0  0
   61.0930   33.4620   47.3340 C   0  0  0  0  0  0  0  0  0  0  0  0
   62.4780   33.4650   47.2740 N   0  0  0  0  0  0  0  0  0  0  0  0
   63.1960   33.9440   46.0770 C   0  0  0  0  0  0  0  0  0  0  0  0
   63.1760   32.9850   48.3510 C   0  0  0  0  0  0  0  0  0  0  0  0
   64.5210   32.8220   48.4330 N   0  0  0  0  0  0  0  0  0  0  0  0
   64.7440   32.3590   49.6790 C   0  0  0  0  0  0  0  0  0  0  0  0
   65.9800   32.0460   50.2400 C   0  0  0  0  0  0  0  0  0  0  0  0
   66.0120   31.5720   51.5640 C   0  0  0  0  0  0  0  0  0  0  0  0
   67.7120   31.1520   52.3400 Br  0  0  0  0  0  0  0  0  0  0  0  0
   64.8040   31.4110   52.2910 C   0  0  0  0  0  0  0  0  0  0  0  0
   64.8010   30.7670   54.0940 Br  0  0  0  0  0  0  0  0  0  0  0  0
   63.5700   31.7250   51.6940 C   0  0  0  0  0  0  0  0  0  0  0  0
   63.5710   32.2120   50.3860 C   0  0  0  0  0  0  0  0  0  0  0  0
   62.5560   32.6140   49.5300 C   0  0  0  0  0  0  0  0  0  0  0  0
   58.2099   35.3940   53.3083 H   0  0  0  0  0  0  0  0  0  0  0  0
   59.3758   34.8471   52.0560 H   0  0  0  0  0  0  0  0  0  0  0  0
   57.6950   34.2135   52.0560 H   0  0  0  0  0  0  0  0  0  0  0  0
   60.0651   33.3576   53.6317 H   0  0  0  0  0  0  0  0  0  0  0  0
   58.5403   33.5670   54.5983 H   0  0  0  0  0  0  0  0  0  0  0  0
   57.9280   31.5980   53.8890 H   0  0  0  0  0  0  0  0  0  0  0  0
   57.0773   33.1959   51.9878 H   0  0  0  0  0  0  0  0  0  0  0  0
   58.1120   32.0332   51.0469 H   0  0  0  0  0  0  0  0  0  0  0  0
   56.1627   30.9126   53.0472 H   0  0  0  0  0  0  0  0  0  0  0  0
   55.5229   31.5439   51.4920 H   0  0  0  0  0  0  0  0  0  0  0  0
   56.7507   30.2328   51.4920 H   0  0  0  0  0  0  0  0  0  0  0  0
   60.4321   31.3903   53.4459 H   0  0  0  0  0  0  0  0  0  0  0  0
   59.1907   30.1172   52.9926 H   0  0  0  0  0  0  0  0  0  0  0  0
   60.8470   30.4183   51.1943 H   0  0  0  0  0  0  0  0  0  0  0  0
   59.1859   30.9249   50.6858 H   0  0  0  0  0  0  0  0  0  0  0  0
   60.5020   33.2630   51.6530 H   0  0  0  0  0  0  0  0  0  0  0  0
   58.4911   32.8016   49.5097 H   0  0  0  0  0  0  0  0  0  0  0  0
   57.1681   33.4443   47.5087 H   0  0  0  0  0  0  0  0  0  0  0  0
   60.7965   34.0566   45.2579 H   0  0  0  0  0  0  0  0  0  0  0  0
   64.0742   34.5299   46.3862 H   0  0  0  0  0  0  0  0  0  0  0  0
   63.5230   33.0825   45.4763 H   0  0  0  0  0  0  0  0  0  0  0  0
   62.5261   34.5767   45.4763 H   0  0  0  0  0  0  0  0  0  0  0  0
   65.2510   32.9830   47.7070 H   0  0  0  0  0  0  0  0  0  0  0  0
   66.9081   32.1665   49.6619 H   0  0  0  0  0  0  0  0  0  0  0  0
   62.6272   31.5901   52.2444 H   0  0  0  0  0  0  0  0  0  0  0  0
  1  2  1  0
  2  3  1  0
  3  4  1  0
  4  5  1  0
  3  6  1  0
  6  7  1  0
  7  8  1  0
  8  9  1  0
  9 10  2  0
 10 11  1  0
 11 12  2  0
 12 13  1  0
 13 14  1  0
 13 15  2  0
 15 16  1  0
 16 17  2  0
 17 18  1  0
 17 19  1  0
 19 20  1  0
 20 21  1  0
 21 22  2  0
 22 23  1  0
 23 24  1  0
 23 25  2  0
 25 26  1  0
 25 27  1  0
 27 28  2  0
 28 29  1  0
 29  9  1  0
 16 10  1  0
 29 19  2  0
 28 21  1  0
  1 30  1  0
  1 31  1  0
  1 32  1  0
  2 33  1  0
  2 34  1  0
  3 35  1  0
  4 36  1  0
  4 37  1  0
  5 38  1  0
  5 39  1  0
  5 40  1  0
  6 41  1  0
  6 42  1  0
  7 43  1  0
  7 44  1  0
  8 45  1  0
 11 46  1  0
 12 47  1  0
 15 48  1  0
 18 49  1  0
 18 50  1  0
 18 51  1  0
 20 52  1  0
 22 53  1  0
 27 54  1  0
M  CHG  2   3   1  17   1
M  END
>  <UniqueID>  (9) 
9

>  <SMILES>  (9) 
CC[NH+](CC)CCNc1c2ccc(Cl)cc2[n+](C)c2[nH]c3cc(Br)c(Br)cc3c12

>  <Energy>  (9) 
120.45005374327296

>  <Genealogy>  (9) 
CC[NH+](CC)CCNc1c2ccc(Cl)cc2[n+](C)c2[nH]c3cc(Br)c(Br)cc3c12 (protonated)
CC[NH+](CC)CCNc1c2ccc(Cl)cc2[n+](C)c2[nH]c3cc(Br)c(Br)cc3c12 (3D coordinates assigned)
CC[NH+](CC)CCNc1c2ccc(Cl)cc2[n+](C)c2[nH]c3cc(Br)c(Br)cc3c12 (optimized conformer: 120.45005374327296 kcal/mol)

>  <smiles>  (9) 
CCN(CC)CCNc1c2ccc(Cl)cc2[n+](C)c2[nH]c3cc(Br)c(Br)cc3c12

>  <score_type>  (9) 
oracle

>  <origin>  (9) 
adg

>  <m_score__min__energy>  (9) 
-5.04

>  <m_primary>  (9) 
energy

$$$$
9:0
     RDKit          3D

 38 40  0  0  0  0  0  0  0  0999 V2000
   57.7640   25.8350   43.5440 C   0  0  0  0  0  0  0  0  0  0  0  0
   57.8700   27.0560   42.6260 C   0  0  0  0  0  0  0  0  0  0  0  0
   57.6250   28.3280   43.3320 N   0  0  0  0  0  0  0  0  0  0  0  0
   56.7280   29.2670   42.6280 C   0  0  0  0  0  0  0  0  0  0  0  0
   56.2450   30.4270   43.5110 C   0  0  0  0  0  0  0  0  0  0  0  0
   56.3980   30.0920   44.8720 O   0  0  0  0  0  0  0  0  0  0  0  0
   57.4780   30.7810   45.3350 N   0  0  0  0  0  0  0  0  0  0  0  0
   58.6560   30.0770   45.7550 C   0  0  0  0  0  0  0  0  0  0  0  0
   58.7000   28.8200   45.6600 O   0  0  0  0  0  0  0  0  0  0  0  0
   59.8080   30.8300   46.2980 C   0  0  0  0  0  0  0  0  0  0  0  0
   60.9850   30.1620   46.6780 C   0  0  0  0  0  0  0  0  0  0  0  0
   62.0720   30.8750   47.1880 C   0  0  0  0  0  0  0  0  0  0  0  0
   62.0020   32.2620   47.3270 C   0  0  0  0  0  0  0  0  0  0  0  0
   60.8380   32.9510   46.9570 C   0  0  0  0  0  0  0  0  0  0  0  0
   60.7660   34.3430   47.1010 C   0  0  0  0  0  0  0  0  0  0  0  0
   59.6070   35.0290   46.7360 C   0  0  0  0  0  0  0  0  0  0  0  0
   58.5100   34.3360   46.2240 C   0  0  0  0  0  0  0  0  0  0  0  0
   58.5580   32.9390   46.0690 C   0  0  0  0  0  0  0  0  0  0  0  0
   59.7280   32.2360   46.4370 C   0  0  0  0  0  0  0  0  0  0  0  0
   57.3950   32.2010   45.5250 C   0  0  0  0  0  0  0  0  0  0  0  0
   56.3310   32.8100   45.2280 O   0  0  0  0  0  0  0  0  0  0  0  0
   57.7924   26.1620   44.5939 H   0  0  0  0  0  0  0  0  0  0  0  0
   56.8170   25.3106   43.3488 H   0  0  0  0  0  0  0  0  0  0  0  0
   58.6065   25.1552   43.3488 H   0  0  0  0  0  0  0  0  0  0  0  0
   58.8812   27.0835   42.1939 H   0  0  0  0  0  0  0  0  0  0  0  0
   57.0962   26.9544   41.8508 H   0  0  0  0  0  0  0  0  0  0  0  0
   58.5430   28.8060   43.4940 H   0  0  0  0  0  0  0  0  0  0  0  0
   57.2210   28.1140   44.2730 H   0  0  0  0  0  0  0  0  0  0  0  0
   57.2686   29.6862   41.7666 H   0  0  0  0  0  0  0  0  0  0  0  0
   55.8372   28.6983   42.3230 H   0  0  0  0  0  0  0  0  0  0  0  0
   56.8382   31.3262   43.2881 H   0  0  0  0  0  0  0  0  0  0  0  0
   55.1822   30.6208   43.3037 H   0  0  0  0  0  0  0  0  0  0  0  0
   61.0503   29.0690   46.5728 H   0  0  0  0  0  0  0  0  0  0  0  0
   62.9878   30.3410   47.4816 H   0  0  0  0  0  0  0  0  0  0  0  0
   62.8630   32.8167   47.7282 H   0  0  0  0  0  0  0  0  0  0  0  0
   61.6267   34.8972   47.5035 H   0  0  0  0  0  0  0  0  0  0  0  0
   59.5582   36.1217   46.8526 H   0  0  0  0  0  0  0  0  0  0  0  0
   57.6009   34.8861   45.9395 H   0  0  0  0  0  0  0  0  0  0  0  0
  1  2  1  0
  2  3  1  0
  3  4  1  0
  4  5  1  0
  5  6  1  0
  6  7  1  0
  7  8  1  0
  8  9  2  0
  8 10  1  0
 10 11  1  0
 11 12  2  0
 12 13  1  0
 13 14  2  0
 14 15  1  0
 15 16  2  0
 16 17  1  0
 17 18  2  0
 18 19  1  0
 18 20  1  0
 20 21  2  0
 20  7  1  0
 19 10  2  0
 19 14  1  0
  1 22  1  0
  1 23  1  0
  1 24  1  0
  2 25  1  0
  2 26  1  0
  3 27  1  0
  3 28  1  0
  4 29  1  0
  4 30  1  0
  5 31  1  0
  5 32  1  0
 11 33  1  0
 12 34  1  0
 13 35  1  0
 15 36  1  0
 16 37  1  0
 17 38  1  0
M  CHG  1   3   1
M  END
>  <UniqueID>  (10) 
10

>  <SMILES>  (10) 
CC[NH2+]CCON1C(=O)c2cccc3cccc(c23)C1=O

>  <Energy>  (10) 
42.679071767767205

>  <Genealogy>  (10) 
CC[NH2+]CCON1C(=O)c2cccc3cccc(c23)C1=O (protonated)
CC[NH2+]CCON1C(=O)c2cccc3cccc(c23)C1=O (3D coordinates assigned)
CC[NH2+]CCON1C(=O)c2cccc3cccc(c23)C1=O (nonaromatic ring conformer: 42.679071767767205 kcal/mol)

>  <smiles>  (10) 
CCNCCON1C(=O)c2cccc3cccc(c23)C1=O

>  <score_type>  (10) 
oracle

>  <origin>  (10) 
adg

>  <m_score__min__energy>  (10) 
-5.3300000000000001

>  <m_primary>  (10) 
energy

$$$$
10:0
     RDKit          3D

 38 40  0  0  0  0  0  0  0  0999 V2000
   58.8090   34.6120   45.3030 C   0  0  0  0  0  0  0  0  0  0  0  0
   58.7420   33.7400   46.5530 C   0  0  0  0  0  0  0  0  0  0  0  0
   59.1120   32.3440   46.2340 N   0  0  0  0  0  0  0  0  0  0  0  0
   60.3250   31.8360   46.6290 C   0  0  0  0  0  0  0  0  0  0  0  0
   61.3000   32.6630   47.2840 N   0  0  0  0  0  0  0  0  0  0  0  0
   61.8320   33.8420   46.5970 C   0  0  0  0  0  0  0  0  0  0  0  0
   63.3540   33.7070   46.3870 C   0  0  0  0  0  0  0  0  0  0  0  0
   64.0390   32.9090   47.4270 N   0  0  0  0  0  0  0  0  0  0  0  0
   63.3070   32.8700   48.6990 C   0  0  0  0  0  0  0  0  0  0  0  0
   61.9470   32.1860   48.5100 C   0  0  0  0  0  0  0  0  0  0  0  0
   60.6400   30.5390   46.3780 N   0  0  0  0  0  0  0  0  0  0  0  0
   59.7790   29.7070   45.7400 C   0  0  0  0  0  0  0  0  0  0  0  0
   60.1490   28.3740   45.5020 C   0  0  0  0  0  0  0  0  0  0  0  0
   59.2790   27.5060   44.8490 C   0  0  0  0  0  0  0  0  0  0  0  0
   58.0310   27.9560   44.4270 C   0  0  0  0  0  0  0  0  0  0  0  0
   57.6350   29.2810   44.6510 C   0  0  0  0  0  0  0  0  0  0  0  0
   56.0310   29.7260   44.0660 Cl  0  0  0  0  0  0  0  0  0  0  0  0
   58.5160   30.1810   45.3170 C   0  0  0  0  0  0  0  0  0  0  0  0
   58.2060   31.5350   45.5900 C   0  0  0  0  0  0  0  0  0  0  0  0
   57.0880   32.0090   45.2460 O   0  0  0  0  0  0  0  0  0  0  0  0
   58.8902   35.6688   45.5971 H   0  0  0  0  0  0  0  0  0  0  0  0
   59.6881   34.3291   44.7053 H   0  0  0  0  0  0  0  0  0  0  0  0
   57.8970   34.4668   44.7053 H   0  0  0  0  0  0  0  0  0  0  0  0
   59.4383   34.1352   47.3073 H   0  0  0  0  0  0  0  0  0  0  0  0
   57.7127   33.7544   46.9408 H   0  0  0  0  0  0  0  0  0  0  0  0
   61.3396   33.9432   45.6186 H   0  0  0  0  0  0  0  0  0  0  0  0
   61.6367   34.7308   47.2149 H   0  0  0  0  0  0  0  0  0  0  0  0
   63.5269   33.2261   45.4129 H   0  0  0  0  0  0  0  0  0  0  0  0
   63.7727   34.7228   46.4398 H   0  0  0  0  0  0  0  0  0  0  0  0
   64.1500   31.9270   47.0790 H   0  0  0  0  0  0  0  0  0  0  0  0
   63.8957   32.3086   49.4394 H   0  0  0  0  0  0  0  0  0  0  0  0
   63.1439   33.8998   49.0496 H   0  0  0  0  0  0  0  0  0  0  0  0
   62.0950   31.0981   48.4418 H   0  0  0  0  0  0  0  0  0  0  0  0
   61.3042   32.4274   49.3693 H   0  0  0  0  0  0  0  0  0  0  0  0
   61.5780   30.1860   46.6820 H   0  0  0  0  0  0  0  0  0  0  0  0
   61.1336   28.0129   45.8340 H   0  0  0  0  0  0  0  0  0  0  0  0
   59.5777   26.4633   44.6661 H   0  0  0  0  0  0  0  0  0  0  0  0
   57.3485   27.2638   43.9122 H   0  0  0  0  0  0  0  0  0  0  0  0
  1  2  1  0
  2  3  1  0
  3  4  1  0
  4  5  1  0
  5  6  1  0
  6  7  1  0
  7  8  1  0
  8  9  1  0
  9 10  1  0
  4 11  2  0
 11 12  1  0
 12 13  2  0
 13 14  1  0
 14 15  2  0
 15 16  1  0
 16 17  1  0
 16 18  2  0
 18 19  1  0
 19 20  2  0
 19  3  1  0
 10  5  1  0
 18 12  1  0
  1 21  1  0
  1 22  1  0
  1 23  1  0
  2 24  1  0
  2 25  1  0
  6 26  1  0
  6 27  1  0
  7 28  1  0
  7 29  1  0
  8 30  1  0
  9 31  1  0
  9 32  1  0
 10 33  1  0
 10 34  1  0
 11 35  1  0
 13 36  1  0
 14 37  1  0
 15 38  1  0
M  CHG  1  11   1
M  END
>  <UniqueID>  (11) 
11

>  <SMILES>  (11) 
CCn1c(N2CCNCC2)[nH+]c2cccc(Cl)c2c1=O

>  <Energy>  (11) 
58.416117080580705

>  <Genealogy>  (11) 
CCn1c(N2CCNCC2)[nH+]c2cccc(Cl)c2c1=O (protonated)
CCn1c(N2CCNCC2)[nH+]c2cccc(Cl)c2c1=O (3D coordinates assigned)
CCn1c(N2CCNCC2)[nH+]c2cccc(Cl)c2c1=O (nonaromatic ring conformer: 58.416117080580705 kcal/mol)

>  <smiles>  (11) 
CCn1c(N2CCNCC2)nc2cccc(Cl)c2c1=O

>  <score_type>  (11) 
oracle

>  <origin>  (11) 
adg

>  <m_score__min__energy>  (11) 
-6.2599999999999998

>  <m_primary>  (11) 
energy

$$$$
11:0
     RDKit          3D

 46 48  0  0  0  0  0  0  0  0999 V2000
   54.7510   23.5560   44.7290 C   0  0  0  0  0  0  0  0  0  0  0  0
   55.4170   23.3460   43.3580 C   0  0  0  0  0  0  0  0  0  0  0  0
   56.8970   23.3840   43.3910 N   0  0  0  0  0  0  0  0  0  0  0  0
   57.4590   22.3030   44.2220 C   0  0  0  0  0  0  0  0  0  0  0  0
   57.4200   24.7210   43.7690 C   0  0  0  0  0  0  0  0  0  0  0  0
   58.0130   24.7090   45.1880 C   0  0  0  0  0  0  0  0  0  0  0  0
   57.0450   25.2190   46.1580 N   0  0  0  0  0  0  0  0  0  0  0  0
   56.4020   26.4900   46.0350 C   0  0  0  0  0  0  0  0  0  0  0  0
   55.1430   26.5460   46.0280 O   0  0  0  0  0  0  0  0  0  0  0  0
   57.2200   27.7220   45.8730 C   0  0  0  0  0  0  0  0  0  0  0  0
   56.7840   28.6760   44.9340 C   0  0  0  0  0  0  0  0  0  0  0  0
   57.4760   29.8760   44.7750 C   0  0  0  0  0  0  0  0  0  0  0  0
   56.9220   31.0870   43.5720 S   0  0  0  0  0  0  0  0  0  0  0  0
   57.7770   32.4260   44.4030 C   0  0  0  0  0  0  0  0  0  0  0  0
   58.6700   33.2330   43.7910 N   0  0  0  0  0  0  0  0  0  0  0  0
   59.1890   34.1510   44.6060 N   0  0  0  0  0  0  0  0  0  0  0  0
   58.6980   34.0870   45.8620 C   0  0  0  0  0  0  0  0  0  0  0  0
   59.1660   34.9570   46.9780 C   0  0  0  0  0  0  0  0  0  0  0  0
   57.5860   32.8280   46.0250 S   0  0  0  0  0  0  0  0  0  0  0  0
   58.5700   30.1350   45.5300 N   0  0  0  0  0  0  0  0  0  0  0  0
   59.0430   29.2480   46.4430 C   0  0  0  0  0  0  0  0  0  0  0  0
   60.1810   29.5770   47.1870 C   0  0  0  0  0  0  0  0  0  0  0  0
   60.7130   28.6670   48.0980 C   0  0  0  0  0  0  0  0  0  0  0  0
   60.1250   27.4120   48.2520 C   0  0  0  0  0  0  0  0  0  0  0  0
   58.9890   27.0660   47.5140 C   0  0  0  0  0  0  0  0  0  0  0  0
   58.4000   27.9920   46.6230 C   0  0  0  0  0  0  0  0  0  0  0  0
   55.4736   23.3281   45.5264 H   0  0  0  0  0  0  0  0  0  0  0  0
   54.4217   24.6016   44.8204 H   0  0  0  0  0  0  0  0  0  0  0  0
   53.8815   22.8884   44.8204 H   0  0  0  0  0  0  0  0  0  0  0  0
   55.1055   22.3651   42.9696 H   0  0  0  0  0  0  0  0  0  0  0  0
   55.0931   24.1798   42.7177 H   0  0  0  0  0  0  0  0  0  0  0  0
   57.3292   22.5527   45.2854 H   0  0  0  0  0  0  0  0  0  0  0  0
   56.9366   21.3607   44.0002 H   0  0  0  0  0  0  0  0  0  0  0  0
   58.5304   22.1893   44.0002 H   0  0  0  0  0  0  0  0  0  0  0  0
   58.2043   25.0137   43.0555 H   0  0  0  0  0  0  0  0  0  0  0  0
   56.5864   25.4384   43.7474 H   0  0  0  0  0  0  0  0  0  0  0  0
   58.2843   23.6775   45.4571 H   0  0  0  0  0  0  0  0  0  0  0  0
   58.9032   25.3549   45.2043 H   0  0  0  0  0  0  0  0  0  0  0  0
   55.8924   28.4736   44.3223 H   0  0  0  0  0  0  0  0  0  0  0  0
   58.9133   34.4871   47.9400 H   0  0  0  0  0  0  0  0  0  0  0  0
   60.2560   35.0875   46.9089 H   0  0  0  0  0  0  0  0  0  0  0  0
   58.6741   35.9385   46.9089 H   0  0  0  0  0  0  0  0  0  0  0  0
   60.6581   30.5589   47.0521 H   0  0  0  0  0  0  0  0  0  0  0  0
   61.5960   28.9383   48.6952 H   0  0  0  0  0  0  0  0  0  0  0  0
   60.5580   26.6891   48.9591 H   0  0  0  0  0  0  0  0  0  0  0  0
   58.5496   26.0640   47.6278 H   0  0  0  0  0  0  0  0  0  0  0  0
  1  2  1  0
  2  3  1  0
  3  4  1  0
  3  5  1  0
  5  6  1  0
  6  7  1  0
  7  8  1  0
  8  9  2  0
  8 10  1  0
 10 11  2  0
 11 12  1  0
 12 13  1  0
 13 14  1  0
 14 15  2  0
 15 16  1  0
 16 17  2  0
 17 18  1  0
 17 19  1  0
 12 20  2  0
 20 21  1  0
 21 22  2  0
 22 23  1  0
 23 24  2  0
 24 25  1  0
 25 26  2  0
 26 10  1  0
 19 14  1  0
 26 21  1  0
  1 27  1  0
  1 28  1  0
  1 29  1  0
  2 30  1  0
  2 31  1  0
  4 32  1  0
  4 33  1  0
  4 34  1  0
  5 35  1  0
  5 36  1  0
  6 37  1  0
  6 38  1  0
 11 39  1  0
 18 40  1  0
 18 41  1  0
 18 42  1  0
 22 43  1  0
 23 44  1  0
 24 45  1  0
 25 46  1  0
M  CHG  1   7  -1
M  END
>  <UniqueID>  (12) 
12

>  <SMILES>  (12) 
CCN(C)CC[N-]C(=O)c1cc(Sc2nnc(C)s2)nc2ccccc12

>  <Energy>  (12) 
85.92658321139383

>  <Genealogy>  (12) 
CCN(C)CC[N-]C(=O)c1cc(Sc2nnc(C)s2)nc2ccccc12 (protonated)
CCN(C)CC[N-]C(=O)c1cc(Sc2nnc(C)s2)nc2ccccc12 (3D coordinates assigned)
CCN(C)CC[N-]C(=O)c1cc(Sc2nnc(C)s2)nc2ccccc12 (optimized conformer: 85.92658321139383 kcal/mol)

>  <smiles>  (12) 
CCN(C)CCNC(=O)c1cc(Sc2nnc(C)s2)nc2ccccc12

>  <score_type>  (12) 
oracle

>  <origin>  (12) 
adg

>  <m_score__min__energy>  (12) 
-9.8699999999999992

>  <m_primary>  (12) 
energy

$$$$
12:0
     RDKit          3D

 56 58  0  0  0  0  0  0  0  0999 V2000
   65.2250   32.9310   50.4050 C   0  0  0  0  0  0  0  0  0  0  0  0
   65.0250   32.7540   49.0060 O   0  0  0  0  0  0  0  0  0  0  0  0
   63.7690   32.7180   48.3790 C   0  0  0  0  0  0  0  0  0  0  0  0
   63.3930   33.8090   47.6040 C   0  0  0  0  0  0  0  0  0  0  0  0
   62.1610   33.8290   46.9590 C   0  0  0  0  0  0  0  0  0  0  0  0
   61.2450   32.7550   47.0870 C   0  0  0  0  0  0  0  0  0  0  0  0
   61.6340   31.6200   47.8500 C   0  0  0  0  0  0  0  0  0  0  0  0
   62.8950   31.6260   48.4960 C   0  0  0  0  0  0  0  0  0  0  0  0
   60.7540   30.5080   47.9350 C   0  0  0  0  0  0  0  0  0  0  0  0
   61.0250   29.4100   48.8510 N   0  0  0  0  0  0  0  0  0  0  0  0
   60.0530   29.3950   49.9590 C   0  0  0  0  0  0  0  0  0  0  0  0
   60.7410   29.6300   51.3110 C   0  0  0  0  0  0  0  0  0  0  0  0
   62.0750   30.2460   51.1270 N   0  0  0  0  0  0  0  0  0  0  0  0
   62.1590   31.5470   51.8130 C   0  0  0  0  0  0  0  0  0  0  0  0
   63.1280   29.3530   51.6370 C   0  0  0  0  0  0  0  0  0  0  0  0
   59.6180   30.4750   47.0820 C   0  0  0  0  0  0  0  0  0  0  0  0
   58.8260   29.3110   46.9430 C   0  0  0  0  0  0  0  0  0  0  0  0
   57.7160   29.2780   46.0850 C   0  0  0  0  0  0  0  0  0  0  0  0
   56.9130   28.1340   45.9430 O   0  0  0  0  0  0  0  0  0  0  0  0
   57.3720   26.8710   45.4670 C   0  0  0  0  0  0  0  0  0  0  0  0
   57.3930   30.4050   45.3310 C   0  0  0  0  0  0  0  0  0  0  0  0
   56.2880   30.3300   44.4660 O   0  0  0  0  0  0  0  0  0  0  0  0
   56.3090   29.7410   43.1690 C   0  0  0  0  0  0  0  0  0  0  0  0
   58.1720   31.5650   45.4480 C   0  0  0  0  0  0  0  0  0  0  0  0
   59.2730   31.6340   46.3390 C   0  0  0  0  0  0  0  0  0  0  0  0
   60.0090   32.7930   46.4790 N   0  0  0  0  0  0  0  0  0  0  0  0
   59.4650   34.0800   45.9890 C   0  0  0  0  0  0  0  0  0  0  0  0
   64.5136   32.3014   50.9596 H   0  0  0  0  0  0  0  0  0  0  0  0
   66.2531   32.6416   50.6679 H   0  0  0  0  0  0  0  0  0  0  0  0
   65.0627   33.9867   50.6679 H   0  0  0  0  0  0  0  0  0  0  0  0
   64.0764   34.6647   47.4999 H   0  0  0  0  0  0  0  0  0  0  0  0
   61.8921   34.6956   46.3371 H   0  0  0  0  0  0  0  0  0  0  0  0
   63.1949   30.7578   49.1011 H   0  0  0  0  0  0  0  0  0  0  0  0
   61.0170   28.4950   48.3480 H   0  0  0  0  0  0  0  0  0  0  0  0
   62.0030   29.4740   49.2120 H   0  0  0  0  0  0  0  0  0  0  0  0
   59.3092   30.1883   49.7933 H   0  0  0  0  0  0  0  0  0  0  0  0
   59.5709   28.4066   49.9831 H   0  0  0  0  0  0  0  0  0  0  0  0
   60.1166   30.2994   51.9209 H   0  0  0  0  0  0  0  0  0  0  0  0
   60.8691   28.6595   51.8127 H   0  0  0  0  0  0  0  0  0  0  0  0
   62.1488   31.3889   52.9015 H   0  0  0  0  0  0  0  0  0  0  0  0
   63.0917   32.0539   51.5248 H   0  0  0  0  0  0  0  0  0  0  0  0
   61.2992   32.1696   51.5248 H   0  0  0  0  0  0  0  0  0  0  0  0
   63.1162   29.3630   52.7369 H   0  0  0  0  0  0  0  0  0  0  0  0
   62.9464   28.3293   51.2776 H   0  0  0  0  0  0  0  0  0  0  0  0
   64.1083   29.6993   51.2776 H   0  0  0  0  0  0  0  0  0  0  0  0
   59.0861   28.4116   47.5204 H   0  0  0  0  0  0  0  0  0  0  0  0
   57.6083   26.2207   46.3222 H   0  0  0  0  0  0  0  0  0  0  0  0
   56.5868   26.4021   44.8558 H   0  0  0  0  0  0  0  0  0  0  0  0
   58.2750   27.0157   44.8558 H   0  0  0  0  0  0  0  0  0  0  0  0
   56.3480   28.6458   43.2642 H   0  0  0  0  0  0  0  0  0  0  0  0
   55.4000   30.0292   42.6207 H   0  0  0  0  0  0  0  0  0  0  0  0
   57.1952   30.0932   42.6207 H   0  0  0  0  0  0  0  0  0  0  0  0
   57.9230   32.4428   44.8337 H   0  0  0  0  0  0  0  0  0  0  0  0
   59.1967   34.7148   46.8463 H   0  0  0  0  0  0  0  0  0  0  0  0
   60.2244   34.5903   45.3783 H   0  0  0  0  0  0  0  0  0  0  0  0
   58.5698   33.8910   45.3783 H   0  0  0  0  0  0  0  0  0  0  0  0
  1  2  1  0
  2  3  1  0
  3  4  2  0
  4  5  1  0
  5  6  2  0
  6  7  1  0
  7  8  2  0
  7  9  1  0
  9 10  1  0
 10 11  1  0
 11 12  1  0
 12 13  1  0
 13 14  1  0
 13 15  1  0
  9 16  2  0
 16 17  1  0
 17 18  2  0
 18 19  1  0
 19 20  1  0
 18 21  1  0
 21 22  1  0
 22 23  1  0
 21 24  2  0
 24 25  1  0
 25 26  2  0
 26 27  1  0
  8  3  1  0
 25 16  1  0
 26  6  1  0
  1 28  1  0
  1 29  1  0
  1 30  1  0
  4 31  1  0
  5 32  1  0
  8 33  1  0
 10 34  1  0
 10 35  1  0
 11 36  1  0
 11 37  1  0
 12 38  1  0
 12 39  1  0
 14 40  1  0
 14 41  1  0
 14 42  1  0
 15 43  1  0
 15 44  1  0
 15 45  1  0
 17 46  1  0
 20 47  1  0
 20 48  1  0
 20 49  1  0
 23 50  1  0
 23 51  1  0
 23 52  1  0
 24 53  1  0
 27 54  1  0
 27 55  1  0
 27 56  1  0
M  CHG  2  10   1  26   1
M  END
>  <UniqueID>  (13) 
13

>  <SMILES>  (13) 
COc1ccc2c(c1)c([NH2+]CCN(C)C)c1cc(OC)c(OC)cc1[n+]2C

>  <Energy>  (13) 
81.35599708488397

>  <Genealogy>  (13) 
COc1ccc2c(c1)c([NH2+]CCN(C)C)c1cc(OC)c(OC)cc1[n+]2C (protonated)
COc1ccc2c(c1)c([NH2+]CCN(C)C)c1cc(OC)c(OC)cc1[n+]2C (3D coordinates assigned)
COc1ccc2c(c1)c([NH2+]CCN(C)C)c1cc(OC)c(OC)cc1[n+]2C (optimized conformer: 81.35599708488397 kcal/mol)

>  <smiles>  (13) 
COc1ccc2c(c1)c(NCCN(C)C)c1cc(OC)c(OC)cc1[n+]2C

>  <score_type>  (13) 
oracle

>  <origin>  (13) 
adg

>  <m_score__min__energy>  (13) 
-3.3599999999999999

>  <m_primary>  (13) 
energy

$$$$
13:0
     RDKit          3D

 43 44  0  0  0  0  0  0  0  0999 V2000
   59.3030   34.8220   45.5860 C   0  0  0  0  0  0  0  0  0  0  0  0
   58.9400   34.2800   46.9680 C   0  0  0  0  0  0  0  0  0  0  0  0
   57.8340   33.2160   46.9160 C   0  0  0  0  0  0  0  0  0  0  0  0
   57.0210   33.2690   45.6170 C   0  0  0  0  0  0  0  0  0  0  0  0
   57.0120   31.9340   44.9910 N   0  0  0  0  0  0  0  0  0  0  0  0
   57.7230   31.9020   43.7040 C   0  0  0  0  0  0  0  0  0  0  0  0
   57.0070   30.9880   42.7010 C   0  0  0  0  0  0  0  0  0  0  0  0
   56.4010   29.7590   43.4010 C   0  0  0  0  0  0  0  0  0  0  0  0
   57.2650   28.5720   43.2840 N   0  0  0  0  0  0  0  0  0  0  0  0
   57.9360   28.2810   44.5260 C   0  0  0  0  0  0  0  0  0  0  0  0
   58.4650   27.0050   44.7740 C   0  0  0  0  0  0  0  0  0  0  0  0
   59.1390   26.7530   45.9720 C   0  0  0  0  0  0  0  0  0  0  0  0
   59.6090   25.6020   46.1860 O   0  0  0  0  0  0  0  0  0  0  0  0
   59.2880   27.7830   46.9190 C   0  0  0  0  0  0  0  0  0  0  0  0
   59.9600   27.5830   48.1390 C   0  0  0  0  0  0  0  0  0  0  0  0
   60.0880   28.6370   49.0500 C   0  0  0  0  0  0  0  0  0  0  0  0
   59.5490   29.8920   48.7550 C   0  0  0  0  0  0  0  0  0  0  0  0
   58.8780   30.1030   47.5470 C   0  0  0  0  0  0  0  0  0  0  0  0
   58.7440   29.0560   46.6280 C   0  0  0  0  0  0  0  0  0  0  0  0
   58.0920   29.2660   45.4540 N   0  0  0  0  0  0  0  0  0  0  0  0
   59.9120   35.7313   45.6971 H   0  0  0  0  0  0  0  0  0  0  0  0
   59.8754   34.0626   45.0331 H   0  0  0  0  0  0  0  0  0  0  0  0
   58.3829   35.0622   45.0331 H   0  0  0  0  0  0  0  0  0  0  0  0
   59.8385   33.8318   47.4173 H   0  0  0  0  0  0  0  0  0  0  0  0
   58.5626   35.1223   47.5664 H   0  0  0  0  0  0  0  0  0  0  0  0
   58.2978   32.2221   47.0003 H   0  0  0  0  0  0  0  0  0  0  0  0
   57.1429   33.4149   47.7483 H   0  0  0  0  0  0  0  0  0  0  0  0
   55.9889   33.5759   45.8421 H   0  0  0  0  0  0  0  0  0  0  0  0
   57.4761   33.9954   44.9277 H   0  0  0  0  0  0  0  0  0  0  0  0
   57.5010   31.2670   45.6340 H   0  0  0  0  0  0  0  0  0  0  0  0
   57.7680   32.9213   43.2928 H   0  0  0  0  0  0  0  0  0  0  0  0
   58.7363   31.5090   43.8739 H   0  0  0  0  0  0  0  0  0  0  0  0
   56.2018   31.5548   42.2107 H   0  0  0  0  0  0  0  0  0  0  0  0
   57.7427   30.6395   41.9612 H   0  0  0  0  0  0  0  0  0  0  0  0
   56.2603   29.9915   44.4669 H   0  0  0  0  0  0  0  0  0  0  0  0
   55.4426   29.5295   42.9124 H   0  0  0  0  0  0  0  0  0  0  0  0
   56.6970   27.7450   42.9850 H   0  0  0  0  0  0  0  0  0  0  0  0
   57.9820   28.7470   42.5410 H   0  0  0  0  0  0  0  0  0  0  0  0
   58.3494   26.2054   44.0275 H   0  0  0  0  0  0  0  0  0  0  0  0
   60.3852   26.5967   48.3767 H   0  0  0  0  0  0  0  0  0  0  0  0
   60.6150   28.4772   50.0022 H   0  0  0  0  0  0  0  0  0  0  0  0
   59.6530   30.7165   49.4757 H   0  0  0  0  0  0  0  0  0  0  0  0
   58.4551   31.0924   47.3186 H   0  0  0  0  0  0  0  0  0  0  0  0
  1  2  1  0
  2  3  1  0
  3  4  1  0
  4  5  1  0
  5  6  1  0
  6  7  1  0
  7  8  1  0
  8  9  1  0
  9 10  1  0
 10 11  2  0
 11 12  1  0
 12 13  2  0
 12 14  1  0
 14 15  2  0
 15 16  1  0
 16 17  2  0
 17 18  1  0
 18 19  2  0
 19 20  1  0
 20 10  1  0
 19 14  1  0
  1 21  1  0
  1 22  1  0
  1 23  1  0
  2 24  1  0
  2 25  1  0
  3 26  1  0
  3 27  1  0
  4 28  1  0
  4 29  1  0
  5 30  1  0
  6 31  1  0
  6 32  1  0
  7 33  1  0
  7 34  1  0
  8 35  1  0
  8 36  1  0
  9 37  1  0
  9 38  1  0
 11 39  1  0
 15 40  1  0
 16 41  1  0
 17 42  1  0
 18 43  1  0
M  CHG  2   9   1  20  -1
M  END
>  <UniqueID>  (14) 
14

>  <SMILES>  (14) 
CCCCNCCC[NH2+]c1cc(=O)c2ccccc2[n-]1

>  <Energy>  (14) 
39.15301478453796

>  <Genealogy>  (14) 
CCCCNCCC[NH2+]c1cc(=O)c2ccccc2[n-]1 (protonated)
CCCCNCCC[NH2+]c1cc(=O)c2ccccc2[n-]1 (3D coordinates assigned)
CCCCNCCC[NH2+]c1cc(=O)c2ccccc2[n-]1 (optimized conformer: 39.15301478453796 kcal/mol)

>  <smiles>  (14) 
CCCCNCCCNc1cc(=O)c2ccccc2[nH]1

>  <score_type>  (14) 
oracle

>  <origin>  (14) 
adg

>  <m_score__min__energy>  (14) 
-6.5300000000000002

>  <m_primary>  (14) 
energy

$$$$
14:0
     RDKit          3D

 57 60  0  0  0  0  0  0  0  0999 V2000
   58.1360   31.9730   50.5660 C   0  0  0  0  0  0  0  0  0  0  0  0
   58.4150   31.0950   51.7770 C   0  0  0  0  0  0  0  0  0  0  0  0
   59.4880   30.2260   51.4790 O   0  0  0  0  0  0  0  0  0  0  0  0
   59.7520   29.3650   52.5740 C   0  0  0  0  0  0  0  0  0  0  0  0
   60.3870   28.0580   52.0990 C   0  0  0  0  0  0  0  0  0  0  0  0
   61.3280   28.3430   51.0840 O   0  0  0  0  0  0  0  0  0  0  0  0
   61.0800   27.5560   49.9340 C   0  0  0  0  0  0  0  0  0  0  0  0
   60.6530   28.4350   48.7520 C   0  0  0  0  0  0  0  0  0  0  0  0
   60.3110   29.8010   49.1900 N   0  0  0  0  0  0  0  0  0  0  0  0
   60.2880   30.7100   48.0570 C   0  0  0  0  0  0  0  0  0  0  0  0
   59.2970   30.5850   47.0470 C   0  0  0  0  0  0  0  0  0  0  0  0
   59.2190   31.5560   46.0180 C   0  0  0  0  0  0  0  0  0  0  0  0
   60.0000   32.6930   46.0990 N   0  0  0  0  0  0  0  0  0  0  0  0
   59.6020   33.9320   45.4010 C   0  0  0  0  0  0  0  0  0  0  0  0
   61.1200   32.7000   46.9020 C   0  0  0  0  0  0  0  0  0  0  0  0
   62.1340   33.6800   46.7400 C   0  0  0  0  0  0  0  0  0  0  0  0
   63.2550   33.6980   47.5650 C   0  0  0  0  0  0  0  0  0  0  0  0
   63.4010   32.7420   48.5610 C   0  0  0  0  0  0  0  0  0  0  0  0
   62.4350   31.7530   48.7320 C   0  0  0  0  0  0  0  0  0  0  0  0
   61.2840   31.7080   47.9050 C   0  0  0  0  0  0  0  0  0  0  0  0
   58.3210   31.2720   44.8380 C   0  0  0  0  0  0  0  0  0  0  0  0
   58.1940   32.1620   43.8130 N   0  0  0  0  0  0  0  0  0  0  0  0
   57.4280   31.9230   42.7170 C   0  0  0  0  0  0  0  0  0  0  0  0
   56.7500   30.7130   42.5930 C   0  0  0  0  0  0  0  0  0  0  0  0
   56.8810   29.7560   43.5960 C   0  0  0  0  0  0  0  0  0  0  0  0
   57.6670   30.0250   44.7270 C   0  0  0  0  0  0  0  0  0  0  0  0
   57.9310   28.9360   45.7220 C   0  0  0  0  0  0  0  0  0  0  0  0
   58.2230   29.5080   47.1020 C   0  0  0  0  0  0  0  0  0  0  0  0
   57.8188   32.9712   50.9021 H   0  0  0  0  0  0  0  0  0  0  0  0
   59.0497   32.0633   49.9602 H   0  0  0  0  0  0  0  0  0  0  0  0
   57.3378   31.5193   49.9602 H   0  0  0  0  0  0  0  0  0  0  0  0
   58.6806   31.7271   52.6372 H   0  0  0  0  0  0  0  0  0  0  0  0
   57.5186   30.5070   52.0235 H   0  0  0  0  0  0  0  0  0  0  0  0
   60.4399   29.8677   53.2698 H   0  0  0  0  0  0  0  0  0  0  0  0
   58.8010   29.1320   53.0754 H   0  0  0  0  0  0  0  0  0  0  0  0
   60.8931   27.5664   52.9429 H   0  0  0  0  0  0  0  0  0  0  0  0
   59.6077   27.3894   51.7046 H   0  0  0  0  0  0  0  0  0  0  0  0
   61.9973   27.0116   49.6653 H   0  0  0  0  0  0  0  0  0  0  0  0
   60.2669   26.8502   50.1593 H   0  0  0  0  0  0  0  0  0  0  0  0
   61.4802   28.4881   48.0289 H   0  0  0  0  0  0  0  0  0  0  0  0
   59.7598   27.9860   48.2930 H   0  0  0  0  0  0  0  0  0  0  0  0
   60.9870   30.1270   49.9160 H   0  0  0  0  0  0  0  0  0  0  0  0
   59.3930   29.8170   49.6880 H   0  0  0  0  0  0  0  0  0  0  0  0
   59.3533   34.7063   46.1416 H   0  0  0  0  0  0  0  0  0  0  0  0
   60.4332   34.2810   44.7707 H   0  0  0  0  0  0  0  0  0  0  0  0
   58.7230   33.7316   44.7707 H   0  0  0  0  0  0  0  0  0  0  0  0
   62.0322   34.4379   45.9493 H   0  0  0  0  0  0  0  0  0  0  0  0
   64.0260   34.4705   47.4276 H   0  0  0  0  0  0  0  0  0  0  0  0
   64.2831   32.7656   49.2178 H   0  0  0  0  0  0  0  0  0  0  0  0
   62.5669   30.9964   49.5195 H   0  0  0  0  0  0  0  0  0  0  0  0
   57.3433   32.6847   41.9280 H   0  0  0  0  0  0  0  0  0  0  0  0
   56.1190   30.5157   41.7139 H   0  0  0  0  0  0  0  0  0  0  0  0
   56.3676   28.7877   43.5016 H   0  0  0  0  0  0  0  0  0  0  0  0
   57.0467   28.2846   45.7837 H   0  0  0  0  0  0  0  0  0  0  0  0
   58.8109   28.3663   45.3885 H   0  0  0  0  0  0  0  0  0  0  0  0
   57.2997   29.9453   47.5097 H   0  0  0  0  0  0  0  0  0  0  0  0
   58.5875   28.6914   47.7425 H   0  0  0  0  0  0  0  0  0  0  0  0
  1  2  1  0
  2  3  1  0
  3  4  1  0
  4  5  1  0
  5  6  1  0
  6  7  1  0
  7  8  1  0
  8  9  1  0
  9 10  1  0
 10 11  2  0
 11 12  1  0
 12 13  2  0
 13 14  1  0
 13 15  1  0
 15 16  2  0
 16 17  1  0
 17 18  2  0
 18 19  1  0
 19 20  2  0
 12 21  1  0
 21 22  2  0
 22 23  1  0
 23 24  2  0
 24 25  1  0
 25 26  2  0
 26 27  1  0
 27 28  1  0
 20 10  1  0
 26 21  1  0
 28 11  1  0
 20 15  1  0
  1 29  1  0
  1 30  1  0
  1 31  1  0
  2 32  1  0
  2 33  1  0
  4 34  1  0
  4 35  1  0
  5 36  1  0
  5 37  1  0
  7 38  1  0
  7 39  1  0
  8 40  1  0
  8 41  1  0
  9 42  1  0
  9 43  1  0
 14 44  1  0
 14 45  1  0
 14 46  1  0
 16 47  1  0
 17 48  1  0
 18 49  1  0
 19 50  1  0
 23 51  1  0
 24 52  1  0
 25 53  1  0
 27 54  1  0
 27 55  1  0
 28 56  1  0
 28 57  1  0
M  CHG  2   9   1  13   1
M  END
>  <UniqueID>  (15) 
15

>  <SMILES>  (15) 
CCOCCOCC[NH2+]c1c2c([n+](C)c3ccccc13)-c1ncccc1CC2

>  <Energy>  (15) 
89.41878965561655

>  <Genealogy>  (15) 
CCOCCOCC[NH2+]c1c2c([n+](C)c3ccccc13)-c1ncccc1CC2 (protonated)
CCOCCOCC[NH2+]c1c2c([n+](C)c3ccccc13)-c1ncccc1CC2 (3D coordinates assigned)
CCOCCOCC[NH2+]c1c2c([n+](C)c3ccccc13)-c1ncccc1CC2 (nonaromatic ring conformer: 89.41878965561655 kcal/mol)

>  <smiles>  (15) 
CCOCCOCCNc1c2c([n+](C)c3ccccc13)-c1ncccc1CC2

>  <score_type>  (15) 
oracle

>  <origin>  (15) 
adg

>  <m_score__min__energy>  (15) 
-3.96

>  <m_primary>  (15) 
energy

$$$$
15:0
     RDKit          3D

 46 49  0  0  0  0  0  0  0  0999 V2000
   57.0620   25.1580   47.1440 C   0  0  0  0  0  0  0  0  0  0  0  0
   56.3900   25.7990   45.9260 C   0  0  0  0  0  0  0  0  0  0  0  0
   57.1410   25.5550   44.6820 N   0  0  0  0  0  0  0  0  0  0  0  0
   58.5080   26.0950   44.7260 C   0  0  0  0  0  0  0  0  0  0  0  0
   58.5970   27.4390   43.9830 C   0  0  0  0  0  0  0  0  0  0  0  0
   57.3250   28.1890   43.9830 N   0  0  0  0  0  0  0  0  0  0  0  0
   57.4890   29.5300   44.4930 C   0  0  0  0  0  0  0  0  0  0  0  0
   57.0430   30.6020   43.8160 C   0  0  0  0  0  0  0  0  0  0  0  0
   57.6560   31.7810   44.4050 C   0  0  0  0  0  0  0  0  0  0  0  0
   57.5580   33.1310   44.0800 C   0  0  0  0  0  0  0  0  0  0  0  0
   58.3040   34.0460   44.8480 C   0  0  0  0  0  0  0  0  0  0  0  0
   59.1430   33.5940   45.8960 C   0  0  0  0  0  0  0  0  0  0  0  0
   59.2500   32.2050   46.1810 C   0  0  0  0  0  0  0  0  0  0  0  0
   58.4640   31.3580   45.4160 C   0  0  0  0  0  0  0  0  0  0  0  0
   58.4070   30.0070   45.5780 C   0  0  0  0  0  0  0  0  0  0  0  0
   59.0860   29.4350   46.6750 C   0  0  0  0  0  0  0  0  0  0  0  0
   58.9270   28.0900   47.0550 C   0  0  0  0  0  0  0  0  0  0  0  0
   59.6070   27.5740   48.1540 C   0  0  0  0  0  0  0  0  0  0  0  0
   60.4260   28.3920   48.9210 C   0  0  0  0  0  0  0  0  0  0  0  0
   60.5750   29.7390   48.5980 C   0  0  0  0  0  0  0  0  0  0  0  0
   59.9280   30.2970   47.4670 C   0  0  0  0  0  0  0  0  0  0  0  0
   60.0640   31.6490   47.1480 N   0  0  0  0  0  0  0  0  0  0  0  0
   61.0700   32.4880   47.8320 C   0  0  0  0  0  0  0  0  0  0  0  0
   56.6261   25.5738   48.0644 H   0  0  0  0  0  0  0  0  0  0  0  0
   56.9013   24.0700   47.1212 H   0  0  0  0  0  0  0  0  0  0  0  0
   58.1412   25.3698   47.1212 H   0  0  0  0  0  0  0  0  0  0  0  0
   55.3791   25.3790   45.8175 H   0  0  0  0  0  0  0  0  0  0  0  0
   56.3568   26.8859   46.0922 H   0  0  0  0  0  0  0  0  0  0  0  0
   56.6300   25.9820   43.8750 H   0  0  0  0  0  0  0  0  0  0  0  0
   58.8015   26.2446   45.7755 H   0  0  0  0  0  0  0  0  0  0  0  0
   59.1825   25.3787   44.2341 H   0  0  0  0  0  0  0  0  0  0  0  0
   59.3670   28.0566   44.4685 H   0  0  0  0  0  0  0  0  0  0  0  0
   58.8457   27.2171   42.9347 H   0  0  0  0  0  0  0  0  0  0  0  0
   56.5800   27.6610   44.4720 H   0  0  0  0  0  0  0  0  0  0  0  0
   57.0030   28.2610   42.9890 H   0  0  0  0  0  0  0  0  0  0  0  0
   56.3410   30.5894   42.9692 H   0  0  0  0  0  0  0  0  0  0  0  0
   56.9196   33.4716   43.2515 H   0  0  0  0  0  0  0  0  0  0  0  0
   58.2344   35.1223   44.6319 H   0  0  0  0  0  0  0  0  0  0  0  0
   59.7144   34.3208   46.4921 H   0  0  0  0  0  0  0  0  0  0  0  0
   58.2566   27.4378   46.4760 H   0  0  0  0  0  0  0  0  0  0  0  0
   59.4951   26.5117   48.4167 H   0  0  0  0  0  0  0  0  0  0  0  0
   60.9596   27.9745   49.7876 H   0  0  0  0  0  0  0  0  0  0  0  0
   61.2054   30.3804   49.2314 H   0  0  0  0  0  0  0  0  0  0  0  0
   60.9510   32.3887   48.9210 H   0  0  0  0  0  0  0  0  0  0  0  0
   62.0792   32.1601   47.5421 H   0  0  0  0  0  0  0  0  0  0  0  0
   60.9287   33.5396   47.5421 H   0  0  0  0  0  0  0  0  0  0  0  0
  1  2  1  0
  2  3  1  0
  3  4  1  0
  4  5  1  0
  5  6  1  0
  6  7  1  0
  7  8  2  0
  8  9  1  0
  9 10  2  0
 10 11  1  0
 11 12  2  0
 12 13  1  0
 13 14  2  0
 14 15  1  0
 15 16  2  0
 16 17  1  0
 17 18  2  0
 18 19  1  0
 19 20  2  0
 20 21  1  0
 21 22  2  0
 22 23  1  0
 15  7  1  0
 21 16  1  0
 14  9  1  0
 22 13  1  0
  1 24  1  0
  1 25  1  0
  1 26  1  0
  2 27  1  0
  2 28  1  0
  3 29  1  0
  4 30  1  0
  4 31  1  0
  5 32  1  0
  5 33  1  0
  6 34  1  0
  6 35  1  0
  8 36  1  0
 10 37  1  0
 11 38  1  0
 12 39  1  0
 17 40  1  0
 18 41  1  0
 19 42  1  0
 20 43  1  0
 23 44  1  0
 23 45  1  0
 23 46  1  0
M  CHG  2   6   1  22   1
M  END
>  <UniqueID>  (16) 
16

>  <SMILES>  (16) 
CCNCC[NH2+]C1=Cc2cccc3c2c1c1ccccc1[n+]3C

>  <Energy>  (16) 
106.70081979264421

>  <Genealogy>  (16) 
CCNCC[NH2+]C1=Cc2cccc3c2c1c1ccccc1[n+]3C (protonated)
CCNCC[NH2+]C1=Cc2cccc3c2c1c1ccccc1[n+]3C (3D coordinates assigned)
CCNCC[NH2+]C1=Cc2cccc3c2c1c1ccccc1[n+]3C (nonaromatic ring conformer: 106.70081979264421 kcal/mol)

>  <smiles>  (16) 
CCNCCNC1=Cc2cccc3c2c1c1ccccc1[n+]3C

>  <score_type>  (16) 
oracle

>  <origin>  (16) 
adg

>  <m_score__min__energy>  (16) 
-4.9900000000000002

>  <m_primary>  (16) 
energy

$$$$
16:0
     RDKit          3D

 45 47  0  0  0  0  0  0  0  0999 V2000
   63.2960   33.7190   46.7550 C   0  0  0  0  0  0  0  0  0  0  0  0
   62.8710   33.4810   48.2100 C   0  0  0  0  0  0  0  0  0  0  0  0
   63.3720   32.2140   48.8010 N   0  0  0  0  0  0  0  0  0  0  0  0
   64.7130   32.3720   49.3860 C   0  0  0  0  0  0  0  0  0  0  0  0
   62.4530   31.5700   49.7670 C   0  0  0  0  0  0  0  0  0  0  0  0
   61.4360   30.6430   49.0860 C   0  0  0  0  0  0  0  0  0  0  0  0
   60.7940   31.2970   47.9460 N   0  0  0  0  0  0  0  0  0  0  0  0
   59.4340   31.0170   47.5930 C   0  0  0  0  0  0  0  0  0  0  0  0
   58.7330   30.2580   48.3170 O   0  0  0  0  0  0  0  0  0  0  0  0
   58.8430   31.6140   46.3770 C   0  0  0  0  0  0  0  0  0  0  0  0
   58.9980   32.9870   46.1270 C   0  0  0  0  0  0  0  0  0  0  0  0
   58.5000   33.5500   44.9830 C   0  0  0  0  0  0  0  0  0  0  0  0
   57.8340   32.8160   44.0600 N   0  0  0  0  0  0  0  0  0  0  0  0
   57.6370   31.4810   44.2490 C   0  0  0  0  0  0  0  0  0  0  0  0
   56.9390   30.7450   43.2860 C   0  0  0  0  0  0  0  0  0  0  0  0
   56.7190   29.3790   43.4710 C   0  0  0  0  0  0  0  0  0  0  0  0
   57.1910   28.7410   44.6200 C   0  0  0  0  0  0  0  0  0  0  0  0
   57.8930   29.4610   45.5900 C   0  0  0  0  0  0  0  0  0  0  0  0
   58.1380   30.8380   45.4170 C   0  0  0  0  0  0  0  0  0  0  0  0
   58.7980   34.9920   44.8710 C   0  0  0  0  0  0  0  0  0  0  0  0
   59.6730   35.2810   46.1040 C   0  0  0  0  0  0  0  0  0  0  0  0
   59.7260   33.9930   46.9470 C   0  0  0  0  0  0  0  0  0  0  0  0
   64.2556   34.2564   46.7365 H   0  0  0  0  0  0  0  0  0  0  0  0
   63.4074   32.7520   46.2427 H   0  0  0  0  0  0  0  0  0  0  0  0
   62.5297   34.3193   46.2427 H   0  0  0  0  0  0  0  0  0  0  0  0
   63.2481   34.3161   48.8186 H   0  0  0  0  0  0  0  0  0  0  0  0
   61.7732   33.4108   48.2066 H   0  0  0  0  0  0  0  0  0  0  0  0
   64.6377   32.3631   50.4834 H   0  0  0  0  0  0  0  0  0  0  0  0
   65.3570   31.5435   49.0560 H   0  0  0  0  0  0  0  0  0  0  0  0
   65.1468   33.3275   49.0560 H   0  0  0  0  0  0  0  0  0  0  0  0
   63.0478   30.9784   50.4785 H   0  0  0  0  0  0  0  0  0  0  0  0
   61.8899   32.3675   50.2738 H   0  0  0  0  0  0  0  0  0  0  0  0
   61.9556   29.7397   48.7338 H   0  0  0  0  0  0  0  0  0  0  0  0
   60.6578   30.3861   49.8197 H   0  0  0  0  0  0  0  0  0  0  0  0
   61.3230   31.9980   47.3790 H   0  0  0  0  0  0  0  0  0  0  0  0
   56.5625   31.2438   42.3807 H   0  0  0  0  0  0  0  0  0  0  0  0
   56.1723   28.8035   42.7095 H   0  0  0  0  0  0  0  0  0  0  0  0
   57.0091   27.6655   44.7622 H   0  0  0  0  0  0  0  0  0  0  0  0
   58.2565   28.9502   46.4938 H   0  0  0  0  0  0  0  0  0  0  0  0
   59.3458   35.2083   43.9419 H   0  0  0  0  0  0  0  0  0  0  0  0
   57.8909   35.6132   44.8371 H   0  0  0  0  0  0  0  0  0  0  0  0
   60.6875   35.5639   45.7865 H   0  0  0  0  0  0  0  0  0  0  0  0
   59.2528   36.1109   46.6910 H   0  0  0  0  0  0  0  0  0  0  0  0
   60.7670   33.6795   47.1146 H   0  0  0  0  0  0  0  0  0  0  0  0
   59.2804   34.1245   47.9441 H   0  0  0  0  0  0  0  0  0  0  0  0
  1  2  1  0
  2  3  1  0
  3  4  1  0
  3  5  1  0
  5  6  1  0
  6  7  1  0
  7  8  1  0
  8  9  2  0
  8 10  1  0
 10 11  2  0
 11 12  1  0
 12 13  2  0
 13 14  1  0
 14 15  2  0
 15 16  1  0
 16 17  2  0
 17 18  1  0
 18 19  2  0
 12 20  1  0
 20 21  1  0
 21 22  1  0
 19 10  1  0
 22 11  1  0
 19 14  1  0
  1 23  1  0
  1 24  1  0
  1 25  1  0
  2 26  1  0
  2 27  1  0
  4 28  1  0
  4 29  1  0
  4 30  1  0
  5 31  1  0
  5 32  1  0
  6 33  1  0
  6 34  1  0
  7 35  1  0
 15 36  1  0
 16 37  1  0
 17 38  1  0
 18 39  1  0
 20 40  1  0
 20 41  1  0
 21 42  1  0
 21 43  1  0
 22 44  1  0
 22 45  1  0
M  END
>  <UniqueID>  (17) 
17

>  <SMILES>  (17) 
CCN(C)CCNC(=O)c1c2c(nc3ccccc13)CCC2

>  <Energy>  (17) 
63.281229107550445

>  <Genealogy>  (17) 
CCN(C)CCNC(=O)c1c2c(nc3ccccc13)CCC2 (3D coordinates assigned)
CCN(C)CCNC(=O)c1c2c(nc3ccccc13)CCC2 (nonaromatic ring conformer: 63.281229107550445 kcal/mol)

>  <smiles>  (17) 
CCN(C)CCNC(=O)c1c2c(nc3ccccc13)CCC2

>  <score_type>  (17) 
oracle

>  <origin>  (17) 
adg

>  <m_score__min__energy>  (17) 
-7.0800000000000001

>  <m_primary>  (17) 
energy

$$$$
17:0
     RDKit          3D

 42 44  0  0  0  0  0  0  0  0999 V2000
   60.1790   29.4660   46.6270 C   0  0  0  0  0  0  0  0  0  0  0  0
   59.7520   29.7190   45.1860 C   0  0  0  0  0  0  0  0  0  0  0  0
   58.2970   29.8920   45.1050 N   0  0  0  0  0  0  0  0  0  0  0  0
   57.4070   29.0120   44.6010 C   0  0  0  0  0  0  0  0  0  0  0  0
   57.7910   27.3320   44.0910 S   0  0  0  0  0  0  0  0  0  0  0  0
   57.7000   26.6120   45.7680 C   0  0  0  0  0  0  0  0  0  0  0  0
   56.2680   26.6290   46.3080 C   0  0  0  0  0  0  0  0  0  0  0  0
   55.5780   25.4170   46.0080 O   0  0  0  0  0  0  0  0  0  0  0  0
   56.1080   24.3300   45.2930 C   0  0  0  0  0  0  0  0  0  0  0  0
   55.8150   24.0900   43.9350 C   0  0  0  0  0  0  0  0  0  0  0  0
   56.3600   22.9790   43.2830 C   0  0  0  0  0  0  0  0  0  0  0  0
   57.2050   22.1070   43.9730 C   0  0  0  0  0  0  0  0  0  0  0  0
   57.5130   22.3480   45.3140 C   0  0  0  0  0  0  0  0  0  0  0  0
   56.9690   23.4570   45.9670 C   0  0  0  0  0  0  0  0  0  0  0  0
   56.2040   29.5800   44.3980 N   0  0  0  0  0  0  0  0  0  0  0  0
   56.3110   30.8470   44.7660 N   0  0  0  0  0  0  0  0  0  0  0  0
   57.5760   31.0350   45.1890 C   0  0  0  0  0  0  0  0  0  0  0  0
   58.1020   32.3670   45.5500 C   0  0  0  0  0  0  0  0  0  0  0  0
   58.3910   33.3260   44.5670 C   0  0  0  0  0  0  0  0  0  0  0  0
   58.9070   34.5750   44.9280 C   0  0  0  0  0  0  0  0  0  0  0  0
   59.1490   34.8700   46.2720 C   0  0  0  0  0  0  0  0  0  0  0  0
   58.8840   33.9140   47.2550 C   0  0  0  0  0  0  0  0  0  0  0  0
   58.3690   32.6640   46.8970 C   0  0  0  0  0  0  0  0  0  0  0  0
   59.4381   29.9050   47.3114 H   0  0  0  0  0  0  0  0  0  0  0  0
   60.2457   28.3825   46.8048 H   0  0  0  0  0  0  0  0  0  0  0  0
   61.1614   29.9279   46.8048 H   0  0  0  0  0  0  0  0  0  0  0  0
   60.2461   30.6296   44.8164 H   0  0  0  0  0  0  0  0  0  0  0  0
   60.0427   28.8543   44.5713 H   0  0  0  0  0  0  0  0  0  0  0  0
   58.0556   25.5717   45.7303 H   0  0  0  0  0  0  0  0  0  0  0  0
   58.3290   27.2164   46.4380 H   0  0  0  0  0  0  0  0  0  0  0  0
   56.2999   26.7605   47.3996 H   0  0  0  0  0  0  0  0  0  0  0  0
   55.7294   27.4590   45.8273 H   0  0  0  0  0  0  0  0  0  0  0  0
   55.1556   24.7787   43.3864 H   0  0  0  0  0  0  0  0  0  0  0  0
   56.1227   22.7918   42.2253 H   0  0  0  0  0  0  0  0  0  0  0  0
   57.6280   21.2304   43.4605 H   0  0  0  0  0  0  0  0  0  0  0  0
   58.1837   21.6649   45.8558 H   0  0  0  0  0  0  0  0  0  0  0  0
   57.2201   23.6456   47.0212 H   0  0  0  0  0  0  0  0  0  0  0  0
   58.2108   33.0942   43.5069 H   0  0  0  0  0  0  0  0  0  0  0  0
   59.1224   35.3255   44.1532 H   0  0  0  0  0  0  0  0  0  0  0  0
   59.5481   35.8549   46.5558 H   0  0  0  0  0  0  0  0  0  0  0  0
   59.0806   34.1445   48.3124 H   0  0  0  0  0  0  0  0  0  0  0  0
   58.1721   31.9101   47.6734 H   0  0  0  0  0  0  0  0  0  0  0  0
  1  2  1  0
  2  3  1  0
  3  4  1  0
  4  5  1  0
  5  6  1  0
  6  7  1  0
  7  8  1  0
  8  9  1  0
  9 10  2  0
 10 11  1  0
 11 12  2  0
 12 13  1  0
 13 14  2  0
  4 15  2  0
 15 16  1  0
 16 17  2  0
 17 18  1  0
 18 19  2  0
 19 20  1  0
 20 21  2  0
 21 22  1  0
 22 23  2  0
 17  3  1  0
 23 18  1  0
 14  9  1  0
  1 24  1  0
  1 25  1  0
  1 26  1  0
  2 27  1  0
  2 28  1  0
  6 29  1  0
  6 30  1  0
  7 31  1  0
  7 32  1  0
 10 33  1  0
 11 34  1  0
 12 35  1  0
 13 36  1  0
 14 37  1  0
 19 38  1  0
 20 39  1  0
 21 40  1  0
 22 41  1  0
 23 42  1  0
M  END
>  <UniqueID>  (18) 
18

>  <SMILES>  (18) 
CCn1c(SCCOc2ccccc2)nnc1-c1ccccc1

>  <Energy>  (18) 
74.38448159691428

>  <Genealogy>  (18) 
CCn1c(SCCOc2ccccc2)nnc1-c1ccccc1 (3D coordinates assigned)
CCn1c(SCCOc2ccccc2)nnc1-c1ccccc1 (optimized conformer: 74.38448159691428 kcal/mol)

>  <smiles>  (18) 
CCn1c(SCCOc2ccccc2)nnc1-c1ccccc1

>  <score_type>  (18) 
oracle

>  <origin>  (18) 
adg

>  <m_score__min__energy>  (18) 
-8.0099999999999998

>  <m_primary>  (18) 
energy

$$$$
18:0
     RDKit          3D

 68 70  0  0  0  0  0  0  0  0999 V2000
   60.8142   28.6017   50.3746 H   0  0  0  0  0  0  0  0  0  0  0  0
   60.3510   29.2680   49.6320 C   0  0  0  0  0  0  0  0  0  0  0  0
   59.0610   29.2550   49.4670 N   0  0  0  0  0  0  0  0  0  0  0  0
   58.2070   30.2800   49.8440 O   0  0  0  0  0  0  0  0  0  0  0  0
   57.9760   30.6600   51.2000 C   0  0  0  0  0  0  0  0  0  0  0  0
   56.8934   30.6899   51.3927 H   0  0  0  0  0  0  0  0  0  0  0  0
   58.4487   29.9275   51.8708 H   0  0  0  0  0  0  0  0  0  0  0  0
   58.5740   32.0370   51.4520 C   0  0  0  0  0  0  0  0  0  0  0  0
   57.7956   32.8048   51.3313 H   0  0  0  0  0  0  0  0  0  0  0  0
   58.9745   32.0866   52.4753 H   0  0  0  0  0  0  0  0  0  0  0  0
   59.6130   32.2650   50.5210 O   0  0  0  0  0  0  0  0  0  0  0  0
   59.3520   33.4240   49.7520 C   0  0  0  0  0  0  0  0  0  0  0  0
   58.3708   33.8317   50.0368 H   0  0  0  0  0  0  0  0  0  0  0  0
   60.1454   34.1607   49.9464 H   0  0  0  0  0  0  0  0  0  0  0  0
   59.3440   33.0970   48.2560 C   0  0  0  0  0  0  0  0  0  0  0  0
   60.3777   33.0696   47.8808 H   0  0  0  0  0  0  0  0  0  0  0  0
   58.8709   32.1168   48.0968 H   0  0  0  0  0  0  0  0  0  0  0  0
   58.5790   34.1420   47.5260 N   0  0  0  0  0  0  0  0  0  0  0  0
   57.5090   33.5600   46.6820 C   0  0  0  0  0  0  0  0  0  0  0  0
   57.5880   32.4632   46.7096 H   0  0  0  0  0  0  0  0  0  0  0  0
   56.5373   33.8911   47.0772 H   0  0  0  0  0  0  0  0  0  0  0  0
   57.6250   34.0310   45.2320 C   0  0  0  0  0  0  0  0  0  0  0  0
   57.8880   35.0989   45.2133 H   0  0  0  0  0  0  0  0  0  0  0  0
   58.4073   33.4517   44.7198 H   0  0  0  0  0  0  0  0  0  0  0  0
   56.6631   33.8812   44.7198 H   0  0  0  0  0  0  0  0  0  0  0  0
   59.4680   35.0050   46.7130 C   0  0  0  0  0  0  0  0  0  0  0  0
   58.9525   35.2750   45.7795 H   0  0  0  0  0  0  0  0  0  0  0  0
   59.7088   35.9075   47.2939 H   0  0  0  0  0  0  0  0  0  0  0  0
   60.7700   34.2810   46.3740 C   0  0  0  0  0  0  0  0  0  0  0  0
   61.2836   33.9954   47.3039 H   0  0  0  0  0  0  0  0  0  0  0  0
   60.5454   33.3782   45.7870 H   0  0  0  0  0  0  0  0  0  0  0  0
   61.4184   34.9481   45.7870 H   0  0  0  0  0  0  0  0  0  0  0  0
   61.1950   30.1700   48.8300 C   0  0  0  0  0  0  0  0  0  0  0  0
   61.0240   30.5690   47.4980 C   0  0  0  0  0  0  0  0  0  0  0  0
   59.9970   30.0920   46.5510 C   0  0  0  0  0  0  0  0  0  0  0  0
   58.6600   30.4800   46.7190 C   0  0  0  0  0  0  0  0  0  0  0  0
   58.3847   31.1481   47.5484 H   0  0  0  0  0  0  0  0  0  0  0  0
   57.6750   30.0230   45.8390 C   0  0  0  0  0  0  0  0  0  0  0  0
   56.6264   30.3188   45.9902 H   0  0  0  0  0  0  0  0  0  0  0  0
   58.0180   29.1860   44.7600 C   0  0  0  0  0  0  0  0  0  0  0  0
   57.0700   28.6840   43.8520 O   0  0  0  0  0  0  0  0  0  0  0  0
   56.6450   29.3320   42.6520 C   0  0  0  0  0  0  0  0  0  0  0  0
   55.5581   29.2054   42.5395 H   0  0  0  0  0  0  0  0  0  0  0  0
   57.1740   28.8787   41.8007 H   0  0  0  0  0  0  0  0  0  0  0  0
   56.9730   30.8210   42.6940 C   0  0  0  0  0  0  0  0  0  0  0  0
   57.0457   31.1511   43.7408 H   0  0  0  0  0  0  0  0  0  0  0  0
   57.9320   30.9997   42.1857 H   0  0  0  0  0  0  0  0  0  0  0  0
   56.1778   31.3861   42.1857 H   0  0  0  0  0  0  0  0  0  0  0  0
   59.3590   28.8250   44.5790 C   0  0  0  0  0  0  0  0  0  0  0  0
   59.6403   28.1810   43.7328 H   0  0  0  0  0  0  0  0  0  0  0  0
   60.3430   29.2750   45.4630 C   0  0  0  0  0  0  0  0  0  0  0  0
   61.3932   28.9879   45.3058 H   0  0  0  0  0  0  0  0  0  0  0  0
   61.9300   31.5280   47.1820 N   0  0  0  0  0  0  0  0  0  0  0  0
   62.6700   31.7310   48.2590 N   0  0  0  0  0  0  0  0  0  0  0  0
   63.6850   32.6230   48.4060 C   0  0  0  0  0  0  0  0  0  0  0  0
   64.0940   33.5270   47.2820 C   0  0  0  0  0  0  0  0  0  0  0  0
   64.5145   34.4564   47.6935 H   0  0  0  0  0  0  0  0  0  0  0  0
   64.8521   33.0237   46.6639 H   0  0  0  0  0  0  0  0  0  0  0  0
   63.2155   33.7641   46.6639 H   0  0  0  0  0  0  0  0  0  0  0  0
   64.2920   32.7160   49.6730 C   0  0  0  0  0  0  0  0  0  0  0  0
   65.1103   33.4296   49.8492 H   0  0  0  0  0  0  0  0  0  0  0  0
   63.8340   31.8790   50.7140 C   0  0  0  0  0  0  0  0  0  0  0  0
   64.4590   31.9610   52.0710 C   0  0  0  0  0  0  0  0  0  0  0  0
   63.6796   31.8587   52.8404 H   0  0  0  0  0  0  0  0  0  0  0  0
   65.1953   31.1518   52.1851 H   0  0  0  0  0  0  0  0  0  0  0  0
   64.9616   32.9328   52.1851 H   0  0  0  0  0  0  0  0  0  0  0  0
   62.8120   31.0020   50.4910 N   0  0  0  0  0  0  0  0  0  0  0  0
   62.2550   30.9420   49.2560 C   0  0  0  0  0  0  0  0  0  0  0  0
  1  2  1  0
  2  3  2  0
  3  4  1  0
  4  5  1  0
  5  6  1  0
  5  7  1  0
  5  8  1  0
  8  9  1  0
  8 10  1  0
  8 11  1  0
 11 12  1  0
 12 13  1  0
 12 14  1  0
 12 15  1  0
 15 16  1  0
 15 17  1  0
 15 18  1  0
 18 19  1  0
 19 20  1  0
 19 21  1  0
 19 22  1  0
 22 23  1  0
 22 24  1  0
 22 25  1  0
 18 26  1  0
 26 27  1  0
 26 28  1  0
 26 29  1  0
 29 30  1  0
 29 31  1  0
 29 32  1  0
  2 33  1  0
 33 34  1  0
 34 35  1  0
 35 36  2  0
 36 37  1  0
 36 38  1  0
 38 39  1  0
 38 40  2  0
 40 41  1  0
 41 42  1  0
 42 43  1  0
 42 44  1  0
 42 45  1  0
 45 46  1  0
 45 47  1  0
 45 48  1  0
 40 49  1  0
 49 50  1  0
 49 51  2  0
 51 52  1  0
 34 53  2  0
 53 54  1  0
 54 55  1  0
 55 56  1  0
 56 57  1  0
 56 58  1  0
 56 59  1  0
 55 60  2  0
 60 61  1  0
 60 62  1  0
 62 63  1  0
 63 64  1  0
 63 65  1  0
 63 66  1  0
 62 67  2  0
 67 68  1  0
 68 33  2  0
 51 35  1  0
 68 54  1  0
M  END
>  <UniqueID>  (19) 
19

>  <SMILES>  (19) 
CCOc1ccc(-c2nn3c(C)cc(C)nc3c2/C=N/OCCOCCN(CC)CC)cc1

>  <Energy>  (19) 
104.82171455631008

>  <Genealogy>  (19) 
CCOc1ccc(-c2nn3c(C)cc(C)nc3c2/C=N/OCCOCCN(CC)CC)cc1 (cis-trans isomerization)
CCOc1ccc(-c2nn3c(C)cc(C)nc3c2/C=N/OCCOCCN(CC)CC)cc1 (3D coordinates assigned)
CCOc1ccc(-c2nn3c(C)cc(C)nc3c2/C=N/OCCOCCN(CC)CC)cc1 (optimized conformer: 104.82171455631008 kcal/mol)

>  <smiles>  (19) 
CCOc1ccc(-c2nn3c(C)cc(C)nc3c2C=NOCCOCCN(CC)CC)cc1

>  <score_type>  (19) 
oracle

>  <origin>  (19) 
adg

>  <m_score__min__energy>  (19) 
-7.6100000000000003

>  <m_primary>  (19) 
energy

$$$$
19:0
     RDKit          3D

 55 57  0  0  0  0  0  0  0  0999 V2000
   56.5820   30.1020   43.0610 C   0  0  0  0  0  0  0  0  0  0  0  0
   56.4160   30.1130   44.5800 C   0  0  0  0  0  0  0  0  0  0  0  0
   57.3970   31.0040   45.2380 N   0  0  0  0  0  0  0  0  0  0  0  0
   58.0760   30.3050   46.3410 C   0  0  0  0  0  0  0  0  0  0  0  0
   58.3600   31.6600   44.3180 C   0  0  0  0  0  0  0  0  0  0  0  0
   57.9600   33.0840   43.8790 C   0  0  0  0  0  0  0  0  0  0  0  0
   57.0060   33.7230   44.8990 C   0  0  0  0  0  0  0  0  0  0  0  0
   57.6060   33.7280   46.2440 N   0  0  0  0  0  0  0  0  0  0  0  0
   58.8970   34.4370   46.2670 C   0  0  0  0  0  0  0  0  0  0  0  0
   59.7610   33.9810   47.4120 C   0  0  0  0  0  0  0  0  0  0  0  0
   59.3460   33.7940   48.7240 C   0  0  0  0  0  0  0  0  0  0  0  0
   60.4040   33.4940   49.5170 N   0  0  0  0  0  0  0  0  0  0  0  0
   60.3400   33.2310   50.9580 C   0  0  0  0  0  0  0  0  0  0  0  0
   59.0880   32.4590   51.3030 C   0  0  0  0  0  0  0  0  0  0  0  0
   58.1120   33.0570   52.1210 C   0  0  0  0  0  0  0  0  0  0  0  0
   56.9630   32.3510   52.4840 C   0  0  0  0  0  0  0  0  0  0  0  0
   56.7760   31.0410   52.0410 C   0  0  0  0  0  0  0  0  0  0  0  0
   57.7400   30.4320   51.2360 C   0  0  0  0  0  0  0  0  0  0  0  0
   58.8970   31.1300   50.8650 C   0  0  0  0  0  0  0  0  0  0  0  0
   60.1820   30.2190   49.7690 Br  0  0  0  0  0  0  0  0  0  0  0  0
   61.4870   33.4700   48.7070 C   0  0  0  0  0  0  0  0  0  0  0  0
   62.8210   33.2030   49.0420 C   0  0  0  0  0  0  0  0  0  0  0  0
   63.7860   33.2710   48.0210 C   0  0  0  0  0  0  0  0  0  0  0  0
   63.4120   33.6000   46.7010 C   0  0  0  0  0  0  0  0  0  0  0  0
   62.0670   33.8600   46.3870 C   0  0  0  0  0  0  0  0  0  0  0  0
   61.1280   33.7770   47.4160 C   0  0  0  0  0  0  0  0  0  0  0  0
   57.6505   30.0312   42.8094 H   0  0  0  0  0  0  0  0  0  0  0  0
   56.0481   29.2373   42.6401 H   0  0  0  0  0  0  0  0  0  0  0  0
   56.1669   31.0296   42.6401 H   0  0  0  0  0  0  0  0  0  0  0  0
   55.4012   30.4604   44.8239 H   0  0  0  0  0  0  0  0  0  0  0  0
   56.5855   29.0903   44.9479 H   0  0  0  0  0  0  0  0  0  0  0  0
   57.7036   30.6884   47.3024 H   0  0  0  0  0  0  0  0  0  0  0  0
   57.8717   29.2263   46.2725 H   0  0  0  0  0  0  0  0  0  0  0  0
   59.1602   30.4779   46.2725 H   0  0  0  0  0  0  0  0  0  0  0  0
   59.3342   31.7183   44.8255 H   0  0  0  0  0  0  0  0  0  0  0  0
   58.3855   31.0476   43.4046 H   0  0  0  0  0  0  0  0  0  0  0  0
   58.8654   33.7030   43.7954 H   0  0  0  0  0  0  0  0  0  0  0  0
   57.4468   33.0218   42.9080 H   0  0  0  0  0  0  0  0  0  0  0  0
   56.7938   34.7586   44.5949 H   0  0  0  0  0  0  0  0  0  0  0  0
   56.0768   33.1350   44.9294 H   0  0  0  0  0  0  0  0  0  0  0  0
   56.9490   34.1710   46.9280 H   0  0  0  0  0  0  0  0  0  0  0  0
   57.7760   32.7390   46.5440 H   0  0  0  0  0  0  0  0  0  0  0  0
   59.4264   34.2448   45.3221 H   0  0  0  0  0  0  0  0  0  0  0  0
   58.6967   35.5111   46.3945 H   0  0  0  0  0  0  0  0  0  0  0  0
   58.3055   33.8775   49.0710 H   0  0  0  0  0  0  0  0  0  0  0  0
   61.2207   32.6440   51.2577 H   0  0  0  0  0  0  0  0  0  0  0  0
   60.3227   34.1918   51.4932 H   0  0  0  0  0  0  0  0  0  0  0  0
   58.2549   34.0879   52.4772 H   0  0  0  0  0  0  0  0  0  0  0  0
   56.2037   32.8287   53.1206 H   0  0  0  0  0  0  0  0  0  0  0  0
   55.8688   30.4882   52.3262 H   0  0  0  0  0  0  0  0  0  0  0  0
   57.5906   29.3983   50.8909 H   0  0  0  0  0  0  0  0  0  0  0  0
   63.1053   32.9476   50.0735 H   0  0  0  0  0  0  0  0  0  0  0  0
   64.8414   33.0659   48.2537 H   0  0  0  0  0  0  0  0  0  0  0  0
   64.1776   33.6533   45.9130 H   0  0  0  0  0  0  0  0  0  0  0  0
   61.7639   34.1208   45.3622 H   0  0  0  0  0  0  0  0  0  0  0  0
  1  2  1  0
  2  3  1  0
  3  4  1  0
  3  5  1  0
  5  6  1  0
  6  7  1  0
  7  8  1  0
  8  9  1  0
  9 10  1  0
 10 11  2  0
 11 12  1  0
 12 13  1  0
 13 14  1  0
 14 15  2  0
 15 16  1  0
 16 17  2  0
 17 18  1  0
 18 19  2  0
 19 20  1  0
 12 21  1  0
 21 22  2  0
 22 23  1  0
 23 24  2  0
 24 25  1  0
 25 26  2  0
 26 10  1  0
 19 14  1  0
 26 21  1  0
  1 27  1  0
  1 28  1  0
  1 29  1  0
  2 30  1  0
  2 31  1  0
  4 32  1  0
  4 33  1  0
  4 34  1  0
  5 35  1  0
  5 36  1  0
  6 37  1  0
  6 38  1  0
  7 39  1  0
  7 40  1  0
  8 41  1  0
  8 42  1  0
  9 43  1  0
  9 44  1  0
 11 45  1  0
 13 46  1  0
 13 47  1  0
 15 48  1  0
 16 49  1  0
 17 50  1  0
 18 51  1  0
 22 52  1  0
 23 53  1  0
 24 54  1  0
 25 55  1  0
M  CHG  1   8   1
M  END
>  <UniqueID>  (20) 
20

>  <SMILES>  (20) 
CCN(C)CCC[NH2+]Cc1cn(Cc2ccccc2Br)c2ccccc12

>  <Energy>  (20) 
88.1153813498967

>  <Genealogy>  (20) 
CCN(C)CCC[NH2+]Cc1cn(Cc2ccccc2Br)c2ccccc12 (protonated)
CCN(C)CCC[NH2+]Cc1cn(Cc2ccccc2Br)c2ccccc12 (3D coordinates assigned)
CCN(C)CCC[NH2+]Cc1cn(Cc2ccccc2Br)c2ccccc12 (optimized conformer: 88.1153813498967 kcal/mol)

>  <smiles>  (20) 
CCN(C)CCCNCc1cn(Cc2ccccc2Br)c2ccccc12

>  <score_type>  (20) 
oracle

>  <origin>  (20) 
adg

>  <m_score__min__energy>  (20) 
-6.4000000000000004

>  <m_primary>  (20) 
energy

$$$$
20:0
     RDKit          3D

 56 60  0  0  0  0  0  0  0  0999 V2000
   56.5840   30.0080   44.2550 C   0  0  0  0  0  0  0  0  0  0  0  0
   57.6660   28.9290   44.1140 C   0  0  0  0  0  0  0  0  0  0  0  0
   58.5960   28.8550   45.2640 N   0  0  0  0  0  0  0  0  0  0  0  0
   59.9940   29.0960   44.8670 C   0  0  0  0  0  0  0  0  0  0  0  0
   58.4340   27.6120   46.0500 C   0  0  0  0  0  0  0  0  0  0  0  0
   59.7340   27.2080   46.7700 C   0  0  0  0  0  0  0  0  0  0  0  0
   59.6410   27.2990   48.3000 C   0  0  0  0  0  0  0  0  0  0  0  0
   58.9580   28.5230   48.7110 N   0  0  0  0  0  0  0  0  0  0  0  0
   59.5200   29.8160   48.4870 C   0  0  0  0  0  0  0  0  0  0  0  0
   59.2350   30.8670   47.7110 C   0  0  0  0  0  0  0  0  0  0  0  0
   58.3870   31.3870   46.7540 O   0  0  0  0  0  0  0  0  0  0  0  0
   58.7540   32.6620   46.2440 C   0  0  0  0  0  0  0  0  0  0  0  0
   57.9040   33.2820   45.3240 C   0  0  0  0  0  0  0  0  0  0  0  0
   58.1710   34.5760   44.8780 C   0  0  0  0  0  0  0  0  0  0  0  0
   59.2730   35.2760   45.3660 C   0  0  0  0  0  0  0  0  0  0  0  0
   60.1490   34.6760   46.2740 C   0  0  0  0  0  0  0  0  0  0  0  0
   59.9620   33.3430   46.6820 C   0  0  0  0  0  0  0  0  0  0  0  0
   60.9070   32.6710   47.6780 C   0  0  0  0  0  0  0  0  0  0  0  0
   60.3940   31.5320   48.1580 C   0  0  0  0  0  0  0  0  0  0  0  0
   60.7520   30.5020   48.9100 C   0  0  0  0  0  0  0  0  0  0  0  0
   61.8730   30.3280   49.6660 C   0  0  0  0  0  0  0  0  0  0  0  0
   61.9900   29.2320   50.2800 O   0  0  0  0  0  0  0  0  0  0  0  0
   62.8510   31.3630   49.8090 C   0  0  0  0  0  0  0  0  0  0  0  0
   63.7960   31.1520   50.8470 C   0  0  0  0  0  0  0  0  0  0  0  0
   64.7930   32.0710   51.1410 C   0  0  0  0  0  0  0  0  0  0  0  0
   64.8930   33.2400   50.4150 C   0  0  0  0  0  0  0  0  0  0  0  0
   64.0130   33.4910   49.3710 C   0  0  0  0  0  0  0  0  0  0  0  0
   62.9830   32.5850   48.9980 C   0  0  0  0  0  0  0  0  0  0  0  0
   62.2490   32.9220   47.8520 N   0  0  0  0  0  0  0  0  0  0  0  0
   62.9770   33.5490   46.7290 C   0  0  0  0  0  0  0  0  0  0  0  0
   56.3929   30.1985   45.3214 H   0  0  0  0  0  0  0  0  0  0  0  0
   56.9259   30.9354   43.7723 H   0  0  0  0  0  0  0  0  0  0  0  0
   55.6575   29.6635   43.7723 H   0  0  0  0  0  0  0  0  0  0  0  0
   57.1696   27.9532   44.0072 H   0  0  0  0  0  0  0  0  0  0  0  0
   58.2690   29.1960   43.2336 H   0  0  0  0  0  0  0  0  0  0  0  0
   60.6174   29.2035   45.7669 H   0  0  0  0  0  0  0  0  0  0  0  0
   60.3568   28.2472   44.2688 H   0  0  0  0  0  0  0  0  0  0  0  0
   60.0517   30.0173   44.2688 H   0  0  0  0  0  0  0  0  0  0  0  0
   57.6460   27.7678   46.8016 H   0  0  0  0  0  0  0  0  0  0  0  0
   58.1672   26.8034   45.3536 H   0  0  0  0  0  0  0  0  0  0  0  0
   59.9750   26.1700   46.4970 H   0  0  0  0  0  0  0  0  0  0  0  0
   60.5136   27.9153   46.4508 H   0  0  0  0  0  0  0  0  0  0  0  0
   59.0820   26.4306   48.6787 H   0  0  0  0  0  0  0  0  0  0  0  0
   60.6605   27.3110   48.7130 H   0  0  0  0  0  0  0  0  0  0  0  0
   58.1130   28.4480   49.3210 H   0  0  0  0  0  0  0  0  0  0  0  0
   57.0193   32.7462   44.9496 H   0  0  0  0  0  0  0  0  0  0  0  0
   57.5083   35.0468   44.1370 H   0  0  0  0  0  0  0  0  0  0  0  0
   59.4544   36.3088   45.0337 H   0  0  0  0  0  0  0  0  0  0  0  0
   60.9953   35.2532   46.6747 H   0  0  0  0  0  0  0  0  0  0  0  0
   63.7357   30.2270   51.4393 H   0  0  0  0  0  0  0  0  0  0  0  0
   65.5050   31.8672   51.9544 H   0  0  0  0  0  0  0  0  0  0  0  0
   65.6723   33.9753   50.6641 H   0  0  0  0  0  0  0  0  0  0  0  0
   64.1171   34.4306   48.8087 H   0  0  0  0  0  0  0  0  0  0  0  0
   63.7547   34.2188   47.1246 H   0  0  0  0  0  0  0  0  0  0  0  0
   63.4452   32.7669   46.1133 H   0  0  0  0  0  0  0  0  0  0  0  0
   62.2729   34.1280   46.1133 H   0  0  0  0  0  0  0  0  0  0  0  0
  1  2  1  0
  2  3  1  0
  3  4  1  0
  3  5  1  0
  5  6  1  0
  6  7  1  0
  7  8  1  0
  8  9  1  0
  9 10  2  0
 10 11  1  0
 11 12  1  0
 12 13  2  0
 13 14  1  0
 14 15  2  0
 15 16  1  0
 16 17  2  0
 17 18  1  0
 18 19  1  0
 19 20  2  0
 20 21  1  0
 21 22  2  0
 21 23  1  0
 23 24  2  0
 24 25  1  0
 25 26  2  0
 26 27  1  0
 27 28  2  0
 28 29  1  0
 29 30  1  0
 20  9  1  0
 28 23  1  0
 19 10  1  0
 17 12  1  0
 29 18  2  0
  1 31  1  0
  1 32  1  0
  1 33  1  0
  2 34  1  0
  2 35  1  0
  4 36  1  0
  4 37  1  0
  4 38  1  0
  5 39  1  0
  5 40  1  0
  6 41  1  0
  6 42  1  0
  7 43  1  0
  7 44  1  0
  8 45  1  0
 13 46  1  0
 14 47  1  0
 15 48  1  0
 16 49  1  0
 24 50  1  0
 25 51  1  0
 26 52  1  0
 27 53  1  0
 30 54  1  0
 30 55  1  0
 30 56  1  0
M  CHG  1  29   1
M  END
>  <UniqueID>  (21) 
21

>  <SMILES>  (21) 
CCN(C)CCCNC1=C2Oc3ccccc3-c3c2c1c(=O)c1ccccc1[n+]3C

>  <Energy>  (21) 
122.92352059765463

>  <Genealogy>  (21) 
CCN(C)CCCNC1=C2Oc3ccccc3-c3c2c1c(=O)c1ccccc1[n+]3C (3D coordinates assigned)
CCN(C)CCCNC1=C2Oc3ccccc3-c3c2c1c(=O)c1ccccc1[n+]3C (nonaromatic ring conformer: 122.92352059765463 kcal/mol)

>  <smiles>  (21) 
CCN(C)CCCNC1=C2Oc3ccccc3-c3c2c1c(=O)c1ccccc1[n+]3C

>  <score_type>  (21) 
oracle

>  <origin>  (21) 
adg

>  <m_score__min__energy>  (21) 
-7.1500000000000004

>  <m_primary>  (21) 
energy

$$$$
21:0
     RDKit          3D

 54 54  0  0  0  0  0  0  0  0999 V2000
   59.4280   35.2990   45.2870 C   0  0  0  0  0  0  0  0  0  0  0  0
   59.8240   33.9410   45.8820 C   0  0  0  0  0  0  0  0  0  0  0  0
   58.9230   33.4390   46.9510 N   0  0  0  0  0  0  0  0  0  0  0  0
   59.3270   33.7940   48.3280 C   0  0  0  0  0  0  0  0  0  0  0  0
   60.7540   34.3390   48.4290 C   0  0  0  0  0  0  0  0  0  0  0  0
   57.4660   33.5260   46.7020 C   0  0  0  0  0  0  0  0  0  0  0  0
   57.1210   33.0240   45.2990 C   0  0  0  0  0  0  0  0  0  0  0  0
   57.2680   31.6190   45.2550 O   0  0  0  0  0  0  0  0  0  0  0  0
   57.0180   31.1530   43.9470 C   0  0  0  0  0  0  0  0  0  0  0  0
   56.0020   30.0150   44.0050 C   0  0  0  0  0  0  0  0  0  0  0  0
   56.1960   29.2490   45.1810 O   0  0  0  0  0  0  0  0  0  0  0  0
   57.2330   28.2980   45.0170 C   0  0  0  0  0  0  0  0  0  0  0  0
   58.5620   28.8910   45.4920 C   0  0  0  0  0  0  0  0  0  0  0  0
   58.5390   29.2540   46.9810 C   0  0  0  0  0  0  0  0  0  0  0  0
   59.2130   30.5440   47.2080 N   0  0  0  0  0  0  0  0  0  0  0  0
   60.5330   30.5840   46.5670 C   0  0  0  0  0  0  0  0  0  0  0  0
   61.5680   31.0360   47.5580 C   0  0  0  0  0  0  0  0  0  0  0  0
   61.3200   30.9480   48.9360 C   0  0  0  0  0  0  0  0  0  0  0  0
   62.2840   31.3840   49.8470 C   0  0  0  0  0  0  0  0  0  0  0  0
   63.4900   31.9020   49.3710 C   0  0  0  0  0  0  0  0  0  0  0  0
   63.7160   31.9900   48.0320 N   0  0  0  0  0  0  0  0  0  0  0  0
   62.7900   31.5750   47.1260 C   0  0  0  0  0  0  0  0  0  0  0  0
   59.2208   36.0095   46.1008 H   0  0  0  0  0  0  0  0  0  0  0  0
   60.2519   35.6819   44.6668 H   0  0  0  0  0  0  0  0  0  0  0  0
   58.5274   35.1790   44.6668 H   0  0  0  0  0  0  0  0  0  0  0  0
   59.8335   33.2012   45.0680 H   0  0  0  0  0  0  0  0  0  0  0  0
   60.8083   34.0854   46.3513 H   0  0  0  0  0  0  0  0  0  0  0  0
   58.6348   34.5606   48.7064 H   0  0  0  0  0  0  0  0  0  0  0  0
   59.2933   32.8686   48.9218 H   0  0  0  0  0  0  0  0  0  0  0  0
   61.0319   34.4451   49.4880 H   0  0  0  0  0  0  0  0  0  0  0  0
   61.4482   33.6427   47.9358 H   0  0  0  0  0  0  0  0  0  0  0  0
   60.8073   35.3208   47.9358 H   0  0  0  0  0  0  0  0  0  0  0  0
   56.9364   32.9113   47.4448 H   0  0  0  0  0  0  0  0  0  0  0  0
   57.1577   34.5787   46.7842 H   0  0  0  0  0  0  0  0  0  0  0  0
   56.0817   33.2922   45.0583 H   0  0  0  0  0  0  0  0  0  0  0  0
   57.7971   33.4878   44.5657 H   0  0  0  0  0  0  0  0  0  0  0  0
   56.6165   31.9738   43.3345 H   0  0  0  0  0  0  0  0  0  0  0  0
   57.9546   30.7897   43.4989 H   0  0  0  0  0  0  0  0  0  0  0  0
   54.9852   30.4347   44.0077 H   0  0  0  0  0  0  0  0  0  0  0  0
   56.1368   29.3667   43.1266 H   0  0  0  0  0  0  0  0  0  0  0  0
   57.0017   27.4001   45.6089 H   0  0  0  0  0  0  0  0  0  0  0  0
   57.3148   28.0305   43.9532 H   0  0  0  0  0  0  0  0  0  0  0  0
   59.3598   28.1534   45.3202 H   0  0  0  0  0  0  0  0  0  0  0  0
   58.7398   29.8157   44.9233 H   0  0  0  0  0  0  0  0  0  0  0  0
   57.4950   29.3265   47.3198 H   0  0  0  0  0  0  0  0  0  0  0  0
   59.0676   28.4721   47.5460 H   0  0  0  0  0  0  0  0  0  0  0  0
   58.6270   31.3000   46.7780 H   0  0  0  0  0  0  0  0  0  0  0  0
   60.7919   29.5793   46.2016 H   0  0  0  0  0  0  0  0  0  0  0  0
   60.5055   31.2900   45.7239 H   0  0  0  0  0  0  0  0  0  0  0  0
   60.3667   30.5358   49.2985 H   0  0  0  0  0  0  0  0  0  0  0  0
   62.0953   31.3200   50.9288 H   0  0  0  0  0  0  0  0  0  0  0  0
   64.2597   32.2400   50.0804 H   0  0  0  0  0  0  0  0  0  0  0  0
   64.6230   32.3800   47.6930 H   0  0  0  0  0  0  0  0  0  0  0  0
   62.9998   31.6622   46.0497 H   0  0  0  0  0  0  0  0  0  0  0  0
  1  2  1  0
  2  3  1  0
  3  4  1  0
  4  5  1  0
  3  6  1  0
  6  7  1  0
  7  8  1  0
  8  9  1  0
  9 10  1  0
 10 11  1  0
 11 12  1  0
 12 13  1  0
 13 14  1  0
 14 15  1  0
 15 16  1  0
 16 17  1  0
 17 18  2  0
 18 19  1  0
 19 20  2  0
 20 21  1  0
 21 22  2  0
 22 17  1  0
  1 23  1  0
  1 24  1  0
  1 25  1  0
  2 26  1  0
  2 27  1  0
  4 28  1  0
  4 29  1  0
  5 30  1  0
  5 31  1  0
  5 32  1  0
  6 33  1  0
  6 34  1  0
  7 35  1  0
  7 36  1  0
  9 37  1  0
  9 38  1  0
 10 39  1  0
 10 40  1  0
 12 41  1  0
 12 42  1  0
 13 43  1  0
 13 44  1  0
 14 45  1  0
 14 46  1  0
 15 47  1  0
 16 48  1  0
 16 49  1  0
 18 50  1  0
 19 51  1  0
 20 52  1  0
 21 53  1  0
 22 54  1  0
M  CHG  1  21   1
M  END
>  <UniqueID>  (22) 
22

>  <SMILES>  (22) 
CCN(CC)CCOCCOCCCNCc1ccc[nH+]c1

>  <Energy>  (22) 
53.41556040466957

>  <Genealogy>  (22) 
CCN(CC)CCOCCOCCCNCc1ccc[nH+]c1 (protonated)
CCN(CC)CCOCCOCCCNCc1ccc[nH+]c1 (3D coordinates assigned)
CCN(CC)CCOCCOCCCNCc1ccc[nH+]c1 (optimized conformer: 53.41556040466957 kcal/mol)

>  <smiles>  (22) 
CCN(CC)CCOCCOCCCNCc1cccnc1

>  <score_type>  (22) 
oracle

>  <origin>  (22) 
adg

>  <m_score__min__energy>  (22) 
-5.5300000000000002

>  <m_primary>  (22) 
energy

$$$$
22:0
     RDKit          3D

 61 64  0  0  0  0  0  0  0  0999 V2000
   55.5670   29.7130   43.7420 C   0  0  0  0  0  0  0  0  0  0  0  0
   57.0200   30.0110   43.3980 C   0  0  0  0  0  0  0  0  0  0  0  0
   57.5200   31.1000   44.2300 N   0  0  0  0  0  0  0  0  0  0  0  0
   58.1070   32.2250   43.7850 C   0  0  0  0  0  0  0  0  0  0  0  0
   58.3240   33.0470   44.8700 C   0  0  0  0  0  0  0  0  0  0  0  0
   58.9110   34.4360   44.8680 C   0  0  0  0  0  0  0  0  0  0  0  0
   59.8460   34.6830   45.9870 N   0  0  0  0  0  0  0  0  0  0  0  0
   60.9470   33.6970   46.0590 C   0  0  0  0  0  0  0  0  0  0  0  0
   61.6400   33.7570   47.4230 C   0  0  0  0  0  0  0  0  0  0  0  0
   60.7100   33.3740   48.5110 N   0  0  0  0  0  0  0  0  0  0  0  0
   61.2160   33.8290   49.8230 C   0  0  0  0  0  0  0  0  0  0  0  0
   60.1710   33.5740   50.9170 C   0  0  0  0  0  0  0  0  0  0  0  0
   60.2860   32.1510   51.4690 C   0  0  0  0  0  0  0  0  0  0  0  0
   59.6670   31.1690   50.5190 C   0  0  0  0  0  0  0  0  0  0  0  0
   60.1510   30.8820   49.2980 N   0  0  0  0  0  0  0  0  0  0  0  0
   59.2560   30.0160   48.7690 C   0  0  0  0  0  0  0  0  0  0  0  0
   59.3570   29.4010   47.4250 C   0  0  0  0  0  0  0  0  0  0  0  0
   60.3250   29.8720   46.5190 C   0  0  0  0  0  0  0  0  0  0  0  0
   60.4400   29.3060   45.2460 C   0  0  0  0  0  0  0  0  0  0  0  0
   59.5930   28.2630   44.8630 C   0  0  0  0  0  0  0  0  0  0  0  0
   58.6310   27.7840   45.7550 C   0  0  0  0  0  0  0  0  0  0  0  0
   58.5090   28.3490   47.0290 C   0  0  0  0  0  0  0  0  0  0  0  0
   58.2620   29.7760   49.6010 O   0  0  0  0  0  0  0  0  0  0  0  0
   58.4820   30.4800   50.6860 C   0  0  0  0  0  0  0  0  0  0  0  0
   57.5810   30.5050   51.8750 C   0  0  0  0  0  0  0  0  0  0  0  0
   59.3030   33.7920   48.2680 C   0  0  0  0  0  0  0  0  0  0  0  0
   59.1880   34.9680   47.2840 C   0  0  0  0  0  0  0  0  0  0  0  0
   57.8420   32.3440   45.9590 C   0  0  0  0  0  0  0  0  0  0  0  0
   57.3440   31.1650   45.5410 N   0  0  0  0  0  0  0  0  0  0  0  0
   55.4466   29.6883   44.8351 H   0  0  0  0  0  0  0  0  0  0  0  0
   54.9219   30.4975   43.3197 H   0  0  0  0  0  0  0  0  0  0  0  0
   55.2828   28.7379   43.3197 H   0  0  0  0  0  0  0  0  0  0  0  0
   57.6273   29.1108   43.5737 H   0  0  0  0  0  0  0  0  0  0  0  0
   57.0858   30.3070   42.3406 H   0  0  0  0  0  0  0  0  0  0  0  0
   58.3678   32.4495   42.7402 H   0  0  0  0  0  0  0  0  0  0  0  0
   59.4531   34.5835   43.9223 H   0  0  0  0  0  0  0  0  0  0  0  0
   58.0745   35.1409   44.9837 H   0  0  0  0  0  0  0  0  0  0  0  0
   60.5379   32.6874   45.9061 H   0  0  0  0  0  0  0  0  0  0  0  0
   61.6842   33.9329   45.2775 H   0  0  0  0  0  0  0  0  0  0  0  0
   62.4958   33.0659   47.4219 H   0  0  0  0  0  0  0  0  0  0  0  0
   61.9770   34.7893   47.5986 H   0  0  0  0  0  0  0  0  0  0  0  0
   62.1372   33.2794   50.0666 H   0  0  0  0  0  0  0  0  0  0  0  0
   61.4222   34.9083   49.7711 H   0  0  0  0  0  0  0  0  0  0  0  0
   60.3269   34.2908   51.7367 H   0  0  0  0  0  0  0  0  0  0  0  0
   59.1697   33.6987   50.4791 H   0  0  0  0  0  0  0  0  0  0  0  0
   61.3482   31.9009   51.6075 H   0  0  0  0  0  0  0  0  0  0  0  0
   59.7562   32.0982   52.4316 H   0  0  0  0  0  0  0  0  0  0  0  0
   61.0260   31.2590   48.8740 H   0  0  0  0  0  0  0  0  0  0  0  0
   60.9963   30.6917   46.8146 H   0  0  0  0  0  0  0  0  0  0  0  0
   61.1989   29.6826   44.5444 H   0  0  0  0  0  0  0  0  0  0  0  0
   59.6837   27.8197   43.8604 H   0  0  0  0  0  0  0  0  0  0  0  0
   57.9671   26.9599   45.4549 H   0  0  0  0  0  0  0  0  0  0  0  0
   57.7465   27.9694   47.7251 H   0  0  0  0  0  0  0  0  0  0  0  0
   58.1857   30.4882   52.7937 H   0  0  0  0  0  0  0  0  0  0  0  0
   56.9714   31.4204   51.8539 H   0  0  0  0  0  0  0  0  0  0  0  0
   56.9216   29.6248   51.8539 H   0  0  0  0  0  0  0  0  0  0  0  0
   58.7487   32.9354   47.8570 H   0  0  0  0  0  0  0  0  0  0  0  0
   58.8876   34.1258   49.2303 H   0  0  0  0  0  0  0  0  0  0  0  0
   58.1229   35.1744   47.1024 H   0  0  0  0  0  0  0  0  0  0  0  0
   59.6941   35.8344   47.7347 H   0  0  0  0  0  0  0  0  0  0  0  0
   57.8623   32.6930   47.0020 H   0  0  0  0  0  0  0  0  0  0  0  0
  1  2  1  0
  2  3  1  0
  3  4  1  0
  4  5  2  0
  5  6  1  0
  6  7  1  0
  7  8  1  0
  8  9  1  0
  9 10  1  0
 10 11  1  0
 11 12  1  0
 12 13  1  0
 13 14  1  0
 14 15  1  0
 15 16  2  0
 16 17  1  0
 17 18  2  0
 18 19  1  0
 19 20  2  0
 20 21  1  0
 21 22  2  0
 16 23  1  0
 23 24  1  0
 24 25  1  0
 10 26  1  0
 26 27  1  0
  5 28  1  0
 28 29  2  0
 29  3  1  0
 27  7  1  0
 24 14  2  0
 22 17  1  0
  1 30  1  0
  1 31  1  0
  1 32  1  0
  2 33  1  0
  2 34  1  0
  4 35  1  0
  6 36  1  0
  6 37  1  0
  8 38  1  0
  8 39  1  0
  9 40  1  0
  9 41  1  0
 11 42  1  0
 11 43  1  0
 12 44  1  0
 12 45  1  0
 13 46  1  0
 13 47  1  0
 15 48  1  0
 18 49  1  0
 19 50  1  0
 20 51  1  0
 21 52  1  0
 22 53  1  0
 25 54  1  0
 25 55  1  0
 25 56  1  0
 26 57  1  0
 26 58  1  0
 27 59  1  0
 27 60  1  0
 28 61  1  0
M  CHG  1  15   1
M  END
>  <UniqueID>  (23) 
23

>  <SMILES>  (23) 
CCn1cc(CN2CCN(CCCc3[nH+]c(-c4ccccc4)oc3C)CC2)cn1

>  <Energy>  (23) 
129.27374805421297

>  <Genealogy>  (23) 
CCn1cc(CN2CCN(CCCc3[nH+]c(-c4ccccc4)oc3C)CC2)cn1 (protonated)
CCn1cc(CN2CCN(CCCc3[nH+]c(-c4ccccc4)oc3C)CC2)cn1 (3D coordinates assigned)
CCn1cc(CN2CCN(CCCc3[nH+]c(-c4ccccc4)oc3C)CC2)cn1 (nonaromatic ring conformer: 129.27374805421297 kcal/mol)

>  <smiles>  (23) 
CCn1cc(CN2CCN(CCCc3nc(-c4ccccc4)oc3C)CC2)cn1

>  <score_type>  (23) 
oracle

>  <origin>  (23) 
adg

>  <m_score__min__energy>  (23) 
-6.4299999999999997

>  <m_primary>  (23) 
energy

$$$$
23:0
     RDKit          3D

 76 79  0  0  0  0  0  0  0  0999 V2000
   58.3730   30.6040   52.5746 H   0  0  0  0  0  0  0  0  0  0  0  0
   58.7630   31.2920   51.8100 C   0  0  0  0  0  0  0  0  0  0  0  0
   59.9770   31.9500   52.0140 C   0  0  0  0  0  0  0  0  0  0  0  0
   60.5363   31.7869   52.9470 H   0  0  0  0  0  0  0  0  0  0  0  0
   60.4880   32.8160   51.0400 C   0  0  0  0  0  0  0  0  0  0  0  0
   61.4412   33.3364   51.2150 H   0  0  0  0  0  0  0  0  0  0  0  0
   59.7830   33.0240   49.8320 C   0  0  0  0  0  0  0  0  0  0  0  0
   60.2790   33.8820   48.8180 C   0  0  0  0  0  0  0  0  0  0  0  0
   61.3200   34.6160   49.1220 N   0  0  0  0  0  0  0  0  0  0  0  0
   62.7290   34.3030   49.3410 C   0  0  0  0  0  0  0  0  0  0  0  0
   62.8370   33.7009   50.2552 H   0  0  0  0  0  0  0  0  0  0  0  0
   63.3066   35.2321   49.4556 H   0  0  0  0  0  0  0  0  0  0  0  0
   63.2480   33.5090   48.1350 C   0  0  0  0  0  0  0  0  0  0  0  0
   64.2965   33.7846   47.9491 H   0  0  0  0  0  0  0  0  0  0  0  0
   62.6211   33.7516   47.2642 H   0  0  0  0  0  0  0  0  0  0  0  0
   63.1650   31.9880   48.3860 C   0  0  0  0  0  0  0  0  0  0  0  0
   63.4298   31.7847   49.4341 H   0  0  0  0  0  0  0  0  0  0  0  0
   63.8637   31.4884   47.6988 H   0  0  0  0  0  0  0  0  0  0  0  0
   61.8050   31.4630   48.1240 N   0  0  0  0  0  0  0  0  0  0  0  0
   61.4640   30.4100   49.1200 C   0  0  0  0  0  0  0  0  0  0  0  0
   61.0783   30.8973   50.0276 H   0  0  0  0  0  0  0  0  0  0  0  0
   62.3811   29.8367   49.3209 H   0  0  0  0  0  0  0  0  0  0  0  0
   60.3970   29.4130   48.6030 C   0  0  0  0  0  0  0  0  0  0  0  0
   59.8015   29.0542   49.4554 H   0  0  0  0  0  0  0  0  0  0  0  0
   60.9171   28.5799   48.1076 H   0  0  0  0  0  0  0  0  0  0  0  0
   59.4890   30.0460   47.6140 N   0  0  0  0  0  0  0  0  0  0  0  0
   59.0150   30.8590   48.0710 H   0  0  0  0  0  0  0  0  0  0  0  0
   58.4460   29.1090   47.1190 C   0  0  0  0  0  0  0  0  0  0  0  0
   57.6485   29.7073   46.6542 H   0  0  0  0  0  0  0  0  0  0  0  0
   58.1207   28.5339   47.9984 H   0  0  0  0  0  0  0  0  0  0  0  0
   58.9170   28.0600   46.0830 C   0  0  0  0  0  0  0  0  0  0  0  0
   59.2836   27.1780   46.6286 H   0  0  0  0  0  0  0  0  0  0  0  0
   59.6974   28.5446   45.4779 H   0  0  0  0  0  0  0  0  0  0  0  0
   57.8270   27.6010   45.1060 C   0  0  0  0  0  0  0  0  0  0  0  0
   56.9087   27.3719   45.6666 H   0  0  0  0  0  0  0  0  0  0  0  0
   58.1745   26.7028   44.5745 H   0  0  0  0  0  0  0  0  0  0  0  0
   57.5580   28.6220   44.1640 O   0  0  0  0  0  0  0  0  0  0  0  0
   56.4900   29.4490   44.5930 C   0  0  0  0  0  0  0  0  0  0  0  0
   56.5079   29.5327   45.6897 H   0  0  0  0  0  0  0  0  0  0  0  0
   55.5331   29.0085   44.2762 H   0  0  0  0  0  0  0  0  0  0  0  0
   56.6450   30.8430   43.9700 C   0  0  0  0  0  0  0  0  0  0  0  0
   57.3158   31.4467   44.5990 H   0  0  0  0  0  0  0  0  0  0  0  0
   55.6528   31.3137   43.9072 H   0  0  0  0  0  0  0  0  0  0  0  0
   57.2100   30.7490   42.6130 N   0  0  0  0  0  0  0  0  0  0  0  0
   57.9540   30.0030   42.6320 H   0  0  0  0  0  0  0  0  0  0  0  0
   57.8570   32.0070   42.2150 C   0  0  0  0  0  0  0  0  0  0  0  0
   58.9489   31.8736   42.2169 H   0  0  0  0  0  0  0  0  0  0  0  0
   57.5816   32.8001   42.9257 H   0  0  0  0  0  0  0  0  0  0  0  0
   57.3950   32.4000   40.8120 C   0  0  0  0  0  0  0  0  0  0  0  0
   56.5591   33.1111   40.8870 H   0  0  0  0  0  0  0  0  0  0  0  0
   58.2287   32.8700   40.2697 H   0  0  0  0  0  0  0  0  0  0  0  0
   57.0648   31.5018   40.2697 H   0  0  0  0  0  0  0  0  0  0  0  0
   60.2490   30.5660   46.4410 C   0  0  0  0  0  0  0  0  0  0  0  0
   59.7482   31.4751   46.0766 H   0  0  0  0  0  0  0  0  0  0  0  0
   60.2643   29.7673   45.6848 H   0  0  0  0  0  0  0  0  0  0  0  0
   61.7160   30.9130   46.7650 C   0  0  0  0  0  0  0  0  0  0  0  0
   62.0835   31.6581   46.0440 H   0  0  0  0  0  0  0  0  0  0  0  0
   62.3293   30.0022   46.6992 H   0  0  0  0  0  0  0  0  0  0  0  0
   59.5870   33.9400   47.5680 C   0  0  0  0  0  0  0  0  0  0  0  0
   58.3070   33.3360   47.4870 C   0  0  0  0  0  0  0  0  0  0  0  0
   57.8470   32.5670   48.5090 N   0  0  0  0  0  0  0  0  0  0  0  0
   58.5560   32.3630   49.6430 C   0  0  0  0  0  0  0  0  0  0  0  0
   58.0450   31.5100   50.6320 C   0  0  0  0  0  0  0  0  0  0  0  0
   57.0764   31.0114   50.4796 H   0  0  0  0  0  0  0  0  0  0  0  0
   57.4040   33.5150   46.2870 C   0  0  0  0  0  0  0  0  0  0  0  0
   56.9366   32.5441   46.0658 H   0  0  0  0  0  0  0  0  0  0  0  0
   56.6834   34.2988   46.5633 H   0  0  0  0  0  0  0  0  0  0  0  0
   58.1020   34.0110   45.0040 C   0  0  0  0  0  0  0  0  0  0  0  0
   57.7154   33.4355   44.1500 H   0  0  0  0  0  0  0  0  0  0  0  0
   57.8866   35.0853   44.9070 H   0  0  0  0  0  0  0  0  0  0  0  0
   59.6150   33.8530   45.0500 C   0  0  0  0  0  0  0  0  0  0  0  0
   59.8677   32.7825   45.0652 H   0  0  0  0  0  0  0  0  0  0  0  0
   60.0517   34.3309   44.1607 H   0  0  0  0  0  0  0  0  0  0  0  0
   60.1840   34.5260   46.3090 C   0  0  0  0  0  0  0  0  0  0  0  0
   61.2743   34.3818   46.3297 H   0  0  0  0  0  0  0  0  0  0  0  0
   59.9312   35.5960   46.2727 H   0  0  0  0  0  0  0  0  0  0  0  0
  1  2  1  0
  2  3  2  0
  3  4  1  0
  3  5  1  0
  5  6  1  0
  5  7  2  0
  7  8  1  0
  8  9  2  0
  9 10  1  0
 10 11  1  0
 10 12  1  0
 10 13  1  0
 13 14  1  0
 13 15  1  0
 13 16  1  0
 16 17  1  0
 16 18  1  0
 16 19  1  0
 19 20  1  0
 20 21  1  0
 20 22  1  0
 20 23  1  0
 23 24  1  0
 23 25  1  0
 23 26  1  0
 26 27  1  0
 26 28  1  0
 28 29  1  0
 28 30  1  0
 28 31  1  0
 31 32  1  0
 31 33  1  0
 31 34  1  0
 34 35  1  0
 34 36  1  0
 34 37  1  0
 37 38  1  0
 38 39  1  0
 38 40  1  0
 38 41  1  0
 41 42  1  0
 41 43  1  0
 41 44  1  0
 44 45  1  0
 44 46  1  0
 46 47  1  0
 46 48  1  0
 46 49  1  0
 49 50  1  0
 49 51  1  0
 49 52  1  0
 26 53  1  0
 53 54  1  0
 53 55  1  0
 53 56  1  0
 56 57  1  0
 56 58  1  0
  8 59  1  0
 59 60  2  0
 60 61  1  0
 61 62  1  0
 62 63  2  0
 63 64  1  0
 60 65  1  0
 65 66  1  0
 65 67  1  0
 65 68  1  0
 68 69  1  0
 68 70  1  0
 68 71  1  0
 71 72  1  0
 71 73  1  0
 71 74  1  0
 74 75  1  0
 74 76  1  0
 63  2  1  0
 62  7  1  0
 56 19  1  0
 74 59  1  0
M  CHG  2  26   1  61  -1
M  END
>  <UniqueID>  (24) 
24

>  <SMILES>  (24) 
CCNCCOCCC[NH+]1CCN(CCC/N=c2\c3c([n-]c4ccccc24)CCCC3)CC1

>  <Energy>  (24) 
104.84022810744035

>  <Genealogy>  (24) 
CCNCCOCCC[NH+]1CCN(CCCN=c2c3c([n-]c4ccccc24)CCCC3)CC1 (protonated)
CCNCCOCCC[NH+]1CCN(CCC/N=c2\c3c([n-]c4ccccc24)CCCC3)CC1 (cis-trans isomerization)
CCNCCOCCC[NH+]1CCN(CCC/N=c2\c3c([n-]c4ccccc24)CCCC3)CC1 (3D coordinates assigned)
CCNCCOCCC[NH+]1CCN(CCC/N=c2\c3c([n-]c4ccccc24)CCCC3)CC1 (nonaromatic ring conformer: 104.84022810744035 kcal/mol)

>  <smiles>  (24) 
CCNCCOCCCN1CCN(CCCN=c2c3c([nH]c4ccccc24)CCCC3)CC1

>  <score_type>  (24) 
oracle

>  <origin>  (24) 
adg

>  <m_score__min__energy>  (24) 
-7.3899999999999997

>  <m_primary>  (24) 
energy

$$$$
24:0
     RDKit          3D

 42 44  0  0  0  0  0  0  0  0999 V2000
   60.9500   30.6860   50.7480 C   0  0  0  0  0  0  0  0  0  0  0  0
   62.1610   30.4000   51.6400 C   0  0  0  0  0  0  0  0  0  0  0  0
   63.4040   30.2800   50.8720 N   0  0  0  0  0  0  0  0  0  0  0  0
   64.7990   30.5350   51.9370 S   0  0  0  0  0  0  0  0  0  0  0  0
   64.6670   32.3560   51.8620 C   0  0  0  0  0  0  0  0  0  0  0  0
   65.3150   32.9340   50.5950 C   0  0  0  0  0  0  0  0  0  0  0  0
   64.8630   32.2300   49.3850 N   0  0  0  0  0  0  0  0  0  0  0  0
   63.6130   32.7900   48.9310 C   0  0  0  0  0  0  0  0  0  0  0  0
   63.2040   34.0550   49.3740 C   0  0  0  0  0  0  0  0  0  0  0  0
   61.9830   34.5840   48.9610 C   0  0  0  0  0  0  0  0  0  0  0  0
   61.1540   33.8510   48.1080 C   0  0  0  0  0  0  0  0  0  0  0  0
   59.6800   34.4940   47.6130 S   0  0  0  0  0  0  0  0  0  0  0  0
   58.8440   33.4460   46.5990 C   0  0  0  0  0  0  0  0  0  0  0  0
   57.6330   33.8100   46.1060 N   0  0  0  0  0  0  0  0  0  0  0  0
   56.9210   32.9970   45.2860 C   0  0  0  0  0  0  0  0  0  0  0  0
   57.4270   31.7430   44.9210 C   0  0  0  0  0  0  0  0  0  0  0  0
   56.6770   30.8770   44.0500 N   0  0  0  0  0  0  0  0  0  0  0  0
   56.9290   30.8270   42.8280 O   0  0  0  0  0  0  0  0  0  0  0  0
   55.6680   30.0860   44.5500 O   0  0  0  0  0  0  0  0  0  0  0  0
   58.6810   31.3530   45.4240 C   0  0  0  0  0  0  0  0  0  0  0  0
   59.4210   32.2010   46.2790 C   0  0  0  0  0  0  0  0  0  0  0  0
   60.6950   31.7850   46.7800 C   0  0  0  0  0  0  0  0  0  0  0  0
   61.1190   30.6470   46.4300 O   0  0  0  0  0  0  0  0  0  0  0  0
   61.5240   32.5650   47.6490 C   0  0  0  0  0  0  0  0  0  0  0  0
   62.7680   32.0490   48.0830 C   0  0  0  0  0  0  0  0  0  0  0  0
   60.0719   30.8934   51.3773 H   0  0  0  0  0  0  0  0  0  0  0  0
   61.1604   31.5592   50.1129 H   0  0  0  0  0  0  0  0  0  0  0  0
   60.7476   29.8110   50.1129 H   0  0  0  0  0  0  0  0  0  0  0  0
   62.2699   31.2224   52.3624 H   0  0  0  0  0  0  0  0  0  0  0  0
   61.9854   29.4396   52.1467 H   0  0  0  0  0  0  0  0  0  0  0  0
   63.4790   29.3190   50.4670 H   0  0  0  0  0  0  0  0  0  0  0  0
   63.6030   32.6347   51.8742 H   0  0  0  0  0  0  0  0  0  0  0  0
   65.1994   32.7688   52.7315 H   0  0  0  0  0  0  0  0  0  0  0  0
   65.0466   33.9974   50.5103 H   0  0  0  0  0  0  0  0  0  0  0  0
   66.4046   32.8088   50.6786 H   0  0  0  0  0  0  0  0  0  0  0  0
   64.7400   31.2110   49.5920 H   0  0  0  0  0  0  0  0  0  0  0  0
   65.5780   32.3200   48.6260 H   0  0  0  0  0  0  0  0  0  0  0  0
   63.8500   34.6331   50.0511 H   0  0  0  0  0  0  0  0  0  0  0  0
   61.6711   35.5805   49.3071 H   0  0  0  0  0  0  0  0  0  0  0  0
   55.9419   33.3241   44.9060 H   0  0  0  0  0  0  0  0  0  0  0  0
   59.0930   30.3713   45.1473 H   0  0  0  0  0  0  0  0  0  0  0  0
   63.0814   31.0482   47.7510 H   0  0  0  0  0  0  0  0  0  0  0  0
  1  2  1  0
  2  3  1  0
  3  4  1  0
  4  5  1  0
  5  6  1  0
  6  7  1  0
  7  8  1  0
  8  9  2  0
  9 10  1  0
 10 11  2  0
 11 12  1  0
 12 13  1  0
 13 14  2  0
 14 15  1  0
 15 16  2  0
 16 17  1  0
 17 18  2  0
 17 19  1  0
 16 20  1  0
 20 21  2  0
 21 22  1  0
 22 23  2  0
 22 24  1  0
 24 25  2  0
 25  8  1  0
 24 11  1  0
 21 13  1  0
  1 26  1  0
  1 27  1  0
  1 28  1  0
  2 29  1  0
  2 30  1  0
  3 31  1  0
  5 32  1  0
  5 33  1  0
  6 34  1  0
  6 35  1  0
  7 36  1  0
  7 37  1  0
  9 38  1  0
 10 39  1  0
 15 40  1  0
 20 41  1  0
 25 42  1  0
M  CHG  3   7   1  17   1  19  -1
M  END
>  <UniqueID>  (25) 
25

>  <SMILES>  (25) 
CCNSCC[NH2+]c1ccc2sc3ncc([N+](=O)[O-])cc3c(=O)c2c1

>  <Energy>  (25) 
51.03085000829192

>  <Genealogy>  (25) 
CCNSCC[NH2+]c1ccc2sc3ncc([N+](=O)[O-])cc3c(=O)c2c1 (protonated)
CCNSCC[NH2+]c1ccc2sc3ncc([N+](=O)[O-])cc3c(=O)c2c1 (3D coordinates assigned)
CCNSCC[NH2+]c1ccc2sc3ncc([N+](=O)[O-])cc3c(=O)c2c1 (optimized conformer: 51.03085000829192 kcal/mol)

>  <smiles>  (25) 
CCNSCCNc1ccc2sc3ncc([N+](=O)[O-])cc3c(=O)c2c1

>  <score_type>  (25) 
oracle

>  <origin>  (25) 
adg

>  <m_score__min__energy>  (25) 
-6.7300000000000004

>  <m_primary>  (25) 
energy

$$$$
25:0
     RDKit          3D

 31 33  0  0  1  0  0  0  0  0999 V2000
   58.1570   32.6780   48.0160 C   0  0  0  0  0  0  0  0  0  0  0  0
   58.5220   33.4970   46.8810 N   0  0  0  0  0  0  0  0  0  0  0  0
   59.4160   34.5050   46.9100 C   0  0  0  0  0  0  0  0  0  0  0  0
   59.5160   35.0700   45.6430 C   0  0  0  0  0  0  0  0  0  0  0  0
   58.6420   34.3540   44.8610 C   0  0  0  0  0  0  0  0  0  0  0  0
   58.0370   33.3870   45.6410 C   0  0  0  0  0  0  0  0  0  0  0  0
   57.0230   32.3750   45.2420 C   0  0  0  0  0  0  0  0  0  0  0  0
   57.5820   31.2020   44.6640 N   0  0  0  0  0  0  0  0  0  0  0  0
   57.3940   31.0740   43.2330 C   0  0  0  0  0  0  0  0  0  0  0  0
   56.5420   29.8510   43.0160 C   0  0  2  0  0  0  0  0  0  0  0  0
   55.7680   29.8510   44.3360 C   0  0  0  0  0  0  0  0  0  0  0  0
   57.0300   29.9730   45.1670 C   0  0  1  0  0  0  0  0  0  0  0  0
   57.8000   28.8040   44.5850 C   0  0  0  0  0  0  0  0  0  0  0  0
   57.3570   28.6860   43.2050 N   0  0  0  0  0  0  0  0  0  0  0  0
   58.3957   33.2137   48.9466 H   0  0  0  0  0  0  0  0  0  0  0  0
   57.0785   32.4643   47.9823 H   0  0  0  0  0  0  0  0  0  0  0  0
   58.7192   31.7331   47.9823 H   0  0  0  0  0  0  0  0  0  0  0  0
   59.9789   34.8302   47.7974 H   0  0  0  0  0  0  0  0  0  0  0  0
   60.1566   35.9090   45.3337 H   0  0  0  0  0  0  0  0  0  0  0  0
   58.4547   34.5228   43.7903 H   0  0  0  0  0  0  0  0  0  0  0  0
   56.4528   32.0835   46.1364 H   0  0  0  0  0  0  0  0  0  0  0  0
   56.3891   32.8412   44.4733 H   0  0  0  0  0  0  0  0  0  0  0  0
   56.8859   31.9653   42.8362 H   0  0  0  0  0  0  0  0  0  0  0  0
   58.3593   30.9809   42.7139 H   0  0  0  0  0  0  0  0  0  0  0  0
   56.0107   29.8512   42.0528 H   0  0  0  0  0  0  0  0  0  0  0  0
   55.0884   30.7091   44.4444 H   0  0  0  0  0  0  0  0  0  0  0  0
   55.0746   29.0227   44.5438 H   0  0  0  0  0  0  0  0  0  0  0  0
   56.9792   29.9704   46.2658 H   0  0  0  0  0  0  0  0  0  0  0  0
   58.8817   28.9999   44.6247 H   0  0  0  0  0  0  0  0  0  0  0  0
   57.6177   27.8777   45.1495 H   0  0  0  0  0  0  0  0  0  0  0  0
   56.7290   27.8490   43.1330 H   0  0  0  0  0  0  0  0  0  0  0  0
  1  2  1  0
  2  3  1  0
  3  4  2  0
  4  5  1  0
  5  6  2  0
  6  7  1  0
  7  8  1  0
  8  9  1  0
  9 10  1  0
 10 11  1  0
 11 12  1  0
 12 13  1  0
 13 14  1  0
  6  2  1  0
 12  8  1  0
 14 10  1  0
  1 15  1  0
  1 16  1  0
  1 17  1  0
  3 18  1  0
  4 19  1  0
  5 20  1  0
  7 21  1  0
  7 22  1  0
  9 23  1  0
  9 24  1  0
 10 25  1  6
 11 26  1  0
 11 27  1  0
 12 28  1  1
 13 29  1  0
 13 30  1  0
 14 31  1  0
M  END
>  <smiles>  (26) 
Cn1cccc1CN1CC2CC1CN2

>  <score_type>  (26) 
oracle

>  <origin>  (26) 
adg

>  <m_score__min__energy>  (26) 
-6.1299999999999999

>  <m_primary>  (26) 
energy

$$$$
26:0
     RDKit          3D

 59 61  0  0  0  0  0  0  0  0999 V2000
   55.2970   29.7140   44.0270 C   0  0  0  0  0  0  0  0  0  0  0  0
   56.3150   29.7210   42.8920 C   0  0  0  0  0  0  0  0  0  0  0  0
   57.6000   30.2590   43.3610 N   0  0  0  0  0  0  0  0  0  0  0  0
   57.8190   31.6550   42.9450 C   0  0  0  0  0  0  0  0  0  0  0  0
   57.7860   32.6290   44.1340 C   0  0  0  0  0  0  0  0  0  0  0  0
   57.3920   31.9360   45.3580 N   0  0  0  0  0  0  0  0  0  0  0  0
   58.3790   31.5720   46.3330 C   0  0  0  0  0  0  0  0  0  0  0  0
   59.1470   32.5640   46.9600 C   0  0  0  0  0  0  0  0  0  0  0  0
   58.9360   33.9290   46.6690 C   0  0  0  0  0  0  0  0  0  0  0  0
   59.6650   34.9160   47.3280 C   0  0  0  0  0  0  0  0  0  0  0  0
   60.6020   34.5630   48.2920 C   0  0  0  0  0  0  0  0  0  0  0  0
   60.8360   33.2190   48.5860 C   0  0  0  0  0  0  0  0  0  0  0  0
   60.1400   32.1880   47.9040 C   0  0  0  0  0  0  0  0  0  0  0  0
   60.3940   30.8510   48.1470 N   0  0  0  0  0  0  0  0  0  0  0  0
   61.6030   30.4530   48.9000 C   0  0  0  0  0  0  0  0  0  0  0  0
   59.5300   29.8840   47.6630 C   0  0  0  0  0  0  0  0  0  0  0  0
   59.5950   28.5390   48.1000 C   0  0  0  0  0  0  0  0  0  0  0  0
   58.7470   27.5660   47.5720 C   0  0  0  0  0  0  0  0  0  0  0  0
   57.7920   27.8950   46.6090 C   0  0  0  0  0  0  0  0  0  0  0  0
   56.9360   26.8570   46.0890 N   0  0  0  0  0  0  0  0  0  0  0  0
   57.3480   25.8350   45.1250 C   0  0  0  0  0  0  0  0  0  0  0  0
   56.2360   24.8080   44.8830 C   0  0  0  0  0  0  0  0  0  0  0  0
   55.2900   24.8030   46.0250 N   0  0  0  0  0  0  0  0  0  0  0  0
   55.8440   24.0570   47.1670 C   0  0  0  0  0  0  0  0  0  0  0  0
   53.9910   24.2250   45.6410 C   0  0  0  0  0  0  0  0  0  0  0  0
   57.6860   29.2300   46.1880 C   0  0  0  0  0  0  0  0  0  0  0  0
   58.5290   30.2290   46.7190 C   0  0  0  0  0  0  0  0  0  0  0  0
   55.8242   29.7176   44.9924 H   0  0  0  0  0  0  0  0  0  0  0  0
   54.6600   30.6078   43.9537 H   0  0  0  0  0  0  0  0  0  0  0  0
   54.6723   28.8115   43.9537 H   0  0  0  0  0  0  0  0  0  0  0  0
   56.4626   28.6925   42.5309 H   0  0  0  0  0  0  0  0  0  0  0  0
   55.9375   30.3565   42.0774 H   0  0  0  0  0  0  0  0  0  0  0  0
   58.3790   29.6580   42.9990 H   0  0  0  0  0  0  0  0  0  0  0  0
   58.8009   31.7283   42.4546 H   0  0  0  0  0  0  0  0  0  0  0  0
   57.0059   31.9336   42.2585 H   0  0  0  0  0  0  0  0  0  0  0  0
   58.7866   33.0647   44.2718 H   0  0  0  0  0  0  0  0  0  0  0  0
   57.0512   33.4199   43.9231 H   0  0  0  0  0  0  0  0  0  0  0  0
   56.3880   31.7340   45.5650 H   0  0  0  0  0  0  0  0  0  0  0  0
   58.1887   34.2160   45.9146 H   0  0  0  0  0  0  0  0  0  0  0  0
   59.4990   35.9760   47.0853 H   0  0  0  0  0  0  0  0  0  0  0  0
   61.1612   35.3459   48.8252 H   0  0  0  0  0  0  0  0  0  0  0  0
   61.5723   32.9547   49.3593 H   0  0  0  0  0  0  0  0  0  0  0  0
   61.4012   30.5194   49.9793 H   0  0  0  0  0  0  0  0  0  0  0  0
   61.8727   29.4187   48.6404 H   0  0  0  0  0  0  0  0  0  0  0  0
   62.4344   31.1249   48.6404 H   0  0  0  0  0  0  0  0  0  0  0  0
   60.3278   28.2563   48.8701 H   0  0  0  0  0  0  0  0  0  0  0  0
   58.8319   26.5256   47.9191 H   0  0  0  0  0  0  0  0  0  0  0  0
   55.9480   26.8130   46.4290 H   0  0  0  0  0  0  0  0  0  0  0  0
   57.5969   26.3233   44.1713 H   0  0  0  0  0  0  0  0  0  0  0  0
   58.2214   25.3068   45.5351 H   0  0  0  0  0  0  0  0  0  0  0  0
   55.6936   25.0691   43.9623 H   0  0  0  0  0  0  0  0  0  0  0  0
   56.6844   23.8086   44.7824 H   0  0  0  0  0  0  0  0  0  0  0  0
   55.5024   24.5170   48.1060 H   0  0  0  0  0  0  0  0  0  0  0  0
   55.5007   23.0128   47.1241 H   0  0  0  0  0  0  0  0  0  0  0  0
   56.9428   24.0838   47.1241 H   0  0  0  0  0  0  0  0  0  0  0  0
   53.4205   23.9712   46.5466 H   0  0  0  0  0  0  0  0  0  0  0  0
   53.4260   24.9566   45.0448 H   0  0  0  0  0  0  0  0  0  0  0  0
   54.1562   23.3155   45.0448 H   0  0  0  0  0  0  0  0  0  0  0  0
   56.9341   29.5014   45.4324 H   0  0  0  0  0  0  0  0  0  0  0  0
  1  2  1  0
  2  3  1  0
  3  4  1  0
  4  5  1  0
  5  6  1  0
  6  7  1  0
  7  8  2  0
  8  9  1  0
  9 10  2  0
 10 11  1  0
 11 12  2  0
 12 13  1  0
 13 14  2  0
 14 15  1  0
 14 16  1  0
 16 17  2  0
 17 18  1  0
 18 19  2  0
 19 20  1  0
 20 21  1  0
 21 22  1  0
 22 23  1  0
 23 24  1  0
 23 25  1  0
 19 26  1  0
 26 27  2  0
 27  7  1  0
 13  8  1  0
 27 16  1  0
  1 28  1  0
  1 29  1  0
  1 30  1  0
  2 31  1  0
  2 32  1  0
  3 33  1  0
  4 34  1  0
  4 35  1  0
  5 36  1  0
  5 37  1  0
  6 38  1  0
  9 39  1  0
 10 40  1  0
 11 41  1  0
 12 42  1  0
 15 43  1  0
 15 44  1  0
 15 45  1  0
 17 46  1  0
 18 47  1  0
 20 48  1  0
 21 49  1  0
 21 50  1  0
 22 51  1  0
 22 52  1  0
 24 53  1  0
 24 54  1  0
 24 55  1  0
 25 56  1  0
 25 57  1  0
 25 58  1  0
 26 59  1  0
M  CHG  1  14   1
M  END
>  <UniqueID>  (27) 
26

>  <SMILES>  (27) 
CCNCCNc1c2ccccc2[n+](C)c2ccc(NCCN(C)C)cc12

>  <Energy>  (27) 
82.10196270062573

>  <Genealogy>  (27) 
CCNCCNc1c2ccccc2[n+](C)c2ccc(NCCN(C)C)cc12 (3D coordinates assigned)
CCNCCNc1c2ccccc2[n+](C)c2ccc(NCCN(C)C)cc12 (optimized conformer: 82.10196270062573 kcal/mol)

>  <smiles>  (27) 
CCNCCNc1c2ccccc2[n+](C)c2ccc(NCCN(C)C)cc12

>  <score_type>  (27) 
oracle

>  <origin>  (27) 
adg

>  <m_score__min__energy>  (27) 
-5.7000000000000002

>  <m_primary>  (27) 
energy

$$$$
27:0
     RDKit          3D

 36 37  0  0  0  0  0  0  0  0999 V2000
   57.8050   33.5030   44.6020 C   0  0  0  0  0  0  0  0  0  0  0  0
   57.0330   32.2280   44.9390 C   0  0  0  0  0  0  0  0  0  0  0  0
   57.3620   31.1340   43.9950 N   0  0  0  0  0  0  0  0  0  0  0  0
   57.6510   31.6710   42.6530 C   0  0  0  0  0  0  0  0  0  0  0  0
   56.2420   30.1720   43.9100 C   0  0  0  0  0  0  0  0  0  0  0  0
   55.9590   29.6080   45.1790 O   0  0  0  0  0  0  0  0  0  0  0  0
   57.0250   28.7910   45.6310 C   0  0  0  0  0  0  0  0  0  0  0  0
   56.6600   27.3450   45.5160 C   0  0  0  0  0  0  0  0  0  0  0  0
   57.3950   26.3650   44.8860 C   0  0  0  0  0  0  0  0  0  0  0  0
   56.6230   25.2270   45.0440 C   0  0  0  0  0  0  0  0  0  0  0  0
   56.8990   23.8730   44.5060 C   0  0  0  0  0  0  0  0  0  0  0  0
   56.2180   23.4390   43.3540 C   0  0  0  0  0  0  0  0  0  0  0  0
   56.4640   22.1730   42.8160 C   0  0  0  0  0  0  0  0  0  0  0  0
   57.3870   21.3210   43.4250 C   0  0  0  0  0  0  0  0  0  0  0  0
   58.0620   21.7340   44.5750 C   0  0  0  0  0  0  0  0  0  0  0  0
   57.8240   23.0000   45.1200 C   0  0  0  0  0  0  0  0  0  0  0  0
   58.4680   23.3430   46.2630 F   0  0  0  0  0  0  0  0  0  0  0  0
   55.5020   25.5440   45.7270 N   0  0  0  0  0  0  0  0  0  0  0  0
   55.5610   26.8150   45.9960 O   0  0  0  0  0  0  0  0  0  0  0  0
   58.1087   34.0046   45.5327 H   0  0  0  0  0  0  0  0  0  0  0  0
   58.6993   33.2459   44.0154 H   0  0  0  0  0  0  0  0  0  0  0  0
   57.1627   34.1763   44.0154 H   0  0  0  0  0  0  0  0  0  0  0  0
   57.2930   31.9109   45.9597 H   0  0  0  0  0  0  0  0  0  0  0  0
   55.9570   32.4426   44.8604 H   0  0  0  0  0  0  0  0  0  0  0  0
   58.1703   32.6360   42.7482 H   0  0  0  0  0  0  0  0  0  0  0  0
   58.2900   30.9632   42.1047 H   0  0  0  0  0  0  0  0  0  0  0  0
   56.7083   31.8145   42.1047 H   0  0  0  0  0  0  0  0  0  0  0  0
   55.3469   30.6939   43.5407 H   0  0  0  0  0  0  0  0  0  0  0  0
   56.5273   29.3621   43.2225 H   0  0  0  0  0  0  0  0  0  0  0  0
   57.9177   28.9890   45.0195 H   0  0  0  0  0  0  0  0  0  0  0  0
   57.2299   29.0240   46.6863 H   0  0  0  0  0  0  0  0  0  0  0  0
   58.3656   26.4635   44.3777 H   0  0  0  0  0  0  0  0  0  0  0  0
   55.4849   24.1026   42.8722 H   0  0  0  0  0  0  0  0  0  0  0  0
   55.9296   21.8473   41.9114 H   0  0  0  0  0  0  0  0  0  0  0  0
   57.5821   20.3257   42.9993 H   0  0  0  0  0  0  0  0  0  0  0  0
   58.7858   21.0594   45.0557 H   0  0  0  0  0  0  0  0  0  0  0  0
  1  2  1  0
  2  3  1  0
  3  4  1  0
  3  5  1  0
  5  6  1  0
  6  7  1  0
  7  8  1  0
  8  9  2  0
  9 10  1  0
 10 11  1  0
 11 12  2  0
 12 13  1  0
 13 14  2  0
 14 15  1  0
 15 16  2  0
 16 17  1  0
 10 18  2  0
 18 19  1  0
 19  8  1  0
 16 11  1  0
  1 20  1  0
  1 21  1  0
  1 22  1  0
  2 23  1  0
  2 24  1  0
  4 25  1  0
  4 26  1  0
  4 27  1  0
  5 28  1  0
  5 29  1  0
  7 30  1  0
  7 31  1  0
  9 32  1  0
 12 33  1  0
 13 34  1  0
 14 35  1  0
 15 36  1  0
M  END
>  <UniqueID>  (28) 
27

>  <SMILES>  (28) 
CCN(C)COCc1cc(-c2ccccc2F)no1

>  <Energy>  (28) 
69.16243261423126

>  <Genealogy>  (28) 
CCN(C)COCc1cc(-c2ccccc2F)no1 (3D coordinates assigned)
CCN(C)COCc1cc(-c2ccccc2F)no1 (optimized conformer: 69.16243261423126 kcal/mol)

>  <smiles>  (28) 
CCN(C)COCc1cc(-c2ccccc2F)no1

>  <score_type>  (28) 
oracle

>  <origin>  (28) 
adg

>  <m_score__min__energy>  (28) 
-7.04

>  <m_primary>  (28) 
energy

$$$$
28:0
     RDKit          3D

 42 44  0  0  0  0  0  0  0  0999 V2000
   54.9990   24.0820   44.8260 C   0  0  0  0  0  0  0  0  0  0  0  0
   55.4480   24.3810   46.2520 C   0  0  0  0  0  0  0  0  0  0  0  0
   55.8750   25.7260   46.3590 O   0  0  0  0  0  0  0  0  0  0  0  0
   57.2320   25.7910   46.7440 C   0  0  0  0  0  0  0  0  0  0  0  0
   58.1320   25.8670   45.5020 C   0  0  0  0  0  0  0  0  0  0  0  0
   57.3880   26.2410   44.2820 N   0  0  0  0  0  0  0  0  0  0  0  0
   58.1660   27.1340   43.4070 C   0  0  0  0  0  0  0  0  0  0  0  0
   57.9570   28.5740   43.8020 C   0  0  0  0  0  0  0  0  0  0  0  0
   56.9960   29.3510   43.1390 C   0  0  0  0  0  0  0  0  0  0  0  0
   56.8180   30.6930   43.4710 C   0  0  0  0  0  0  0  0  0  0  0  0
   57.6070   31.2860   44.4670 C   0  0  0  0  0  0  0  0  0  0  0  0
   57.4230   32.6430   44.7970 C   0  0  0  0  0  0  0  0  0  0  0  0
   58.2260   33.2030   45.7860 C   0  0  0  0  0  0  0  0  0  0  0  0
   59.1770   32.4690   46.4310 C   0  0  0  0  0  0  0  0  0  0  0  0
   59.4010   31.1230   46.1430 C   0  0  0  0  0  0  0  0  0  0  0  0
   60.7670   30.1870   47.1150 Br  0  0  0  0  0  0  0  0  0  0  0  0
   58.6020   30.5130   45.1410 C   0  0  0  0  0  0  0  0  0  0  0  0
   58.7640   29.1600   44.7890 C   0  0  0  0  0  0  0  0  0  0  0  0
   59.8460   33.2330   47.3660 O   0  0  0  0  0  0  0  0  0  0  0  0
   59.3360   34.5650   47.3730 C   0  0  0  0  0  0  0  0  0  0  0  0
   58.2200   34.5960   46.3030 C   0  0  0  0  0  0  0  0  0  0  0  0
   54.0836   23.4724   44.8500 H   0  0  0  0  0  0  0  0  0  0  0  0
   54.7969   25.0265   44.2996 H   0  0  0  0  0  0  0  0  0  0  0  0
   55.7925   23.5314   44.2996 H   0  0  0  0  0  0  0  0  0  0  0  0
   54.6073   24.2110   46.9407 H   0  0  0  0  0  0  0  0  0  0  0  0
   56.2861   23.7171   46.5106 H   0  0  0  0  0  0  0  0  0  0  0  0
   57.3915   26.6857   47.3637 H   0  0  0  0  0  0  0  0  0  0  0  0
   57.4864   24.8872   47.3171 H   0  0  0  0  0  0  0  0  0  0  0  0
   58.9157   26.6179   45.6805 H   0  0  0  0  0  0  0  0  0  0  0  0
   58.5580   24.8662   45.3381 H   0  0  0  0  0  0  0  0  0  0  0  0
   56.4750   26.6900   44.5280 H   0  0  0  0  0  0  0  0  0  0  0  0
   57.1780   25.3640   43.7470 H   0  0  0  0  0  0  0  0  0  0  0  0
   59.2341   26.8860   43.4945 H   0  0  0  0  0  0  0  0  0  0  0  0
   57.8287   26.9973   42.3690 H   0  0  0  0  0  0  0  0  0  0  0  0
   56.3775   28.8976   42.3504 H   0  0  0  0  0  0  0  0  0  0  0  0
   56.0551   31.2896   42.9493 H   0  0  0  0  0  0  0  0  0  0  0  0
   56.6606   33.2474   44.2837 H   0  0  0  0  0  0  0  0  0  0  0  0
   59.5319   28.5551   45.2933 H   0  0  0  0  0  0  0  0  0  0  0  0
   58.9244   34.8121   48.3627 H   0  0  0  0  0  0  0  0  0  0  0  0
   60.1244   35.3009   47.1564 H   0  0  0  0  0  0  0  0  0  0  0  0
   57.2477   34.8489   46.7509 H   0  0  0  0  0  0  0  0  0  0  0  0
   58.3845   35.3527   45.5218 H   0  0  0  0  0  0  0  0  0  0  0  0
  1  2  1  0
  2  3  1  0
  3  4  1  0
  4  5  1  0
  5  6  1  0
  6  7  1  0
  7  8  1  0
  8  9  2  0
  9 10  1  0
 10 11  2  0
 11 12  1  0
 12 13  2  0
 13 14  1  0
 14 15  2  0
 15 16  1  0
 15 17  1  0
 17 18  2  0
 14 19  1  0
 19 20  1  0
 20 21  1  0
 18  8  1  0
 17 11  1  0
 21 13  1  0
  1 22  1  0
  1 23  1  0
  1 24  1  0
  2 25  1  0
  2 26  1  0
  4 27  1  0
  4 28  1  0
  5 29  1  0
  5 30  1  0
  6 31  1  0
  6 32  1  0
  7 33  1  0
  7 34  1  0
  9 35  1  0
 10 36  1  0
 12 37  1  0
 18 38  1  0
 20 39  1  0
 20 40  1  0
 21 41  1  0
 21 42  1  0
M  CHG  1   6   1
M  END
>  <UniqueID>  (29) 
28

>  <SMILES>  (29) 
CCOCC[NH2+]Cc1ccc2cc3c(c(Br)c2c1)OCC3

>  <Energy>  (29) 
61.97297051138508

>  <Genealogy>  (29) 
CCOCC[NH2+]Cc1ccc2cc3c(c(Br)c2c1)OCC3 (protonated)
CCOCC[NH2+]Cc1ccc2cc3c(c(Br)c2c1)OCC3 (3D coordinates assigned)
CCOCC[NH2+]Cc1ccc2cc3c(c(Br)c2c1)OCC3 (nonaromatic ring conformer: 61.97297051138508 kcal/mol)

>  <smiles>  (29) 
CCOCCNCc1ccc2cc3c(c(Br)c2c1)OCC3

>  <score_type>  (29) 
oracle

>  <origin>  (29) 
adg

>  <m_score__min__energy>  (29) 
-5.5599999999999996

>  <m_primary>  (29) 
energy

$$$$
29:0
     RDKit          3D

 51 54  0  0  0  0  0  0  0  0999 V2000
   57.4860   28.1290   44.1940 C   0  0  0  0  0  0  0  0  0  0  0  0
   57.5000   29.5040   43.7110 N   0  0  0  0  0  0  0  0  0  0  0  0
   58.1170   30.5390   44.3090 C   0  0  0  0  0  0  0  0  0  0  0  0
   57.8280   31.6750   43.5830 C   0  0  0  0  0  0  0  0  0  0  0  0
   58.2610   33.0760   43.8870 C   0  0  0  0  0  0  0  0  0  0  0  0
   58.6590   33.1940   45.3030 N   0  0  0  0  0  0  0  0  0  0  0  0
   57.4820   33.2700   46.1910 C   0  0  0  0  0  0  0  0  0  0  0  0
   57.9290   33.0340   47.6380 C   0  0  0  0  0  0  0  0  0  0  0  0
   59.2220   33.7680   47.9400 C   0  0  0  0  0  0  0  0  0  0  0  0
   59.9540   33.4760   49.0490 C   0  0  0  0  0  0  0  0  0  0  0  0
   61.4320   33.4020   49.0220 C   0  0  0  0  0  0  0  0  0  0  0  0
   62.0960   32.8070   47.9360 C   0  0  0  0  0  0  0  0  0  0  0  0
   63.4900   32.7070   47.9340 C   0  0  0  0  0  0  0  0  0  0  0  0
   64.2290   33.1860   49.0200 C   0  0  0  0  0  0  0  0  0  0  0  0
   65.5810   33.0870   49.0170 F   0  0  0  0  0  0  0  0  0  0  0  0
   63.5730   33.7610   50.1130 C   0  0  0  0  0  0  0  0  0  0  0  0
   62.1780   33.8640   50.1170 C   0  0  0  0  0  0  0  0  0  0  0  0
   59.3050   33.1610   50.3430 C   0  0  0  0  0  0  0  0  0  0  0  0
   58.6850   31.9160   50.5470 C   0  0  0  0  0  0  0  0  0  0  0  0
   58.0550   31.6360   51.7630 C   0  0  0  0  0  0  0  0  0  0  0  0
   58.0310   32.5970   52.7790 C   0  0  0  0  0  0  0  0  0  0  0  0
   57.4190   32.3230   53.9570 F   0  0  0  0  0  0  0  0  0  0  0  0
   58.6330   33.8420   52.5760 C   0  0  0  0  0  0  0  0  0  0  0  0
   59.2630   34.1270   51.3600 C   0  0  0  0  0  0  0  0  0  0  0  0
   59.6170   34.8550   46.9590 C   0  0  0  0  0  0  0  0  0  0  0  0
   59.5620   34.3550   45.4990 C   0  0  0  0  0  0  0  0  0  0  0  0
   57.0050   31.2540   42.5550 C   0  0  0  0  0  0  0  0  0  0  0  0
   56.8140   29.9240   42.6590 N   0  0  0  0  0  0  0  0  0  0  0  0
   57.4860   28.1268   45.2940 H   0  0  0  0  0  0  0  0  0  0  0  0
   56.5826   27.6204   43.8263 H   0  0  0  0  0  0  0  0  0  0  0  0
   58.3788   27.6021   43.8263 H   0  0  0  0  0  0  0  0  0  0  0  0
   58.7399   30.4882   45.2142 H   0  0  0  0  0  0  0  0  0  0  0  0
   59.1162   33.3383   43.2468 H   0  0  0  0  0  0  0  0  0  0  0  0
   57.4212   33.7596   43.6936 H   0  0  0  0  0  0  0  0  0  0  0  0
   57.0200   34.2646   46.1058 H   0  0  0  0  0  0  0  0  0  0  0  0
   56.7484   32.5036   45.9002 H   0  0  0  0  0  0  0  0  0  0  0  0
   57.1442   33.3947   48.3192 H   0  0  0  0  0  0  0  0  0  0  0  0
   58.0995   31.9564   47.7783 H   0  0  0  0  0  0  0  0  0  0  0  0
   61.5170   32.4188   47.0850 H   0  0  0  0  0  0  0  0  0  0  0  0
   64.0066   32.2507   47.0767 H   0  0  0  0  0  0  0  0  0  0  0  0
   64.1542   34.1324   50.9699 H   0  0  0  0  0  0  0  0  0  0  0  0
   61.6639   34.3088   50.9818 H   0  0  0  0  0  0  0  0  0  0  0  0
   58.6956   31.1603   49.7478 H   0  0  0  0  0  0  0  0  0  0  0  0
   57.5772   30.6579   51.9212 H   0  0  0  0  0  0  0  0  0  0  0  0
   58.6113   34.5990   53.3738 H   0  0  0  0  0  0  0  0  0  0  0  0
   59.7270   35.1115   51.2005 H   0  0  0  0  0  0  0  0  0  0  0  0
   58.9268   35.7042   47.0711 H   0  0  0  0  0  0  0  0  0  0  0  0
   60.6518   35.1559   47.1794 H   0  0  0  0  0  0  0  0  0  0  0  0
   59.2111   35.1801   44.8617 H   0  0  0  0  0  0  0  0  0  0  0  0
   60.5765   34.0235   45.2328 H   0  0  0  0  0  0  0  0  0  0  0  0
   56.5748   31.9012   41.7765 H   0  0  0  0  0  0  0  0  0  0  0  0
  1  2  1  0
  2  3  1  0
  3  4  2  0
  4  5  1  0
  5  6  1  0
  6  7  1  0
  7  8  1  0
  8  9  1  0
  9 10  2  3
 10 11  1  0
 11 12  2  0
 12 13  1  0
 13 14  2  0
 14 15  1  0
 14 16  1  0
 16 17  2  0
 10 18  1  0
 18 19  2  0
 19 20  1  0
 20 21  2  0
 21 22  1  0
 21 23  1  0
 23 24  2  0
  9 25  1  0
 25 26  1  0
  4 27  1  0
 27 28  2  0
 28  2  1  0
 26  6  1  0
 17 11  1  0
 24 18  1  0
  1 29  1  0
  1 30  1  0
  1 31  1  0
  3 32  1  0
  5 33  1  0
  5 34  1  0
  7 35  1  0
  7 36  1  0
  8 37  1  0
  8 38  1  0
 12 39  1  0
 13 40  1  0
 16 41  1  0
 17 42  1  0
 19 43  1  0
 20 44  1  0
 23 45  1  0
 24 46  1  0
 25 47  1  0
 25 48  1  0
 26 49  1  0
 26 50  1  0
 27 51  1  0
M  END
>  <UniqueID>  (30) 
29

>  <SMILES>  (30) 
Cn1cc(CN2CCC(=C(c3ccc(F)cc3)c3ccc(F)cc3)CC2)cn1

>  <Energy>  (30) 
104.02249966231889

>  <Genealogy>  (30) 
Cn1cc(CN2CCC(=C(c3ccc(F)cc3)c3ccc(F)cc3)CC2)cn1 (3D coordinates assigned)
Cn1cc(CN2CCC(=C(c3ccc(F)cc3)c3ccc(F)cc3)CC2)cn1 (nonaromatic ring conformer: 104.02249966231889 kcal/mol)

>  <smiles>  (30) 
Cn1cc(CN2CCC(=C(c3ccc(F)cc3)c3ccc(F)cc3)CC2)cn1

>  <score_type>  (30) 
oracle

>  <origin>  (30) 
adg

>  <m_score__min__energy>  (30) 
-8.4499999999999993

>  <m_primary>  (30) 
energy

$$$$
