0:0
     RDKit          3D

 60 62  0  0  0  0  0  0  0  0999 V2000
   55.0720   24.0730   45.0250 C   0  0  0  0  0  0  0  0  0  0  0  0
   54.1400   25.1330   45.6060 C   0  0  0  0  0  0  0  0  0  0  0  0
   54.8690   26.2920   45.9620 O   0  0  0  0  0  0  0  0  0  0  0  0
   56.2360   25.9770   46.1400 C   0  0  0  0  0  0  0  0  0  0  0  0
   57.0780   27.1890   45.9090 C   0  0  0  0  0  0  0  0  0  0  0  0
   56.5480   28.2350   45.4410 O   0  0  0  0  0  0  0  0  0  0  0  0
   58.4610   27.1820   46.2700 N   0  0  0  0  0  0  0  0  0  0  0  0
   58.9650   26.6060   47.5170 C   0  0  0  0  0  0  0  0  0  0  0  0
   59.3660   27.6850   48.5500 C   0  0  0  0  0  0  0  0  0  0  0  0
   59.0130   29.0130   48.1520 O   0  0  0  0  0  0  0  0  0  0  0  0
   59.8990   30.1070   48.0860 C   0  0  0  0  0  0  0  0  0  0  0  0
   60.1850   30.8990   49.2160 C   0  0  0  0  0  0  0  0  0  0  0  0
   61.0490   31.9980   49.1180 C   0  0  0  0  0  0  0  0  0  0  0  0
   61.3210   32.7940   50.2420 C   0  0  0  0  0  0  0  0  0  0  0  0
   62.1820   33.8880   50.1350 C   0  0  0  0  0  0  0  0  0  0  0  0
   62.7740   34.2000   48.9070 C   0  0  0  0  0  0  0  0  0  0  0  0
   62.5090   33.4160   47.7800 C   0  0  0  0  0  0  0  0  0  0  0  0
   61.6480   32.3120   47.8770 C   0  0  0  0  0  0  0  0  0  0  0  0
   61.3790   31.5160   46.7570 C   0  0  0  0  0  0  0  0  0  0  0  0
   60.5130   30.4140   46.8520 C   0  0  0  0  0  0  0  0  0  0  0  0
   60.2590   29.5640   45.6260 C   0  0  0  0  0  0  0  0  0  0  0  0
   58.8270   29.4750   45.2950 N   0  0  0  0  0  0  0  0  0  0  0  0
   58.3790   30.6180   44.4790 C   0  0  0  0  0  0  0  0  0  0  0  0
   57.4210   31.5370   45.2550 C   0  0  0  0  0  0  0  0  0  0  0  0
   58.1030   32.7890   45.7350 C   0  0  0  0  0  0  0  0  0  0  0  0
   58.2100   33.0560   47.1110 C   0  0  0  0  0  0  0  0  0  0  0  0
   58.8770   34.2020   47.5540 C   0  0  0  0  0  0  0  0  0  0  0  0
   59.4440   35.0830   46.6310 C   0  0  0  0  0  0  0  0  0  0  0  0
   59.3470   34.8210   45.2630 C   0  0  0  0  0  0  0  0  0  0  0  0
   58.6800   33.6780   44.8150 C   0  0  0  0  0  0  0  0  0  0  0  0
   55.5565   23.5219   45.8445 H   0  0  0  0  0  0  0  0  0  0  0  0
   54.4911   23.3735   44.4059 H   0  0  0  0  0  0  0  0  0  0  0  0
   55.8401   24.5596   44.4059 H   0  0  0  0  0  0  0  0  0  0  0  0
   53.3814   25.3989   44.8551 H   0  0  0  0  0  0  0  0  0  0  0  0
   53.6561   24.7265   46.5063 H   0  0  0  0  0  0  0  0  0  0  0  0
   56.3948   25.6142   47.1662 H   0  0  0  0  0  0  0  0  0  0  0  0
   56.5221   25.1978   45.4182 H   0  0  0  0  0  0  0  0  0  0  0  0
   58.1797   25.9728   47.9555 H   0  0  0  0  0  0  0  0  0  0  0  0
   59.8667   26.0242   47.2752 H   0  0  0  0  0  0  0  0  0  0  0  0
   58.8619   27.4608   49.5016 H   0  0  0  0  0  0  0  0  0  0  0  0
   60.4617   27.6545   48.6420 H   0  0  0  0  0  0  0  0  0  0  0  0
   59.7255   30.6521   50.1845 H   0  0  0  0  0  0  0  0  0  0  0  0
   60.8547   32.5553   51.2093 H   0  0  0  0  0  0  0  0  0  0  0  0
   62.3953   34.5064   51.0194 H   0  0  0  0  0  0  0  0  0  0  0  0
   63.4498   35.0643   48.8275 H   0  0  0  0  0  0  0  0  0  0  0  0
   62.9762   33.6650   46.8157 H   0  0  0  0  0  0  0  0  0  0  0  0
   61.8507   31.7560   45.7927 H   0  0  0  0  0  0  0  0  0  0  0  0
   60.7927   30.0065   44.7720 H   0  0  0  0  0  0  0  0  0  0  0  0
   60.6187   28.5470   45.8411 H   0  0  0  0  0  0  0  0  0  0  0  0
   58.6870   28.5910   44.7510 H   0  0  0  0  0  0  0  0  0  0  0  0
   58.2600   29.4090   46.1720 H   0  0  0  0  0  0  0  0  0  0  0  0
   59.2592   31.2012   44.1705 H   0  0  0  0  0  0  0  0  0  0  0  0
   57.8391   30.2224   43.6061 H   0  0  0  0  0  0  0  0  0  0  0  0
   56.5868   31.8181   44.5953 H   0  0  0  0  0  0  0  0  0  0  0  0
   57.0636   30.9862   46.1375 H   0  0  0  0  0  0  0  0  0  0  0  0
   57.7679   32.3617   47.8408 H   0  0  0  0  0  0  0  0  0  0  0  0
   58.9552   34.4100   48.6313 H   0  0  0  0  0  0  0  0  0  0  0  0
   59.9677   35.9844   46.9820 H   0  0  0  0  0  0  0  0  0  0  0  0
   59.7961   35.5151   44.5373 H   0  0  0  0  0  0  0  0  0  0  0  0
   58.6068   33.4740   43.7366 H   0  0  0  0  0  0  0  0  0  0  0  0
  1  2  1  0
  2  3  1  0
  3  4  1  0
  4  5  1  0
  5  6  2  0
  5  7  1  0
  7  8  1  0
  8  9  1  0
  9 10  1  0
 10 11  1  0
 11 12  2  0
 12 13  1  0
 13 14  2  0
 14 15  1  0
 15 16  2  0
 16 17  1  0
 17 18  2  0
 18 19  1  0
 19 20  2  0
 20 21  1  0
 21 22  1  0
 22 23  1  0
 23 24  1  0
 24 25  1  0
 25 26  2  0
 26 27  1  0
 27 28  2  0
 28 29  1  0
 29 30  2  0
 20 11  1  0
 30 25  1  0
 18 13  1  0
  1 31  1  0
  1 32  1  0
  1 33  1  0
  2 34  1  0
  2 35  1  0
  4 36  1  0
  4 37  1  0
  8 38  1  0
  8 39  1  0
  9 40  1  0
  9 41  1  0
 12 42  1  0
 14 43  1  0
 15 44  1  0
 16 45  1  0
 17 46  1  0
 19 47  1  0
 21 48  1  0
 21 49  1  0
 22 50  1  0
 22 51  1  0
 23 52  1  0
 23 53  1  0
 24 54  1  0
 24 55  1  0
 26 56  1  0
 27 57  1  0
 28 58  1  0
 29 59  1  0
 30 60  1  0
M  CHG  2   7  -1  22   1
M  END
>  <UniqueID>  (1) 
1

>  <SMILES>  (1) 
CCOCC(=O)[N-]CCOc1cc2ccccc2cc1C[NH2+]CCc1ccccc1

>  <Energy>  (1) 
56.56932854602445

>  <Genealogy>  (1) 
CCOCC(=O)[N-]CCOc1cc2ccccc2cc1C[NH2+]CCc1ccccc1 (protonated)
CCOCC(=O)[N-]CCOc1cc2ccccc2cc1C[NH2+]CCc1ccccc1 (3D coordinates assigned)
CCOCC(=O)[N-]CCOc1cc2ccccc2cc1C[NH2+]CCc1ccccc1 (optimized conformer: 56.56932854602445 kcal/mol)

>  <smiles>  (1) 
CCOCC(=O)NCCOc1cc2ccccc2cc1CNCCc1ccccc1

>  <score_type>  (1) 
oracle

>  <origin>  (1) 
adg

>  <m_score__min__energy>  (1) 
-6.5

>  <m_primary>  (1) 
energy

$$$$
1:0
     RDKit          3D

 50 53  0  0  0  0  0  0  0  0999 V2000
   56.6280   28.9640   42.6080 C   0  0  0  0  0  0  0  0  0  0  0  0
   57.0160   29.8770   43.6800 N   0  0  0  0  0  0  0  0  0  0  0  0
   56.8650   31.2160   43.6420 C   0  0  0  0  0  0  0  0  0  0  0  0
   57.3090   31.7650   44.8280 C   0  0  0  0  0  0  0  0  0  0  0  0
   57.3390   33.2220   45.1790 C   0  0  0  0  0  0  0  0  0  0  0  0
   58.5280   33.5260   45.9990 N   0  0  0  0  0  0  0  0  0  0  0  0
   58.2650   33.2290   47.4270 C   0  0  0  0  0  0  0  0  0  0  0  0
   59.2780   33.9030   48.3770 C   0  0  0  0  0  0  0  0  0  0  0  0
   60.4910   34.2960   47.6520 N   0  0  0  0  0  0  0  0  0  0  0  0
   61.7890   33.8650   48.1000 C   0  0  0  0  0  0  0  0  0  0  0  0
   62.7600   33.4700   47.1620 C   0  0  0  0  0  0  0  0  0  0  0  0
   64.0290   33.0650   47.5860 C   0  0  0  0  0  0  0  0  0  0  0  0
   64.3420   33.0530   48.9470 C   0  0  0  0  0  0  0  0  0  0  0  0
   63.3850   33.4440   49.8870 C   0  0  0  0  0  0  0  0  0  0  0  0
   62.1120   33.8500   49.4700 C   0  0  0  0  0  0  0  0  0  0  0  0
   61.1930   34.2000   50.4030 F   0  0  0  0  0  0  0  0  0  0  0  0
   60.3600   35.0950   46.4250 C   0  0  0  0  0  0  0  0  0  0  0  0
   58.9630   34.9250   45.8190 C   0  0  0  0  0  0  0  0  0  0  0  0
   57.7590   30.7270   45.6190 C   0  0  0  0  0  0  0  0  0  0  0  0
   57.5780   29.5720   44.8750 C   0  0  0  0  0  0  0  0  0  0  0  0
   57.9450   28.2150   45.3380 C   0  0  0  0  0  0  0  0  0  0  0  0
   56.9370   27.2840   45.6490 C   0  0  0  0  0  0  0  0  0  0  0  0
   57.2730   26.0050   46.1020 C   0  0  0  0  0  0  0  0  0  0  0  0
   58.6140   25.6470   46.2590 C   0  0  0  0  0  0  0  0  0  0  0  0
   59.6210   26.5700   45.9700 C   0  0  0  0  0  0  0  0  0  0  0  0
   59.2900   27.8510   45.5160 C   0  0  0  0  0  0  0  0  0  0  0  0
   56.2329   28.0343   43.0433 H   0  0  0  0  0  0  0  0  0  0  0  0
   55.8529   29.4364   41.9867 H   0  0  0  0  0  0  0  0  0  0  0  0
   57.5060   28.7338   41.9867 H   0  0  0  0  0  0  0  0  0  0  0  0
   56.4514   31.7840   42.7956 H   0  0  0  0  0  0  0  0  0  0  0  0
   57.3735   33.8175   44.2548 H   0  0  0  0  0  0  0  0  0  0  0  0
   56.4345   33.4708   45.7535 H   0  0  0  0  0  0  0  0  0  0  0  0
   57.2557   33.5859   47.6797 H   0  0  0  0  0  0  0  0  0  0  0  0
   58.3599   32.1413   47.5609 H   0  0  0  0  0  0  0  0  0  0  0  0
   58.8167   34.7981   48.8197 H   0  0  0  0  0  0  0  0  0  0  0  0
   59.5546   33.1856   49.1636 H   0  0  0  0  0  0  0  0  0  0  0  0
   62.5194   33.4799   46.0887 H   0  0  0  0  0  0  0  0  0  0  0  0
   64.7822   32.7553   46.8465 H   0  0  0  0  0  0  0  0  0  0  0  0
   65.3416   32.7358   49.2789 H   0  0  0  0  0  0  0  0  0  0  0  0
   63.6329   33.4327   50.9586 H   0  0  0  0  0  0  0  0  0  0  0  0
   60.5236   36.1560   46.6650 H   0  0  0  0  0  0  0  0  0  0  0  0
   61.1079   34.7509   45.6955 H   0  0  0  0  0  0  0  0  0  0  0  0
   58.2567   35.5989   46.3258 H   0  0  0  0  0  0  0  0  0  0  0  0
   58.9905   35.1706   44.7471 H   0  0  0  0  0  0  0  0  0  0  0  0
   58.1765   30.8016   46.6339 H   0  0  0  0  0  0  0  0  0  0  0  0
   55.8793   27.5640   45.5351 H   0  0  0  0  0  0  0  0  0  0  0  0
   56.4800   25.2792   46.3352 H   0  0  0  0  0  0  0  0  0  0  0  0
   58.8766   24.6382   46.6102 H   0  0  0  0  0  0  0  0  0  0  0  0
   60.6766   26.2893   46.0996 H   0  0  0  0  0  0  0  0  0  0  0  0
   60.0870   28.5770   45.2973 H   0  0  0  0  0  0  0  0  0  0  0  0
  1  2  1  0
  2  3  1  0
  3  4  2  0
  4  5  1  0
  5  6  1  0
  6  7  1  0
  7  8  1  0
  8  9  1  0
  9 10  1  0
 10 11  2  0
 11 12  1  0
 12 13  2  0
 13 14  1  0
 14 15  2  0
 15 16  1  0
  9 17  1  0
 17 18  1  0
  4 19  1  0
 19 20  2  0
 20 21  1  0
 21 22  2  0
 22 23  1  0
 23 24  2  0
 24 25  1  0
 25 26  2  0
 20  2  1  0
 26 21  1  0
 18  6  1  0
 15 10  1  0
  1 27  1  0
  1 28  1  0
  1 29  1  0
  3 30  1  0
  5 31  1  0
  5 32  1  0
  7 33  1  0
  7 34  1  0
  8 35  1  0
  8 36  1  0
 11 37  1  0
 12 38  1  0
 13 39  1  0
 14 40  1  0
 17 41  1  0
 17 42  1  0
 18 43  1  0
 18 44  1  0
 19 45  1  0
 22 46  1  0
 23 47  1  0
 24 48  1  0
 25 49  1  0
 26 50  1  0
M  END
>  <UniqueID>  (2) 
2

>  <SMILES>  (2) 
Cn1cc(CN2CCN(c3ccccc3F)CC2)cc1-c1ccccc1

>  <Energy>  (2) 
93.76466296429585

>  <Genealogy>  (2) 
Cn1cc(CN2CCN(c3ccccc3F)CC2)cc1-c1ccccc1 (3D coordinates assigned)
Cn1cc(CN2CCN(c3ccccc3F)CC2)cc1-c1ccccc1 (nonaromatic ring conformer: 93.76466296429585 kcal/mol)

>  <smiles>  (2) 
Cn1cc(CN2CCN(c3ccccc3F)CC2)cc1-c1ccccc1

>  <score_type>  (2) 
oracle

>  <origin>  (2) 
adg

>  <m_score__min__energy>  (2) 
-8.0199999999999996

>  <m_primary>  (2) 
energy

$$$$
2:0
     RDKit          3D

 44 47  0  0  0  0  0  0  0  0999 V2000
   60.3500   34.5460   46.7280 C   0  0  0  0  0  0  0  0  0  0  0  0
   58.9350   34.7010   47.2710 C   0  0  0  0  0  0  0  0  0  0  0  0
   57.9640   34.1830   46.2990 N   0  0  0  0  0  0  0  0  0  0  0  0
   58.4690   32.9800   45.6190 C   0  0  0  0  0  0  0  0  0  0  0  0
   57.3920   32.3650   44.7160 C   0  0  0  0  0  0  0  0  0  0  0  0
   57.0850   30.9900   45.1160 N   0  0  0  0  0  0  0  0  0  0  0  0
   58.0520   29.9300   45.2560 C   0  0  0  0  0  0  0  0  0  0  0  0
   59.4260   30.2320   45.1830 C   0  0  0  0  0  0  0  0  0  0  0  0
   60.3970   29.2250   45.3430 C   0  0  0  0  0  0  0  0  0  0  0  0
   60.0180   27.8890   45.5520 C   0  0  0  0  0  0  0  0  0  0  0  0
   58.6530   27.5860   45.5700 C   0  0  0  0  0  0  0  0  0  0  0  0
   57.6980   28.5840   45.4520 C   0  0  0  0  0  0  0  0  0  0  0  0
   56.4890   28.0830   45.5640 O   0  0  0  0  0  0  0  0  0  0  0  0
   56.6160   26.7900   45.7580 C   0  0  0  0  0  0  0  0  0  0  0  0
   55.5800   25.8880   45.9670 C   0  0  0  0  0  0  0  0  0  0  0  0
   54.2610   26.3330   45.9680 O   0  0  0  0  0  0  0  0  0  0  0  0
   55.9040   24.5320   46.1870 C   0  0  0  0  0  0  0  0  0  0  0  0
   54.8930   23.5840   46.4230 C   0  0  0  0  0  0  0  0  0  0  0  0
   55.2180   22.2430   46.6320 C   0  0  0  0  0  0  0  0  0  0  0  0
   56.5510   21.8290   46.6060 C   0  0  0  0  0  0  0  0  0  0  0  0
   57.5710   22.7530   46.3710 C   0  0  0  0  0  0  0  0  0  0  0  0
   57.2720   24.1120   46.1630 C   0  0  0  0  0  0  0  0  0  0  0  0
   58.3050   25.0500   45.9100 C   0  0  0  0  0  0  0  0  0  0  0  0
   59.6220   24.6030   45.7920 O   0  0  0  0  0  0  0  0  0  0  0  0
   57.9420   26.4020   45.7510 C   0  0  0  0  0  0  0  0  0  0  0  0
   61.0580   34.4684   47.5663 H   0  0  0  0  0  0  0  0  0  0  0  0
   60.4090   33.6360   46.1128 H   0  0  0  0  0  0  0  0  0  0  0  0
   60.6046   35.4216   46.1128 H   0  0  0  0  0  0  0  0  0  0  0  0
   58.8427   34.1397   48.2125 H   0  0  0  0  0  0  0  0  0  0  0  0
   58.7322   35.7671   47.4506 H   0  0  0  0  0  0  0  0  0  0  0  0
   57.8220   34.9220   45.5700 H   0  0  0  0  0  0  0  0  0  0  0  0
   59.3401   33.2529   45.0052 H   0  0  0  0  0  0  0  0  0  0  0  0
   58.7513   32.2392   46.3816 H   0  0  0  0  0  0  0  0  0  0  0  0
   56.4769   32.9714   44.7855 H   0  0  0  0  0  0  0  0  0  0  0  0
   57.7711   32.3502   43.6835 H   0  0  0  0  0  0  0  0  0  0  0  0
   56.0740   30.7500   45.2360 H   0  0  0  0  0  0  0  0  0  0  0  0
   59.7446   31.2686   44.9985 H   0  0  0  0  0  0  0  0  0  0  0  0
   61.4645   29.4877   45.3039 H   0  0  0  0  0  0  0  0  0  0  0  0
   60.7737   27.1030   45.6975 H   0  0  0  0  0  0  0  0  0  0  0  0
   53.8399   23.9010   46.4430 H   0  0  0  0  0  0  0  0  0  0  0  0
   54.4202   21.5089   46.8181 H   0  0  0  0  0  0  0  0  0  0  0  0
   56.7988   20.7701   46.7714 H   0  0  0  0  0  0  0  0  0  0  0  0
   58.6177   22.4155   46.3483 H   0  0  0  0  0  0  0  0  0  0  0  0
   60.4040   25.2190   45.6410 H   0  0  0  0  0  0  0  0  0  0  0  0
  1  2  1  0
  2  3  1  0
  3  4  1  0
  4  5  1  0
  5  6  1  0
  6  7  1  0
  7  8  2  0
  8  9  1  0
  9 10  2  0
 10 11  1  0
 11 12  2  0
 12 13  1  0
 13 14  1  0
 14 15  2  0
 15 16  1  0
 15 17  1  0
 17 18  2  0
 18 19  1  0
 19 20  2  0
 20 21  1  0
 21 22  2  0
 22 23  1  0
 23 24  1  0
 23 25  2  0
 12  7  1  0
 25 14  1  0
 25 11  1  0
 22 17  1  0
  1 26  1  0
  1 27  1  0
  1 28  1  0
  2 29  1  0
  2 30  1  0
  3 31  1  0
  4 32  1  0
  4 33  1  0
  5 34  1  0
  5 35  1  0
  6 36  1  0
  8 37  1  0
  9 38  1  0
 10 39  1  0
 18 40  1  0
 19 41  1  0
 20 42  1  0
 21 43  1  0
 24 44  1  0
M  CHG  1  16  -1
M  END
>  <UniqueID>  (3) 
3

>  <SMILES>  (3) 
CCNCCNc1cccc2c1oc1c([O-])c3ccccc3c(O)c12

>  <Energy>  (3) 
93.83146856621892

>  <Genealogy>  (3) 
CCNCCNc1cccc2c1oc1c([O-])c3ccccc3c(O)c12 (protonated)
CCNCCNc1cccc2c1oc1c([O-])c3ccccc3c(O)c12 (3D coordinates assigned)
CCNCCNc1cccc2c1oc1c([O-])c3ccccc3c(O)c12 (optimized conformer: 93.83146856621892 kcal/mol)

>  <smiles>  (3) 
CCNCCNc1cccc2c1oc1c(O)c3ccccc3c(O)c12

>  <score_type>  (3) 
oracle

>  <origin>  (3) 
adg

>  <m_score__min__energy>  (3) 
-10.85

>  <m_primary>  (3) 
energy

$$$$
3:0
     RDKit          3D

 51 53  0  0  0  0  0  0  0  0999 V2000
   55.8850   29.9010   43.7460 C   0  0  0  0  0  0  0  0  0  0  0  0
   57.2650   29.3220   44.0950 C   0  0  0  0  0  0  0  0  0  0  0  0
   57.1380   28.3500   45.2740 C   0  0  0  0  0  0  0  0  0  0  0  0
   58.2880   30.4310   44.4330 C   0  0  0  0  0  0  0  0  0  0  0  0
   57.7780   31.8540   44.1500 C   0  0  0  0  0  0  0  0  0  0  0  0
   57.1290   32.4040   45.2830 O   0  0  0  0  0  0  0  0  0  0  0  0
   57.3980   33.7870   45.4130 C   0  0  0  0  0  0  0  0  0  0  0  0
   58.1030   34.0670   46.7420 C   0  0  0  0  0  0  0  0  0  0  0  0
   58.7810   32.8700   47.2330 N   0  0  0  0  0  0  0  0  0  0  0  0
   59.7480   32.9680   48.2870 C   0  0  0  0  0  0  0  0  0  0  0  0
   59.3850   32.6620   49.6070 C   0  0  0  0  0  0  0  0  0  0  0  0
   58.0820   32.2130   49.9090 C   0  0  0  0  0  0  0  0  0  0  0  0
   57.7350   31.8640   51.2120 C   0  0  0  0  0  0  0  0  0  0  0  0
   58.6810   31.9400   52.2280 C   0  0  0  0  0  0  0  0  0  0  0  0
   59.9710   32.3930   51.9540 C   0  0  0  0  0  0  0  0  0  0  0  0
   60.3430   32.7980   50.6460 C   0  0  0  0  0  0  0  0  0  0  0  0
   61.6020   33.2980   50.3670 N   0  0  0  0  0  0  0  0  0  0  0  0
   62.4970   33.7100   51.4730 C   0  0  0  0  0  0  0  0  0  0  0  0
   62.0160   33.4370   49.0550 C   0  0  0  0  0  0  0  0  0  0  0  0
   63.3710   33.6920   48.7200 C   0  0  0  0  0  0  0  0  0  0  0  0
   63.7640   33.8690   47.3930 C   0  0  0  0  0  0  0  0  0  0  0  0
   62.8280   33.7820   46.3680 C   0  0  0  0  0  0  0  0  0  0  0  0
   61.4980   33.4940   46.6610 C   0  0  0  0  0  0  0  0  0  0  0  0
   61.0790   33.3060   47.9950 C   0  0  0  0  0  0  0  0  0  0  0  0
   55.3385   30.1303   44.6727 H   0  0  0  0  0  0  0  0  0  0  0  0
   56.0118   30.8218   43.1577 H   0  0  0  0  0  0  0  0  0  0  0  0
   55.3168   29.1654   43.1577 H   0  0  0  0  0  0  0  0  0  0  0  0
   57.6368   28.7861   43.2093 H   0  0  0  0  0  0  0  0  0  0  0  0
   57.2109   28.9083   46.2190 H   0  0  0  0  0  0  0  0  0  0  0  0
   56.1654   27.8385   45.2244 H   0  0  0  0  0  0  0  0  0  0  0  0
   57.9465   27.6058   45.2244 H   0  0  0  0  0  0  0  0  0  0  0  0
   58.5376   30.3583   45.5018 H   0  0  0  0  0  0  0  0  0  0  0  0
   59.1615   30.2692   43.7844 H   0  0  0  0  0  0  0  0  0  0  0  0
   58.6316   32.4934   43.8807 H   0  0  0  0  0  0  0  0  0  0  0  0
   57.0525   31.8046   43.3247 H   0  0  0  0  0  0  0  0  0  0  0  0
   58.0443   34.1107   44.5839 H   0  0  0  0  0  0  0  0  0  0  0  0
   56.4479   34.3408   45.3877 H   0  0  0  0  0  0  0  0  0  0  0  0
   58.8442   34.8665   46.5954 H   0  0  0  0  0  0  0  0  0  0  0  0
   57.3496   34.3737   47.4825 H   0  0  0  0  0  0  0  0  0  0  0  0
   58.5060   31.9190   46.8960 H   0  0  0  0  0  0  0  0  0  0  0  0
   57.3326   32.1378   49.1073 H   0  0  0  0  0  0  0  0  0  0  0  0
   56.7121   31.5281   51.4373 H   0  0  0  0  0  0  0  0  0  0  0  0
   58.4109   31.6417   53.2517 H   0  0  0  0  0  0  0  0  0  0  0  0
   60.7125   32.4371   52.7653 H   0  0  0  0  0  0  0  0  0  0  0  0
   62.0151   33.4882   52.4366 H   0  0  0  0  0  0  0  0  0  0  0  0
   63.4458   33.1580   51.4019 H   0  0  0  0  0  0  0  0  0  0  0  0
   62.6947   34.7897   51.4019 H   0  0  0  0  0  0  0  0  0  0  0  0
   64.1240   33.7511   49.5197 H   0  0  0  0  0  0  0  0  0  0  0  0
   64.8178   34.0781   47.1567 H   0  0  0  0  0  0  0  0  0  0  0  0
   63.1390   33.9409   45.3249 H   0  0  0  0  0  0  0  0  0  0  0  0
   60.7661   33.4121   45.8439 H   0  0  0  0  0  0  0  0  0  0  0  0
  1  2  1  0
  2  3  1  0
  2  4  1  0
  4  5  1  0
  5  6  1  0
  6  7  1  0
  7  8  1  0
  8  9  1  0
  9 10  1  0
 10 11  2  0
 11 12  1  0
 12 13  2  0
 13 14  1  0
 14 15  2  0
 15 16  1  0
 16 17  2  0
 17 18  1  0
 17 19  1  0
 19 20  2  0
 20 21  1  0
 21 22  2  0
 22 23  1  0
 23 24  2  0
 24 10  1  0
 16 11  1  0
 24 19  1  0
  1 25  1  0
  1 26  1  0
  1 27  1  0
  2 28  1  0
  3 29  1  0
  3 30  1  0
  3 31  1  0
  4 32  1  0
  4 33  1  0
  5 34  1  0
  5 35  1  0
  7 36  1  0
  7 37  1  0
  8 38  1  0
  8 39  1  0
  9 40  1  0
 12 41  1  0
 13 42  1  0
 14 43  1  0
 15 44  1  0
 18 45  1  0
 18 46  1  0
 18 47  1  0
 20 48  1  0
 21 49  1  0
 22 50  1  0
 23 51  1  0
M  CHG  1  17   1
M  END
>  <UniqueID>  (4) 
4

>  <SMILES>  (4) 
CC(C)CCOCCNc1c2ccccc2[n+](C)c2ccccc12

>  <Energy>  (4) 
73.38177210125312

>  <Genealogy>  (4) 
CC(C)CCOCCNc1c2ccccc2[n+](C)c2ccccc12 (3D coordinates assigned)
CC(C)CCOCCNc1c2ccccc2[n+](C)c2ccccc12 (optimized conformer: 73.38177210125312 kcal/mol)

>  <smiles>  (4) 
CC(C)CCOCCNc1c2ccccc2[n+](C)c2ccccc12

>  <score_type>  (4) 
oracle

>  <origin>  (4) 
adg

>  <m_score__min__energy>  (4) 
-5.8300000000000001

>  <m_primary>  (4) 
energy

$$$$
4:0
     RDKit          3D

 69 71  0  0  0  0  0  0  0  0999 V2000
   63.8790   31.9270   50.3220 C   0  0  0  0  0  0  0  0  0  0  0  0
   62.7000   32.8950   50.2480 C   0  0  0  0  0  0  0  0  0  0  0  0
   62.1330   32.9090   48.8810 N   0  0  0  0  0  0  0  0  0  0  0  0
   63.1260   32.4420   47.8850 C   0  0  0  0  0  0  0  0  0  0  0  0
   63.1800   33.4030   46.7010 C   0  0  0  0  0  0  0  0  0  0  0  0
   61.6170   34.2520   48.5300 C   0  0  0  0  0  0  0  0  0  0  0  0
   60.1070   34.1800   48.2480 C   0  0  0  0  0  0  0  0  0  0  0  0
   59.4730   32.9810   48.8340 N   0  0  0  0  0  0  0  0  0  0  0  0
   59.3650   31.8880   47.8730 C   0  0  0  0  0  0  0  0  0  0  0  0
   58.7520   32.1070   46.6070 C   0  0  0  0  0  0  0  0  0  0  0  0
   58.1650   33.3500   46.2600 C   0  0  0  0  0  0  0  0  0  0  0  0
   57.6090   33.5570   45.0000 C   0  0  0  0  0  0  0  0  0  0  0  0
   57.6240   32.5430   44.0550 C   0  0  0  0  0  0  0  0  0  0  0  0
   58.1920   31.3110   44.3640 C   0  0  0  0  0  0  0  0  0  0  0  0
   58.7620   31.0660   45.6390 C   0  0  0  0  0  0  0  0  0  0  0  0
   59.3230   29.8470   45.9370 N   0  0  0  0  0  0  0  0  0  0  0  0
   59.8310   29.0070   44.8300 C   0  0  0  0  0  0  0  0  0  0  0  0
   59.6150   29.5250   47.2450 C   0  0  0  0  0  0  0  0  0  0  0  0
   59.7540   28.1690   47.6850 C   0  0  0  0  0  0  0  0  0  0  0  0
   59.0510   27.0050   47.0050 C   0  0  0  0  0  0  0  0  0  0  0  0
   57.6370   27.3310   46.7530 N   0  0  0  0  0  0  0  0  0  0  0  0
   57.2620   26.9920   45.3720 C   0  0  0  0  0  0  0  0  0  0  0  0
   56.7810   25.5380   45.2890 C   0  0  0  0  0  0  0  0  0  0  0  0
   55.8190   25.2270   46.3690 N   0  0  0  0  0  0  0  0  0  0  0  0
   56.4540   24.4310   47.4330 C   0  0  0  0  0  0  0  0  0  0  0  0
   54.6660   24.4890   45.8270 C   0  0  0  0  0  0  0  0  0  0  0  0
   60.4400   27.9090   48.8800 C   0  0  0  0  0  0  0  0  0  0  0  0
   60.8060   28.9470   49.7220 C   0  0  0  0  0  0  0  0  0  0  0  0
   60.4500   30.2550   49.4150 C   0  0  0  0  0  0  0  0  0  0  0  0
   59.8140   30.5720   48.1900 C   0  0  0  0  0  0  0  0  0  0  0  0
   64.1232   31.7265   51.3756 H   0  0  0  0  0  0  0  0  0  0  0  0
   63.6116   30.9845   49.8218 H   0  0  0  0  0  0  0  0  0  0  0  0
   64.7514   32.3728   49.8218 H   0  0  0  0  0  0  0  0  0  0  0  0
   61.9239   32.5769   50.9597 H   0  0  0  0  0  0  0  0  0  0  0  0
   63.0507   33.9065   50.5007 H   0  0  0  0  0  0  0  0  0  0  0  0
   64.1181   32.3921   48.3575 H   0  0  0  0  0  0  0  0  0  0  0  0
   62.8301   31.4458   47.5243 H   0  0  0  0  0  0  0  0  0  0  0  0
   63.2381   34.4374   47.0707 H   0  0  0  0  0  0  0  0  0  0  0  0
   64.0671   33.1818   46.0894 H   0  0  0  0  0  0  0  0  0  0  0  0
   62.2737   33.2826   46.0894 H   0  0  0  0  0  0  0  0  0  0  0  0
   61.7984   34.9419   49.3674 H   0  0  0  0  0  0  0  0  0  0  0  0
   62.1350   34.6130   47.6292 H   0  0  0  0  0  0  0  0  0  0  0  0
   59.6270   35.0744   48.6719 H   0  0  0  0  0  0  0  0  0  0  0  0
   59.9754   34.1253   47.1573 H   0  0  0  0  0  0  0  0  0  0  0  0
   60.0350   32.6670   49.6570 H   0  0  0  0  0  0  0  0  0  0  0  0
   58.5660   33.2310   49.2760 H   0  0  0  0  0  0  0  0  0  0  0  0
   58.1484   34.1649   46.9987 H   0  0  0  0  0  0  0  0  0  0  0  0
   57.1563   34.5288   44.7538 H   0  0  0  0  0  0  0  0  0  0  0  0
   57.1865   32.7125   43.0601 H   0  0  0  0  0  0  0  0  0  0  0  0
   58.1990   30.5136   43.6063 H   0  0  0  0  0  0  0  0  0  0  0  0
   60.3584   28.1349   45.2438 H   0  0  0  0  0  0  0  0  0  0  0  0
   58.9876   28.6660   44.2116 H   0  0  0  0  0  0  0  0  0  0  0  0
   60.5247   29.5956   44.2116 H   0  0  0  0  0  0  0  0  0  0  0  0
   59.5490   26.7908   46.0479 H   0  0  0  0  0  0  0  0  0  0  0  0
   59.1009   26.1258   47.6642 H   0  0  0  0  0  0  0  0  0  0  0  0
   57.0470   26.7380   47.3820 H   0  0  0  0  0  0  0  0  0  0  0  0
   56.4533   27.6605   45.0418 H   0  0  0  0  0  0  0  0  0  0  0  0
   58.1422   27.1137   44.7236 H   0  0  0  0  0  0  0  0  0  0  0  0
   56.2923   25.3773   44.3167 H   0  0  0  0  0  0  0  0  0  0  0  0
   57.6533   24.8771   45.4004 H   0  0  0  0  0  0  0  0  0  0  0  0
   56.1448   24.8185   48.4150 H   0  0  0  0  0  0  0  0  0  0  0  0
   56.1436   23.3799   47.3394 H   0  0  0  0  0  0  0  0  0  0  0  0
   57.5478   24.5001   47.3394 H   0  0  0  0  0  0  0  0  0  0  0  0
   54.0573   24.0994   46.6563 H   0  0  0  0  0  0  0  0  0  0  0  0
   54.0554   25.1646   45.2099 H   0  0  0  0  0  0  0  0  0  0  0  0
   55.0238   23.6517   45.2099 H   0  0  0  0  0  0  0  0  0  0  0  0
   60.6897   26.8726   49.1513 H   0  0  0  0  0  0  0  0  0  0  0  0
   61.3800   28.7351   50.6361 H   0  0  0  0  0  0  0  0  0  0  0  0
   60.6659   31.0575   50.1357 H   0  0  0  0  0  0  0  0  0  0  0  0
  1  2  1  0
  2  3  1  0
  3  4  1  0
  4  5  1  0
  3  6  1  0
  6  7  1  0
  7  8  1  0
  8  9  1  0
  9 10  2  0
 10 11  1  0
 11 12  2  0
 12 13  1  0
 13 14  2  0
 14 15  1  0
 15 16  2  0
 16 17  1  0
 16 18  1  0
 18 19  2  0
 19 20  1  0
 20 21  1  0
 21 22  1  0
 22 23  1  0
 23 24  1  0
 24 25  1  0
 24 26  1  0
 19 27  1  0
 27 28  2  0
 28 29  1  0
 29 30  2  0
 30  9  1  0
 15 10  1  0
 30 18  1  0
  1 31  1  0
  1 32  1  0
  1 33  1  0
  2 34  1  0
  2 35  1  0
  4 36  1  0
  4 37  1  0
  5 38  1  0
  5 39  1  0
  5 40  1  0
  6 41  1  0
  6 42  1  0
  7 43  1  0
  7 44  1  0
  8 45  1  0
  8 46  1  0
 11 47  1  0
 12 48  1  0
 13 49  1  0
 14 50  1  0
 17 51  1  0
 17 52  1  0
 17 53  1  0
 20 54  1  0
 20 55  1  0
 21 56  1  0
 22 57  1  0
 22 58  1  0
 23 59  1  0
 23 60  1  0
 25 61  1  0
 25 62  1  0
 25 63  1  0
 26 64  1  0
 26 65  1  0
 26 66  1  0
 27 67  1  0
 28 68  1  0
 29 69  1  0
M  CHG  2   8   1  16   1
M  END
>  <UniqueID>  (5) 
5

>  <SMILES>  (5) 
CCN(CC)CC[NH2+]c1c2ccccc2[n+](C)c2c(CNCCN(C)C)cccc12

>  <Energy>  (5) 
107.39048483699504

>  <Genealogy>  (5) 
CCN(CC)CC[NH2+]c1c2ccccc2[n+](C)c2c(CNCCN(C)C)cccc12 (protonated)
CCN(CC)CC[NH2+]c1c2ccccc2[n+](C)c2c(CNCCN(C)C)cccc12 (3D coordinates assigned)
CCN(CC)CC[NH2+]c1c2ccccc2[n+](C)c2c(CNCCN(C)C)cccc12 (optimized conformer: 107.39048483699504 kcal/mol)

>  <smiles>  (5) 
CCN(CC)CCNc1c2ccccc2[n+](C)c2c(CNCCN(C)C)cccc12

>  <score_type>  (5) 
oracle

>  <origin>  (5) 
adg

>  <m_score__min__energy>  (5) 
-4.9699999999999998

>  <m_primary>  (5) 
energy

$$$$
5:0
     RDKit          3D

 58 60  0  0  0  0  0  0  0  0999 V2000
   58.5570   34.5380   45.2020 C   0  0  0  0  0  0  0  0  0  0  0  0
   60.0250   34.1880   45.4100 C   0  0  0  0  0  0  0  0  0  0  0  0
   60.3030   34.0000   46.8340 N   0  0  0  0  0  0  0  0  0  0  0  0
   59.3960   34.0380   47.8250 C   0  0  0  0  0  0  0  0  0  0  0  0
   60.0600   33.8720   49.0200 C   0  0  0  0  0  0  0  0  0  0  0  0
   61.3820   33.7420   48.7890 N   0  0  0  0  0  0  0  0  0  0  0  0
   61.4990   33.8400   47.4470 C   0  0  0  0  0  0  0  0  0  0  0  0
   62.8130   33.6890   46.7410 C   0  0  0  0  0  0  0  0  0  0  0  0
   63.5710   32.5960   47.3590 N   0  0  0  0  0  0  0  0  0  0  0  0
   64.1550   32.9910   48.6500 C   0  0  0  0  0  0  0  0  0  0  0  0
   63.6920   32.0520   49.7720 C   0  0  0  0  0  0  0  0  0  0  0  0
   62.5210   31.2790   49.3550 N   0  0  0  0  0  0  0  0  0  0  0  0
   62.0370   30.1670   50.1190 C   0  0  0  0  0  0  0  0  0  0  0  0
   62.7610   29.6650   51.0250 O   0  0  0  0  0  0  0  0  0  0  0  0
   60.6180   29.6820   49.9080 C   0  0  0  0  0  0  0  0  0  0  0  0
   60.0920   29.3420   51.1460 F   0  0  0  0  0  0  0  0  0  0  0  0
   59.6990   30.7720   49.2910 C   0  0  0  0  0  0  0  0  0  0  0  0
   59.6450   30.6510   47.7630 C   0  0  0  0  0  0  0  0  0  0  0  0
   59.0610   29.3560   47.3310 N   0  0  0  0  0  0  0  0  0  0  0  0
   59.4530   29.0540   45.9370 C   0  0  0  0  0  0  0  0  0  0  0  0
   58.4710   29.6590   44.9680 C   0  0  0  0  0  0  0  0  0  0  0  0
   58.4620   31.0440   44.7280 C   0  0  0  0  0  0  0  0  0  0  0  0
   57.5590   31.5940   43.8130 C   0  0  0  0  0  0  0  0  0  0  0  0
   56.6590   30.7680   43.1340 C   0  0  0  0  0  0  0  0  0  0  0  0
   56.6610   29.3910   43.3690 C   0  0  0  0  0  0  0  0  0  0  0  0
   57.5620   28.8360   44.2810 C   0  0  0  0  0  0  0  0  0  0  0  0
   59.3480   28.2230   48.2520 C   0  0  0  0  0  0  0  0  0  0  0  0
   60.6600   28.4110   49.0250 C   0  0  0  0  0  0  0  0  0  0  0  0
   58.0659   34.6551   46.1793 H   0  0  0  0  0  0  0  0  0  0  0  0
   58.4808   35.4795   44.6382 H   0  0  0  0  0  0  0  0  0  0  0  0
   58.0642   33.7322   44.6382 H   0  0  0  0  0  0  0  0  0  0  0  0
   60.2572   33.2589   44.8688 H   0  0  0  0  0  0  0  0  0  0  0  0
   60.6476   35.0107   45.0284 H   0  0  0  0  0  0  0  0  0  0  0  0
   58.3117   34.1774   47.7028 H   0  0  0  0  0  0  0  0  0  0  0  0
   59.5844   33.8490   50.0116 H   0  0  0  0  0  0  0  0  0  0  0  0
   62.6360   33.4597   45.6798 H   0  0  0  0  0  0  0  0  0  0  0  0
   63.3845   34.6255   46.8205 H   0  0  0  0  0  0  0  0  0  0  0  0
   64.3580   32.3470   46.7140 H   0  0  0  0  0  0  0  0  0  0  0  0
   65.2518   32.9505   48.5764 H   0  0  0  0  0  0  0  0  0  0  0  0
   63.8228   34.0124   48.8877 H   0  0  0  0  0  0  0  0  0  0  0  0
   64.5095   31.3603   50.0233 H   0  0  0  0  0  0  0  0  0  0  0  0
   63.4195   32.6584   50.6483 H   0  0  0  0  0  0  0  0  0  0  0  0
   61.9510   31.6130   48.5440 H   0  0  0  0  0  0  0  0  0  0  0  0
   58.6830   30.6564   49.6963 H   0  0  0  0  0  0  0  0  0  0  0  0
   60.1087   31.7599   49.5482 H   0  0  0  0  0  0  0  0  0  0  0  0
   59.0293   31.4700   47.3628 H   0  0  0  0  0  0  0  0  0  0  0  0
   60.6747   30.7056   47.3798 H   0  0  0  0  0  0  0  0  0  0  0  0
   60.4533   29.4691   45.7446 H   0  0  0  0  0  0  0  0  0  0  0  0
   59.4613   27.9627   45.7991 H   0  0  0  0  0  0  0  0  0  0  0  0
   59.1678   31.6974   45.2618 H   0  0  0  0  0  0  0  0  0  0  0  0
   57.5570   32.6782   43.6273 H   0  0  0  0  0  0  0  0  0  0  0  0
   55.9491   31.2022   42.4146 H   0  0  0  0  0  0  0  0  0  0  0  0
   55.9514   28.7422   42.8347 H   0  0  0  0  0  0  0  0  0  0  0  0
   57.5601   27.7510   44.4621 H   0  0  0  0  0  0  0  0  0  0  0  0
   58.5225   28.1376   48.9740 H   0  0  0  0  0  0  0  0  0  0  0  0
   59.4476   27.3134   47.6415 H   0  0  0  0  0  0  0  0  0  0  0  0
   60.8255   27.5339   49.6679 H   0  0  0  0  0  0  0  0  0  0  0  0
   61.4777   28.5216   48.2976 H   0  0  0  0  0  0  0  0  0  0  0  0
  1  2  1  0
  2  3  1  0
  3  4  1  0
  4  5  2  0
  5  6  1  0
  6  7  2  0
  7  8  1  0
  8  9  1  0
  9 10  1  0
 10 11  1  0
 11 12  1  0
 12 13  1  0
 13 14  2  0
 13 15  1  0
 15 16  1  0
 15 17  1  0
 17 18  1  0
 18 19  1  0
 19 20  1  0
 20 21  1  0
 21 22  2  0
 22 23  1  0
 23 24  2  0
 24 25  1  0
 25 26  2  0
 19 27  1  0
 27 28  1  0
  7  3  1  0
 28 15  1  0
 26 21  1  0
  1 29  1  0
  1 30  1  0
  1 31  1  0
  2 32  1  0
  2 33  1  0
  4 34  1  0
  5 35  1  0
  8 36  1  0
  8 37  1  0
  9 38  1  0
 10 39  1  0
 10 40  1  0
 11 41  1  0
 11 42  1  0
 12 43  1  0
 17 44  1  0
 17 45  1  0
 18 46  1  0
 18 47  1  0
 20 48  1  0
 20 49  1  0
 22 50  1  0
 23 51  1  0
 24 52  1  0
 25 53  1  0
 26 54  1  0
 27 55  1  0
 27 56  1  0
 28 57  1  0
 28 58  1  0
M  END
>  <UniqueID>  (6) 
6

>  <SMILES>  (6) 
CCn1ccnc1CNCCNC(=O)C1(F)CCN(Cc2ccccc2)CC1

>  <Energy>  (6) 
87.55634501038668

>  <Genealogy>  (6) 
CCn1ccnc1CNCCNC(=O)C1(F)CCN(Cc2ccccc2)CC1 (3D coordinates assigned)
CCn1ccnc1CNCCNC(=O)C1(F)CCN(Cc2ccccc2)CC1 (nonaromatic ring conformer: 87.55634501038668 kcal/mol)

>  <smiles>  (6) 
CCn1ccnc1CNCCNC(=O)C1(F)CCN(Cc2ccccc2)CC1

>  <score_type>  (6) 
oracle

>  <origin>  (6) 
adg

>  <m_score__min__energy>  (6) 
-7.8200000000000003

>  <m_primary>  (6) 
energy

$$$$
6:0
     RDKit          3D

 43 44  0  0  0  0  0  0  0  0999 V2000
   63.0590   33.8510   46.6900 C   0  0  0  0  0  0  0  0  0  0  0  0
   63.3760   32.4220   47.1280 C   0  0  0  0  0  0  0  0  0  0  0  0
   62.7170   32.0480   48.4640 C   0  0  0  0  0  0  0  0  0  0  0  0
   61.4970   31.1250   48.2820 C   0  0  0  0  0  0  0  0  0  0  0  0
   60.3430   31.5480   49.1020 N   0  0  0  0  0  0  0  0  0  0  0  0
   59.0390   31.1200   48.5620 C   0  0  0  0  0  0  0  0  0  0  0  0
   58.7870   31.6740   47.1860 C   0  0  0  0  0  0  0  0  0  0  0  0
   58.3110   30.9640   46.0900 C   0  0  0  0  0  0  0  0  0  0  0  0
   58.2480   31.7670   45.0000 N   0  0  0  0  0  0  0  0  0  0  0  0
   57.7600   31.3660   43.6780 C   0  0  0  0  0  0  0  0  0  0  0  0
   57.0930   29.9870   43.7280 C   0  0  0  0  0  0  0  0  0  0  0  0
   55.6160   30.0680   44.1040 C   0  0  0  0  0  0  0  0  0  0  0  0
   58.6790   32.9840   45.4000 C   0  0  0  0  0  0  0  0  0  0  0  0
   58.7970   34.1550   44.6430 C   0  0  0  0  0  0  0  0  0  0  0  0
   59.2850   35.3080   45.2820 C   0  0  0  0  0  0  0  0  0  0  0  0
   59.6440   35.2740   46.6470 C   0  0  0  0  0  0  0  0  0  0  0  0
   59.5120   34.0880   47.3880 C   0  0  0  0  0  0  0  0  0  0  0  0
   59.0220   32.9590   46.7310 C   0  0  0  0  0  0  0  0  0  0  0  0
   62.9185   34.4842   47.5784 H   0  0  0  0  0  0  0  0  0  0  0  0
   63.8919   34.2433   46.0881 H   0  0  0  0  0  0  0  0  0  0  0  0
   62.1383   33.8543   46.0881 H   0  0  0  0  0  0  0  0  0  0  0  0
   63.0166   31.7291   46.3529 H   0  0  0  0  0  0  0  0  0  0  0  0
   64.4651   32.3520   47.2653 H   0  0  0  0  0  0  0  0  0  0  0  0
   63.4591   31.5323   49.0912 H   0  0  0  0  0  0  0  0  0  0  0  0
   62.3654   32.9777   48.9351 H   0  0  0  0  0  0  0  0  0  0  0  0
   61.2006   31.1361   47.2227 H   0  0  0  0  0  0  0  0  0  0  0  0
   61.7884   30.1158   48.6086 H   0  0  0  0  0  0  0  0  0  0  0  0
   60.4540   31.1550   50.0660 H   0  0  0  0  0  0  0  0  0  0  0  0
   60.3440   32.5910   49.1930 H   0  0  0  0  0  0  0  0  0  0  0  0
   59.0195   30.0214   48.5111 H   0  0  0  0  0  0  0  0  0  0  0  0
   58.2535   31.5025   49.2303 H   0  0  0  0  0  0  0  0  0  0  0  0
   58.0260   29.9017   46.1051 H   0  0  0  0  0  0  0  0  0  0  0  0
   57.0267   32.1067   43.3264 H   0  0  0  0  0  0  0  0  0  0  0  0
   58.6178   31.3132   42.9914 H   0  0  0  0  0  0  0  0  0  0  0  0
   57.1800   29.5164   42.7375 H   0  0  0  0  0  0  0  0  0  0  0  0
   57.6040   29.3953   44.5018 H   0  0  0  0  0  0  0  0  0  0  0  0
   55.5163   30.0735   45.1995 H   0  0  0  0  0  0  0  0  0  0  0  0
   55.1828   30.9913   43.6918 H   0  0  0  0  0  0  0  0  0  0  0  0
   55.0844   29.1977   43.6918 H   0  0  0  0  0  0  0  0  0  0  0  0
   58.5162   34.1727   43.5796 H   0  0  0  0  0  0  0  0  0  0  0  0
   59.3880   36.2443   44.7140 H   0  0  0  0  0  0  0  0  0  0  0  0
   60.0296   36.1822   47.1334 H   0  0  0  0  0  0  0  0  0  0  0  0
   59.7863   34.0506   48.4526 H   0  0  0  0  0  0  0  0  0  0  0  0
  1  2  1  0
  2  3  1  0
  3  4  1  0
  4  5  1  0
  5  6  1  0
  6  7  1  0
  7  8  2  0
  8  9  1  0
  9 10  1  0
 10 11  1  0
 11 12  1  0
  9 13  1  0
 13 14  2  0
 14 15  1  0
 15 16  2  0
 16 17  1  0
 17 18  2  0
 18  7  1  0
 18 13  1  0
  1 19  1  0
  1 20  1  0
  1 21  1  0
  2 22  1  0
  2 23  1  0
  3 24  1  0
  3 25  1  0
  4 26  1  0
  4 27  1  0
  5 28  1  0
  5 29  1  0
  6 30  1  0
  6 31  1  0
  8 32  1  0
 10 33  1  0
 10 34  1  0
 11 35  1  0
 11 36  1  0
 12 37  1  0
 12 38  1  0
 12 39  1  0
 14 40  1  0
 15 41  1  0
 16 42  1  0
 17 43  1  0
M  CHG  1   5   1
M  END
>  <UniqueID>  (7) 
7

>  <SMILES>  (7) 
CCCC[NH2+]Cc1cn(CCC)c2ccccc12

>  <Energy>  (7) 
65.21100261823634

>  <Genealogy>  (7) 
CCCC[NH2+]Cc1cn(CCC)c2ccccc12 (protonated)
CCCC[NH2+]Cc1cn(CCC)c2ccccc12 (3D coordinates assigned)
CCCC[NH2+]Cc1cn(CCC)c2ccccc12 (optimized conformer: 65.21100261823634 kcal/mol)

>  <smiles>  (7) 
CCCCNCc1cn(CCC)c2ccccc12

>  <score_type>  (7) 
oracle

>  <origin>  (7) 
adg

>  <m_score__min__energy>  (7) 
-4.3399999999999999

>  <m_primary>  (7) 
energy

$$$$
7:0
     RDKit          3D

 56 58  0  0  0  0  0  0  0  0999 V2000
   63.4310   33.4840   46.8190 C   0  0  0  0  0  0  0  0  0  0  0  0
   63.7350   32.1210   47.4320 C   0  0  0  0  0  0  0  0  0  0  0  0
   62.6790   31.7420   48.3820 N   0  0  0  0  0  0  0  0  0  0  0  0
   63.1860   31.7100   49.7610 C   0  0  0  0  0  0  0  0  0  0  0  0
   62.0670   32.0540   50.7450 C   0  0  0  0  0  0  0  0  0  0  0  0
   60.7580   31.8850   50.1020 N   0  0  0  0  0  0  0  0  0  0  0  0
   60.3390   30.4800   50.1520 C   0  0  0  0  0  0  0  0  0  0  0  0
   59.7360   30.0550   48.8090 C   0  0  0  0  0  0  0  0  0  0  0  0
   60.4490   30.6790   47.6780 N   0  0  0  0  0  0  0  0  0  0  0  0
   59.6040   30.7310   46.4930 C   0  0  0  0  0  0  0  0  0  0  0  0
   59.2910   29.5240   45.8040 C   0  0  0  0  0  0  0  0  0  0  0  0
   59.9020   28.2880   46.1470 C   0  0  0  0  0  0  0  0  0  0  0  0
   59.5390   27.1020   45.5160 C   0  0  0  0  0  0  0  0  0  0  0  0
   58.5570   27.1070   44.5390 C   0  0  0  0  0  0  0  0  0  0  0  0
   57.9610   28.3040   44.1590 C   0  0  0  0  0  0  0  0  0  0  0  0
   58.3410   29.5390   44.7470 C   0  0  0  0  0  0  0  0  0  0  0  0
   57.7860   30.7270   44.3290 N   0  0  0  0  0  0  0  0  0  0  0  0
   57.0330   30.7770   43.0530 C   0  0  0  0  0  0  0  0  0  0  0  0
   57.9690   31.8790   45.0630 C   0  0  0  0  0  0  0  0  0  0  0  0
   57.1490   33.0110   44.8370 C   0  0  0  0  0  0  0  0  0  0  0  0
   57.3850   34.2120   45.4830 C   0  0  0  0  0  0  0  0  0  0  0  0
   58.4620   34.3380   46.3410 C   0  0  0  0  0  0  0  0  0  0  0  0
   59.2890   33.2360   46.6280 C   0  0  0  0  0  0  0  0  0  0  0  0
   60.4400   33.4280   47.4120 O   0  0  0  0  0  0  0  0  0  0  0  0
   60.6420   34.4990   48.3300 C   0  0  0  0  0  0  0  0  0  0  0  0
   58.9740   31.9490   46.0760 C   0  0  0  0  0  0  0  0  0  0  0  0
   63.2672   34.2185   47.6213 H   0  0  0  0  0  0  0  0  0  0  0  0
   64.2799   33.8038   46.1968 H   0  0  0  0  0  0  0  0  0  0  0  0
   62.5267   33.4128   46.1968 H   0  0  0  0  0  0  0  0  0  0  0  0
   63.7911   31.3678   46.6323 H   0  0  0  0  0  0  0  0  0  0  0  0
   64.6948   32.1751   47.9666 H   0  0  0  0  0  0  0  0  0  0  0  0
   61.9310   32.4750   48.3380 H   0  0  0  0  0  0  0  0  0  0  0  0
   63.5686   30.7030   49.9839 H   0  0  0  0  0  0  0  0  0  0  0  0
   63.9931   32.4504   49.8632 H   0  0  0  0  0  0  0  0  0  0  0  0
   62.1323   31.3871   51.6174 H   0  0  0  0  0  0  0  0  0  0  0  0
   62.1782   33.1009   51.0640 H   0  0  0  0  0  0  0  0  0  0  0  0
   60.8620   32.1450   49.0920 H   0  0  0  0  0  0  0  0  0  0  0  0
   61.2123   29.8489   50.3733 H   0  0  0  0  0  0  0  0  0  0  0  0
   59.5787   30.3618   50.9382 H   0  0  0  0  0  0  0  0  0  0  0  0
   59.8047   28.9611   48.7158 H   0  0  0  0  0  0  0  0  0  0  0  0
   58.6866   30.3837   48.7808 H   0  0  0  0  0  0  0  0  0  0  0  0
   61.3570   30.2040   47.4850 H   0  0  0  0  0  0  0  0  0  0  0  0
   60.7660   31.6400   47.9360 H   0  0  0  0  0  0  0  0  0  0  0  0
   60.6775   28.2682   46.9269 H   0  0  0  0  0  0  0  0  0  0  0  0
   60.0327   26.1590   45.7935 H   0  0  0  0  0  0  0  0  0  0  0  0
   58.2489   26.1639   44.0639 H   0  0  0  0  0  0  0  0  0  0  0  0
   57.1782   28.2940   43.3862 H   0  0  0  0  0  0  0  0  0  0  0  0
   55.9561   30.8485   43.2653 H   0  0  0  0  0  0  0  0  0  0  0  0
   57.3516   31.6560   42.4734 H   0  0  0  0  0  0  0  0  0  0  0  0
   57.2326   29.8636   42.4734 H   0  0  0  0  0  0  0  0  0  0  0  0
   56.3069   32.9343   44.1334 H   0  0  0  0  0  0  0  0  0  0  0  0
   56.7148   35.0676   45.3136 H   0  0  0  0  0  0  0  0  0  0  0  0
   58.6752   35.3122   46.8053 H   0  0  0  0  0  0  0  0  0  0  0  0
   60.5701   34.1180   49.3594 H   0  0  0  0  0  0  0  0  0  0  0  0
   61.6385   34.9364   48.1696 H   0  0  0  0  0  0  0  0  0  0  0  0
   59.8733   35.2693   48.1696 H   0  0  0  0  0  0  0  0  0  0  0  0
  1  2  1  0
  2  3  1  0
  3  4  1  0
  4  5  1  0
  5  6  1  0
  6  7  1  0
  7  8  1  0
  8  9  1  0
  9 10  1  0
 10 11  2  0
 11 12  1  0
 12 13  2  0
 13 14  1  0
 14 15  2  0
 15 16  1  0
 16 17  2  0
 17 18  1  0
 17 19  1  0
 19 20  2  0
 20 21  1  0
 21 22  2  0
 22 23  1  0
 23 24  1  0
 24 25  1  0
 23 26  2  0
 26 10  1  0
 16 11  1  0
 26 19  1  0
  1 27  1  0
  1 28  1  0
  1 29  1  0
  2 30  1  0
  2 31  1  0
  3 32  1  0
  4 33  1  0
  4 34  1  0
  5 35  1  0
  5 36  1  0
  6 37  1  0
  7 38  1  0
  7 39  1  0
  8 40  1  0
  8 41  1  0
  9 42  1  0
  9 43  1  0
 12 44  1  0
 13 45  1  0
 14 46  1  0
 15 47  1  0
 18 48  1  0
 18 49  1  0
 18 50  1  0
 20 51  1  0
 21 52  1  0
 22 53  1  0
 25 54  1  0
 25 55  1  0
 25 56  1  0
M  CHG  2   9   1  17   1
M  END
>  <UniqueID>  (8) 
8

>  <SMILES>  (8) 
CCNCCNCC[NH2+]c1c2ccccc2[n+](C)c2cccc(OC)c12

>  <Energy>  (8) 
82.25470980766197

>  <Genealogy>  (8) 
CCNCCNCC[NH2+]c1c2ccccc2[n+](C)c2cccc(OC)c12 (protonated)
CCNCCNCC[NH2+]c1c2ccccc2[n+](C)c2cccc(OC)c12 (3D coordinates assigned)
CCNCCNCC[NH2+]c1c2ccccc2[n+](C)c2cccc(OC)c12 (optimized conformer: 82.25470980766197 kcal/mol)

>  <smiles>  (8) 
CCNCCNCCNc1c2ccccc2[n+](C)c2cccc(OC)c12

>  <score_type>  (8) 
oracle

>  <origin>  (8) 
adg

>  <m_score__min__energy>  (8) 
-3.8100000000000001

>  <m_primary>  (8) 
energy

$$$$
8:0
     RDKit          3D

 43 44  0  0  0  0  0  0  0  0999 V2000
   63.6730   33.3870   46.9530 C   0  0  0  0  0  0  0  0  0  0  0  0
   63.3870   33.6230   48.4320 C   0  0  0  0  0  0  0  0  0  0  0  0
   62.0140   33.3630   48.7300 O   0  0  0  0  0  0  0  0  0  0  0  0
   60.9620   33.3280   47.7960 C   0  0  0  0  0  0  0  0  0  0  0  0
   60.2770   34.4910   47.3910 C   0  0  0  0  0  0  0  0  0  0  0  0
   59.2410   34.4140   46.4590 C   0  0  0  0  0  0  0  0  0  0  0  0
   58.8710   33.1790   45.9160 C   0  0  0  0  0  0  0  0  0  0  0  0
   57.5610   33.0690   44.7420 S   0  0  0  0  0  0  0  0  0  0  0  0
   56.6450   34.2550   44.8690 O   0  0  0  0  0  0  0  0  0  0  0  0
   58.1460   33.0550   43.3580 O   0  0  0  0  0  0  0  0  0  0  0  0
   56.6590   31.6050   44.9970 N   0  0  0  0  0  0  0  0  0  0  0  0
   56.6270   30.7840   43.7840 C   0  0  0  0  0  0  0  0  0  0  0  0
   55.5180   29.7350   43.8860 C   0  0  0  0  0  0  0  0  0  0  0  0
   55.7320   28.8840   45.0120 O   0  0  0  0  0  0  0  0  0  0  0  0
   56.9740   28.3770   45.4300 C   0  0  0  0  0  0  0  0  0  0  0  0
   57.4020   27.1550   44.8910 C   0  0  0  0  0  0  0  0  0  0  0  0
   58.6310   26.6050   45.2690 C   0  0  0  0  0  0  0  0  0  0  0  0
   59.4430   27.2710   46.1880 C   0  0  0  0  0  0  0  0  0  0  0  0
   59.0300   28.4910   46.7300 C   0  0  0  0  0  0  0  0  0  0  0  0
   57.8020   29.0460   46.3540 C   0  0  0  0  0  0  0  0  0  0  0  0
   59.5480   32.0190   46.3080 C   0  0  0  0  0  0  0  0  0  0  0  0
   60.5930   32.0860   47.2440 C   0  0  0  0  0  0  0  0  0  0  0  0
   61.3170   30.8330   47.6520 C   0  0  0  0  0  0  0  0  0  0  0  0
   64.5177   32.6900   46.8495 H   0  0  0  0  0  0  0  0  0  0  0  0
   62.7822   32.9576   46.4712 H   0  0  0  0  0  0  0  0  0  0  0  0
   63.9255   34.3431   46.4712 H   0  0  0  0  0  0  0  0  0  0  0  0
   64.0198   32.9535   49.0332 H   0  0  0  0  0  0  0  0  0  0  0  0
   63.6072   34.6739   48.6709 H   0  0  0  0  0  0  0  0  0  0  0  0
   60.5609   35.4666   47.8125 H   0  0  0  0  0  0  0  0  0  0  0  0
   58.7132   35.3283   46.1501 H   0  0  0  0  0  0  0  0  0  0  0  0
   56.4381   31.4291   42.9133 H   0  0  0  0  0  0  0  0  0  0  0  0
   57.5948   30.2737   43.6700 H   0  0  0  0  0  0  0  0  0  0  0  0
   54.5488   30.2434   43.9964 H   0  0  0  0  0  0  0  0  0  0  0  0
   55.5250   29.1222   42.9725 H   0  0  0  0  0  0  0  0  0  0  0  0
   56.7666   26.6255   44.1659 H   0  0  0  0  0  0  0  0  0  0  0  0
   58.9582   25.6458   44.8412 H   0  0  0  0  0  0  0  0  0  0  0  0
   60.4083   26.8356   46.4858 H   0  0  0  0  0  0  0  0  0  0  0  0
   59.6714   29.0158   47.4534 H   0  0  0  0  0  0  0  0  0  0  0  0
   57.4815   30.0078   46.7809 H   0  0  0  0  0  0  0  0  0  0  0  0
   59.2597   31.0475   45.8800 H   0  0  0  0  0  0  0  0  0  0  0  0
   61.3528   30.7711   48.7497 H   0  0  0  0  0  0  0  0  0  0  0  0
   60.7863   29.9563   47.2524 H   0  0  0  0  0  0  0  0  0  0  0  0
   62.3416   30.8549   47.2524 H   0  0  0  0  0  0  0  0  0  0  0  0
  1  2  1  0
  2  3  1  0
  3  4  1  0
  4  5  2  0
  5  6  1  0
  6  7  2  0
  7  8  1  0
  8  9  2  0
  8 10  2  0
  8 11  1  0
 11 12  1  0
 12 13  1  0
 13 14  1  0
 14 15  1  0
 15 16  2  0
 16 17  1  0
 17 18  2  0
 18 19  1  0
 19 20  2  0
  7 21  1  0
 21 22  2  0
 22 23  1  0
 22  4  1  0
 20 15  1  0
  1 24  1  0
  1 25  1  0
  1 26  1  0
  2 27  1  0
  2 28  1  0
  5 29  1  0
  6 30  1  0
 12 31  1  0
 12 32  1  0
 13 33  1  0
 13 34  1  0
 16 35  1  0
 17 36  1  0
 18 37  1  0
 19 38  1  0
 20 39  1  0
 21 40  1  0
 23 41  1  0
 23 42  1  0
 23 43  1  0
M  CHG  1  11  -1
M  END
>  <UniqueID>  (9) 
9

>  <SMILES>  (9) 
CCOc1ccc(S(=O)(=O)[N-]CCOc2ccccc2)cc1C

>  <Energy>  (9) 
39.31493843040373

>  <Genealogy>  (9) 
CCOc1ccc(S(=O)(=O)[N-]CCOc2ccccc2)cc1C (protonated)
CCOc1ccc(S(=O)(=O)[N-]CCOc2ccccc2)cc1C (3D coordinates assigned)
CCOc1ccc(S(=O)(=O)[N-]CCOc2ccccc2)cc1C (optimized conformer: 39.31493843040373 kcal/mol)

>  <smiles>  (9) 
CCOc1ccc(S(=O)(=O)NCCOc2ccccc2)cc1C

>  <score_type>  (9) 
oracle

>  <origin>  (9) 
adg

>  <m_score__min__energy>  (9) 
-9.0700000000000003

>  <m_primary>  (9) 
energy

$$$$
9:0
     RDKit          3D

 72 75  0  0  0  0  0  0  0  0999 V2000
   66.0370   33.0580   50.1410 C   0  0  0  0  0  0  0  0  0  0  0  0
   64.7650   32.3430   50.0250 C   0  0  0  0  0  0  0  0  0  0  0  0
   63.7200   31.7510   49.9290 C   0  0  0  0  0  0  0  0  0  0  0  0
   62.4430   31.0320   49.8190 C   0  0  0  0  0  0  0  0  0  0  0  0
   61.7620   31.3860   48.5550 N   0  0  0  0  0  0  0  0  0  0  0  0
   62.6800   32.1470   47.6810 C   0  0  0  0  0  0  0  0  0  0  0  0
   61.2760   30.1690   47.8680 C   0  0  0  0  0  0  0  0  0  0  0  0
   60.1580   29.4910   48.6710 C   0  0  0  0  0  0  0  0  0  0  0  0
   58.8490   30.0160   48.2870 N   0  0  0  0  0  0  0  0  0  0  0  0
   58.5600   30.2770   46.9070 C   0  0  0  0  0  0  0  0  0  0  0  0
   58.4770   29.1980   46.0140 C   0  0  0  0  0  0  0  0  0  0  0  0
   58.8770   27.9010   46.4070 C   0  0  0  0  0  0  0  0  0  0  0  0
   58.8410   26.8410   45.5040 C   0  0  0  0  0  0  0  0  0  0  0  0
   58.4180   27.0560   44.1970 C   0  0  0  0  0  0  0  0  0  0  0  0
   57.9950   28.3230   43.7960 C   0  0  0  0  0  0  0  0  0  0  0  0
   57.9760   29.4110   44.7070 C   0  0  0  0  0  0  0  0  0  0  0  0
   57.4750   30.6490   44.3540 N   0  0  0  0  0  0  0  0  0  0  0  0
   56.6520   30.7860   43.1290 C   0  0  0  0  0  0  0  0  0  0  0  0
   57.7280   31.7520   45.1510 C   0  0  0  0  0  0  0  0  0  0  0  0
   57.4430   33.0650   44.6980 C   0  0  0  0  0  0  0  0  0  0  0  0
   57.6590   34.1700   45.5070 C   0  0  0  0  0  0  0  0  0  0  0  0
   58.2180   34.0160   46.7650 C   0  0  0  0  0  0  0  0  0  0  0  0
   58.5730   32.7490   47.2440 C   0  0  0  0  0  0  0  0  0  0  0  0
   59.3510   32.6780   48.4530 N   0  0  0  0  0  0  0  0  0  0  0  0
   59.7850   33.8640   49.1940 C   0  0  0  0  0  0  0  0  0  0  0  0
   59.5300   33.6920   50.6960 C   0  0  0  0  0  0  0  0  0  0  0  0
   59.8000   32.2560   51.1670 C   0  0  0  0  0  0  0  0  0  0  0  0
   58.6260   31.3990   50.9020 N   0  0  0  0  0  0  0  0  0  0  0  0
   57.4080   31.9790   51.5050 C   0  0  0  0  0  0  0  0  0  0  0  0
   56.2970   30.9200   51.6150 C   0  0  0  0  0  0  0  0  0  0  0  0
   56.6440   29.7790   52.3900 O   0  0  0  0  0  0  0  0  0  0  0  0
   58.0420   29.6080   52.5630 C   0  0  0  0  0  0  0  0  0  0  0  0
   58.8510   29.9880   51.3110 C   0  0  0  0  0  0  0  0  0  0  0  0
   58.2970   31.5910   46.4510 C   0  0  0  0  0  0  0  0  0  0  0  0
   66.2840   33.1968   51.2039 H   0  0  0  0  0  0  0  0  0  0  0  0
   66.8315   32.4743   49.6531 H   0  0  0  0  0  0  0  0  0  0  0  0
   65.9514   34.0402   49.6531 H   0  0  0  0  0  0  0  0  0  0  0  0
   62.6337   29.9488   49.8375 H   0  0  0  0  0  0  0  0  0  0  0  0
   61.7987   31.3156   50.6642 H   0  0  0  0  0  0  0  0  0  0  0  0
   63.3797   32.7270   48.3007 H   0  0  0  0  0  0  0  0  0  0  0  0
   63.2449   31.4486   47.0460 H   0  0  0  0  0  0  0  0  0  0  0  0
   62.0985   32.8316   47.0460 H   0  0  0  0  0  0  0  0  0  0  0  0
   60.8887   30.4465   46.8765 H   0  0  0  0  0  0  0  0  0  0  0  0
   62.1145   29.4635   47.7718 H   0  0  0  0  0  0  0  0  0  0  0  0
   60.1823   28.4081   48.4791 H   0  0  0  0  0  0  0  0  0  0  0  0
   60.3191   29.6950   49.7398 H   0  0  0  0  0  0  0  0  0  0  0  0
   58.1870   30.3770   49.0120 H   0  0  0  0  0  0  0  0  0  0  0  0
   59.2206   27.7265   47.4373 H   0  0  0  0  0  0  0  0  0  0  0  0
   59.1471   25.8343   45.8247 H   0  0  0  0  0  0  0  0  0  0  0  0
   58.4170   26.2243   43.4771 H   0  0  0  0  0  0  0  0  0  0  0  0
   57.6709   28.4816   42.7569 H   0  0  0  0  0  0  0  0  0  0  0  0
   55.6029   30.9606   43.4098 H   0  0  0  0  0  0  0  0  0  0  0  0
   57.0186   31.6355   42.5340 H   0  0  0  0  0  0  0  0  0  0  0  0
   56.7237   29.8636   42.5340 H   0  0  0  0  0  0  0  0  0  0  0  0
   57.0423   33.2099   43.6839 H   0  0  0  0  0  0  0  0  0  0  0  0
   57.3853   35.1732   45.1484 H   0  0  0  0  0  0  0  0  0  0  0  0
   58.3853   34.9011   47.3963 H   0  0  0  0  0  0  0  0  0  0  0  0
   59.5950   31.7390   48.8410 H   0  0  0  0  0  0  0  0  0  0  0  0
   60.8609   34.0200   49.0266 H   0  0  0  0  0  0  0  0  0  0  0  0
   59.2117   34.7320   48.8365 H   0  0  0  0  0  0  0  0  0  0  0  0
   60.1904   34.3766   51.2485 H   0  0  0  0  0  0  0  0  0  0  0  0
   58.4706   33.9178   50.8877 H   0  0  0  0  0  0  0  0  0  0  0  0
   60.6708   31.8551   50.6276 H   0  0  0  0  0  0  0  0  0  0  0  0
   59.9981   32.2661   52.2490 H   0  0  0  0  0  0  0  0  0  0  0  0
   57.6475   32.3565   52.5100 H   0  0  0  0  0  0  0  0  0  0  0  0
   57.0523   32.7988   50.8635 H   0  0  0  0  0  0  0  0  0  0  0  0
   55.4163   31.3925   52.0745 H   0  0  0  0  0  0  0  0  0  0  0  0
   56.1075   30.5584   50.5936 H   0  0  0  0  0  0  0  0  0  0  0  0
   58.3722   30.2411   53.3998 H   0  0  0  0  0  0  0  0  0  0  0  0
   58.2220   28.5411   52.7611 H   0  0  0  0  0  0  0  0  0  0  0  0
   59.9209   29.8478   51.5249 H   0  0  0  0  0  0  0  0  0  0  0  0
   58.5187   29.3409   50.4859 H   0  0  0  0  0  0  0  0  0  0  0  0
  1  2  1  0
  2  3  3  0
  3  4  1  0
  4  5  1  0
  5  6  1  0
  5  7  1  0
  7  8  1  0
  8  9  1  0
  9 10  1  0
 10 11  2  0
 11 12  1  0
 12 13  2  0
 13 14  1  0
 14 15  2  0
 15 16  1  0
 16 17  2  0
 17 18  1  0
 17 19  1  0
 19 20  2  0
 20 21  1  0
 21 22  2  0
 22 23  1  0
 23 24  1  0
 24 25  1  0
 25 26  1  0
 26 27  1  0
 27 28  1  0
 28 29  1  0
 29 30  1  0
 30 31  1  0
 31 32  1  0
 32 33  1  0
 23 34  2  0
 34 10  1  0
 16 11  1  0
 34 19  1  0
 33 28  1  0
  1 35  1  0
  1 36  1  0
  1 37  1  0
  4 38  1  0
  4 39  1  0
  6 40  1  0
  6 41  1  0
  6 42  1  0
  7 43  1  0
  7 44  1  0
  8 45  1  0
  8 46  1  0
  9 47  1  0
 12 48  1  0
 13 49  1  0
 14 50  1  0
 15 51  1  0
 18 52  1  0
 18 53  1  0
 18 54  1  0
 20 55  1  0
 21 56  1  0
 22 57  1  0
 24 58  1  0
 25 59  1  0
 25 60  1  0
 26 61  1  0
 26 62  1  0
 27 63  1  0
 27 64  1  0
 29 65  1  0
 29 66  1  0
 30 67  1  0
 30 68  1  0
 32 69  1  0
 32 70  1  0
 33 71  1  0
 33 72  1  0
M  CHG  1  17   1
M  END
>  <UniqueID>  (10) 
10

>  <SMILES>  (10) 
CC#CCN(C)CCNc1c2ccccc2[n+](C)c2cccc(NCCCN3CCOCC3)c12

>  <Energy>  (10) 
113.64216346271704

>  <Genealogy>  (10) 
CC#CCN(C)CCNc1c2ccccc2[n+](C)c2cccc(NCCCN3CCOCC3)c12 (3D coordinates assigned)
CC#CCN(C)CCNc1c2ccccc2[n+](C)c2cccc(NCCCN3CCOCC3)c12 (nonaromatic ring conformer: 113.64216346271704 kcal/mol)

>  <smiles>  (10) 
CC#CCN(C)CCNc1c2ccccc2[n+](C)c2cccc(NCCCN3CCOCC3)c12

>  <score_type>  (10) 
oracle

>  <origin>  (10) 
adg

>  <m_score__min__energy>  (10) 
-6.2400000000000002

>  <m_primary>  (10) 
energy

$$$$
10:0
     RDKit          3D

 45 47  0  0  0  0  0  0  0  0999 V2000
   59.1950   31.2010   49.0330 C   0  0  0  0  0  0  0  0  0  0  0  0
   59.3310   32.7140   49.1720 C   0  0  0  0  0  0  0  0  0  0  0  0
   59.8760   33.3050   47.9440 N   0  0  0  0  0  0  0  0  0  0  0  0
   59.1840   33.7290   46.8620 C   0  0  0  0  0  0  0  0  0  0  0  0
   57.4060   33.6000   46.6650 S   0  0  0  0  0  0  0  0  0  0  0  0
   57.4560   33.9680   44.8780 C   0  0  0  0  0  0  0  0  0  0  0  0
   57.9530   32.7420   44.1080 C   0  0  0  0  0  0  0  0  0  0  0  0
   57.2410   31.5230   44.5470 N   0  0  0  0  0  0  0  0  0  0  0  0
   56.6330   30.8350   43.3880 C   0  0  0  0  0  0  0  0  0  0  0  0
   56.0600   29.4640   43.7990 C   0  0  0  0  0  0  0  0  0  0  0  0
   56.0330   29.3230   45.2050 O   0  0  0  0  0  0  0  0  0  0  0  0
   57.3560   29.3410   45.7130 C   0  0  0  0  0  0  0  0  0  0  0  0
   58.1400   30.5910   45.2580 C   0  0  0  0  0  0  0  0  0  0  0  0
   59.9860   34.3120   45.9490 N   0  0  0  0  0  0  0  0  0  0  0  0
   61.2090   34.2630   46.4520 N   0  0  0  0  0  0  0  0  0  0  0  0
   61.1510   33.6520   47.6510 C   0  0  0  0  0  0  0  0  0  0  0  0
   62.3320   33.4620   48.5230 C   0  0  0  0  0  0  0  0  0  0  0  0
   63.3650   32.5790   48.1650 C   0  0  0  0  0  0  0  0  0  0  0  0
   64.4760   32.4150   48.9990 C   0  0  0  0  0  0  0  0  0  0  0  0
   64.5730   33.1420   50.1890 C   0  0  0  0  0  0  0  0  0  0  0  0
   63.5610   34.0380   50.5440 C   0  0  0  0  0  0  0  0  0  0  0  0
   62.4480   34.2040   49.7120 C   0  0  0  0  0  0  0  0  0  0  0  0
   59.1538   30.7432   50.0324 H   0  0  0  0  0  0  0  0  0  0  0  0
   58.2720   30.9648   48.4832 H   0  0  0  0  0  0  0  0  0  0  0  0
   60.0611   30.8040   48.4832 H   0  0  0  0  0  0  0  0  0  0  0  0
   58.3402   33.1480   49.3718 H   0  0  0  0  0  0  0  0  0  0  0  0
   60.0193   32.9306   50.0023 H   0  0  0  0  0  0  0  0  0  0  0  0
   56.4459   34.2317   44.5314 H   0  0  0  0  0  0  0  0  0  0  0  0
   58.1413   34.8099   44.7004 H   0  0  0  0  0  0  0  0  0  0  0  0
   57.7768   32.8953   43.0331 H   0  0  0  0  0  0  0  0  0  0  0  0
   59.0275   32.6133   44.3050 H   0  0  0  0  0  0  0  0  0  0  0  0
   55.8212   31.4582   42.9848 H   0  0  0  0  0  0  0  0  0  0  0  0
   57.4108   30.6763   42.6265 H   0  0  0  0  0  0  0  0  0  0  0  0
   55.0355   29.3717   43.4092 H   0  0  0  0  0  0  0  0  0  0  0  0
   56.7056   28.6770   43.3820 H   0  0  0  0  0  0  0  0  0  0  0  0
   57.3133   29.3306   46.8121 H   0  0  0  0  0  0  0  0  0  0  0  0
   57.8787   28.4550   45.3235 H   0  0  0  0  0  0  0  0  0  0  0  0
   58.5639   31.0952   46.1389 H   0  0  0  0  0  0  0  0  0  0  0  0
   58.9482   30.2817   44.5789 H   0  0  0  0  0  0  0  0  0  0  0  0
   62.0580   34.6460   45.9790 H   0  0  0  0  0  0  0  0  0  0  0  0
   63.2996   32.0136   47.2237 H   0  0  0  0  0  0  0  0  0  0  0  0
   65.2747   31.7128   48.7179 H   0  0  0  0  0  0  0  0  0  0  0  0
   65.4454   33.0089   50.8456 H   0  0  0  0  0  0  0  0  0  0  0  0
   63.6393   34.6133   51.4783 H   0  0  0  0  0  0  0  0  0  0  0  0
   61.6594   34.9189   49.9896 H   0  0  0  0  0  0  0  0  0  0  0  0
  1  2  1  0
  2  3  1  0
  3  4  1  0
  4  5  1  0
  5  6  1  0
  6  7  1  0
  7  8  1  0
  8  9  1  0
  9 10  1  0
 10 11  1  0
 11 12  1  0
 12 13  1  0
  4 14  2  0
 14 15  1  0
 15 16  2  0
 16 17  1  0
 17 18  2  0
 18 19  1  0
 19 20  2  0
 20 21  1  0
 21 22  2  0
 16  3  1  0
 22 17  1  0
 13  8  1  0
  1 23  1  0
  1 24  1  0
  1 25  1  0
  2 26  1  0
  2 27  1  0
  6 28  1  0
  6 29  1  0
  7 30  1  0
  7 31  1  0
  9 32  1  0
  9 33  1  0
 10 34  1  0
 10 35  1  0
 12 36  1  0
 12 37  1  0
 13 38  1  0
 13 39  1  0
 15 40  1  0
 18 41  1  0
 19 42  1  0
 20 43  1  0
 21 44  1  0
 22 45  1  0
M  CHG  1  15   1
M  END
>  <UniqueID>  (11) 
11

>  <SMILES>  (11) 
CCn1c(SCCN2CCOCC2)n[nH+]c1-c1ccccc1

>  <Energy>  (11) 
87.57053177500775

>  <Genealogy>  (11) 
CCn1c(SCCN2CCOCC2)n[nH+]c1-c1ccccc1 (protonated)
CCn1c(SCCN2CCOCC2)n[nH+]c1-c1ccccc1 (3D coordinates assigned)
CCn1c(SCCN2CCOCC2)n[nH+]c1-c1ccccc1 (nonaromatic ring conformer: 87.57053177500775 kcal/mol)

>  <smiles>  (11) 
CCn1c(SCCN2CCOCC2)nnc1-c1ccccc1

>  <score_type>  (11) 
oracle

>  <origin>  (11) 
adg

>  <m_score__min__energy>  (11) 
-6.7699999999999996

>  <m_primary>  (11) 
energy

$$$$
11:0
     RDKit          3D

 66 69  0  0  0  0  0  0  0  0999 V2000
   58.0340   32.2780   42.7180 C   0  0  0  0  0  0  0  0  0  0  0  0
   57.4070   32.3330   44.1190 C   0  0  0  0  0  0  0  0  0  0  0  0
   58.3340   32.7920   45.1850 N   0  0  0  0  0  0  0  0  0  0  0  0
   59.2410   33.8670   44.7210 C   0  0  0  0  0  0  0  0  0  0  0  0
   59.2800   34.9850   45.7550 C   0  0  0  0  0  0  0  0  0  0  0  0
   57.6920   33.1150   46.4790 C   0  0  0  0  0  0  0  0  0  0  0  0
   58.5310   32.6270   47.6710 C   0  0  0  0  0  0  0  0  0  0  0  0
   59.5630   31.6780   47.2480 N   0  0  0  0  0  0  0  0  0  0  0  0
   60.7170   31.4100   48.0650 C   0  0  0  0  0  0  0  0  0  0  0  0
   61.8750   32.1880   47.8930 C   0  0  0  0  0  0  0  0  0  0  0  0
   62.0120   33.0310   46.7690 C   0  0  0  0  0  0  0  0  0  0  0  0
   63.1330   33.8440   46.6220 C   0  0  0  0  0  0  0  0  0  0  0  0
   64.1260   33.8410   47.5930 C   0  0  0  0  0  0  0  0  0  0  0  0
   64.0190   33.0040   48.7030 C   0  0  0  0  0  0  0  0  0  0  0  0
   62.9100   32.1300   48.8610 C   0  0  0  0  0  0  0  0  0  0  0  0
   62.8040   31.2760   49.9410 N   0  0  0  0  0  0  0  0  0  0  0  0
   63.9700   31.0560   50.8260 C   0  0  0  0  0  0  0  0  0  0  0  0
   61.6230   30.5950   50.1740 C   0  0  0  0  0  0  0  0  0  0  0  0
   61.3670   29.9680   51.4170 C   0  0  0  0  0  0  0  0  0  0  0  0
   60.2090   29.2260   51.6220 C   0  0  0  0  0  0  0  0  0  0  0  0
   59.3030   29.0430   50.5870 C   0  0  0  0  0  0  0  0  0  0  0  0
   59.5050   29.6610   49.3430 C   0  0  0  0  0  0  0  0  0  0  0  0
   58.6880   29.2730   48.2230 N   0  0  0  0  0  0  0  0  0  0  0  0
   59.0690   28.2410   47.2490 C   0  0  0  0  0  0  0  0  0  0  0  0
   57.8670   27.8850   46.3590 C   0  0  0  0  0  0  0  0  0  0  0  0
   57.4950   29.0150   45.3730 C   0  0  0  0  0  0  0  0  0  0  0  0
   58.6390   29.8460   44.9490 N   0  0  0  0  0  0  0  0  0  0  0  0
   59.9060   29.1080   44.9730 C   0  0  0  0  0  0  0  0  0  0  0  0
   60.2850   28.7040   46.4080 C   0  0  0  0  0  0  0  0  0  0  0  0
   60.6150   30.5390   49.1720 C   0  0  0  0  0  0  0  0  0  0  0  0
   59.1261   32.1822   42.8085 H   0  0  0  0  0  0  0  0  0  0  0  0
   57.6340   31.4115   42.1710 H   0  0  0  0  0  0  0  0  0  0  0  0
   57.7910   33.2009   42.1710 H   0  0  0  0  0  0  0  0  0  0  0  0
   56.5506   33.0226   44.0865 H   0  0  0  0  0  0  0  0  0  0  0  0
   57.1167   31.3034   44.3753 H   0  0  0  0  0  0  0  0  0  0  0  0
   60.2533   33.4586   44.5852 H   0  0  0  0  0  0  0  0  0  0  0  0
   58.8737   34.2670   43.7644 H   0  0  0  0  0  0  0  0  0  0  0  0
   59.2648   34.5506   46.7655 H   0  0  0  0  0  0  0  0  0  0  0  0
   60.1993   35.5745   45.6231 H   0  0  0  0  0  0  0  0  0  0  0  0
   58.4041   35.6372   45.6231 H   0  0  0  0  0  0  0  0  0  0  0  0
   57.5692   34.2056   46.5530 H   0  0  0  0  0  0  0  0  0  0  0  0
   56.7186   32.6038   46.5144 H   0  0  0  0  0  0  0  0  0  0  0  0
   59.0149   33.4932   48.1460 H   0  0  0  0  0  0  0  0  0  0  0  0
   57.8613   32.1161   48.3784 H   0  0  0  0  0  0  0  0  0  0  0  0
   59.5750   31.3690   46.2490 H   0  0  0  0  0  0  0  0  0  0  0  0
   61.2247   33.0458   46.0009 H   0  0  0  0  0  0  0  0  0  0  0  0
   63.2321   34.4889   45.7364 H   0  0  0  0  0  0  0  0  0  0  0  0
   64.9995   34.5009   47.4860 H   0  0  0  0  0  0  0  0  0  0  0  0
   64.8072   33.0206   49.4701 H   0  0  0  0  0  0  0  0  0  0  0  0
   63.6495   31.1165   51.8765 H   0  0  0  0  0  0  0  0  0  0  0  0
   64.3969   30.0615   50.6296 H   0  0  0  0  0  0  0  0  0  0  0  0
   64.7300   31.8266   50.6296 H   0  0  0  0  0  0  0  0  0  0  0  0
   62.0962   30.0694   52.2343 H   0  0  0  0  0  0  0  0  0  0  0  0
   60.0103   28.7823   52.6087 H   0  0  0  0  0  0  0  0  0  0  0  0
   58.4185   28.4079   50.7428 H   0  0  0  0  0  0  0  0  0  0  0  0
   57.8680   29.8810   48.0000 H   0  0  0  0  0  0  0  0  0  0  0  0
   59.3715   27.3326   47.7905 H   0  0  0  0  0  0  0  0  0  0  0  0
   58.1129   26.9817   45.7814 H   0  0  0  0  0  0  0  0  0  0  0  0
   57.0023   27.7247   47.0198 H   0  0  0  0  0  0  0  0  0  0  0  0
   57.0487   28.5587   44.4771 H   0  0  0  0  0  0  0  0  0  0  0  0
   56.7981   29.6813   45.9025 H   0  0  0  0  0  0  0  0  0  0  0  0
   58.7210   30.6750   45.5840 H   0  0  0  0  0  0  0  0  0  0  0  0
   59.8049   28.2007   44.3593 H   0  0  0  0  0  0  0  0  0  0  0  0
   60.6971   29.7593   44.5731 H   0  0  0  0  0  0  0  0  0  0  0  0
   61.0117   27.8796   46.3595 H   0  0  0  0  0  0  0  0  0  0  0  0
   60.7048   29.5939   46.8998 H   0  0  0  0  0  0  0  0  0  0  0  0
  1  2  1  0
  2  3  1  0
  3  4  1  0
  4  5  1  0
  3  6  1  0
  6  7  1  0
  7  8  1  0
  8  9  1  0
  9 10  2  0
 10 11  1  0
 11 12  2  0
 12 13  1  0
 13 14  2  0
 14 15  1  0
 15 16  2  0
 16 17  1  0
 16 18  1  0
 18 19  2  0
 19 20  1  0
 20 21  2  0
 21 22  1  0
 22 23  1  0
 23 24  1  0
 24 25  1  0
 25 26  1  0
 26 27  1  0
 27 28  1  0
 28 29  1  0
 22 30  2  0
 30  9  1  0
 15 10  1  0
 30 18  1  0
 29 24  1  0
  1 31  1  0
  1 32  1  0
  1 33  1  0
  2 34  1  0
  2 35  1  0
  4 36  1  0
  4 37  1  0
  5 38  1  0
  5 39  1  0
  5 40  1  0
  6 41  1  0
  6 42  1  0
  7 43  1  0
  7 44  1  0
  8 45  1  0
 11 46  1  0
 12 47  1  0
 13 48  1  0
 14 49  1  0
 17 50  1  0
 17 51  1  0
 17 52  1  0
 19 53  1  0
 20 54  1  0
 21 55  1  0
 23 56  1  0
 24 57  1  0
 25 58  1  0
 25 59  1  0
 26 60  1  0
 26 61  1  0
 27 62  1  0
 28 63  1  0
 28 64  1  0
 29 65  1  0
 29 66  1  0
M  CHG  1  16   1
M  END
>  <UniqueID>  (12) 
12

>  <SMILES>  (12) 
CCN(CC)CCNc1c2ccccc2[n+](C)c2cccc(NC3CCNCC3)c12

>  <Energy>  (12) 
108.09202602920391

>  <Genealogy>  (12) 
CCN(CC)CCNc1c2ccccc2[n+](C)c2cccc(NC3CCNCC3)c12 (3D coordinates assigned)
CCN(CC)CCNc1c2ccccc2[n+](C)c2cccc(NC3CCNCC3)c12 (nonaromatic ring conformer: 108.09202602920391 kcal/mol)

>  <smiles>  (12) 
CCN(CC)CCNc1c2ccccc2[n+](C)c2cccc(NC3CCNCC3)c12

>  <score_type>  (12) 
oracle

>  <origin>  (12) 
adg

>  <m_score__min__energy>  (12) 
-5.7999999999999998

>  <m_primary>  (12) 
energy

$$$$
12:0
     RDKit          3D

 50 52  0  0  0  0  0  0  0  0999 V2000
   66.5020   32.0120   50.4890 C   0  0  0  0  0  0  0  0  0  0  0  0
   65.6430   33.0690   49.7840 C   0  0  0  0  0  0  0  0  0  0  0  0
   64.5040   32.4950   49.0180 N   0  0  0  0  0  0  0  0  0  0  0  0
   63.7190   33.5860   48.3800 C   0  0  0  0  0  0  0  0  0  0  0  0
   63.6070   33.4230   46.8600 C   0  0  0  0  0  0  0  0  0  0  0  0
   63.6510   31.5630   49.8120 C   0  0  0  0  0  0  0  0  0  0  0  0
   62.1750   32.0020   49.9870 C   0  0  0  0  0  0  0  0  0  0  0  0
   61.3910   31.6640   48.7960 N   0  0  0  0  0  0  0  0  0  0  0  0
   60.5200   32.6040   48.1410 C   0  0  0  0  0  0  0  0  0  0  0  0
   60.4890   33.9310   48.5900 C   0  0  0  0  0  0  0  0  0  0  0  0
   59.6300   34.8550   48.0080 C   0  0  0  0  0  0  0  0  0  0  0  0
   58.8050   34.4810   46.9530 C   0  0  0  0  0  0  0  0  0  0  0  0
   58.8270   33.1620   46.4370 C   0  0  0  0  0  0  0  0  0  0  0  0
   59.6660   32.2070   47.0790 C   0  0  0  0  0  0  0  0  0  0  0  0
   59.6350   30.8800   46.6330 C   0  0  0  0  0  0  0  0  0  0  0  0
   58.7430   30.4880   45.6410 C   0  0  0  0  0  0  0  0  0  0  0  0
   58.6640   29.1360   45.2680 C   0  0  0  0  0  0  0  0  0  0  0  0
   57.7380   28.7220   44.3130 C   0  0  0  0  0  0  0  0  0  0  0  0
   56.8760   29.6480   43.7330 C   0  0  0  0  0  0  0  0  0  0  0  0
   56.9520   30.9980   44.0840 C   0  0  0  0  0  0  0  0  0  0  0  0
   57.9140   31.4540   45.0220 C   0  0  0  0  0  0  0  0  0  0  0  0
   58.0500   32.7910   45.3510 N   0  0  0  0  0  0  0  0  0  0  0  0
   57.3920   33.8260   44.5220 C   0  0  0  0  0  0  0  0  0  0  0  0
   66.4067   32.1293   51.5786 H   0  0  0  0  0  0  0  0  0  0  0  0
   66.1607   31.0079   50.1970 H   0  0  0  0  0  0  0  0  0  0  0  0
   67.5547   32.1408   50.1970 H   0  0  0  0  0  0  0  0  0  0  0  0
   65.2407   33.7543   50.5446 H   0  0  0  0  0  0  0  0  0  0  0  0
   66.2926   33.5831   49.0603 H   0  0  0  0  0  0  0  0  0  0  0  0
   64.9300   31.9270   48.2480 H   0  0  0  0  0  0  0  0  0  0  0  0
   62.7062   33.5883   48.8093 H   0  0  0  0  0  0  0  0  0  0  0  0
   64.2455   34.5320   48.5749 H   0  0  0  0  0  0  0  0  0  0  0  0
   62.9978   32.5364   46.6302 H   0  0  0  0  0  0  0  0  0  0  0  0
   63.1312   34.3165   46.4295 H   0  0  0  0  0  0  0  0  0  0  0  0
   64.6117   33.2992   46.4295 H   0  0  0  0  0  0  0  0  0  0  0  0
   63.6572   30.5848   49.3089 H   0  0  0  0  0  0  0  0  0  0  0  0
   64.0837   31.5416   50.8231 H   0  0  0  0  0  0  0  0  0  0  0  0
   61.7461   31.4879   50.8598 H   0  0  0  0  0  0  0  0  0  0  0  0
   62.1445   33.0917   50.1338 H   0  0  0  0  0  0  0  0  0  0  0  0
   61.4980   30.7030   48.4020 H   0  0  0  0  0  0  0  0  0  0  0  0
   61.1509   34.2441   49.4109 H   0  0  0  0  0  0  0  0  0  0  0  0
   59.6024   35.8884   48.3840 H   0  0  0  0  0  0  0  0  0  0  0  0
   58.1232   35.2226   46.5113 H   0  0  0  0  0  0  0  0  0  0  0  0
   60.3222   30.1413   47.0712 H   0  0  0  0  0  0  0  0  0  0  0  0
   59.3369   28.4002   45.7325 H   0  0  0  0  0  0  0  0  0  0  0  0
   57.6882   27.6636   44.0175 H   0  0  0  0  0  0  0  0  0  0  0  0
   56.1314   29.3153   42.9948 H   0  0  0  0  0  0  0  0  0  0  0  0
   56.2565   31.7173   43.6269 H   0  0  0  0  0  0  0  0  0  0  0  0
   56.9174   34.5725   45.1759 H   0  0  0  0  0  0  0  0  0  0  0  0
   58.1428   34.3192   43.8871 H   0  0  0  0  0  0  0  0  0  0  0  0
   56.6269   33.3554   43.8871 H   0  0  0  0  0  0  0  0  0  0  0  0
  1  2  1  0
  2  3  1  0
  3  4  1  0
  4  5  1  0
  3  6  1  0
  6  7  1  0
  7  8  1  0
  8  9  1  0
  9 10  2  0
 10 11  1  0
 11 12  2  0
 12 13  1  0
 13 14  2  0
 14 15  1  0
 15 16  2  0
 16 17  1  0
 17 18  2  0
 18 19  1  0
 19 20  2  0
 20 21  1  0
 21 22  2  0
 22 23  1  0
 14  9  1  0
 21 16  1  0
 22 13  1  0
  1 24  1  0
  1 25  1  0
  1 26  1  0
  2 27  1  0
  2 28  1  0
  3 29  1  0
  4 30  1  0
  4 31  1  0
  5 32  1  0
  5 33  1  0
  5 34  1  0
  6 35  1  0
  6 36  1  0
  7 37  1  0
  7 38  1  0
  8 39  1  0
 10 40  1  0
 11 41  1  0
 12 42  1  0
 15 43  1  0
 17 44  1  0
 18 45  1  0
 19 46  1  0
 20 47  1  0
 23 48  1  0
 23 49  1  0
 23 50  1  0
M  CHG  2   3   1  22   1
M  END
>  <UniqueID>  (13) 
13

>  <SMILES>  (13) 
CC[NH+](CC)CCNc1cccc2c1cc1ccccc1[n+]2C

>  <Energy>  (13) 
78.76582383166392

>  <Genealogy>  (13) 
CC[NH+](CC)CCNc1cccc2c1cc1ccccc1[n+]2C (protonated)
CC[NH+](CC)CCNc1cccc2c1cc1ccccc1[n+]2C (3D coordinates assigned)
CC[NH+](CC)CCNc1cccc2c1cc1ccccc1[n+]2C (optimized conformer: 78.76582383166392 kcal/mol)

>  <smiles>  (13) 
CCN(CC)CCNc1cccc2c1cc1ccccc1[n+]2C

>  <score_type>  (13) 
oracle

>  <origin>  (13) 
adg

>  <m_score__min__energy>  (13) 
-4.5800000000000001

>  <m_primary>  (13) 
energy

$$$$
13:0
     RDKit          3D

 22 23  0  0  0  0  0  0  0  0999 V2000
   57.4830   28.4570   43.7270 C   0  0  0  0  0  0  0  0  0  0  0  0
   56.4110   29.7330   42.9960 S   0  0  0  0  0  0  0  0  0  0  0  0
   57.1550   31.0600   43.9480 C   0  0  0  0  0  0  0  0  0  0  0  0
   57.0230   31.1470   45.2970 N   0  0  0  0  0  0  0  0  0  0  0  0
   57.6860   32.2810   45.5900 C   0  0  0  0  0  0  0  0  0  0  0  0
   57.8510   32.8670   46.8430 C   0  0  0  0  0  0  0  0  0  0  0  0
   58.5620   34.0800   46.9110 C   0  0  0  0  0  0  0  0  0  0  0  0
   59.0790   34.6720   45.7370 C   0  0  0  0  0  0  0  0  0  0  0  0
   58.8940   34.0560   44.4840 C   0  0  0  0  0  0  0  0  0  0  0  0
   58.1920   32.8500   44.4570 C   0  0  0  0  0  0  0  0  0  0  0  0
   57.8770   32.0760   43.4050 N   0  0  0  0  0  0  0  0  0  0  0  0
   58.1320   32.3430   41.9910 C   0  0  0  0  0  0  0  0  0  0  0  0
   57.4310   28.5189   44.8240 H   0  0  0  0  0  0  0  0  0  0  0  0
   57.1453   27.4627   43.3994 H   0  0  0  0  0  0  0  0  0  0  0  0
   58.5207   28.6182   43.3994 H   0  0  0  0  0  0  0  0  0  0  0  0
   57.4395   32.3976   47.7488 H   0  0  0  0  0  0  0  0  0  0  0  0
   58.7160   34.5698   47.8838 H   0  0  0  0  0  0  0  0  0  0  0  0
   59.6304   35.6216   45.8021 H   0  0  0  0  0  0  0  0  0  0  0  0
   59.2878   34.5082   43.5618 H   0  0  0  0  0  0  0  0  0  0  0  0
   58.8890   33.1356   41.8982 H   0  0  0  0  0  0  0  0  0  0  0  0
   58.4990   31.4268   41.5052 H   0  0  0  0  0  0  0  0  0  0  0  0
   57.1999   32.6675   41.5052 H   0  0  0  0  0  0  0  0  0  0  0  0
  1  2  1  0
  2  3  1  0
  3  4  2  0
  4  5  1  0
  5  6  2  0
  6  7  1  0
  7  8  2  0
  8  9  1  0
  9 10  2  0
 10 11  1  0
 11 12  1  0
 11  3  1  0
 10  5  1  0
  1 13  1  0
  1 14  1  0
  1 15  1  0
  6 16  1  0
  7 17  1  0
  8 18  1  0
  9 19  1  0
 12 20  1  0
 12 21  1  0
 12 22  1  0
M  END
>  <UniqueID>  (14) 
14

>  <SMILES>  (14) 
CSc1nc2ccccc2n1C

>  <Energy>  (14) 
55.31605821470331

>  <Genealogy>  (14) 
CSc1nc2ccccc2n1C (3D coordinates assigned)
CSc1nc2ccccc2n1C (optimized conformer: 55.31605821470331 kcal/mol)

>  <smiles>  (14) 
CSc1nc2ccccc2n1C

>  <score_type>  (14) 
oracle

>  <origin>  (14) 
adg

>  <m_score__min__energy>  (14) 
-5.7199999999999998

>  <m_primary>  (14) 
energy

$$$$
14:0
     RDKit          3D

 56 58  0  0  0  0  0  0  0  0999 V2000
   59.2880   22.1840   44.5150 C   0  0  0  0  0  0  0  0  0  0  0  0
   57.8460   21.6940   44.6230 C   0  0  0  0  0  0  0  0  0  0  0  0
   57.0420   22.0620   43.3690 C   0  0  0  0  0  0  0  0  0  0  0  0
   56.5950   23.5300   43.3900 C   0  0  0  0  0  0  0  0  0  0  0  0
   57.0940   24.2120   44.5430 O   0  0  0  0  0  0  0  0  0  0  0  0
   57.2770   25.6000   44.6500 C   0  0  0  0  0  0  0  0  0  0  0  0
   56.7700   26.2480   45.7820 C   0  0  0  0  0  0  0  0  0  0  0  0
   56.9680   27.6190   45.9650 C   0  0  0  0  0  0  0  0  0  0  0  0
   57.6890   28.3590   45.0180 C   0  0  0  0  0  0  0  0  0  0  0  0
   57.9480   29.7950   45.2170 C   0  0  0  0  0  0  0  0  0  0  0  0
   57.0230   30.7290   44.8750 N   0  0  0  0  0  0  0  0  0  0  0  0
   57.5810   31.8780   45.2820 C   0  0  0  0  0  0  0  0  0  0  0  0
   57.0350   33.1570   45.1960 C   0  0  0  0  0  0  0  0  0  0  0  0
   57.7820   34.2250   45.7220 C   0  0  0  0  0  0  0  0  0  0  0  0
   59.0380   33.9900   46.3230 C   0  0  0  0  0  0  0  0  0  0  0  0
   59.5600   32.6860   46.3960 C   0  0  0  0  0  0  0  0  0  0  0  0
   58.8010   31.6460   45.8480 C   0  0  0  0  0  0  0  0  0  0  0  0
   59.0720   30.3250   45.7900 N   0  0  0  0  0  0  0  0  0  0  0  0
   60.3020   29.6390   46.2470 C   0  0  0  0  0  0  0  0  0  0  0  0
   60.2040   29.0920   47.6320 N   0  0  0  0  0  0  0  0  0  0  0  0
   58.9810   29.5760   48.3220 C   0  0  0  0  0  0  0  0  0  0  0  0
   59.2580   30.7390   49.2850 C   0  0  0  0  0  0  0  0  0  0  0  0
   60.3100   27.6090   47.6740 C   0  0  0  0  0  0  0  0  0  0  0  0
   60.5020   27.0000   46.2800 C   0  0  0  0  0  0  0  0  0  0  0  0
   58.1420   27.7290   43.8510 C   0  0  0  0  0  0  0  0  0  0  0  0
   57.9470   26.3570   43.6690 C   0  0  0  0  0  0  0  0  0  0  0  0
   59.7038   22.3253   45.5236 H   0  0  0  0  0  0  0  0  0  0  0  0
   59.8885   21.4395   43.9718 H   0  0  0  0  0  0  0  0  0  0  0  0
   59.3106   23.1403   43.9718 H   0  0  0  0  0  0  0  0  0  0  0  0
   57.8461   20.6004   44.7415 H   0  0  0  0  0  0  0  0  0  0  0  0
   57.3771   22.1772   45.4929 H   0  0  0  0  0  0  0  0  0  0  0  0
   57.6694   21.8934   42.4814 H   0  0  0  0  0  0  0  0  0  0  0  0
   56.1418   21.4305   43.3421 H   0  0  0  0  0  0  0  0  0  0  0  0
   56.9721   24.0317   42.4866 H   0  0  0  0  0  0  0  0  0  0  0  0
   55.4958   23.5562   43.4217 H   0  0  0  0  0  0  0  0  0  0  0  0
   56.2106   25.6729   46.5345 H   0  0  0  0  0  0  0  0  0  0  0  0
   56.5570   28.1188   46.8545 H   0  0  0  0  0  0  0  0  0  0  0  0
   56.0520   33.3253   44.7319 H   0  0  0  0  0  0  0  0  0  0  0  0
   57.3860   35.2497   45.6652 H   0  0  0  0  0  0  0  0  0  0  0  0
   59.6119   34.8323   46.7368 H   0  0  0  0  0  0  0  0  0  0  0  0
   60.5337   32.4900   46.8687 H   0  0  0  0  0  0  0  0  0  0  0  0
   60.5117   28.8068   45.5589 H   0  0  0  0  0  0  0  0  0  0  0  0
   61.1055   30.3902   46.2540 H   0  0  0  0  0  0  0  0  0  0  0  0
   61.0220   29.4930   48.1510 H   0  0  0  0  0  0  0  0  0  0  0  0
   58.2601   29.9133   47.5627 H   0  0  0  0  0  0  0  0  0  0  0  0
   58.5867   28.7404   48.9189 H   0  0  0  0  0  0  0  0  0  0  0  0
   59.1734   30.3839   50.3227 H   0  0  0  0  0  0  0  0  0  0  0  0
   60.2732   31.1251   49.1112 H   0  0  0  0  0  0  0  0  0  0  0  0
   58.5258   31.5413   49.1112 H   0  0  0  0  0  0  0  0  0  0  0  0
   61.1700   27.3334   48.3020 H   0  0  0  0  0  0  0  0  0  0  0  0
   59.3692   27.2158   48.0865 H   0  0  0  0  0  0  0  0  0  0  0  0
   60.8314   25.9551   46.3785 H   0  0  0  0  0  0  0  0  0  0  0  0
   59.5496   27.0339   45.7307 H   0  0  0  0  0  0  0  0  0  0  0  0
   61.2627   27.5740   45.7307 H   0  0  0  0  0  0  0  0  0  0  0  0
   58.6534   28.3170   43.0747 H   0  0  0  0  0  0  0  0  0  0  0  0
   58.3179   25.8668   42.7568 H   0  0  0  0  0  0  0  0  0  0  0  0
  1  2  1  0
  2  3  1  0
  3  4  1  0
  4  5  1  0
  5  6  1  0
  6  7  2  0
  7  8  1  0
  8  9  2  0
  9 10  1  0
 10 11  2  0
 11 12  1  0
 12 13  2  0
 13 14  1  0
 14 15  2  0
 15 16  1  0
 16 17  2  0
 17 18  1  0
 18 19  1  0
 19 20  1  0
 20 21  1  0
 21 22  1  0
 20 23  1  0
 23 24  1  0
  9 25  1  0
 25 26  2  0
 26  6  1  0
 18 10  1  0
 17 12  1  0
  1 27  1  0
  1 28  1  0
  1 29  1  0
  2 30  1  0
  2 31  1  0
  3 32  1  0
  3 33  1  0
  4 34  1  0
  4 35  1  0
  7 36  1  0
  8 37  1  0
 13 38  1  0
 14 39  1  0
 15 40  1  0
 16 41  1  0
 19 42  1  0
 19 43  1  0
 20 44  1  0
 21 45  1  0
 21 46  1  0
 22 47  1  0
 22 48  1  0
 22 49  1  0
 23 50  1  0
 23 51  1  0
 24 52  1  0
 24 53  1  0
 24 54  1  0
 25 55  1  0
 26 56  1  0
M  CHG  1  20   1
M  END
>  <UniqueID>  (15) 
15

>  <SMILES>  (15) 
CCCCOc1ccc(-c2nc3ccccc3n2C[NH+](CC)CC)cc1

>  <Energy>  (15) 
97.34240064133658

>  <Genealogy>  (15) 
CCCCOc1ccc(-c2nc3ccccc3n2C[NH+](CC)CC)cc1 (protonated)
CCCCOc1ccc(-c2nc3ccccc3n2C[NH+](CC)CC)cc1 (3D coordinates assigned)
CCCCOc1ccc(-c2nc3ccccc3n2C[NH+](CC)CC)cc1 (optimized conformer: 97.34240064133658 kcal/mol)

>  <smiles>  (15) 
CCCCOc1ccc(-c2nc3ccccc3n2CN(CC)CC)cc1

>  <score_type>  (15) 
oracle

>  <origin>  (15) 
adg

>  <m_score__min__energy>  (15) 
-5.5099999999999998

>  <m_primary>  (15) 
energy

$$$$
