0:0
     RDKit          3D

 40 42  0  0  0  0  0  0  0  0999 V2000
   59.4810   33.4900   50.7550 C   0  0  0  0  0  0  0  0  0  0  0  0
   59.6120   33.5670   49.3400 O   0  0  0  0  0  0  0  0  0  0  0  0
   60.8350   33.6770   48.6560 C   0  0  0  0  0  0  0  0  0  0  0  0
   62.0070   34.1230   49.3030 C   0  0  0  0  0  0  0  0  0  0  0  0
   63.2150   34.1950   48.6080 C   0  0  0  0  0  0  0  0  0  0  0  0
   63.2740   33.8250   47.2650 C   0  0  0  0  0  0  0  0  0  0  0  0
   62.1230   33.3850   46.6090 C   0  0  0  0  0  0  0  0  0  0  0  0
   60.8950   33.3110   47.2920 C   0  0  0  0  0  0  0  0  0  0  0  0
   59.6920   32.8330   46.5690 C   0  0  0  0  0  0  0  0  0  0  0  0
   59.0910   33.6210   45.5720 C   0  0  0  0  0  0  0  0  0  0  0  0
   57.9780   33.1430   44.8750 C   0  0  0  0  0  0  0  0  0  0  0  0
   57.4680   31.8720   45.1500 C   0  0  0  0  0  0  0  0  0  0  0  0
   58.0620   31.0680   46.1290 C   0  0  0  0  0  0  0  0  0  0  0  0
   57.5400   29.7490   46.3490 N   0  0  0  0  0  0  0  0  0  0  0  0
   56.9430   28.7010   45.1010 S   0  0  0  0  0  0  0  0  0  0  0  0
   57.7240   28.9390   43.8410 O   0  0  0  0  0  0  0  0  0  0  0  0
   55.4980   29.0240   44.8520 O   0  0  0  0  0  0  0  0  0  0  0  0
   57.1570   27.0170   45.5950 C   0  0  0  0  0  0  0  0  0  0  0  0
   58.4520   26.4790   45.6180 C   0  0  0  0  0  0  0  0  0  0  0  0
   58.6690   25.1730   46.0680 C   0  0  0  0  0  0  0  0  0  0  0  0
   57.5940   24.3930   46.4980 C   0  0  0  0  0  0  0  0  0  0  0  0
   57.8110   23.0990   46.9550 O   0  0  0  0  0  0  0  0  0  0  0  0
   56.2960   24.9130   46.4650 C   0  0  0  0  0  0  0  0  0  0  0  0
   56.0720   26.2190   46.0120 C   0  0  0  0  0  0  0  0  0  0  0  0
   54.7700   26.7080   45.9840 O   0  0  0  0  0  0  0  0  0  0  0  0
   59.1640   31.5630   46.8500 C   0  0  0  0  0  0  0  0  0  0  0  0
   60.3362   33.9927   51.2303 H   0  0  0  0  0  0  0  0  0  0  0  0
   58.5476   33.9832   51.0642 H   0  0  0  0  0  0  0  0  0  0  0  0
   59.4579   32.4346   51.0642 H   0  0  0  0  0  0  0  0  0  0  0  0
   61.9682   34.4160   50.3626 H   0  0  0  0  0  0  0  0  0  0  0  0
   64.1230   34.5446   49.1211 H   0  0  0  0  0  0  0  0  0  0  0  0
   64.2288   33.8799   46.7216 H   0  0  0  0  0  0  0  0  0  0  0  0
   62.1765   33.0938   45.5496 H   0  0  0  0  0  0  0  0  0  0  0  0
   59.4978   34.6163   45.3399 H   0  0  0  0  0  0  0  0  0  0  0  0
   57.5018   33.7701   44.1069 H   0  0  0  0  0  0  0  0  0  0  0  0
   56.5945   31.5011   44.5938 H   0  0  0  0  0  0  0  0  0  0  0  0
   59.3028   27.0886   45.2797 H   0  0  0  0  0  0  0  0  0  0  0  0
   59.6882   24.7596   46.0832 H   0  0  0  0  0  0  0  0  0  0  0  0
   55.4488   24.2943   46.7958 H   0  0  0  0  0  0  0  0  0  0  0  0
   59.6166   30.9485   47.6422 H   0  0  0  0  0  0  0  0  0  0  0  0
  1  2  1  0
  2  3  1  0
  3  4  2  0
  4  5  1  0
  5  6  2  0
  6  7  1  0
  7  8  2  0
  8  9  1  0
  9 10  2  0
 10 11  1  0
 11 12  2  0
 12 13  1  0
 13 14  1  0
 14 15  1  0
 15 16  2  0
 15 17  2  0
 15 18  1  0
 18 19  2  0
 19 20  1  0
 20 21  2  0
 21 22  1  0
 21 23  1  0
 23 24  2  0
 24 25  1  0
 13 26  2  0
  8  3  1  0
 26  9  1  0
 24 18  1  0
  1 27  1  0
  1 28  1  0
  1 29  1  0
  4 30  1  0
  5 31  1  0
  6 32  1  0
  7 33  1  0
 10 34  1  0
 11 35  1  0
 12 36  1  0
 19 37  1  0
 20 38  1  0
 23 39  1  0
 26 40  1  0
M  CHG  3  14  -1  22  -1  25  -1
M  END
>  <UniqueID>  (1) 
1

>  <SMILES>  (1) 
COc1ccccc1-c1cccc([N-]S(=O)(=O)c2ccc([O-])cc2[O-])c1

>  <Energy>  (1) 
52.03675246408959

>  <Genealogy>  (1) 
COc1ccccc1-c1cccc([N-]S(=O)(=O)c2ccc([O-])cc2[O-])c1 (protonated)
COc1ccccc1-c1cccc([N-]S(=O)(=O)c2ccc([O-])cc2[O-])c1 (3D coordinates assigned)
COc1ccccc1-c1cccc([N-]S(=O)(=O)c2ccc([O-])cc2[O-])c1 (optimized conformer: 52.03675246408959 kcal/mol)

>  <smiles>  (1) 
COc1ccccc1-c1cccc(NS(=O)(=O)c2ccc(O)cc2O)c1

>  <score_type>  (1) 
oracle

>  <origin>  (1) 
adg

>  <m_score__min__energy>  (1) 
-15.92

>  <m_primary>  (1) 
energy

$$$$
1:0
     RDKit          3D

 64 66  0  0  0  0  0  0  0  0999 V2000
   60.3460   34.1490   49.4520 C   0  0  0  0  0  0  0  0  0  0  0  0
   59.3010   33.1730   48.8960 C   0  0  0  0  0  0  0  0  0  0  0  0
   58.8180   33.5590   47.5430 N   0  0  0  0  0  0  0  0  0  0  0  0
   59.9640   34.0580   46.7360 C   0  0  0  0  0  0  0  0  0  0  0  0
   59.6240   35.3430   45.9690 C   0  0  0  0  0  0  0  0  0  0  0  0
   58.1340   32.4170   46.8610 C   0  0  0  0  0  0  0  0  0  0  0  0
   57.8730   32.6850   45.3670 C   0  0  0  0  0  0  0  0  0  0  0  0
   58.1000   31.4510   44.5790 N   0  0  0  0  0  0  0  0  0  0  0  0
   57.8630   31.6140   43.1150 C   0  0  0  0  0  0  0  0  0  0  0  0
   56.6510   30.8220   42.6020 C   0  0  0  0  0  0  0  0  0  0  0  0
   56.7860   29.3210   42.9170 C   0  0  0  0  0  0  0  0  0  0  0  0
   57.5090   29.0590   44.2630 C   0  0  2  0  0  0  0  0  0  0  0  0
   57.0290   27.7620   44.9470 C   0  0  0  0  0  0  0  0  0  0  0  0
   57.1320   27.8290   46.4080 N   0  0  0  0  0  0  0  0  0  0  0  0
   58.2930   27.5450   47.2010 C   0  0  0  0  0  0  0  0  0  0  0  0
   58.3900   26.4130   47.7450 O   0  0  0  0  0  0  0  0  0  0  0  0
   59.3530   28.5470   47.4430 C   0  0  0  0  0  0  0  0  0  0  0  0
   59.6310   28.9640   48.7540 C   0  0  0  0  0  0  0  0  0  0  0  0
   60.6130   29.9280   48.9950 C   0  0  0  0  0  0  0  0  0  0  0  0
   61.3460   30.4800   47.9300 C   0  0  0  0  0  0  0  0  0  0  0  0
   62.3840   31.5090   48.1830 C   0  0  0  0  0  0  0  0  0  0  0  0
   62.9760   31.6280   49.4540 C   0  0  0  0  0  0  0  0  0  0  0  0
   63.9590   32.5950   49.6900 C   0  0  0  0  0  0  0  0  0  0  0  0
   64.3550   33.4550   48.6630 C   0  0  0  0  0  0  0  0  0  0  0  0
   63.7730   33.3490   47.3980 C   0  0  0  0  0  0  0  0  0  0  0  0
   62.7930   32.3790   47.1560 C   0  0  0  0  0  0  0  0  0  0  0  0
   61.0850   30.0380   46.6210 C   0  0  0  0  0  0  0  0  0  0  0  0
   60.1030   29.0710   46.3820 C   0  0  0  0  0  0  0  0  0  0  0  0
   57.4120   30.2890   45.1810 C   0  0  0  0  0  0  0  0  0  0  0  0
   60.3211   34.1257   50.5515 H   0  0  0  0  0  0  0  0  0  0  0  0
   61.3461   33.8541   49.1016 H   0  0  0  0  0  0  0  0  0  0  0  0
   60.1201   35.1669   49.1016 H   0  0  0  0  0  0  0  0  0  0  0  0
   59.7516   32.1713   48.8364 H   0  0  0  0  0  0  0  0  0  0  0  0
   58.4358   33.1899   49.5751 H   0  0  0  0  0  0  0  0  0  0  0  0
   58.1630   34.3650   47.6750 H   0  0  0  0  0  0  0  0  0  0  0  0
   60.8086   34.2622   47.4105 H   0  0  0  0  0  0  0  0  0  0  0  0
   60.2164   33.2832   45.9971 H   0  0  0  0  0  0  0  0  0  0  0  0
   59.4102   36.1511   46.6840 H   0  0  0  0  0  0  0  0  0  0  0  0
   60.4773   35.6292   45.3366 H   0  0  0  0  0  0  0  0  0  0  0  0
   58.7408   35.1697   45.3366 H   0  0  0  0  0  0  0  0  0  0  0  0
   58.7676   31.5225   46.9523 H   0  0  0  0  0  0  0  0  0  0  0  0
   57.1578   32.2765   47.3481 H   0  0  0  0  0  0  0  0  0  0  0  0
   56.8323   33.0152   45.2334 H   0  0  0  0  0  0  0  0  0  0  0  0
   58.5628   33.4669   45.0165 H   0  0  0  0  0  0  0  0  0  0  0  0
   57.6966   32.6809   42.9053 H   0  0  0  0  0  0  0  0  0  0  0  0
   58.7505   31.2221   42.5965 H   0  0  0  0  0  0  0  0  0  0  0  0
   55.7410   31.2084   43.0842 H   0  0  0  0  0  0  0  0  0  0  0  0
   56.5958   30.9428   41.5100 H   0  0  0  0  0  0  0  0  0  0  0  0
   55.7799   28.8789   42.9652 H   0  0  0  0  0  0  0  0  0  0  0  0
   57.3905   28.8653   42.1189 H   0  0  0  0  0  0  0  0  0  0  0  0
   58.5748   28.8965   44.0449 H   0  0  0  0  0  0  0  0  0  0  0  0
   55.9776   27.5874   44.6747 H   0  0  0  0  0  0  0  0  0  0  0  0
   57.6763   26.9420   44.6026 H   0  0  0  0  0  0  0  0  0  0  0  0
   59.0727   28.5294   49.5963 H   0  0  0  0  0  0  0  0  0  0  0  0
   60.8140   30.2573   50.0251 H   0  0  0  0  0  0  0  0  0  0  0  0
   62.6638   30.9563   50.2673 H   0  0  0  0  0  0  0  0  0  0  0  0
   64.4204   32.6782   50.6851 H   0  0  0  0  0  0  0  0  0  0  0  0
   65.1262   34.2166   48.8509 H   0  0  0  0  0  0  0  0  0  0  0  0
   64.0849   34.0283   46.5910 H   0  0  0  0  0  0  0  0  0  0  0  0
   62.3401   32.2966   46.1569 H   0  0  0  0  0  0  0  0  0  0  0  0
   61.6569   30.4555   45.7792 H   0  0  0  0  0  0  0  0  0  0  0  0
   59.9187   28.7202   45.3559 H   0  0  0  0  0  0  0  0  0  0  0  0
   56.3523   30.5391   45.3376 H   0  0  0  0  0  0  0  0  0  0  0  0
   57.8960   30.0515   46.1398 H   0  0  0  0  0  0  0  0  0  0  0  0
  1  2  1  0
  2  3  1  0
  3  4  1  0
  4  5  1  0
  3  6  1  0
  6  7  1  0
  7  8  1  0
  8  9  1  0
  9 10  1  0
 10 11  1  0
 11 12  1  0
 12 13  1  0
 13 14  1  0
 14 15  1  0
 15 16  2  0
 15 17  1  0
 17 18  2  0
 18 19  1  0
 19 20  2  0
 20 21  1  0
 21 22  2  0
 22 23  1  0
 23 24  2  0
 24 25  1  0
 25 26  2  0
 20 27  1  0
 27 28  2  0
 12 29  1  0
 29  8  1  0
 28 17  1  0
 26 21  1  0
  1 30  1  0
  1 31  1  0
  1 32  1  0
  2 33  1  0
  2 34  1  0
  3 35  1  0
  4 36  1  0
  4 37  1  0
  5 38  1  0
  5 39  1  0
  5 40  1  0
  6 41  1  0
  6 42  1  0
  7 43  1  0
  7 44  1  0
  9 45  1  0
  9 46  1  0
 10 47  1  0
 10 48  1  0
 11 49  1  0
 11 50  1  0
 12 51  1  6
 13 52  1  0
 13 53  1  0
 18 54  1  0
 19 55  1  0
 22 56  1  0
 23 57  1  0
 24 58  1  0
 25 59  1  0
 26 60  1  0
 27 61  1  0
 28 62  1  0
 29 63  1  0
 29 64  1  0
M  CHG  2   3   1  14  -1
M  END
>  <UniqueID>  (2) 
2

>  <SMILES>  (2) 
CC[NH+](CC)CCN1CCC[C@H](C[N-]C(=O)c2ccc(-c3ccccc3)cc2)C1

>  <Energy>  (2) 
85.06219842353914

>  <Genealogy>  (2) 
CC[NH+](CC)CCN1CCCC(C[N-]C(=O)c2ccc(-c3ccccc3)cc2)C1 (protonated)
CC[NH+](CC)CCN1CCC[C@H](C[N-]C(=O)c2ccc(-c3ccccc3)cc2)C1 (chirality)
CC[NH+](CC)CCN1CCC[C@H](C[N-]C(=O)c2ccc(-c3ccccc3)cc2)C1 (3D coordinates assigned)
CC[NH+](CC)CCN1CCC[C@H](C[N-]C(=O)c2ccc(-c3ccccc3)cc2)C1 (nonaromatic ring conformer: 85.06219842353914 kcal/mol)

>  <smiles>  (2) 
CCN(CC)CCN1CCCC(CNC(=O)c2ccc(-c3ccccc3)cc2)C1

>  <score_type>  (2) 
oracle

>  <origin>  (2) 
adg

>  <m_score__min__energy>  (2) 
-8.2100000000000009

>  <m_primary>  (2) 
energy

$$$$
2:0
     RDKit          3D

 50 51  0  0  1  0  0  0  0  0999 V2000
   59.5740   35.2700   47.0170 C   0  0  0  0  0  0  0  0  0  0  0  0
   60.2940   34.4980   48.0920 C   0  0  0  0  0  0  0  0  0  0  0  0
   61.0020   33.3680   47.5470 N   0  0  0  0  0  0  0  0  0  0  0  0
   62.0500   33.7850   46.6220 C   0  0  0  0  0  0  0  0  0  0  0  0
   63.3800   33.2760   47.1020 C   0  0  0  0  0  0  0  0  0  0  0  0
   60.1950   32.3250   47.0150 C   0  0  0  0  0  0  0  0  0  0  0  0
   58.9290   32.0040   47.7240 C   0  0  0  0  0  0  0  0  0  0  0  0
   57.8170   32.1960   46.8300 N   0  0  0  0  0  0  0  0  0  0  0  0
   57.7660   31.5510   45.7160 C   0  0  0  0  0  0  0  0  0  0  0  0
   57.6660   30.2180   45.7040 N   0  0  0  0  0  0  0  0  0  0  0  0
   57.6160   29.5440   44.5390 C   0  0  0  0  0  0  0  0  0  0  0  0
   57.5040   28.0910   44.5900 C   0  0  0  0  0  0  0  0  0  0  0  0
   57.8550   27.3130   43.4990 C   0  0  0  0  0  0  0  0  0  0  0  0
   57.7680   25.9370   43.5000 C   0  0  0  0  0  0  0  0  0  0  0  0
   57.3130   25.2840   44.6270 C   0  0  0  0  0  0  0  0  0  0  0  0
   57.2490   23.9010   44.5680 O   0  0  0  0  0  0  0  0  0  0  0  0
   56.6490   23.2580   43.4590 C   0  0  0  0  0  0  0  0  0  0  0  0
   56.9520   26.0200   45.7360 C   0  0  0  0  0  0  0  0  0  0  0  0
   57.0510   27.4120   45.7030 C   0  0  0  0  0  0  0  0  0  0  0  0
   57.6700   30.2450   43.3920 N   0  0  0  0  0  0  0  0  0  0  0  0
   57.7710   31.5990   43.3690 C   0  0  0  0  0  0  0  0  0  0  0  0
   57.8230   32.3130   42.0790 C   0  0  0  0  0  0  0  0  0  0  0  0
   57.8230   32.2960   44.5340 C   0  0  0  0  0  0  0  0  0  0  0  0
   57.9290   33.7120   44.5200 C   0  0  0  0  0  0  0  0  0  0  0  0
   58.0030   34.8850   44.5170 N   0  0  0  0  0  0  0  0  0  0  0  0
   58.8941   35.9990   47.4820 H   0  0  0  0  0  0  0  0  0  0  0  0
   60.3079   35.7999   46.3921 H   0  0  0  0  0  0  0  0  0  0  0  0
   58.9943   34.5747   46.3921 H   0  0  0  0  0  0  0  0  0  0  0  0
   61.0138   35.1646   48.5894 H   0  0  0  0  0  0  0  0  0  0  0  0
   59.5467   34.1244   48.8075 H   0  0  0  0  0  0  0  0  0  0  0  0
   61.8404   33.3752   45.6229 H   0  0  0  0  0  0  0  0  0  0  0  0
   62.0764   34.8836   46.5721 H   0  0  0  0  0  0  0  0  0  0  0  0
   63.3951   33.2702   48.2019 H   0  0  0  0  0  0  0  0  0  0  0  0
   63.5382   32.2538   46.7277 H   0  0  0  0  0  0  0  0  0  0  0  0
   64.1802   33.9314   46.7277 H   0  0  0  0  0  0  0  0  0  0  0  0
   59.9328   32.6052   45.9841 H   0  0  0  0  0  0  0  0  0  0  0  0
   60.8091   31.4180   47.1160 H   0  0  0  0  0  0  0  0  0  0  0  0
   58.9524   30.9570   48.0606 H   0  0  0  0  0  0  0  0  0  0  0  0
   58.8181   32.6665   48.5951 H   0  0  0  0  0  0  0  0  0  0  0  0
   58.2195   27.8156   42.5910 H   0  0  0  0  0  0  0  0  0  0  0  0
   58.0595   25.3634   42.6078 H   0  0  0  0  0  0  0  0  0  0  0  0
   55.9392   22.4973   43.8161 H   0  0  0  0  0  0  0  0  0  0  0  0
   56.1141   24.0012   42.8495 H   0  0  0  0  0  0  0  0  0  0  0  0
   57.4274   22.7757   42.8495 H   0  0  0  0  0  0  0  0  0  0  0  0
   56.5880   25.5129   46.6417 H   0  0  0  0  0  0  0  0  0  0  0  0
   56.7582   27.9870   46.5938 H   0  0  0  0  0  0  0  0  0  0  0  0
   57.6380   29.7470   42.4760 H   0  0  0  0  0  0  0  0  0  0  0  0
   57.9018   33.3949   42.2616 H   0  0  0  0  0  0  0  0  0  0  0  0
   58.6988   31.9730   41.5068 H   0  0  0  0  0  0  0  0  0  0  0  0
   56.9072   32.1035   41.5068 H   0  0  0  0  0  0  0  0  0  0  0  0
  1  2  1  0
  2  3  1  0
  3  4  1  0
  4  5  1  0
  3  6  1  0
  6  7  1  0
  7  8  1  0
  8  9  2  0
  9 10  1  0
 10 11  2  0
 11 12  1  0
 12 13  2  0
 13 14  1  0
 14 15  2  0
 15 16  1  0
 16 17  1  0
 15 18  1  0
 18 19  2  0
 11 20  1  0
 20 21  1  0
 21 22  1  0
 21 23  2  0
 23 24  1  0
 24 25  3  0
 23  9  1  0
 19 12  1  0
  1 26  1  0
  1 27  1  0
  1 28  1  0
  2 29  1  0
  2 30  1  0
  4 31  1  0
  4 32  1  0
  5 33  1  0
  5 34  1  0
  5 35  1  0
  6 36  1  0
  6 37  1  0
  7 38  1  0
  7 39  1  0
 13 40  1  0
 14 41  1  0
 17 42  1  0
 17 43  1  0
 17 44  1  0
 18 45  1  0
 19 46  1  0
 20 47  1  0
 22 48  1  0
 22 49  1  0
 22 50  1  0
M  END
>  <smiles>  (3) 
CCN(CC)CCN=c1nc(-c2ccc(OC)cc2)[nH]c(C)c1C#N

>  <score_type>  (3) 
oracle

>  <origin>  (3) 
adg

>  <m_score__min__energy>  (3) 
-6.6200000000000001

>  <m_primary>  (3) 
energy

$$$$
3:0
     RDKit          3D

 35 37  0  0  0  0  0  0  0  0999 V2000
   56.0410   29.7170   43.5280 C   0  0  0  0  0  0  0  0  0  0  0  0
   56.3960   30.0360   44.8690 O   0  0  0  0  0  0  0  0  0  0  0  0
   57.3920   30.9560   45.2330 C   0  0  0  0  0  0  0  0  0  0  0  0
   57.3180   32.3160   44.8780 C   0  0  0  0  0  0  0  0  0  0  0  0
   58.3270   33.2090   45.2620 C   0  0  0  0  0  0  0  0  0  0  0  0
   58.2590   34.5540   44.8760 C   0  0  0  0  0  0  0  0  0  0  0  0
   59.2790   35.4260   45.2440 C   0  0  0  0  0  0  0  0  0  0  0  0
   60.3200   34.9800   45.9920 N   0  0  0  0  0  0  0  0  0  0  0  0
   60.4230   33.6890   46.4080 C   0  0  0  0  0  0  0  0  0  0  0  0
   61.5800   33.3310   47.2560 C   0  0  0  0  0  0  0  0  0  0  0  0
   61.3920   32.9010   48.5810 C   0  0  0  0  0  0  0  0  0  0  0  0
   62.4960   32.5970   49.3850 C   0  0  0  0  0  0  0  0  0  0  0  0
   63.7910   32.7360   48.8790 C   0  0  0  0  0  0  0  0  0  0  0  0
   63.9850   33.1840   47.5690 C   0  0  0  0  0  0  0  0  0  0  0  0
   62.8850   33.4890   46.7620 C   0  0  0  0  0  0  0  0  0  0  0  0
   59.4260   32.7530   46.0280 C   0  0  0  0  0  0  0  0  0  0  0  0
   59.5070   31.3840   46.3540 C   0  0  0  0  0  0  0  0  0  0  0  0
   58.4910   30.4900   45.9670 C   0  0  0  0  0  0  0  0  0  0  0  0
   58.5390   29.1230   46.2910 O   0  0  0  0  0  0  0  0  0  0  0  0
   59.5170   28.2100   45.8060 C   0  0  0  0  0  0  0  0  0  0  0  0
   55.2228   28.9818   43.5303 H   0  0  0  0  0  0  0  0  0  0  0  0
   55.7126   30.6294   43.0087 H   0  0  0  0  0  0  0  0  0  0  0  0
   56.9132   29.2933   43.0087 H   0  0  0  0  0  0  0  0  0  0  0  0
   56.4604   32.6810   44.2939 H   0  0  0  0  0  0  0  0  0  0  0  0
   57.4051   34.9183   44.2860 H   0  0  0  0  0  0  0  0  0  0  0  0
   59.2416   36.4790   44.9280 H   0  0  0  0  0  0  0  0  0  0  0  0
   60.3743   32.8033   48.9868 H   0  0  0  0  0  0  0  0  0  0  0  0
   62.3442   32.2480   50.4171 H   0  0  0  0  0  0  0  0  0  0  0  0
   64.6577   32.4930   49.5113 H   0  0  0  0  0  0  0  0  0  0  0  0
   65.0049   33.2967   47.1726 H   0  0  0  0  0  0  0  0  0  0  0  0
   63.0422   33.8541   45.7363 H   0  0  0  0  0  0  0  0  0  0  0  0
   60.3745   31.0099   46.9175 H   0  0  0  0  0  0  0  0  0  0  0  0
   60.0273   27.7336   46.6560 H   0  0  0  0  0  0  0  0  0  0  0  0
   59.0269   27.4388   45.1935 H   0  0  0  0  0  0  0  0  0  0  0  0
   60.2527   28.7519   45.1935 H   0  0  0  0  0  0  0  0  0  0  0  0
  1  2  1  0
  2  3  1  0
  3  4  2  0
  4  5  1  0
  5  6  2  0
  6  7  1  0
  7  8  2  0
  8  9  1  0
  9 10  1  0
 10 11  2  0
 11 12  1  0
 12 13  2  0
 13 14  1  0
 14 15  2  0
  9 16  2  0
 16 17  1  0
 17 18  2  0
 18 19  1  0
 19 20  1  0
 18  3  1  0
 16  5  1  0
 15 10  1  0
  1 21  1  0
  1 22  1  0
  1 23  1  0
  4 24  1  0
  6 25  1  0
  7 26  1  0
 11 27  1  0
 12 28  1  0
 13 29  1  0
 14 30  1  0
 15 31  1  0
 17 32  1  0
 20 33  1  0
 20 34  1  0
 20 35  1  0
M  END
>  <UniqueID>  (4) 
3

>  <SMILES>  (4) 
COc1cc2ccnc(-c3ccccc3)c2cc1OC

>  <Energy>  (4) 
48.65895186505168

>  <Genealogy>  (4) 
COc1cc2ccnc(-c3ccccc3)c2cc1OC (3D coordinates assigned)
COc1cc2ccnc(-c3ccccc3)c2cc1OC (optimized conformer: 48.65895186505168 kcal/mol)

>  <smiles>  (4) 
COc1cc2ccnc(-c3ccccc3)c2cc1OC

>  <score_type>  (4) 
oracle

>  <origin>  (4) 
adg

>  <m_score__min__energy>  (4) 
-7

>  <m_primary>  (4) 
energy

$$$$
4:0
     RDKit          3D

 39 41  0  0  0  0  0  0  0  0999 V2000
   58.1480   28.2900   45.1810 C   0  0  0  0  0  0  0  0  0  0  0  0
   57.7950   29.7310   45.3210 C   0  0  0  0  0  0  0  0  0  0  0  0
   58.5280   30.6230   46.0140 N   0  0  0  0  0  0  0  0  0  0  0  0
   57.7950   31.7450   45.8590 C   0  0  0  0  0  0  0  0  0  0  0  0
   58.1420   33.0550   46.5100 C   0  0  2  0  0  0  0  0  0  0  0  0
   57.4450   34.2130   45.8030 C   0  0  0  0  0  0  0  0  0  0  0  0
   58.4800   34.7990   44.8610 C   0  0  0  0  0  0  0  0  0  0  0  0
   59.8160   34.1770   45.2590 C   0  0  0  0  0  0  0  0  0  0  0  0
   59.5930   33.2910   46.4130 N   0  0  0  0  0  0  0  0  0  0  0  0
   60.2130   33.7850   47.6680 C   0  0  0  0  0  0  0  0  0  0  0  0
   61.6970   33.5140   47.7740 C   0  0  0  0  0  0  0  0  0  0  0  0
   62.5360   33.0770   46.7600 C   0  0  0  0  0  0  0  0  0  0  0  0
   63.7690   32.8960   47.2670 N   0  0  0  0  0  0  0  0  0  0  0  0
   63.7490   33.1820   48.5590 N   0  0  0  0  0  0  0  0  0  0  0  0
   64.9010   33.0430   49.4460 C   0  0  0  0  0  0  0  0  0  0  0  0
   62.5030   33.5710   48.9070 C   0  0  0  0  0  0  0  0  0  0  0  0
   62.0590   33.8420   50.3150 C   0  0  0  0  0  0  0  0  0  0  0  0
   56.6730   31.5340   45.1380 N   0  0  0  0  0  0  0  0  0  0  0  0
   56.7140   30.2760   44.8200 O   0  0  0  0  0  0  0  0  0  0  0  0
   58.2580   27.8408   46.1791 H   0  0  0  0  0  0  0  0  0  0  0  0
   57.3509   27.7691   44.6303 H   0  0  0  0  0  0  0  0  0  0  0  0
   59.0956   28.1965   44.6303 H   0  0  0  0  0  0  0  0  0  0  0  0
   57.8179   33.0026   47.5598 H   0  0  0  0  0  0  0  0  0  0  0  0
   56.5739   33.8495   45.2381 H   0  0  0  0  0  0  0  0  0  0  0  0
   57.0750   34.9626   46.5180 H   0  0  0  0  0  0  0  0  0  0  0  0
   58.2356   34.5441   43.8192 H   0  0  0  0  0  0  0  0  0  0  0  0
   58.5112   35.8963   44.9311 H   0  0  0  0  0  0  0  0  0  0  0  0
   60.2200   33.5954   44.4172 H   0  0  0  0  0  0  0  0  0  0  0  0
   60.5355   34.9661   45.5230 H   0  0  0  0  0  0  0  0  0  0  0  0
   60.0557   34.8722   47.7259 H   0  0  0  0  0  0  0  0  0  0  0  0
   59.7322   33.2405   48.4941 H   0  0  0  0  0  0  0  0  0  0  0  0
   62.2419   32.9065   45.7138 H   0  0  0  0  0  0  0  0  0  0  0  0
   64.6040   32.5590   46.7390 H   0  0  0  0  0  0  0  0  0  0  0  0
   64.5649   33.0836   50.4926 H   0  0  0  0  0  0  0  0  0  0  0  0
   65.3953   32.0787   49.2567 H   0  0  0  0  0  0  0  0  0  0  0  0
   65.6104   33.8621   49.2567 H   0  0  0  0  0  0  0  0  0  0  0  0
   62.7809   33.4014   51.0183 H   0  0  0  0  0  0  0  0  0  0  0  0
   62.0033   34.9282   50.4792 H   0  0  0  0  0  0  0  0  0  0  0  0
   61.0674   33.3950   50.4792 H   0  0  0  0  0  0  0  0  0  0  0  0
  1  2  1  0
  2  3  2  0
  3  4  1  0
  4  5  1  0
  5  6  1  0
  6  7  1  0
  7  8  1  0
  8  9  1  0
  9 10  1  0
 10 11  1  0
 11 12  1  0
 12 13  2  0
 13 14  1  0
 14 15  1  0
 14 16  1  0
 16 17  1  0
  4 18  2  0
 18 19  1  0
 19  2  1  0
  9  5  1  0
 16 11  2  0
  1 20  1  0
  1 21  1  0
  1 22  1  0
  5 23  1  1
  6 24  1  0
  6 25  1  0
  7 26  1  0
  7 27  1  0
  8 28  1  0
  8 29  1  0
 10 30  1  0
 10 31  1  0
 12 32  1  0
 13 33  1  0
 15 34  1  0
 15 35  1  0
 15 36  1  0
 17 37  1  0
 17 38  1  0
 17 39  1  0
M  CHG  1  13   1
M  END
>  <UniqueID>  (5) 
4

>  <SMILES>  (5) 
Cc1nc([C@@H]2CCCN2Cc2c[nH+]n(C)c2C)no1

>  <Energy>  (5) 
105.65200522183581

>  <Genealogy>  (5) 
Cc1nc(C2CCCN2Cc2c[nH+]n(C)c2C)no1 (protonated)
Cc1nc([C@@H]2CCCN2Cc2c[nH+]n(C)c2C)no1 (chirality)
Cc1nc([C@@H]2CCCN2Cc2c[nH+]n(C)c2C)no1 (3D coordinates assigned)
Cc1nc([C@@H]2CCCN2Cc2c[nH+]n(C)c2C)no1 (nonaromatic ring conformer: 105.65200522183581 kcal/mol)

>  <smiles>  (5) 
Cc1nc(C2CCCN2Cc2cnn(C)c2C)no1

>  <score_type>  (5) 
oracle

>  <origin>  (5) 
adg

>  <m_score__min__energy>  (5) 
-6.6699999999999999

>  <m_primary>  (5) 
energy

$$$$
5:0
     RDKit          3D

 50 53  0  0  0  0  0  0  0  0999 V2000
   57.4340   32.0710   41.5460 C   0  0  0  0  0  0  0  0  0  0  0  0
   57.4380   31.4730   42.8380 O   0  0  0  0  0  0  0  0  0  0  0  0
   57.8180   32.1270   44.0220 C   0  0  0  0  0  0  0  0  0  0  0  0
   57.6500   33.5160   44.1790 C   0  0  0  0  0  0  0  0  0  0  0  0
   57.9910   34.1430   45.3780 C   0  0  0  0  0  0  0  0  0  0  0  0
   58.5180   33.3980   46.4400 C   0  0  0  0  0  0  0  0  0  0  0  0
   58.8420   34.0680   47.7470 C   0  0  0  0  0  0  0  0  0  0  0  0
   60.0340   34.9090   47.5870 N   0  0  0  0  0  0  0  0  0  0  0  0
   61.1040   34.2120   46.8570 C   0  0  0  0  0  0  0  0  0  0  0  0
   62.1910   33.7220   47.7770 C   0  0  0  0  0  0  0  0  0  0  0  0
   63.1360   32.7840   47.3420 C   0  0  0  0  0  0  0  0  0  0  0  0
   64.1210   32.3830   48.1890 N   0  0  0  0  0  0  0  0  0  0  0  0
   64.2090   32.8800   49.4500 C   0  0  0  0  0  0  0  0  0  0  0  0
   63.2730   33.8200   49.8840 C   0  0  0  0  0  0  0  0  0  0  0  0
   62.2870   34.2220   49.0390 N   0  0  0  0  0  0  0  0  0  0  0  0
   58.6810   32.0140   46.2960 C   0  0  0  0  0  0  0  0  0  0  0  0
   58.3540   31.3700   45.0890 C   0  0  0  0  0  0  0  0  0  0  0  0
   58.5630   29.9070   44.9750 C   0  0  0  0  0  0  0  0  0  0  0  0
   59.7540   29.2160   45.1840 C   0  0  0  0  0  0  0  0  0  0  0  0
   59.6340   27.8290   45.0360 C   0  0  0  0  0  0  0  0  0  0  0  0
   58.3430   27.4070   44.7140 C   0  0  0  0  0  0  0  0  0  0  0  0
   57.8890   26.0080   44.4990 C   0  0  0  0  0  0  0  0  0  0  0  0
   57.4490   25.5900   43.2280 C   0  0  0  0  0  0  0  0  0  0  0  0
   57.0210   24.2760   43.0180 C   0  0  0  0  0  0  0  0  0  0  0  0
   57.0280   23.3580   44.0740 C   0  0  0  0  0  0  0  0  0  0  0  0
   56.5860   22.0060   43.8560 C   0  0  0  0  0  0  0  0  0  0  0  0
   56.2320   20.9170   43.6810 N   0  0  0  0  0  0  0  0  0  0  0  0
   57.4650   23.7590   45.3400 C   0  0  0  0  0  0  0  0  0  0  0  0
   57.8930   25.0720   45.5530 C   0  0  0  0  0  0  0  0  0  0  0  0
   57.3650   28.7780   44.6260 S   0  0  0  0  0  0  0  0  0  0  0  0
   57.4267   33.1662   41.6489 H   0  0  0  0  0  0  0  0  0  0  0  0
   58.3342   31.7605   40.9954 H   0  0  0  0  0  0  0  0  0  0  0  0
   56.5380   31.7484   40.9954 H   0  0  0  0  0  0  0  0  0  0  0  0
   57.2459   34.1129   43.3481 H   0  0  0  0  0  0  0  0  0  0  0  0
   57.8451   35.2276   45.4894 H   0  0  0  0  0  0  0  0  0  0  0  0
   57.9921   34.6930   48.0585 H   0  0  0  0  0  0  0  0  0  0  0  0
   59.0356   33.3018   48.5121 H   0  0  0  0  0  0  0  0  0  0  0  0
   60.3870   35.1840   48.5350 H   0  0  0  0  0  0  0  0  0  0  0  0
   60.6701   33.3496   46.3297 H   0  0  0  0  0  0  0  0  0  0  0  0
   61.5536   34.9262   46.1515 H   0  0  0  0  0  0  0  0  0  0  0  0
   63.0816   32.3748   46.3224 H   0  0  0  0  0  0  0  0  0  0  0  0
   65.0113   32.5445   50.1236 H   0  0  0  0  0  0  0  0  0  0  0  0
   63.3327   34.2324   50.9020 H   0  0  0  0  0  0  0  0  0  0  0  0
   59.0700   31.4230   47.1382 H   0  0  0  0  0  0  0  0  0  0  0  0
   60.7007   29.7136   45.4413 H   0  0  0  0  0  0  0  0  0  0  0  0
   60.4789   27.1359   45.1618 H   0  0  0  0  0  0  0  0  0  0  0  0
   57.4421   26.3049   42.3920 H   0  0  0  0  0  0  0  0  0  0  0  0
   56.6781   23.9631   42.0208 H   0  0  0  0  0  0  0  0  0  0  0  0
   57.4719   23.0385   46.1712 H   0  0  0  0  0  0  0  0  0  0  0  0
   58.2362   25.3780   46.5523 H   0  0  0  0  0  0  0  0  0  0  0  0
  1  2  1  0
  2  3  1  0
  3  4  2  0
  4  5  1  0
  5  6  2  0
  6  7  1  0
  7  8  1  0
  8  9  1  0
  9 10  1  0
 10 11  2  0
 11 12  1  0
 12 13  2  0
 13 14  1  0
 14 15  2  0
  6 16  1  0
 16 17  2  0
 17 18  1  0
 18 19  2  0
 19 20  1  0
 20 21  2  0
 21 22  1  0
 22 23  2  0
 23 24  1  0
 24 25  2  0
 25 26  1  0
 26 27  3  0
 25 28  1  0
 28 29  2  0
 21 30  1  0
 17  3  1  0
 30 18  1  0
 15 10  1  0
 29 22  1  0
  1 31  1  0
  1 32  1  0
  1 33  1  0
  4 34  1  0
  5 35  1  0
  7 36  1  0
  7 37  1  0
  8 38  1  0
  9 39  1  0
  9 40  1  0
 11 41  1  0
 13 42  1  0
 14 43  1  0
 16 44  1  0
 19 45  1  0
 20 46  1  0
 23 47  1  0
 24 48  1  0
 28 49  1  0
 29 50  1  0
M  END
>  <UniqueID>  (6) 
5

>  <SMILES>  (6) 
COc1ccc(CNCc2cnccn2)cc1-c1ccc(-c2ccc(C#N)cc2)s1

>  <Energy>  (6) 
86.89231462029869

>  <Genealogy>  (6) 
COc1ccc(CNCc2cnccn2)cc1-c1ccc(-c2ccc(C#N)cc2)s1 (3D coordinates assigned)
COc1ccc(CNCc2cnccn2)cc1-c1ccc(-c2ccc(C#N)cc2)s1 (optimized conformer: 86.89231462029869 kcal/mol)

>  <smiles>  (6) 
COc1ccc(CNCc2cnccn2)cc1-c1ccc(-c2ccc(C#N)cc2)s1

>  <score_type>  (6) 
oracle

>  <origin>  (6) 
adg

>  <m_score__min__energy>  (6) 
-8.6699999999999999

>  <m_primary>  (6) 
energy

$$$$
6:0
     RDKit          3D

 32 33  0  0  0  0  0  0  0  0999 V2000
   60.9220   34.0280   46.4530 C   0  0  0  0  0  0  0  0  0  0  0  0
   59.6690   34.9030   46.4690 C   0  0  0  0  0  0  0  0  0  0  0  0
   58.3910   34.0990   46.7560 C   0  0  0  0  0  0  0  0  0  0  0  0
   57.6370   33.7120   45.4730 C   0  0  0  0  0  0  0  0  0  0  0  0
   58.3960   32.6850   44.6140 C   0  0  2  0  0  0  0  0  0  0  0  0
   58.6740   33.2700   43.3340 O   0  0  0  0  0  0  0  0  0  0  0  0
   58.0340   32.5600   42.3280 C   0  0  0  0  0  0  0  0  0  0  0  0
   58.0880   32.8560   41.1070 O   0  0  0  0  0  0  0  0  0  0  0  0
   57.3390   31.4370   42.8980 C   0  0  0  0  0  0  0  0  0  0  0  0
   56.6370   30.4020   42.2890 C   0  0  0  0  0  0  0  0  0  0  0  0
   56.1490   29.3690   43.1030 C   0  0  0  0  0  0  0  0  0  0  0  0
   56.3930   29.3670   44.4930 C   0  0  0  0  0  0  0  0  0  0  0  0
   55.9010   28.2960   45.2520 O   0  0  0  0  0  0  0  0  0  0  0  0
   56.6960   27.2050   45.7080 C   0  0  0  0  0  0  0  0  0  0  0  0
   57.1260   30.4310   45.0740 C   0  0  0  0  0  0  0  0  0  0  0  0
   57.5620   31.4770   44.2550 C   0  0  0  0  0  0  0  0  0  0  0  0
   61.2315   33.8119   47.4862 H   0  0  0  0  0  0  0  0  0  0  0  0
   60.7039   33.0848   45.9306 H   0  0  0  0  0  0  0  0  0  0  0  0
   61.7324   34.5576   45.9306 H   0  0  0  0  0  0  0  0  0  0  0  0
   59.7850   35.6704   47.2485 H   0  0  0  0  0  0  0  0  0  0  0  0
   59.5632   35.3521   45.4704 H   0  0  0  0  0  0  0  0  0  0  0  0
   58.6661   33.1799   47.2941 H   0  0  0  0  0  0  0  0  0  0  0  0
   57.7240   34.7354   47.3561 H   0  0  0  0  0  0  0  0  0  0  0  0
   56.6642   33.2825   45.7545 H   0  0  0  0  0  0  0  0  0  0  0  0
   57.5246   34.6252   44.8701 H   0  0  0  0  0  0  0  0  0  0  0  0
   59.2779   32.3994   45.2062 H   0  0  0  0  0  0  0  0  0  0  0  0
   56.4696   30.3938   41.2018 H   0  0  0  0  0  0  0  0  0  0  0  0
   55.5689   28.5503   42.6522 H   0  0  0  0  0  0  0  0  0  0  0  0
   56.7051   27.1925   46.8079 H   0  0  0  0  0  0  0  0  0  0  0  0
   56.2724   26.2612   45.3341 H   0  0  0  0  0  0  0  0  0  0  0  0
   57.7242   27.3191   45.3341 H   0  0  0  0  0  0  0  0  0  0  0  0
   57.3484   30.4342   46.1513 H   0  0  0  0  0  0  0  0  0  0  0  0
  1  2  1  0
  2  3  1  0
  3  4  1  0
  4  5  1  0
  5  6  1  0
  6  7  1  0
  7  8  2  0
  7  9  1  0
  9 10  2  0
 10 11  1  0
 11 12  2  0
 12 13  1  0
 13 14  1  0
 12 15  1  0
 15 16  2  0
 16  5  1  0
 16  9  1  0
  1 17  1  0
  1 18  1  0
  1 19  1  0
  2 20  1  0
  2 21  1  0
  3 22  1  0
  3 23  1  0
  4 24  1  0
  4 25  1  0
  5 26  1  1
 10 27  1  0
 11 28  1  0
 14 29  1  0
 14 30  1  0
 14 31  1  0
 15 32  1  0
M  END
>  <UniqueID>  (7) 
6

>  <SMILES>  (7) 
CCCC[C@@H]1OC(=O)c2ccc(OC)cc21

>  <Energy>  (7) 
48.18550207769562

>  <Genealogy>  (7) 
CCCC[C@@H]1OC(=O)c2ccc(OC)cc21 (chirality)
CCCC[C@@H]1OC(=O)c2ccc(OC)cc21 (3D coordinates assigned)
CCCC[C@@H]1OC(=O)c2ccc(OC)cc21 (nonaromatic ring conformer: 48.18550207769562 kcal/mol)

>  <smiles>  (7) 
CCCCC1OC(=O)c2ccc(OC)cc21

>  <score_type>  (7) 
oracle

>  <origin>  (7) 
adg

>  <m_score__min__energy>  (7) 
-6.04

>  <m_primary>  (7) 
energy

$$$$
7:0
     RDKit          3D

 38 39  0  0  0  0  0  0  0  0999 V2000
   59.0760   25.5810   46.2870 C   0  0  0  0  0  0  0  0  0  0  0  0
   58.6470   26.9520   45.9680 N   0  0  0  0  0  0  0  0  0  0  0  0
   59.3310   27.9660   46.8040 C   0  0  0  0  0  0  0  0  0  0  0  0
   58.9330   29.4260   46.5170 C   0  0  0  0  0  0  0  0  0  0  0  0
   59.2320   29.9490   45.0980 C   0  0  0  0  0  0  0  0  0  0  0  0
   58.1980   29.6710   44.0690 N   0  0  2  0  0  0  0  0  0  0  0  0
   57.1530   30.6820   44.0870 C   0  0  0  0  0  0  0  0  0  0  0  0
   56.0400   30.4140   44.5190 O   0  0  0  0  0  0  0  0  0  0  0  0
   57.4200   32.0800   43.5930 C   0  0  0  0  0  0  0  0  0  0  0  0
   57.9020   32.9420   44.7280 C   0  0  0  0  0  0  0  0  0  0  0  0
   58.8740   33.9300   44.5030 C   0  0  0  0  0  0  0  0  0  0  0  0
   59.3550   34.7000   45.5660 C   0  0  0  0  0  0  0  0  0  0  0  0
   58.8750   34.4840   46.8610 C   0  0  0  0  0  0  0  0  0  0  0  0
   57.9150   33.4940   47.0940 C   0  0  0  0  0  0  0  0  0  0  0  0
   57.4330   32.7220   46.0340 C   0  0  0  0  0  0  0  0  0  0  0  0
   57.6070   28.3050   44.0690 C   0  0  0  0  0  0  0  0  0  0  0  0
   58.5900   27.1950   44.5030 C   0  0  0  0  0  0  0  0  0  0  0  0
   59.1158   25.4540   47.3789 H   0  0  0  0  0  0  0  0  0  0  0  0
   58.3593   24.8639   45.8603 H   0  0  0  0  0  0  0  0  0  0  0  0
   60.0736   25.4003   45.8603 H   0  0  0  0  0  0  0  0  0  0  0  0
   59.1002   27.7508   47.8578 H   0  0  0  0  0  0  0  0  0  0  0  0
   60.4019   27.8879   46.5652 H   0  0  0  0  0  0  0  0  0  0  0  0
   57.8501   29.5177   46.6867 H   0  0  0  0  0  0  0  0  0  0  0  0
   59.5516   30.0366   47.1911 H   0  0  0  0  0  0  0  0  0  0  0  0
   59.3586   31.0399   45.1614 H   0  0  0  0  0  0  0  0  0  0  0  0
   60.1315   29.4092   44.7671 H   0  0  0  0  0  0  0  0  0  0  0  0
   58.7060   29.7620   43.1570 H   0  0  0  0  0  0  0  0  0  0  0  0
   58.1891   32.0483   42.8072 H   0  0  0  0  0  0  0  0  0  0  0  0
   56.4898   32.5039   43.1867 H   0  0  0  0  0  0  0  0  0  0  0  0
   59.2585   34.0988   43.4863 H   0  0  0  0  0  0  0  0  0  0  0  0
   60.1121   35.4768   45.3832 H   0  0  0  0  0  0  0  0  0  0  0  0
   59.2521   35.0923   47.6963 H   0  0  0  0  0  0  0  0  0  0  0  0
   57.5389   33.3229   48.1134 H   0  0  0  0  0  0  0  0  0  0  0  0
   56.6836   31.9391   46.2226 H   0  0  0  0  0  0  0  0  0  0  0  0
   56.7510   28.2985   44.7598 H   0  0  0  0  0  0  0  0  0  0  0  0
   57.3157   28.0843   43.0315 H   0  0  0  0  0  0  0  0  0  0  0  0
   58.2871   26.2584   44.0121 H   0  0  0  0  0  0  0  0  0  0  0  0
   59.5929   27.5355   44.2060 H   0  0  0  0  0  0  0  0  0  0  0  0
  1  2  1  0
  2  3  1  0
  3  4  1  0
  4  5  1  0
  5  6  1  0
  6  7  1  0
  7  8  2  0
  7  9  1  0
  9 10  1  0
 10 11  2  0
 11 12  1  0
 12 13  2  0
 13 14  1  0
 14 15  2  0
  6 16  1  0
 16 17  1  0
 17  2  1  0
 15 10  1  0
  1 18  1  0
  1 19  1  0
  1 20  1  0
  3 21  1  0
  3 22  1  0
  4 23  1  0
  4 24  1  0
  5 25  1  0
  5 26  1  0
  6 27  1  6
  9 28  1  0
  9 29  1  0
 11 30  1  0
 12 31  1  0
 13 32  1  0
 14 33  1  0
 15 34  1  0
 16 35  1  0
 16 36  1  0
 17 37  1  0
 17 38  1  0
M  CHG  1   6   1
M  END
>  <UniqueID>  (8) 
7

>  <SMILES>  (8) 
CN1CCC[N@H+](C(=O)Cc2ccccc2)CC1

>  <Energy>  (8) 
57.69785806223838

>  <Genealogy>  (8) 
CN1CCC[NH+](C(=O)Cc2ccccc2)CC1 (protonated)
CN1CCC[N@H+](C(=O)Cc2ccccc2)CC1 (chirality)
CN1CCC[N@H+](C(=O)Cc2ccccc2)CC1 (3D coordinates assigned)
CN1CCC[N@H+](C(=O)Cc2ccccc2)CC1 (nonaromatic ring conformer: 57.69785806223838 kcal/mol)

>  <smiles>  (8) 
CN1CCCN(C(=O)Cc2ccccc2)CC1

>  <score_type>  (8) 
oracle

>  <origin>  (8) 
adg

>  <m_score__min__energy>  (8) 
-3.5699999999999998

>  <m_primary>  (8) 
energy

$$$$
8:0
     RDKit          3D

 64 68  0  0  0  0  0  0  0  0999 V2000
   60.0020   34.9300   48.0170 C   0  0  0  0  0  0  0  0  0  0  0  0
   60.6980   33.9460   48.9510 C   0  0  0  0  0  0  0  0  0  0  0  0
   59.7140   33.3220   49.9130 C   0  0  0  0  0  0  0  0  0  0  0  0
   59.8530   33.5780   51.2870 C   0  0  0  0  0  0  0  0  0  0  0  0
   58.9820   32.9970   52.2110 C   0  0  0  0  0  0  0  0  0  0  0  0
   57.9620   32.1380   51.7830 C   0  0  0  0  0  0  0  0  0  0  0  0
   57.0650   31.5470   52.7410 N   0  0  0  0  0  0  0  0  0  0  0  0
   57.4010   31.5950   54.1670 C   0  0  0  0  0  0  0  0  0  0  0  0
   56.7030   30.4480   54.9030 C   0  0  0  0  0  0  0  0  0  0  0  0
   55.3160   30.4400   54.6230 O   0  0  0  0  0  0  0  0  0  0  0  0
   55.1100   30.1550   53.2510 C   0  0  0  0  0  0  0  0  0  0  0  0
   55.6710   31.2770   52.3730 C   0  0  0  0  0  0  0  0  0  0  0  0
   57.8300   31.8610   50.4140 C   0  0  0  0  0  0  0  0  0  0  0  0
   58.6930   32.4480   49.4770 C   0  0  0  0  0  0  0  0  0  0  0  0
   58.4970   32.1650   48.0850 N   0  0  0  0  0  0  0  0  0  0  0  0
   57.8030   33.1410   47.2400 C   0  0  0  0  0  0  0  0  0  0  0  0
   57.4090   32.4770   45.9170 C   0  0  0  0  0  0  0  0  0  0  0  0
   58.5940   31.9450   45.1880 N   0  0  0  0  0  0  0  0  0  0  0  0
   58.2190   30.9770   44.1210 C   0  0  0  0  0  0  0  0  0  0  0  0
   57.7040   29.6340   44.6240 C   0  0  0  0  0  0  0  0  0  0  0  0
   58.6110   28.6260   44.9870 C   0  0  0  0  0  0  0  0  0  0  0  0
   58.1410   27.3930   45.4440 C   0  0  0  0  0  0  0  0  0  0  0  0
   59.0180   26.3490   45.7760 C   0  0  0  0  0  0  0  0  0  0  0  0
   58.5070   25.1290   46.2310 C   0  0  0  0  0  0  0  0  0  0  0  0
   57.1260   24.9500   46.3610 C   0  0  0  0  0  0  0  0  0  0  0  0
   56.2490   25.9890   46.0330 C   0  0  0  0  0  0  0  0  0  0  0  0
   56.7500   27.2110   45.5750 C   0  0  0  0  0  0  0  0  0  0  0  0
   55.9170   28.2010   45.2770 O   0  0  0  0  0  0  0  0  0  0  0  0
   56.3290   29.3840   44.8290 C   0  0  0  0  0  0  0  0  0  0  0  0
   55.4710   30.2810   44.6140 O   0  0  0  0  0  0  0  0  0  0  0  0
   59.6960   31.4600   46.0680 C   0  0  0  0  0  0  0  0  0  0  0  0
   59.2100   31.0450   47.4620 C   0  0  0  0  0  0  0  0  0  0  0  0
   59.4678   35.6853   48.6122 H   0  0  0  0  0  0  0  0  0  0  0  0
   60.7513   35.4260   47.3825 H   0  0  0  0  0  0  0  0  0  0  0  0
   59.2848   34.3887   47.3825 H   0  0  0  0  0  0  0  0  0  0  0  0
   61.1675   33.1521   48.3516 H   0  0  0  0  0  0  0  0  0  0  0  0
   61.4568   34.4914   49.5313 H   0  0  0  0  0  0  0  0  0  0  0  0
   60.6558   34.2427   51.6387 H   0  0  0  0  0  0  0  0  0  0  0  0
   59.0979   33.2156   53.2828 H   0  0  0  0  0  0  0  0  0  0  0  0
   58.4899   31.4982   54.2891 H   0  0  0  0  0  0  0  0  0  0  0  0
   57.0648   32.5543   54.5874 H   0  0  0  0  0  0  0  0  0  0  0  0
   57.1415   29.4925   54.5795 H   0  0  0  0  0  0  0  0  0  0  0  0
   56.8429   30.5873   55.9851 H   0  0  0  0  0  0  0  0  0  0  0  0
   55.6166   29.2118   52.9985 H   0  0  0  0  0  0  0  0  0  0  0  0
   54.0289   30.0699   53.0668 H   0  0  0  0  0  0  0  0  0  0  0  0
   55.6247   30.9721   51.3171 H   0  0  0  0  0  0  0  0  0  0  0  0
   55.0732   32.1882   52.5226 H   0  0  0  0  0  0  0  0  0  0  0  0
   57.0407   31.1756   50.0716 H   0  0  0  0  0  0  0  0  0  0  0  0
   56.8990   33.4965   47.7561 H   0  0  0  0  0  0  0  0  0  0  0  0
   58.4684   33.9938   47.0400 H   0  0  0  0  0  0  0  0  0  0  0  0
   56.7188   31.6468   46.1275 H   0  0  0  0  0  0  0  0  0  0  0  0
   56.9318   33.2383   45.2823 H   0  0  0  0  0  0  0  0  0  0  0  0
   58.9880   32.7690   44.6710 H   0  0  0  0  0  0  0  0  0  0  0  0
   57.4315   31.4358   43.5051 H   0  0  0  0  0  0  0  0  0  0  0  0
   59.1413   30.7631   43.5610 H   0  0  0  0  0  0  0  0  0  0  0  0
   59.6933   28.8076   44.9114 H   0  0  0  0  0  0  0  0  0  0  0  0
   60.1046   26.4897   45.6787 H   0  0  0  0  0  0  0  0  0  0  0  0
   59.1931   24.3082   46.4872 H   0  0  0  0  0  0  0  0  0  0  0  0
   56.7287   23.9899   46.7220 H   0  0  0  0  0  0  0  0  0  0  0  0
   55.1634   25.8443   46.1356 H   0  0  0  0  0  0  0  0  0  0  0  0
   60.1706   30.5909   45.5890 H   0  0  0  0  0  0  0  0  0  0  0  0
   60.4028   32.2925   46.1999 H   0  0  0  0  0  0  0  0  0  0  0  0
   58.5322   30.1833   47.3725 H   0  0  0  0  0  0  0  0  0  0  0  0
   60.0741   30.7690   48.0843 H   0  0  0  0  0  0  0  0  0  0  0  0
  1  2  1  0
  2  3  1  0
  3  4  2  0
  4  5  1  0
  5  6  2  0
  6  7  1  0
  7  8  1  0
  8  9  1  0
  9 10  1  0
 10 11  1  0
 11 12  1  0
  6 13  1  0
 13 14  2  0
 14 15  1  0
 15 16  1  0
 16 17  1  0
 17 18  1  0
 18 19  1  0
 19 20  1  0
 20 21  2  0
 21 22  1  0
 22 23  2  0
 23 24  1  0
 24 25  2  0
 25 26  1  0
 26 27  2  0
 27 28  1  0
 28 29  1  0
 29 30  2  0
 18 31  1  0
 31 32  1  0
 14  3  1  0
 32 15  1  0
 12  7  1  0
 29 20  1  0
 27 22  1  0
  1 33  1  0
  1 34  1  0
  1 35  1  0
  2 36  1  0
  2 37  1  0
  4 38  1  0
  5 39  1  0
  8 40  1  0
  8 41  1  0
  9 42  1  0
  9 43  1  0
 11 44  1  0
 11 45  1  0
 12 46  1  0
 12 47  1  0
 13 48  1  0
 16 49  1  0
 16 50  1  0
 17 51  1  0
 17 52  1  0
 18 53  1  0
 19 54  1  0
 19 55  1  0
 21 56  1  0
 23 57  1  0
 24 58  1  0
 25 59  1  0
 26 60  1  0
 31 61  1  0
 31 62  1  0
 32 63  1  0
 32 64  1  0
M  CHG  1  18   1
M  END
>  <UniqueID>  (9) 
8

>  <SMILES>  (9) 
CCc1ccc(N2CCOCC2)cc1N1CC[NH+](Cc2cc3ccccc3oc2=O)CC1

>  <Energy>  (9) 
92.45000808007448

>  <Genealogy>  (9) 
CCc1ccc(N2CCOCC2)cc1N1CC[NH+](Cc2cc3ccccc3oc2=O)CC1 (protonated)
CCc1ccc(N2CCOCC2)cc1N1CC[NH+](Cc2cc3ccccc3oc2=O)CC1 (3D coordinates assigned)
CCc1ccc(N2CCOCC2)cc1N1CC[NH+](Cc2cc3ccccc3oc2=O)CC1 (nonaromatic ring conformer: 92.45000808007448 kcal/mol)

>  <smiles>  (9) 
CCc1ccc(N2CCOCC2)cc1N1CCN(Cc2cc3ccccc3oc2=O)CC1

>  <score_type>  (9) 
oracle

>  <origin>  (9) 
adg

>  <m_score__min__energy>  (9) 
-7.4199999999999999

>  <m_primary>  (9) 
energy

$$$$
9:0
     RDKit          3D

 55 57  0  0  0  0  0  0  0  0999 V2000
   56.2410   24.1340   47.1680 C   0  0  0  0  0  0  0  0  0  0  0  0
   57.3960   24.9150   47.7880 C   0  0  0  0  0  0  0  0  0  0  0  0
   57.7170   26.0990   46.9590 N   0  0  0  0  0  0  0  0  0  0  0  0
   56.9140   26.1140   45.7140 C   0  0  0  0  0  0  0  0  0  0  0  0
   57.7520   25.6170   44.5400 C   0  0  0  0  0  0  0  0  0  0  0  0
   59.1660   26.1630   46.6590 C   0  0  0  0  0  0  0  0  0  0  0  0
   59.6160   27.6230   46.5410 C   0  0  0  0  0  0  0  0  0  0  0  0
   58.5200   28.5320   46.8720 N   0  0  0  0  0  0  0  0  0  0  0  0
   58.4530   29.8600   46.3270 C   0  0  0  0  0  0  0  0  0  0  0  0
   57.8810   30.0730   45.0640 C   0  0  0  0  0  0  0  0  0  0  0  0
   57.4750   28.9900   44.2560 C   0  0  0  0  0  0  0  0  0  0  0  0
   56.8770   29.2140   43.0160 C   0  0  0  0  0  0  0  0  0  0  0  0
   56.6780   30.5140   42.5630 C   0  0  0  0  0  0  0  0  0  0  0  0
   57.0670   31.5990   43.3500 C   0  0  0  0  0  0  0  0  0  0  0  0
   57.6680   31.4000   44.6160 C   0  0  0  0  0  0  0  0  0  0  0  0
   58.0300   32.4640   45.4150 N   0  0  0  0  0  0  0  0  0  0  0  0
   57.3410   33.7590   45.2280 C   0  0  0  0  0  0  0  0  0  0  0  0
   58.8690   32.2620   46.4990 C   0  0  0  0  0  0  0  0  0  0  0  0
   59.6330   33.3160   47.1000 C   0  0  0  0  0  0  0  0  0  0  0  0
   59.9690   34.5840   46.3410 C   0  0  0  0  0  0  0  0  0  0  0  0
   60.2230   33.1080   48.3720 C   0  0  0  0  0  0  0  0  0  0  0  0
   60.9280   34.2150   49.1160 C   0  0  0  0  0  0  0  0  0  0  0  0
   60.2420   31.8260   48.9230 C   0  0  0  0  0  0  0  0  0  0  0  0
   59.6820   30.7540   48.2420 C   0  0  0  0  0  0  0  0  0  0  0  0
   58.9940   30.9520   47.0330 C   0  0  0  0  0  0  0  0  0  0  0  0
   55.6144   23.7103   47.9666 H   0  0  0  0  0  0  0  0  0  0  0  0
   55.6349   24.8084   46.5452 H   0  0  0  0  0  0  0  0  0  0  0  0
   56.6411   23.3203   46.5452 H   0  0  0  0  0  0  0  0  0  0  0  0
   57.1106   25.2452   48.7977 H   0  0  0  0  0  0  0  0  0  0  0  0
   58.2811   24.2641   47.8415 H   0  0  0  0  0  0  0  0  0  0  0  0
   56.0387   25.4595   45.8384 H   0  0  0  0  0  0  0  0  0  0  0  0
   56.5869   27.1443   45.5105 H   0  0  0  0  0  0  0  0  0  0  0  0
   58.6398   25.0905   44.9202 H   0  0  0  0  0  0  0  0  0  0  0  0
   57.1520   24.9286   43.9267 H   0  0  0  0  0  0  0  0  0  0  0  0
   58.0683   26.4736   43.9267 H   0  0  0  0  0  0  0  0  0  0  0  0
   59.7270   25.6738   47.4689 H   0  0  0  0  0  0  0  0  0  0  0  0
   59.3591   25.6489   45.7059 H   0  0  0  0  0  0  0  0  0  0  0  0
   60.4526   27.7996   47.2330 H   0  0  0  0  0  0  0  0  0  0  0  0
   59.9305   27.8125   45.5041 H   0  0  0  0  0  0  0  0  0  0  0  0
   57.7810   28.2240   47.5440 H   0  0  0  0  0  0  0  0  0  0  0  0
   57.6315   27.9594   44.6072 H   0  0  0  0  0  0  0  0  0  0  0  0
   56.5624   28.3618   42.3957 H   0  0  0  0  0  0  0  0  0  0  0  0
   56.2126   30.6874   41.5815 H   0  0  0  0  0  0  0  0  0  0  0  0
   56.9043   32.6226   42.9815 H   0  0  0  0  0  0  0  0  0  0  0  0
   57.1086   34.1959   46.2104 H   0  0  0  0  0  0  0  0  0  0  0  0
   57.9939   34.4441   44.6672 H   0  0  0  0  0  0  0  0  0  0  0  0
   56.4081   33.6004   44.6672 H   0  0  0  0  0  0  0  0  0  0  0  0
   60.1833   35.3928   47.0550 H   0  0  0  0  0  0  0  0  0  0  0  0
   60.8520   34.4097   45.7085 H   0  0  0  0  0  0  0  0  0  0  0  0
   59.1156   34.8698   45.7085 H   0  0  0  0  0  0  0  0  0  0  0  0
   60.8246   34.0527   50.1990 H   0  0  0  0  0  0  0  0  0  0  0  0
   61.9943   34.2173   48.8457 H   0  0  0  0  0  0  0  0  0  0  0  0
   60.4792   35.1822   48.8457 H   0  0  0  0  0  0  0  0  0  0  0  0
   60.7056   31.6634   49.9072 H   0  0  0  0  0  0  0  0  0  0  0  0
   59.7779   29.7383   48.6533 H   0  0  0  0  0  0  0  0  0  0  0  0
  1  2  1  0
  2  3  1  0
  3  4  1  0
  4  5  1  0
  3  6  1  0
  6  7  1  0
  7  8  1  0
  8  9  1  0
  9 10  2  0
 10 11  1  0
 11 12  2  0
 12 13  1  0
 13 14  2  0
 14 15  1  0
 15 16  2  0
 16 17  1  0
 16 18  1  0
 18 19  2  0
 19 20  1  0
 19 21  1  0
 21 22  1  0
 21 23  2  0
 23 24  1  0
 24 25  2  0
 25  9  1  0
 15 10  1  0
 25 18  1  0
  1 26  1  0
  1 27  1  0
  1 28  1  0
  2 29  1  0
  2 30  1  0
  4 31  1  0
  4 32  1  0
  5 33  1  0
  5 34  1  0
  5 35  1  0
  6 36  1  0
  6 37  1  0
  7 38  1  0
  7 39  1  0
  8 40  1  0
 11 41  1  0
 12 42  1  0
 13 43  1  0
 14 44  1  0
 17 45  1  0
 17 46  1  0
 17 47  1  0
 20 48  1  0
 20 49  1  0
 20 50  1  0
 22 51  1  0
 22 52  1  0
 22 53  1  0
 23 54  1  0
 24 55  1  0
M  CHG  1  16   1
M  END
>  <UniqueID>  (10) 
9

>  <SMILES>  (10) 
CCN(CC)CCNc1c2ccccc2[n+](C)c2c(C)c(C)ccc12

>  <Energy>  (10) 
90.2244916728644

>  <Genealogy>  (10) 
CCN(CC)CCNc1c2ccccc2[n+](C)c2c(C)c(C)ccc12 (3D coordinates assigned)
CCN(CC)CCNc1c2ccccc2[n+](C)c2c(C)c(C)ccc12 (optimized conformer: 90.2244916728644 kcal/mol)

>  <smiles>  (10) 
CCN(CC)CCNc1c2ccccc2[n+](C)c2c(C)c(C)ccc12

>  <score_type>  (10) 
oracle

>  <origin>  (10) 
adg

>  <m_score__min__energy>  (10) 
-6.1900000000000004

>  <m_primary>  (10) 
energy

$$$$
10:0
     RDKit          3D

 51 55  0  0  0  0  0  0  0  0999 V2000
   57.3780   34.1960   44.9060 C   0  0  0  0  0  0  0  0  0  0  0  0
   58.3770   34.9610   45.5710 O   0  0  0  0  0  0  0  0  0  0  0  0
   59.3390   34.4230   46.4380 C   0  0  0  0  0  0  0  0  0  0  0  0
   60.2620   33.5080   45.9200 C   0  0  0  0  0  0  0  0  0  0  0  0
   61.2140   32.9140   46.7520 C   0  0  0  0  0  0  0  0  0  0  0  0
   61.2470   33.2200   48.1200 C   0  0  0  0  0  0  0  0  0  0  0  0
   62.2270   32.5970   48.9730 N   0  0  0  0  0  0  0  0  0  0  0  0
   61.9150   31.5150   49.7740 C   0  0  0  0  0  0  0  0  0  0  0  0
   60.5060   30.9330   49.8810 C   0  0  1  0  0  0  0  0  0  0  0  0
   59.4150   32.1360   50.6340 Cl  0  0  0  0  0  0  0  0  0  0  0  0
   60.0040   30.3160   48.5860 C   0  0  0  0  0  0  0  0  0  0  0  0
   60.5150   29.0670   48.1930 C   0  0  0  0  0  0  0  0  0  0  0  0
   60.1260   28.4810   46.9870 C   0  0  0  0  0  0  0  0  0  0  0  0
   59.2130   29.1340   46.1480 C   0  0  0  0  0  0  0  0  0  0  0  0
   58.8400   28.5680   44.9180 C   0  0  0  0  0  0  0  0  0  0  0  0
   57.9420   29.2380   44.0820 C   0  0  0  0  0  0  0  0  0  0  0  0
   57.4100   30.4720   44.4660 C   0  0  0  0  0  0  0  0  0  0  0  0
   57.7710   31.0430   45.6900 C   0  0  0  0  0  0  0  0  0  0  0  0
   58.6720   30.3800   46.5390 C   0  0  0  0  0  0  0  0  0  0  0  0
   59.0580   30.9560   47.7580 C   0  0  0  0  0  0  0  0  0  0  0  0
   62.8870   30.9550   50.5550 N   0  0  0  0  0  0  0  0  0  0  0  0
   64.1650   31.4190   50.5520 C   0  0  0  0  0  0  0  0  0  0  0  0
   65.1430   30.8160   51.3610 C   0  0  0  0  0  0  0  0  0  0  0  0
   66.4550   31.2970   51.3550 C   0  0  0  0  0  0  0  0  0  0  0  0
   66.8000   32.3800   50.5450 C   0  0  0  0  0  0  0  0  0  0  0  0
   65.8340   32.9880   49.7380 C   0  0  0  0  0  0  0  0  0  0  0  0
   64.5090   32.5110   49.7370 C   0  0  0  0  0  0  0  0  0  0  0  0
   63.5070   33.0920   48.9470 C   0  0  0  0  0  0  0  0  0  0  0  0
   63.7900   34.0800   48.2090 O   0  0  0  0  0  0  0  0  0  0  0  0
   60.3620   34.1780   48.6340 C   0  0  0  0  0  0  0  0  0  0  0  0
   59.4030   34.7670   47.8030 C   0  0  0  0  0  0  0  0  0  0  0  0
   56.7359   33.7043   45.6516 H   0  0  0  0  0  0  0  0  0  0  0  0
   56.7669   34.8593   44.2762 H   0  0  0  0  0  0  0  0  0  0  0  0
   57.8590   33.4331   44.2762 H   0  0  0  0  0  0  0  0  0  0  0  0
   60.2379   33.2545   44.8499 H   0  0  0  0  0  0  0  0  0  0  0  0
   61.9409   32.2031   46.3322 H   0  0  0  0  0  0  0  0  0  0  0  0
   60.5299   30.0638   50.5548 H   0  0  0  0  0  0  0  0  0  0  0  0
   61.2309   28.5443   48.8443 H   0  0  0  0  0  0  0  0  0  0  0  0
   60.5374   27.5037   46.6944 H   0  0  0  0  0  0  0  0  0  0  0  0
   59.2550   27.5963   44.6121 H   0  0  0  0  0  0  0  0  0  0  0  0
   57.6531   28.7924   43.1187 H   0  0  0  0  0  0  0  0  0  0  0  0
   56.7052   30.9955   43.8033 H   0  0  0  0  0  0  0  0  0  0  0  0
   57.3484   32.0137   45.9887 H   0  0  0  0  0  0  0  0  0  0  0  0
   58.6194   31.9149   48.0712 H   0  0  0  0  0  0  0  0  0  0  0  0
   62.6470   30.1490   51.1770 H   0  0  0  0  0  0  0  0  0  0  0  0
   64.8749   29.9625   52.0011 H   0  0  0  0  0  0  0  0  0  0  0  0
   67.2171   30.8213   51.9897 H   0  0  0  0  0  0  0  0  0  0  0  0
   67.8338   32.7557   50.5416 H   0  0  0  0  0  0  0  0  0  0  0  0
   66.1097   33.8418   49.1017 H   0  0  0  0  0  0  0  0  0  0  0  0
   60.4218   34.4674   49.6936 H   0  0  0  0  0  0  0  0  0  0  0  0
   58.6963   35.5014   48.2167 H   0  0  0  0  0  0  0  0  0  0  0  0
  1  2  1  0
  2  3  1  0
  3  4  2  0
  4  5  1  0
  5  6  2  0
  6  7  1  0
  7  8  1  0
  8  9  1  0
  9 10  1  0
  9 11  1  0
 11 12  2  0
 12 13  1  0
 13 14  2  0
 14 15  1  0
 15 16  2  0
 16 17  1  0
 17 18  2  0
 18 19  1  0
 19 20  2  0
  8 21  2  0
 21 22  1  0
 22 23  2  0
 23 24  1  0
 24 25  2  0
 25 26  1  0
 26 27  2  0
 27 28  1  0
 28 29  2  0
  6 30  1  0
 30 31  2  0
 31  3  1  0
 28  7  1  0
 20 11  1  0
 27 22  1  0
 19 14  1  0
  1 32  1  0
  1 33  1  0
  1 34  1  0
  4 35  1  0
  5 36  1  0
  9 37  1  1
 12 38  1  0
 13 39  1  0
 15 40  1  0
 16 41  1  0
 17 42  1  0
 18 43  1  0
 20 44  1  0
 21 45  1  0
 23 46  1  0
 24 47  1  0
 25 48  1  0
 26 49  1  0
 30 50  1  0
 31 51  1  0
M  CHG  1  21   1
M  END
>  <UniqueID>  (11) 
10

>  <SMILES>  (11) 
COc1ccc(-n2c([C@@H](Cl)c3ccc4ccccc4c3)[nH+]c3ccccc3c2=O)cc1

>  <Energy>  (11) 
76.57898273795055

>  <Genealogy>  (11) 
COc1ccc(-n2c(C(Cl)c3ccc4ccccc4c3)[nH+]c3ccccc3c2=O)cc1 (protonated)
COc1ccc(-n2c([C@@H](Cl)c3ccc4ccccc4c3)[nH+]c3ccccc3c2=O)cc1 (chirality)
COc1ccc(-n2c([C@@H](Cl)c3ccc4ccccc4c3)[nH+]c3ccccc3c2=O)cc1 (3D coordinates assigned)
COc1ccc(-n2c([C@@H](Cl)c3ccc4ccccc4c3)[nH+]c3ccccc3c2=O)cc1 (optimized conformer: 76.57898273795055 kcal/mol)

>  <smiles>  (11) 
COc1ccc(-n2c(C(Cl)c3ccc4ccccc4c3)nc3ccccc3c2=O)cc1

>  <score_type>  (11) 
oracle

>  <origin>  (11) 
adg

>  <m_score__min__energy>  (11) 
-7.2000000000000002

>  <m_primary>  (11) 
energy

$$$$
11:0
     RDKit          3D

 50 53  0  0  0  0  0  0  0  0999 V2000
   66.8570   33.2950   50.5080 C   0  0  0  0  0  0  0  0  0  0  0  0
   65.5960   33.8300   50.1140 O   0  0  0  0  0  0  0  0  0  0  0  0
   64.5600   33.0760   49.5400 C   0  0  0  0  0  0  0  0  0  0  0  0
   64.0700   33.3290   48.2420 C   0  0  0  0  0  0  0  0  0  0  0  0
   63.0290   32.5530   47.7170 C   0  0  0  0  0  0  0  0  0  0  0  0
   62.4720   31.5120   48.4740 C   0  0  0  0  0  0  0  0  0  0  0  0
   61.1170   30.5800   47.8410 S   0  0  0  0  0  0  0  0  0  0  0  0
   61.3360   30.3140   46.3770 O   0  0  0  0  0  0  0  0  0  0  0  0
   61.0100   29.2650   48.5660 O   0  0  0  0  0  0  0  0  0  0  0  0
   59.6520   31.4810   48.0440 N   0  0  0  0  0  0  0  0  0  0  0  0
   59.0670   32.1690   46.9400 C   0  0  0  0  0  0  0  0  0  0  0  0
   59.1700   33.5650   46.8850 C   0  0  0  0  0  0  0  0  0  0  0  0
   58.5470   34.2790   45.8630 C   0  0  0  0  0  0  0  0  0  0  0  0
   57.8150   33.6020   44.8840 C   0  0  0  0  0  0  0  0  0  0  0  0
   57.7040   32.2090   44.9290 C   0  0  0  0  0  0  0  0  0  0  0  0
   58.3280   31.4740   45.9520 C   0  0  0  0  0  0  0  0  0  0  0  0
   58.1830   29.9980   45.9740 C   0  0  0  0  0  0  0  0  0  0  0  0
   58.8320   29.1850   46.8420 N   0  0  0  0  0  0  0  0  0  0  0  0
   58.5240   27.8670   46.6740 C   0  0  0  0  0  0  0  0  0  0  0  0
   59.1840   26.8060   47.5030 C   0  0  0  0  0  0  0  0  0  0  0  0
   57.5760   27.6190   45.6700 C   0  0  0  0  0  0  0  0  0  0  0  0
   57.0180   26.3160   45.2470 C   0  0  0  0  0  0  0  0  0  0  0  0
   57.5650   25.6460   44.1390 C   0  0  0  0  0  0  0  0  0  0  0  0
   57.0390   24.4170   43.7260 C   0  0  0  0  0  0  0  0  0  0  0  0
   55.9570   23.8510   44.4110 C   0  0  0  0  0  0  0  0  0  0  0  0
   55.3940   24.5190   45.5020 C   0  0  0  0  0  0  0  0  0  0  0  0
   55.9170   25.7480   45.9190 C   0  0  0  0  0  0  0  0  0  0  0  0
   57.1680   29.0980   44.9730 S   0  0  0  0  0  0  0  0  0  0  0  0
   62.9550   31.2620   49.7660 C   0  0  0  0  0  0  0  0  0  0  0  0
   63.9950   32.0380   50.2930 C   0  0  0  0  0  0  0  0  0  0  0  0
   66.9175   33.2693   51.6060 H   0  0  0  0  0  0  0  0  0  0  0  0
   66.9626   32.2746   50.1110 H   0  0  0  0  0  0  0  0  0  0  0  0
   67.6641   33.9282   50.1110 H   0  0  0  0  0  0  0  0  0  0  0  0
   64.5071   34.1390   47.6396 H   0  0  0  0  0  0  0  0  0  0  0  0
   62.6467   32.7609   46.7067 H   0  0  0  0  0  0  0  0  0  0  0  0
   59.7463   34.1011   47.6534 H   0  0  0  0  0  0  0  0  0  0  0  0
   58.6315   35.3752   45.8271 H   0  0  0  0  0  0  0  0  0  0  0  0
   57.3252   34.1660   44.0765 H   0  0  0  0  0  0  0  0  0  0  0  0
   57.1231   31.6834   44.1568 H   0  0  0  0  0  0  0  0  0  0  0  0
   59.5270   29.5240   47.5450 H   0  0  0  0  0  0  0  0  0  0  0  0
   59.0425   27.0334   48.5699 H   0  0  0  0  0  0  0  0  0  0  0  0
   58.7342   25.8287   47.2736 H   0  0  0  0  0  0  0  0  0  0  0  0
   60.2594   26.7775   47.2736 H   0  0  0  0  0  0  0  0  0  0  0  0
   58.4109   26.0901   43.5938 H   0  0  0  0  0  0  0  0  0  0  0  0
   57.4761   23.8948   42.8621 H   0  0  0  0  0  0  0  0  0  0  0  0
   55.5500   22.8806   44.0905 H   0  0  0  0  0  0  0  0  0  0  0  0
   54.5382   24.0777   46.0338 H   0  0  0  0  0  0  0  0  0  0  0  0
   55.4671   26.2729   46.7746 H   0  0  0  0  0  0  0  0  0  0  0  0
   62.5155   30.4532   50.3682 H   0  0  0  0  0  0  0  0  0  0  0  0
   64.3712   31.8311   51.3058 H   0  0  0  0  0  0  0  0  0  0  0  0
  1  2  1  0
  2  3  1  0
  3  4  2  0
  4  5  1  0
  5  6  2  0
  6  7  1  0
  7  8  2  0
  7  9  2  0
  7 10  1  0
 10 11  1  0
 11 12  2  0
 12 13  1  0
 13 14  2  0
 14 15  1  0
 15 16  2  0
 16 17  1  0
 17 18  2  0
 18 19  1  0
 19 20  1  0
 19 21  2  0
 21 22  1  0
 22 23  2  0
 23 24  1  0
 24 25  2  0
 25 26  1  0
 26 27  2  0
 21 28  1  0
  6 29  1  0
 29 30  2  0
 30  3  1  0
 16 11  1  0
 28 17  1  0
 27 22  1  0
  1 31  1  0
  1 32  1  0
  1 33  1  0
  4 34  1  0
  5 35  1  0
 12 36  1  0
 13 37  1  0
 14 38  1  0
 15 39  1  0
 18 40  1  0
 20 41  1  0
 20 42  1  0
 20 43  1  0
 23 44  1  0
 24 45  1  0
 25 46  1  0
 26 47  1  0
 27 48  1  0
 29 49  1  0
 30 50  1  0
M  CHG  2  10  -1  18   1
M  END
>  <UniqueID>  (12) 
11

>  <SMILES>  (12) 
COc1ccc(S(=O)(=O)[N-]c2ccccc2-c2[nH+]c(C)c(-c3ccccc3)s2)cc1

>  <Energy>  (12) 
99.93458604225992

>  <Genealogy>  (12) 
COc1ccc(S(=O)(=O)[N-]c2ccccc2-c2[nH+]c(C)c(-c3ccccc3)s2)cc1 (protonated)
COc1ccc(S(=O)(=O)[N-]c2ccccc2-c2[nH+]c(C)c(-c3ccccc3)s2)cc1 (3D coordinates assigned)
COc1ccc(S(=O)(=O)[N-]c2ccccc2-c2[nH+]c(C)c(-c3ccccc3)s2)cc1 (optimized conformer: 99.93458604225992 kcal/mol)

>  <smiles>  (12) 
COc1ccc(S(=O)(=O)Nc2ccccc2-c2nc(C)c(-c3ccccc3)s2)cc1

>  <score_type>  (12) 
oracle

>  <origin>  (12) 
adg

>  <m_score__min__energy>  (12) 
-9.0899999999999999

>  <m_primary>  (12) 
energy

$$$$
12:0
     RDKit          3D

 36 38  0  0  0  0  0  0  0  0999 V2000
   56.5930   26.1730   45.9560 C   0  0  0  0  0  0  0  0  0  0  0  0
   55.8760   27.3550   45.6150 O   0  0  0  0  0  0  0  0  0  0  0  0
   56.4710   28.5330   45.1390 C   0  0  0  0  0  0  0  0  0  0  0  0
   55.7360   29.5360   44.4780 C   0  0  0  0  0  0  0  0  0  0  0  0
   56.3760   30.6930   44.0230 C   0  0  0  0  0  0  0  0  0  0  0  0
   57.7550   30.8640   44.2140 C   0  0  0  0  0  0  0  0  0  0  0  0
   58.4360   32.1280   43.7510 C   0  0  0  0  0  0  0  0  0  0  0  0
   58.9210   32.9230   44.9080 N   0  0  2  0  0  0  0  0  0  0  0  0
   58.1360   32.7810   46.1350 C   0  0  1  0  0  0  0  0  0  0  0  0
   58.8880   33.7050   47.1180 C   0  0  0  0  0  0  0  0  0  0  0  0
   59.3270   34.8490   46.1800 C   0  0  0  0  0  0  0  0  0  0  0  0
   58.7480   34.3750   44.8290 C   0  0  2  0  0  0  0  0  0  0  0  0
   57.2200   34.6000   44.8920 C   0  0  0  0  0  0  0  0  0  0  0  0
   56.7820   33.4610   45.8240 C   0  0  0  0  0  0  0  0  0  0  0  0
   58.4850   29.8670   44.8810 C   0  0  0  0  0  0  0  0  0  0  0  0
   57.8460   28.7100   45.3360 C   0  0  0  0  0  0  0  0  0  0  0  0
   56.6488   26.0810   47.0507 H   0  0  0  0  0  0  0  0  0  0  0  0
   56.0741   25.2966   45.5404 H   0  0  0  0  0  0  0  0  0  0  0  0
   57.6099   26.2283   45.5404 H   0  0  0  0  0  0  0  0  0  0  0  0
   54.6550   29.4089   44.3191 H   0  0  0  0  0  0  0  0  0  0  0  0
   55.7942   31.4742   43.5119 H   0  0  0  0  0  0  0  0  0  0  0  0
   59.2914   31.8630   43.1122 H   0  0  0  0  0  0  0  0  0  0  0  0
   57.7095   32.7329   43.1887 H   0  0  0  0  0  0  0  0  0  0  0  0
   59.9270   32.6620   45.0790 H   0  0  0  0  0  0  0  0  0  0  0  0
   58.0019   31.7521   46.5004 H   0  0  0  0  0  0  0  0  0  0  0  0
   59.7544   33.1966   47.5662 H   0  0  0  0  0  0  0  0  0  0  0  0
   58.2863   34.0331   47.9784 H   0  0  0  0  0  0  0  0  0  0  0  0
   60.4227   34.9377   46.1392 H   0  0  0  0  0  0  0  0  0  0  0  0
   58.9805   35.8450   46.4930 H   0  0  0  0  0  0  0  0  0  0  0  0
   59.1966   34.8631   43.9512 H   0  0  0  0  0  0  0  0  0  0  0  0
   56.7585   34.5060   43.8979 H   0  0  0  0  0  0  0  0  0  0  0  0
   56.9278   35.6019   45.2396 H   0  0  0  0  0  0  0  0  0  0  0  0
   56.0920   32.7700   45.3177 H   0  0  0  0  0  0  0  0  0  0  0  0
   56.2328   33.7967   46.7160 H   0  0  0  0  0  0  0  0  0  0  0  0
   59.5647   29.9971   45.0462 H   0  0  0  0  0  0  0  0  0  0  0  0
   58.4278   27.9326   45.8528 H   0  0  0  0  0  0  0  0  0  0  0  0
  1  2  1  0
  2  3  1  0
  3  4  2  0
  4  5  1  0
  5  6  2  0
  6  7  1  0
  7  8  1  0
  8  9  1  0
  9 10  1  0
 10 11  1  0
 11 12  1  0
 12 13  1  0
 13 14  1  0
  6 15  1  0
 15 16  2  0
 16  3  1  0
 12  8  1  0
 14  9  1  0
  1 17  1  0
  1 18  1  0
  1 19  1  0
  4 20  1  0
  5 21  1  0
  7 22  1  0
  7 23  1  0
  8 24  1  1
  9 25  1  1
 10 26  1  0
 10 27  1  0
 11 28  1  0
 11 29  1  0
 12 30  1  6
 13 31  1  0
 13 32  1  0
 14 33  1  0
 14 34  1  0
 15 35  1  0
 16 36  1  0
M  CHG  1   8   1
M  END
>  <UniqueID>  (13) 
12

>  <SMILES>  (13) 
COc1ccc(C[NH+]2C3CCC2CC3)cc1

>  <Energy>  (13) 
70.0667897690888

>  <Genealogy>  (13) 
COc1ccc(C[NH+]2C3CCC2CC3)cc1 (protonated)
COc1ccc(C[NH+]2C3CCC2CC3)cc1 (3D coordinates assigned)
COc1ccc(C[NH+]2C3CCC2CC3)cc1 (nonaromatic ring conformer: 70.0667897690888 kcal/mol)

>  <smiles>  (13) 
COc1ccc(CN2C3CCC2CC3)cc1

>  <score_type>  (13) 
oracle

>  <origin>  (13) 
adg

>  <m_score__min__energy>  (13) 
-4.8700000000000001

>  <m_primary>  (13) 
energy

$$$$
13:0
     RDKit          3D

 60 62  0  0  0  0  0  0  0  0999 V2000
   57.6100   26.9040   46.7510 C   0  0  0  0  0  0  0  0  0  0  0  0
   56.4160   27.4080   45.9990 C   0  0  0  0  0  0  0  0  0  0  0  0
   55.3450   26.7460   46.0330 O   0  0  0  0  0  0  0  0  0  0  0  0
   56.4740   28.5890   45.1920 N   0  0  0  0  0  0  0  0  0  0  0  0
   57.1580   28.7080   43.9030 C   0  0  1  0  0  0  0  0  0  0  0  0
   56.4840   29.8140   43.0510 C   0  0  0  0  0  0  0  0  0  0  0  0
   57.3440   31.0790   42.8810 C   0  0  0  0  0  0  0  0  0  0  0  0
   58.0280   31.5060   44.1980 C   0  0  1  0  0  0  0  0  0  0  0  0
   57.0280   32.0370   45.2610 C   0  0  0  0  0  0  0  0  0  0  0  0
   57.1770   33.5340   45.5890 C   0  0  0  0  0  0  0  0  0  0  0  0
   57.9590   33.7450   46.8250 N   0  0  0  0  0  0  0  0  0  0  0  0
   59.1650   34.5920   46.5970 C   0  0  0  0  0  0  0  0  0  0  0  0
   60.4940   33.9010   46.9410 C   0  0  0  0  0  0  0  0  0  0  0  0
   60.4200   33.2860   48.2720 N   0  0  0  0  0  0  0  0  0  0  0  0
   61.5960   33.1850   49.1050 C   0  0  0  0  0  0  0  0  0  0  0  0
   62.3760   34.3200   49.3830 C   0  0  0  0  0  0  0  0  0  0  0  0
   63.5140   34.2210   50.1840 C   0  0  0  0  0  0  0  0  0  0  0  0
   63.9050   32.9850   50.7250 C   0  0  0  0  0  0  0  0  0  0  0  0
   65.1370   32.9130   51.5880 C   0  0  0  0  0  0  0  0  0  0  0  0
   63.1330   31.8320   50.4470 C   0  0  0  0  0  0  0  0  0  0  0  0
   63.5090   30.4870   51.0140 C   0  0  0  0  0  0  0  0  0  0  0  0
   61.9860   31.9460   49.6430 C   0  0  0  0  0  0  0  0  0  0  0  0
   59.1660   32.6460   48.6910 C   0  0  0  0  0  0  0  0  0  0  0  0
   58.2320   32.4560   47.4940 C   0  0  0  0  0  0  0  0  0  0  0  0
   58.9010   30.3560   44.7830 C   0  0  0  0  0  0  0  0  0  0  0  0
   58.6570   28.9830   44.1280 C   0  0  0  0  0  0  0  0  0  0  0  0
   57.4227   26.9831   47.8320 H   0  0  0  0  0  0  0  0  0  0  0  0
   57.7927   25.8520   46.4865 H   0  0  0  0  0  0  0  0  0  0  0  0
   58.4912   27.5069   46.4865 H   0  0  0  0  0  0  0  0  0  0  0  0
   57.0751   27.7626   43.3468 H   0  0  0  0  0  0  0  0  0  0  0  0
   55.5398   30.0996   43.5378 H   0  0  0  0  0  0  0  0  0  0  0  0
   56.3299   29.3944   42.0459 H   0  0  0  0  0  0  0  0  0  0  0  0
   56.6996   31.9006   42.5349 H   0  0  0  0  0  0  0  0  0  0  0  0
   58.1344   30.8521   42.1504 H   0  0  0  0  0  0  0  0  0  0  0  0
   58.6868   32.3479   43.9388 H   0  0  0  0  0  0  0  0  0  0  0  0
   56.0075   31.8675   44.8871 H   0  0  0  0  0  0  0  0  0  0  0  0
   57.2425   31.4909   46.1914 H   0  0  0  0  0  0  0  0  0  0  0  0
   57.6889   34.0333   44.7531 H   0  0  0  0  0  0  0  0  0  0  0  0
   56.1720   33.9544   45.7418 H   0  0  0  0  0  0  0  0  0  0  0  0
   59.1898   34.8784   45.5352 H   0  0  0  0  0  0  0  0  0  0  0  0
   59.0753   35.4576   47.2698 H   0  0  0  0  0  0  0  0  0  0  0  0
   60.7022   33.1221   46.1926 H   0  0  0  0  0  0  0  0  0  0  0  0
   61.2982   34.6515   46.9383 H   0  0  0  0  0  0  0  0  0  0  0  0
   62.0868   35.2956   48.9653 H   0  0  0  0  0  0  0  0  0  0  0  0
   64.1114   35.1204   50.3941 H   0  0  0  0  0  0  0  0  0  0  0  0
   64.8437   32.9301   52.6480 H   0  0  0  0  0  0  0  0  0  0  0  0
   65.6812   31.9815   51.3732 H   0  0  0  0  0  0  0  0  0  0  0  0
   65.7860   33.7747   51.3732 H   0  0  0  0  0  0  0  0  0  0  0  0
   63.4954   30.5355   52.1128 H   0  0  0  0  0  0  0  0  0  0  0  0
   62.7880   29.7301   50.6715 H   0  0  0  0  0  0  0  0  0  0  0  0
   64.5180   30.2138   50.6715 H   0  0  0  0  0  0  0  0  0  0  0  0
   61.3831   31.0507   49.4310 H   0  0  0  0  0  0  0  0  0  0  0  0
   59.3913   31.6643   49.1331 H   0  0  0  0  0  0  0  0  0  0  0  0
   58.6684   33.2911   49.4301 H   0  0  0  0  0  0  0  0  0  0  0  0
   58.7040   31.7704   46.7748 H   0  0  0  0  0  0  0  0  0  0  0  0
   57.2798   32.0402   47.8552 H   0  0  0  0  0  0  0  0  0  0  0  0
   58.6826   30.2694   45.8576 H   0  0  0  0  0  0  0  0  0  0  0  0
   59.9495   30.6208   44.5815 H   0  0  0  0  0  0  0  0  0  0  0  0
   59.0673   28.1997   44.7823 H   0  0  0  0  0  0  0  0  0  0  0  0
   59.1532   28.9824   43.1463 H   0  0  0  0  0  0  0  0  0  0  0  0
  1  2  1  0
  2  3  2  0
  2  4  1  0
  4  5  1  0
  5  6  1  0
  6  7  1  0
  7  8  1  0
  8  9  1  0
  9 10  1  0
 10 11  1  0
 11 12  1  0
 12 13  1  0
 13 14  1  0
 14 15  1  0
 15 16  2  0
 16 17  1  0
 17 18  2  0
 18 19  1  0
 18 20  1  0
 20 21  1  0
 20 22  2  0
 14 23  1  0
 23 24  1  0
  8 25  1  0
 25 26  1  0
 26  5  1  0
 24 11  1  0
 22 15  1  0
  1 27  1  0
  1 28  1  0
  1 29  1  0
  5 30  1  6
  6 31  1  0
  6 32  1  0
  7 33  1  0
  7 34  1  0
  8 35  1  6
  9 36  1  0
  9 37  1  0
 10 38  1  0
 10 39  1  0
 12 40  1  0
 12 41  1  0
 13 42  1  0
 13 43  1  0
 16 44  1  0
 17 45  1  0
 19 46  1  0
 19 47  1  0
 19 48  1  0
 21 49  1  0
 21 50  1  0
 21 51  1  0
 22 52  1  0
 23 53  1  0
 23 54  1  0
 24 55  1  0
 24 56  1  0
 25 57  1  0
 25 58  1  0
 26 59  1  0
 26 60  1  0
M  CHG  1   4  -1
M  END
>  <UniqueID>  (14) 
13

>  <SMILES>  (14) 
CC(=O)[N-]C1CCC(CCN2CCN(c3ccc(C)c(C)c3)CC2)CC1

>  <Energy>  (14) 
70.97192972031968

>  <Genealogy>  (14) 
CC(=O)[N-]C1CCC(CCN2CCN(c3ccc(C)c(C)c3)CC2)CC1 (protonated)
CC(=O)[N-]C1CCC(CCN2CCN(c3ccc(C)c(C)c3)CC2)CC1 (3D coordinates assigned)
CC(=O)[N-]C1CCC(CCN2CCN(c3ccc(C)c(C)c3)CC2)CC1 (nonaromatic ring conformer: 70.97192972031968 kcal/mol)

>  <smiles>  (14) 
CC(=O)NC1CCC(CCN2CCN(c3ccc(C)c(C)c3)CC2)CC1

>  <score_type>  (14) 
oracle

>  <origin>  (14) 
adg

>  <m_score__min__energy>  (14) 
-10.59

>  <m_primary>  (14) 
energy

$$$$
14:0
     RDKit          3D

 61 64  0  0  0  0  0  0  0  0999 V2000
   55.1880   25.2660   45.6990 C   0  0  0  0  0  0  0  0  0  0  0  0
   55.4310   26.6520   45.9160 O   0  0  0  0  0  0  0  0  0  0  0  0
   56.6370   27.3030   45.6200 C   0  0  0  0  0  0  0  0  0  0  0  0
   57.8040   26.5350   45.5390 C   0  0  0  0  0  0  0  0  0  0  0  0
   59.0300   27.1370   45.2530 C   0  0  0  0  0  0  0  0  0  0  0  0
   59.1040   28.5160   45.0430 C   0  0  0  0  0  0  0  0  0  0  0  0
   57.9460   29.3090   45.1160 C   0  0  0  0  0  0  0  0  0  0  0  0
   58.0250   30.7790   44.9060 C   0  0  0  0  0  0  0  0  0  0  0  0
   57.9090   31.3230   43.6160 C   0  0  0  0  0  0  0  0  0  0  0  0
   57.9520   32.7060   43.4270 C   0  0  0  0  0  0  0  0  0  0  0  0
   58.1320   33.5590   44.5180 C   0  0  0  0  0  0  0  0  0  0  0  0
   58.3020   33.0340   45.8120 C   0  0  0  0  0  0  0  0  0  0  0  0
   58.4870   33.9640   46.9940 C   0  0  0  0  0  0  0  0  0  0  0  0
   59.4380   33.5070   48.0560 N   0  0  1  0  0  0  0  0  0  0  0  0
   58.9250   32.3500   48.8410 C   0  0  0  0  0  0  0  0  0  0  0  0
   58.8010   32.6520   50.3220 C   0  0  0  0  0  0  0  0  0  0  0  0
   57.8060   32.0370   51.1000 C   0  0  0  0  0  0  0  0  0  0  0  0
   57.7000   32.3230   52.4650 C   0  0  0  0  0  0  0  0  0  0  0  0
   58.5900   33.2170   53.0650 C   0  0  0  0  0  0  0  0  0  0  0  0
   58.4860   33.4920   54.3880 F   0  0  0  0  0  0  0  0  0  0  0  0
   59.5900   33.8260   52.3010 C   0  0  0  0  0  0  0  0  0  0  0  0
   59.6980   33.5440   50.9350 C   0  0  0  0  0  0  0  0  0  0  0  0
   60.8800   33.3260   47.6780 C   0  0  0  0  0  0  0  0  0  0  0  0
   61.9140   33.9960   48.6230 C   0  0  0  0  0  0  0  0  0  0  0  0
   63.3170   34.0120   47.9820 C   0  0  0  0  0  0  0  0  0  0  0  0
   63.6060   32.7820   47.0960 C   0  0  0  0  0  0  0  0  0  0  0  0
   62.7670   31.5670   47.5040 C   0  0  0  0  0  0  0  0  0  0  0  0
   61.2570   31.8460   47.3700 C   0  0  0  0  0  0  0  0  0  0  0  0
   58.2080   31.6450   45.9980 C   0  0  0  0  0  0  0  0  0  0  0  0
   56.7120   28.6930   45.4030 C   0  0  0  0  0  0  0  0  0  0  0  0
   55.0981   24.7534   46.6681 H   0  0  0  0  0  0  0  0  0  0  0  0
   54.2544   25.1420   45.1306 H   0  0  0  0  0  0  0  0  0  0  0  0
   56.0237   24.8318   45.1306 H   0  0  0  0  0  0  0  0  0  0  0  0
   57.7545   25.4483   45.7021 H   0  0  0  0  0  0  0  0  0  0  0  0
   59.9411   26.5236   45.1927 H   0  0  0  0  0  0  0  0  0  0  0  0
   60.0741   28.9839   44.8192 H   0  0  0  0  0  0  0  0  0  0  0  0
   57.7836   30.6561   42.7502 H   0  0  0  0  0  0  0  0  0  0  0  0
   57.8437   33.1248   42.4156 H   0  0  0  0  0  0  0  0  0  0  0  0
   58.1409   34.6482   44.3646 H   0  0  0  0  0  0  0  0  0  0  0  0
   58.8530   34.9270   46.6085 H   0  0  0  0  0  0  0  0  0  0  0  0
   57.5033   34.0146   47.4837 H   0  0  0  0  0  0  0  0  0  0  0  0
   59.4640   34.3070   48.7330 H   0  0  0  0  0  0  0  0  0  0  0  0
   57.9325   32.0755   48.4542 H   0  0  0  0  0  0  0  0  0  0  0  0
   59.6482   31.5286   48.7304 H   0  0  0  0  0  0  0  0  0  0  0  0
   57.1070   31.3272   50.6335 H   0  0  0  0  0  0  0  0  0  0  0  0
   56.9144   31.8431   53.0671 H   0  0  0  0  0  0  0  0  0  0  0  0
   60.2926   34.5276   52.7744 H   0  0  0  0  0  0  0  0  0  0  0  0
   60.4884   34.0224   50.3380 H   0  0  0  0  0  0  0  0  0  0  0  0
   60.9544   33.8910   46.7371 H   0  0  0  0  0  0  0  0  0  0  0  0
   61.5991   35.0302   48.8259 H   0  0  0  0  0  0  0  0  0  0  0  0
   61.9615   33.4181   49.5578 H   0  0  0  0  0  0  0  0  0  0  0  0
   63.4054   34.9160   47.3615 H   0  0  0  0  0  0  0  0  0  0  0  0
   64.0474   33.9957   48.8044 H   0  0  0  0  0  0  0  0  0  0  0  0
   63.3767   33.0363   46.0507 H   0  0  0  0  0  0  0  0  0  0  0  0
   64.6666   32.5177   47.2195 H   0  0  0  0  0  0  0  0  0  0  0  0
   63.0314   30.7177   46.8569 H   0  0  0  0  0  0  0  0  0  0  0  0
   62.9816   31.3407   48.5588 H   0  0  0  0  0  0  0  0  0  0  0  0
   60.9478   31.6128   46.3404 H   0  0  0  0  0  0  0  0  0  0  0  0
   60.7398   31.2151   48.1079 H   0  0  0  0  0  0  0  0  0  0  0  0
   58.2787   31.2285   47.0137 H   0  0  0  0  0  0  0  0  0  0  0  0
   55.7984   29.3031   45.4582 H   0  0  0  0  0  0  0  0  0  0  0  0
  1  2  1  0
  2  3  1  0
  3  4  2  0
  4  5  1  0
  5  6  2  0
  6  7  1  0
  7  8  1  0
  8  9  2  0
  9 10  1  0
 10 11  2  0
 11 12  1  0
 12 13  1  0
 13 14  1  0
 14 15  1  0
 15 16  1  0
 16 17  2  0
 17 18  1  0
 18 19  2  0
 19 20  1  0
 19 21  1  0
 21 22  2  0
 14 23  1  0
 23 24  1  0
 24 25  1  0
 25 26  1  0
 26 27  1  0
 27 28  1  0
 12 29  2  0
  7 30  2  0
 30  3  1  0
 29  8  1  0
 22 16  1  0
 28 23  1  0
  1 31  1  0
  1 32  1  0
  1 33  1  0
  4 34  1  0
  5 35  1  0
  6 36  1  0
  9 37  1  0
 10 38  1  0
 11 39  1  0
 13 40  1  0
 13 41  1  0
 14 42  1  1
 15 43  1  0
 15 44  1  0
 17 45  1  0
 18 46  1  0
 21 47  1  0
 22 48  1  0
 23 49  1  0
 24 50  1  0
 24 51  1  0
 25 52  1  0
 25 53  1  0
 26 54  1  0
 26 55  1  0
 27 56  1  0
 27 57  1  0
 28 58  1  0
 28 59  1  0
 29 60  1  0
 30 61  1  0
M  CHG  1  14   1
M  END
>  <UniqueID>  (15) 
14

>  <SMILES>  (15) 
COc1cccc(-c2cccc(C[N@@H+](Cc3ccc(F)cc3)C3CCCCC3)c2)c1

>  <Energy>  (15) 
87.1167310345729

>  <Genealogy>  (15) 
COc1cccc(-c2cccc(C[NH+](Cc3ccc(F)cc3)C3CCCCC3)c2)c1 (protonated)
COc1cccc(-c2cccc(C[N@@H+](Cc3ccc(F)cc3)C3CCCCC3)c2)c1 (chirality)
COc1cccc(-c2cccc(C[N@@H+](Cc3ccc(F)cc3)C3CCCCC3)c2)c1 (3D coordinates assigned)
COc1cccc(-c2cccc(C[N@@H+](Cc3ccc(F)cc3)C3CCCCC3)c2)c1 (nonaromatic ring conformer: 87.1167310345729 kcal/mol)

>  <smiles>  (15) 
COc1cccc(-c2cccc(CN(Cc3ccc(F)cc3)C3CCCCC3)c2)c1

>  <score_type>  (15) 
oracle

>  <origin>  (15) 
adg

>  <m_score__min__energy>  (15) 
-8.3000000000000007

>  <m_primary>  (15) 
energy

$$$$
15:0
     RDKit          3D

 53 55  0  0  0  0  0  0  0  0999 V2000
   60.4190   31.4850   46.6400 O   0  0  0  0  0  0  0  0  0  0  0  0
   61.1330   32.2750   47.2450 C   0  0  0  0  0  0  0  0  0  0  0  0
   62.5390   31.8480   47.6390 C   0  0  0  0  0  0  0  0  0  0  0  0
   62.6510   31.6570   49.1630 C   0  0  0  0  0  0  0  0  0  0  0  0
   62.7160   33.0030   49.9250 C   0  0  0  0  0  0  0  0  0  0  0  0
   62.9760   34.1220   49.0910 O   0  0  0  0  0  0  0  0  0  0  0  0
   64.0430   33.8410   48.2110 C   0  0  0  0  0  0  0  0  0  0  0  0
   63.6020   32.8450   47.1240 C   0  0  0  0  0  0  0  0  0  0  0  0
   60.6340   33.6020   47.5800 N   0  0  0  0  0  0  0  0  0  0  0  0
   59.2740   33.5560   48.1850 C   0  0  0  0  0  0  0  0  0  0  0  0
   58.1470   33.8510   47.1760 C   0  0  0  0  0  0  0  0  0  0  0  0
   58.5340   33.3730   45.8390 N   0  0  0  0  0  0  0  0  0  0  0  0
   57.3950   33.3960   44.8970 C   0  0  0  0  0  0  0  0  0  0  0  0
   57.3710   32.1120   44.0610 C   0  0  0  0  0  0  0  0  0  0  0  0
   56.8030   31.0020   44.8600 N   0  0  0  0  0  0  0  0  0  0  0  0
   57.7680   30.4470   45.8300 C   0  0  0  0  0  0  0  0  0  0  0  0
   58.8660   29.5940   45.1520 C   0  0  0  0  0  0  0  0  0  0  0  0
   58.4460   29.0220   43.8610 N   0  0  0  0  0  0  0  0  0  0  0  0
   57.0200   28.6840   43.8640 C   0  0  0  0  0  0  0  0  0  0  0  0
   56.1460   29.9420   44.0550 C   0  0  0  0  0  0  0  0  0  0  0  0
   59.6710   34.1620   45.3170 C   0  0  0  0  0  0  0  0  0  0  0  0
   60.7080   34.5040   46.4130 C   0  0  0  0  0  0  0  0  0  0  0  0
   62.7370   30.8786   47.1584 H   0  0  0  0  0  0  0  0  0  0  0  0
   61.7729   31.0949   49.5137 H   0  0  0  0  0  0  0  0  0  0  0  0
   63.5856   31.1130   49.3643 H   0  0  0  0  0  0  0  0  0  0  0  0
   61.7515   33.1630   50.4291 H   0  0  0  0  0  0  0  0  0  0  0  0
   63.5545   32.9298   50.6332 H   0  0  0  0  0  0  0  0  0  0  0  0
   64.3726   34.7752   47.7328 H   0  0  0  0  0  0  0  0  0  0  0  0
   64.8682   33.3955   48.7859 H   0  0  0  0  0  0  0  0  0  0  0  0
   63.1791   33.4079   46.2789 H   0  0  0  0  0  0  0  0  0  0  0  0
   64.4863   32.2664   46.8187 H   0  0  0  0  0  0  0  0  0  0  0  0
   61.2670   34.0110   48.3070 H   0  0  0  0  0  0  0  0  0  0  0  0
   59.1126   32.5522   48.6049 H   0  0  0  0  0  0  0  0  0  0  0  0
   59.2340   34.3395   48.9560 H   0  0  0  0  0  0  0  0  0  0  0  0
   57.2281   33.3374   47.4951 H   0  0  0  0  0  0  0  0  0  0  0  0
   57.9717   34.9362   47.1359 H   0  0  0  0  0  0  0  0  0  0  0  0
   56.4562   33.4772   45.4645 H   0  0  0  0  0  0  0  0  0  0  0  0
   57.5042   34.2593   44.2242 H   0  0  0  0  0  0  0  0  0  0  0  0
   56.7521   32.2710   43.1656 H   0  0  0  0  0  0  0  0  0  0  0  0
   58.3978   31.8549   43.7618 H   0  0  0  0  0  0  0  0  0  0  0  0
   58.2483   31.2793   46.3653 H   0  0  0  0  0  0  0  0  0  0  0  0
   57.2121   29.7915   46.5165 H   0  0  0  0  0  0  0  0  0  0  0  0
   59.7470   30.2303   44.9818 H   0  0  0  0  0  0  0  0  0  0  0  0
   59.0862   28.7522   45.8249 H   0  0  0  0  0  0  0  0  0  0  0  0
   58.6270   29.7130   43.0960 H   0  0  0  0  0  0  0  0  0  0  0  0
   56.7619   28.2105   42.9052 H   0  0  0  0  0  0  0  0  0  0  0  0
   56.8277   27.9971   44.7014 H   0  0  0  0  0  0  0  0  0  0  0  0
   55.9082   30.3547   43.0635 H   0  0  0  0  0  0  0  0  0  0  0  0
   55.2451   29.6302   44.6038 H   0  0  0  0  0  0  0  0  0  0  0  0
   60.1706   33.5811   44.5277 H   0  0  0  0  0  0  0  0  0  0  0  0
   59.2698   35.1100   44.9292 H   0  0  0  0  0  0  0  0  0  0  0  0
   61.7154   34.4312   45.9772 H   0  0  0  0  0  0  0  0  0  0  0  0
   60.4867   35.5210   46.7690 H   0  0  0  0  0  0  0  0  0  0  0  0
  1  2  2  0
  2  3  1  0
  3  4  1  0
  4  5  1  0
  5  6  1  0
  6  7  1  0
  7  8  1  0
  2  9  1  0
  9 10  1  0
 10 11  1  0
 11 12  1  0
 12 13  1  0
 13 14  1  0
 14 15  1  0
 15 16  1  0
 16 17  1  0
 17 18  1  0
 18 19  1  0
 19 20  1  0
 12 21  1  0
 21 22  1  0
  8  3  1  0
 22  9  1  0
 20 15  1  0
  3 23  1  0
  4 24  1  0
  4 25  1  0
  5 26  1  0
  5 27  1  0
  7 28  1  0
  7 29  1  0
  8 30  1  0
  8 31  1  0
  9 32  1  0
 10 33  1  0
 10 34  1  0
 11 35  1  0
 11 36  1  0
 13 37  1  0
 13 38  1  0
 14 39  1  0
 14 40  1  0
 16 41  1  0
 16 42  1  0
 17 43  1  0
 17 44  1  0
 18 45  1  0
 19 46  1  0
 19 47  1  0
 20 48  1  0
 20 49  1  0
 21 50  1  0
 21 51  1  0
 22 52  1  0
 22 53  1  0
M  CHG  1   9   1
M  END
>  <UniqueID>  (16) 
15

>  <SMILES>  (16) 
O=C(C1CCOCC1)[NH+]1CCN(CCN2CCNCC2)CC1

>  <Energy>  (16) 
82.10977307046055

>  <Genealogy>  (16) 
O=C(C1CCOCC1)[NH+]1CCN(CCN2CCNCC2)CC1 (protonated)
O=C(C1CCOCC1)[NH+]1CCN(CCN2CCNCC2)CC1 (3D coordinates assigned)
O=C(C1CCOCC1)[NH+]1CCN(CCN2CCNCC2)CC1 (nonaromatic ring conformer: 82.10977307046055 kcal/mol)

>  <smiles>  (16) 
O=C(C1CCOCC1)N1CCN(CCN2CCNCC2)CC1

>  <score_type>  (16) 
oracle

>  <origin>  (16) 
adg

>  <m_score__min__energy>  (16) 
-6.0800000000000001

>  <m_primary>  (16) 
energy

$$$$
16:0
     RDKit          3D

 62 65  0  0  0  0  0  0  0  0999 V2000
   63.1150   33.6070   48.1700 C   0  0  0  0  0  0  0  0  0  0  0  0
   61.7400   33.7950   47.5340 C   0  0  0  0  0  0  0  0  0  0  0  0
   60.7630   34.5890   48.4240 C   0  0  0  0  0  0  0  0  0  0  0  0
   59.4200   34.7290   47.8050 N   0  0  1  0  0  0  0  0  0  0  0  0
   59.5230   35.0020   46.3880 C   0  0  0  0  0  0  0  0  0  0  0  0
   60.0300   36.0600   45.9230 O   0  0  0  0  0  0  0  0  0  0  0  0
   58.9180   33.9620   45.5700 C   0  0  0  0  0  0  0  0  0  0  0  0
   58.7660   33.8540   44.1880 C   0  0  0  0  0  0  0  0  0  0  0  0
   58.0510   32.7500   43.6860 C   0  0  0  0  0  0  0  0  0  0  0  0
   57.4940   31.7910   44.5700 C   0  0  0  0  0  0  0  0  0  0  0  0
   56.6510   30.6950   44.0540 C   0  0  0  0  0  0  0  0  0  0  0  0
   56.2710   30.6920   42.8510 O   0  0  0  0  0  0  0  0  0  0  0  0
   56.2330   29.6580   44.9450 N   0  0  0  0  0  0  0  0  0  0  0  0
   56.6630   28.2650   44.8790 C   0  0  0  0  0  0  0  0  0  0  0  0
   57.2270   27.8330   46.2380 C   0  0  0  0  0  0  0  0  0  0  0  0
   58.5940   28.3610   46.4300 N   0  0  0  0  0  0  0  0  0  0  0  0
   59.2400   28.7230   45.1530 C   0  0  0  0  0  0  0  0  0  0  0  0
   60.7370   29.0710   45.3480 C   0  0  0  0  0  0  0  0  0  0  0  0
   61.0840   29.3240   46.7630 N   0  0  0  0  0  0  0  0  0  0  0  0
   60.4880   30.5880   47.2550 C   0  0  0  0  0  0  0  0  0  0  0  0
   60.1960   30.5240   48.7340 C   0  0  0  0  0  0  0  0  0  0  0  0
   61.1810   30.8840   49.6690 C   0  0  0  0  0  0  0  0  0  0  0  0
   60.8960   30.8510   51.0390 C   0  0  0  0  0  0  0  0  0  0  0  0
   59.6280   30.4620   51.4830 C   0  0  0  0  0  0  0  0  0  0  0  0
   58.6440   30.1010   50.5570 C   0  0  0  0  0  0  0  0  0  0  0  0
   58.9260   30.1250   49.1880 C   0  0  0  0  0  0  0  0  0  0  0  0
   60.7550   28.1480   47.6080 C   0  0  0  0  0  0  0  0  0  0  0  0
   59.4440   27.4400   47.1990 C   0  0  0  0  0  0  0  0  0  0  0  0
   57.6890   31.9310   45.9620 C   0  0  0  0  0  0  0  0  0  0  0  0
   58.4120   33.0280   46.4220 C   0  0  0  0  0  0  0  0  0  0  0  0
   58.7050   33.4730   47.7750 C   0  0  0  0  0  0  0  0  0  0  0  0
   58.3350   32.8560   48.8100 O   0  0  0  0  0  0  0  0  0  0  0  0
   63.0172   33.6204   49.2656 H   0  0  0  0  0  0  0  0  0  0  0  0
   63.5376   32.6427   47.8514 H   0  0  0  0  0  0  0  0  0  0  0  0
   63.7810   34.4224   47.8514 H   0  0  0  0  0  0  0  0  0  0  0  0
   61.8651   34.3350   46.5838 H   0  0  0  0  0  0  0  0  0  0  0  0
   61.3083   32.7941   47.3865 H   0  0  0  0  0  0  0  0  0  0  0  0
   60.6560   34.0656   49.3856 H   0  0  0  0  0  0  0  0  0  0  0  0
   61.1772   35.5990   48.5590 H   0  0  0  0  0  0  0  0  0  0  0  0
   58.8300   35.4710   48.2520 H   0  0  0  0  0  0  0  0  0  0  0  0
   59.1919   34.6087   43.5105 H   0  0  0  0  0  0  0  0  0  0  0  0
   57.9234   32.6303   42.6000 H   0  0  0  0  0  0  0  0  0  0  0  0
   55.8035   27.6289   44.6210 H   0  0  0  0  0  0  0  0  0  0  0  0
   57.4436   28.1608   44.1110 H   0  0  0  0  0  0  0  0  0  0  0  0
   56.5763   28.2173   47.0373 H   0  0  0  0  0  0  0  0  0  0  0  0
   57.2653   26.7342   46.2710 H   0  0  0  0  0  0  0  0  0  0  0  0
   59.1587   27.8736   44.4588 H   0  0  0  0  0  0  0  0  0  0  0  0
   58.7307   29.6108   44.7500 H   0  0  0  0  0  0  0  0  0  0  0  0
   61.3444   28.2303   44.9815 H   0  0  0  0  0  0  0  0  0  0  0  0
   60.9396   29.9945   44.7858 H   0  0  0  0  0  0  0  0  0  0  0  0
   61.1912   31.4123   47.0650 H   0  0  0  0  0  0  0  0  0  0  0  0
   59.5392   30.7516   46.7231 H   0  0  0  0  0  0  0  0  0  0  0  0
   62.1787   31.1926   49.3235 H   0  0  0  0  0  0  0  0  0  0  0  0
   61.6707   31.1315   51.7678 H   0  0  0  0  0  0  0  0  0  0  0  0
   59.4048   30.4400   52.5599 H   0  0  0  0  0  0  0  0  0  0  0  0
   57.6462   29.7976   50.9066 H   0  0  0  0  0  0  0  0  0  0  0  0
   58.1522   29.8309   48.4636 H   0  0  0  0  0  0  0  0  0  0  0  0
   61.5795   27.4238   47.5324 H   0  0  0  0  0  0  0  0  0  0  0  0
   60.6155   28.5173   48.6347 H   0  0  0  0  0  0  0  0  0  0  0  0
   59.6818   26.5617   46.5809 H   0  0  0  0  0  0  0  0  0  0  0  0
   58.9064   27.1239   48.1051 H   0  0  0  0  0  0  0  0  0  0  0  0
   57.2795   31.1911   46.6654 H   0  0  0  0  0  0  0  0  0  0  0  0
  1  2  1  0
  2  3  1  0
  3  4  1  0
  4  5  1  0
  5  6  2  0
  5  7  1  0
  7  8  2  0
  8  9  1  0
  9 10  2  0
 10 11  1  0
 11 12  2  0
 11 13  1  0
 13 14  1  0
 14 15  1  0
 15 16  1  0
 16 17  1  0
 17 18  1  0
 18 19  1  0
 19 20  1  0
 20 21  1  0
 21 22  2  0
 22 23  1  0
 23 24  2  0
 24 25  1  0
 25 26  2  0
 19 27  1  0
 27 28  1  0
 10 29  1  0
 29 30  2  0
 30 31  1  0
 31 32  2  0
 31  4  1  0
 30  7  1  0
 28 16  1  0
 26 21  1  0
  1 33  1  0
  1 34  1  0
  1 35  1  0
  2 36  1  0
  2 37  1  0
  3 38  1  0
  3 39  1  0
  4 40  1  1
  8 41  1  0
  9 42  1  0
 14 43  1  0
 14 44  1  0
 15 45  1  0
 15 46  1  0
 17 47  1  0
 17 48  1  0
 18 49  1  0
 18 50  1  0
 20 51  1  0
 20 52  1  0
 22 53  1  0
 23 54  1  0
 24 55  1  0
 25 56  1  0
 26 57  1  0
 27 58  1  0
 27 59  1  0
 28 60  1  0
 28 61  1  0
 29 62  1  0
M  CHG  2   4   1  13  -1
M  END
>  <UniqueID>  (17) 
16

>  <SMILES>  (17) 
CCC[N@H+]1C(=O)c2ccc(C(=O)[N-]CCN3CCN(Cc4ccccc4)CC3)cc2C1=O

>  <Energy>  (17) 
97.38424182404232

>  <Genealogy>  (17) 
CCC[NH+]1C(=O)c2ccc(C(=O)[N-]CCN3CCN(Cc4ccccc4)CC3)cc2C1=O (protonated)
CCC[N@H+]1C(=O)c2ccc(C(=O)[N-]CCN3CCN(Cc4ccccc4)CC3)cc2C1=O (chirality)
CCC[N@H+]1C(=O)c2ccc(C(=O)[N-]CCN3CCN(Cc4ccccc4)CC3)cc2C1=O (3D coordinates assigned)
CCC[N@H+]1C(=O)c2ccc(C(=O)[N-]CCN3CCN(Cc4ccccc4)CC3)cc2C1=O (nonaromatic ring conformer: 97.38424182404232 kcal/mol)

>  <smiles>  (17) 
CCCN1C(=O)c2ccc(C(=O)NCCN3CCN(Cc4ccccc4)CC3)cc2C1=O

>  <score_type>  (17) 
oracle

>  <origin>  (17) 
adg

>  <m_score__min__energy>  (17) 
-9.1899999999999995

>  <m_primary>  (17) 
energy

$$$$
17:0
     RDKit          3D

 34 35  0  0  0  0  0  0  0  0999 V2000
   61.1660   28.6100   44.5470 C   0  0  0  0  0  0  0  0  0  0  0  0
   60.3810   28.5460   45.7340 O   0  0  0  0  0  0  0  0  0  0  0  0
   59.0480   28.1110   45.7790 C   0  0  0  0  0  0  0  0  0  0  0  0
   57.9970   28.8370   45.1900 C   0  0  0  0  0  0  0  0  0  0  0  0
   56.6860   28.3620   45.2660 C   0  0  0  0  0  0  0  0  0  0  0  0
   56.4050   27.1620   45.9230 C   0  0  0  0  0  0  0  0  0  0  0  0
   55.0890   26.7170   45.9860 O   0  0  0  0  0  0  0  0  0  0  0  0
   57.4480   26.4200   46.5120 C   0  0  0  0  0  0  0  0  0  0  0  0
   57.1810   25.1070   47.2180 C   0  0  0  0  0  0  0  0  0  0  0  0
   55.8950   24.5090   46.8200 N   0  0  0  0  0  0  0  0  0  0  0  0
   55.9140   23.0390   46.8580 C   0  0  0  0  0  0  0  0  0  0  0  0
   56.2900   22.4740   45.5130 C   0  0  0  0  0  0  0  0  0  0  0  0
   56.2220   23.2630   44.3570 C   0  0  0  0  0  0  0  0  0  0  0  0
   56.5780   22.7220   43.1210 C   0  0  0  0  0  0  0  0  0  0  0  0
   57.0040   21.3940   43.0510 C   0  0  0  0  0  0  0  0  0  0  0  0
   57.0740   20.6400   44.1810 N   0  0  0  0  0  0  0  0  0  0  0  0
   56.7310   21.1470   45.3980 C   0  0  0  0  0  0  0  0  0  0  0  0
   58.7630   26.9080   46.4360 C   0  0  0  0  0  0  0  0  0  0  0  0
   62.2294   28.6967   44.8149 H   0  0  0  0  0  0  0  0  0  0  0  0
   61.0104   27.6962   43.9548 H   0  0  0  0  0  0  0  0  0  0  0  0
   60.8644   29.4865   43.9548 H   0  0  0  0  0  0  0  0  0  0  0  0
   58.2084   29.7818   44.6679 H   0  0  0  0  0  0  0  0  0  0  0  0
   55.8691   28.9369   44.8053 H   0  0  0  0  0  0  0  0  0  0  0  0
   57.9895   24.4027   46.9725 H   0  0  0  0  0  0  0  0  0  0  0  0
   57.1379   25.3089   48.2985 H   0  0  0  0  0  0  0  0  0  0  0  0
   55.1380   24.8510   47.4570 H   0  0  0  0  0  0  0  0  0  0  0  0
   56.6483   22.7070   47.6067 H   0  0  0  0  0  0  0  0  0  0  0  0
   54.9085   22.6801   47.1227 H   0  0  0  0  0  0  0  0  0  0  0  0
   55.8880   24.3089   44.4239 H   0  0  0  0  0  0  0  0  0  0  0  0
   56.5236   23.3361   42.2100 H   0  0  0  0  0  0  0  0  0  0  0  0
   57.2833   20.9571   42.0809 H   0  0  0  0  0  0  0  0  0  0  0  0
   57.3970   19.6490   44.1140 H   0  0  0  0  0  0  0  0  0  0  0  0
   56.8001   20.5133   46.2944 H   0  0  0  0  0  0  0  0  0  0  0  0
   59.5808   26.3366   46.8994 H   0  0  0  0  0  0  0  0  0  0  0  0
  1  2  1  0
  2  3  1  0
  3  4  2  0
  4  5  1  0
  5  6  2  0
  6  7  1  0
  6  8  1  0
  8  9  1  0
  9 10  1  0
 10 11  1  0
 11 12  1  0
 12 13  2  0
 13 14  1  0
 14 15  2  0
 15 16  1  0
 16 17  2  0
  8 18  2  0
 18  3  1  0
 17 12  1  0
  1 19  1  0
  1 20  1  0
  1 21  1  0
  4 22  1  0
  5 23  1  0
  9 24  1  0
  9 25  1  0
 10 26  1  0
 11 27  1  0
 11 28  1  0
 13 29  1  0
 14 30  1  0
 15 31  1  0
 16 32  1  0
 17 33  1  0
 18 34  1  0
M  CHG  2   7  -1  16   1
M  END
>  <UniqueID>  (18) 
17

>  <SMILES>  (18) 
COc1ccc([O-])c(CNCc2ccc[nH+]c2)c1

>  <Energy>  (18) 
34.48929377039374

>  <Genealogy>  (18) 
COc1ccc([O-])c(CNCc2ccc[nH+]c2)c1 (protonated)
COc1ccc([O-])c(CNCc2ccc[nH+]c2)c1 (3D coordinates assigned)
COc1ccc([O-])c(CNCc2ccc[nH+]c2)c1 (optimized conformer: 34.48929377039374 kcal/mol)

>  <smiles>  (18) 
COc1ccc(O)c(CNCc2cccnc2)c1

>  <score_type>  (18) 
oracle

>  <origin>  (18) 
adg

>  <m_score__min__energy>  (18) 
-8.7899999999999991

>  <m_primary>  (18) 
energy

$$$$
18:0
     RDKit          3D

 49 51  0  0  0  0  0  0  0  0999 V2000
   66.7850   32.6430   50.1680 C   0  0  0  0  0  0  0  0  0  0  0  0
   65.3970   32.8140   50.7750 C   0  0  0  0  0  0  0  0  0  0  0  0
   64.6630   33.8260   50.0850 O   0  0  0  0  0  0  0  0  0  0  0  0
   63.5440   33.6100   49.2630 C   0  0  0  0  0  0  0  0  0  0  0  0
   63.7490   32.9990   48.0240 C   0  0  0  0  0  0  0  0  0  0  0  0
   62.6760   32.7480   47.1690 C   0  0  0  0  0  0  0  0  0  0  0  0
   61.3690   33.1000   47.5390 C   0  0  0  0  0  0  0  0  0  0  0  0
   60.2640   32.7860   46.6050 C   0  0  0  0  0  0  0  0  0  0  0  0
   59.8450   33.7300   45.6570 C   0  0  0  0  0  0  0  0  0  0  0  0
   58.7940   33.4210   44.7960 C   0  0  0  0  0  0  0  0  0  0  0  0
   58.1540   32.1790   44.8880 C   0  0  0  0  0  0  0  0  0  0  0  0
   57.0250   31.8260   43.9470 C   0  0  0  0  0  0  0  0  0  0  0  0
   57.3600   30.6850   43.0760 N   0  0  0  0  0  0  0  0  0  0  0  0
   56.7760   29.4190   43.5430 C   0  0  0  0  0  0  0  0  0  0  0  0
   57.7630   28.6530   44.3760 C   0  0  0  0  0  0  0  0  0  0  0  0
   57.3310   27.7030   45.3140 C   0  0  0  0  0  0  0  0  0  0  0  0
   58.2780   27.0000   46.0620 C   0  0  0  0  0  0  0  0  0  0  0  0
   59.6390   27.2480   45.8700 C   0  0  0  0  0  0  0  0  0  0  0  0
   60.0320   28.2000   44.9280 C   0  0  0  0  0  0  0  0  0  0  0  0
   59.0960   28.8750   44.2090 N   0  0  0  0  0  0  0  0  0  0  0  0
   58.5880   31.2680   45.8610 C   0  0  0  0  0  0  0  0  0  0  0  0
   59.6170   31.5870   46.6930 N   0  0  0  0  0  0  0  0  0  0  0  0
   61.1510   33.7500   48.7790 C   0  0  0  0  0  0  0  0  0  0  0  0
   59.7770   34.1930   49.2130 C   0  0  0  0  0  0  0  0  0  0  0  0
   62.2380   33.9780   49.6390 C   0  0  0  0  0  0  0  0  0  0  0  0
   67.5286   32.5514   50.9734 H   0  0  0  0  0  0  0  0  0  0  0  0
   66.8041   31.7357   49.5463 H   0  0  0  0  0  0  0  0  0  0  0  0
   67.0237   33.5185   49.5463 H   0  0  0  0  0  0  0  0  0  0  0  0
   64.8522   31.8611   50.7033 H   0  0  0  0  0  0  0  0  0  0  0  0
   65.5070   33.1139   51.8276 H   0  0  0  0  0  0  0  0  0  0  0  0
   64.7666   32.7129   47.7195 H   0  0  0  0  0  0  0  0  0  0  0  0
   62.8561   32.2694   46.1951 H   0  0  0  0  0  0  0  0  0  0  0  0
   60.3430   34.7088   45.5933 H   0  0  0  0  0  0  0  0  0  0  0  0
   58.4668   34.1534   44.0433 H   0  0  0  0  0  0  0  0  0  0  0  0
   56.1361   31.5684   44.5416 H   0  0  0  0  0  0  0  0  0  0  0  0
   56.8380   32.6980   43.3030 H   0  0  0  0  0  0  0  0  0  0  0  0
   58.4000   30.5770   43.0340 H   0  0  0  0  0  0  0  0  0  0  0  0
   55.8835   29.6350   44.1487 H   0  0  0  0  0  0  0  0  0  0  0  0
   56.5057   28.8106   42.6673 H   0  0  0  0  0  0  0  0  0  0  0  0
   56.2571   27.5138   45.4587 H   0  0  0  0  0  0  0  0  0  0  0  0
   57.9527   26.2527   46.8007 H   0  0  0  0  0  0  0  0  0  0  0  0
   60.3924   26.6994   46.4544 H   0  0  0  0  0  0  0  0  0  0  0  0
   61.1008   28.4045   44.7670 H   0  0  0  0  0  0  0  0  0  0  0  0
   58.0940   30.2894   45.9527 H   0  0  0  0  0  0  0  0  0  0  0  0
   59.9190   30.8840   47.4040 H   0  0  0  0  0  0  0  0  0  0  0  0
   59.7270   34.2091   50.3117 H   0  0  0  0  0  0  0  0  0  0  0  0
   59.5763   35.2014   48.8220 H   0  0  0  0  0  0  0  0  0  0  0  0
   59.0251   33.4918   48.8220 H   0  0  0  0  0  0  0  0  0  0  0  0
   62.0669   34.4497   50.6179 H   0  0  0  0  0  0  0  0  0  0  0  0
  1  2  1  0
  2  3  1  0
  3  4  1  0
  4  5  2  0
  5  6  1  0
  6  7  2  0
  7  8  1  0
  8  9  2  0
  9 10  1  0
 10 11  2  0
 11 12  1  0
 12 13  1  0
 13 14  1  0
 14 15  1  0
 15 16  2  0
 16 17  1  0
 17 18  2  0
 18 19  1  0
 19 20  2  0
 11 21  1  0
 21 22  2  0
  7 23  1  0
 23 24  1  0
 23 25  2  0
 25  4  1  0
 22  8  1  0
 20 15  1  0
  1 26  1  0
  1 27  1  0
  1 28  1  0
  2 29  1  0
  2 30  1  0
  5 31  1  0
  6 32  1  0
  9 33  1  0
 10 34  1  0
 12 35  1  0
 12 36  1  0
 13 37  1  0
 14 38  1  0
 14 39  1  0
 16 40  1  0
 17 41  1  0
 18 42  1  0
 19 43  1  0
 21 44  1  0
 22 45  1  0
 24 46  1  0
 24 47  1  0
 24 48  1  0
 25 49  1  0
M  CHG  1  22   1
M  END
>  <UniqueID>  (19) 
18

>  <SMILES>  (19) 
CCOc1ccc(-c2ccc(CNCc3ccccn3)c[nH+]2)c(C)c1

>  <Energy>  (19) 
56.26561321446558

>  <Genealogy>  (19) 
CCOc1ccc(-c2ccc(CNCc3ccccn3)c[nH+]2)c(C)c1 (protonated)
CCOc1ccc(-c2ccc(CNCc3ccccn3)c[nH+]2)c(C)c1 (3D coordinates assigned)
CCOc1ccc(-c2ccc(CNCc3ccccn3)c[nH+]2)c(C)c1 (optimized conformer: 56.26561321446558 kcal/mol)

>  <smiles>  (19) 
CCOc1ccc(-c2ccc(CNCc3ccccn3)cn2)c(C)c1

>  <score_type>  (19) 
oracle

>  <origin>  (19) 
adg

>  <m_score__min__energy>  (19) 
-6.1600000000000001

>  <m_primary>  (19) 
energy

$$$$
19:0
     RDKit          3D

 62 65  0  0  0  0  0  0  0  0999 V2000
   58.1690   27.3240   43.4210 C   0  0  0  0  0  0  0  0  0  0  0  0
   57.5590   28.5330   44.1290 C   0  0  0  0  0  0  0  0  0  0  0  0
   56.6500   29.3660   43.2100 C   0  0  0  0  0  0  0  0  0  0  0  0
   56.9530   30.8670   43.2510 C   0  0  0  0  0  0  0  0  0  0  0  0
   56.6210   31.3990   44.5320 O   0  0  0  0  0  0  0  0  0  0  0  0
   57.5430   31.9900   45.4070 C   0  0  0  0  0  0  0  0  0  0  0  0
   57.2930   33.2350   46.0470 C   0  0  0  0  0  0  0  0  0  0  0  0
   58.2420   33.7980   46.9180 C   0  0  0  0  0  0  0  0  0  0  0  0
   59.4380   33.1050   47.1270 C   0  0  0  0  0  0  0  0  0  0  0  0
   59.6730   31.8990   46.5200 C   0  0  0  0  0  0  0  0  0  0  0  0
   58.7520   31.3130   45.6560 C   0  0  0  0  0  0  0  0  0  0  0  0
   60.8910   31.4360   46.9620 C   0  0  0  0  0  0  0  0  0  0  0  0
   61.3570   32.4150   47.8360 C   0  0  0  0  0  0  0  0  0  0  0  0
   62.6170   32.3050   48.5960 C   0  0  0  0  0  0  0  0  0  0  0  0
   62.7470   31.3630   49.6280 C   0  0  0  0  0  0  0  0  0  0  0  0
   63.9390   31.2720   50.3540 C   0  0  0  0  0  0  0  0  0  0  0  0
   65.0130   32.1340   50.0660 C   0  0  0  0  0  0  0  0  0  0  0  0
   66.2290   32.0820   50.7630 O   0  0  0  0  0  0  0  0  0  0  0  0
   66.8820   30.8770   51.1480 C   0  0  0  0  0  0  0  0  0  0  0  0
   64.8710   33.0850   49.0480 C   0  0  0  0  0  0  0  0  0  0  0  0
   63.6800   33.1760   48.3220 C   0  0  0  0  0  0  0  0  0  0  0  0
   60.4700   33.4430   47.9310 N   0  0  0  0  0  0  0  0  0  0  0  0
   60.4990   34.5600   48.8830 C   0  0  0  0  0  0  0  0  0  0  0  0
   59.6470   34.2210   50.1180 C   0  0  0  0  0  0  0  0  0  0  0  0
   59.8570   32.8230   50.5690 N   0  0  0  0  0  0  0  0  0  0  0  0
   60.0200   32.7330   52.0330 C   0  0  0  0  0  0  0  0  0  0  0  0
   58.6540   32.4300   52.6400 C   0  0  0  0  0  0  0  0  0  0  0  0
   57.7590   32.0570   51.4720 C   0  0  0  0  0  0  0  0  0  0  0  0
   58.6850   31.9830   50.2710 C   0  0  0  0  0  0  0  0  0  0  0  0
   58.5318   26.6049   44.1702 H   0  0  0  0  0  0  0  0  0  0  0  0
   57.4053   26.8438   42.7916 H   0  0  0  0  0  0  0  0  0  0  0  0
   59.0090   27.6530   42.7916 H   0  0  0  0  0  0  0  0  0  0  0  0
   56.9639   28.1769   44.9828 H   0  0  0  0  0  0  0  0  0  0  0  0
   58.3875   29.1810   44.4509 H   0  0  0  0  0  0  0  0  0  0  0  0
   56.7809   29.0122   42.1767 H   0  0  0  0  0  0  0  0  0  0  0  0
   55.6183   29.2336   43.5679 H   0  0  0  0  0  0  0  0  0  0  0  0
   58.0237   31.0275   43.0567 H   0  0  0  0  0  0  0  0  0  0  0  0
   56.3528   31.3767   42.4828 H   0  0  0  0  0  0  0  0  0  0  0  0
   56.3467   33.7633   45.8585 H   0  0  0  0  0  0  0  0  0  0  0  0
   58.0489   34.7570   47.4210 H   0  0  0  0  0  0  0  0  0  0  0  0
   58.9638   30.3445   45.1794 H   0  0  0  0  0  0  0  0  0  0  0  0
   61.3893   30.4953   46.6848 H   0  0  0  0  0  0  0  0  0  0  0  0
   61.9078   30.6933   49.8670 H   0  0  0  0  0  0  0  0  0  0  0  0
   64.0372   30.5231   51.1537 H   0  0  0  0  0  0  0  0  0  0  0  0
   66.9166   30.8132   52.2456 H   0  0  0  0  0  0  0  0  0  0  0  0
   66.3274   30.0154   50.7479 H   0  0  0  0  0  0  0  0  0  0  0  0
   67.9067   30.8713   50.7479 H   0  0  0  0  0  0  0  0  0  0  0  0
   65.7036   33.7660   48.8178 H   0  0  0  0  0  0  0  0  0  0  0  0
   63.5767   33.9346   47.5322 H   0  0  0  0  0  0  0  0  0  0  0  0
   61.5371   34.7448   49.1962 H   0  0  0  0  0  0  0  0  0  0  0  0
   60.0901   35.4586   48.3979 H   0  0  0  0  0  0  0  0  0  0  0  0
   59.9200   34.9034   50.9364 H   0  0  0  0  0  0  0  0  0  0  0  0
   58.5880   34.3348   49.8430 H   0  0  0  0  0  0  0  0  0  0  0  0
   60.6950   32.4180   50.0880 H   0  0  0  0  0  0  0  0  0  0  0  0
   60.7263   31.9271   52.2814 H   0  0  0  0  0  0  0  0  0  0  0  0
   60.4154   33.6784   52.4329 H   0  0  0  0  0  0  0  0  0  0  0  0
   58.7269   31.5929   53.3499 H   0  0  0  0  0  0  0  0  0  0  0  0
   58.2570   33.2917   53.1967 H   0  0  0  0  0  0  0  0  0  0  0  0
   57.2783   31.0836   51.6494 H   0  0  0  0  0  0  0  0  0  0  0  0
   56.9497   32.7871   51.3237 H   0  0  0  0  0  0  0  0  0  0  0  0
   59.0005   30.9428   50.1025 H   0  0  0  0  0  0  0  0  0  0  0  0
   58.1739   32.3357   49.3630 H   0  0  0  0  0  0  0  0  0  0  0  0
  1  2  1  0
  2  3  1  0
  3  4  1  0
  4  5  1  0
  5  6  1  0
  6  7  2  0
  7  8  1  0
  8  9  2  0
  9 10  1  0
 10 11  2  0
 10 12  1  0
 12 13  2  0
 13 14  1  0
 14 15  2  0
 15 16  1  0
 16 17  2  0
 17 18  1  0
 18 19  1  0
 17 20  1  0
 20 21  2  0
 13 22  1  0
 22 23  1  0
 23 24  1  0
 24 25  1  0
 25 26  1  0
 26 27  1  0
 27 28  1  0
 28 29  1  0
 11  6  1  0
 21 14  1  0
 29 25  1  0
 22  9  1  0
  1 30  1  0
  1 31  1  0
  1 32  1  0
  2 33  1  0
  2 34  1  0
  3 35  1  0
  3 36  1  0
  4 37  1  0
  4 38  1  0
  7 39  1  0
  8 40  1  0
 11 41  1  0
 12 42  1  0
 15 43  1  0
 16 44  1  0
 19 45  1  0
 19 46  1  0
 19 47  1  0
 20 48  1  0
 21 49  1  0
 23 50  1  0
 23 51  1  0
 24 52  1  0
 24 53  1  0
 25 54  1  0
 26 55  1  0
 26 56  1  0
 27 57  1  0
 27 58  1  0
 28 59  1  0
 28 60  1  0
 29 61  1  0
 29 62  1  0
M  CHG  1  25   1
M  END
>  <UniqueID>  (20) 
19

>  <SMILES>  (20) 
CCCCOc1ccc2c(c1)cc(-c1ccc(OC)cc1)n2CC[NH+]1CCCC1

>  <Energy>  (20) 
98.5719416429097

>  <Genealogy>  (20) 
CCCCOc1ccc2c(c1)cc(-c1ccc(OC)cc1)n2CC[NH+]1CCCC1 (protonated)
CCCCOc1ccc2c(c1)cc(-c1ccc(OC)cc1)n2CC[NH+]1CCCC1 (3D coordinates assigned)
CCCCOc1ccc2c(c1)cc(-c1ccc(OC)cc1)n2CC[NH+]1CCCC1 (nonaromatic ring conformer: 98.5719416429097 kcal/mol)

>  <smiles>  (20) 
CCCCOc1ccc2c(c1)cc(-c1ccc(OC)cc1)n2CCN1CCCC1

>  <score_type>  (20) 
oracle

>  <origin>  (20) 
adg

>  <m_score__min__energy>  (20) 
-5.9699999999999998

>  <m_primary>  (20) 
energy

$$$$
20:0
     RDKit          3D

 42 44  0  0  0  0  0  0  0  0999 V2000
   58.5900   29.7310   49.6270 C   0  0  0  0  0  0  0  0  0  0  0  0
   59.4850   30.0810   48.4710 C   0  0  0  0  0  0  0  0  0  0  0  0
   60.5100   30.9650   48.6430 N   0  0  0  0  0  0  0  0  0  0  0  0
   61.3360   31.2980   47.6070 C   0  0  0  0  0  0  0  0  0  0  0  0
   62.4020   32.2500   47.7810 N   0  0  0  0  0  0  0  0  0  0  0  0
   63.3520   32.2770   48.7340 C   0  0  0  0  0  0  0  0  0  0  0  0
   64.1400   33.3860   48.5200 C   0  0  0  0  0  0  0  0  0  0  0  0
   63.6940   34.0570   47.4410 N   0  0  0  0  0  0  0  0  0  0  0  0
   62.6340   33.3380   47.0160 C   0  0  0  0  0  0  0  0  0  0  0  0
   61.1470   30.7200   46.3910 N   0  0  0  0  0  0  0  0  0  0  0  0
   60.1440   29.8330   46.1730 C   0  0  0  0  0  0  0  0  0  0  0  0
   59.2630   29.5000   47.2130 C   0  0  0  0  0  0  0  0  0  0  0  0
   58.1900   28.6070   47.0460 O   0  0  0  0  0  0  0  0  0  0  0  0
   57.7450   28.0590   45.8040 C   0  0  0  0  0  0  0  0  0  0  0  0
   56.6790   28.9530   45.1670 C   0  0  0  0  0  0  0  0  0  0  0  0
   57.2690   30.1120   44.3650 C   0  0  0  0  0  0  0  0  0  0  0  0
   56.8280   31.3550   44.9130 O   0  0  0  0  0  0  0  0  0  0  0  0
   57.6660   32.4200   45.2830 C   0  0  0  0  0  0  0  0  0  0  0  0
   57.7650   32.7240   46.6460 C   0  0  0  0  0  0  0  0  0  0  0  0
   58.5760   33.7740   47.0840 C   0  0  0  0  0  0  0  0  0  0  0  0
   59.3060   34.5250   46.1620 C   0  0  0  0  0  0  0  0  0  0  0  0
   59.2300   34.2230   44.7990 C   0  0  0  0  0  0  0  0  0  0  0  0
   58.4170   33.1740   44.3530 C   0  0  0  0  0  0  0  0  0  0  0  0
   58.3970   32.8900   43.0270 F   0  0  0  0  0  0  0  0  0  0  0  0
   59.1144   29.9361   50.5719 H   0  0  0  0  0  0  0  0  0  0  0  0
   57.6732   30.3369   49.5775 H   0  0  0  0  0  0  0  0  0  0  0  0
   58.3274   28.6639   49.5775 H   0  0  0  0  0  0  0  0  0  0  0  0
   60.6620   31.3830   49.5860 H   0  0  0  0  0  0  0  0  0  0  0  0
   63.4772   31.5417   49.5425 H   0  0  0  0  0  0  0  0  0  0  0  0
   65.0025   33.6791   49.1366 H   0  0  0  0  0  0  0  0  0  0  0  0
   62.0249   33.6090   46.1410 H   0  0  0  0  0  0  0  0  0  0  0  0
   60.0214   29.3747   45.1806 H   0  0  0  0  0  0  0  0  0  0  0  0
   58.6017   27.9752   45.1191 H   0  0  0  0  0  0  0  0  0  0  0  0
   57.3073   27.0676   45.9925 H   0  0  0  0  0  0  0  0  0  0  0  0
   56.0639   28.3385   44.4932 H   0  0  0  0  0  0  0  0  0  0  0  0
   56.0855   29.3886   45.9843 H   0  0  0  0  0  0  0  0  0  0  0  0
   58.3671   30.0635   44.4075 H   0  0  0  0  0  0  0  0  0  0  0  0
   56.9343   30.0373   43.3198 H   0  0  0  0  0  0  0  0  0  0  0  0
   57.1989   32.1306   47.3790 H   0  0  0  0  0  0  0  0  0  0  0  0
   58.6391   34.0089   48.1568 H   0  0  0  0  0  0  0  0  0  0  0  0
   59.9409   35.3542   46.5073 H   0  0  0  0  0  0  0  0  0  0  0  0
   59.8112   34.8119   44.0742 H   0  0  0  0  0  0  0  0  0  0  0  0
  1  2  1  0
  2  3  2  0
  3  4  1  0
  4  5  1  0
  5  6  1  0
  6  7  2  0
  7  8  1  0
  8  9  2  0
  4 10  2  0
 10 11  1  0
 11 12  2  0
 12 13  1  0
 13 14  1  0
 14 15  1  0
 15 16  1  0
 16 17  1  0
 17 18  1  0
 18 19  2  0
 19 20  1  0
 20 21  2  0
 21 22  1  0
 22 23  2  0
 23 24  1  0
 12  2  1  0
 23 18  1  0
  9  5  1  0
  1 25  1  0
  1 26  1  0
  1 27  1  0
  3 28  1  0
  6 29  1  0
  7 30  1  0
  9 31  1  0
 11 32  1  0
 14 33  1  0
 14 34  1  0
 15 35  1  0
 15 36  1  0
 16 37  1  0
 16 38  1  0
 19 39  1  0
 20 40  1  0
 21 41  1  0
 22 42  1  0
M  CHG  1   3   1
M  END
>  <UniqueID>  (21) 
20

>  <SMILES>  (21) 
Cc1[nH+]c(-n2ccnc2)ncc1OCCCOc1ccccc1F

>  <Energy>  (21) 
76.72135609125783

>  <Genealogy>  (21) 
Cc1[nH+]c(-n2ccnc2)ncc1OCCCOc1ccccc1F (protonated)
Cc1[nH+]c(-n2ccnc2)ncc1OCCCOc1ccccc1F (3D coordinates assigned)
Cc1[nH+]c(-n2ccnc2)ncc1OCCCOc1ccccc1F (optimized conformer: 76.72135609125783 kcal/mol)

>  <smiles>  (21) 
Cc1nc(-n2ccnc2)ncc1OCCCOc1ccccc1F

>  <score_type>  (21) 
oracle

>  <origin>  (21) 
adg

>  <m_score__min__energy>  (21) 
-5.3499999999999996

>  <m_primary>  (21) 
energy

$$$$
21:0
     RDKit          3D

 61 64  0  0  0  0  0  0  0  0999 V2000
   59.7230   33.5000   50.8770 C   0  0  0  0  0  0  0  0  0  0  0  0
   60.1530   34.2370   49.7370 O   0  0  0  0  0  0  0  0  0  0  0  0
   61.3380   33.9860   49.0270 C   0  0  0  0  0  0  0  0  0  0  0  0
   62.6040   34.0570   49.6420 C   0  0  0  0  0  0  0  0  0  0  0  0
   63.7650   33.8280   48.8970 C   0  0  0  0  0  0  0  0  0  0  0  0
   63.6760   33.5280   47.5370 C   0  0  0  0  0  0  0  0  0  0  0  0
   62.4280   33.4500   46.9190 C   0  0  0  0  0  0  0  0  0  0  0  0
   61.2560   33.6700   47.6570 C   0  0  0  0  0  0  0  0  0  0  0  0
   59.9810   33.5770   47.0050 N   0  0  0  0  0  0  0  0  0  0  0  0
   58.9950   32.5950   47.4830 C   0  0  0  0  0  0  0  0  0  0  0  0
   57.7580   32.5720   46.5810 C   0  0  0  0  0  0  0  0  0  0  0  0
   58.1750   32.5470   45.1710 N   0  0  0  0  0  0  0  0  0  0  0  0
   57.5950   31.6260   44.2260 C   0  0  0  0  0  0  0  0  0  0  0  0
   57.3840   32.0080   43.0430 O   0  0  0  0  0  0  0  0  0  0  0  0
   57.2410   30.2080   44.6160 C   0  0  0  0  0  0  0  0  0  0  0  0
   58.2440   29.6580   45.6470 C   0  0  0  0  0  0  0  0  0  0  0  0
   57.8460   28.2370   46.0610 C   0  0  0  0  0  0  0  0  0  0  0  0
   57.5560   27.3880   44.8940 N   0  0  0  0  0  0  0  0  0  0  0  0
   57.1780   26.0110   45.1060 C   0  0  0  0  0  0  0  0  0  0  0  0
   57.1130   25.1510   44.0520 N   0  0  0  0  0  0  0  0  0  0  0  0
   56.7650   23.8480   44.2200 C   0  0  0  0  0  0  0  0  0  0  0  0
   56.7030   22.9340   43.0380 C   0  0  0  0  0  0  0  0  0  0  0  0
   56.4620   23.3730   45.4990 C   0  0  0  0  0  0  0  0  0  0  0  0
   56.5280   24.2630   46.5740 C   0  0  0  0  0  0  0  0  0  0  0  0
   56.2240   23.7980   47.9630 C   0  0  0  0  0  0  0  0  0  0  0  0
   56.8860   25.5560   46.3550 N   0  0  0  0  0  0  0  0  0  0  0  0
   57.7800   27.9150   43.5370 C   0  0  0  0  0  0  0  0  0  0  0  0
   57.1260   29.2970   43.3640 C   0  0  0  0  0  0  0  0  0  0  0  0
   59.1610   33.5250   44.6860 C   0  0  0  0  0  0  0  0  0  0  0  0
   59.7000   34.4020   45.8240 C   0  0  0  0  0  0  0  0  0  0  0  0
   60.0307   34.0274   51.7920 H   0  0  0  0  0  0  0  0  0  0  0  0
   58.6273   33.4043   50.8598 H   0  0  0  0  0  0  0  0  0  0  0  0
   60.1788   32.4990   50.8598 H   0  0  0  0  0  0  0  0  0  0  0  0
   62.6793   34.2938   50.7136 H   0  0  0  0  0  0  0  0  0  0  0  0
   64.7499   33.8844   49.3837 H   0  0  0  0  0  0  0  0  0  0  0  0
   64.5909   33.3529   46.9519 H   0  0  0  0  0  0  0  0  0  0  0  0
   62.3627   33.2145   45.8465 H   0  0  0  0  0  0  0  0  0  0  0  0
   59.4556   31.5961   47.4867 H   0  0  0  0  0  0  0  0  0  0  0  0
   58.6818   32.8801   48.4982 H   0  0  0  0  0  0  0  0  0  0  0  0
   57.1607   31.6751   46.8019 H   0  0  0  0  0  0  0  0  0  0  0  0
   57.1539   33.4723   46.7670 H   0  0  0  0  0  0  0  0  0  0  0  0
   56.2519   30.2159   45.0972 H   0  0  0  0  0  0  0  0  0  0  0  0
   59.2499   29.6393   45.2022 H   0  0  0  0  0  0  0  0  0  0  0  0
   58.2402   30.3067   46.5353 H   0  0  0  0  0  0  0  0  0  0  0  0
   58.6724   27.7878   46.6314 H   0  0  0  0  0  0  0  0  0  0  0  0
   56.9333   28.3020   46.6715 H   0  0  0  0  0  0  0  0  0  0  0  0
   56.6323   21.8921   43.3835 H   0  0  0  0  0  0  0  0  0  0  0  0
   55.8195   23.1796   42.4305 H   0  0  0  0  0  0  0  0  0  0  0  0
   57.6116   23.0580   42.4305 H   0  0  0  0  0  0  0  0  0  0  0  0
   56.1779   22.3219   45.6558 H   0  0  0  0  0  0  0  0  0  0  0  0
   56.6764   24.4900   48.6886 H   0  0  0  0  0  0  0  0  0  0  0  0
   55.1343   23.7725   48.1109 H   0  0  0  0  0  0  0  0  0  0  0  0
   56.6378   22.7896   48.1109 H   0  0  0  0  0  0  0  0  0  0  0  0
   58.8620   28.0051   43.3608 H   0  0  0  0  0  0  0  0  0  0  0  0
   57.3267   27.2212   42.8137 H   0  0  0  0  0  0  0  0  0  0  0  0
   57.6117   29.8068   42.5188 H   0  0  0  0  0  0  0  0  0  0  0  0
   56.0534   29.1237   43.1924 H   0  0  0  0  0  0  0  0  0  0  0  0
   60.0007   32.9851   44.2241 H   0  0  0  0  0  0  0  0  0  0  0  0
   58.6629   34.1798   43.9558 H   0  0  0  0  0  0  0  0  0  0  0  0
   60.6267   34.8955   45.4957 H   0  0  0  0  0  0  0  0  0  0  0  0
   58.9456   35.1591   46.0842 H   0  0  0  0  0  0  0  0  0  0  0  0
  1  2  1  0
  2  3  1  0
  3  4  2  0
  4  5  1  0
  5  6  2  0
  6  7  1  0
  7  8  2  0
  8  9  1  0
  9 10  1  0
 10 11  1  0
 11 12  1  0
 12 13  1  0
 13 14  2  0
 13 15  1  0
 15 16  1  0
 16 17  1  0
 17 18  1  0
 18 19  1  0
 19 20  2  0
 20 21  1  0
 21 22  1  0
 21 23  2  0
 23 24  1  0
 24 25  1  0
 24 26  2  0
 18 27  1  0
 27 28  1  0
 12 29  1  0
 29 30  1  0
  8  3  1  0
 30  9  1  0
 28 15  1  0
 26 19  1  0
  1 31  1  0
  1 32  1  0
  1 33  1  0
  4 34  1  0
  5 35  1  0
  6 36  1  0
  7 37  1  0
 10 38  1  0
 10 39  1  0
 11 40  1  0
 11 41  1  0
 15 42  1  0
 16 43  1  0
 16 44  1  0
 17 45  1  0
 17 46  1  0
 22 47  1  0
 22 48  1  0
 22 49  1  0
 23 50  1  0
 25 51  1  0
 25 52  1  0
 25 53  1  0
 27 54  1  0
 27 55  1  0
 28 56  1  0
 28 57  1  0
 29 58  1  0
 29 59  1  0
 30 60  1  0
 30 61  1  0
M  END
>  <UniqueID>  (22) 
21

>  <SMILES>  (22) 
COc1ccccc1N1CCN(C(=O)C2CCN(c3nc(C)cc(C)n3)CC2)CC1

>  <Energy>  (22) 
70.55706528500772

>  <Genealogy>  (22) 
COc1ccccc1N1CCN(C(=O)C2CCN(c3nc(C)cc(C)n3)CC2)CC1 (3D coordinates assigned)
COc1ccccc1N1CCN(C(=O)C2CCN(c3nc(C)cc(C)n3)CC2)CC1 (nonaromatic ring conformer: 70.55706528500772 kcal/mol)

>  <smiles>  (22) 
COc1ccccc1N1CCN(C(=O)C2CCN(c3nc(C)cc(C)n3)CC2)CC1

>  <score_type>  (22) 
oracle

>  <origin>  (22) 
adg

>  <m_score__min__energy>  (22) 
-8.4800000000000004

>  <m_primary>  (22) 
energy

$$$$
22:0
     RDKit          3D

 68 72  0  0  0  0  0  0  0  0999 V2000
   56.9730   20.8960   43.0120 C   0  0  0  0  0  0  0  0  0  0  0  0
   55.9390   21.8380   43.2880 O   0  0  0  0  0  0  0  0  0  0  0  0
   56.1380   23.0760   43.9210 C   0  0  0  0  0  0  0  0  0  0  0  0
   55.1700   23.5230   44.8270 C   0  0  0  0  0  0  0  0  0  0  0  0
   55.3280   24.7420   45.4950 C   0  0  0  0  0  0  0  0  0  0  0  0
   56.4630   25.5350   45.2590 C   0  0  0  0  0  0  0  0  0  0  0  0
   56.6630   26.8040   46.0380 C   0  0  0  0  0  0  0  0  0  0  0  0
   57.6650   26.5780   47.1000 N   0  0  0  0  0  0  0  0  0  0  0  0
   57.6340   25.1970   47.6090 C   0  0  0  0  0  0  0  0  0  0  0  0
   59.0260   27.0100   46.7180 C   0  0  0  0  0  0  0  0  0  0  0  0
   59.0730   27.8780   45.4430 C   0  0  0  0  0  0  0  0  0  0  0  0
   58.5730   29.2630   45.7400 C   0  0  0  0  0  0  0  0  0  0  0  0
   57.8820   30.1280   44.8750 C   0  0  0  0  0  0  0  0  0  0  0  0
   57.4850   29.8280   43.4600 C   0  0  0  0  0  0  0  0  0  0  0  0
   57.7560   31.3500   45.4500 N   0  0  0  0  0  0  0  0  0  0  0  0
   58.3730   31.2720   46.6340 C   0  0  0  0  0  0  0  0  0  0  0  0
   58.5660   32.3380   47.5000 C   0  0  0  0  0  0  0  0  0  0  0  0
   59.3050   32.0920   48.6800 C   0  0  0  0  0  0  0  0  0  0  0  0
   59.5370   33.1090   49.6090 O   0  0  0  0  0  0  0  0  0  0  0  0
   60.4090   34.2010   49.3250 C   0  0  0  0  0  0  0  0  0  0  0  0
   61.5890   33.7370   48.5160 C   0  0  0  0  0  0  0  0  0  0  0  0
   61.6240   33.9470   47.1270 C   0  0  0  0  0  0  0  0  0  0  0  0
   62.7110   33.4960   46.3750 C   0  0  0  0  0  0  0  0  0  0  0  0
   63.7670   32.8250   47.0000 C   0  0  0  0  0  0  0  0  0  0  0  0
   63.7260   32.5890   48.3770 C   0  0  0  0  0  0  0  0  0  0  0  0
   62.6390   33.0360   49.1340 C   0  0  0  0  0  0  0  0  0  0  0  0
   59.8330   30.7970   48.9240 C   0  0  0  0  0  0  0  0  0  0  0  0
   59.6320   29.7500   48.0030 C   0  0  0  0  0  0  0  0  0  0  0  0
   58.8810   30.0260   46.8590 C   0  0  0  0  0  0  0  0  0  0  0  0
   58.1320   33.7090   47.0320 C   0  0  0  0  0  0  0  0  0  0  0  0
   56.9700   33.6200   46.0140 C   0  0  0  0  0  0  0  0  0  0  0  0
   57.2590   32.6070   44.8830 C   0  0  0  0  0  0  0  0  0  0  0  0
   57.4390   25.0880   44.3540 C   0  0  0  0  0  0  0  0  0  0  0  0
   57.2770   23.8710   43.6850 C   0  0  0  0  0  0  0  0  0  0  0  0
   57.3873   20.5185   43.9585 H   0  0  0  0  0  0  0  0  0  0  0  0
   56.5599   20.0574   42.4323 H   0  0  0  0  0  0  0  0  0  0  0  0
   57.7696   21.3853   42.4323 H   0  0  0  0  0  0  0  0  0  0  0  0
   54.2763   22.9101   45.0158 H   0  0  0  0  0  0  0  0  0  0  0  0
   54.5610   25.0804   46.2072 H   0  0  0  0  0  0  0  0  0  0  0  0
   57.0171   27.5967   45.3626 H   0  0  0  0  0  0  0  0  0  0  0  0
   55.7091   27.1087   46.4932 H   0  0  0  0  0  0  0  0  0  0  0  0
   57.6343   25.2115   48.7089 H   0  0  0  0  0  0  0  0  0  0  0  0
   56.7243   24.6939   47.2492 H   0  0  0  0  0  0  0  0  0  0  0  0
   58.5202   24.6536   47.2492 H   0  0  0  0  0  0  0  0  0  0  0  0
   59.4503   27.5925   47.5491 H   0  0  0  0  0  0  0  0  0  0  0  0
   59.6017   26.0975   46.5038 H   0  0  0  0  0  0  0  0  0  0  0  0
   60.1101   27.9359   45.0808 H   0  0  0  0  0  0  0  0  0  0  0  0
   58.4318   27.4219   44.6743 H   0  0  0  0  0  0  0  0  0  0  0  0
   56.6074   29.1648   43.4582 H   0  0  0  0  0  0  0  0  0  0  0  0
   57.2367   30.7661   42.9421 H   0  0  0  0  0  0  0  0  0  0  0  0
   58.3197   29.3330   42.9421 H   0  0  0  0  0  0  0  0  0  0  0  0
   59.8586   34.9653   48.7567 H   0  0  0  0  0  0  0  0  0  0  0  0
   60.7722   34.6221   50.2741 H   0  0  0  0  0  0  0  0  0  0  0  0
   60.7924   34.4684   46.6303 H   0  0  0  0  0  0  0  0  0  0  0  0
   62.7366   33.6689   45.2890 H   0  0  0  0  0  0  0  0  0  0  0  0
   64.6291   32.4833   46.4084 H   0  0  0  0  0  0  0  0  0  0  0  0
   64.5509   32.0503   48.8662 H   0  0  0  0  0  0  0  0  0  0  0  0
   62.6053   32.8387   50.2156 H   0  0  0  0  0  0  0  0  0  0  0  0
   60.4063   30.6087   49.8437 H   0  0  0  0  0  0  0  0  0  0  0  0
   60.0526   28.7490   48.1793 H   0  0  0  0  0  0  0  0  0  0  0  0
   57.8008   34.2952   47.9019 H   0  0  0  0  0  0  0  0  0  0  0  0
   58.9878   34.1913   46.5371 H   0  0  0  0  0  0  0  0  0  0  0  0
   56.0581   33.3080   46.5441 H   0  0  0  0  0  0  0  0  0  0  0  0
   56.8475   34.6120   45.5548 H   0  0  0  0  0  0  0  0  0  0  0  0
   56.3326   32.4126   44.3227 H   0  0  0  0  0  0  0  0  0  0  0  0
   58.0216   33.0256   44.2098 H   0  0  0  0  0  0  0  0  0  0  0  0
   58.3356   25.6983   44.1704 H   0  0  0  0  0  0  0  0  0  0  0  0
   58.0424   23.5326   42.9711 H   0  0  0  0  0  0  0  0  0  0  0  0
  1  2  1  0
  2  3  1  0
  3  4  2  0
  4  5  1  0
  5  6  2  0
  6  7  1  0
  7  8  1  0
  8  9  1  0
  8 10  1  0
 10 11  1  0
 11 12  1  0
 12 13  2  0
 13 14  1  0
 13 15  1  0
 15 16  1  0
 16 17  2  0
 17 18  1  0
 18 19  1  0
 19 20  1  0
 20 21  1  0
 21 22  2  0
 22 23  1  0
 23 24  2  0
 24 25  1  0
 25 26  2  0
 18 27  2  0
 27 28  1  0
 28 29  2  0
 17 30  1  0
 30 31  1  0
 31 32  1  0
  6 33  1  0
 33 34  2  0
 34  3  1  0
 29 12  1  0
 32 15  1  0
 29 16  1  0
 26 21  1  0
  1 35  1  0
  1 36  1  0
  1 37  1  0
  4 38  1  0
  5 39  1  0
  7 40  1  0
  7 41  1  0
  9 42  1  0
  9 43  1  0
  9 44  1  0
 10 45  1  0
 10 46  1  0
 11 47  1  0
 11 48  1  0
 14 49  1  0
 14 50  1  0
 14 51  1  0
 20 52  1  0
 20 53  1  0
 22 54  1  0
 23 55  1  0
 24 56  1  0
 25 57  1  0
 26 58  1  0
 27 59  1  0
 28 60  1  0
 30 61  1  0
 30 62  1  0
 31 63  1  0
 31 64  1  0
 32 65  1  0
 32 66  1  0
 33 67  1  0
 34 68  1  0
M  END
>  <UniqueID>  (23) 
22

>  <SMILES>  (23) 
COc1ccc(CN(C)CCc2c(C)n3c4c(c(OCc5ccccc5)ccc24)CCC3)cc1

>  <Energy>  (23) 
114.39761324440633

>  <Genealogy>  (23) 
COc1ccc(CN(C)CCc2c(C)n3c4c(c(OCc5ccccc5)ccc24)CCC3)cc1 (3D coordinates assigned)
COc1ccc(CN(C)CCc2c(C)n3c4c(c(OCc5ccccc5)ccc24)CCC3)cc1 (nonaromatic ring conformer: 114.39761324440633 kcal/mol)

>  <smiles>  (23) 
COc1ccc(CN(C)CCc2c(C)n3c4c(c(OCc5ccccc5)ccc24)CCC3)cc1

>  <score_type>  (23) 
oracle

>  <origin>  (23) 
adg

>  <m_score__min__energy>  (23) 
-9.7200000000000006

>  <m_primary>  (23) 
energy

$$$$
23:0
     RDKit          3D

 47 49  0  0  0  0  0  0  0  0999 V2000
   61.5871   30.5863   49.1186 H   0  0  0  0  0  0  0  0  0  0  0  0
   60.8560   30.3260   48.3390 C   0  0  0  0  0  0  0  0  0  0  0  0
   59.6100   29.8060   48.6970 C   0  0  0  0  0  0  0  0  0  0  0  0
   59.3605   29.6582   49.7581 H   0  0  0  0  0  0  0  0  0  0  0  0
   58.6790   29.4730   47.7070 C   0  0  0  0  0  0  0  0  0  0  0  0
   57.6974   29.0667   47.9922 H   0  0  0  0  0  0  0  0  0  0  0  0
   58.9940   29.6560   46.3480 C   0  0  0  0  0  0  0  0  0  0  0  0
   58.0100   29.3090   45.2920 C   0  0  0  0  0  0  0  0  0  0  0  0
   57.4400   30.2440   44.5910 N   0  0  0  0  0  0  0  0  0  0  0  0
   56.7880   31.3090   45.1750 O   0  0  0  0  0  0  0  0  0  0  0  0
   57.1930   32.6390   44.9020 C   0  0  0  0  0  0  0  0  0  0  0  0
   57.6394   32.6894   43.8979 H   0  0  0  0  0  0  0  0  0  0  0  0
   56.3210   33.3082   44.9446 H   0  0  0  0  0  0  0  0  0  0  0  0
   58.2060   33.0630   45.9240 C   0  0  0  0  0  0  0  0  0  0  0  0
   57.9850   32.8150   47.2880 C   0  0  0  0  0  0  0  0  0  0  0  0
   57.0483   32.3392   47.6139 H   0  0  0  0  0  0  0  0  0  0  0  0
   58.9520   33.1710   48.2340 C   0  0  0  0  0  0  0  0  0  0  0  0
   58.7701   32.9832   49.3025 H   0  0  0  0  0  0  0  0  0  0  0  0
   60.1490   33.7650   47.8240 C   0  0  0  0  0  0  0  0  0  0  0  0
   61.3620   34.2070   49.0120 Cl  0  0  0  0  0  0  0  0  0  0  0  0
   60.3820   33.9980   46.4650 C   0  0  0  0  0  0  0  0  0  0  0  0
   61.3256   34.4615   46.1414 H   0  0  0  0  0  0  0  0  0  0  0  0
   59.4180   33.6430   45.5170 C   0  0  0  0  0  0  0  0  0  0  0  0
   59.6097   33.8187   44.4482 H   0  0  0  0  0  0  0  0  0  0  0  0
   57.6400   27.8900   45.0370 C   0  0  0  0  0  0  0  0  0  0  0  0
   58.1110   27.2290   43.8900 C   0  0  0  0  0  0  0  0  0  0  0  0
   58.7552   27.7655   43.1778 H   0  0  0  0  0  0  0  0  0  0  0  0
   57.7690   25.8980   43.6460 C   0  0  0  0  0  0  0  0  0  0  0  0
   58.1425   25.3958   42.7414 H   0  0  0  0  0  0  0  0  0  0  0  0
   56.9510   25.1940   44.5470 C   0  0  0  0  0  0  0  0  0  0  0  0
   56.5840   23.8560   44.3330 O   0  0  0  0  0  0  0  0  0  0  0  0
   56.4230   23.2590   43.0500 C   0  0  0  0  0  0  0  0  0  0  0  0
   56.1383   22.2033   43.1699 H   0  0  0  0  0  0  0  0  0  0  0  0
   55.6360   23.7902   42.4946 H   0  0  0  0  0  0  0  0  0  0  0  0
   57.3703   23.3225   42.4946 H   0  0  0  0  0  0  0  0  0  0  0  0
   56.4810   25.8380   45.7020 C   0  0  0  0  0  0  0  0  0  0  0  0
   55.6680   25.1090   46.5850 O   0  0  0  0  0  0  0  0  0  0  0  0
   56.1120   24.0030   47.3640 C   0  0  0  0  0  0  0  0  0  0  0  0
   56.0149   24.2448   48.4327 H   0  0  0  0  0  0  0  0  0  0  0  0
   55.4985   23.1203   47.1306 H   0  0  0  0  0  0  0  0  0  0  0  0
   57.1655   23.7895   47.1306 H   0  0  0  0  0  0  0  0  0  0  0  0
   56.8310   27.1810   45.9430 C   0  0  0  0  0  0  0  0  0  0  0  0
   56.4667   27.6819   46.8520 H   0  0  0  0  0  0  0  0  0  0  0  0
   60.2490   30.1830   45.9990 C   0  0  0  0  0  0  0  0  0  0  0  0
   60.5040   30.3342   44.9397 H   0  0  0  0  0  0  0  0  0  0  0  0
   61.1750   30.5160   46.9920 C   0  0  0  0  0  0  0  0  0  0  0  0
   62.1559   30.9281   46.7126 H   0  0  0  0  0  0  0  0  0  0  0  0
  1  2  1  0
  2  3  2  0
  3  4  1  0
  3  5  1  0
  5  6  1  0
  5  7  2  0
  7  8  1  0
  8  9  2  0
  9 10  1  0
 10 11  1  0
 11 12  1  0
 11 13  1  0
 11 14  1  0
 14 15  2  0
 15 16  1  0
 15 17  1  0
 17 18  1  0
 17 19  2  0
 19 20  1  0
 19 21  1  0
 21 22  1  0
 21 23  2  0
 23 24  1  0
  8 25  1  0
 25 26  2  0
 26 27  1  0
 26 28  1  0
 28 29  1  0
 28 30  2  0
 30 31  1  0
 31 32  1  0
 32 33  1  0
 32 34  1  0
 32 35  1  0
 30 36  1  0
 36 37  1  0
 37 38  1  0
 38 39  1  0
 38 40  1  0
 38 41  1  0
 36 42  2  0
 42 43  1  0
  7 44  1  0
 44 45  1  0
 44 46  2  0
 46 47  1  0
 46  2  1  0
 23 14  1  0
 42 25  1  0
M  END
>  <UniqueID>  (24) 
23

>  <SMILES>  (24) 
COc1ccc(/C(=N/OCc2ccc(Cl)cc2)c2ccccc2)cc1OC

>  <Energy>  (24) 
52.02983746217867

>  <Genealogy>  (24) 
COc1ccc(/C(=N/OCc2ccc(Cl)cc2)c2ccccc2)cc1OC (cis-trans isomerization)
COc1ccc(/C(=N/OCc2ccc(Cl)cc2)c2ccccc2)cc1OC (3D coordinates assigned)
COc1ccc(/C(=N/OCc2ccc(Cl)cc2)c2ccccc2)cc1OC (optimized conformer: 52.02983746217867 kcal/mol)

>  <smiles>  (24) 
COc1ccc(C(=NOCc2ccc(Cl)cc2)c2ccccc2)cc1OC

>  <score_type>  (24) 
oracle

>  <origin>  (24) 
adg

>  <m_score__min__energy>  (24) 
-8.0899999999999999

>  <m_primary>  (24) 
energy

$$$$
24:0
     RDKit          3D

 47 49  0  0  0  0  0  0  0  0999 V2000
   61.8550   33.9470   50.6750 F   0  0  0  0  0  0  0  0  0  0  0  0
   62.2860   33.7550   49.4020 C   0  0  0  0  0  0  0  0  0  0  0  0
   63.5950   33.3070   49.1890 C   0  0  0  0  0  0  0  0  0  0  0  0
   64.0700   33.1160   47.8880 C   0  0  0  0  0  0  0  0  0  0  0  0
   63.2400   33.3810   46.7960 C   0  0  0  0  0  0  0  0  0  0  0  0
   61.9330   33.8300   47.0020 C   0  0  0  0  0  0  0  0  0  0  0  0
   61.4390   34.0090   48.3050 C   0  0  0  0  0  0  0  0  0  0  0  0
   60.0190   34.4740   48.5010 C   0  0  0  0  0  0  0  0  0  0  0  0
   59.1040   33.4140   48.2240 O   0  0  0  0  0  0  0  0  0  0  0  0
   58.7000   32.9960   46.9430 C   0  0  0  0  0  0  0  0  0  0  0  0
   57.8410   33.7740   46.1410 C   0  0  0  0  0  0  0  0  0  0  0  0
   57.4450   33.3210   44.8810 C   0  0  0  0  0  0  0  0  0  0  0  0
   57.8980   32.0900   44.4030 C   0  0  0  0  0  0  0  0  0  0  0  0
   57.3870   31.5190   42.8250 Cl  0  0  0  0  0  0  0  0  0  0  0  0
   58.7530   31.3110   45.1850 C   0  0  0  0  0  0  0  0  0  0  0  0
   59.1730   31.7610   46.4490 C   0  0  0  0  0  0  0  0  0  0  0  0
   60.0470   30.8740   47.3030 C   0  0  0  0  0  0  0  0  0  0  0  0
   59.7640   31.0980   48.7280 N   0  0  0  0  0  0  0  0  0  0  0  0
   59.9970   29.8740   49.5110 C   0  0  0  0  0  0  0  0  0  0  0  0
   58.9380   29.6930   50.6120 C   0  0  0  0  0  0  0  0  0  0  0  0
   58.5340   31.0060   51.2180 C   0  0  0  0  0  0  0  0  0  0  0  0
   57.4480   31.0850   52.1020 C   0  0  0  0  0  0  0  0  0  0  0  0
   57.1200   32.3150   52.6770 C   0  0  0  0  0  0  0  0  0  0  0  0
   57.8750   33.4470   52.3700 C   0  0  0  0  0  0  0  0  0  0  0  0
   58.9540   33.3330   51.4920 C   0  0  0  0  0  0  0  0  0  0  0  0
   59.2600   32.1270   50.9430 N   0  0  0  0  0  0  0  0  0  0  0  0
   64.2519   33.1046   50.0478 H   0  0  0  0  0  0  0  0  0  0  0  0
   65.0969   32.7572   47.7243 H   0  0  0  0  0  0  0  0  0  0  0  0
   63.6160   33.2360   45.7725 H   0  0  0  0  0  0  0  0  0  0  0  0
   61.2866   34.0448   46.1383 H   0  0  0  0  0  0  0  0  0  0  0  0
   59.8864   34.8041   49.5419 H   0  0  0  0  0  0  0  0  0  0  0  0
   59.8186   35.3069   47.8110 H   0  0  0  0  0  0  0  0  0  0  0  0
   57.4799   34.7452   46.5104 H   0  0  0  0  0  0  0  0  0  0  0  0
   56.7741   33.9359   44.2631 H   0  0  0  0  0  0  0  0  0  0  0  0
   59.1008   30.3375   44.8092 H   0  0  0  0  0  0  0  0  0  0  0  0
   59.8478   29.8211   47.0547 H   0  0  0  0  0  0  0  0  0  0  0  0
   61.1020   31.1148   47.1057 H   0  0  0  0  0  0  0  0  0  0  0  0
   60.3830   31.8630   49.0830 H   0  0  0  0  0  0  0  0  0  0  0  0
   58.7620   31.3880   48.8330 H   0  0  0  0  0  0  0  0  0  0  0  0
   59.9610   29.0065   48.8356 H   0  0  0  0  0  0  0  0  0  0  0  0
   60.9822   29.9575   49.9931 H   0  0  0  0  0  0  0  0  0  0  0  0
   58.0492   29.2136   50.1758 H   0  0  0  0  0  0  0  0  0  0  0  0
   59.3737   29.0693   51.4064 H   0  0  0  0  0  0  0  0  0  0  0  0
   56.8599   30.1865   52.3403 H   0  0  0  0  0  0  0  0  0  0  0  0
   56.2689   32.3907   53.3698 H   0  0  0  0  0  0  0  0  0  0  0  0
   57.6224   34.4204   52.8157 H   0  0  0  0  0  0  0  0  0  0  0  0
   59.5570   34.2189   51.2440 H   0  0  0  0  0  0  0  0  0  0  0  0
  1  2  1  0
  2  3  2  0
  3  4  1  0
  4  5  2  0
  5  6  1  0
  6  7  2  0
  7  8  1  0
  8  9  1  0
  9 10  1  0
 10 11  2  0
 11 12  1  0
 12 13  2  0
 13 14  1  0
 13 15  1  0
 15 16  2  0
 16 17  1  0
 17 18  1  0
 18 19  1  0
 19 20  1  0
 20 21  1  0
 21 22  2  0
 22 23  1  0
 23 24  2  0
 24 25  1  0
 25 26  2  0
  7  2  1  0
 16 10  1  0
 26 21  1  0
  3 27  1  0
  4 28  1  0
  5 29  1  0
  6 30  1  0
  8 31  1  0
  8 32  1  0
 11 33  1  0
 12 34  1  0
 15 35  1  0
 17 36  1  0
 17 37  1  0
 18 38  1  0
 18 39  1  0
 19 40  1  0
 19 41  1  0
 20 42  1  0
 20 43  1  0
 22 44  1  0
 23 45  1  0
 24 46  1  0
 25 47  1  0
M  CHG  1  18   1
M  END
>  <UniqueID>  (25) 
24

>  <SMILES>  (25) 
Fc1ccccc1COc1ccc(Cl)cc1C[NH2+]CCc1ccccn1

>  <Energy>  (25) 
45.42581252230495

>  <Genealogy>  (25) 
Fc1ccccc1COc1ccc(Cl)cc1C[NH2+]CCc1ccccn1 (protonated)
Fc1ccccc1COc1ccc(Cl)cc1C[NH2+]CCc1ccccn1 (3D coordinates assigned)
Fc1ccccc1COc1ccc(Cl)cc1C[NH2+]CCc1ccccn1 (optimized conformer: 45.42581252230495 kcal/mol)

>  <smiles>  (25) 
Fc1ccccc1COc1ccc(Cl)cc1CNCCc1ccccn1

>  <score_type>  (25) 
oracle

>  <origin>  (25) 
adg

>  <m_score__min__energy>  (25) 
-5.3700000000000001

>  <m_primary>  (25) 
energy

$$$$
25:0
     RDKit          3D

 32 34  0  0  0  0  0  0  0  0999 V2000
   66.1160   33.4610   50.5050 C   0  0  0  0  0  0  0  0  0  0  0  0
   64.4460   32.8480   50.4650 S   0  0  0  0  0  0  0  0  0  0  0  0
   63.3060   34.2110   50.5190 C   0  0  0  0  0  0  0  0  0  0  0  0
   61.9700   33.8040   49.8920 C   0  0  0  0  0  0  0  0  0  0  0  0
   62.1080   33.3100   48.5070 N   0  0  0  0  0  0  0  0  0  0  0  0
   60.9360   33.2920   47.6680 C   0  0  0  0  0  0  0  0  0  0  0  0
   60.4510   32.1740   47.0720 N   0  0  0  0  0  0  0  0  0  0  0  0
   59.3470   32.4410   46.3240 C   0  0  0  0  0  0  0  0  0  0  0  0
   58.6190   31.4960   45.5830 C   0  0  0  0  0  0  0  0  0  0  0  0
   59.1070   29.6460   45.5440 Br  0  0  0  0  0  0  0  0  0  0  0  0
   57.4970   31.9320   44.8540 C   0  0  0  0  0  0  0  0  0  0  0  0
   57.1170   33.2890   44.8670 C   0  0  0  0  0  0  0  0  0  0  0  0
   57.8530   34.2250   45.6070 C   0  0  0  0  0  0  0  0  0  0  0  0
   58.9580   33.7730   46.3230 C   0  0  0  0  0  0  0  0  0  0  0  0
   60.0150   34.6630   47.2780 S   0  0  0  0  0  0  0  0  0  0  0  0
   63.4070   32.8750   47.9610 C   0  0  0  0  0  0  0  0  0  0  0  0
   64.1450   31.9710   48.9470 C   0  0  0  0  0  0  0  0  0  0  0  0
   66.4382   33.5793   51.5501 H   0  0  0  0  0  0  0  0  0  0  0  0
   66.7806   32.7482   49.9948 H   0  0  0  0  0  0  0  0  0  0  0  0
   66.1616   34.4345   49.9948 H   0  0  0  0  0  0  0  0  0  0  0  0
   63.1417   34.5067   51.5657 H   0  0  0  0  0  0  0  0  0  0  0  0
   63.7270   35.0553   49.9534 H   0  0  0  0  0  0  0  0  0  0  0  0
   61.5235   33.0074   50.5052 H   0  0  0  0  0  0  0  0  0  0  0  0
   61.3355   34.7020   49.8588 H   0  0  0  0  0  0  0  0  0  0  0  0
   60.8900   31.2300   47.1500 H   0  0  0  0  0  0  0  0  0  0  0  0
   56.9116   31.2074   44.2690 H   0  0  0  0  0  0  0  0  0  0  0  0
   56.2374   33.6158   44.2929 H   0  0  0  0  0  0  0  0  0  0  0  0
   57.5655   35.2867   45.6215 H   0  0  0  0  0  0  0  0  0  0  0  0
   63.2361   32.3219   47.0256 H   0  0  0  0  0  0  0  0  0  0  0  0
   64.0240   33.7668   47.7766 H   0  0  0  0  0  0  0  0  0  0  0  0
   63.5322   31.0815   49.1551 H   0  0  0  0  0  0  0  0  0  0  0  0
   65.1066   31.6661   48.5084 H   0  0  0  0  0  0  0  0  0  0  0  0
  1  2  1  0
  2  3  1  0
  3  4  1  0
  4  5  1  0
  5  6  1  0
  6  7  2  0
  7  8  1  0
  8  9  2  0
  9 10  1  0
  9 11  1  0
 11 12  2  0
 12 13  1  0
 13 14  2  0
 14 15  1  0
  5 16  1  0
 16 17  1  0
 17  2  1  0
 15  6  1  0
 14  8  1  0
  1 18  1  0
  1 19  1  0
  1 20  1  0
  3 21  1  0
  3 22  1  0
  4 23  1  0
  4 24  1  0
  7 25  1  0
 11 26  1  0
 12 27  1  0
 13 28  1  0
 16 29  1  0
 16 30  1  0
 17 31  1  0
 17 32  1  0
M  CHG  2   2   1   7   1
M  END
>  <UniqueID>  (26) 
25

>  <SMILES>  (26) 
C[S+]1CCN(c2[nH+]c3c(Br)cccc3s2)CC1

>  <Energy>  (26) 
62.405132720019566

>  <Genealogy>  (26) 
C[S+]1CCN(c2[nH+]c3c(Br)cccc3s2)CC1 (protonated)
C[S+]1CCN(c2[nH+]c3c(Br)cccc3s2)CC1 (3D coordinates assigned)
C[S+]1CCN(c2[nH+]c3c(Br)cccc3s2)CC1 (nonaromatic ring conformer: 62.405132720019566 kcal/mol)

>  <smiles>  (26) 
C[S+]1CCN(c2nc3c(Br)cccc3s2)CC1

>  <score_type>  (26) 
oracle

>  <origin>  (26) 
adg

>  <m_score__min__energy>  (26) 
-4.0999999999999996

>  <m_primary>  (26) 
energy

$$$$
26:0
     RDKit          3D

 44 44  0  0  0  0  0  0  0  0999 V2000
   58.1650   32.4840   41.1180 C   0  0  0  0  0  0  0  0  0  0  0  0
   57.3910   31.9990   42.3440 C   0  0  0  0  0  0  0  0  0  0  0  0
   58.1940   32.1270   43.5830 N   0  0  0  0  0  0  0  0  0  0  0  0
   58.0030   33.4130   44.2990 C   0  0  0  0  0  0  0  0  0  0  0  0
   57.2550   33.2830   45.6330 C   0  0  0  0  0  0  0  0  0  0  0  0
   58.0260   30.9580   44.4760 C   0  0  0  0  0  0  0  0  0  0  0  0
   57.2910   29.8170   43.7580 C   0  0  0  0  0  0  0  0  0  0  0  0
   55.8200   29.7230   44.1880 C   0  0  0  0  0  0  0  0  0  0  0  0
   55.6400   28.6780   45.1920 N   0  0  0  0  0  0  0  0  0  0  0  0
   56.6470   27.8020   45.7210 C   0  0  0  0  0  0  0  0  0  0  0  0
   57.7260   28.3080   46.1250 O   0  0  0  0  0  0  0  0  0  0  0  0
   56.4710   26.3390   45.8270 C   0  0  0  0  0  0  0  0  0  0  0  0
   57.4130   25.5510   45.5470 O   0  0  0  0  0  0  0  0  0  0  0  0
   55.2120   25.8170   46.2660 N   0  0  0  0  0  0  0  0  0  0  0  0
   54.4480   24.8260   45.5160 C   0  0  0  0  0  0  0  0  0  0  0  0
   55.3650   23.7750   44.9470 C   0  0  0  0  0  0  0  0  0  0  0  0
   55.5790   23.7030   43.5590 C   0  0  0  0  0  0  0  0  0  0  0  0
   56.4320   22.7300   43.0270 C   0  0  0  0  0  0  0  0  0  0  0  0
   57.0640   21.8160   43.8730 C   0  0  0  0  0  0  0  0  0  0  0  0
   56.8460   21.8720   45.2530 C   0  0  0  0  0  0  0  0  0  0  0  0
   56.0020   22.8490   45.7910 C   0  0  0  0  0  0  0  0  0  0  0  0
   59.0554   33.0419   41.4436 H   0  0  0  0  0  0  0  0  0  0  0  0
   58.4752   31.6185   40.5142 H   0  0  0  0  0  0  0  0  0  0  0  0
   57.5214   33.1406   40.5142 H   0  0  0  0  0  0  0  0  0  0  0  0
   56.4754   32.5997   42.4485 H   0  0  0  0  0  0  0  0  0  0  0  0
   57.1494   30.9357   42.1994 H   0  0  0  0  0  0  0  0  0  0  0  0
   58.9936   33.8471   44.4994 H   0  0  0  0  0  0  0  0  0  0  0  0
   57.3838   34.0488   43.6490 H   0  0  0  0  0  0  0  0  0  0  0  0
   57.9643   33.4063   46.4646 H   0  0  0  0  0  0  0  0  0  0  0  0
   56.4785   34.0597   45.6952 H   0  0  0  0  0  0  0  0  0  0  0  0
   56.7861   32.2899   45.6952 H   0  0  0  0  0  0  0  0  0  0  0  0
   59.0174   30.6031   44.7940 H   0  0  0  0  0  0  0  0  0  0  0  0
   57.4287   31.2658   45.3469 H   0  0  0  0  0  0  0  0  0  0  0  0
   57.3337   29.9937   42.6731 H   0  0  0  0  0  0  0  0  0  0  0  0
   57.7854   28.8715   44.0257 H   0  0  0  0  0  0  0  0  0  0  0  0
   55.5055   30.6883   44.6115 H   0  0  0  0  0  0  0  0  0  0  0  0
   55.2098   29.4750   43.3070 H   0  0  0  0  0  0  0  0  0  0  0  0
   53.7197   24.3467   46.1867 H   0  0  0  0  0  0  0  0  0  0  0  0
   53.9265   25.3296   44.6887 H   0  0  0  0  0  0  0  0  0  0  0  0
   55.0738   24.4143   42.8891 H   0  0  0  0  0  0  0  0  0  0  0  0
   56.6050   22.6848   41.9416 H   0  0  0  0  0  0  0  0  0  0  0  0
   57.7340   21.0512   43.4532 H   0  0  0  0  0  0  0  0  0  0  0  0
   57.3391   21.1465   45.9167 H   0  0  0  0  0  0  0  0  0  0  0  0
   55.8363   22.8928   46.8776 H   0  0  0  0  0  0  0  0  0  0  0  0
  1  2  1  0
  2  3  1  0
  3  4  1  0
  4  5  1  0
  3  6  1  0
  6  7  1  0
  7  8  1  0
  8  9  1  0
  9 10  1  0
 10 11  2  0
 10 12  1  0
 12 13  2  0
 12 14  1  0
 14 15  1  0
 15 16  1  0
 16 17  2  0
 17 18  1  0
 18 19  2  0
 19 20  1  0
 20 21  2  0
 21 16  1  0
  1 22  1  0
  1 23  1  0
  1 24  1  0
  2 25  1  0
  2 26  1  0
  4 27  1  0
  4 28  1  0
  5 29  1  0
  5 30  1  0
  5 31  1  0
  6 32  1  0
  6 33  1  0
  7 34  1  0
  7 35  1  0
  8 36  1  0
  8 37  1  0
 15 38  1  0
 15 39  1  0
 17 40  1  0
 18 41  1  0
 19 42  1  0
 20 43  1  0
 21 44  1  0
M  CHG  2   9  -1  14  -1
M  END
>  <UniqueID>  (27) 
26

>  <SMILES>  (27) 
CCN(CC)CCC[N-]C(=O)C(=O)[N-]Cc1ccccc1

>  <Energy>  (27) 
34.188325523178726

>  <Genealogy>  (27) 
CCN(CC)CCC[N-]C(=O)C(=O)[N-]Cc1ccccc1 (protonated)
CCN(CC)CCC[N-]C(=O)C(=O)[N-]Cc1ccccc1 (3D coordinates assigned)
CCN(CC)CCC[N-]C(=O)C(=O)[N-]Cc1ccccc1 (optimized conformer: 34.188325523178726 kcal/mol)

>  <smiles>  (27) 
CCN(CC)CCCNC(=O)C(=O)NCc1ccccc1

>  <score_type>  (27) 
oracle

>  <origin>  (27) 
adg

>  <m_score__min__energy>  (27) 
-9.9900000000000002

>  <m_primary>  (27) 
energy

$$$$
27:0
     RDKit          3D

 37 39  0  0  0  0  0  0  0  0999 V2000
   59.2550   34.9570   45.4930 C   0  0  0  0  0  0  0  0  0  0  0  0
   58.1180   34.1460   44.8810 C   0  0  0  0  0  0  0  0  0  0  0  0
   57.5510   33.1380   45.8890 C   0  0  0  0  0  0  0  0  0  0  0  0
   58.3270   31.8930   45.8680 N   0  0  0  0  0  0  0  0  0  0  0  0
   59.5070   31.6060   46.4920 C   0  0  0  0  0  0  0  0  0  0  0  0
   60.2480   32.5240   47.3830 C   0  0  0  0  0  0  0  0  0  0  0  0
   61.6170   32.7450   47.1640 C   0  0  0  0  0  0  0  0  0  0  0  0
   62.3410   33.5930   48.0090 C   0  0  0  0  0  0  0  0  0  0  0  0
   61.7060   34.2150   49.0860 C   0  0  0  0  0  0  0  0  0  0  0  0
   60.3500   33.9830   49.3260 C   0  0  0  0  0  0  0  0  0  0  0  0
   59.6240   33.1350   48.4840 C   0  0  0  0  0  0  0  0  0  0  0  0
   60.0020   30.3830   46.1610 N   0  0  0  0  0  0  0  0  0  0  0  0
   59.0830   29.8970   45.3110 C   0  0  0  0  0  0  0  0  0  0  0  0
   59.1090   28.6740   44.6450 C   0  0  0  0  0  0  0  0  0  0  0  0
   58.0480   28.3760   43.7630 C   0  0  0  0  0  0  0  0  0  0  0  0
   58.0490   27.0890   42.9940 C   0  0  0  0  0  0  0  0  0  0  0  0
   57.0190   29.3290   43.5520 C   0  0  0  0  0  0  0  0  0  0  0  0
   57.0280   30.5570   44.2360 C   0  0  0  0  0  0  0  0  0  0  0  0
   58.0780   30.8000   45.1240 C   0  0  0  0  0  0  0  0  0  0  0  0
   59.1895   34.9103   46.5901 H   0  0  0  0  0  0  0  0  0  0  0  0
   60.2194   34.5417   45.1652 H   0  0  0  0  0  0  0  0  0  0  0  0
   59.1763   36.0041   45.1652 H   0  0  0  0  0  0  0  0  0  0  0  0
   57.3160   34.8311   44.5688 H   0  0  0  0  0  0  0  0  0  0  0  0
   58.5118   33.5908   44.0169 H   0  0  0  0  0  0  0  0  0  0  0  0
   57.5937   33.5734   46.8983 H   0  0  0  0  0  0  0  0  0  0  0  0
   56.5100   32.9111   45.6156 H   0  0  0  0  0  0  0  0  0  0  0  0
   62.1234   32.2485   46.3231 H   0  0  0  0  0  0  0  0  0  0  0  0
   63.4110   33.7699   47.8249 H   0  0  0  0  0  0  0  0  0  0  0  0
   62.2740   34.8878   49.7454 H   0  0  0  0  0  0  0  0  0  0  0  0
   59.8523   34.4681   50.1787 H   0  0  0  0  0  0  0  0  0  0  0  0
   58.5592   32.9452   48.6844 H   0  0  0  0  0  0  0  0  0  0  0  0
   59.9321   27.9613   44.8017 H   0  0  0  0  0  0  0  0  0  0  0  0
   58.0497   26.2423   43.6962 H   0  0  0  0  0  0  0  0  0  0  0  0
   57.1509   27.0395   42.3608 H   0  0  0  0  0  0  0  0  0  0  0  0
   58.9472   27.0409   42.3608 H   0  0  0  0  0  0  0  0  0  0  0  0
   56.2057   29.1049   42.8460 H   0  0  0  0  0  0  0  0  0  0  0  0
   56.2343   31.3018   44.0771 H   0  0  0  0  0  0  0  0  0  0  0  0
  1  2  1  0
  2  3  1  0
  3  4  1  0
  4  5  1  0
  5  6  1  0
  6  7  2  0
  7  8  1  0
  8  9  2  0
  9 10  1  0
 10 11  2  0
  5 12  2  0
 12 13  1  0
 13 14  2  0
 14 15  1  0
 15 16  1  0
 15 17  2  0
 17 18  1  0
 18 19  2  0
 19  4  1  0
 11  6  1  0
 19 13  1  0
  1 20  1  0
  1 21  1  0
  1 22  1  0
  2 23  1  0
  2 24  1  0
  3 25  1  0
  3 26  1  0
  7 27  1  0
  8 28  1  0
  9 29  1  0
 10 30  1  0
 11 31  1  0
 14 32  1  0
 16 33  1  0
 16 34  1  0
 16 35  1  0
 17 36  1  0
 18 37  1  0
M  END
>  <UniqueID>  (28) 
27

>  <SMILES>  (28) 
CCCn1c(-c2ccccc2)nc2cc(C)ccc21

>  <Energy>  (28) 
75.83565033963018

>  <Genealogy>  (28) 
CCCn1c(-c2ccccc2)nc2cc(C)ccc21 (3D coordinates assigned)
CCCn1c(-c2ccccc2)nc2cc(C)ccc21 (optimized conformer: 75.83565033963018 kcal/mol)

>  <smiles>  (28) 
CCCn1c(-c2ccccc2)nc2cc(C)ccc21

>  <score_type>  (28) 
oracle

>  <origin>  (28) 
adg

>  <m_score__min__energy>  (28) 
-6.7400000000000002

>  <m_primary>  (28) 
energy

$$$$
28:0
     RDKit          3D

 33 34  0  0  0  0  0  0  0  0999 V2000
   59.9780   34.4910   48.6320 C   0  0  0  0  0  0  0  0  0  0  0  0
   59.0630   34.7650   47.5760 O   0  0  0  0  0  0  0  0  0  0  0  0
   58.6510   33.8230   46.6220 C   0  0  0  0  0  0  0  0  0  0  0  0
   58.1890   34.2880   45.3850 C   0  0  0  0  0  0  0  0  0  0  0  0
   57.7670   33.3900   44.4000 C   0  0  0  0  0  0  0  0  0  0  0  0
   57.8030   32.0080   44.6390 C   0  0  0  0  0  0  0  0  0  0  0  0
   57.3250   31.0430   43.5830 C   0  0  0  0  0  0  0  0  0  0  0  0
   55.9700   30.4260   43.9510 C   0  0  0  0  0  0  0  0  0  0  0  0
   56.0810   29.5250   45.0990 N   0  0  0  0  0  0  0  0  0  0  0  0
   56.9370   28.3790   45.0710 C   0  0  0  0  0  0  0  0  0  0  0  0
   57.6560   28.0640   44.0490 N   0  0  0  0  0  0  0  0  0  0  0  0
   58.4060   26.8490   44.3430 C   0  0  0  0  0  0  0  0  0  0  0  0
   58.0020   26.4600   45.7750 C   0  0  0  0  0  0  0  0  0  0  0  0
   57.0620   27.4920   46.1620 N   0  0  0  0  0  0  0  0  0  0  0  0
   58.2640   31.5380   45.8790 C   0  0  0  0  0  0  0  0  0  0  0  0
   58.6860   32.4360   46.8640 C   0  0  0  0  0  0  0  0  0  0  0  0
   59.4768   34.6411   49.5996 H   0  0  0  0  0  0  0  0  0  0  0  0
   60.3244   33.4497   48.5561 H   0  0  0  0  0  0  0  0  0  0  0  0
   60.8397   35.1705   48.5561 H   0  0  0  0  0  0  0  0  0  0  0  0
   58.1577   35.3694   45.1862 H   0  0  0  0  0  0  0  0  0  0  0  0
   57.4050   33.7689   43.4329 H   0  0  0  0  0  0  0  0  0  0  0  0
   57.2248   31.5800   42.6283 H   0  0  0  0  0  0  0  0  0  0  0  0
   58.0617   30.2301   43.5022 H   0  0  0  0  0  0  0  0  0  0  0  0
   55.2655   31.2338   44.1983 H   0  0  0  0  0  0  0  0  0  0  0  0
   55.6129   29.8425   43.0896 H   0  0  0  0  0  0  0  0  0  0  0  0
   55.5390   29.7110   45.9730 H   0  0  0  0  0  0  0  0  0  0  0  0
   58.1376   26.0499   43.6363 H   0  0  0  0  0  0  0  0  0  0  0  0
   59.4911   27.0041   44.2505 H   0  0  0  0  0  0  0  0  0  0  0  0
   57.5247   25.4691   45.7919 H   0  0  0  0  0  0  0  0  0  0  0  0
   58.8631   26.3922   46.4561 H   0  0  0  0  0  0  0  0  0  0  0  0
   56.5670   27.5660   47.0790 H   0  0  0  0  0  0  0  0  0  0  0  0
   58.2934   30.4563   46.0768 H   0  0  0  0  0  0  0  0  0  0  0  0
   59.0468   32.0577   47.8318 H   0  0  0  0  0  0  0  0  0  0  0  0
  1  2  1  0
  2  3  1  0
  3  4  2  0
  4  5  1  0
  5  6  2  0
  6  7  1  0
  7  8  1  0
  8  9  1  0
  9 10  1  0
 10 11  2  0
 11 12  1  0
 12 13  1  0
 13 14  1  0
  6 15  1  0
 15 16  2  0
 16  3  1  0
 14 10  1  0
  1 17  1  0
  1 18  1  0
  1 19  1  0
  4 20  1  0
  5 21  1  0
  7 22  1  0
  7 23  1  0
  8 24  1  0
  8 25  1  0
  9 26  1  0
 12 27  1  0
 12 28  1  0
 13 29  1  0
 13 30  1  0
 14 31  1  0
 15 32  1  0
 16 33  1  0
M  END
>  <UniqueID>  (29) 
28

>  <SMILES>  (29) 
COc1ccc(CCNC2=NCCN2)cc1

>  <Energy>  (29) 
38.55608422375507

>  <Genealogy>  (29) 
COc1ccc(CCNC2=NCCN2)cc1 (3D coordinates assigned)
COc1ccc(CCNC2=NCCN2)cc1 (nonaromatic ring conformer: 38.55608422375507 kcal/mol)

>  <smiles>  (29) 
COc1ccc(CCNC2=NCCN2)cc1

>  <score_type>  (29) 
oracle

>  <origin>  (29) 
adg

>  <m_score__min__energy>  (29) 
-5.7300000000000004

>  <m_primary>  (29) 
energy

$$$$
29:0
     RDKit          3D

 49 50  0  0  0  0  0  0  0  0999 V2000
   58.8940   33.4600   51.8520 C   0  0  0  0  0  0  0  0  0  0  0  0
   59.1810   33.0810   50.6030 C   0  0  0  0  0  0  0  0  0  0  0  0
   60.1560   33.8500   49.7520 C   0  0  0  0  0  0  0  0  0  0  0  0
   59.8720   33.6510   48.2790 C   0  0  0  0  0  0  0  0  0  0  0  0
   59.6120   34.7780   47.4780 C   0  0  0  0  0  0  0  0  0  0  0  0
   59.2070   34.6310   46.1490 C   0  0  0  0  0  0  0  0  0  0  0  0
   59.0330   33.3570   45.6060 C   0  0  0  0  0  0  0  0  0  0  0  0
   59.3020   32.2240   46.3840 C   0  0  0  0  0  0  0  0  0  0  0  0
   59.7880   32.3650   47.6920 C   0  0  0  0  0  0  0  0  0  0  0  0
   60.1990   31.1650   48.3770 N   0  0  0  0  0  0  0  0  0  0  0  0
   61.6140   31.0090   48.7500 C   0  0  0  0  0  0  0  0  0  0  0  0
   62.5360   31.3910   47.5660 C   0  0  0  0  0  0  0  0  0  0  0  0
   63.7590   32.1730   47.9230 N   0  0  0  0  0  0  0  0  0  0  0  0
   64.1290   32.1620   49.3630 C   0  0  0  0  0  0  0  0  0  0  0  0
   63.7320   33.4610   50.0730 C   0  0  0  0  0  0  0  0  0  0  0  0
   63.7700   33.5430   47.3440 C   0  0  0  0  0  0  0  0  0  0  0  0
   62.6330   33.8380   46.3600 C   0  0  0  0  0  0  0  0  0  0  0  0
   59.3630   29.9560   48.2480 C   0  0  0  0  0  0  0  0  0  0  0  0
   58.5250   29.9360   46.9450 C   0  0  0  0  0  0  0  0  0  0  0  0
   59.1040   30.8350   45.8440 C   0  0  0  0  0  0  0  0  0  0  0  0
   58.1776   32.8796   52.4520 H   0  0  0  0  0  0  0  0  0  0  0  0
   59.3742   34.3523   52.2801 H   0  0  0  0  0  0  0  0  0  0  0  0
   58.6937   32.1867   50.1873 H   0  0  0  0  0  0  0  0  0  0  0  0
   60.0749   34.9205   49.9917 H   0  0  0  0  0  0  0  0  0  0  0  0
   61.1703   33.4809   49.9642 H   0  0  0  0  0  0  0  0  0  0  0  0
   59.7289   35.7859   47.9028 H   0  0  0  0  0  0  0  0  0  0  0  0
   59.0248   35.5213   45.5292 H   0  0  0  0  0  0  0  0  0  0  0  0
   58.6852   33.2431   44.5687 H   0  0  0  0  0  0  0  0  0  0  0  0
   61.8361   31.6626   49.6064 H   0  0  0  0  0  0  0  0  0  0  0  0
   61.7964   29.9573   49.0160 H   0  0  0  0  0  0  0  0  0  0  0  0
   62.8605   30.4609   47.0766 H   0  0  0  0  0  0  0  0  0  0  0  0
   61.9370   32.0495   46.9198 H   0  0  0  0  0  0  0  0  0  0  0  0
   64.5460   31.6920   47.4240 H   0  0  0  0  0  0  0  0  0  0  0  0
   63.6185   31.3200   49.8534 H   0  0  0  0  0  0  0  0  0  0  0  0
   65.2223   32.0613   49.4298 H   0  0  0  0  0  0  0  0  0  0  0  0
   63.7774   33.3123   51.1620 H   0  0  0  0  0  0  0  0  0  0  0  0
   64.4257   34.2640   49.7833 H   0  0  0  0  0  0  0  0  0  0  0  0
   62.7079   33.7390   49.7833 H   0  0  0  0  0  0  0  0  0  0  0  0
   63.7009   34.2641   48.1718 H   0  0  0  0  0  0  0  0  0  0  0  0
   64.7042   33.6270   46.7693 H   0  0  0  0  0  0  0  0  0  0  0  0
   61.7163   34.0758   46.9196 H   0  0  0  0  0  0  0  0  0  0  0  0
   62.9088   34.6943   45.7270 H   0  0  0  0  0  0  0  0  0  0  0  0
   62.4577   32.9556   45.7270 H   0  0  0  0  0  0  0  0  0  0  0  0
   60.0194   29.0734   48.2563 H   0  0  0  0  0  0  0  0  0  0  0  0
   58.6583   29.9514   49.0926 H   0  0  0  0  0  0  0  0  0  0  0  0
   58.4863   28.9029   46.5693 H   0  0  0  0  0  0  0  0  0  0  0  0
   57.5249   30.3218   47.1918 H   0  0  0  0  0  0  0  0  0  0  0  0
   60.0708   30.4299   45.5105 H   0  0  0  0  0  0  0  0  0  0  0  0
   58.4073   30.8681   44.9934 H   0  0  0  0  0  0  0  0  0  0  0  0
  1  2  2  0
  2  3  1  0
  3  4  1  0
  4  5  2  0
  5  6  1  0
  6  7  2  0
  7  8  1  0
  8  9  2  0
  9 10  1  0
 10 11  1  0
 11 12  1  0
 12 13  1  0
 13 14  1  0
 14 15  1  0
 13 16  1  0
 16 17  1  0
 10 18  1  0
 18 19  1  0
 19 20  1  0
  9  4  1  0
 20  8  1  0
  1 21  1  0
  1 22  1  0
  2 23  1  0
  3 24  1  0
  3 25  1  0
  5 26  1  0
  6 27  1  0
  7 28  1  0
 11 29  1  0
 11 30  1  0
 12 31  1  0
 12 32  1  0
 13 33  1  0
 14 34  1  0
 14 35  1  0
 15 36  1  0
 15 37  1  0
 15 38  1  0
 16 39  1  0
 16 40  1  0
 17 41  1  0
 17 42  1  0
 17 43  1  0
 18 44  1  0
 18 45  1  0
 19 46  1  0
 19 47  1  0
 20 48  1  0
 20 49  1  0
M  CHG  1  13   1
M  END
>  <UniqueID>  (30) 
29

>  <SMILES>  (30) 
C=CCc1cccc2c1N(CC[NH+](CC)CC)CCC2

>  <Energy>  (30) 
59.463366646461424

>  <Genealogy>  (30) 
C=CCc1cccc2c1N(CC[NH+](CC)CC)CCC2 (protonated)
C=CCc1cccc2c1N(CC[NH+](CC)CC)CCC2 (3D coordinates assigned)
C=CCc1cccc2c1N(CC[NH+](CC)CC)CCC2 (nonaromatic ring conformer: 59.463366646461424 kcal/mol)

>  <smiles>  (30) 
C=CCc1cccc2c1N(CCN(CC)CC)CCC2

>  <score_type>  (30) 
oracle

>  <origin>  (30) 
adg

>  <m_score__min__energy>  (30) 
-5.3700000000000001

>  <m_primary>  (30) 
energy

$$$$
30:0
     RDKit          3D

 41 44  0  0  1  0  0  0  0  0999 V2000
   63.4860   34.5740   51.0580 C   0  0  0  0  0  0  0  0  0  0  0  0
   62.9970   34.8320   49.7540 O   0  0  0  0  0  0  0  0  0  0  0  0
   62.3180   33.8130   49.0770 C   0  0  0  0  0  0  0  0  0  0  0  0
   62.9910   32.9420   48.2490 C   0  0  0  0  0  0  0  0  0  0  0  0
   62.3300   31.9300   47.5750 C   0  0  0  0  0  0  0  0  0  0  0  0
   60.9500   31.7720   47.7240 C   0  0  0  0  0  0  0  0  0  0  0  0
   60.2460   30.7130   47.0200 C   0  0  0  0  0  0  0  0  0  0  0  0
   59.0590   30.8410   46.4060 N   0  0  0  0  0  0  0  0  0  0  0  0
   58.6580   29.7050   45.8450 C   0  0  0  0  0  0  0  0  0  0  0  0
   57.5860   29.2550   45.1220 C   0  0  0  0  0  0  0  0  0  0  0  0
   56.6440   30.0870   44.8550 N   0  0  0  0  0  0  0  0  0  0  0  0
   56.7320   31.2150   43.9780 C   0  0  0  0  0  0  0  0  0  0  0  0
   57.4010   32.3850   44.6190 C   0  0  0  0  0  0  0  0  0  0  0  0
   58.4130   33.0970   43.9940 C   0  0  0  0  0  0  0  0  0  0  0  0
   59.0330   34.1840   44.5980 C   0  0  0  0  0  0  0  0  0  0  0  0
   58.6520   34.5910   45.8560 C   0  0  0  0  0  0  0  0  0  0  0  0
   57.6420   33.8700   46.4640 C   0  0  0  0  0  0  0  0  0  0  0  0
   57.0590   32.8220   45.8570 N   0  0  0  0  0  0  0  0  0  0  0  0
   57.4610   27.9950   44.6750 N   0  0  0  0  0  0  0  0  0  0  0  0
   58.4550   27.1410   44.9640 C   0  0  0  0  0  0  0  0  0  0  0  0
   59.5430   27.5190   45.6730 N   0  0  0  0  0  0  0  0  0  0  0  0
   59.6700   28.7830   46.1240 C   0  0  0  0  0  0  0  0  0  0  0  0
   60.6240   29.4300   46.8410 N   0  0  0  0  0  0  0  0  0  0  0  0
   60.2780   32.6400   48.5500 C   0  0  0  0  0  0  0  0  0  0  0  0
   60.9490   33.6440   49.2150 C   0  0  0  0  0  0  0  0  0  0  0  0
   62.7681   34.9528   51.8004 H   0  0  0  0  0  0  0  0  0  0  0  0
   63.6157   33.4901   51.1932 H   0  0  0  0  0  0  0  0  0  0  0  0
   64.4539   35.0788   51.1932 H   0  0  0  0  0  0  0  0  0  0  0  0
   64.0778   33.0532   48.1206 H   0  0  0  0  0  0  0  0  0  0  0  0
   62.8927   31.2483   46.9203 H   0  0  0  0  0  0  0  0  0  0  0  0
   57.3067   30.9247   43.0861 H   0  0  0  0  0  0  0  0  0  0  0  0
   55.7069   31.5170   43.7172 H   0  0  0  0  0  0  0  0  0  0  0  0
   58.7355   32.7917   42.9876 H   0  0  0  0  0  0  0  0  0  0  0  0
   59.8326   34.7220   44.0677 H   0  0  0  0  0  0  0  0  0  0  0  0
   59.1283   35.4487   46.3535 H   0  0  0  0  0  0  0  0  0  0  0  0
   57.3066   34.1611   47.4704 H   0  0  0  0  0  0  0  0  0  0  0  0
   56.6310   27.6870   44.1260 H   0  0  0  0  0  0  0  0  0  0  0  0
   58.3826   26.1009   44.6133 H   0  0  0  0  0  0  0  0  0  0  0  0
   61.4940   28.9970   47.1880 H   0  0  0  0  0  0  0  0  0  0  0  0
   59.1913   32.5326   48.6824 H   0  0  0  0  0  0  0  0  0  0  0  0
   60.3859   34.3258   49.8693 H   0  0  0  0  0  0  0  0  0  0  0  0
  1  2  1  0
  2  3  1  0
  3  4  2  0
  4  5  1  0
  5  6  2  0
  6  7  1  0
  7  8  2  0
  8  9  1  0
  9 10  1  0
 10 11  2  0
 11 12  1  0
 12 13  1  0
 13 14  2  0
 14 15  1  0
 15 16  2  0
 16 17  1  0
 17 18  2  0
 10 19  1  0
 19 20  1  0
 20 21  2  0
 21 22  1  0
 22 23  1  0
  6 24  1  0
 24 25  2  0
 25  3  1  0
 23  7  1  0
 22  9  2  0
 18 13  1  0
  1 26  1  0
  1 27  1  0
  1 28  1  0
  4 29  1  0
  5 30  1  0
 12 31  1  0
 12 32  1  0
 14 33  1  0
 15 34  1  0
 16 35  1  0
 17 36  1  0
 19 37  1  0
 20 38  1  0
 23 39  1  0
 24 40  1  0
 25 41  1  0
M  END
>  <smiles>  (31) 
COc1ccc(-c2nc3c(=NCc4ccccn4)[nH]cnc3[nH]2)cc1

>  <score_type>  (31) 
oracle

>  <origin>  (31) 
adg

>  <m_score__min__energy>  (31) 
-7.3600000000000003

>  <m_primary>  (31) 
energy

$$$$
31:0
     RDKit          3D

 53 55  0  0  0  0  0  0  0  0999 V2000
   55.1520   29.7160   43.7150 C   0  0  0  0  0  0  0  0  0  0  0  0
   55.6190   29.0180   44.8660 O   0  0  0  0  0  0  0  0  0  0  0  0
   56.9150   29.1370   45.3900 C   0  0  0  0  0  0  0  0  0  0  0  0
   57.5180   28.1190   46.1530 C   0  0  0  0  0  0  0  0  0  0  0  0
   58.8100   28.2890   46.6620 C   0  0  0  0  0  0  0  0  0  0  0  0
   59.5170   29.4750   46.4150 C   0  0  0  0  0  0  0  0  0  0  0  0
   60.8770   29.7020   47.0160 C   0  0  0  0  0  0  0  0  0  0  0  0
   60.9000   31.0020   47.7200 N   0  0  0  0  0  0  0  0  0  0  0  0
   62.1390   31.7390   47.4210 C   0  0  0  0  0  0  0  0  0  0  0  0
   62.3350   32.9790   48.3270 C   0  0  0  0  0  0  0  0  0  0  0  0
   61.1720   33.3230   49.1880 N   0  0  0  0  0  0  0  0  0  0  0  0
   60.2490   34.3330   48.5970 C   0  0  0  0  0  0  0  0  0  0  0  0
   59.6250   33.9880   47.2090 C   0  0  0  0  0  0  0  0  0  0  0  0
   58.1720   33.4420   47.3270 C   0  0  0  0  0  0  0  0  0  0  0  0
   57.2990   33.7010   46.0820 C   0  0  0  0  0  0  0  0  0  0  0  0
   58.1360   33.7910   44.8050 C   0  0  0  0  0  0  0  0  0  0  0  0
   59.1540   34.9430   44.8760 C   0  0  0  0  0  0  0  0  0  0  0  0
   59.6420   35.2430   46.3070 C   0  0  0  0  0  0  0  0  0  0  0  0
   60.4960   32.1710   49.8440 C   0  0  0  0  0  0  0  0  0  0  0  0
   60.7740   30.8220   49.1730 C   0  0  0  0  0  0  0  0  0  0  0  0
   58.9180   30.4850   45.6490 C   0  0  0  0  0  0  0  0  0  0  0  0
   57.6270   30.3150   45.1410 C   0  0  0  0  0  0  0  0  0  0  0  0
   54.5660   30.5919   44.0301 H   0  0  0  0  0  0  0  0  0  0  0  0
   56.0112   30.0469   43.1132 H   0  0  0  0  0  0  0  0  0  0  0  0
   54.5183   29.0480   43.1132 H   0  0  0  0  0  0  0  0  0  0  0  0
   56.9706   27.1854   46.3499 H   0  0  0  0  0  0  0  0  0  0  0  0
   59.2733   27.4892   47.2584 H   0  0  0  0  0  0  0  0  0  0  0  0
   61.1005   28.8956   47.7299 H   0  0  0  0  0  0  0  0  0  0  0  0
   61.6324   29.7073   46.2164 H   0  0  0  0  0  0  0  0  0  0  0  0
   62.9937   31.0614   47.5635 H   0  0  0  0  0  0  0  0  0  0  0  0
   62.0688   32.0960   46.3829 H   0  0  0  0  0  0  0  0  0  0  0  0
   63.1988   32.7896   48.9812 H   0  0  0  0  0  0  0  0  0  0  0  0
   62.4770   33.8336   47.6491 H   0  0  0  0  0  0  0  0  0  0  0  0
   61.6040   33.8540   49.9850 H   0  0  0  0  0  0  0  0  0  0  0  0
   59.4215   34.4828   49.3060 H   0  0  0  0  0  0  0  0  0  0  0  0
   60.8709   35.2229   48.4201 H   0  0  0  0  0  0  0  0  0  0  0  0
   60.2362   33.1898   46.7625 H   0  0  0  0  0  0  0  0  0  0  0  0
   58.2235   32.3558   47.4929 H   0  0  0  0  0  0  0  0  0  0  0  0
   57.6988   33.9775   48.1633 H   0  0  0  0  0  0  0  0  0  0  0  0
   56.5774   32.8775   45.9765 H   0  0  0  0  0  0  0  0  0  0  0  0
   56.7857   34.6639   46.2208 H   0  0  0  0  0  0  0  0  0  0  0  0
   58.6777   32.8438   44.6655 H   0  0  0  0  0  0  0  0  0  0  0  0
   57.4571   33.9828   43.9610 H   0  0  0  0  0  0  0  0  0  0  0  0
   60.0252   34.6767   44.2594 H   0  0  0  0  0  0  0  0  0  0  0  0
   58.6460   35.8476   44.5104 H   0  0  0  0  0  0  0  0  0  0  0  0
   60.6712   35.6279   46.2561 H   0  0  0  0  0  0  0  0  0  0  0  0
   58.9572   35.9826   46.7474 H   0  0  0  0  0  0  0  0  0  0  0  0
   60.8403   32.1160   50.8873 H   0  0  0  0  0  0  0  0  0  0  0  0
   59.4135   32.3494   49.7645 H   0  0  0  0  0  0  0  0  0  0  0  0
   61.7099   30.4028   49.5710 H   0  0  0  0  0  0  0  0  0  0  0  0
   59.9403   30.1354   49.3817 H   0  0  0  0  0  0  0  0  0  0  0  0
   59.4671   31.4164   45.4467 H   0  0  0  0  0  0  0  0  0  0  0  0
   57.1673   31.1139   44.5407 H   0  0  0  0  0  0  0  0  0  0  0  0
  1  2  1  0
  2  3  1  0
  3  4  2  0
  4  5  1  0
  5  6  2  0
  6  7  1  0
  7  8  1  0
  8  9  1  0
  9 10  1  0
 10 11  1  0
 11 12  1  0
 12 13  1  0
 13 14  1  0
 14 15  1  0
 15 16  1  0
 16 17  1  0
 17 18  1  0
 11 19  1  0
 19 20  1  0
  6 21  1  0
 21 22  2  0
 22  3  1  0
 20  8  1  0
 18 13  1  0
  1 23  1  0
  1 24  1  0
  1 25  1  0
  4 26  1  0
  5 27  1  0
  7 28  1  0
  7 29  1  0
  9 30  1  0
  9 31  1  0
 10 32  1  0
 10 33  1  0
 11 34  1  0
 12 35  1  0
 12 36  1  0
 13 37  1  0
 14 38  1  0
 14 39  1  0
 15 40  1  0
 15 41  1  0
 16 42  1  0
 16 43  1  0
 17 44  1  0
 17 45  1  0
 18 46  1  0
 18 47  1  0
 19 48  1  0
 19 49  1  0
 20 50  1  0
 20 51  1  0
 21 52  1  0
 22 53  1  0
M  CHG  1  11   1
M  END
>  <UniqueID>  (32) 
30

>  <SMILES>  (32) 
COc1ccc(CN2CC[NH+](CC3CCCCC3)CC2)cc1

>  <Energy>  (32) 
71.46646497612367

>  <Genealogy>  (32) 
COc1ccc(CN2CC[NH+](CC3CCCCC3)CC2)cc1 (protonated)
COc1ccc(CN2CC[NH+](CC3CCCCC3)CC2)cc1 (3D coordinates assigned)
COc1ccc(CN2CC[NH+](CC3CCCCC3)CC2)cc1 (nonaromatic ring conformer: 71.46646497612367 kcal/mol)

>  <smiles>  (32) 
COc1ccc(CN2CCN(CC3CCCCC3)CC2)cc1

>  <score_type>  (32) 
oracle

>  <origin>  (32) 
adg

>  <m_score__min__energy>  (32) 
-6.4400000000000004

>  <m_primary>  (32) 
energy

$$$$
32:0
     RDKit          3D

 24 25  0  0  0  0  0  0  0  0999 V2000
   56.2810   29.7250   45.1990 O   0  0  0  0  0  0  0  0  0  0  0  0
   57.3550   30.0860   44.6450 C   0  0  0  0  0  0  0  0  0  0  0  0
   58.1530   29.1230   43.9310 N   0  0  0  0  0  0  0  0  0  0  0  0
   57.8700   27.7140   43.9010 C   0  0  0  0  0  0  0  0  0  0  0  0
   57.5340   27.0000   45.0630 C   0  0  0  0  0  0  0  0  0  0  0  0
   57.2940   25.6260   44.9950 C   0  0  0  0  0  0  0  0  0  0  0  0
   57.4070   24.9720   43.7670 C   0  0  0  0  0  0  0  0  0  0  0  0
   57.7570   25.6690   42.6550 N   0  0  0  0  0  0  0  0  0  0  0  0
   57.9960   27.0070   42.6960 C   0  0  0  0  0  0  0  0  0  0  0  0
   57.7630   31.5090   44.7370 C   0  0  0  0  0  0  0  0  0  0  0  0
   57.7700   32.1570   45.9840 C   0  0  0  0  0  0  0  0  0  0  0  0
   58.1500   33.4960   46.0800 C   0  0  0  0  0  0  0  0  0  0  0  0
   58.5130   34.1870   44.9240 C   0  0  0  0  0  0  0  0  0  0  0  0
   58.4890   33.5580   43.7210 N   0  0  0  0  0  0  0  0  0  0  0  0
   58.1260   32.2540   43.5990 C   0  0  0  0  0  0  0  0  0  0  0  0
   58.9610   29.4520   43.3590 H   0  0  0  0  0  0  0  0  0  0  0  0
   57.4598   27.5237   46.0275 H   0  0  0  0  0  0  0  0  0  0  0  0
   57.0187   25.0647   45.9001 H   0  0  0  0  0  0  0  0  0  0  0  0
   57.2125   23.8914   43.6998 H   0  0  0  0  0  0  0  0  0  0  0  0
   58.2899   27.5382   41.7787 H   0  0  0  0  0  0  0  0  0  0  0  0
   57.4744   31.6058   46.8889 H   0  0  0  0  0  0  0  0  0  0  0  0
   58.1632   34.0014   47.0569 H   0  0  0  0  0  0  0  0  0  0  0  0
   58.8188   35.2418   44.9870 H   0  0  0  0  0  0  0  0  0  0  0  0
   58.1158   31.7788   42.6070 H   0  0  0  0  0  0  0  0  0  0  0  0
  1  2  2  0
  2  3  1  0
  3  4  1  0
  4  5  2  0
  5  6  1  0
  6  7  2  0
  7  8  1  0
  8  9  2  0
  2 10  1  0
 10 11  2  0
 11 12  1  0
 12 13  2  0
 13 14  1  0
 14 15  2  0
  9  4  1  0
 15 10  1  0
  3 16  1  0
  5 17  1  0
  6 18  1  0
  7 19  1  0
  9 20  1  0
 11 21  1  0
 12 22  1  0
 13 23  1  0
 15 24  1  0
M  END
>  <UniqueID>  (33) 
31

>  <SMILES>  (33) 
O=C(Nc1cccnc1)c1cccnc1

>  <Energy>  (33) 
33.39742385836288

>  <Genealogy>  (33) 
O=C(Nc1cccnc1)c1cccnc1 (3D coordinates assigned)
O=C(Nc1cccnc1)c1cccnc1 (optimized conformer: 33.39742385836288 kcal/mol)

>  <smiles>  (33) 
O=C(Nc1cccnc1)c1cccnc1

>  <score_type>  (33) 
oracle

>  <origin>  (33) 
adg

>  <m_score__min__energy>  (33) 
-5.5700000000000003

>  <m_primary>  (33) 
energy

$$$$
33:0
     RDKit          3D

 58 59  0  0  0  0  0  0  0  0999 V2000
   58.8830   33.5960   51.6500 C   0  0  0  0  0  0  0  0  0  0  0  0
   59.6420   33.1300   50.4090 C   0  0  0  0  0  0  0  0  0  0  0  0
   60.9900   33.8470   50.2550 C   0  0  0  0  0  0  0  0  0  0  0  0
   61.4080   33.8960   48.8430 N   0  0  0  0  0  0  0  0  0  0  0  0
   62.8200   34.1760   48.5240 C   0  0  0  0  0  0  0  0  0  0  0  0
   63.2270   33.4900   47.2160 C   0  0  0  0  0  0  0  0  0  0  0  0
   63.3700   31.9830   47.4060 C   0  0  0  0  0  0  0  0  0  0  0  0
   60.4150   33.7120   47.8040 C   0  0  0  0  0  0  0  0  0  0  0  0
   60.0890   32.4520   47.4050 N   0  0  0  0  0  0  0  0  0  0  0  0
   59.1690   32.2260   46.4340 C   0  0  0  0  0  0  0  0  0  0  0  0
   58.8520   30.8770   46.0550 C   0  0  0  0  0  0  0  0  0  0  0  0
   58.5920   29.7450   45.7300 C   0  0  0  0  0  0  0  0  0  0  0  0
   58.2900   28.3930   45.3430 C   0  0  0  0  0  0  0  0  0  0  0  0
   58.2370   27.3810   46.3100 C   0  0  0  0  0  0  0  0  0  0  0  0
   57.9540   26.0650   45.9340 C   0  0  0  0  0  0  0  0  0  0  0  0
   57.7290   25.7470   44.5830 C   0  0  0  0  0  0  0  0  0  0  0  0
   57.4340   24.3260   44.1720 C   0  0  0  0  0  0  0  0  0  0  0  0
   56.8570   23.4400   45.2970 C   0  0  2  0  0  0  0  0  0  0  0  0
   56.3680   22.0690   44.8120 C   0  0  0  0  0  0  0  0  0  0  0  0
   55.8470   24.1460   46.0940 N   0  0  0  0  0  0  0  0  0  0  0  0
   54.6800   24.8330   45.6220 C   0  0  0  0  0  0  0  0  0  0  0  0
   53.6180   24.0700   44.9060 C   0  0  0  0  0  0  0  0  0  0  0  0
   54.5530   26.0770   45.7690 O   0  0  0  0  0  0  0  0  0  0  0  0
   57.7710   26.7690   43.6210 C   0  0  0  0  0  0  0  0  0  0  0  0
   58.0540   28.0840   43.9990 C   0  0  0  0  0  0  0  0  0  0  0  0
   58.5330   33.3040   45.8190 C   0  0  0  0  0  0  0  0  0  0  0  0
   58.8730   34.5920   46.2270 C   0  0  0  0  0  0  0  0  0  0  0  0
   59.8010   34.7790   47.2050 N   0  0  0  0  0  0  0  0  0  0  0  0
   59.4188   33.2670   52.5526 H   0  0  0  0  0  0  0  0  0  0  0  0
   58.8117   34.6937   51.6455 H   0  0  0  0  0  0  0  0  0  0  0  0
   57.8719   33.1629   51.6455 H   0  0  0  0  0  0  0  0  0  0  0  0
   59.8227   32.0479   50.4890 H   0  0  0  0  0  0  0  0  0  0  0  0
   59.0288   33.3675   49.5272 H   0  0  0  0  0  0  0  0  0  0  0  0
   60.8961   34.8741   50.6374 H   0  0  0  0  0  0  0  0  0  0  0  0
   61.7485   33.2896   50.8242 H   0  0  0  0  0  0  0  0  0  0  0  0
   62.9579   35.2623   48.4199 H   0  0  0  0  0  0  0  0  0  0  0  0
   63.4498   33.7871   49.3377 H   0  0  0  0  0  0  0  0  0  0  0  0
   62.4577   33.6844   46.4542 H   0  0  0  0  0  0  0  0  0  0  0  0
   64.1988   33.8952   46.8973 H   0  0  0  0  0  0  0  0  0  0  0  0
   63.3922   31.7494   48.4807 H   0  0  0  0  0  0  0  0  0  0  0  0
   62.5163   31.4717   46.9372 H   0  0  0  0  0  0  0  0  0  0  0  0
   64.3046   31.6414   46.9372 H   0  0  0  0  0  0  0  0  0  0  0  0
   58.4185   27.6226   47.3677 H   0  0  0  0  0  0  0  0  0  0  0  0
   57.9071   25.2750   46.6980 H   0  0  0  0  0  0  0  0  0  0  0  0
   56.7065   24.3510   43.3473 H   0  0  0  0  0  0  0  0  0  0  0  0
   58.3963   23.8779   43.8838 H   0  0  0  0  0  0  0  0  0  0  0  0
   57.7025   23.2245   45.9669 H   0  0  0  0  0  0  0  0  0  0  0  0
   56.1410   21.4326   45.6800 H   0  0  0  0  0  0  0  0  0  0  0  0
   55.4603   22.1975   44.2041 H   0  0  0  0  0  0  0  0  0  0  0  0
   57.1522   21.5940   44.2041 H   0  0  0  0  0  0  0  0  0  0  0  0
   52.9523   23.5917   45.6396 H   0  0  0  0  0  0  0  0  0  0  0  0
   53.0350   24.7571   44.2751 H   0  0  0  0  0  0  0  0  0  0  0  0
   54.0831   23.2982   44.2751 H   0  0  0  0  0  0  0  0  0  0  0  0
   57.5800   26.5330   42.5637 H   0  0  0  0  0  0  0  0  0  0  0  0
   58.0913   28.8779   43.2385 H   0  0  0  0  0  0  0  0  0  0  0  0
   57.7820   33.1415   45.0318 H   0  0  0  0  0  0  0  0  0  0  0  0
   58.3896   35.4611   45.7570 H   0  0  0  0  0  0  0  0  0  0  0  0
   60.0350   35.7600   47.4680 H   0  0  0  0  0  0  0  0  0  0  0  0
  1  2  1  0
  2  3  1  0
  3  4  1  0
  4  5  1  0
  5  6  1  0
  6  7  1  0
  4  8  1  0
  8  9  2  0
  9 10  1  0
 10 11  1  0
 11 12  3  0
 12 13  1  0
 13 14  2  0
 14 15  1  0
 15 16  2  0
 16 17  1  0
 17 18  1  0
 18 19  1  0
 18 20  1  0
 20 21  1  0
 21 22  1  0
 21 23  2  0
 16 24  1  0
 24 25  2  0
 10 26  2  0
 26 27  1  0
 27 28  2  0
 28  8  1  0
 25 13  1  0
  1 29  1  0
  1 30  1  0
  1 31  1  0
  2 32  1  0
  2 33  1  0
  3 34  1  0
  3 35  1  0
  5 36  1  0
  5 37  1  0
  6 38  1  0
  6 39  1  0
  7 40  1  0
  7 41  1  0
  7 42  1  0
 14 43  1  0
 15 44  1  0
 17 45  1  0
 17 46  1  0
 18 47  1  1
 19 48  1  0
 19 49  1  0
 19 50  1  0
 22 51  1  0
 22 52  1  0
 22 53  1  0
 24 54  1  0
 25 55  1  0
 26 56  1  0
 27 57  1  0
 28 58  1  0
M  CHG  2  20  -1  28   1
M  END
>  <UniqueID>  (34) 
32

>  <SMILES>  (34) 
CCCN(CCC)c1nc(C#Cc2ccc(C[C@H](C)[N-]C(C)=O)cc2)cc[nH+]1

>  <Energy>  (34) 
40.287331840732875

>  <Genealogy>  (34) 
CCCN(CCC)c1nc(C#Cc2ccc(CC(C)[N-]C(C)=O)cc2)cc[nH+]1 (protonated)
CCCN(CCC)c1nc(C#Cc2ccc(C[C@H](C)[N-]C(C)=O)cc2)cc[nH+]1 (chirality)
CCCN(CCC)c1nc(C#Cc2ccc(C[C@H](C)[N-]C(C)=O)cc2)cc[nH+]1 (3D coordinates assigned)
CCCN(CCC)c1nc(C#Cc2ccc(C[C@H](C)[N-]C(C)=O)cc2)cc[nH+]1 (optimized conformer: 40.287331840732875 kcal/mol)

>  <smiles>  (34) 
CCCN(CCC)c1nccc(C#Cc2ccc(CC(C)NC(C)=O)cc2)n1

>  <score_type>  (34) 
oracle

>  <origin>  (34) 
adg

>  <m_score__min__energy>  (34) 
-8.0600000000000005

>  <m_primary>  (34) 
energy

$$$$
34:0
     RDKit          3D

 35 37  0  0  0  0  0  0  0  0999 V2000
   60.0600   34.0680   49.8670 C   0  0  0  0  0  0  0  0  0  0  0  0
   59.8710   34.9450   48.7610 O   0  0  0  0  0  0  0  0  0  0  0  0
   59.4650   34.5330   47.4830 C   0  0  0  0  0  0  0  0  0  0  0  0
   59.6390   35.3380   46.3400 C   0  0  0  0  0  0  0  0  0  0  0  0
   59.2160   34.8830   45.0880 C   0  0  0  0  0  0  0  0  0  0  0  0
   58.6190   33.6250   44.9610 C   0  0  0  0  0  0  0  0  0  0  0  0
   58.4450   32.8130   46.0930 C   0  0  0  0  0  0  0  0  0  0  0  0
   58.8660   33.2760   47.3490 C   0  0  0  0  0  0  0  0  0  0  0  0
   57.7720   31.4710   45.9750 C   0  0  0  0  0  0  0  0  0  0  0  0
   57.5200   31.0800   44.5830 N   0  0  0  0  0  0  0  0  0  0  0  0
   56.8110   29.5300   44.2640 S   0  0  0  0  0  0  0  0  0  0  0  0
   55.4360   29.4700   44.8680 O   0  0  0  0  0  0  0  0  0  0  0  0
   56.6820   29.3170   42.7810 O   0  0  0  0  0  0  0  0  0  0  0  0
   57.8350   28.2750   44.9510 C   0  0  0  0  0  0  0  0  0  0  0  0
   57.2790   27.0400   45.3160 C   0  0  0  0  0  0  0  0  0  0  0  0
   58.0930   26.0320   45.8430 C   0  0  0  0  0  0  0  0  0  0  0  0
   59.4640   26.2510   46.0040 C   0  0  0  0  0  0  0  0  0  0  0  0
   60.2520   25.2740   46.5140 F   0  0  0  0  0  0  0  0  0  0  0  0
   60.0240   27.4780   45.6330 C   0  0  0  0  0  0  0  0  0  0  0  0
   59.2120   28.4870   45.1060 C   0  0  0  0  0  0  0  0  0  0  0  0
   57.6800   31.9970   43.4880 C   0  0  0  0  0  0  0  0  0  0  0  0
   58.1940   33.1720   43.6740 N   0  0  0  0  0  0  0  0  0  0  0  0
   59.9390   34.6296   50.8051 H   0  0  0  0  0  0  0  0  0  0  0  0
   59.3155   33.2593   49.8251 H   0  0  0  0  0  0  0  0  0  0  0  0
   61.0715   33.6377   49.8251 H   0  0  0  0  0  0  0  0  0  0  0  0
   60.1094   36.3280   46.4332 H   0  0  0  0  0  0  0  0  0  0  0  0
   59.3532   35.5168   44.1995 H   0  0  0  0  0  0  0  0  0  0  0  0
   58.7235   32.6437   48.2377 H   0  0  0  0  0  0  0  0  0  0  0  0
   58.4174   30.7122   46.4416 H   0  0  0  0  0  0  0  0  0  0  0  0
   56.7972   31.5446   46.4793 H   0  0  0  0  0  0  0  0  0  0  0  0
   56.2008   26.8639   45.1875 H   0  0  0  0  0  0  0  0  0  0  0  0
   57.6536   25.0656   46.1311 H   0  0  0  0  0  0  0  0  0  0  0  0
   61.1036   27.6492   45.7559 H   0  0  0  0  0  0  0  0  0  0  0  0
   59.6551   29.4500   44.8122 H   0  0  0  0  0  0  0  0  0  0  0  0
   57.3619   31.6975   42.4785 H   0  0  0  0  0  0  0  0  0  0  0  0
  1  2  1  0
  2  3  1  0
  3  4  2  0
  4  5  1  0
  5  6  2  0
  6  7  1  0
  7  8  2  0
  7  9  1  0
  9 10  1  0
 10 11  1  0
 11 12  2  0
 11 13  2  0
 11 14  1  0
 14 15  2  0
 15 16  1  0
 16 17  2  0
 17 18  1  0
 17 19  1  0
 19 20  2  0
 10 21  1  0
 21 22  2  0
  8  3  1  0
 20 14  1  0
 22  6  1  0
  1 23  1  0
  1 24  1  0
  1 25  1  0
  4 26  1  0
  5 27  1  0
  8 28  1  0
  9 29  1  0
  9 30  1  0
 15 31  1  0
 16 32  1  0
 19 33  1  0
 20 34  1  0
 21 35  1  0
M  END
>  <UniqueID>  (35) 
33

>  <SMILES>  (35) 
COc1ccc2c(c1)CN(S(=O)(=O)c1ccc(F)cc1)C=N2

>  <Energy>  (35) 
39.2927983937536

>  <Genealogy>  (35) 
COc1ccc2c(c1)CN(S(=O)(=O)c1ccc(F)cc1)C=N2 (3D coordinates assigned)
COc1ccc2c(c1)CN(S(=O)(=O)c1ccc(F)cc1)C=N2 (nonaromatic ring conformer: 39.2927983937536 kcal/mol)

>  <smiles>  (35) 
COc1ccc2c(c1)CN(S(=O)(=O)c1ccc(F)cc1)C=N2

>  <score_type>  (35) 
oracle

>  <origin>  (35) 
adg

>  <m_score__min__energy>  (35) 
-7.7800000000000002

>  <m_primary>  (35) 
energy

$$$$
35:0
     RDKit          3D

 52 54  0  0  0  0  0  0  0  0999 V2000
   60.7600   26.3320   46.6120 C   0  0  0  0  0  0  0  0  0  0  0  0
   60.2550   27.6560   47.1260 C   0  0  0  0  0  0  0  0  0  0  0  0
   60.1050   27.8280   48.5110 C   0  0  0  0  0  0  0  0  0  0  0  0
   59.6280   29.0290   49.0300 C   0  0  0  0  0  0  0  0  0  0  0  0
   59.2840   30.0740   48.1760 C   0  0  0  0  0  0  0  0  0  0  0  0
   59.4470   29.9440   46.7890 C   0  0  0  0  0  0  0  0  0  0  0  0
   59.0300   31.0120   45.9230 N   0  0  0  0  0  0  0  0  0  0  0  0
   57.8410   30.9550   45.1150 C   0  0  0  0  0  0  0  0  0  0  0  0
   57.0270   30.0020   45.2450 O   0  0  0  0  0  0  0  0  0  0  0  0
   57.5300   32.0750   44.1590 C   0  0  0  0  0  0  0  0  0  0  0  0
   57.5170   33.4050   44.8030 N   0  0  0  0  0  0  0  0  0  0  0  0
   57.0400   33.4380   46.2050 C   0  0  0  0  0  0  0  0  0  0  0  0
   57.9770   34.2170   47.1300 C   0  0  0  0  0  0  0  0  0  0  0  0
   59.3700   33.8200   46.8630 N   0  0  0  0  0  0  0  0  0  0  0  0
   60.2840   34.3670   47.8920 C   0  0  0  0  0  0  0  0  0  0  0  0
   61.5320   33.5290   48.0010 C   0  0  0  0  0  0  0  0  0  0  0  0
   62.6040   33.7320   47.1140 C   0  0  0  0  0  0  0  0  0  0  0  0
   63.7590   32.9500   47.2120 C   0  0  0  0  0  0  0  0  0  0  0  0
   63.8500   31.9540   48.1890 C   0  0  0  0  0  0  0  0  0  0  0  0
   62.7870   31.7400   49.0700 C   0  0  0  0  0  0  0  0  0  0  0  0
   61.6350   32.5290   48.9880 C   0  0  0  0  0  0  0  0  0  0  0  0
   60.6180   32.3110   49.8620 F   0  0  0  0  0  0  0  0  0  0  0  0
   59.7950   34.2590   45.5140 C   0  0  0  0  0  0  0  0  0  0  0  0
   58.6540   34.2890   44.4710 C   0  0  0  0  0  0  0  0  0  0  0  0
   59.9650   28.7370   46.2520 C   0  0  0  0  0  0  0  0  0  0  0  0
   60.1720   28.5960   44.7600 C   0  0  0  0  0  0  0  0  0  0  0  0
   61.0089   25.6795   47.4619 H   0  0  0  0  0  0  0  0  0  0  0  0
   59.9806   25.8551   45.9995 H   0  0  0  0  0  0  0  0  0  0  0  0
   61.6590   26.4952   45.9995 H   0  0  0  0  0  0  0  0  0  0  0  0
   60.3669   27.0058   49.1933 H   0  0  0  0  0  0  0  0  0  0  0  0
   59.5226   29.1527   50.1179 H   0  0  0  0  0  0  0  0  0  0  0  0
   58.8812   31.0089   48.5927 H   0  0  0  0  0  0  0  0  0  0  0  0
   59.5940   31.8920   45.9170 H   0  0  0  0  0  0  0  0  0  0  0  0
   58.2917   32.0785   43.3654 H   0  0  0  0  0  0  0  0  0  0  0  0
   56.5200   31.8946   43.7625 H   0  0  0  0  0  0  0  0  0  0  0  0
   56.0481   33.9129   46.2280 H   0  0  0  0  0  0  0  0  0  0  0  0
   57.0030   32.4001   46.5676 H   0  0  0  0  0  0  0  0  0  0  0  0
   57.8611   35.2953   46.9461 H   0  0  0  0  0  0  0  0  0  0  0  0
   57.7264   33.9954   48.1779 H   0  0  0  0  0  0  0  0  0  0  0  0
   60.5629   35.3948   47.6166 H   0  0  0  0  0  0  0  0  0  0  0  0
   59.7673   34.3570   48.8630 H   0  0  0  0  0  0  0  0  0  0  0  0
   62.5337   34.5097   46.3393 H   0  0  0  0  0  0  0  0  0  0  0  0
   64.5970   33.1186   46.5197 H   0  0  0  0  0  0  0  0  0  0  0  0
   64.7587   31.3387   48.2640 H   0  0  0  0  0  0  0  0  0  0  0  0
   62.8563   30.9484   49.8306 H   0  0  0  0  0  0  0  0  0  0  0  0
   60.2141   35.2727   45.5967 H   0  0  0  0  0  0  0  0  0  0  0  0
   60.5307   33.5227   45.1581 H   0  0  0  0  0  0  0  0  0  0  0  0
   58.2803   35.3208   44.3958 H   0  0  0  0  0  0  0  0  0  0  0  0
   59.0771   33.9236   43.5237 H   0  0  0  0  0  0  0  0  0  0  0  0
   61.0675   27.9860   44.5701 H   0  0  0  0  0  0  0  0  0  0  0  0
   59.2939   28.1074   44.3125 H   0  0  0  0  0  0  0  0  0  0  0  0
   60.3051   29.5920   44.3125 H   0  0  0  0  0  0  0  0  0  0  0  0
  1  2  1  0
  2  3  2  0
  3  4  1  0
  4  5  2  0
  5  6  1  0
  6  7  1  0
  7  8  1  0
  8  9  2  0
  8 10  1  0
 10 11  1  0
 11 12  1  0
 12 13  1  0
 13 14  1  0
 14 15  1  0
 15 16  1  0
 16 17  2  0
 17 18  1  0
 18 19  2  0
 19 20  1  0
 20 21  2  0
 21 22  1  0
 14 23  1  0
 23 24  1  0
  6 25  2  0
 25 26  1  0
 25  2  1  0
 24 11  1  0
 21 16  1  0
  1 27  1  0
  1 28  1  0
  1 29  1  0
  3 30  1  0
  4 31  1  0
  5 32  1  0
  7 33  1  0
 10 34  1  0
 10 35  1  0
 12 36  1  0
 12 37  1  0
 13 38  1  0
 13 39  1  0
 15 40  1  0
 15 41  1  0
 17 42  1  0
 18 43  1  0
 19 44  1  0
 20 45  1  0
 23 46  1  0
 23 47  1  0
 24 48  1  0
 24 49  1  0
 26 50  1  0
 26 51  1  0
 26 52  1  0
M  END
>  <UniqueID>  (36) 
34

>  <SMILES>  (36) 
Cc1cccc(NC(=O)CN2CCN(Cc3ccccc3F)CC2)c1C

>  <Energy>  (36) 
73.67061089339059

>  <Genealogy>  (36) 
Cc1cccc(NC(=O)CN2CCN(Cc3ccccc3F)CC2)c1C (3D coordinates assigned)
Cc1cccc(NC(=O)CN2CCN(Cc3ccccc3F)CC2)c1C (nonaromatic ring conformer: 73.67061089339059 kcal/mol)

>  <smiles>  (36) 
Cc1cccc(NC(=O)CN2CCN(Cc3ccccc3F)CC2)c1C

>  <score_type>  (36) 
oracle

>  <origin>  (36) 
adg

>  <m_score__min__energy>  (36) 
-7.7599999999999998

>  <m_primary>  (36) 
energy

$$$$
36:0
     RDKit          3D

 47 50  0  0  0  0  0  0  0  0999 V2000
   62.1570   34.4380   49.5820 C   0  0  0  0  0  0  0  0  0  0  0  0
   60.8030   34.6470   49.1900 O   0  0  0  0  0  0  0  0  0  0  0  0
   60.0490   33.7400   48.4310 C   0  0  0  0  0  0  0  0  0  0  0  0
   59.5230   32.6150   49.0760 C   0  0  0  0  0  0  0  0  0  0  0  0
   58.7640   31.6800   48.3700 C   0  0  0  0  0  0  0  0  0  0  0  0
   58.5200   31.8580   47.0060 C   0  0  0  0  0  0  0  0  0  0  0  0
   57.7840   30.9410   46.3290 N   0  0  0  0  0  0  0  0  0  0  0  0
   57.5190   31.0590   45.0010 C   0  0  0  0  0  0  0  0  0  0  0  0
   56.7720   30.0660   44.3510 C   0  0  0  0  0  0  0  0  0  0  0  0
   56.2920   28.9820   45.0960 O   0  0  0  0  0  0  0  0  0  0  0  0
   57.0640   27.8820   45.4870 C   0  0  0  0  0  0  0  0  0  0  0  0
   58.2110   28.0450   45.9890 O   0  0  0  0  0  0  0  0  0  0  0  0
   56.4980   26.5700   45.3940 N   0  0  0  0  0  0  0  0  0  0  0  0
   56.9110   25.4820   46.2800 C   0  0  0  0  0  0  0  0  0  0  0  0
   58.0680   24.6870   45.6600 C   0  0  0  0  0  0  0  0  0  0  0  0
   57.5690   23.5710   44.7780 C   0  0  0  0  0  0  0  0  0  0  0  0
   58.3830   22.4620   44.4950 C   0  0  0  0  0  0  0  0  0  0  0  0
   57.9330   21.4690   43.6250 C   0  0  0  0  0  0  0  0  0  0  0  0
   56.6720   21.5930   43.0400 C   0  0  0  0  0  0  0  0  0  0  0  0
   55.8950   22.6730   43.3190 N   0  0  0  0  0  0  0  0  0  0  0  0
   56.3110   23.6550   44.1630 C   0  0  0  0  0  0  0  0  0  0  0  0
   56.5030   30.1900   42.9770 C   0  0  0  0  0  0  0  0  0  0  0  0
   56.9900   31.2850   42.2600 C   0  0  0  0  0  0  0  0  0  0  0  0
   57.7460   32.2680   42.9010 C   0  0  0  0  0  0  0  0  0  0  0  0
   58.0200   32.1670   44.2770 C   0  0  0  0  0  0  0  0  0  0  0  0
   58.7850   33.1370   44.9550 C   0  0  0  0  0  0  0  0  0  0  0  0
   59.2400   34.1360   44.3310 O   0  0  0  0  0  0  0  0  0  0  0  0
   59.0420   32.9860   46.3340 C   0  0  0  0  0  0  0  0  0  0  0  0
   59.8060   33.9240   47.0550 C   0  0  0  0  0  0  0  0  0  0  0  0
   62.2234   34.4277   50.6799 H   0  0  0  0  0  0  0  0  0  0  0  0
   62.5094   33.4748   49.1843 H   0  0  0  0  0  0  0  0  0  0  0  0
   62.7834   35.2501   49.1843 H   0  0  0  0  0  0  0  0  0  0  0  0
   59.7094   32.4660   50.1498 H   0  0  0  0  0  0  0  0  0  0  0  0
   58.3567   30.8001   48.8894 H   0  0  0  0  0  0  0  0  0  0  0  0
   55.5990   26.4610   44.8730 H   0  0  0  0  0  0  0  0  0  0  0  0
   57.2375   25.9039   47.2420 H   0  0  0  0  0  0  0  0  0  0  0  0
   56.0572   24.8049   46.4303 H   0  0  0  0  0  0  0  0  0  0  0  0
   58.6859   25.3686   45.0570 H   0  0  0  0  0  0  0  0  0  0  0  0
   58.6544   24.2417   46.4772 H   0  0  0  0  0  0  0  0  0  0  0  0
   59.3763   22.3765   44.9599 H   0  0  0  0  0  0  0  0  0  0  0  0
   58.5655   20.5971   43.4022 H   0  0  0  0  0  0  0  0  0  0  0  0
   56.3065   20.8160   42.3525 H   0  0  0  0  0  0  0  0  0  0  0  0
   55.6590   24.5178   44.3640 H   0  0  0  0  0  0  0  0  0  0  0  0
   55.9063   29.4212   42.4642 H   0  0  0  0  0  0  0  0  0  0  0  0
   56.7768   31.3734   41.1845 H   0  0  0  0  0  0  0  0  0  0  0  0
   58.1290   33.1251   42.3277 H   0  0  0  0  0  0  0  0  0  0  0  0
   60.2157   34.8059   46.5409 H   0  0  0  0  0  0  0  0  0  0  0  0
  1  2  1  0
  2  3  1  0
  3  4  2  0
  4  5  1  0
  5  6  2  0
  6  7  1  0
  7  8  1  0
  8  9  2  0
  9 10  1  0
 10 11  1  0
 11 12  2  0
 11 13  1  0
 13 14  1  0
 14 15  1  0
 15 16  1  0
 16 17  2  0
 17 18  1  0
 18 19  2  0
 19 20  1  0
 20 21  2  0
  9 22  1  0
 22 23  2  0
 23 24  1  0
 24 25  2  0
 25 26  1  0
 26 27  2  0
 26 28  1  0
 28 29  2  0
 29  3  1  0
 28  6  1  0
 25  8  1  0
 21 16  1  0
  1 30  1  0
  1 31  1  0
  1 32  1  0
  4 33  1  0
  5 34  1  0
 13 35  1  0
 14 36  1  0
 14 37  1  0
 15 38  1  0
 15 39  1  0
 17 40  1  0
 18 41  1  0
 19 42  1  0
 21 43  1  0
 22 44  1  0
 23 45  1  0
 24 46  1  0
 29 47  1  0
M  CHG  1   7  -1
M  END
>  <UniqueID>  (37) 
35

>  <SMILES>  (37) 
COc1ccc2[n-]c3c(OC(=O)NCCc4cccnc4)cccc3c(=O)c2c1

>  <Energy>  (37) 
59.15125495984983

>  <Genealogy>  (37) 
COc1ccc2[n-]c3c(OC(=O)NCCc4cccnc4)cccc3c(=O)c2c1 (protonated)
COc1ccc2[n-]c3c(OC(=O)NCCc4cccnc4)cccc3c(=O)c2c1 (3D coordinates assigned)
COc1ccc2[n-]c3c(OC(=O)NCCc4cccnc4)cccc3c(=O)c2c1 (optimized conformer: 59.15125495984983 kcal/mol)

>  <smiles>  (37) 
COc1ccc2[nH]c3c(OC(=O)NCCc4cccnc4)cccc3c(=O)c2c1

>  <score_type>  (37) 
oracle

>  <origin>  (37) 
adg

>  <m_score__min__energy>  (37) 
-10.41

>  <m_primary>  (37) 
energy

$$$$
37:0
     RDKit          3D

 42 45  0  0  0  0  0  0  0  0999 V2000
   62.0167   29.8895   47.7741 H   0  0  0  0  0  0  0  0  0  0  0  0
   61.0750   29.5370   47.3280 C   0  0  0  0  0  0  0  0  0  0  0  0
   60.5120   30.2260   46.2560 C   0  0  0  0  0  0  0  0  0  0  0  0
   61.0073   31.1263   45.8633 H   0  0  0  0  0  0  0  0  0  0  0  0
   59.3210   29.7790   45.6770 C   0  0  0  0  0  0  0  0  0  0  0  0
   58.8828   30.3362   44.8358 H   0  0  0  0  0  0  0  0  0  0  0  0
   58.6730   28.6190   46.1600 C   0  0  0  0  0  0  0  0  0  0  0  0
   57.4670   28.1250   45.5830 C   0  0  0  0  0  0  0  0  0  0  0  0
   56.8520   28.7800   44.3540 C   0  0  0  0  0  0  0  0  0  0  0  0
   57.6121   28.8403   43.5611 H   0  0  0  0  0  0  0  0  0  0  0  0
   55.9969   28.1711   44.0254 H   0  0  0  0  0  0  0  0  0  0  0  0
   56.3710   30.1300   44.6590 N   0  0  0  0  0  0  0  0  0  0  0  0
   57.0510   31.2440   44.6630 C   0  0  0  0  0  0  0  0  0  0  0  0
   57.4360   31.8930   43.4730 C   0  0  0  0  0  0  0  0  0  0  0  0
   57.1577   31.4667   42.4979 H   0  0  0  0  0  0  0  0  0  0  0  0
   58.1700   33.0760   43.5340 C   0  0  0  0  0  0  0  0  0  0  0  0
   58.4753   33.5822   42.6064 H   0  0  0  0  0  0  0  0  0  0  0  0
   58.5180   33.6190   44.7730 C   0  0  0  0  0  0  0  0  0  0  0  0
   59.2570   34.8090   44.8630 C   0  0  0  0  0  0  0  0  0  0  0  0
   59.5729   35.3298   43.9470 H   0  0  0  0  0  0  0  0  0  0  0  0
   59.5920   35.3330   46.1140 C   0  0  0  0  0  0  0  0  0  0  0  0
   60.1718   36.2654   46.1810 H   0  0  0  0  0  0  0  0  0  0  0  0
   59.1920   34.6750   47.2810 C   0  0  0  0  0  0  0  0  0  0  0  0
   59.4577   35.0913   48.2639 H   0  0  0  0  0  0  0  0  0  0  0  0
   58.4550   33.4890   47.2020 C   0  0  0  0  0  0  0  0  0  0  0  0
   58.1424   32.9754   48.1231 H   0  0  0  0  0  0  0  0  0  0  0  0
   58.1130   32.9520   45.9510 C   0  0  0  0  0  0  0  0  0  0  0  0
   57.3950   31.7940   45.8640 N   0  0  0  0  0  0  0  0  0  0  0  0
   57.1020   31.3070   46.7440 H   0  0  0  0  0  0  0  0  0  0  0  0
   56.8240   27.0080   46.1700 C   0  0  0  0  0  0  0  0  0  0  0  0
   55.5960   26.5670   45.6450 O   0  0  0  0  0  0  0  0  0  0  0  0
   55.1700   25.2080   45.6010 C   0  0  0  0  0  0  0  0  0  0  0  0
   55.0508   24.8277   46.6263 H   0  0  0  0  0  0  0  0  0  0  0  0
   54.2081   25.1422   45.0714 H   0  0  0  0  0  0  0  0  0  0  0  0
   55.9222   24.6049   45.0714 H   0  0  0  0  0  0  0  0  0  0  0  0
   57.4160   26.3600   47.2680 C   0  0  0  0  0  0  0  0  0  0  0  0
   56.9222   25.4827   47.7113 H   0  0  0  0  0  0  0  0  0  0  0  0
   58.6170   26.8130   47.8010 C   0  0  0  0  0  0  0  0  0  0  0  0
   59.0739   26.2811   48.6486 H   0  0  0  0  0  0  0  0  0  0  0  0
   59.2480   27.9400   47.2670 C   0  0  0  0  0  0  0  0  0  0  0  0
   60.4460   28.4010   47.8360 C   0  0  0  0  0  0  0  0  0  0  0  0
   60.8904   27.8634   48.6866 H   0  0  0  0  0  0  0  0  0  0  0  0
  1  2  1  0
  2  3  2  0
  3  4  1  0
  3  5  1  0
  5  6  1  0
  5  7  2  0
  7  8  1  0
  8  9  1  0
  9 10  1  0
  9 11  1  0
  9 12  1  0
 12 13  2  0
 13 14  1  0
 14 15  1  0
 14 16  2  0
 16 17  1  0
 16 18  1  0
 18 19  2  0
 19 20  1  0
 19 21  1  0
 21 22  1  0
 21 23  2  0
 23 24  1  0
 23 25  1  0
 25 26  1  0
 25 27  2  0
 27 28  1  0
 28 29  1  0
  8 30  2  0
 30 31  1  0
 31 32  1  0
 32 33  1  0
 32 34  1  0
 32 35  1  0
 30 36  1  0
 36 37  1  0
 36 38  2  0
 38 39  1  0
 38 40  1  0
 40 41  2  0
 41 42  1  0
 41  2  1  0
 40  7  1  0
 28 13  1  0
 27 18  1  0
M  END
>  <UniqueID>  (38) 
36

>  <SMILES>  (38) 
COc1ccc2ccccc2c1C/N=c1\ccc2ccccc2[nH]1

>  <Energy>  (38) 
58.59192868111558

>  <Genealogy>  (38) 
COc1ccc2ccccc2c1C/N=c1\ccc2ccccc2[nH]1 (cis-trans isomerization)
COc1ccc2ccccc2c1C/N=c1\ccc2ccccc2[nH]1 (3D coordinates assigned)
COc1ccc2ccccc2c1C/N=c1\ccc2ccccc2[nH]1 (optimized conformer: 58.59192868111558 kcal/mol)

>  <smiles>  (38) 
COc1ccc2ccccc2c1CN=c1ccc2ccccc2[nH]1

>  <score_type>  (38) 
oracle

>  <origin>  (38) 
adg

>  <m_score__min__energy>  (38) 
-8.1199999999999992

>  <m_primary>  (38) 
energy

$$$$
38:0
     RDKit          3D

 36 38  0  0  0  0  0  0  0  0999 V2000
   57.3810   19.8350   46.7380 C   0  0  0  0  0  0  0  0  0  0  0  0
   57.0380   20.9380   47.5700 O   0  0  0  0  0  0  0  0  0  0  0  0
   56.9870   22.2720   47.1380 C   0  0  0  0  0  0  0  0  0  0  0  0
   57.0250   23.3550   48.0330 C   0  0  0  0  0  0  0  0  0  0  0  0
   56.9730   24.6670   47.5530 C   0  0  0  0  0  0  0  0  0  0  0  0
   56.8920   24.9210   46.1730 C   0  0  0  0  0  0  0  0  0  0  0  0
   56.8090   26.2710   45.6850 N   0  0  0  0  0  0  0  0  0  0  0  0
   57.8580   27.2400   45.8620 C   0  0  0  0  0  0  0  0  0  0  0  0
   59.0080   26.8680   46.2190 O   0  0  0  0  0  0  0  0  0  0  0  0
   57.6210   28.6690   45.5970 C   0  0  0  0  0  0  0  0  0  0  0  0
   58.4520   29.7230   45.9210 C   0  0  0  0  0  0  0  0  0  0  0  0
   57.7790   30.8340   45.4410 C   0  0  0  0  0  0  0  0  0  0  0  0
   58.2220   32.2500   45.5270 C   0  0  0  0  0  0  0  0  0  0  0  0
   58.5050   32.8130   46.7870 C   0  0  0  0  0  0  0  0  0  0  0  0
   58.9110   34.1440   46.8990 C   0  0  0  0  0  0  0  0  0  0  0  0
   59.0400   34.9350   45.7580 C   0  0  0  0  0  0  0  0  0  0  0  0
   58.7650   34.3960   44.5020 C   0  0  0  0  0  0  0  0  0  0  0  0
   58.3570   33.0610   44.3740 C   0  0  0  0  0  0  0  0  0  0  0  0
   58.0760   32.4540   42.7440 Cl  0  0  0  0  0  0  0  0  0  0  0  0
   56.6560   30.4300   44.8920 O   0  0  0  0  0  0  0  0  0  0  0  0
   56.5270   29.1370   44.9650 N   0  0  0  0  0  0  0  0  0  0  0  0
   56.8400   23.8340   45.2780 C   0  0  0  0  0  0  0  0  0  0  0  0
   56.7410   24.0950   43.3820 Br  0  0  0  0  0  0  0  0  0  0  0  0
   56.8940   22.5230   45.7660 C   0  0  0  0  0  0  0  0  0  0  0  0
   57.6493   18.9721   47.3652 H   0  0  0  0  0  0  0  0  0  0  0  0
   56.5217   19.5736   46.1029 H   0  0  0  0  0  0  0  0  0  0  0  0
   58.2370   20.1070   46.1029 H   0  0  0  0  0  0  0  0  0  0  0  0
   57.0959   23.1696   49.1150 H   0  0  0  0  0  0  0  0  0  0  0  0
   56.9957   25.5080   48.2617 H   0  0  0  0  0  0  0  0  0  0  0  0
   55.9760   26.5400   45.1180 H   0  0  0  0  0  0  0  0  0  0  0  0
   59.4217   29.6883   46.4392 H   0  0  0  0  0  0  0  0  0  0  0  0
   58.4049   32.1969   47.6928 H   0  0  0  0  0  0  0  0  0  0  0  0
   59.1296   34.5696   47.8895 H   0  0  0  0  0  0  0  0  0  0  0  0
   59.3586   35.9839   45.8488 H   0  0  0  0  0  0  0  0  0  0  0  0
   58.8690   35.0232   43.6044 H   0  0  0  0  0  0  0  0  0  0  0  0
   56.8628   21.6795   45.0607 H   0  0  0  0  0  0  0  0  0  0  0  0
  1  2  1  0
  2  3  1  0
  3  4  2  0
  4  5  1  0
  5  6  2  0
  6  7  1  0
  7  8  1  0
  8  9  2  0
  8 10  1  0
 10 11  1  0
 11 12  2  0
 12 13  1  0
 13 14  2  0
 14 15  1  0
 15 16  2  0
 16 17  1  0
 17 18  2  0
 18 19  1  0
 12 20  1  0
 20 21  1  0
  6 22  1  0
 22 23  1  0
 22 24  2  0
 24  3  1  0
 21 10  2  0
 18 13  1  0
  1 25  1  0
  1 26  1  0
  1 27  1  0
  4 28  1  0
  5 29  1  0
  7 30  1  0
 11 31  1  0
 14 32  1  0
 15 33  1  0
 16 34  1  0
 17 35  1  0
 24 36  1  0
M  END
>  <UniqueID>  (39) 
37

>  <SMILES>  (39) 
COc1ccc(NC(=O)c2cc(-c3ccccc3Cl)on2)c(Br)c1

>  <Energy>  (39) 
76.66149074486457

>  <Genealogy>  (39) 
COc1ccc(NC(=O)c2cc(-c3ccccc3Cl)on2)c(Br)c1 (3D coordinates assigned)
COc1ccc(NC(=O)c2cc(-c3ccccc3Cl)on2)c(Br)c1 (optimized conformer: 76.66149074486457 kcal/mol)

>  <smiles>  (39) 
COc1ccc(NC(=O)c2cc(-c3ccccc3Cl)on2)c(Br)c1

>  <score_type>  (39) 
oracle

>  <origin>  (39) 
adg

>  <m_score__min__energy>  (39) 
-8.7699999999999996

>  <m_primary>  (39) 
energy

$$$$
39:0
     RDKit          3D

 28 29  0  0  0  0  0  0  0  0999 V2000
   56.3520   29.9980   42.3370 O   0  0  0  0  0  0  0  0  0  0  0  0
   56.8190   30.3190   43.7300 S   0  0  0  0  0  0  0  0  0  0  0  0
   55.6540   30.8460   44.5190 O   0  0  0  0  0  0  0  0  0  0  0  0
   58.1170   31.5420   43.6690 C   0  0  0  0  0  0  0  0  0  0  0  0
   58.3520   32.1300   45.0370 C   0  0  0  0  0  0  0  0  0  0  0  0
   59.1910   31.4750   45.9590 C   0  0  0  0  0  0  0  0  0  0  0  0
   59.7800   30.2940   45.6410 F   0  0  0  0  0  0  0  0  0  0  0  0
   59.4310   32.0390   47.2150 C   0  0  0  0  0  0  0  0  0  0  0  0
   58.8470   33.2590   47.5610 C   0  0  0  0  0  0  0  0  0  0  0  0
   58.0230   33.9220   46.6490 C   0  0  0  0  0  0  0  0  0  0  0  0
   57.7770   33.3670   45.3900 C   0  0  0  0  0  0  0  0  0  0  0  0
   56.9830   34.0350   44.5150 F   0  0  0  0  0  0  0  0  0  0  0  0
   57.4420   28.8610   44.4950 C   0  0  0  0  0  0  0  0  0  0  0  0
   58.0150   27.8460   43.7170 C   0  0  0  0  0  0  0  0  0  0  0  0
   58.5240   26.6950   44.3270 C   0  0  0  0  0  0  0  0  0  0  0  0
   58.4680   26.5560   45.7180 C   0  0  0  0  0  0  0  0  0  0  0  0
   58.9620   25.4420   46.3090 F   0  0  0  0  0  0  0  0  0  0  0  0
   57.9050   27.5710   46.4980 C   0  0  0  0  0  0  0  0  0  0  0  0
   57.3960   28.7220   45.8900 C   0  0  0  0  0  0  0  0  0  0  0  0
   59.0443   31.0685   43.3142 H   0  0  0  0  0  0  0  0  0  0  0  0
   57.8159   32.3469   42.9824 H   0  0  0  0  0  0  0  0  0  0  0  0
   60.0823   31.5198   47.9335 H   0  0  0  0  0  0  0  0  0  0  0  0
   59.0359   33.6979   48.5518 H   0  0  0  0  0  0  0  0  0  0  0  0
   57.5659   34.8845   46.9225 H   0  0  0  0  0  0  0  0  0  0  0  0
   58.0646   27.9549   42.6235 H   0  0  0  0  0  0  0  0  0  0  0  0
   58.9687   25.8983   43.7126 H   0  0  0  0  0  0  0  0  0  0  0  0
   57.8627   27.4634   47.5919 H   0  0  0  0  0  0  0  0  0  0  0  0
   56.9583   29.5207   46.5069 H   0  0  0  0  0  0  0  0  0  0  0  0
  1  2  2  0
  2  3  2  0
  2  4  1  0
  4  5  1  0
  5  6  2  0
  6  7  1  0
  6  8  1  0
  8  9  2  0
  9 10  1  0
 10 11  2  0
 11 12  1  0
  2 13  1  0
 13 14  2  0
 14 15  1  0
 15 16  2  0
 16 17  1  0
 16 18  1  0
 18 19  2  0
 11  5  1  0
 19 13  1  0
  4 20  1  0
  4 21  1  0
  8 22  1  0
  9 23  1  0
 10 24  1  0
 14 25  1  0
 15 26  1  0
 18 27  1  0
 19 28  1  0
M  END
>  <UniqueID>  (40) 
38

>  <SMILES>  (40) 
O=S(=O)(Cc1c(F)cccc1F)c1ccc(F)cc1

>  <Energy>  (40) 
26.50844296224329

>  <Genealogy>  (40) 
O=S(=O)(Cc1c(F)cccc1F)c1ccc(F)cc1 (3D coordinates assigned)
O=S(=O)(Cc1c(F)cccc1F)c1ccc(F)cc1 (optimized conformer: 26.50844296224329 kcal/mol)

>  <smiles>  (40) 
O=S(=O)(Cc1c(F)cccc1F)c1ccc(F)cc1

>  <score_type>  (40) 
oracle

>  <origin>  (40) 
adg

>  <m_score__min__energy>  (40) 
-6.8899999999999997

>  <m_primary>  (40) 
energy

$$$$
40:0
     RDKit          3D

 50 53  0  0  0  0  0  0  0  0999 V2000
   65.1962   32.9720   48.6536 H   0  0  0  0  0  0  0  0  0  0  0  0
   64.1480   33.2010   48.4110 C   0  0  0  0  0  0  0  0  0  0  0  0
   63.7290   33.2280   47.0780 C   0  0  0  0  0  0  0  0  0  0  0  0
   64.4461   33.0131   46.2721 H   0  0  0  0  0  0  0  0  0  0  0  0
   62.3990   33.5280   46.7680 C   0  0  0  0  0  0  0  0  0  0  0  0
   62.0659   33.5263   45.7196 H   0  0  0  0  0  0  0  0  0  0  0  0
   61.4860   33.8320   47.7940 C   0  0  0  0  0  0  0  0  0  0  0  0
   60.1050   34.0840   47.5000 N   0  0  0  0  0  0  0  0  0  0  0  0
   59.3520   33.6280   46.5310 C   0  0  0  0  0  0  0  0  0  0  0  0
   58.6690   34.5870   45.7740 C   0  0  0  0  0  0  0  0  0  0  0  0
   58.9109   35.6530   45.8967 H   0  0  0  0  0  0  0  0  0  0  0  0
   57.6870   34.2020   44.8680 C   0  0  0  0  0  0  0  0  0  0  0  0
   57.1424   34.9662   44.2941 H   0  0  0  0  0  0  0  0  0  0  0  0
   57.3970   32.8900   44.6880 N   0  0  0  0  0  0  0  0  0  0  0  0
   56.6370   32.6410   44.0130 H   0  0  0  0  0  0  0  0  0  0  0  0
   58.1030   31.9090   45.3180 C   0  0  0  0  0  0  0  0  0  0  0  0
   57.8220   30.5620   45.0330 C   0  0  0  0  0  0  0  0  0  0  0  0
   56.9783   30.3117   44.3731 H   0  0  0  0  0  0  0  0  0  0  0  0
   58.6020   29.5330   45.5780 C   0  0  0  0  0  0  0  0  0  0  0  0
   58.3050   28.1100   45.2730 C   0  0  0  0  0  0  0  0  0  0  0  0
   58.2400   27.1580   46.3060 C   0  0  0  0  0  0  0  0  0  0  0  0
   58.4101   27.4702   47.3469 H   0  0  0  0  0  0  0  0  0  0  0  0
   57.9610   25.8180   46.0210 C   0  0  0  0  0  0  0  0  0  0  0  0
   57.9139   25.0829   46.8379 H   0  0  0  0  0  0  0  0  0  0  0  0
   57.7410   25.4070   44.6990 C   0  0  0  0  0  0  0  0  0  0  0  0
   57.4600   23.9610   44.3810 C   0  0  0  0  0  0  0  0  0  0  0  0
   57.3378   23.4015   45.3202 H   0  0  0  0  0  0  0  0  0  0  0  0
   58.3031   23.5549   43.8029 H   0  0  0  0  0  0  0  0  0  0  0  0
   56.2270   23.8350   43.5770 N   0  0  0  0  0  0  0  0  0  0  0  0
   55.0510   23.8060   44.4610 C   0  0  0  0  0  0  0  0  0  0  0  0
   55.3808   23.8141   45.5104 H   0  0  0  0  0  0  0  0  0  0  0  0
   54.4244   24.6890   44.2667 H   0  0  0  0  0  0  0  0  0  0  0  0
   54.4687   22.8932   44.2667 H   0  0  0  0  0  0  0  0  0  0  0  0
   56.2570   22.6090   42.7600 C   0  0  0  0  0  0  0  0  0  0  0  0
   56.2785   21.7291   43.4198 H   0  0  0  0  0  0  0  0  0  0  0  0
   55.3596   22.5694   42.1252 H   0  0  0  0  0  0  0  0  0  0  0  0
   57.1553   22.6133   42.1252 H   0  0  0  0  0  0  0  0  0  0  0  0
   57.8110   26.3520   43.6640 C   0  0  0  0  0  0  0  0  0  0  0  0
   57.6466   26.0360   42.6233 H   0  0  0  0  0  0  0  0  0  0  0  0
   58.0880   27.6910   43.9470 C   0  0  0  0  0  0  0  0  0  0  0  0
   58.1370   28.4235   43.1278 H   0  0  0  0  0  0  0  0  0  0  0  0
   59.6970   29.8710   46.3860 C   0  0  0  0  0  0  0  0  0  0  0  0
   60.3404   29.0751   46.7893 H   0  0  0  0  0  0  0  0  0  0  0  0
   59.9810   31.2040   46.6850 C   0  0  0  0  0  0  0  0  0  0  0  0
   60.8694   31.4475   47.2863 H   0  0  0  0  0  0  0  0  0  0  0  0
   59.1430   32.2460   46.2260 C   0  0  0  0  0  0  0  0  0  0  0  0
   61.9040   33.7660   49.1290 C   0  0  0  0  0  0  0  0  0  0  0  0
   61.1831   33.9515   49.9389 H   0  0  0  0  0  0  0  0  0  0  0  0
   63.2350   33.4650   49.4360 C   0  0  0  0  0  0  0  0  0  0  0  0
   63.5637   33.4360   50.4853 H   0  0  0  0  0  0  0  0  0  0  0  0
  1  2  1  0
  2  3  2  0
  3  4  1  0
  3  5  1  0
  5  6  1  0
  5  7  2  0
  7  8  1  0
  8  9  2  0
  9 10  1  0
 10 11  1  0
 10 12  2  0
 12 13  1  0
 12 14  1  0
 14 15  1  0
 14 16  1  0
 16 17  2  0
 17 18  1  0
 17 19  1  0
 19 20  1  0
 20 21  2  0
 21 22  1  0
 21 23  1  0
 23 24  1  0
 23 25  2  0
 25 26  1  0
 26 27  1  0
 26 28  1  0
 26 29  1  0
 29 30  1  0
 30 31  1  0
 30 32  1  0
 30 33  1  0
 29 34  1  0
 34 35  1  0
 34 36  1  0
 34 37  1  0
 25 38  1  0
 38 39  1  0
 38 40  2  0
 40 41  1  0
 19 42  2  0
 42 43  1  0
 42 44  1  0
 44 45  1  0
 44 46  2  0
  7 47  1  0
 47 48  1  0
 47 49  2  0
 49 50  1  0
 49  2  1  0
 46  9  1  0
 46 16  1  0
 40 20  1  0
M  END
>  <UniqueID>  (41) 
39

>  <SMILES>  (41) 
CN(C)Cc1ccc(-c2ccc3/c(=N\c4ccccc4)cc[nH]c3c2)cc1

>  <Energy>  (41) 
82.62082685086759

>  <Genealogy>  (41) 
CN(C)Cc1ccc(-c2ccc3/c(=N\c4ccccc4)cc[nH]c3c2)cc1 (cis-trans isomerization)
CN(C)Cc1ccc(-c2ccc3/c(=N\c4ccccc4)cc[nH]c3c2)cc1 (3D coordinates assigned)
CN(C)Cc1ccc(-c2ccc3/c(=N\c4ccccc4)cc[nH]c3c2)cc1 (optimized conformer: 82.62082685086759 kcal/mol)

>  <smiles>  (41) 
CN(C)Cc1ccc(-c2ccc3c(=Nc4ccccc4)cc[nH]c3c2)cc1

>  <score_type>  (41) 
oracle

>  <origin>  (41) 
adg

>  <m_score__min__energy>  (41) 
-8.4399999999999995

>  <m_primary>  (41) 
energy

$$$$
41:0
     RDKit          3D

 50 53  0  0  0  0  0  0  0  0999 V2000
   57.5190   24.3870   47.1120 C   0  0  0  0  0  0  0  0  0  0  0  0
   56.9820   25.6630   46.5470 C   0  0  0  0  0  0  0  0  0  0  0  0
   55.6690   25.9060   46.3730 N   0  0  0  0  0  0  0  0  0  0  0  0
   55.5360   27.0920   45.8000 N   0  0  0  0  0  0  0  0  0  0  0  0
   56.7610   27.6210   45.6110 C   0  0  0  0  0  0  0  0  0  0  0  0
   56.9750   28.9050   44.9210 C   0  0  0  0  0  0  0  0  0  0  0  0
   57.4810   30.0250   45.5970 C   0  0  0  0  0  0  0  0  0  0  0  0
   57.6660   31.2330   44.9060 C   0  0  0  0  0  0  0  0  0  0  0  0
   58.2040   32.4250   45.6070 C   0  0  0  0  0  0  0  0  0  0  0  0
   58.2120   32.4870   47.0130 C   0  0  0  0  0  0  0  0  0  0  0  0
   58.7380   33.6050   47.6690 C   0  0  0  0  0  0  0  0  0  0  0  0
   59.2560   34.6710   46.9330 C   0  0  0  0  0  0  0  0  0  0  0  0
   59.2480   34.6230   45.5370 C   0  0  0  0  0  0  0  0  0  0  0  0
   58.7260   33.5080   44.8750 C   0  0  0  0  0  0  0  0  0  0  0  0
   57.3190   31.2960   43.5470 C   0  0  0  0  0  0  0  0  0  0  0  0
   56.7910   30.1690   42.9170 C   0  0  0  0  0  0  0  0  0  0  0  0
   56.6290   29.0120   43.6100 N   0  0  0  0  0  0  0  0  0  0  0  0
   57.7230   26.7320   46.0760 C   0  0  0  0  0  0  0  0  0  0  0  0
   59.2200   26.7780   45.8910 C   0  0  0  0  0  0  0  0  0  0  0  0
   59.8240   28.0590   46.4670 C   0  0  0  0  0  0  0  0  0  0  0  0
   60.2120   27.8460   47.8610 N   0  0  0  0  0  0  0  0  0  0  0  0
   59.8440   29.2490   48.8190 S   0  0  0  0  0  0  0  0  0  0  0  0
   58.5210   29.7960   48.3610 O   0  0  0  0  0  0  0  0  0  0  0  0
   59.7510   28.8880   50.2760 O   0  0  0  0  0  0  0  0  0  0  0  0
   61.0820   30.4870   48.5990 C   0  0  0  0  0  0  0  0  0  0  0  0
   61.8890   30.8860   49.6770 C   0  0  0  0  0  0  0  0  0  0  0  0
   62.8780   31.8580   49.4930 C   0  0  0  0  0  0  0  0  0  0  0  0
   63.0750   32.4290   48.2320 C   0  0  0  0  0  0  0  0  0  0  0  0
   64.0430   33.3620   48.0550 F   0  0  0  0  0  0  0  0  0  0  0  0
   62.2750   32.0380   47.1550 C   0  0  0  0  0  0  0  0  0  0  0  0
   61.2770   31.0730   47.3370 C   0  0  0  0  0  0  0  0  0  0  0  0
   60.5090   30.7080   46.2780 F   0  0  0  0  0  0  0  0  0  0  0  0
   57.4987   24.4353   48.2108 H   0  0  0  0  0  0  0  0  0  0  0  0
   56.8989   23.5451   46.7704 H   0  0  0  0  0  0  0  0  0  0  0  0
   58.5545   24.2419   46.7704 H   0  0  0  0  0  0  0  0  0  0  0  0
   57.7322   29.9570   46.6658 H   0  0  0  0  0  0  0  0  0  0  0  0
   57.8023   31.6515   47.5995 H   0  0  0  0  0  0  0  0  0  0  0  0
   58.7432   33.6437   48.7683 H   0  0  0  0  0  0  0  0  0  0  0  0
   59.6702   35.5483   47.4514 H   0  0  0  0  0  0  0  0  0  0  0  0
   59.6536   35.4650   44.9570 H   0  0  0  0  0  0  0  0  0  0  0  0
   58.7232   33.4768   43.7754 H   0  0  0  0  0  0  0  0  0  0  0  0
   57.4627   32.2289   42.9822 H   0  0  0  0  0  0  0  0  0  0  0  0
   56.5050   30.2174   41.8559 H   0  0  0  0  0  0  0  0  0  0  0  0
   59.6685   25.9124   46.4005 H   0  0  0  0  0  0  0  0  0  0  0  0
   59.4321   26.7550   44.8119 H   0  0  0  0  0  0  0  0  0  0  0  0
   60.7115   28.3391   45.8805 H   0  0  0  0  0  0  0  0  0  0  0  0
   59.0761   28.8642   46.4193 H   0  0  0  0  0  0  0  0  0  0  0  0
   61.7429   30.4329   50.6687 H   0  0  0  0  0  0  0  0  0  0  0  0
   63.5020   32.1738   50.3421 H   0  0  0  0  0  0  0  0  0  0  0  0
   62.4295   32.4887   46.1635 H   0  0  0  0  0  0  0  0  0  0  0  0
  1  2  1  0
  2  3  1  0
  3  4  1  0
  4  5  2  0
  5  6  1  0
  6  7  2  0
  7  8  1  0
  8  9  1  0
  9 10  2  0
 10 11  1  0
 11 12  2  0
 12 13  1  0
 13 14  2  0
  8 15  2  0
 15 16  1  0
 16 17  2  0
  5 18  1  0
 18 19  1  0
 19 20  1  0
 20 21  1  0
 21 22  1  0
 22 23  2  0
 22 24  2  0
 22 25  1  0
 25 26  2  0
 26 27  1  0
 27 28  2  0
 28 29  1  0
 28 30  1  0
 30 31  2  0
 31 32  1  0
 18  2  2  0
 31 25  1  0
 17  6  1  0
 14  9  1  0
  1 33  1  0
  1 34  1  0
  1 35  1  0
  7 36  1  0
 10 37  1  0
 11 38  1  0
 12 39  1  0
 13 40  1  0
 14 41  1  0
 15 42  1  0
 16 43  1  0
 19 44  1  0
 19 45  1  0
 20 46  1  0
 20 47  1  0
 26 48  1  0
 27 49  1  0
 30 50  1  0
M  CHG  2   3  -1  21  -1
M  END
>  <UniqueID>  (42) 
40

>  <SMILES>  (42) 
Cc1[n-]nc(-c2cc(-c3ccccc3)ccn2)c1CC[N-]S(=O)(=O)c1ccc(F)cc1F

>  <Energy>  (42) 
90.20152961255505

>  <Genealogy>  (42) 
Cc1[n-]nc(-c2cc(-c3ccccc3)ccn2)c1CC[N-]S(=O)(=O)c1ccc(F)cc1F (protonated)
Cc1[n-]nc(-c2cc(-c3ccccc3)ccn2)c1CC[N-]S(=O)(=O)c1ccc(F)cc1F (3D coordinates assigned)
Cc1[n-]nc(-c2cc(-c3ccccc3)ccn2)c1CC[N-]S(=O)(=O)c1ccc(F)cc1F (optimized conformer: 90.20152961255505 kcal/mol)

>  <smiles>  (42) 
Cc1[nH]nc(-c2cc(-c3ccccc3)ccn2)c1CCNS(=O)(=O)c1ccc(F)cc1F

>  <score_type>  (42) 
oracle

>  <origin>  (42) 
adg

>  <m_score__min__energy>  (42) 
-12.27

>  <m_primary>  (42) 
energy

$$$$
42:0
     RDKit          3D

 46 48  0  0  0  0  0  0  0  0999 V2000
   57.8070   29.4630   45.6220 C   0  0  0  0  0  0  0  0  0  0  0  0
   57.4330   30.8350   45.2480 N   0  0  0  0  0  0  0  0  0  0  0  0
   57.0020   30.8670   43.8390 C   0  0  0  0  0  0  0  0  0  0  0  0
   58.5620   31.7620   45.4840 C   0  0  0  0  0  0  0  0  0  0  0  0
   58.0920   33.2220   45.4730 C   0  0  0  0  0  0  0  0  0  0  0  0
   59.0630   34.0920   46.1480 N   0  0  0  0  0  0  0  0  0  0  0  0
   59.4850   35.3510   45.5350 C   0  0  0  0  0  0  0  0  0  0  0  0
   59.7130   33.6450   47.3500 C   0  0  0  0  0  0  0  0  0  0  0  0
   58.9330   33.3100   48.4660 C   0  0  0  0  0  0  0  0  0  0  0  0
   59.5470   32.9200   49.6680 C   0  0  0  0  0  0  0  0  0  0  0  0
   58.7520   32.5800   50.8760 C   0  0  0  0  0  0  0  0  0  0  0  0
   57.8860   31.4720   50.8990 C   0  0  0  0  0  0  0  0  0  0  0  0
   57.1640   31.1800   52.0600 C   0  0  0  0  0  0  0  0  0  0  0  0
   57.2990   31.9600   53.1640 N   0  0  0  0  0  0  0  0  0  0  0  0
   58.1340   33.0330   53.1760 C   0  0  0  0  0  0  0  0  0  0  0  0
   58.8760   33.3580   52.0390 C   0  0  0  0  0  0  0  0  0  0  0  0
   60.9070   32.8770   49.7320 N   0  0  0  0  0  0  0  0  0  0  0  0
   61.6980   33.1760   48.6700 C   0  0  0  0  0  0  0  0  0  0  0  0
   63.0890   33.0920   48.7950 C   0  0  0  0  0  0  0  0  0  0  0  0
   63.9090   33.3740   47.6990 C   0  0  0  0  0  0  0  0  0  0  0  0
   63.3430   33.7380   46.4750 C   0  0  0  0  0  0  0  0  0  0  0  0
   61.9550   33.8290   46.3400 C   0  0  0  0  0  0  0  0  0  0  0  0
   61.1170   33.5610   47.4380 C   0  0  0  0  0  0  0  0  0  0  0  0
   57.8309   29.3754   46.7182 H   0  0  0  0  0  0  0  0  0  0  0  0
   57.0684   28.7574   45.2138 H   0  0  0  0  0  0  0  0  0  0  0  0
   58.8015   29.2298   45.2138 H   0  0  0  0  0  0  0  0  0  0  0  0
   55.9060   30.9484   43.7926 H   0  0  0  0  0  0  0  0  0  0  0  0
   57.4557   31.7339   43.3364 H   0  0  0  0  0  0  0  0  0  0  0  0
   57.3227   29.9426   43.3364 H   0  0  0  0  0  0  0  0  0  0  0  0
   59.0124   31.5373   46.4621 H   0  0  0  0  0  0  0  0  0  0  0  0
   59.2982   31.6268   44.6780 H   0  0  0  0  0  0  0  0  0  0  0  0
   57.9746   33.5543   44.4310 H   0  0  0  0  0  0  0  0  0  0  0  0
   57.1330   33.2856   46.0080 H   0  0  0  0  0  0  0  0  0  0  0  0
   59.7289   36.0788   46.3229 H   0  0  0  0  0  0  0  0  0  0  0  0
   60.3733   35.1751   44.9105 H   0  0  0  0  0  0  0  0  0  0  0  0
   58.6701   35.7460   44.9105 H   0  0  0  0  0  0  0  0  0  0  0  0
   57.8358   33.3527   48.4001 H   0  0  0  0  0  0  0  0  0  0  0  0
   57.7772   30.8376   50.0069 H   0  0  0  0  0  0  0  0  0  0  0  0
   56.4841   30.3155   52.0796 H   0  0  0  0  0  0  0  0  0  0  0  0
   56.7520   31.7270   54.0240 H   0  0  0  0  0  0  0  0  0  0  0  0
   58.2251   33.6468   54.0843 H   0  0  0  0  0  0  0  0  0  0  0  0
   59.5567   34.2220   52.0538 H   0  0  0  0  0  0  0  0  0  0  0  0
   63.5377   32.8037   49.7570 H   0  0  0  0  0  0  0  0  0  0  0  0
   65.0024   33.3092   47.8005 H   0  0  0  0  0  0  0  0  0  0  0  0
   63.9924   33.9539   45.6138 H   0  0  0  0  0  0  0  0  0  0  0  0
   61.5160   34.1112   45.3717 H   0  0  0  0  0  0  0  0  0  0  0  0
  1  2  1  0
  2  3  1  0
  2  4  1  0
  4  5  1  0
  5  6  1  0
  6  7  1  0
  6  8  1  0
  8  9  2  0
  9 10  1  0
 10 11  1  0
 11 12  2  0
 12 13  1  0
 13 14  2  0
 14 15  1  0
 15 16  2  0
 10 17  2  0
 17 18  1  0
 18 19  2  0
 19 20  1  0
 20 21  2  0
 21 22  1  0
 22 23  2  0
 23  8  1  0
 16 11  1  0
 23 18  1  0
  1 24  1  0
  1 25  1  0
  1 26  1  0
  3 27  1  0
  3 28  1  0
  3 29  1  0
  4 30  1  0
  4 31  1  0
  5 32  1  0
  5 33  1  0
  7 34  1  0
  7 35  1  0
  7 36  1  0
  9 37  1  0
 12 38  1  0
 13 39  1  0
 14 40  1  0
 15 41  1  0
 16 42  1  0
 19 43  1  0
 20 44  1  0
 21 45  1  0
 22 46  1  0
M  CHG  1  14   1
M  END
>  <UniqueID>  (43) 
41

>  <SMILES>  (43) 
CN(C)CCN(C)c1cc(-c2cc[nH+]cc2)nc2ccccc12

>  <Energy>  (43) 
56.49525869589522

>  <Genealogy>  (43) 
CN(C)CCN(C)c1cc(-c2cc[nH+]cc2)nc2ccccc12 (protonated)
CN(C)CCN(C)c1cc(-c2cc[nH+]cc2)nc2ccccc12 (3D coordinates assigned)
CN(C)CCN(C)c1cc(-c2cc[nH+]cc2)nc2ccccc12 (optimized conformer: 56.49525869589522 kcal/mol)

>  <smiles>  (43) 
CN(C)CCN(C)c1cc(-c2ccncc2)nc2ccccc12

>  <score_type>  (43) 
oracle

>  <origin>  (43) 
adg

>  <m_score__min__energy>  (43) 
-6.0599999999999996

>  <m_primary>  (43) 
energy

$$$$
43:0
     RDKit          3D

 42 44  0  0  0  0  0  0  0  0999 V2000
   56.2680   30.0400   43.2790 C   0  0  0  0  0  0  0  0  0  0  0  0
   57.4910   30.2210   44.1710 C   0  0  0  0  0  0  0  0  0  0  0  0
   57.1940   31.0820   45.2700 O   0  0  0  0  0  0  0  0  0  0  0  0
   57.7840   32.3300   45.5360 C   0  0  0  0  0  0  0  0  0  0  0  0
   57.8140   33.3420   44.5560 C   0  0  0  0  0  0  0  0  0  0  0  0
   58.3960   34.5780   44.8240 C   0  0  0  0  0  0  0  0  0  0  0  0
   58.9730   34.8220   46.0650 C   0  0  0  0  0  0  0  0  0  0  0  0
   58.9850   33.8300   47.0570 C   0  0  0  0  0  0  0  0  0  0  0  0
   59.6430   34.1350   48.3930 C   0  0  0  0  0  0  0  0  0  0  0  0
   61.0260   33.6210   48.5170 N   0  0  0  0  0  0  0  0  0  0  0  0
   61.8070   33.7330   47.2640 C   0  0  0  0  0  0  0  0  0  0  0  0
   63.0930   32.8870   47.3560 C   0  0  0  0  0  0  0  0  0  0  0  0
   63.7250   33.0820   48.6550 N   0  0  0  0  0  0  0  0  0  0  0  0
   64.9470   32.7100   48.9960 N   0  0  0  0  0  0  0  0  0  0  0  0
   65.1490   33.0030   50.2740 N   0  0  0  0  0  0  0  0  0  0  0  0
   64.0270   33.5670   50.7700 C   0  0  0  0  0  0  0  0  0  0  0  0
   63.1190   33.5910   49.7350 C   0  0  0  0  0  0  0  0  0  0  0  0
   61.7510   34.1850   49.6780 C   0  0  0  0  0  0  0  0  0  0  0  0
   58.3710   32.5800   46.8070 C   0  0  0  0  0  0  0  0  0  0  0  0
   58.3650   31.6400   47.8570 O   0  0  0  0  0  0  0  0  0  0  0  0
   59.2710   30.5590   48.0430 C   0  0  0  0  0  0  0  0  0  0  0  0
   55.3736   29.9076   43.9055 H   0  0  0  0  0  0  0  0  0  0  0  0
   56.1425   30.9294   42.6439 H   0  0  0  0  0  0  0  0  0  0  0  0
   56.4055   29.1524   42.6439 H   0  0  0  0  0  0  0  0  0  0  0  0
   57.8047   29.2396   44.5563 H   0  0  0  0  0  0  0  0  0  0  0  0
   58.2974   30.6744   43.5759 H   0  0  0  0  0  0  0  0  0  0  0  0
   57.3719   33.1530   43.5666 H   0  0  0  0  0  0  0  0  0  0  0  0
   58.3993   35.3624   44.0529 H   0  0  0  0  0  0  0  0  0  0  0  0
   59.4250   35.8034   46.2714 H   0  0  0  0  0  0  0  0  0  0  0  0
   59.6671   35.2268   48.5250 H   0  0  0  0  0  0  0  0  0  0  0  0
   59.0454   33.6270   49.1642 H   0  0  0  0  0  0  0  0  0  0  0  0
   61.1961   33.3740   46.4226 H   0  0  0  0  0  0  0  0  0  0  0  0
   62.0827   34.7864   47.1078 H   0  0  0  0  0  0  0  0  0  0  0  0
   62.8398   31.8240   47.2298 H   0  0  0  0  0  0  0  0  0  0  0  0
   63.7894   33.2006   46.5644 H   0  0  0  0  0  0  0  0  0  0  0  0
   66.0380   32.8250   50.7910 H   0  0  0  0  0  0  0  0  0  0  0  0
   63.8698   33.9337   51.7951 H   0  0  0  0  0  0  0  0  0  0  0  0
   61.2068   33.9460   50.6036 H   0  0  0  0  0  0  0  0  0  0  0  0
   61.8254   35.2775   49.5734 H   0  0  0  0  0  0  0  0  0  0  0  0
   59.4174   30.3843   49.1191 H   0  0  0  0  0  0  0  0  0  0  0  0
   58.8597   29.6515   47.5768 H   0  0  0  0  0  0  0  0  0  0  0  0
   60.2364   30.8053   47.5768 H   0  0  0  0  0  0  0  0  0  0  0  0
  1  2  1  0
  2  3  1  0
  3  4  1  0
  4  5  2  0
  5  6  1  0
  6  7  2  0
  7  8  1  0
  8  9  1  0
  9 10  1  0
 10 11  1  0
 11 12  1  0
 12 13  1  0
 13 14  1  0
 14 15  2  0
 15 16  1  0
 16 17  2  0
 17 18  1  0
  8 19  2  0
 19 20  1  0
 20 21  1  0
 19  4  1  0
 18 10  1  0
 17 13  1  0
  1 22  1  0
  1 23  1  0
  1 24  1  0
  2 25  1  0
  2 26  1  0
  5 27  1  0
  6 28  1  0
  7 29  1  0
  9 30  1  0
  9 31  1  0
 11 32  1  0
 11 33  1  0
 12 34  1  0
 12 35  1  0
 15 36  1  0
 16 37  1  0
 18 38  1  0
 18 39  1  0
 21 40  1  0
 21 41  1  0
 21 42  1  0
M  CHG  1  15   1
M  END
>  <UniqueID>  (44) 
42

>  <SMILES>  (44) 
CCOc1cccc(CN2CCn3n[nH+]cc3C2)c1OC

>  <Energy>  (44) 
86.27073498399824

>  <Genealogy>  (44) 
CCOc1cccc(CN2CCn3n[nH+]cc3C2)c1OC (protonated)
CCOc1cccc(CN2CCn3n[nH+]cc3C2)c1OC (3D coordinates assigned)
CCOc1cccc(CN2CCn3n[nH+]cc3C2)c1OC (nonaromatic ring conformer: 86.27073498399824 kcal/mol)

>  <smiles>  (44) 
CCOc1cccc(CN2CCn3nncc3C2)c1OC

>  <score_type>  (44) 
oracle

>  <origin>  (44) 
adg

>  <m_score__min__energy>  (44) 
-6.4199999999999999

>  <m_primary>  (44) 
energy

$$$$
44:0
     RDKit          3D

 38 39  0  0  0  0  0  0  0  0999 V2000
   59.6880   33.1980   49.5040 C   0  0  0  0  0  0  0  0  0  0  0  0
   59.2760   34.1980   48.5780 O   0  0  0  0  0  0  0  0  0  0  0  0
   58.9920   33.9570   47.2260 C   0  0  0  0  0  0  0  0  0  0  0  0
   59.5000   34.8450   46.2710 C   0  0  0  0  0  0  0  0  0  0  0  0
   59.2340   34.6520   44.9130 C   0  0  0  0  0  0  0  0  0  0  0  0
   58.4530   33.5710   44.4970 C   0  0  0  0  0  0  0  0  0  0  0  0
   57.9280   32.6730   45.4440 C   0  0  0  0  0  0  0  0  0  0  0  0
   57.1070   31.5950   45.0830 O   0  0  0  0  0  0  0  0  0  0  0  0
   56.8540   31.1880   43.7410 C   0  0  0  0  0  0  0  0  0  0  0  0
   55.9160   29.9810   43.7290 C   0  0  0  0  0  0  0  0  0  0  0  0
   55.7970   29.3590   45.0590 N   0  0  0  0  0  0  0  0  0  0  0  0
   56.7020   28.2110   45.2460 C   0  0  0  0  0  0  0  0  0  0  0  0
   58.0970   28.6940   45.5510 C   0  0  0  0  0  0  0  0  0  0  0  0
   58.3850   29.3360   46.7680 C   0  0  0  0  0  0  0  0  0  0  0  0
   59.6760   29.8090   47.0270 C   0  0  0  0  0  0  0  0  0  0  0  0
   60.6900   29.6300   46.0830 C   0  0  0  0  0  0  0  0  0  0  0  0
   60.4170   28.9740   44.8790 C   0  0  0  0  0  0  0  0  0  0  0  0
   59.1280   28.5070   44.6130 C   0  0  0  0  0  0  0  0  0  0  0  0
   58.2130   32.8630   46.8020 C   0  0  0  0  0  0  0  0  0  0  0  0
   59.5372   33.5641   50.5303 H   0  0  0  0  0  0  0  0  0  0  0  0
   59.0921   32.2865   49.3486 H   0  0  0  0  0  0  0  0  0  0  0  0
   60.7530   32.9708   49.3486 H   0  0  0  0  0  0  0  0  0  0  0  0
   60.1127   35.7005   46.5916 H   0  0  0  0  0  0  0  0  0  0  0  0
   59.6407   35.3532   44.1694 H   0  0  0  0  0  0  0  0  0  0  0  0
   58.2481   33.4217   43.4266 H   0  0  0  0  0  0  0  0  0  0  0  0
   56.3869   32.0179   43.1905 H   0  0  0  0  0  0  0  0  0  0  0  0
   57.8049   30.9113   43.2621 H   0  0  0  0  0  0  0  0  0  0  0  0
   54.9190   30.3098   43.4006 H   0  0  0  0  0  0  0  0  0  0  0  0
   56.3358   29.2323   43.0410 H   0  0  0  0  0  0  0  0  0  0  0  0
   56.0560   30.0900   45.7630 H   0  0  0  0  0  0  0  0  0  0  0  0
   56.3397   27.5947   46.0820 H   0  0  0  0  0  0  0  0  0  0  0  0
   56.7220   27.6146   44.3219 H   0  0  0  0  0  0  0  0  0  0  0  0
   57.5924   29.4670   47.5194 H   0  0  0  0  0  0  0  0  0  0  0  0
   59.8928   30.3225   47.9753 H   0  0  0  0  0  0  0  0  0  0  0  0
   61.7036   30.0053   46.2871 H   0  0  0  0  0  0  0  0  0  0  0  0
   61.2184   28.8255   44.1403 H   0  0  0  0  0  0  0  0  0  0  0  0
   58.9181   27.9902   43.6649 H   0  0  0  0  0  0  0  0  0  0  0  0
   57.8246   32.1507   47.5448 H   0  0  0  0  0  0  0  0  0  0  0  0
  1  2  1  0
  2  3  1  0
  3  4  2  0
  4  5  1  0
  5  6  2  0
  6  7  1  0
  7  8  1  0
  8  9  1  0
  9 10  1  0
 10 11  1  0
 11 12  1  0
 12 13  1  0
 13 14  2  0
 14 15  1  0
 15 16  2  0
 16 17  1  0
 17 18  2  0
  7 19  2  0
 19  3  1  0
 18 13  1  0
  1 20  1  0
  1 21  1  0
  1 22  1  0
  4 23  1  0
  5 24  1  0
  6 25  1  0
  9 26  1  0
  9 27  1  0
 10 28  1  0
 10 29  1  0
 11 30  1  0
 12 31  1  0
 12 32  1  0
 14 33  1  0
 15 34  1  0
 16 35  1  0
 17 36  1  0
 18 37  1  0
 19 38  1  0
M  END
>  <UniqueID>  (45) 
43

>  <SMILES>  (45) 
COc1cccc(OCCNCc2ccccc2)c1

>  <Energy>  (45) 
32.089158125010734

>  <Genealogy>  (45) 
COc1cccc(OCCNCc2ccccc2)c1 (3D coordinates assigned)
COc1cccc(OCCNCc2ccccc2)c1 (optimized conformer: 32.089158125010734 kcal/mol)

>  <smiles>  (45) 
COc1cccc(OCCNCc2ccccc2)c1

>  <score_type>  (45) 
oracle

>  <origin>  (45) 
adg

>  <m_score__min__energy>  (45) 
-6.4000000000000004

>  <m_primary>  (45) 
energy

$$$$
45:0
     RDKit          3D

 25 26  0  0  0  0  0  0  0  0999 V2000
   56.5180   30.1290   42.7000 O   0  0  0  0  0  0  0  0  0  0  0  0
   56.3940   30.0280   44.1940 S   0  0  0  0  0  0  0  0  0  0  0  0
   55.1420   29.2700   44.5320 O   0  0  0  0  0  0  0  0  0  0  0  0
   56.2860   31.6260   44.8610 N   0  0  0  0  0  0  0  0  0  0  0  0
   57.4040   32.4720   45.1590 C   0  0  0  0  0  0  0  0  0  0  0  0
   57.8280   32.7270   46.4740 C   0  0  0  0  0  0  0  0  0  0  0  0
   58.9200   33.5660   46.7040 C   0  0  0  0  0  0  0  0  0  0  0  0
   59.5810   34.1410   45.6190 C   0  0  0  0  0  0  0  0  0  0  0  0
   59.1620   33.8840   44.3510 N   0  0  0  0  0  0  0  0  0  0  0  0
   58.1000   33.0700   44.1020 C   0  0  0  0  0  0  0  0  0  0  0  0
   57.7760   29.1790   44.8770 C   0  0  0  0  0  0  0  0  0  0  0  0
   59.0780   29.6150   44.5930 C   0  0  0  0  0  0  0  0  0  0  0  0
   60.1790   28.9380   45.1270 C   0  0  0  0  0  0  0  0  0  0  0  0
   59.9850   27.8250   45.9510 C   0  0  0  0  0  0  0  0  0  0  0  0
   61.0520   27.1690   46.4690 F   0  0  0  0  0  0  0  0  0  0  0  0
   58.6870   27.3900   46.2410 C   0  0  0  0  0  0  0  0  0  0  0  0
   57.5850   28.0650   45.7080 C   0  0  0  0  0  0  0  0  0  0  0  0
   57.3000   32.2660   47.3217 H   0  0  0  0  0  0  0  0  0  0  0  0
   59.2557   33.7715   47.7312 H   0  0  0  0  0  0  0  0  0  0  0  0
   60.4426   34.8034   45.7891 H   0  0  0  0  0  0  0  0  0  0  0  0
   57.7870   32.8811   43.0645 H   0  0  0  0  0  0  0  0  0  0  0  0
   59.2339   30.4924   43.9481 H   0  0  0  0  0  0  0  0  0  0  0  0
   61.1988   29.2814   44.8986 H   0  0  0  0  0  0  0  0  0  0  0  0
   58.5335   26.5150   46.8898 H   0  0  0  0  0  0  0  0  0  0  0  0
   56.5661   27.7220   45.9406 H   0  0  0  0  0  0  0  0  0  0  0  0
  1  2  2  0
  2  3  2  0
  2  4  1  0
  4  5  1  0
  5  6  2  0
  6  7  1  0
  7  8  2  0
  8  9  1  0
  9 10  2  0
  2 11  1  0
 11 12  2  0
 12 13  1  0
 13 14  2  0
 14 15  1  0
 14 16  1  0
 16 17  2  0
 10  5  1  0
 17 11  1  0
  6 18  1  0
  7 19  1  0
  8 20  1  0
 10 21  1  0
 12 22  1  0
 13 23  1  0
 16 24  1  0
 17 25  1  0
M  CHG  1   4  -1
M  END
>  <UniqueID>  (46) 
44

>  <SMILES>  (46) 
O=S(=O)([N-]c1cccnc1)c1ccc(F)cc1

>  <Energy>  (46) 
29.686640671670354

>  <Genealogy>  (46) 
O=S(=O)([N-]c1cccnc1)c1ccc(F)cc1 (protonated)
O=S(=O)([N-]c1cccnc1)c1ccc(F)cc1 (3D coordinates assigned)
O=S(=O)([N-]c1cccnc1)c1ccc(F)cc1 (optimized conformer: 29.686640671670354 kcal/mol)

>  <smiles>  (46) 
O=S(=O)(Nc1cccnc1)c1ccc(F)cc1

>  <score_type>  (46) 
oracle

>  <origin>  (46) 
adg

>  <m_score__min__energy>  (46) 
-7.7599999999999998

>  <m_primary>  (46) 
energy

$$$$
46:0
     RDKit          3D

 41 43  0  0  0  0  0  0  0  0999 V2000
   59.2690   35.3500   44.9260 C   0  0  0  0  0  0  0  0  0  0  0  0
   59.1210   34.2770   45.9240 N   0  0  0  0  0  0  0  0  0  0  0  0
   57.7520   33.7150   45.8740 C   0  0  0  0  0  0  0  0  0  0  0  0
   57.7800   32.1950   46.0810 C   0  0  0  0  0  0  0  0  0  0  0  0
   57.3210   31.4700   44.8480 C   0  0  0  0  0  0  0  0  0  0  0  0
   57.6630   31.9400   43.5710 C   0  0  0  0  0  0  0  0  0  0  0  0
   57.2570   31.2210   42.4450 C   0  0  0  0  0  0  0  0  0  0  0  0
   56.5250   30.0430   42.6000 C   0  0  0  0  0  0  0  0  0  0  0  0
   56.2100   29.5990   43.8860 C   0  0  0  0  0  0  0  0  0  0  0  0
   56.6140   30.3130   44.9710 N   0  0  0  0  0  0  0  0  0  0  0  0
   59.4470   34.7750   47.2780 C   0  0  0  0  0  0  0  0  0  0  0  0
   60.7710   34.2190   47.7320 C   0  0  0  0  0  0  0  0  0  0  0  0
   61.6820   33.7240   46.7870 C   0  0  0  0  0  0  0  0  0  0  0  0
   62.9240   33.2300   47.1900 C   0  0  0  0  0  0  0  0  0  0  0  0
   63.2760   33.2280   48.5470 C   0  0  0  0  0  0  0  0  0  0  0  0
   64.5240   32.7370   48.9630 C   0  0  0  0  0  0  0  0  0  0  0  0
   64.8630   32.7420   50.3190 C   0  0  0  0  0  0  0  0  0  0  0  0
   63.9630   33.2370   51.2670 C   0  0  0  0  0  0  0  0  0  0  0  0
   62.7180   33.7290   50.8660 C   0  0  0  0  0  0  0  0  0  0  0  0
   62.3640   33.7290   49.5080 C   0  0  0  0  0  0  0  0  0  0  0  0
   61.1180   34.2220   49.0940 C   0  0  0  0  0  0  0  0  0  0  0  0
   59.4019   36.3133   45.4402 H   0  0  0  0  0  0  0  0  0  0  0  0
   60.1476   35.1463   44.2962 H   0  0  0  0  0  0  0  0  0  0  0  0
   58.3681   35.3918   44.2962 H   0  0  0  0  0  0  0  0  0  0  0  0
   57.1437   34.1758   46.6662 H   0  0  0  0  0  0  0  0  0  0  0  0
   57.3187   33.9287   44.8858 H   0  0  0  0  0  0  0  0  0  0  0  0
   58.8082   31.8841   46.3181 H   0  0  0  0  0  0  0  0  0  0  0  0
   57.0983   31.9434   46.9069 H   0  0  0  0  0  0  0  0  0  0  0  0
   58.2455   32.8662   43.4579 H   0  0  0  0  0  0  0  0  0  0  0  0
   57.5135   31.5822   41.4382 H   0  0  0  0  0  0  0  0  0  0  0  0
   56.1997   29.4705   41.7189 H   0  0  0  0  0  0  0  0  0  0  0  0
   55.6348   28.6712   44.0216 H   0  0  0  0  0  0  0  0  0  0  0  0
   59.5020   35.8734   47.2576 H   0  0  0  0  0  0  0  0  0  0  0  0
   58.6627   34.4511   47.9780 H   0  0  0  0  0  0  0  0  0  0  0  0
   61.4156   33.7251   45.7198 H   0  0  0  0  0  0  0  0  0  0  0  0
   63.6287   32.8410   46.4403 H   0  0  0  0  0  0  0  0  0  0  0  0
   65.2361   32.3477   48.2205 H   0  0  0  0  0  0  0  0  0  0  0  0
   65.8411   32.3552   50.6411 H   0  0  0  0  0  0  0  0  0  0  0  0
   64.2357   33.2393   52.3326 H   0  0  0  0  0  0  0  0  0  0  0  0
   62.0138   34.1172   51.6166 H   0  0  0  0  0  0  0  0  0  0  0  0
   60.4090   34.6128   49.8387 H   0  0  0  0  0  0  0  0  0  0  0  0
  1  2  1  0
  2  3  1  0
  3  4  1  0
  4  5  1  0
  5  6  2  0
  6  7  1  0
  7  8  2  0
  8  9  1  0
  9 10  2  0
  2 11  1  0
 11 12  1  0
 12 13  2  0
 13 14  1  0
 14 15  2  0
 15 16  1  0
 16 17  2  0
 17 18  1  0
 18 19  2  0
 19 20  1  0
 20 21  2  0
 10  5  1  0
 21 12  1  0
 20 15  1  0
  1 22  1  0
  1 23  1  0
  1 24  1  0
  3 25  1  0
  3 26  1  0
  4 27  1  0
  4 28  1  0
  6 29  1  0
  7 30  1  0
  8 31  1  0
  9 32  1  0
 11 33  1  0
 11 34  1  0
 13 35  1  0
 14 36  1  0
 16 37  1  0
 17 38  1  0
 18 39  1  0
 19 40  1  0
 21 41  1  0
M  END
>  <UniqueID>  (47) 
45

>  <SMILES>  (47) 
CN(CCc1ccccn1)Cc1ccc2ccccc2c1

>  <Energy>  (47) 
44.751015509234236

>  <Genealogy>  (47) 
CN(CCc1ccccn1)Cc1ccc2ccccc2c1 (3D coordinates assigned)
CN(CCc1ccccn1)Cc1ccc2ccccc2c1 (optimized conformer: 44.751015509234236 kcal/mol)

>  <smiles>  (47) 
CN(CCc1ccccn1)Cc1ccc2ccccc2c1

>  <score_type>  (47) 
oracle

>  <origin>  (47) 
adg

>  <m_score__min__energy>  (47) 
-7.8799999999999999

>  <m_primary>  (47) 
energy

$$$$
47:0
     RDKit          3D

 35 37  0  0  0  0  0  0  0  0999 V2000
   56.9230   28.8260   43.2140 O   0  0  0  0  0  0  0  0  0  0  0  0
   56.5550   29.7140   44.0100 N   0  0  0  0  0  0  0  0  0  0  0  0
   55.5050   29.4480   44.8580 O   0  0  0  0  0  0  0  0  0  0  0  0
   57.4520   30.7890   44.3140 C   0  0  0  0  0  0  0  0  0  0  0  0
   57.4580   31.8900   43.4440 C   0  0  0  0  0  0  0  0  0  0  0  0
   58.0540   33.0910   43.8170 C   0  0  0  0  0  0  0  0  0  0  0  0
   58.6220   33.2240   45.0780 C   0  0  0  0  0  0  0  0  0  0  0  0
   58.6690   32.1300   45.9540 C   0  0  0  0  0  0  0  0  0  0  0  0
   59.2240   32.2970   47.2290 C   0  0  0  0  0  0  0  0  0  0  0  0
   59.3120   31.2210   48.1020 C   0  0  0  0  0  0  0  0  0  0  0  0
   58.9240   29.9510   47.6870 C   0  0  0  0  0  0  0  0  0  0  0  0
   58.4020   29.7360   46.4010 C   0  0  0  0  0  0  0  0  0  0  0  0
   58.3370   28.0460   45.8500 S   0  0  0  0  0  0  0  0  0  0  0  0
   58.8910   27.9600   44.4540 O   0  0  0  0  0  0  0  0  0  0  0  0
   59.1680   27.1750   46.7500 O   0  0  0  0  0  0  0  0  0  0  0  0
   56.6880   27.4970   45.8130 N   0  0  0  0  0  0  0  0  0  0  0  0
   56.6050   26.1440   46.3630 C   0  0  0  0  0  0  0  0  0  0  0  0
   56.5030   25.1550   45.2470 C   0  0  0  0  0  0  0  0  0  0  0  0
   57.3950   25.0270   44.1900 C   0  0  0  0  0  0  0  0  0  0  0  0
   56.9990   24.0680   43.2490 C   0  0  0  0  0  0  0  0  0  0  0  0
   55.7930   23.4520   43.5560 C   0  0  0  0  0  0  0  0  0  0  0  0
   55.2160   24.1030   44.9960 S   0  0  0  0  0  0  0  0  0  0  0  0
   58.1590   30.8600   45.5500 C   0  0  0  0  0  0  0  0  0  0  0  0
   56.9855   31.8026   42.4545 H   0  0  0  0  0  0  0  0  0  0  0  0
   58.0754   33.9358   43.1128 H   0  0  0  0  0  0  0  0  0  0  0  0
   59.0373   34.1933   45.3911 H   0  0  0  0  0  0  0  0  0  0  0  0
   59.5921   33.2857   47.5403 H   0  0  0  0  0  0  0  0  0  0  0  0
   59.6893   31.3730   49.1240 H   0  0  0  0  0  0  0  0  0  0  0  0
   59.0278   29.1011   48.3776 H   0  0  0  0  0  0  0  0  0  0  0  0
   56.4040   27.4620   44.8080 H   0  0  0  0  0  0  0  0  0  0  0  0
   57.5068   25.9342   46.9569 H   0  0  0  0  0  0  0  0  0  0  0  0
   55.7150   26.0642   47.0046 H   0  0  0  0  0  0  0  0  0  0  0  0
   58.3182   25.6184   44.1010 H   0  0  0  0  0  0  0  0  0  0  0  0
   57.5876   23.8258   42.3518 H   0  0  0  0  0  0  0  0  0  0  0  0
   55.2989   22.6712   42.9592 H   0  0  0  0  0  0  0  0  0  0  0  0
  1  2  2  0
  2  3  1  0
  2  4  1  0
  4  5  2  0
  5  6  1  0
  6  7  2  0
  7  8  1  0
  8  9  2  0
  9 10  1  0
 10 11  2  0
 11 12  1  0
 12 13  1  0
 13 14  2  0
 13 15  2  0
 13 16  1  0
 16 17  1  0
 17 18  1  0
 18 19  2  0
 19 20  1  0
 20 21  2  0
 21 22  1  0
 12 23  2  0
 23  4  1  0
 23  8  1  0
 22 18  1  0
  5 24  1  0
  6 25  1  0
  7 26  1  0
  9 27  1  0
 10 28  1  0
 11 29  1  0
 16 30  1  0
 17 31  1  0
 17 32  1  0
 19 33  1  0
 20 34  1  0
 21 35  1  0
M  CHG  2   2   1   3  -1
M  END
>  <UniqueID>  (48) 
46

>  <SMILES>  (48) 
O=[N+]([O-])c1cccc2cccc(S(=O)(=O)NCc3cccs3)c12

>  <Energy>  (48) 
81.1334168777372

>  <Genealogy>  (48) 
O=[N+]([O-])c1cccc2cccc(S(=O)(=O)NCc3cccs3)c12 (3D coordinates assigned)
O=[N+]([O-])c1cccc2cccc(S(=O)(=O)NCc3cccs3)c12 (optimized conformer: 81.1334168777372 kcal/mol)

>  <smiles>  (48) 
O=[N+]([O-])c1cccc2cccc(S(=O)(=O)NCc3cccs3)c12

>  <score_type>  (48) 
oracle

>  <origin>  (48) 
adg

>  <m_score__min__energy>  (48) 
-7.8200000000000003

>  <m_primary>  (48) 
energy

$$$$
