0:0
     RDKit          3D

 62 66  0  0  0  0  0  0  0  0999 V2000
   58.2020   27.0140   46.2640 C   0  0  0  0  0  0  0  0  0  0  0  0
   56.6960   27.0970   45.9930 C   0  0  0  0  0  0  0  0  0  0  0  0
   56.3340   28.2630   45.1720 N   0  0  0  0  0  0  0  0  0  0  0  0
   57.3050   28.5080   44.0960 C   0  0  0  0  0  0  0  0  0  0  0  0
   56.6740   29.3590   42.9890 C   0  0  0  0  0  0  0  0  0  0  0  0
   56.6280   30.8460   43.3650 C   0  0  0  0  0  0  0  0  0  0  0  0
   56.5940   31.0040   44.7840 O   0  0  0  0  0  0  0  0  0  0  0  0
   57.6960   31.3140   45.5970 C   0  0  0  0  0  0  0  0  0  0  0  0
   58.6120   30.3460   46.0390 C   0  0  0  0  0  0  0  0  0  0  0  0
   59.6770   30.7040   46.8670 C   0  0  0  0  0  0  0  0  0  0  0  0
   59.8280   32.0290   47.3270 C   0  0  0  0  0  0  0  0  0  0  0  0
   58.9750   33.0200   46.7730 C   0  0  0  0  0  0  0  0  0  0  0  0
   59.2330   34.3750   47.0040 C   0  0  0  0  0  0  0  0  0  0  0  0
   60.3610   34.7590   47.7190 C   0  0  0  0  0  0  0  0  0  0  0  0
   61.1830   33.8000   48.3120 C   0  0  0  0  0  0  0  0  0  0  0  0
   62.2900   34.2140   48.9760 N   0  0  0  0  0  0  0  0  0  0  0  0
   63.1230   33.3480   49.6000 C   0  0  0  0  0  0  0  0  0  0  0  0
   64.2920   33.8310   50.1990 C   0  0  0  0  0  0  0  0  0  0  0  0
   65.1590   32.9560   50.8520 C   0  0  0  0  0  0  0  0  0  0  0  0
   64.8630   31.5930   50.9090 C   0  0  0  0  0  0  0  0  0  0  0  0
   63.6910   31.1030   50.3270 C   0  0  0  0  0  0  0  0  0  0  0  0
   62.7930   31.9770   49.6750 C   0  0  0  0  0  0  0  0  0  0  0  0
   61.5660   31.5320   49.1110 C   0  0  0  0  0  0  0  0  0  0  0  0
   60.9320   30.2530   49.6720 C   0  0  0  0  0  0  0  0  0  0  0  0
   59.4830   30.3700   49.8530 N   0  0  0  0  0  0  0  0  0  0  0  0
   58.8490   31.3180   50.7330 C   0  0  0  0  0  0  0  0  0  0  0  0
   59.4650   32.5360   51.0790 C   0  0  0  0  0  0  0  0  0  0  0  0
   58.8050   33.4510   51.9050 C   0  0  0  0  0  0  0  0  0  0  0  0
   57.5310   33.1580   52.3970 C   0  0  0  0  0  0  0  0  0  0  0  0
   56.9140   31.9490   52.0650 C   0  0  0  0  0  0  0  0  0  0  0  0
   57.5710   31.0320   51.2400 C   0  0  0  0  0  0  0  0  0  0  0  0
   60.8620   32.4200   48.2350 C   0  0  0  0  0  0  0  0  0  0  0  0
   57.9000   32.6490   45.9500 C   0  0  0  0  0  0  0  0  0  0  0  0
   58.3792   27.0042   47.3496 H   0  0  0  0  0  0  0  0  0  0  0  0
   58.6045   26.0923   45.8185 H   0  0  0  0  0  0  0  0  0  0  0  0
   58.7033   27.8859   45.8185 H   0  0  0  0  0  0  0  0  0  0  0  0
   56.3816   26.1838   45.4666 H   0  0  0  0  0  0  0  0  0  0  0  0
   56.1874   27.2006   46.9628 H   0  0  0  0  0  0  0  0  0  0  0  0
   56.2740   29.1140   45.7800 H   0  0  0  0  0  0  0  0  0  0  0  0
   58.1763   29.0380   44.5082 H   0  0  0  0  0  0  0  0  0  0  0  0
   57.6158   27.5427   43.6699 H   0  0  0  0  0  0  0  0  0  0  0  0
   57.2670   29.2430   42.0698 H   0  0  0  0  0  0  0  0  0  0  0  0
   55.6403   29.0131   42.8410 H   0  0  0  0  0  0  0  0  0  0  0  0
   57.5222   31.3476   42.9666 H   0  0  0  0  0  0  0  0  0  0  0  0
   55.7188   31.2927   42.9362 H   0  0  0  0  0  0  0  0  0  0  0  0
   58.4893   29.2974   45.7303 H   0  0  0  0  0  0  0  0  0  0  0  0
   60.4105   29.9406   47.1657 H   0  0  0  0  0  0  0  0  0  0  0  0
   58.5413   35.1387   46.6188 H   0  0  0  0  0  0  0  0  0  0  0  0
   60.6076   35.8264   47.8182 H   0  0  0  0  0  0  0  0  0  0  0  0
   64.5275   34.9046   50.1544 H   0  0  0  0  0  0  0  0  0  0  0  0
   66.0764   33.3397   51.3223 H   0  0  0  0  0  0  0  0  0  0  0  0
   65.5547   30.9025   51.4137 H   0  0  0  0  0  0  0  0  0  0  0  0
   63.4657   30.0275   50.3770 H   0  0  0  0  0  0  0  0  0  0  0  0
   61.1335   29.4260   48.9753 H   0  0  0  0  0  0  0  0  0  0  0  0
   61.3757   30.0700   50.6618 H   0  0  0  0  0  0  0  0  0  0  0  0
   58.8740   29.7450   49.2780 H   0  0  0  0  0  0  0  0  0  0  0  0
   60.4702   32.7688   50.6977 H   0  0  0  0  0  0  0  0  0  0  0  0
   59.2897   34.4028   52.1677 H   0  0  0  0  0  0  0  0  0  0  0  0
   57.0131   33.8794   53.0462 H   0  0  0  0  0  0  0  0  0  0  0  0
   55.9108   31.7189   52.4531 H   0  0  0  0  0  0  0  0  0  0  0  0
   57.0835   30.0792   50.9859 H   0  0  0  0  0  0  0  0  0  0  0  0
   57.2094   33.4204   45.5784 H   0  0  0  0  0  0  0  0  0  0  0  0
  1  2  1  0
  2  3  1  0
  3  4  1  0
  4  5  1  0
  5  6  1  0
  6  7  1  0
  7  8  1  0
  8  9  2  0
  9 10  1  0
 10 11  2  0
 11 12  1  0
 12 13  1  0
 13 14  2  0
 14 15  1  0
 15 16  2  0
 16 17  1  0
 17 18  2  0
 18 19  1  0
 19 20  2  0
 20 21  1  0
 21 22  2  0
 22 23  1  0
 23 24  1  0
 24 25  1  0
 25 26  1  0
 26 27  2  0
 27 28  1  0
 28 29  2  0
 29 30  1  0
 30 31  2  0
 23 32  2  0
 12 33  2  0
 33  8  1  0
 32 11  1  0
 32 15  1  0
 22 17  1  0
 31 26  1  0
  1 34  1  0
  1 35  1  0
  1 36  1  0
  2 37  1  0
  2 38  1  0
  3 39  1  0
  4 40  1  0
  4 41  1  0
  5 42  1  0
  5 43  1  0
  6 44  1  0
  6 45  1  0
  9 46  1  0
 10 47  1  0
 13 48  1  0
 14 49  1  0
 18 50  1  0
 19 51  1  0
 20 52  1  0
 21 53  1  0
 24 54  1  0
 24 55  1  0
 25 56  1  0
 27 57  1  0
 28 58  1  0
 29 59  1  0
 30 60  1  0
 31 61  1  0
 33 62  1  0
M  END
>  <UniqueID>  (1) 
1

>  <SMILES>  (1) 
CCNCCCOc1ccc2c(ccc3nc4ccccc4c(CNc4ccccc4)c32)c1

>  <Energy>  (1) 
92.23955808705146

>  <Genealogy>  (1) 
CCNCCCOc1ccc2c(ccc3nc4ccccc4c(CNc4ccccc4)c32)c1 (3D coordinates assigned)
CCNCCCOc1ccc2c(ccc3nc4ccccc4c(CNc4ccccc4)c32)c1 (optimized conformer: 92.23955808705146 kcal/mol)

>  <smiles>  (1) 
CCNCCCOc1ccc2c(ccc3nc4ccccc4c(CNc4ccccc4)c32)c1

>  <score_type>  (1) 
oracle

>  <origin>  (1) 
adg

>  <m_score__min__energy>  (1) 
-9.6400000000000006

>  <m_primary>  (1) 
energy

$$$$
1:0
     RDKit          3D

 72 74  0  0  0  0  0  0  0  0999 V2000
   63.6390   33.0660   47.0920 C   0  0  0  0  0  0  0  0  0  0  0  0
   62.5090   33.8090   46.3860 C   0  0  0  0  0  0  0  0  0  0  0  0
   61.3120   33.8710   47.2560 N   0  0  0  0  0  0  0  0  0  0  0  0
   61.6950   34.2070   48.6400 C   0  0  0  0  0  0  0  0  0  0  0  0
   60.3250   34.8510   46.7520 C   0  0  0  0  0  0  0  0  0  0  0  0
   59.6460   34.3160   45.4810 C   0  0  0  0  0  0  0  0  0  0  0  0
   58.1320   34.5670   45.4850 C   0  0  0  0  0  0  0  0  0  0  0  0
   57.4220   33.5260   46.2330 N   0  0  0  0  0  0  0  0  0  0  0  0
   57.9440   32.1910   46.3810 C   0  0  0  0  0  0  0  0  0  0  0  0
   57.7630   31.2460   45.3530 C   0  0  0  0  0  0  0  0  0  0  0  0
   57.0930   31.5920   44.1590 C   0  0  0  0  0  0  0  0  0  0  0  0
   56.8380   30.6340   43.1800 C   0  0  0  0  0  0  0  0  0  0  0  0
   57.2340   29.3170   43.3760 C   0  0  0  0  0  0  0  0  0  0  0  0
   57.9150   28.9560   44.5360 C   0  0  0  0  0  0  0  0  0  0  0  0
   58.2270   29.9150   45.5340 C   0  0  0  0  0  0  0  0  0  0  0  0
   58.9410   29.5780   46.6690 N   0  0  0  0  0  0  0  0  0  0  0  0
   59.6660   28.2870   46.7270 C   0  0  0  0  0  0  0  0  0  0  0  0
   59.0170   30.4600   47.7300 C   0  0  0  0  0  0  0  0  0  0  0  0
   59.5130   30.0630   48.9970 C   0  0  0  0  0  0  0  0  0  0  0  0
   59.6690   30.9840   50.0480 C   0  0  0  0  0  0  0  0  0  0  0  0
   60.1450   30.6120   51.3170 O   0  0  0  0  0  0  0  0  0  0  0  0
   61.4290   30.0580   51.6070 C   0  0  0  0  0  0  0  0  0  0  0  0
   62.5350   30.6130   50.6750 C   0  0  0  0  0  0  0  0  0  0  0  0
   63.4030   31.6910   51.2460 N   0  0  0  0  0  0  0  0  0  0  0  0
   64.3520   32.2210   50.2380 C   0  0  0  0  0  0  0  0  0  0  0  0
   64.1540   31.2130   52.4320 C   0  0  0  0  0  0  0  0  0  0  0  0
   62.5170   32.8020   51.6740 C   0  0  0  0  0  0  0  0  0  0  0  0
   59.3510   32.3270   49.8400 C   0  0  0  0  0  0  0  0  0  0  0  0
   59.5570   33.2290   50.8960 O   0  0  0  0  0  0  0  0  0  0  0  0
   58.6860   33.3830   52.0130 C   0  0  0  0  0  0  0  0  0  0  0  0
   58.8210   32.7310   48.6070 C   0  0  0  0  0  0  0  0  0  0  0  0
   58.5850   31.8000   47.5740 C   0  0  0  0  0  0  0  0  0  0  0  0
   63.5096   33.1511   48.1810 H   0  0  0  0  0  0  0  0  0  0  0  0
   63.6177   32.0051   46.8020 H   0  0  0  0  0  0  0  0  0  0  0  0
   64.6045   33.5060   46.8020 H   0  0  0  0  0  0  0  0  0  0  0  0
   62.8391   34.8313   46.1496 H   0  0  0  0  0  0  0  0  0  0  0  0
   62.2514   33.2726   45.4608 H   0  0  0  0  0  0  0  0  0  0  0  0
   61.0586   33.6487   49.3424 H   0  0  0  0  0  0  0  0  0  0  0  0
   62.7483   33.9363   48.8050 H   0  0  0  0  0  0  0  0  0  0  0  0
   61.5637   35.2866   48.8050 H   0  0  0  0  0  0  0  0  0  0  0  0
   59.5620   35.0281   47.5243 H   0  0  0  0  0  0  0  0  0  0  0  0
   60.8433   35.7914   46.5130 H   0  0  0  0  0  0  0  0  0  0  0  0
   60.0861   34.8170   44.6062 H   0  0  0  0  0  0  0  0  0  0  0  0
   59.8086   33.2288   45.4425 H   0  0  0  0  0  0  0  0  0  0  0  0
   57.9318   35.5430   45.9512 H   0  0  0  0  0  0  0  0  0  0  0  0
   57.7747   34.5521   44.4447 H   0  0  0  0  0  0  0  0  0  0  0  0
   56.6250   33.8210   46.8420 H   0  0  0  0  0  0  0  0  0  0  0  0
   56.7684   32.6309   43.9999 H   0  0  0  0  0  0  0  0  0  0  0  0
   56.3228   30.9207   42.2513 H   0  0  0  0  0  0  0  0  0  0  0  0
   57.0091   28.5572   42.6130 H   0  0  0  0  0  0  0  0  0  0  0  0
   58.2165   27.9081   44.6811 H   0  0  0  0  0  0  0  0  0  0  0  0
   59.8255   28.0029   47.7777 H   0  0  0  0  0  0  0  0  0  0  0  0
   59.0722   27.5101   46.2232 H   0  0  0  0  0  0  0  0  0  0  0  0
   60.6385   28.3896   46.2232 H   0  0  0  0  0  0  0  0  0  0  0  0
   59.7823   29.0093   49.1620 H   0  0  0  0  0  0  0  0  0  0  0  0
   61.6907   30.2984   52.6480 H   0  0  0  0  0  0  0  0  0  0  0  0
   61.3696   28.9713   51.4473 H   0  0  0  0  0  0  0  0  0  0  0  0
   63.1864   29.7734   50.3906 H   0  0  0  0  0  0  0  0  0  0  0  0
   62.0027   31.0796   49.8330 H   0  0  0  0  0  0  0  0  0  0  0  0
   65.2024   32.6959   50.7491 H   0  0  0  0  0  0  0  0  0  0  0  0
   64.7168   31.3960   49.6085 H   0  0  0  0  0  0  0  0  0  0  0  0
   63.8410   32.9643   49.6085 H   0  0  0  0  0  0  0  0  0  0  0  0
   63.6400   31.5402   53.3478 H   0  0  0  0  0  0  0  0  0  0  0  0
   64.2073   30.1144   52.4140 H   0  0  0  0  0  0  0  0  0  0  0  0
   65.1718   31.6298   52.4140 H   0  0  0  0  0  0  0  0  0  0  0  0
   62.4846   32.8426   52.7728 H   0  0  0  0  0  0  0  0  0  0  0  0
   62.9071   33.7534   51.2832 H   0  0  0  0  0  0  0  0  0  0  0  0
   61.5027   32.6334   51.2832 H   0  0  0  0  0  0  0  0  0  0  0  0
   59.2625   33.2811   52.9443 H   0  0  0  0  0  0  0  0  0  0  0  0
   58.2179   34.3778   51.9785 H   0  0  0  0  0  0  0  0  0  0  0  0
   57.9052   32.6090   51.9785 H   0  0  0  0  0  0  0  0  0  0  0  0
   58.5850   33.7926   48.4420 H   0  0  0  0  0  0  0  0  0  0  0  0
  1  2  1  0
  2  3  1  0
  3  4  1  0
  3  5  1  0
  5  6  1  0
  6  7  1  0
  7  8  1  0
  8  9  1  0
  9 10  2  0
 10 11  1  0
 11 12  2  0
 12 13  1  0
 13 14  2  0
 14 15  1  0
 15 16  2  0
 16 17  1  0
 16 18  1  0
 18 19  2  0
 19 20  1  0
 20 21  1  0
 21 22  1  0
 22 23  1  0
 23 24  1  0
 24 25  1  0
 24 26  1  0
 24 27  1  0
 20 28  2  0
 28 29  1  0
 29 30  1  0
 28 31  1  0
 31 32  2  0
 32  9  1  0
 15 10  1  0
 32 18  1  0
  1 33  1  0
  1 34  1  0
  1 35  1  0
  2 36  1  0
  2 37  1  0
  4 38  1  0
  4 39  1  0
  4 40  1  0
  5 41  1  0
  5 42  1  0
  6 43  1  0
  6 44  1  0
  7 45  1  0
  7 46  1  0
  8 47  1  0
 11 48  1  0
 12 49  1  0
 13 50  1  0
 14 51  1  0
 17 52  1  0
 17 53  1  0
 17 54  1  0
 19 55  1  0
 22 56  1  0
 22 57  1  0
 23 58  1  0
 23 59  1  0
 25 60  1  0
 25 61  1  0
 25 62  1  0
 26 63  1  0
 26 64  1  0
 26 65  1  0
 27 66  1  0
 27 67  1  0
 27 68  1  0
 30 69  1  0
 30 70  1  0
 30 71  1  0
 31 72  1  0
M  CHG  2  16   1  24   1
M  END
>  <UniqueID>  (2) 
2

>  <SMILES>  (2) 
CCN(C)CCCNc1c2ccccc2[n+](C)c2cc(OCC[N+](C)(C)C)c(OC)cc12

>  <Energy>  (2) 
100.6969489279464

>  <Genealogy>  (2) 
CCN(C)CCCNc1c2ccccc2[n+](C)c2cc(OCC[N+](C)(C)C)c(OC)cc12 (3D coordinates assigned)
CCN(C)CCCNc1c2ccccc2[n+](C)c2cc(OCC[N+](C)(C)C)c(OC)cc12 (optimized conformer: 100.6969489279464 kcal/mol)

>  <smiles>  (2) 
CCN(C)CCCNc1c2ccccc2[n+](C)c2cc(OCC[N+](C)(C)C)c(OC)cc12

>  <score_type>  (2) 
oracle

>  <origin>  (2) 
adg

>  <m_score__min__energy>  (2) 
-4.4900000000000002

>  <m_primary>  (2) 
energy

$$$$
2:0
     RDKit          3D

 69 71  0  0  0  0  0  0  0  0999 V2000
   59.3140   35.0100   47.1270 C   0  0  0  0  0  0  0  0  0  0  0  0
   59.2270   34.4380   45.7140 C   0  0  0  0  0  0  0  0  0  0  0  0
   57.9100   33.8300   45.4740 N   0  0  0  0  0  0  0  0  0  0  0  0
   57.8010   33.1540   44.1700 C   0  0  0  0  0  0  0  0  0  0  0  0
   57.3940   31.6740   44.2880 C   0  0  0  0  0  0  0  0  0  0  0  0
   57.5120   31.2160   45.6230 O   0  0  0  0  0  0  0  0  0  0  0  0
   58.4410   30.1530   45.7310 C   0  0  0  0  0  0  0  0  0  0  0  0
   59.3520   30.3640   46.9440 C   0  0  0  0  0  0  0  0  0  0  0  0
   59.3150   31.7580   47.3830 N   0  0  0  0  0  0  0  0  0  0  0  0
   60.0620   32.1730   48.5370 C   0  0  0  0  0  0  0  0  0  0  0  0
   61.4100   32.5360   48.4070 C   0  0  0  0  0  0  0  0  0  0  0  0
   62.0550   32.4750   47.1530 C   0  0  0  0  0  0  0  0  0  0  0  0
   63.4060   32.7860   47.0320 C   0  0  0  0  0  0  0  0  0  0  0  0
   64.1400   33.1480   48.1570 C   0  0  0  0  0  0  0  0  0  0  0  0
   63.5180   33.2320   49.4040 C   0  0  0  0  0  0  0  0  0  0  0  0
   62.1310   32.9670   49.5520 C   0  0  0  0  0  0  0  0  0  0  0  0
   61.4850   33.1060   50.7680 N   0  0  0  0  0  0  0  0  0  0  0  0
   62.1460   33.8290   51.8770 C   0  0  0  0  0  0  0  0  0  0  0  0
   60.2100   32.5940   50.9360 C   0  0  0  0  0  0  0  0  0  0  0  0
   59.6150   32.4790   52.2200 C   0  0  0  0  0  0  0  0  0  0  0  0
   58.3020   32.0030   52.3760 C   0  0  0  0  0  0  0  0  0  0  0  0
   57.6700   31.8990   53.6270 O   0  0  0  0  0  0  0  0  0  0  0  0
   57.7490   30.7870   54.5200 C   0  0  0  0  0  0  0  0  0  0  0  0
   57.0590   29.5220   53.9500 C   0  0  0  0  0  0  0  0  0  0  0  0
   55.5630   29.5160   53.9780 N   0  0  0  0  0  0  0  0  0  0  0  0
   54.9940   30.3520   52.8940 C   0  0  0  0  0  0  0  0  0  0  0  0
   55.1320   30.0880   55.2780 C   0  0  0  0  0  0  0  0  0  0  0  0
   55.0200   28.1390   53.8780 C   0  0  0  0  0  0  0  0  0  0  0  0
   57.5860   31.6010   51.2520 C   0  0  0  0  0  0  0  0  0  0  0  0
   58.1610   31.6590   49.9860 C   0  0  0  0  0  0  0  0  0  0  0  0
   59.4700   32.1460   49.8110 C   0  0  0  0  0  0  0  0  0  0  0  0
   59.1906   34.1985   47.8593 H   0  0  0  0  0  0  0  0  0  0  0  0
   60.2950   35.4867   47.2698 H   0  0  0  0  0  0  0  0  0  0  0  0
   58.5191   35.7568   47.2698 H   0  0  0  0  0  0  0  0  0  0  0  0
   59.3876   35.2479   44.9872 H   0  0  0  0  0  0  0  0  0  0  0  0
   59.9982   33.6617   45.6011 H   0  0  0  0  0  0  0  0  0  0  0  0
   57.6970   33.1540   46.2450 H   0  0  0  0  0  0  0  0  0  0  0  0
   57.0450   33.6777   43.5665 H   0  0  0  0  0  0  0  0  0  0  0  0
   58.7958   33.1838   43.7014 H   0  0  0  0  0  0  0  0  0  0  0  0
   56.3498   31.5617   43.9610 H   0  0  0  0  0  0  0  0  0  0  0  0
   58.0651   31.0762   43.6537 H   0  0  0  0  0  0  0  0  0  0  0  0
   57.8956   29.2049   45.8475 H   0  0  0  0  0  0  0  0  0  0  0  0
   59.0582   30.1235   44.8209 H   0  0  0  0  0  0  0  0  0  0  0  0
   59.0130   29.7174   47.7668 H   0  0  0  0  0  0  0  0  0  0  0  0
   60.3838   30.1107   46.6591 H   0  0  0  0  0  0  0  0  0  0  0  0
   58.6400   32.4330   46.9570 H   0  0  0  0  0  0  0  0  0  0  0  0
   61.4833   32.1783   46.2613 H   0  0  0  0  0  0  0  0  0  0  0  0
   63.8936   32.7456   46.0468 H   0  0  0  0  0  0  0  0  0  0  0  0
   65.2136   33.3687   48.0637 H   0  0  0  0  0  0  0  0  0  0  0  0
   64.1127   33.5083   50.2872 H   0  0  0  0  0  0  0  0  0  0  0  0
   61.7853   33.4345   52.8384 H   0  0  0  0  0  0  0  0  0  0  0  0
   63.2349   33.6890   51.8085 H   0  0  0  0  0  0  0  0  0  0  0  0
   61.9092   34.9010   51.8085 H   0  0  0  0  0  0  0  0  0  0  0  0
   60.1931   32.7681   53.1101 H   0  0  0  0  0  0  0  0  0  0  0  0
   58.8087   30.5579   54.7062 H   0  0  0  0  0  0  0  0  0  0  0  0
   57.2277   31.0642   55.4481 H   0  0  0  0  0  0  0  0  0  0  0  0
   57.3755   29.4103   52.9024 H   0  0  0  0  0  0  0  0  0  0  0  0
   57.3690   28.6962   54.6073 H   0  0  0  0  0  0  0  0  0  0  0  0
   54.4266   31.1857   53.3333 H   0  0  0  0  0  0  0  0  0  0  0  0
   55.8091   30.7507   52.2722 H   0  0  0  0  0  0  0  0  0  0  0  0
   54.3241   29.7400   52.2722 H   0  0  0  0  0  0  0  0  0  0  0  0
   55.5722   29.5038   56.0996 H   0  0  0  0  0  0  0  0  0  0  0  0
   55.4695   31.1325   55.3489 H   0  0  0  0  0  0  0  0  0  0  0  0
   54.0349   30.0516   55.3489 H   0  0  0  0  0  0  0  0  0  0  0  0
   54.8602   27.7336   54.8880 H   0  0  0  0  0  0  0  0  0  0  0  0
   54.0631   28.1607   53.3359 H   0  0  0  0  0  0  0  0  0  0  0  0
   55.7341   27.5017   53.3359 H   0  0  0  0  0  0  0  0  0  0  0  0
   56.5553   31.2338   51.3656 H   0  0  0  0  0  0  0  0  0  0  0  0
   57.5857   31.3203   49.1118 H   0  0  0  0  0  0  0  0  0  0  0  0
  1  2  1  0
  2  3  1  0
  3  4  1  0
  4  5  1  0
  5  6  1  0
  6  7  1  0
  7  8  1  0
  8  9  1  0
  9 10  1  0
 10 11  2  0
 11 12  1  0
 12 13  2  0
 13 14  1  0
 14 15  2  0
 15 16  1  0
 16 17  2  0
 17 18  1  0
 17 19  1  0
 19 20  2  0
 20 21  1  0
 21 22  1  0
 22 23  1  0
 23 24  1  0
 24 25  1  0
 25 26  1  0
 25 27  1  0
 25 28  1  0
 21 29  2  0
 29 30  1  0
 30 31  2  0
 31 10  1  0
 16 11  1  0
 31 19  1  0
  1 32  1  0
  1 33  1  0
  1 34  1  0
  2 35  1  0
  2 36  1  0
  3 37  1  0
  4 38  1  0
  4 39  1  0
  5 40  1  0
  5 41  1  0
  7 42  1  0
  7 43  1  0
  8 44  1  0
  8 45  1  0
  9 46  1  0
 12 47  1  0
 13 48  1  0
 14 49  1  0
 15 50  1  0
 18 51  1  0
 18 52  1  0
 18 53  1  0
 20 54  1  0
 23 55  1  0
 23 56  1  0
 24 57  1  0
 24 58  1  0
 26 59  1  0
 26 60  1  0
 26 61  1  0
 27 62  1  0
 27 63  1  0
 27 64  1  0
 28 65  1  0
 28 66  1  0
 28 67  1  0
 29 68  1  0
 30 69  1  0
M  CHG  2  17   1  25   1
M  END
>  <UniqueID>  (3) 
3

>  <SMILES>  (3) 
CCNCCOCCNc1c2ccccc2[n+](C)c2cc(OCC[N+](C)(C)C)ccc12

>  <Energy>  (3) 
102.00528257437057

>  <Genealogy>  (3) 
CCNCCOCCNc1c2ccccc2[n+](C)c2cc(OCC[N+](C)(C)C)ccc12 (3D coordinates assigned)
CCNCCOCCNc1c2ccccc2[n+](C)c2cc(OCC[N+](C)(C)C)ccc12 (optimized conformer: 102.00528257437057 kcal/mol)

>  <smiles>  (3) 
CCNCCOCCNc1c2ccccc2[n+](C)c2cc(OCC[N+](C)(C)C)ccc12

>  <score_type>  (3) 
oracle

>  <origin>  (3) 
adg

>  <m_score__min__energy>  (3) 
-4.6600000000000001

>  <m_primary>  (3) 
energy

$$$$
3:0
     RDKit          3D

 57 59  0  0  0  0  0  0  0  0999 V2000
   63.1330   33.8270   46.3870 C   0  0  0  0  0  0  0  0  0  0  0  0
   63.4100   33.5480   47.8640 C   0  0  0  0  0  0  0  0  0  0  0  0
   62.8610   32.1680   48.2820 C   0  0  0  0  0  0  0  0  0  0  0  0
   61.4380   32.2330   48.7090 N   0  0  0  0  0  0  0  0  0  0  0  0
   60.9950   31.0090   49.4460 C   0  0  0  0  0  0  0  0  0  0  0  0
   59.5250   30.6530   49.1280 C   0  0  0  0  0  0  0  0  0  0  0  0
   58.5560   31.3500   50.0760 C   0  0  0  0  0  0  0  0  0  0  0  0
   61.0980   33.4910   49.4430 C   0  0  0  0  0  0  0  0  0  0  0  0
   60.0110   34.4090   48.8100 C   0  0  0  0  0  0  0  0  0  0  0  0
   59.7450   34.1630   47.3860 N   0  0  0  0  0  0  0  0  0  0  0  0
   58.4050   33.6090   47.1450 C   0  0  0  0  0  0  0  0  0  0  0  0
   58.2060   33.3050   45.6540 C   0  0  0  0  0  0  0  0  0  0  0  0
   58.4360   31.8900   45.3600 N   0  0  0  0  0  0  0  0  0  0  0  0
   57.4510   30.9390   44.9420 C   0  0  0  0  0  0  0  0  0  0  0  0
   56.3140   31.2460   44.4940 O   0  0  0  0  0  0  0  0  0  0  0  0
   57.9390   29.5830   45.1550 C   0  0  0  0  0  0  0  0  0  0  0  0
   57.3160   28.3550   44.9550 C   0  0  0  0  0  0  0  0  0  0  0  0
   58.0240   27.1870   45.3080 C   0  0  0  0  0  0  0  0  0  0  0  0
   57.4420   25.9230   45.1280 C   0  0  0  0  0  0  0  0  0  0  0  0
   58.1500   24.7690   45.4750 C   0  0  0  0  0  0  0  0  0  0  0  0
   59.4390   24.8610   46.0090 C   0  0  0  0  0  0  0  0  0  0  0  0
   60.0340   26.1110   46.2000 C   0  0  0  0  0  0  0  0  0  0  0  0
   59.3420   27.2820   45.8530 C   0  0  0  0  0  0  0  0  0  0  0  0
   59.9370   28.5450   46.0460 C   0  0  0  0  0  0  0  0  0  0  0  0
   59.2050   29.6760   45.6940 C   0  0  0  0  0  0  0  0  0  0  0  0
   59.5210   31.0920   45.8420 C   0  0  0  0  0  0  0  0  0  0  0  0
   60.5670   31.5610   46.3660 O   0  0  0  0  0  0  0  0  0  0  0  0
   62.3604   34.6051   46.2994 H   0  0  0  0  0  0  0  0  0  0  0  0
   64.0570   34.1711   45.8993 H   0  0  0  0  0  0  0  0  0  0  0  0
   62.7822   32.9055   45.8993 H   0  0  0  0  0  0  0  0  0  0  0  0
   64.4963   33.5694   48.0359 H   0  0  0  0  0  0  0  0  0  0  0  0
   62.9077   34.3201   48.4652 H   0  0  0  0  0  0  0  0  0  0  0  0
   62.9428   31.4809   47.4269 H   0  0  0  0  0  0  0  0  0  0  0  0
   63.4539   31.8152   49.1387 H   0  0  0  0  0  0  0  0  0  0  0  0
   60.8860   32.3000   47.8180 H   0  0  0  0  0  0  0  0  0  0  0  0
   61.6375   30.1650   49.1547 H   0  0  0  0  0  0  0  0  0  0  0  0
   61.0743   31.2098   50.5246 H   0  0  0  0  0  0  0  0  0  0  0  0
   59.2988   30.9623   48.0969 H   0  0  0  0  0  0  0  0  0  0  0  0
   59.4019   29.5668   49.2510 H   0  0  0  0  0  0  0  0  0  0  0  0
   58.8465   31.1410   51.1162 H   0  0  0  0  0  0  0  0  0  0  0  0
   58.5856   32.4351   49.8980 H   0  0  0  0  0  0  0  0  0  0  0  0
   57.5366   30.9769   49.8980 H   0  0  0  0  0  0  0  0  0  0  0  0
   60.7477   33.2053   50.4458 H   0  0  0  0  0  0  0  0  0  0  0  0
   62.0211   34.0891   49.4261 H   0  0  0  0  0  0  0  0  0  0  0  0
   59.0725   34.2588   49.3637 H   0  0  0  0  0  0  0  0  0  0  0  0
   60.3977   35.4365   48.8782 H   0  0  0  0  0  0  0  0  0  0  0  0
   59.8900   35.0390   46.8380 H   0  0  0  0  0  0  0  0  0  0  0  0
   58.2889   32.6797   47.7220 H   0  0  0  0  0  0  0  0  0  0  0  0
   57.6538   34.3486   47.4593 H   0  0  0  0  0  0  0  0  0  0  0  0
   57.1758   33.5662   45.3703 H   0  0  0  0  0  0  0  0  0  0  0  0
   58.9326   33.8993   45.0805 H   0  0  0  0  0  0  0  0  0  0  0  0
   56.3014   28.2967   44.5341 H   0  0  0  0  0  0  0  0  0  0  0  0
   56.4267   25.8402   44.7130 H   0  0  0  0  0  0  0  0  0  0  0  0
   57.6897   23.7810   45.3269 H   0  0  0  0  0  0  0  0  0  0  0  0
   59.9866   23.9462   46.2797 H   0  0  0  0  0  0  0  0  0  0  0  0
   61.0471   26.1775   46.6233 H   0  0  0  0  0  0  0  0  0  0  0  0
   60.9510   28.6347   46.4629 H   0  0  0  0  0  0  0  0  0  0  0  0
  1  2  1  0
  2  3  1  0
  3  4  1  0
  4  5  1  0
  5  6  1  0
  6  7  1  0
  4  8  1  0
  8  9  1  0
  9 10  1  0
 10 11  1  0
 11 12  1  0
 12 13  1  0
 13 14  1  0
 14 15  2  0
 14 16  1  0
 16 17  2  0
 17 18  1  0
 18 19  2  0
 19 20  1  0
 20 21  2  0
 21 22  1  0
 22 23  2  0
 23 24  1  0
 24 25  2  0
 25 26  1  0
 26 27  2  0
 26 13  1  0
 25 16  1  0
 23 18  1  0
  1 28  1  0
  1 29  1  0
  1 30  1  0
  2 31  1  0
  2 32  1  0
  3 33  1  0
  3 34  1  0
  4 35  1  0
  5 36  1  0
  5 37  1  0
  6 38  1  0
  6 39  1  0
  7 40  1  0
  7 41  1  0
  7 42  1  0
  8 43  1  0
  8 44  1  0
  9 45  1  0
  9 46  1  0
 10 47  1  0
 11 48  1  0
 11 49  1  0
 12 50  1  0
 12 51  1  0
 17 52  1  0
 19 53  1  0
 20 54  1  0
 21 55  1  0
 22 56  1  0
 24 57  1  0
M  CHG  1   4   1
M  END
>  <UniqueID>  (4) 
4

>  <SMILES>  (4) 
CCC[NH+](CCC)CCNCCN1C(=O)c2cc3ccccc3cc2C1=O

>  <Energy>  (4) 
89.84763873707331

>  <Genealogy>  (4) 
CCC[NH+](CCC)CCNCCN1C(=O)c2cc3ccccc3cc2C1=O (protonated)
CCC[NH+](CCC)CCNCCN1C(=O)c2cc3ccccc3cc2C1=O (3D coordinates assigned)
CCC[NH+](CCC)CCNCCN1C(=O)c2cc3ccccc3cc2C1=O (nonaromatic ring conformer: 89.84763873707331 kcal/mol)

>  <smiles>  (4) 
CCCN(CCC)CCNCCN1C(=O)c2cc3ccccc3cc2C1=O

>  <score_type>  (4) 
oracle

>  <origin>  (4) 
adg

>  <m_score__min__energy>  (4) 
-5.7199999999999998

>  <m_primary>  (4) 
energy

$$$$
4:0
     RDKit          3D

 61 66  0  0  0  0  0  0  0  0999 V2000
   58.7620   34.2740   44.8080 C   0  0  0  0  0  0  0  0  0  0  0  0
   58.1440   33.1820   45.6760 C   0  0  0  0  0  0  0  0  0  0  0  0
   59.1170   32.1260   45.9910 N   0  0  0  0  0  0  0  0  0  0  0  0
   58.7590   30.7330   45.8670 C   0  0  0  0  0  0  0  0  0  0  0  0
   58.9000   29.8520   46.9500 C   0  0  0  0  0  0  0  0  0  0  0  0
   58.5520   28.5060   46.8200 C   0  0  0  0  0  0  0  0  0  0  0  0
   58.0540   27.9920   45.6040 C   0  0  0  0  0  0  0  0  0  0  0  0
   57.6670   26.5010   45.5070 C   0  0  1  0  0  0  0  0  0  0  0  0
   57.7700   25.9360   44.0520 C   0  0  0  0  0  0  0  0  0  0  0  0
   57.3710   24.4450   44.0130 C   0  0  2  0  0  0  0  0  0  0  0  0
   55.9160   24.2890   44.5020 C   0  0  0  0  0  0  0  0  0  0  0  0
   55.8030   24.8150   45.9460 C   0  0  1  0  0  0  0  0  0  0  0  0
   56.7480   24.0080   46.8630 C   0  0  0  0  0  0  0  0  0  0  0  0
   58.2030   24.1600   46.3710 C   0  0  1  0  0  0  0  0  0  0  0  0
   58.3130   23.6360   44.9250 C   0  0  0  0  0  0  0  0  0  0  0  0
   58.6090   25.6510   46.4110 C   0  0  0  0  0  0  0  0  0  0  0  0
   56.1970   26.3080   45.9860 C   0  0  0  0  0  0  0  0  0  0  0  0
   57.9330   28.8860   44.5170 C   0  0  0  0  0  0  0  0  0  0  0  0
   58.2850   30.2310   44.6480 C   0  0  0  0  0  0  0  0  0  0  0  0
   60.2670   32.4590   46.7800 C   0  0  0  0  0  0  0  0  0  0  0  0
   61.4270   31.7660   46.7450 N   0  0  0  0  0  0  0  0  0  0  0  0
   62.2070   32.3840   47.6530 C   0  0  0  0  0  0  0  0  0  0  0  0
   63.5020   32.0180   48.0110 C   0  0  0  0  0  0  0  0  0  0  0  0
   64.1410   32.7740   49.0070 C   0  0  0  0  0  0  0  0  0  0  0  0
   63.4780   33.8600   49.6110 C   0  0  0  0  0  0  0  0  0  0  0  0
   62.1730   34.1810   49.2160 C   0  0  0  0  0  0  0  0  0  0  0  0
   61.5910   33.4230   48.2480 N   0  0  0  0  0  0  0  0  0  0  0  0
   60.3580   33.4870   47.7080 C   0  0  0  0  0  0  0  0  0  0  0  0
   59.2830   34.4530   48.1050 C   0  0  0  0  0  0  0  0  0  0  0  0
   59.2011   35.0499   45.4523 H   0  0  0  0  0  0  0  0  0  0  0  0
   59.5469   33.8373   44.1729 H   0  0  0  0  0  0  0  0  0  0  0  0
   57.9836   34.7221   44.1729 H   0  0  0  0  0  0  0  0  0  0  0  0
   57.7879   33.6310   46.6149 H   0  0  0  0  0  0  0  0  0  0  0  0
   57.3121   32.7280   45.1175 H   0  0  0  0  0  0  0  0  0  0  0  0
   59.2879   30.2248   47.9094 H   0  0  0  0  0  0  0  0  0  0  0  0
   58.6684   27.8332   47.6824 H   0  0  0  0  0  0  0  0  0  0  0  0
   58.8057   26.0415   43.6967 H   0  0  0  0  0  0  0  0  0  0  0  0
   57.0835   26.5016   43.4048 H   0  0  0  0  0  0  0  0  0  0  0  0
   57.4518   24.0703   42.9819 H   0  0  0  0  0  0  0  0  0  0  0  0
   55.6315   23.2268   44.4749 H   0  0  0  0  0  0  0  0  0  0  0  0
   55.2444   24.8640   43.8475 H   0  0  0  0  0  0  0  0  0  0  0  0
   54.7663   24.7018   46.2960 H   0  0  0  0  0  0  0  0  0  0  0  0
   56.4626   22.9459   46.8387 H   0  0  0  0  0  0  0  0  0  0  0  0
   56.6694   24.3875   47.8925 H   0  0  0  0  0  0  0  0  0  0  0  0
   58.8728   23.5809   47.0237 H   0  0  0  0  0  0  0  0  0  0  0  0
   58.0278   22.5740   44.8971 H   0  0  0  0  0  0  0  0  0  0  0  0
   59.3491   23.7466   44.5726 H   0  0  0  0  0  0  0  0  0  0  0  0
   59.6437   25.7535   46.0520 H   0  0  0  0  0  0  0  0  0  0  0  0
   58.5276   26.0127   47.4466 H   0  0  0  0  0  0  0  0  0  0  0  0
   55.5246   26.8770   45.3271 H   0  0  0  0  0  0  0  0  0  0  0  0
   56.1114   26.6694   47.0214 H   0  0  0  0  0  0  0  0  0  0  0  0
   57.5555   28.5168   43.5520 H   0  0  0  0  0  0  0  0  0  0  0  0
   58.1889   30.9045   43.7836 H   0  0  0  0  0  0  0  0  0  0  0  0
   61.6550   30.9310   46.1610 H   0  0  0  0  0  0  0  0  0  0  0  0
   64.0066   31.1668   47.5306 H   0  0  0  0  0  0  0  0  0  0  0  0
   65.1646   32.5167   49.3171 H   0  0  0  0  0  0  0  0  0  0  0  0
   63.9822   34.4527   50.3885 H   0  0  0  0  0  0  0  0  0  0  0  0
   61.6339   35.0225   49.6757 H   0  0  0  0  0  0  0  0  0  0  0  0
   59.2243   34.5057   49.2022 H   0  0  0  0  0  0  0  0  0  0  0  0
   59.5182   35.4492   47.7021 H   0  0  0  0  0  0  0  0  0  0  0  0
   58.3175   34.1131   47.7021 H   0  0  0  0  0  0  0  0  0  0  0  0
  1  2  1  0
  2  3  1  0
  3  4  1  0
  4  5  2  0
  5  6  1  0
  6  7  2  0
  8  7  1  6
  8  9  1  0
  9 10  1  0
 10 11  1  0
 11 12  1  0
 12 13  1  0
 13 14  1  0
 14 15  1  0
 14 16  1  0
 12 17  1  0
  7 18  1  0
 18 19  2  0
  3 20  1  0
 20 21  1  0
 21 22  2  0
 22 23  1  0
 23 24  2  0
 24 25  1  0
 25 26  2  0
 26 27  1  0
 27 28  1  0
 28 29  1  0
 19  4  1  0
 28 20  2  0
 16  8  1  0
 27 22  1  0
 17  8  1  0
 15 10  1  0
  1 30  1  0
  1 31  1  0
  1 32  1  0
  2 33  1  0
  2 34  1  0
  5 35  1  0
  6 36  1  0
  9 37  1  0
  9 38  1  0
 10 39  1  6
 11 40  1  0
 11 41  1  0
 12 42  1  1
 13 43  1  0
 13 44  1  0
 14 45  1  1
 15 46  1  0
 15 47  1  0
 16 48  1  0
 16 49  1  0
 17 50  1  0
 17 51  1  0
 18 52  1  0
 19 53  1  0
 21 54  1  0
 23 55  1  0
 24 56  1  0
 25 57  1  0
 26 58  1  0
 29 59  1  0
 29 60  1  0
 29 61  1  0
M  CHG  1  21   1
M  END
>  <UniqueID>  (5) 
5

>  <SMILES>  (5) 
CCN(c1ccc(C23CC4CC(CC(C4)C2)C3)cc1)c1[nH+]c2ccccn2c1C

>  <Energy>  (5) 
114.70903231252053

>  <Genealogy>  (5) 
CCN(c1ccc(C23CC4CC(CC(C4)C2)C3)cc1)c1[nH+]c2ccccn2c1C (protonated)
CCN(c1ccc(C23CC4CC(CC(C4)C2)C3)cc1)c1[nH+]c2ccccn2c1C (3D coordinates assigned)
CCN(c1ccc(C23CC4CC(CC(C4)C2)C3)cc1)c1[nH+]c2ccccn2c1C (nonaromatic ring conformer: 114.70903231252053 kcal/mol)

>  <smiles>  (5) 
CCN(c1ccc(C23CC4CC(CC(C4)C2)C3)cc1)c1nc2ccccn2c1C

>  <score_type>  (5) 
oracle

>  <origin>  (5) 
adg

>  <m_score__min__energy>  (5) 
-7.6699999999999999

>  <m_primary>  (5) 
energy

$$$$
5:0
     RDKit          3D

 73 76  0  0  0  0  0  0  0  0999 V2000
   57.4220   31.5920   42.4020 C   0  0  0  0  0  0  0  0  0  0  0  0
   57.6110   31.9030   43.8870 C   0  0  0  0  0  0  0  0  0  0  0  0
   58.1630   33.3170   44.1230 C   0  0  0  0  0  0  0  0  0  0  0  0
   58.5800   33.5310   45.5570 C   0  0  0  0  0  0  0  0  0  0  0  0
   59.5990   34.4440   45.8730 C   0  0  0  0  0  0  0  0  0  0  0  0
   60.0050   34.6190   47.2000 C   0  0  0  0  0  0  0  0  0  0  0  0
   59.3910   33.8880   48.2300 C   0  0  0  0  0  0  0  0  0  0  0  0
   59.8560   34.0440   49.6510 C   0  0  0  0  0  0  0  0  0  0  0  0
   61.3180   34.1890   49.6810 N   0  0  0  0  0  0  0  0  0  0  0  0
   61.8990   33.5940   50.8980 C   0  0  0  0  0  0  0  0  0  0  0  0
   62.6670   32.3130   50.5580 C   0  0  0  0  0  0  0  0  0  0  0  0
   62.0050   31.5480   49.4430 C   0  0  0  0  0  0  0  0  0  0  0  0
   60.9990   30.6150   49.7280 C   0  0  0  0  0  0  0  0  0  0  0  0
   60.3300   29.9580   48.6930 C   0  0  0  0  0  0  0  0  0  0  0  0
   60.6540   30.2240   47.3510 C   0  0  0  0  0  0  0  0  0  0  0  0
   59.9240   29.5460   46.2510 C   0  0  0  0  0  0  0  0  0  0  0  0
   58.5180   29.5630   46.2120 C   0  0  0  0  0  0  0  0  0  0  0  0
   57.8280   28.9060   45.1900 C   0  0  0  0  0  0  0  0  0  0  0  0
   58.5310   28.2350   44.1780 C   0  0  0  0  0  0  0  0  0  0  0  0
   57.7920   27.4850   43.1060 C   0  0  0  0  0  0  0  0  0  0  0  0
   57.7580   26.0570   43.4410 N   0  0  0  0  0  0  0  0  0  0  0  0
   57.9570   25.8080   44.8800 C   0  0  0  0  0  0  0  0  0  0  0  0
   57.0840   24.6660   45.4390 C   0  0  0  0  0  0  0  0  0  0  0  0
   57.1760   23.4160   44.6030 C   0  0  0  0  0  0  0  0  0  0  0  0
   56.4290   23.2860   43.4210 C   0  0  0  0  0  0  0  0  0  0  0  0
   56.5540   22.1380   42.6390 C   0  0  0  0  0  0  0  0  0  0  0  0
   57.4240   21.1260   43.0450 C   0  0  0  0  0  0  0  0  0  0  0  0
   58.1450   21.2610   44.1920 N   0  0  0  0  0  0  0  0  0  0  0  0
   58.0430   22.3750   44.9690 C   0  0  0  0  0  0  0  0  0  0  0  0
   59.9340   28.2090   44.2170 C   0  0  0  0  0  0  0  0  0  0  0  0
   60.6240   28.8640   45.2410 C   0  0  0  0  0  0  0  0  0  0  0  0
   61.6700   31.1550   47.0690 C   0  0  0  0  0  0  0  0  0  0  0  0
   62.3370   31.8130   48.1060 C   0  0  0  0  0  0  0  0  0  0  0  0
   58.3840   32.9620   47.9120 C   0  0  0  0  0  0  0  0  0  0  0  0
   57.9820   32.7850   46.5850 C   0  0  0  0  0  0  0  0  0  0  0  0
   56.8536   30.6566   42.2927 H   0  0  0  0  0  0  0  0  0  0  0  0
   56.8707   32.4143   41.9224 H   0  0  0  0  0  0  0  0  0  0  0  0
   58.4058   31.4814   41.9224 H   0  0  0  0  0  0  0  0  0  0  0  0
   56.6384   31.8143   44.3932 H   0  0  0  0  0  0  0  0  0  0  0  0
   58.3415   31.1860   44.2897 H   0  0  0  0  0  0  0  0  0  0  0  0
   59.0370   33.4697   43.4728 H   0  0  0  0  0  0  0  0  0  0  0  0
   57.3633   34.0360   43.8917 H   0  0  0  0  0  0  0  0  0  0  0  0
   60.0806   35.0248   45.0725 H   0  0  0  0  0  0  0  0  0  0  0  0
   60.8083   35.3319   47.4377 H   0  0  0  0  0  0  0  0  0  0  0  0
   59.3908   34.9380   50.0918 H   0  0  0  0  0  0  0  0  0  0  0  0
   59.5664   33.1538   50.2287 H   0  0  0  0  0  0  0  0  0  0  0  0
   61.5370   35.2120   49.6790 H   0  0  0  0  0  0  0  0  0  0  0  0
   62.5877   34.3165   51.3603 H   0  0  0  0  0  0  0  0  0  0  0  0
   61.0848   33.3451   51.5945 H   0  0  0  0  0  0  0  0  0  0  0  0
   63.6884   32.5806   50.2497 H   0  0  0  0  0  0  0  0  0  0  0  0
   62.6810   31.6731   51.4526 H   0  0  0  0  0  0  0  0  0  0  0  0
   60.7346   30.3987   50.7736 H   0  0  0  0  0  0  0  0  0  0  0  0
   59.5433   29.2265   48.9297 H   0  0  0  0  0  0  0  0  0  0  0  0
   57.9571   30.0979   46.9925 H   0  0  0  0  0  0  0  0  0  0  0  0
   56.7281   28.9149   45.1788 H   0  0  0  0  0  0  0  0  0  0  0  0
   56.7637   27.8688   43.0328 H   0  0  0  0  0  0  0  0  0  0  0  0
   58.3050   27.6229   42.1428 H   0  0  0  0  0  0  0  0  0  0  0  0
   56.8500   25.6440   43.1280 H   0  0  0  0  0  0  0  0  0  0  0  0
   59.0135   25.5498   45.0448 H   0  0  0  0  0  0  0  0  0  0  0  0
   57.6615   26.7263   45.4086 H   0  0  0  0  0  0  0  0  0  0  0  0
   57.4172   24.4335   46.4612 H   0  0  0  0  0  0  0  0  0  0  0  0
   56.0374   25.0042   45.4256 H   0  0  0  0  0  0  0  0  0  0  0  0
   55.7449   24.0900   43.1118 H   0  0  0  0  0  0  0  0  0  0  0  0
   55.9724   22.0316   41.7114 H   0  0  0  0  0  0  0  0  0  0  0  0
   57.5279   20.2157   42.4363 H   0  0  0  0  0  0  0  0  0  0  0  0
   58.7930   20.4940   44.4790 H   0  0  0  0  0  0  0  0  0  0  0  0
   58.6427   22.4591   45.8873 H   0  0  0  0  0  0  0  0  0  0  0  0
   60.4932   27.6704   43.4377 H   0  0  0  0  0  0  0  0  0  0  0  0
   61.7237   28.8455   45.2565 H   0  0  0  0  0  0  0  0  0  0  0  0
   61.9416   31.3668   46.0243 H   0  0  0  0  0  0  0  0  0  0  0  0
   63.1265   32.5425   47.8726 H   0  0  0  0  0  0  0  0  0  0  0  0
   57.9095   32.3733   48.7109 H   0  0  0  0  0  0  0  0  0  0  0  0
   57.1928   32.0573   46.3449 H   0  0  0  0  0  0  0  0  0  0  0  0
  1  2  1  0
  2  3  1  0
  3  4  1  0
  4  5  2  0
  5  6  1  0
  6  7  2  0
  7  8  1  0
  8  9  1  0
  9 10  1  0
 10 11  1  0
 11 12  1  0
 12 13  2  0
 13 14  1  0
 14 15  2  0
 15 16  1  0
 16 17  2  0
 17 18  1  0
 18 19  2  0
 19 20  1  0
 20 21  1  0
 21 22  1  0
 22 23  1  0
 23 24  1  0
 24 25  2  0
 25 26  1  0
 26 27  2  0
 27 28  1  0
 28 29  2  0
 19 30  1  0
 30 31  2  0
 15 32  1  0
 32 33  2  0
  7 34  1  0
 34 35  2  0
 35  4  1  0
 33 12  1  0
 31 16  1  0
 29 24  1  0
  1 36  1  0
  1 37  1  0
  1 38  1  0
  2 39  1  0
  2 40  1  0
  3 41  1  0
  3 42  1  0
  5 43  1  0
  6 44  1  0
  8 45  1  0
  8 46  1  0
  9 47  1  0
 10 48  1  0
 10 49  1  0
 11 50  1  0
 11 51  1  0
 13 52  1  0
 14 53  1  0
 17 54  1  0
 18 55  1  0
 20 56  1  0
 20 57  1  0
 21 58  1  0
 22 59  1  0
 22 60  1  0
 23 61  1  0
 23 62  1  0
 25 63  1  0
 26 64  1  0
 27 65  1  0
 28 66  1  0
 29 67  1  0
 30 68  1  0
 31 69  1  0
 32 70  1  0
 33 71  1  0
 34 72  1  0
 35 73  1  0
M  CHG  1  28   1
M  END
>  <UniqueID>  (6) 
6

>  <SMILES>  (6) 
CCCc1ccc(CNCCc2ccc(-c3ccc(CNCCc4ccc[nH+]c4)cc3)cc2)cc1

>  <Energy>  (6) 
70.11154678932307

>  <Genealogy>  (6) 
CCCc1ccc(CNCCc2ccc(-c3ccc(CNCCc4ccc[nH+]c4)cc3)cc2)cc1 (protonated)
CCCc1ccc(CNCCc2ccc(-c3ccc(CNCCc4ccc[nH+]c4)cc3)cc2)cc1 (3D coordinates assigned)
CCCc1ccc(CNCCc2ccc(-c3ccc(CNCCc4ccc[nH+]c4)cc3)cc2)cc1 (optimized conformer: 70.11154678932307 kcal/mol)

>  <smiles>  (6) 
CCCc1ccc(CNCCc2ccc(-c3ccc(CNCCc4cccnc4)cc3)cc2)cc1

>  <score_type>  (6) 
oracle

>  <origin>  (6) 
adg

>  <m_score__min__energy>  (6) 
-9.1500000000000004

>  <m_primary>  (6) 
energy

$$$$
6:0
     RDKit          3D

 46 48  0  0  0  0  0  0  0  0999 V2000
   57.1440   27.0070   45.7160 C   0  0  0  0  0  0  0  0  0  0  0  0
   58.4820   26.9520   44.9690 C   0  0  0  0  0  0  0  0  0  0  0  0
   58.3410   27.4430   43.5190 C   0  0  0  0  0  0  0  0  0  0  0  0
   59.5480   27.6490   45.7180 N   0  0  0  0  0  0  0  0  0  0  0  0
   59.3640   27.6500   47.1770 C   0  0  0  0  0  0  0  0  0  0  0  0
   60.1570   28.7990   47.7970 C   0  0  0  0  0  0  0  0  0  0  0  0
   60.7410   29.6390   46.7520 N   0  0  0  0  0  0  0  0  0  0  0  0
   60.5010   31.0570   46.7140 C   0  0  0  0  0  0  0  0  0  0  0  0
   61.3610   31.9410   47.3900 C   0  0  0  0  0  0  0  0  0  0  0  0
   62.5020   31.4610   48.0690 C   0  0  0  0  0  0  0  0  0  0  0  0
   63.3160   32.3270   48.7950 C   0  0  0  0  0  0  0  0  0  0  0  0
   63.0060   33.6790   48.8620 C   0  0  0  0  0  0  0  0  0  0  0  0
   61.9060   34.1820   48.1680 C   0  0  0  0  0  0  0  0  0  0  0  0
   61.0870   33.3350   47.3800 C   0  0  0  0  0  0  0  0  0  0  0  0
   60.0410   33.8310   46.6230 N   0  0  0  0  0  0  0  0  0  0  0  0
   59.9290   35.2870   46.3830 C   0  0  0  0  0  0  0  0  0  0  0  0
   59.1210   32.9650   46.0600 C   0  0  0  0  0  0  0  0  0  0  0  0
   57.9060   33.4330   45.4960 C   0  0  0  0  0  0  0  0  0  0  0  0
   57.0090   32.5580   44.8870 C   0  0  0  0  0  0  0  0  0  0  0  0
   57.2870   31.1970   44.8300 C   0  0  0  0  0  0  0  0  0  0  0  0
   56.1560   30.1000   44.0610 Cl  0  0  0  0  0  0  0  0  0  0  0  0
   58.4530   30.7010   45.4110 C   0  0  0  0  0  0  0  0  0  0  0  0
   59.3660   31.5660   46.0540 C   0  0  0  0  0  0  0  0  0  0  0  0
   57.3289   26.9994   46.8003 H   0  0  0  0  0  0  0  0  0  0  0  0
   56.6085   27.9279   45.4418 H   0  0  0  0  0  0  0  0  0  0  0  0
   56.5348   26.1331   45.4418 H   0  0  0  0  0  0  0  0  0  0  0  0
   58.7914   25.8984   44.9042 H   0  0  0  0  0  0  0  0  0  0  0  0
   58.0374   28.5003   43.5178 H   0  0  0  0  0  0  0  0  0  0  0  0
   59.3056   27.3379   43.0009 H   0  0  0  0  0  0  0  0  0  0  0  0
   57.5791   26.8421   43.0009 H   0  0  0  0  0  0  0  0  0  0  0  0
   59.5790   28.6450   45.3950 H   0  0  0  0  0  0  0  0  0  0  0  0
   58.2964   27.7752   47.4105 H   0  0  0  0  0  0  0  0  0  0  0  0
   59.7238   26.6958   47.5894 H   0  0  0  0  0  0  0  0  0  0  0  0
   59.4850   29.4089   48.4187 H   0  0  0  0  0  0  0  0  0  0  0  0
   60.9672   28.3813   48.4127 H   0  0  0  0  0  0  0  0  0  0  0  0
   61.0890   29.1700   45.8850 H   0  0  0  0  0  0  0  0  0  0  0  0
   62.7510   30.3905   48.0241 H   0  0  0  0  0  0  0  0  0  0  0  0
   64.2045   31.9400   49.3154 H   0  0  0  0  0  0  0  0  0  0  0  0
   63.6302   34.3554   49.4645 H   0  0  0  0  0  0  0  0  0  0  0  0
   61.6699   35.2544   48.2332 H   0  0  0  0  0  0  0  0  0  0  0  0
   59.8884   35.8154   47.3469 H   0  0  0  0  0  0  0  0  0  0  0  0
   60.8032   35.6328   45.8119 H   0  0  0  0  0  0  0  0  0  0  0  0
   59.0122   35.4950   45.8119 H   0  0  0  0  0  0  0  0  0  0  0  0
   57.6680   34.5060   45.5404 H   0  0  0  0  0  0  0  0  0  0  0  0
   56.0771   32.9456   44.4495 H   0  0  0  0  0  0  0  0  0  0  0  0
   58.6648   29.6224   45.3682 H   0  0  0  0  0  0  0  0  0  0  0  0
  1  2  1  0
  2  3  1  0
  2  4  1  0
  4  5  1  0
  5  6  1  0
  6  7  1  0
  7  8  1  0
  8  9  2  0
  9 10  1  0
 10 11  2  0
 11 12  1  0
 12 13  2  0
 13 14  1  0
 14 15  2  0
 15 16  1  0
 15 17  1  0
 17 18  2  0
 18 19  1  0
 19 20  2  0
 20 21  1  0
 20 22  1  0
 22 23  2  0
 23  8  1  0
 14  9  1  0
 23 17  1  0
  1 24  1  0
  1 25  1  0
  1 26  1  0
  2 27  1  0
  3 28  1  0
  3 29  1  0
  3 30  1  0
  4 31  1  0
  5 32  1  0
  5 33  1  0
  6 34  1  0
  6 35  1  0
  7 36  1  0
 10 37  1  0
 11 38  1  0
 12 39  1  0
 13 40  1  0
 16 41  1  0
 16 42  1  0
 16 43  1  0
 18 44  1  0
 19 45  1  0
 22 46  1  0
M  CHG  1  15   1
M  END
>  <UniqueID>  (7) 
7

>  <SMILES>  (7) 
CC(C)NCCNc1c2ccccc2[n+](C)c2ccc(Cl)cc12

>  <Energy>  (7) 
69.56693384227715

>  <Genealogy>  (7) 
CC(C)NCCNc1c2ccccc2[n+](C)c2ccc(Cl)cc12 (3D coordinates assigned)
CC(C)NCCNc1c2ccccc2[n+](C)c2ccc(Cl)cc12 (optimized conformer: 69.56693384227715 kcal/mol)

>  <smiles>  (7) 
CC(C)NCCNc1c2ccccc2[n+](C)c2ccc(Cl)cc12

>  <score_type>  (7) 
oracle

>  <origin>  (7) 
adg

>  <m_score__min__energy>  (7) 
-6.0899999999999999

>  <m_primary>  (7) 
energy

$$$$
7:0
     RDKit          3D

 51 53  0  0  0  0  0  0  0  0999 V2000
   63.6100   32.7840   48.9640 C   0  0  0  0  0  0  0  0  0  0  0  0
   63.3360   32.4060   47.5680 N   0  0  0  0  0  0  0  0  0  0  0  0
   63.1130   33.6260   46.7690 C   0  0  0  0  0  0  0  0  0  0  0  0
   62.1640   31.5070   47.5010 C   0  0  0  0  0  0  0  0  0  0  0  0
   61.3520   31.5830   48.7980 C   0  0  0  0  0  0  0  0  0  0  0  0
   59.9230   31.3920   48.5330 N   0  0  0  0  0  0  0  0  0  0  0  0
   59.3690   31.5270   47.2120 C   0  0  0  0  0  0  0  0  0  0  0  0
   59.2840   32.7960   46.6140 C   0  0  0  0  0  0  0  0  0  0  0  0
   59.6790   33.9530   47.3190 C   0  0  0  0  0  0  0  0  0  0  0  0
   59.6710   35.2010   46.7020 C   0  0  0  0  0  0  0  0  0  0  0  0
   59.2810   35.3160   45.3720 C   0  0  0  0  0  0  0  0  0  0  0  0
   58.8640   34.1900   44.6640 C   0  0  0  0  0  0  0  0  0  0  0  0
   58.8160   32.9120   45.2780 C   0  0  0  0  0  0  0  0  0  0  0  0
   58.3490   31.7970   44.6060 N   0  0  0  0  0  0  0  0  0  0  0  0
   57.6060   31.9590   43.3350 C   0  0  0  0  0  0  0  0  0  0  0  0
   58.5300   30.5360   45.1450 C   0  0  0  0  0  0  0  0  0  0  0  0
   58.2860   29.3610   44.3890 C   0  0  0  0  0  0  0  0  0  0  0  0
   58.3710   28.0790   44.9630 C   0  0  0  0  0  0  0  0  0  0  0  0
   58.0990   26.8910   44.1770 N   0  0  0  0  0  0  0  0  0  0  0  0
   58.1250   26.9440   42.7110 C   0  0  0  0  0  0  0  0  0  0  0  0
   57.7870   25.6170   44.8360 C   0  0  0  0  0  0  0  0  0  0  0  0
   58.7180   27.9740   46.3170 C   0  0  0  0  0  0  0  0  0  0  0  0
   59.0210   29.1090   47.0630 C   0  0  0  0  0  0  0  0  0  0  0  0
   58.9820   30.3900   46.4800 C   0  0  0  0  0  0  0  0  0  0  0  0
   63.1010   32.0818   49.6407 H   0  0  0  0  0  0  0  0  0  0  0  0
   64.6941   32.7492   49.1473 H   0  0  0  0  0  0  0  0  0  0  0  0
   63.2397   33.8034   49.1473 H   0  0  0  0  0  0  0  0  0  0  0  0
   62.9566   34.4817   47.4423 H   0  0  0  0  0  0  0  0  0  0  0  0
   63.9916   33.8145   46.1345 H   0  0  0  0  0  0  0  0  0  0  0  0
   62.2246   33.4915   46.1345 H   0  0  0  0  0  0  0  0  0  0  0  0
   61.5259   31.8071   46.6567 H   0  0  0  0  0  0  0  0  0  0  0  0
   62.5164   30.4742   47.3629 H   0  0  0  0  0  0  0  0  0  0  0  0
   61.6986   30.7981   49.4863 H   0  0  0  0  0  0  0  0  0  0  0  0
   61.4965   32.5776   49.2451 H   0  0  0  0  0  0  0  0  0  0  0  0
   59.2750   31.2340   49.3360 H   0  0  0  0  0  0  0  0  0  0  0  0
   59.9970   33.8677   48.3686 H   0  0  0  0  0  0  0  0  0  0  0  0
   59.9730   36.0957   47.2662 H   0  0  0  0  0  0  0  0  0  0  0  0
   59.3017   36.2983   44.8774 H   0  0  0  0  0  0  0  0  0  0  0  0
   58.5667   34.2943   43.6101 H   0  0  0  0  0  0  0  0  0  0  0  0
   56.5525   32.1887   43.5528 H   0  0  0  0  0  0  0  0  0  0  0  0
   58.0482   32.7818   42.7541 H   0  0  0  0  0  0  0  0  0  0  0  0
   57.6655   31.0268   42.7541 H   0  0  0  0  0  0  0  0  0  0  0  0
   58.0231   29.4544   43.3250 H   0  0  0  0  0  0  0  0  0  0  0  0
   58.5879   27.8876   42.3864 H   0  0  0  0  0  0  0  0  0  0  0  0
   58.7096   26.0965   42.3238 H   0  0  0  0  0  0  0  0  0  0  0  0
   57.0970   26.8877   42.3238 H   0  0  0  0  0  0  0  0  0  0  0  0
   57.8198   25.7510   45.9273 H   0  0  0  0  0  0  0  0  0  0  0  0
   56.7813   25.2863   44.5373 H   0  0  0  0  0  0  0  0  0  0  0  0
   58.5261   24.8590   44.5373 H   0  0  0  0  0  0  0  0  0  0  0  0
   58.7512   26.9838   46.7950 H   0  0  0  0  0  0  0  0  0  0  0  0
   59.2949   29.0039   48.1232 H   0  0  0  0  0  0  0  0  0  0  0  0
  1  2  1  0
  2  3  1  0
  2  4  1  0
  4  5  1  0
  5  6  1  0
  6  7  1  0
  7  8  2  0
  8  9  1  0
  9 10  2  0
 10 11  1  0
 11 12  2  0
 12 13  1  0
 13 14  2  0
 14 15  1  0
 14 16  1  0
 16 17  2  0
 17 18  1  0
 18 19  1  0
 19 20  1  0
 19 21  1  0
 18 22  2  0
 22 23  1  0
 23 24  2  0
 24  7  1  0
 13  8  1  0
 24 16  1  0
  1 25  1  0
  1 26  1  0
  1 27  1  0
  3 28  1  0
  3 29  1  0
  3 30  1  0
  4 31  1  0
  4 32  1  0
  5 33  1  0
  5 34  1  0
  6 35  1  0
  9 36  1  0
 10 37  1  0
 11 38  1  0
 12 39  1  0
 15 40  1  0
 15 41  1  0
 15 42  1  0
 17 43  1  0
 20 44  1  0
 20 45  1  0
 20 46  1  0
 21 47  1  0
 21 48  1  0
 21 49  1  0
 22 50  1  0
 23 51  1  0
M  CHG  1  14   1
M  END
>  <UniqueID>  (8) 
8

>  <SMILES>  (8) 
CN(C)CCNc1c2ccccc2[n+](C)c2cc(N(C)C)ccc12

>  <Energy>  (8) 
79.03622695199346

>  <Genealogy>  (8) 
CN(C)CCNc1c2ccccc2[n+](C)c2cc(N(C)C)ccc12 (3D coordinates assigned)
CN(C)CCNc1c2ccccc2[n+](C)c2cc(N(C)C)ccc12 (optimized conformer: 79.03622695199346 kcal/mol)

>  <smiles>  (8) 
CN(C)CCNc1c2ccccc2[n+](C)c2cc(N(C)C)ccc12

>  <score_type>  (8) 
oracle

>  <origin>  (8) 
adg

>  <m_score__min__energy>  (8) 
-5.4699999999999998

>  <m_primary>  (8) 
energy

$$$$
8:0
     RDKit          3D

 79 81  0  0  0  0  0  0  0  0999 V2000
   56.4650   29.9500   43.3000 C   0  0  0  0  0  0  0  0  0  0  0  0
   57.3790   28.7840   43.6710 C   0  0  0  0  0  0  0  0  0  0  0  0
   57.0760   28.2810   45.1040 C   0  0  0  0  0  0  0  0  0  0  0  0
   57.9680   27.1860   45.6060 N   0  0  0  0  0  0  0  0  0  0  0  0
   57.4950   25.9240   44.9760 C   0  0  0  0  0  0  0  0  0  0  0  0
   59.3690   27.4310   45.1780 C   0  0  0  0  0  0  0  0  0  0  0  0
   57.8680   27.0890   47.0980 C   0  0  0  0  0  0  0  0  0  0  0  0
   59.1710   27.4000   47.8700 C   0  0  0  0  0  0  0  0  0  0  0  0
   59.1630   28.7560   48.3210 O   0  0  0  0  0  0  0  0  0  0  0  0
   60.2850   29.5990   48.4200 C   0  0  0  0  0  0  0  0  0  0  0  0
   60.9740   29.8030   49.6250 C   0  0  0  0  0  0  0  0  0  0  0  0
   62.0950   30.6650   49.7060 C   0  0  0  0  0  0  0  0  0  0  0  0
   62.5660   31.2800   48.5160 C   0  0  0  0  0  0  0  0  0  0  0  0
   61.8630   31.0590   47.3080 C   0  0  0  0  0  0  0  0  0  0  0  0
   60.7270   30.2370   47.2610 C   0  0  0  0  0  0  0  0  0  0  0  0
   60.0100   30.0190   46.0730 O   0  0  0  0  0  0  0  0  0  0  0  0
   59.0030   30.8870   45.5600 C   0  0  0  0  0  0  0  0  0  0  0  0
   63.7340   32.0880   48.5640 C   0  0  0  0  0  0  0  0  0  0  0  0
   64.1460   32.8690   47.4090 N   0  0  0  0  0  0  0  0  0  0  0  0
   63.3550   34.1090   47.3070 C   0  0  0  0  0  0  0  0  0  0  0  0
   62.0960   33.9120   46.4550 C   0  0  0  0  0  0  0  0  0  0  0  0
   60.9060   34.4440   47.1710 N   0  0  0  0  0  0  0  0  0  0  0  0
   60.9920   34.2140   48.6310 C   0  0  0  0  0  0  0  0  0  0  0  0
   59.7230   33.5350   49.1400 C   0  0  0  0  0  0  0  0  0  0  0  0
   59.6410   33.9130   46.6160 C   0  0  0  0  0  0  0  0  0  0  0  0
   59.2810   34.6450   45.3250 C   0  0  0  0  0  0  0  0  0  0  0  0
   64.5090   32.0880   49.7530 C   0  0  0  0  0  0  0  0  0  0  0  0
   65.7920   32.6860   49.8070 C   0  0  0  0  0  0  0  0  0  0  0  0
   66.5510   32.6520   50.9750 C   0  0  0  0  0  0  0  0  0  0  0  0
   66.0640   32.0120   52.1050 C   0  0  0  0  0  0  0  0  0  0  0  0
   64.8090   31.4120   52.0820 C   0  0  0  0  0  0  0  0  0  0  0  0
   63.9930   31.4580   50.9200 C   0  0  0  0  0  0  0  0  0  0  0  0
   62.7340   30.8960   50.9070 N   0  0  0  0  0  0  0  0  0  0  0  0
   62.0630   30.5500   52.1810 C   0  0  0  0  0  0  0  0  0  0  0  0
   56.0902   30.4282   44.2170 H   0  0  0  0  0  0  0  0  0  0  0  0
   57.0301   30.6849   42.7079 H   0  0  0  0  0  0  0  0  0  0  0  0
   55.6164   29.5767   42.7079 H   0  0  0  0  0  0  0  0  0  0  0  0
   57.2202   27.9608   42.9589 H   0  0  0  0  0  0  0  0  0  0  0  0
   58.4229   29.1285   43.6320 H   0  0  0  0  0  0  0  0  0  0  0  0
   57.1698   29.1357   45.7900 H   0  0  0  0  0  0  0  0  0  0  0  0
   56.0638   27.8520   45.0656 H   0  0  0  0  0  0  0  0  0  0  0  0
   57.2243   25.2017   45.7602 H   0  0  0  0  0  0  0  0  0  0  0  0
   56.6145   26.1338   44.3510 H   0  0  0  0  0  0  0  0  0  0  0  0
   58.2965   25.5034   44.3510 H   0  0  0  0  0  0  0  0  0  0  0  0
   60.0092   27.5430   46.0654 H   0  0  0  0  0  0  0  0  0  0  0  0
   59.7224   26.5810   44.5758 H   0  0  0  0  0  0  0  0  0  0  0  0
   59.4130   28.3505   44.5758 H   0  0  0  0  0  0  0  0  0  0  0  0
   57.0969   27.7981   47.4336 H   0  0  0  0  0  0  0  0  0  0  0  0
   57.6275   26.0386   47.3187 H   0  0  0  0  0  0  0  0  0  0  0  0
   59.2489   26.7285   48.7377 H   0  0  0  0  0  0  0  0  0  0  0  0
   60.0308   27.2483   47.2009 H   0  0  0  0  0  0  0  0  0  0  0  0
   60.6346   29.2796   50.5310 H   0  0  0  0  0  0  0  0  0  0  0  0
   62.2151   31.5426   46.3849 H   0  0  0  0  0  0  0  0  0  0  0  0
   58.4611   31.3541   46.3956 H   0  0  0  0  0  0  0  0  0  0  0  0
   59.4717   31.6688   44.9442 H   0  0  0  0  0  0  0  0  0  0  0  0
   58.2989   30.3082   44.9442 H   0  0  0  0  0  0  0  0  0  0  0  0
   64.0580   32.3100   46.5310 H   0  0  0  0  0  0  0  0  0  0  0  0
   65.1650   33.0800   47.4610 H   0  0  0  0  0  0  0  0  0  0  0  0
   63.0555   34.4246   48.3173 H   0  0  0  0  0  0  0  0  0  0  0  0
   63.9794   34.8743   46.8229 H   0  0  0  0  0  0  0  0  0  0  0  0
   62.2152   34.4460   45.5007 H   0  0  0  0  0  0  0  0  0  0  0  0
   61.9527   32.8376   46.2673 H   0  0  0  0  0  0  0  0  0  0  0  0
   61.8581   33.5708   48.8459 H   0  0  0  0  0  0  0  0  0  0  0  0
   61.1052   35.1835   49.1382 H   0  0  0  0  0  0  0  0  0  0  0  0
   59.7231   33.5351   50.2400 H   0  0  0  0  0  0  0  0  0  0  0  0
   58.8420   34.0823   48.7734 H   0  0  0  0  0  0  0  0  0  0  0  0
   59.6895   32.4984   48.7734 H   0  0  0  0  0  0  0  0  0  0  0  0
   59.7596   32.8402   46.4040 H   0  0  0  0  0  0  0  0  0  0  0  0
   58.8361   34.0649   47.3502 H   0  0  0  0  0  0  0  0  0  0  0  0
   58.8076   35.6075   45.5690 H   0  0  0  0  0  0  0  0  0  0  0  0
   60.1940   34.8238   44.7380 H   0  0  0  0  0  0  0  0  0  0  0  0
   58.5821   34.0310   44.7380 H   0  0  0  0  0  0  0  0  0  0  0  0
   66.1952   33.1848   48.9133 H   0  0  0  0  0  0  0  0  0  0  0  0
   67.5394   33.1342   51.0010 H   0  0  0  0  0  0  0  0  0  0  0  0
   66.6714   31.9787   53.0215 H   0  0  0  0  0  0  0  0  0  0  0  0
   64.4420   30.8927   52.9796 H   0  0  0  0  0  0  0  0  0  0  0  0
   62.6898   30.8732   53.0251 H   0  0  0  0  0  0  0  0  0  0  0  0
   61.0887   31.0581   52.2321 H   0  0  0  0  0  0  0  0  0  0  0  0
   61.9120   29.4616   52.2321 H   0  0  0  0  0  0  0  0  0  0  0  0
  1  2  1  0
  2  3  1  0
  3  4  1  0
  4  5  1  0
  4  6  1  0
  4  7  1  0
  7  8  1  0
  8  9  1  0
  9 10  1  0
 10 11  2  0
 11 12  1  0
 12 13  2  0
 13 14  1  0
 14 15  2  0
 15 16  1  0
 16 17  1  0
 13 18  1  0
 18 19  1  0
 19 20  1  0
 20 21  1  0
 21 22  1  0
 22 23  1  0
 23 24  1  0
 22 25  1  0
 25 26  1  0
 18 27  2  0
 27 28  1  0
 28 29  2  0
 29 30  1  0
 30 31  2  0
 31 32  1  0
 32 33  2  0
 33 34  1  0
 15 10  1  0
 32 27  1  0
 33 12  1  0
  1 35  1  0
  1 36  1  0
  1 37  1  0
  2 38  1  0
  2 39  1  0
  3 40  1  0
  3 41  1  0
  5 42  1  0
  5 43  1  0
  5 44  1  0
  6 45  1  0
  6 46  1  0
  6 47  1  0
  7 48  1  0
  7 49  1  0
  8 50  1  0
  8 51  1  0
 11 52  1  0
 14 53  1  0
 17 54  1  0
 17 55  1  0
 17 56  1  0
 19 57  1  0
 19 58  1  0
 20 59  1  0
 20 60  1  0
 21 61  1  0
 21 62  1  0
 23 63  1  0
 23 64  1  0
 24 65  1  0
 24 66  1  0
 24 67  1  0
 25 68  1  0
 25 69  1  0
 26 70  1  0
 26 71  1  0
 26 72  1  0
 28 73  1  0
 29 74  1  0
 30 75  1  0
 31 76  1  0
 34 77  1  0
 34 78  1  0
 34 79  1  0
M  CHG  3   4   1  19   1  33   1
M  END
>  <UniqueID>  (9) 
9

>  <SMILES>  (9) 
CCC[N+](C)(C)CCOc1cc2c(cc1OC)c([NH2+]CCN(CC)CC)c1ccccc1[n+]2C

>  <Energy>  (9) 
109.80988256920504

>  <Genealogy>  (9) 
CCC[N+](C)(C)CCOc1cc2c(cc1OC)c([NH2+]CCN(CC)CC)c1ccccc1[n+]2C (protonated)
CCC[N+](C)(C)CCOc1cc2c(cc1OC)c([NH2+]CCN(CC)CC)c1ccccc1[n+]2C (3D coordinates assigned)
CCC[N+](C)(C)CCOc1cc2c(cc1OC)c([NH2+]CCN(CC)CC)c1ccccc1[n+]2C (optimized conformer: 109.80988256920504 kcal/mol)

>  <smiles>  (9) 
CCC[N+](C)(C)CCOc1cc2c(cc1OC)c(NCCN(CC)CC)c1ccccc1[n+]2C

>  <score_type>  (9) 
oracle

>  <origin>  (9) 
adg

>  <m_score__min__energy>  (9) 
-2.77

>  <m_primary>  (9) 
energy

$$$$
9:0
     RDKit          3D

 69 71  0  0  0  0  0  0  0  0999 V2000
   58.5710   32.1040   50.3860 C   0  0  0  0  0  0  0  0  0  0  0  0
   58.6250   30.5790   50.2110 C   0  0  0  0  0  0  0  0  0  0  0  0
   59.6370   30.1010   49.2350 N   0  0  0  0  0  0  0  0  0  0  0  0
   60.8690   29.6450   49.9020 C   0  0  0  0  0  0  0  0  0  0  0  0
   59.1520   29.0840   48.2710 C   0  0  0  0  0  0  0  0  0  0  0  0
   60.2310   28.6500   47.2500 C   0  0  0  0  0  0  0  0  0  0  0  0
   60.7880   29.7410   46.4140 N   0  0  0  0  0  0  0  0  0  0  0  0
   59.8400   30.8080   46.1060 C   0  0  0  0  0  0  0  0  0  0  0  0
   58.7270   30.5110   45.2580 C   0  0  0  0  0  0  0  0  0  0  0  0
   58.5330   29.2200   44.6920 C   0  0  0  0  0  0  0  0  0  0  0  0
   57.4150   28.9270   43.9160 C   0  0  0  0  0  0  0  0  0  0  0  0
   56.4530   29.8960   43.6900 C   0  0  0  0  0  0  0  0  0  0  0  0
   56.6190   31.1730   44.2110 C   0  0  0  0  0  0  0  0  0  0  0  0
   57.7710   31.5180   44.9670 C   0  0  0  0  0  0  0  0  0  0  0  0
   57.9500   32.7970   45.4340 N   0  0  0  0  0  0  0  0  0  0  0  0
   57.1520   33.9080   44.8590 C   0  0  0  0  0  0  0  0  0  0  0  0
   58.8760   33.0560   46.4180 C   0  0  0  0  0  0  0  0  0  0  0  0
   58.7950   34.2600   47.1590 C   0  0  0  0  0  0  0  0  0  0  0  0
   59.7450   34.5960   48.1010 C   0  0  0  0  0  0  0  0  0  0  0  0
   60.8170   33.7590   48.3250 C   0  0  0  0  0  0  0  0  0  0  0  0
   60.9400   32.5320   47.6480 C   0  0  0  0  0  0  0  0  0  0  0  0
   62.0790   31.7510   47.8930 O   0  0  0  0  0  0  0  0  0  0  0  0
   63.3940   31.9960   47.3930 C   0  0  0  0  0  0  0  0  0  0  0  0
   64.0160   33.1880   48.1290 C   0  0  0  0  0  0  0  0  0  0  0  0
   64.8470   32.7680   49.3740 C   0  0  0  0  0  0  0  0  0  0  0  0
   64.2210   33.0530   50.7020 N   0  0  0  0  0  0  0  0  0  0  0  0
   63.3020   34.2130   50.6340 C   0  0  0  0  0  0  0  0  0  0  0  0
   65.2530   33.2900   51.7410 C   0  0  0  0  0  0  0  0  0  0  0  0
   63.4330   31.8620   51.1020 C   0  0  0  0  0  0  0  0  0  0  0  0
   59.9110   32.1140   46.7240 C   0  0  0  0  0  0  0  0  0  0  0  0
   58.5623   32.3500   51.4581 H   0  0  0  0  0  0  0  0  0  0  0  0
   59.4536   32.5589   49.9126 H   0  0  0  0  0  0  0  0  0  0  0  0
   57.6584   32.4953   49.9126 H   0  0  0  0  0  0  0  0  0  0  0  0
   58.8534   30.1299   51.1888 H   0  0  0  0  0  0  0  0  0  0  0  0
   57.6445   30.2773   49.8141 H   0  0  0  0  0  0  0  0  0  0  0  0
   60.7353   29.6945   50.9927 H   0  0  0  0  0  0  0  0  0  0  0  0
   61.0840   28.6077   49.6056 H   0  0  0  0  0  0  0  0  0  0  0  0
   61.7075   30.2923   49.6056 H   0  0  0  0  0  0  0  0  0  0  0  0
   58.8254   28.1967   48.8332 H   0  0  0  0  0  0  0  0  0  0  0  0
   58.3274   29.5388   47.7025 H   0  0  0  0  0  0  0  0  0  0  0  0
   61.0611   28.1913   47.8072 H   0  0  0  0  0  0  0  0  0  0  0  0
   59.7315   27.9590   46.5549 H   0  0  0  0  0  0  0  0  0  0  0  0
   61.1390   29.3260   45.5240 H   0  0  0  0  0  0  0  0  0  0  0  0
   61.6930   30.0670   46.7900 H   0  0  0  0  0  0  0  0  0  0  0  0
   59.2833   28.4359   44.8717 H   0  0  0  0  0  0  0  0  0  0  0  0
   57.2960   27.9234   43.4816 H   0  0  0  0  0  0  0  0  0  0  0  0
   55.5576   29.6551   43.0982 H   0  0  0  0  0  0  0  0  0  0  0  0
   55.8428   31.9322   44.0346 H   0  0  0  0  0  0  0  0  0  0  0  0
   56.7204   34.5089   45.6730 H   0  0  0  0  0  0  0  0  0  0  0  0
   57.8015   34.5433   44.2389 H   0  0  0  0  0  0  0  0  0  0  0  0
   56.3426   33.4954   44.2389 H   0  0  0  0  0  0  0  0  0  0  0  0
   57.9531   34.9447   46.9788 H   0  0  0  0  0  0  0  0  0  0  0  0
   59.6472   35.5307   48.6727 H   0  0  0  0  0  0  0  0  0  0  0  0
   61.5915   34.0563   49.0473 H   0  0  0  0  0  0  0  0  0  0  0  0
   64.0171   31.1035   47.5516 H   0  0  0  0  0  0  0  0  0  0  0  0
   63.3373   32.2225   46.3181 H   0  0  0  0  0  0  0  0  0  0  0  0
   64.6763   33.7245   47.4317 H   0  0  0  0  0  0  0  0  0  0  0  0
   63.1903   33.8224   48.4838 H   0  0  0  0  0  0  0  0  0  0  0  0
   65.0252   31.6844   49.3107 H   0  0  0  0  0  0  0  0  0  0  0  0
   65.7634   33.3755   49.3397 H   0  0  0  0  0  0  0  0  0  0  0  0
   63.0450   34.5374   51.6532 H   0  0  0  0  0  0  0  0  0  0  0  0
   63.7933   35.0392   50.0992 H   0  0  0  0  0  0  0  0  0  0  0  0
   62.3853   33.9237   50.0992 H   0  0  0  0  0  0  0  0  0  0  0  0
   64.8001   33.1860   52.7380 H   0  0  0  0  0  0  0  0  0  0  0  0
   66.0631   32.5545   51.6277 H   0  0  0  0  0  0  0  0  0  0  0  0
   65.6610   34.3052   51.6277 H   0  0  0  0  0  0  0  0  0  0  0  0
   63.3925   31.8008   52.1996 H   0  0  0  0  0  0  0  0  0  0  0  0
   62.4120   31.9465   50.7016 H   0  0  0  0  0  0  0  0  0  0  0  0
   63.9100   30.9553   50.7016 H   0  0  0  0  0  0  0  0  0  0  0  0
  1  2  1  0
  2  3  1  0
  3  4  1  0
  3  5  1  0
  5  6  1  0
  6  7  1  0
  7  8  1  0
  8  9  2  0
  9 10  1  0
 10 11  2  0
 11 12  1  0
 12 13  2  0
 13 14  1  0
 14 15  2  0
 15 16  1  0
 15 17  1  0
 17 18  2  0
 18 19  1  0
 19 20  2  0
 20 21  1  0
 21 22  1  0
 22 23  1  0
 23 24  1  0
 24 25  1  0
 25 26  1  0
 26 27  1  0
 26 28  1  0
 26 29  1  0
 21 30  2  0
 30  8  1  0
 14  9  1  0
 30 17  1  0
  1 31  1  0
  1 32  1  0
  1 33  1  0
  2 34  1  0
  2 35  1  0
  4 36  1  0
  4 37  1  0
  4 38  1  0
  5 39  1  0
  5 40  1  0
  6 41  1  0
  6 42  1  0
  7 43  1  0
  7 44  1  0
 10 45  1  0
 11 46  1  0
 12 47  1  0
 13 48  1  0
 16 49  1  0
 16 50  1  0
 16 51  1  0
 18 52  1  0
 19 53  1  0
 20 54  1  0
 23 55  1  0
 23 56  1  0
 24 57  1  0
 24 58  1  0
 25 59  1  0
 25 60  1  0
 27 61  1  0
 27 62  1  0
 27 63  1  0
 28 64  1  0
 28 65  1  0
 28 66  1  0
 29 67  1  0
 29 68  1  0
 29 69  1  0
M  CHG  3   7   1  15   1  26   1
M  END
>  <UniqueID>  (10) 
10

>  <SMILES>  (10) 
CCN(C)CC[NH2+]c1c2ccccc2[n+](C)c2cccc(OCCC[N+](C)(C)C)c12

>  <Energy>  (10) 
115.98744191765678

>  <Genealogy>  (10) 
CCN(C)CC[NH2+]c1c2ccccc2[n+](C)c2cccc(OCCC[N+](C)(C)C)c12 (protonated)
CCN(C)CC[NH2+]c1c2ccccc2[n+](C)c2cccc(OCCC[N+](C)(C)C)c12 (3D coordinates assigned)
CCN(C)CC[NH2+]c1c2ccccc2[n+](C)c2cccc(OCCC[N+](C)(C)C)c12 (optimized conformer: 115.98744191765678 kcal/mol)

>  <smiles>  (10) 
CCN(C)CCNc1c2ccccc2[n+](C)c2cccc(OCCC[N+](C)(C)C)c12

>  <score_type>  (10) 
oracle

>  <origin>  (10) 
adg

>  <m_score__min__energy>  (10) 
-2.9300000000000002

>  <m_primary>  (10) 
energy

$$$$
10:0
     RDKit          3D

 48 50  0  0  0  0  0  0  0  0999 V2000
   56.2970   23.4760   43.2690 C   0  0  0  0  0  0  0  0  0  0  0  0
   56.7560   23.7140   44.6490 N   0  0  0  0  0  0  0  0  0  0  0  0
   57.9050   22.8380   44.9460 C   0  0  0  0  0  0  0  0  0  0  0  0
   57.1100   25.1430   44.8230 C   0  0  0  0  0  0  0  0  0  0  0  0
   56.0800   25.9040   45.6310 C   0  0  0  0  0  0  0  0  0  0  0  0
   55.2060   25.2670   46.2770 O   0  0  0  0  0  0  0  0  0  0  0  0
   56.0060   27.3370   45.6150 N   0  0  0  0  0  0  0  0  0  0  0  0
   56.9610   28.2310   44.9590 C   0  0  1  0  0  0  0  0  0  0  0  0
   56.4090   29.6820   44.9350 C   0  0  0  0  0  0  0  0  0  0  0  0
   57.3760   30.5540   45.6330 N   0  0  0  0  0  0  0  0  0  0  0  0
   58.1930   31.4050   44.7200 C   0  0  0  0  0  0  0  0  0  0  0  0
   58.6070   32.7710   45.2550 C   0  0  0  0  0  0  0  0  0  0  0  0
   58.8680   33.8380   44.3730 C   0  0  0  0  0  0  0  0  0  0  0  0
   59.2390   35.0930   44.8660 C   0  0  0  0  0  0  0  0  0  0  0  0
   59.3880   35.2920   46.2390 C   0  0  0  0  0  0  0  0  0  0  0  0
   59.1930   34.2280   47.1210 C   0  0  0  0  0  0  0  0  0  0  0  0
   59.3800   34.4100   48.4510 F   0  0  0  0  0  0  0  0  0  0  0  0
   58.8240   32.9710   46.6320 C   0  0  0  0  0  0  0  0  0  0  0  0
   58.0620   29.6140   46.5290 C   0  0  2  0  0  0  0  0  0  0  0  0
   59.3790   29.9850   47.2350 C   0  0  1  0  0  0  0  0  0  0  0  0
   59.1230   30.4040   48.5310 F   0  0  0  0  0  0  0  0  0  0  0  0
   60.2610   28.8670   47.2610 O   0  0  0  0  0  0  0  0  0  0  0  0
   59.5630   27.6580   47.5830 C   0  0  0  0  0  0  0  0  0  0  0  0
   58.5520   27.2810   46.6360 O   0  0  0  0  0  0  0  0  0  0  0  0
   58.2650   28.3440   45.7500 C   0  0  1  0  0  0  0  0  0  0  0  0
   55.3206   22.9697   43.2895 H   0  0  0  0  0  0  0  0  0  0  0  0
   56.2004   24.4376   42.7437 H   0  0  0  0  0  0  0  0  0  0  0  0
   57.0273   22.8430   42.7437 H   0  0  0  0  0  0  0  0  0  0  0  0
   55.9660   23.4630   45.2900 H   0  0  0  0  0  0  0  0  0  0  0  0
   58.0246   22.7469   46.0357 H   0  0  0  0  0  0  0  0  0  0  0  0
   57.7291   21.8427   44.5119 H   0  0  0  0  0  0  0  0  0  0  0  0
   58.8182   23.2712   44.5119 H   0  0  0  0  0  0  0  0  0  0  0  0
   58.0792   25.2055   45.3395 H   0  0  0  0  0  0  0  0  0  0  0  0
   57.1528   25.5997   43.8232 H   0  0  0  0  0  0  0  0  0  0  0  0
   57.1252   27.8111   43.9556 H   0  0  0  0  0  0  0  0  0  0  0  0
   56.2883   30.0176   43.8944 H   0  0  0  0  0  0  0  0  0  0  0  0
   55.4293   29.7247   45.4335 H   0  0  0  0  0  0  0  0  0  0  0  0
   59.1104   30.8491   44.4763 H   0  0  0  0  0  0  0  0  0  0  0  0
   57.5437   31.6141   43.8571 H   0  0  0  0  0  0  0  0  0  0  0  0
   58.7793   33.6827   43.2876 H   0  0  0  0  0  0  0  0  0  0  0  0
   59.4139   35.9259   44.1691 H   0  0  0  0  0  0  0  0  0  0  0  0
   59.6587   36.2856   46.6256 H   0  0  0  0  0  0  0  0  0  0  0  0
   58.7020   32.1297   47.3301 H   0  0  0  0  0  0  0  0  0  0  0  0
   57.3853   29.5670   47.3949 H   0  0  0  0  0  0  0  0  0  0  0  0
   59.8551   30.8035   46.6752 H   0  0  0  0  0  0  0  0  0  0  0  0
   59.0824   27.7901   48.5636 H   0  0  0  0  0  0  0  0  0  0  0  0
   60.3131   26.8535   47.5749 H   0  0  0  0  0  0  0  0  0  0  0  0
   59.1238   28.3237   45.0629 H   0  0  0  0  0  0  0  0  0  0  0  0
  1  2  1  0
  2  3  1  0
  2  4  1  0
  4  5  1  0
  5  6  2  0
  5  7  1  0
  7  8  1  0
  8  9  1  0
  9 10  1  0
 10 11  1  0
 11 12  1  0
 12 13  2  0
 13 14  1  0
 14 15  2  0
 15 16  1  0
 16 17  1  0
 16 18  2  0
 10 19  1  0
 19 20  1  0
 20 21  1  0
 20 22  1  0
 22 23  1  0
 23 24  1  0
 24 25  1  0
 25  8  1  0
 18 12  1  0
 25 19  1  0
  1 26  1  0
  1 27  1  0
  1 28  1  0
  2 29  1  0
  3 30  1  0
  3 31  1  0
  3 32  1  0
  4 33  1  0
  4 34  1  0
  8 35  1  6
  9 36  1  0
  9 37  1  0
 11 38  1  0
 11 39  1  0
 13 40  1  0
 14 41  1  0
 15 42  1  0
 18 43  1  0
 19 44  1  1
 20 45  1  6
 23 46  1  0
 23 47  1  0
 25 48  1  6
M  CHG  2   2   1   7  -1
M  END
>  <UniqueID>  (11) 
11

>  <SMILES>  (11) 
C[NH+](C)CC(=O)[N-][C@H]1CN(Cc2cccc(F)c2)[C@@H]2C(F)OCOC21

>  <Energy>  (11) 
87.17266083536093

>  <Genealogy>  (11) 
C[NH+](C)CC(=O)[N-]C1CN(Cc2cccc(F)c2)C2C(F)OCOC12 (protonated)
C[NH+](C)CC(=O)[N-][C@H]1CN(Cc2cccc(F)c2)[C@@H]2C(F)OCOC21 (chirality)
C[NH+](C)CC(=O)[N-][C@H]1CN(Cc2cccc(F)c2)[C@@H]2C(F)OCOC21 (3D coordinates assigned)
C[NH+](C)CC(=O)[N-][C@H]1CN(Cc2cccc(F)c2)[C@@H]2C(F)OCOC21 (nonaromatic ring conformer: 87.17266083536093 kcal/mol)

>  <smiles>  (11) 
CN(C)CC(=O)NC1CN(Cc2cccc(F)c2)C2C(F)OCOC12

>  <score_type>  (11) 
oracle

>  <origin>  (11) 
adg

>  <m_score__min__energy>  (11) 
-8.1099999999999994

>  <m_primary>  (11) 
energy

$$$$
11:0
     RDKit          3D

 44 46  0  0  0  0  0  0  0  0999 V2000
   63.4040   33.8000   46.6830 C   0  0  0  0  0  0  0  0  0  0  0  0
   63.1870   33.8600   48.1980 C   0  0  0  0  0  0  0  0  0  0  0  0
   62.4180   32.7130   48.7040 N   0  0  0  0  0  0  0  0  0  0  0  0
   62.7260   31.4720   47.9800 C   0  0  0  0  0  0  0  0  0  0  0  0
   61.5190   30.5200   48.0020 C   0  0  0  0  0  0  0  0  0  0  0  0
   60.2270   31.2050   48.2240 N   0  0  0  0  0  0  0  0  0  0  0  0
   59.4900   31.4510   46.9890 C   0  0  0  0  0  0  0  0  0  0  0  0
   59.4320   32.7510   46.4060 C   0  0  0  0  0  0  0  0  0  0  0  0
   60.0060   33.8910   47.0260 C   0  0  0  0  0  0  0  0  0  0  0  0
   59.9170   35.1530   46.4440 C   0  0  0  0  0  0  0  0  0  0  0  0
   59.2600   35.3190   45.2350 C   0  0  0  0  0  0  0  0  0  0  0  0
   58.7010   34.2210   44.5920 C   0  0  0  0  0  0  0  0  0  0  0  0
   58.7900   32.9190   45.1470 C   0  0  0  0  0  0  0  0  0  0  0  0
   58.2650   31.8350   44.4810 N   0  0  0  0  0  0  0  0  0  0  0  0
   58.0810   31.9180   43.0170 C   0  0  0  0  0  0  0  0  0  0  0  0
   58.0690   30.6420   45.1440 C   0  0  0  0  0  0  0  0  0  0  0  0
   57.1780   29.6340   44.6590 C   0  0  0  0  0  0  0  0  0  0  0  0
   55.8900   29.9390   43.4890 Cl  0  0  0  0  0  0  0  0  0  0  0  0
   57.1650   28.3660   45.2400 C   0  0  0  0  0  0  0  0  0  0  0  0
   57.9740   28.0830   46.3280 C   0  0  0  0  0  0  0  0  0  0  0  0
   58.7520   29.0830   46.8970 C   0  0  0  0  0  0  0  0  0  0  0  0
   58.7790   30.3910   46.3530 C   0  0  0  0  0  0  0  0  0  0  0  0
   64.4447   33.5122   46.4728 H   0  0  0  0  0  0  0  0  0  0  0  0
   62.7222   33.0567   46.2441 H   0  0  0  0  0  0  0  0  0  0  0  0
   63.2009   34.7880   46.2441 H   0  0  0  0  0  0  0  0  0  0  0  0
   64.1685   33.8729   48.6945 H   0  0  0  0  0  0  0  0  0  0  0  0
   62.6103   34.7709   48.4166 H   0  0  0  0  0  0  0  0  0  0  0  0
   62.6200   32.5780   49.7230 H   0  0  0  0  0  0  0  0  0  0  0  0
   62.9764   31.7146   46.9367 H   0  0  0  0  0  0  0  0  0  0  0  0
   63.5775   30.9771   48.4700 H   0  0  0  0  0  0  0  0  0  0  0  0
   61.4727   29.9952   47.0364 H   0  0  0  0  0  0  0  0  0  0  0  0
   61.6676   29.8311   48.8466 H   0  0  0  0  0  0  0  0  0  0  0  0
   59.6710   30.7010   48.9440 H   0  0  0  0  0  0  0  0  0  0  0  0
   60.4060   32.1190   48.6970 H   0  0  0  0  0  0  0  0  0  0  0  0
   60.5317   33.7756   47.9853 H   0  0  0  0  0  0  0  0  0  0  0  0
   60.3697   36.0211   46.9455 H   0  0  0  0  0  0  0  0  0  0  0  0
   59.1810   36.3194   44.7845 H   0  0  0  0  0  0  0  0  0  0  0  0
   58.1795   34.3646   43.6342 H   0  0  0  0  0  0  0  0  0  0  0  0
   57.0989   32.3610   42.7954 H   0  0  0  0  0  0  0  0  0  0  0  0
   58.8729   32.5461   42.5829 H   0  0  0  0  0  0  0  0  0  0  0  0
   58.1343   30.9087   42.5829 H   0  0  0  0  0  0  0  0  0  0  0  0
   56.5073   27.5849   44.8310 H   0  0  0  0  0  0  0  0  0  0  0  0
   58.0004   27.0643   46.7422 H   0  0  0  0  0  0  0  0  0  0  0  0
   59.3583   28.8554   47.7862 H   0  0  0  0  0  0  0  0  0  0  0  0
  1  2  1  0
  2  3  1  0
  3  4  1  0
  4  5  1  0
  5  6  1  0
  6  7  1  0
  7  8  2  0
  8  9  1  0
  9 10  2  0
 10 11  1  0
 11 12  2  0
 12 13  1  0
 13 14  2  0
 14 15  1  0
 14 16  1  0
 16 17  2  0
 17 18  1  0
 17 19  1  0
 19 20  2  0
 20 21  1  0
 21 22  2  0
 22  7  1  0
 13  8  1  0
 22 16  1  0
  1 23  1  0
  1 24  1  0
  1 25  1  0
  2 26  1  0
  2 27  1  0
  3 28  1  0
  4 29  1  0
  4 30  1  0
  5 31  1  0
  5 32  1  0
  6 33  1  0
  6 34  1  0
  9 35  1  0
 10 36  1  0
 11 37  1  0
 12 38  1  0
 15 39  1  0
 15 40  1  0
 15 41  1  0
 19 42  1  0
 20 43  1  0
 21 44  1  0
M  CHG  2   6   1  14   1
M  END
>  <UniqueID>  (12) 
12

>  <SMILES>  (12) 
CCNCC[NH2+]c1c2ccccc2[n+](C)c2c(Cl)cccc12

>  <Energy>  (12) 
80.00776581702176

>  <Genealogy>  (12) 
CCNCC[NH2+]c1c2ccccc2[n+](C)c2c(Cl)cccc12 (protonated)
CCNCC[NH2+]c1c2ccccc2[n+](C)c2c(Cl)cccc12 (3D coordinates assigned)
CCNCC[NH2+]c1c2ccccc2[n+](C)c2c(Cl)cccc12 (optimized conformer: 80.00776581702176 kcal/mol)

>  <smiles>  (12) 
CCNCCNc1c2ccccc2[n+](C)c2c(Cl)cccc12

>  <score_type>  (12) 
oracle

>  <origin>  (12) 
adg

>  <m_score__min__energy>  (12) 
-4.79

>  <m_primary>  (12) 
energy

$$$$
12:0
     RDKit          3D

 54 56  0  0  0  0  0  0  0  0999 V2000
   58.1740   26.7420   42.2940 C   0  0  0  0  0  0  0  0  0  0  0  0
   58.5370   27.5030   43.5740 C   0  0  0  0  0  0  0  0  0  0  0  0
   57.4140   27.5960   44.5250 N   0  0  0  0  0  0  0  0  0  0  0  0
   57.1620   26.3740   45.3130 C   0  0  0  0  0  0  0  0  0  0  0  0
   57.7970   26.4090   46.7190 C   0  0  0  0  0  0  0  0  0  0  0  0
   58.5290   27.6660   46.9380 N   0  0  0  0  0  0  0  0  0  0  0  0
   59.2150   27.7060   48.2410 C   0  0  0  0  0  0  0  0  0  0  0  0
   60.1270   28.9360   48.3790 C   0  0  0  0  0  0  0  0  0  0  0  0
   60.5370   29.4240   47.0620 N   0  0  0  0  0  0  0  0  0  0  0  0
   60.4510   30.8160   46.7160 C   0  0  0  0  0  0  0  0  0  0  0  0
   61.4900   31.6940   47.0700 C   0  0  0  0  0  0  0  0  0  0  0  0
   62.6660   31.2090   47.6820 C   0  0  0  0  0  0  0  0  0  0  0  0
   63.7090   32.0750   48.0010 C   0  0  0  0  0  0  0  0  0  0  0  0
   63.6050   33.4290   47.7030 C   0  0  0  0  0  0  0  0  0  0  0  0
   62.4470   33.9310   47.1110 C   0  0  0  0  0  0  0  0  0  0  0  0
   61.3500   33.0830   46.8120 C   0  0  0  0  0  0  0  0  0  0  0  0
   60.1740   33.5720   46.2750 N   0  0  0  0  0  0  0  0  0  0  0  0
   59.9070   35.0280   46.2810 C   0  0  0  0  0  0  0  0  0  0  0  0
   59.2400   32.6990   45.7490 C   0  0  0  0  0  0  0  0  0  0  0  0
   58.1640   33.1540   44.9470 C   0  0  0  0  0  0  0  0  0  0  0  0
   57.2130   32.2680   44.4440 C   0  0  0  0  0  0  0  0  0  0  0  0
   57.3080   30.8950   44.7000 C   0  0  0  0  0  0  0  0  0  0  0  0
   56.3270   29.9810   44.1760 N   0  0  0  0  0  0  0  0  0  0  0  0
   56.2440   29.7720   42.9470 O   0  0  0  0  0  0  0  0  0  0  0  0
   55.4580   29.3260   45.0170 O   0  0  0  0  0  0  0  0  0  0  0  0
   58.3870   30.4220   45.4590 C   0  0  0  0  0  0  0  0  0  0  0  0
   59.3540   31.3050   45.9850 C   0  0  0  0  0  0  0  0  0  0  0  0
   57.7143   25.7782   42.5583 H   0  0  0  0  0  0  0  0  0  0  0  0
   57.4630   27.3375   41.7025 H   0  0  0  0  0  0  0  0  0  0  0  0
   59.0842   26.5641   41.7025 H   0  0  0  0  0  0  0  0  0  0  0  0
   59.3718   26.9829   44.0666 H   0  0  0  0  0  0  0  0  0  0  0  0
   58.8081   28.5284   43.2824 H   0  0  0  0  0  0  0  0  0  0  0  0
   56.5420   27.8310   43.9940 H   0  0  0  0  0  0  0  0  0  0  0  0
   57.5960   28.3930   45.1800 H   0  0  0  0  0  0  0  0  0  0  0  0
   56.0748   26.2492   45.4245 H   0  0  0  0  0  0  0  0  0  0  0  0
   57.6233   25.5364   44.7693 H   0  0  0  0  0  0  0  0  0  0  0  0
   57.0024   26.3196   47.4744 H   0  0  0  0  0  0  0  0  0  0  0  0
   58.5062   25.5723   46.8031 H   0  0  0  0  0  0  0  0  0  0  0  0
   57.8620   28.4710   46.8650 H   0  0  0  0  0  0  0  0  0  0  0  0
   58.4585   27.7345   49.0390 H   0  0  0  0  0  0  0  0  0  0  0  0
   59.8451   26.8077   48.3189 H   0  0  0  0  0  0  0  0  0  0  0  0
   59.5818   29.7329   48.9061 H   0  0  0  0  0  0  0  0  0  0  0  0
   61.0249   28.6496   48.9462 H   0  0  0  0  0  0  0  0  0  0  0  0
   60.9540   28.7550   46.3770 H   0  0  0  0  0  0  0  0  0  0  0  0
   62.7595   30.1368   47.9091 H   0  0  0  0  0  0  0  0  0  0  0  0
   64.6155   31.6875   48.4890 H   0  0  0  0  0  0  0  0  0  0  0  0
   64.4397   34.1068   47.9352 H   0  0  0  0  0  0  0  0  0  0  0  0
   62.3829   35.0027   46.8717 H   0  0  0  0  0  0  0  0  0  0  0  0
   59.8416   35.3845   47.3196 H   0  0  0  0  0  0  0  0  0  0  0  0
   60.7239   35.5527   45.7639 H   0  0  0  0  0  0  0  0  0  0  0  0
   58.9571   35.2287   45.7639 H   0  0  0  0  0  0  0  0  0  0  0  0
   58.0777   34.2263   44.7172 H   0  0  0  0  0  0  0  0  0  0  0  0
   56.3784   32.6519   43.8390 H   0  0  0  0  0  0  0  0  0  0  0  0
   58.4819   29.3426   45.6482 H   0  0  0  0  0  0  0  0  0  0  0  0
  1  2  1  0
  2  3  1  0
  3  4  1  0
  4  5  1  0
  5  6  1  0
  6  7  1  0
  7  8  1  0
  8  9  1  0
  9 10  1  0
 10 11  2  0
 11 12  1  0
 12 13  2  0
 13 14  1  0
 14 15  2  0
 15 16  1  0
 16 17  2  0
 17 18  1  0
 17 19  1  0
 19 20  2  0
 20 21  1  0
 21 22  2  0
 22 23  1  0
 23 24  2  0
 23 25  1  0
 22 26  1  0
 26 27  2  0
 27 10  1  0
 16 11  1  0
 27 19  1  0
  1 28  1  0
  1 29  1  0
  1 30  1  0
  2 31  1  0
  2 32  1  0
  3 33  1  0
  3 34  1  0
  4 35  1  0
  4 36  1  0
  5 37  1  0
  5 38  1  0
  6 39  1  0
  7 40  1  0
  7 41  1  0
  8 42  1  0
  8 43  1  0
  9 44  1  0
 12 45  1  0
 13 46  1  0
 14 47  1  0
 15 48  1  0
 18 49  1  0
 18 50  1  0
 18 51  1  0
 20 52  1  0
 21 53  1  0
 26 54  1  0
M  CHG  4   3   1  17   1  23   1  25  -1
M  END
>  <UniqueID>  (13) 
13

>  <SMILES>  (13) 
CC[NH2+]CCNCCNc1c2ccccc2[n+](C)c2ccc([N+](=O)[O-])cc12

>  <Energy>  (13) 
80.9403515890154

>  <Genealogy>  (13) 
CC[NH2+]CCNCCNc1c2ccccc2[n+](C)c2ccc([N+](=O)[O-])cc12 (protonated)
CC[NH2+]CCNCCNc1c2ccccc2[n+](C)c2ccc([N+](=O)[O-])cc12 (3D coordinates assigned)
CC[NH2+]CCNCCNc1c2ccccc2[n+](C)c2ccc([N+](=O)[O-])cc12 (optimized conformer: 80.9403515890154 kcal/mol)

>  <smiles>  (13) 
CCNCCNCCNc1c2ccccc2[n+](C)c2ccc([N+](=O)[O-])cc12

>  <score_type>  (13) 
oracle

>  <origin>  (13) 
adg

>  <m_score__min__energy>  (13) 
-4.4400000000000004

>  <m_primary>  (13) 
energy

$$$$
13:0
     RDKit          3D

 67 72  0  0  0  0  0  0  0  0999 V2000
   63.7400   33.4190   46.7860 C   0  0  0  0  0  0  0  0  0  0  0  0
   64.1160   33.4150   48.2630 C   0  0  0  0  0  0  0  0  0  0  0  0
   63.0270   32.8370   49.0570 N   0  0  0  0  0  0  0  0  0  0  0  0
   62.1490   33.8960   49.5670 C   0  0  0  0  0  0  0  0  0  0  0  0
   60.7670   33.7780   48.9230 C   0  0  0  0  0  0  0  0  0  0  0  0
   60.8380   32.9770   47.7020 N   0  0  0  0  0  0  0  0  0  0  0  0
   60.1800   31.7050   47.5370 C   0  0  0  0  0  0  0  0  0  0  0  0
   59.1870   31.5030   46.5550 C   0  0  0  0  0  0  0  0  0  0  0  0
   58.5550   30.2460   46.4000 C   0  0  0  0  0  0  0  0  0  0  0  0
   58.9270   29.1480   47.2090 C   0  0  0  0  0  0  0  0  0  0  0  0
   59.8760   29.3910   48.2220 C   0  0  0  0  0  0  0  0  0  0  0  0
   60.3640   28.5850   49.2400 C   0  0  0  0  0  0  0  0  0  0  0  0
   61.2670   29.3680   49.9410 C   0  0  0  0  0  0  0  0  0  0  0  0
   61.3410   30.6040   49.4090 N   0  0  0  0  0  0  0  0  0  0  0  0
   60.4840   30.6190   48.3680 C   0  0  0  0  0  0  0  0  0  0  0  0
   58.1330   27.8600   47.0870 C   0  0  2  0  0  0  0  0  0  0  0  0
   58.8220   26.7540   47.6430 O   0  0  0  0  0  0  0  0  0  0  0  0
   58.1390   25.5080   47.4930 C   0  0  0  0  0  0  0  0  0  0  0  0
   56.6890   25.5710   46.9330 C   0  0  2  0  0  0  0  0  0  0  0  0
   56.1970   24.2200   46.6330 N   0  0  0  0  0  0  0  0  0  0  0  0
   56.4560   23.5270   45.3960 C   0  0  0  0  0  0  0  0  0  0  0  0
   55.6280   23.6850   44.2660 C   0  0  0  0  0  0  0  0  0  0  0  0
   55.9180   23.0050   43.0770 C   0  0  0  0  0  0  0  0  0  0  0  0
   57.0270   22.1580   43.0060 C   0  0  0  0  0  0  0  0  0  0  0  0
   57.8480   21.9870   44.1230 C   0  0  0  0  0  0  0  0  0  0  0  0
   57.5600   22.6620   45.3140 C   0  0  0  0  0  0  0  0  0  0  0  0
   56.5980   26.4710   45.6730 C   0  0  0  0  0  0  0  0  0  0  0  0
   57.7220   27.5420   45.6150 C   0  0  2  0  0  0  0  0  0  0  0  0
   58.8900   27.0420   44.7460 C   0  0  0  0  0  0  0  0  0  0  0  0
   58.4990   27.4240   43.3160 C   0  0  0  0  0  0  0  0  0  0  0  0
   57.3930   28.4730   43.4490 C   0  0  0  0  0  0  0  0  0  0  0  0
   57.2530   28.7210   44.8810 N   0  0  0  0  0  0  0  0  0  0  0  0
   57.5310   30.0470   45.3570 C   0  0  0  0  0  0  0  0  0  0  0  0
   56.9550   31.0370   44.8260 O   0  0  0  0  0  0  0  0  0  0  0  0
   62.6446   33.4306   46.6865 H   0  0  0  0  0  0  0  0  0  0  0  0
   64.1616   34.3127   46.3027 H   0  0  0  0  0  0  0  0  0  0  0  0
   64.1425   32.5165   46.3027 H   0  0  0  0  0  0  0  0  0  0  0  0
   65.0277   32.8162   48.4050 H   0  0  0  0  0  0  0  0  0  0  0  0
   64.2933   34.4493   48.5929 H   0  0  0  0  0  0  0  0  0  0  0  0
   62.4600   32.2290   48.4190 H   0  0  0  0  0  0  0  0  0  0  0  0
   62.0530   33.7968   50.6583 H   0  0  0  0  0  0  0  0  0  0  0  0
   62.5819   34.8767   49.3206 H   0  0  0  0  0  0  0  0  0  0  0  0
   60.0771   33.2969   49.6320 H   0  0  0  0  0  0  0  0  0  0  0  0
   60.4064   34.7853   48.6673 H   0  0  0  0  0  0  0  0  0  0  0  0
   61.3460   33.4030   46.8950 H   0  0  0  0  0  0  0  0  0  0  0  0
   58.8990   32.3372   45.8983 H   0  0  0  0  0  0  0  0  0  0  0  0
   60.0906   27.5400   49.4479 H   0  0  0  0  0  0  0  0  0  0  0  0
   61.8447   29.0272   50.8129 H   0  0  0  0  0  0  0  0  0  0  0  0
   61.9400   31.3820   49.7620 H   0  0  0  0  0  0  0  0  0  0  0  0
   57.2132   28.0275   47.6666 H   0  0  0  0  0  0  0  0  0  0  0  0
   58.7331   24.8818   46.8111 H   0  0  0  0  0  0  0  0  0  0  0  0
   58.0387   25.1079   48.5127 H   0  0  0  0  0  0  0  0  0  0  0  0
   56.0524   26.0204   47.7094 H   0  0  0  0  0  0  0  0  0  0  0  0
   55.7270   23.6820   47.3960 H   0  0  0  0  0  0  0  0  0  0  0  0
   54.7500   24.3456   44.3187 H   0  0  0  0  0  0  0  0  0  0  0  0
   55.2715   23.1378   42.1970 H   0  0  0  0  0  0  0  0  0  0  0  0
   57.2535   21.6258   42.0703 H   0  0  0  0  0  0  0  0  0  0  0  0
   58.7217   21.3211   44.0661 H   0  0  0  0  0  0  0  0  0  0  0  0
   58.2035   22.5142   46.1938 H   0  0  0  0  0  0  0  0  0  0  0  0
   56.6736   25.8336   44.7797 H   0  0  0  0  0  0  0  0  0  0  0  0
   55.6360   27.0028   45.7149 H   0  0  0  0  0  0  0  0  0  0  0  0
   59.8292   27.5354   45.0367 H   0  0  0  0  0  0  0  0  0  0  0  0
   59.0595   25.9609   44.8573 H   0  0  0  0  0  0  0  0  0  0  0  0
   59.3638   27.8455   42.7826 H   0  0  0  0  0  0  0  0  0  0  0  0
   58.1584   26.5488   42.7432 H   0  0  0  0  0  0  0  0  0  0  0  0
   57.6769   29.3979   42.9256 H   0  0  0  0  0  0  0  0  0  0  0  0
   56.4491   28.1262   43.0031 H   0  0  0  0  0  0  0  0  0  0  0  0
  1  2  1  0
  2  3  1  0
  3  4  1  0
  4  5  1  0
  5  6  1  0
  6  7  1  0
  7  8  2  0
  8  9  1  0
  9 10  2  0
 10 11  1  0
 11 12  1  0
 12 13  2  0
 13 14  1  0
 14 15  1  0
 10 16  1  0
 16 17  1  0
 17 18  1  0
 18 19  1  0
 19 20  1  0
 20 21  1  0
 21 22  2  0
 22 23  1  0
 23 24  2  0
 24 25  1  0
 25 26  2  0
 19 27  1  0
 28 27  1  1
 28 29  1  0
 29 30  1  0
 30 31  1  0
 31 32  1  0
 32 33  1  0
 33 34  2  0
 15  7  1  0
 28 16  1  0
 33  9  1  0
 15 11  2  0
 26 21  1  0
 32 28  1  0
  1 35  1  0
  1 36  1  0
  1 37  1  0
  2 38  1  0
  2 39  1  0
  3 40  1  0
  4 41  1  0
  4 42  1  0
  5 43  1  0
  5 44  1  0
  6 45  1  0
  8 46  1  0
 12 47  1  0
 13 48  1  0
 14 49  1  0
 16 50  1  1
 18 51  1  0
 18 52  1  0
 19 53  1  1
 20 54  1  0
 22 55  1  0
 23 56  1  0
 24 57  1  0
 25 58  1  0
 26 59  1  0
 27 60  1  0
 27 61  1  0
 29 62  1  0
 29 63  1  0
 30 64  1  0
 30 65  1  0
 31 66  1  0
 31 67  1  0
M  END
>  <UniqueID>  (14) 
14

>  <SMILES>  (14) 
CCNCCNc1cc2c(c3cc[nH]c13)[C@@H]1OC[C@H](Nc3ccccc3)CC13CCCN3C2=O

>  <Energy>  (14) 
135.2475690394271

>  <Genealogy>  (14) 
CCNCCNc1cc2c(c3cc[nH]c13)[C@@H]1OC[C@H](Nc3ccccc3)CC13CCCN3C2=O (chirality)
CCNCCNc1cc2c(c3cc[nH]c13)[C@@H]1OC[C@H](Nc3ccccc3)CC13CCCN3C2=O (3D coordinates assigned)
CCNCCNc1cc2c(c3cc[nH]c13)[C@@H]1OC[C@H](Nc3ccccc3)CC13CCCN3C2=O (nonaromatic ring conformer: 135.2475690394271 kcal/mol)

>  <smiles>  (14) 
CCNCCNc1cc2c(c3cc[nH]c13)C1OCC(Nc3ccccc3)CC13CCCN3C2=O

>  <score_type>  (14) 
oracle

>  <origin>  (14) 
adg

>  <m_score__min__energy>  (14) 
-9.1600000000000001

>  <m_primary>  (14) 
energy

$$$$
14:0
     RDKit          3D

 37 38  0  0  0  0  0  0  0  0999 V2000
   61.9170   33.4670   47.3060 C   0  0  0  0  0  0  0  0  0  0  0  0
   60.5320   34.0300   47.6400 C   0  0  0  0  0  0  0  0  0  0  0  0
   60.0110   33.5120   48.9860 C   0  0  0  0  0  0  0  0  0  0  0  0
   59.5540   33.8140   46.4990 C   0  0  0  0  0  0  0  0  0  0  0  0
   58.9290   34.8590   45.8400 C   0  0  0  0  0  0  0  0  0  0  0  0
   58.1230   34.3010   44.8730 C   0  0  0  0  0  0  0  0  0  0  0  0
   58.2940   32.9350   44.9640 C   0  0  0  0  0  0  0  0  0  0  0  0
   57.5480   31.9340   44.1250 C   0  0  0  0  0  0  0  0  0  0  0  0
   56.7270   31.0790   44.9910 N   0  0  0  0  0  0  0  0  0  0  0  0
   56.3730   29.8120   44.3320 C   0  0  0  0  0  0  0  0  0  0  0  0
   57.2920   28.6930   44.7320 C   0  0  0  0  0  0  0  0  0  0  0  0
   58.6540   28.6260   44.4730 C   0  0  0  0  0  0  0  0  0  0  0  0
   59.2590   27.4820   45.0060 C   0  0  0  0  0  0  0  0  0  0  0  0
   58.3790   26.6520   45.6890 C   0  0  0  0  0  0  0  0  0  0  0  0
   56.8470   27.3430   45.6310 S   0  0  0  0  0  0  0  0  0  0  0  0
   59.1790   32.6310   45.9450 N   0  0  0  0  0  0  0  0  0  0  0  0
   59.5360   31.2800   46.3870 C   0  0  0  0  0  0  0  0  0  0  0  0
   62.4580   33.2471   48.2382 H   0  0  0  0  0  0  0  0  0  0  0  0
   61.8056   32.5428   46.7200 H   0  0  0  0  0  0  0  0  0  0  0  0
   62.4820   34.2068   46.7200 H   0  0  0  0  0  0  0  0  0  0  0  0
   60.6346   35.1188   47.7579 H   0  0  0  0  0  0  0  0  0  0  0  0
   60.5320   34.0300   49.8047 H   0  0  0  0  0  0  0  0  0  0  0  0
   58.9304   33.7041   49.0594 H   0  0  0  0  0  0  0  0  0  0  0  0
   60.1969   32.4303   49.0594 H   0  0  0  0  0  0  0  0  0  0  0  0
   59.0529   35.9318   46.0493 H   0  0  0  0  0  0  0  0  0  0  0  0
   57.4718   34.8380   44.1676 H   0  0  0  0  0  0  0  0  0  0  0  0
   56.8987   32.4647   43.4131 H   0  0  0  0  0  0  0  0  0  0  0  0
   58.2678   31.3111   43.5737 H   0  0  0  0  0  0  0  0  0  0  0  0
   55.8510   31.5920   45.2450 H   0  0  0  0  0  0  0  0  0  0  0  0
   55.3435   29.5426   44.6103 H   0  0  0  0  0  0  0  0  0  0  0  0
   56.4669   29.9566   43.2456 H   0  0  0  0  0  0  0  0  0  0  0  0
   59.2019   29.3936   43.9067 H   0  0  0  0  0  0  0  0  0  0  0  0
   60.3308   27.2609   44.8945 H   0  0  0  0  0  0  0  0  0  0  0  0
   58.6398   25.7046   46.1833 H   0  0  0  0  0  0  0  0  0  0  0  0
   59.5454   31.2444   47.4864 H   0  0  0  0  0  0  0  0  0  0  0  0
   58.7969   30.5614   46.0032 H   0  0  0  0  0  0  0  0  0  0  0  0
   60.5336   31.0203   46.0032 H   0  0  0  0  0  0  0  0  0  0  0  0
  1  2  1  0
  2  3  1  0
  2  4  1  0
  4  5  2  0
  5  6  1  0
  6  7  2  0
  7  8  1  0
  8  9  1  0
  9 10  1  0
 10 11  1  0
 11 12  2  0
 12 13  1  0
 13 14  2  0
 14 15  1  0
  7 16  1  0
 16 17  1  0
 16  4  1  0
 15 11  1  0
  1 18  1  0
  1 19  1  0
  1 20  1  0
  2 21  1  0
  3 22  1  0
  3 23  1  0
  3 24  1  0
  5 25  1  0
  6 26  1  0
  8 27  1  0
  8 28  1  0
  9 29  1  0
 10 30  1  0
 10 31  1  0
 12 32  1  0
 13 33  1  0
 14 34  1  0
 17 35  1  0
 17 36  1  0
 17 37  1  0
M  END
>  <UniqueID>  (15) 
15

>  <SMILES>  (15) 
CC(C)c1ccc(CNCc2cccs2)n1C

>  <Energy>  (15) 
84.32580654668514

>  <Genealogy>  (15) 
CC(C)c1ccc(CNCc2cccs2)n1C (3D coordinates assigned)
CC(C)c1ccc(CNCc2cccs2)n1C (optimized conformer: 84.32580654668514 kcal/mol)

>  <smiles>  (15) 
CC(C)c1ccc(CNCc2cccs2)n1C

>  <score_type>  (15) 
oracle

>  <origin>  (15) 
adg

>  <m_score__min__energy>  (15) 
-6.3300000000000001

>  <m_primary>  (15) 
energy

$$$$
15:0
     RDKit          3D

 49 51  0  0  0  0  0  0  0  0999 V2000
   63.3520   33.8400   46.7530 C   0  0  0  0  0  0  0  0  0  0  0  0
   62.6690   33.9940   48.1110 C   0  0  0  0  0  0  0  0  0  0  0  0
   62.6680   32.7150   48.8560 N   0  0  0  0  0  0  0  0  0  0  0  0
   63.3840   32.8340   50.1550 C   0  0  0  0  0  0  0  0  0  0  0  0
   64.8850   32.7130   49.9240 C   0  0  0  0  0  0  0  0  0  0  0  0
   63.2260   31.6280   48.0210 C   0  0  0  0  0  0  0  0  0  0  0  0
   62.1320   30.9840   47.1580 C   0  0  0  0  0  0  0  0  0  0  0  0
   60.8030   31.2710   47.7010 N   0  0  0  0  0  0  0  0  0  0  0  0
   59.6230   31.1570   46.8890 C   0  0  0  0  0  0  0  0  0  0  0  0
   59.1310   32.3080   46.2470 C   0  0  0  0  0  0  0  0  0  0  0  0
   59.6510   33.5840   46.5570 C   0  0  0  0  0  0  0  0  0  0  0  0
   59.2160   34.7170   45.8750 C   0  0  0  0  0  0  0  0  0  0  0  0
   58.2710   34.6000   44.8660 C   0  0  0  0  0  0  0  0  0  0  0  0
   57.7330   33.3540   44.5500 C   0  0  0  0  0  0  0  0  0  0  0  0
   58.1230   32.1850   45.2550 C   0  0  0  0  0  0  0  0  0  0  0  0
   57.5790   30.9480   44.9690 N   0  0  0  0  0  0  0  0  0  0  0  0
   56.3690   30.8540   44.1210 C   0  0  0  0  0  0  0  0  0  0  0  0
   58.1320   29.8030   45.5120 C   0  0  0  0  0  0  0  0  0  0  0  0
   57.7860   28.5190   45.0240 C   0  0  0  0  0  0  0  0  0  0  0  0
   58.2470   27.3630   45.6460 C   0  0  0  0  0  0  0  0  0  0  0  0
   57.7440   25.6470   44.9710 Br  0  0  0  0  0  0  0  0  0  0  0  0
   59.0350   27.4550   46.7840 C   0  0  0  0  0  0  0  0  0  0  0  0
   59.4420   28.6980   47.2690 C   0  0  0  0  0  0  0  0  0  0  0  0
   60.3150   28.6540   48.9850 Br  0  0  0  0  0  0  0  0  0  0  0  0
   59.0800   29.8900   46.5730 C   0  0  0  0  0  0  0  0  0  0  0  0
   64.4151   33.6003   46.9024 H   0  0  0  0  0  0  0  0  0  0  0  0
   62.8688   33.0283   46.1895 H   0  0  0  0  0  0  0  0  0  0  0  0
   63.2639   34.7806   46.1895 H   0  0  0  0  0  0  0  0  0  0  0  0
   63.2067   34.7520   48.6995 H   0  0  0  0  0  0  0  0  0  0  0  0
   61.6261   34.3016   47.9443 H   0  0  0  0  0  0  0  0  0  0  0  0
   63.1609   33.8113   50.6078 H   0  0  0  0  0  0  0  0  0  0  0  0
   63.0523   32.0312   50.8299 H   0  0  0  0  0  0  0  0  0  0  0  0
   65.4030   32.6712   50.8935 H   0  0  0  0  0  0  0  0  0  0  0  0
   65.0957   31.7950   49.3559 H   0  0  0  0  0  0  0  0  0  0  0  0
   65.2401   33.5854   49.3559 H   0  0  0  0  0  0  0  0  0  0  0  0
   64.0055   32.0420   47.3646 H   0  0  0  0  0  0  0  0  0  0  0  0
   63.6501   30.8586   48.6829 H   0  0  0  0  0  0  0  0  0  0  0  0
   62.1975   31.3841   46.1354 H   0  0  0  0  0  0  0  0  0  0  0  0
   62.2827   29.8944   47.1541 H   0  0  0  0  0  0  0  0  0  0  0  0
   60.7190   31.6570   48.6680 H   0  0  0  0  0  0  0  0  0  0  0  0
   60.4094   33.6839   47.3474 H   0  0  0  0  0  0  0  0  0  0  0  0
   59.6217   35.7055   46.1362 H   0  0  0  0  0  0  0  0  0  0  0  0
   57.9453   35.4938   44.3136 H   0  0  0  0  0  0  0  0  0  0  0  0
   56.9930   33.2747   43.7400 H   0  0  0  0  0  0  0  0  0  0  0  0
   55.4771   30.7847   44.7611 H   0  0  0  0  0  0  0  0  0  0  0  0
   56.2959   31.7492   43.4859 H   0  0  0  0  0  0  0  0  0  0  0  0
   56.4350   29.9583   43.4859 H   0  0  0  0  0  0  0  0  0  0  0  0
   57.1410   28.4343   44.1370 H   0  0  0  0  0  0  0  0  0  0  0  0
   59.3420   26.5385   47.3092 H   0  0  0  0  0  0  0  0  0  0  0  0
  1  2  1  0
  2  3  1  0
  3  4  1  0
  4  5  1  0
  3  6  1  0
  6  7  1  0
  7  8  1  0
  8  9  1  0
  9 10  2  0
 10 11  1  0
 11 12  2  0
 12 13  1  0
 13 14  2  0
 14 15  1  0
 15 16  2  0
 16 17  1  0
 16 18  1  0
 18 19  2  0
 19 20  1  0
 20 21  1  0
 20 22  2  0
 22 23  1  0
 23 24  1  0
 23 25  2  0
 25  9  1  0
 15 10  1  0
 25 18  1  0
  1 26  1  0
  1 27  1  0
  1 28  1  0
  2 29  1  0
  2 30  1  0
  4 31  1  0
  4 32  1  0
  5 33  1  0
  5 34  1  0
  5 35  1  0
  6 36  1  0
  6 37  1  0
  7 38  1  0
  7 39  1  0
  8 40  1  0
 11 41  1  0
 12 42  1  0
 13 43  1  0
 14 44  1  0
 17 45  1  0
 17 46  1  0
 17 47  1  0
 19 48  1  0
 22 49  1  0
M  CHG  1  16   1
M  END
>  <UniqueID>  (16) 
16

>  <SMILES>  (16) 
CCN(CC)CCNc1c2ccccc2[n+](C)c2cc(Br)cc(Br)c12

>  <Energy>  (16) 
82.18694552931926

>  <Genealogy>  (16) 
CCN(CC)CCNc1c2ccccc2[n+](C)c2cc(Br)cc(Br)c12 (3D coordinates assigned)
CCN(CC)CCNc1c2ccccc2[n+](C)c2cc(Br)cc(Br)c12 (optimized conformer: 82.18694552931926 kcal/mol)

>  <smiles>  (16) 
CCN(CC)CCNc1c2ccccc2[n+](C)c2cc(Br)cc(Br)c12

>  <score_type>  (16) 
oracle

>  <origin>  (16) 
adg

>  <m_score__min__energy>  (16) 
-6.1399999999999997

>  <m_primary>  (16) 
energy

$$$$
16:0
     RDKit          3D

 31 32  0  0  0  0  0  0  0  0999 V2000
   62.9790   34.1870   49.0410 C   0  0  0  0  0  0  0  0  0  0  0  0
   63.1380   33.5240   47.6690 C   0  0  0  0  0  0  0  0  0  0  0  0
   61.9950   32.6590   47.3240 N   0  0  0  0  0  0  0  0  0  0  0  0
   62.3090   31.2300   47.4910 C   0  0  0  0  0  0  0  0  0  0  0  0
   61.0230   30.3970   47.5640 C   0  0  0  0  0  0  0  0  0  0  0  0
   59.8750   31.2440   47.5880 O   0  0  0  0  0  0  0  0  0  0  0  0
   59.1470   31.6550   46.4600 C   0  0  0  0  0  0  0  0  0  0  0  0
   58.3400   30.7810   45.6870 C   0  0  0  0  0  0  0  0  0  0  0  0
   57.6320   31.2640   44.5630 C   0  0  0  0  0  0  0  0  0  0  0  0
   56.5560   30.0700   43.5330 Br  0  0  0  0  0  0  0  0  0  0  0  0
   57.7150   32.6200   44.1960 C   0  0  0  0  0  0  0  0  0  0  0  0
   58.5100   33.4530   44.9770 C   0  0  0  0  0  0  0  0  0  0  0  0
   58.7800   34.7970   44.8710 C   0  0  0  0  0  0  0  0  0  0  0  0
   59.6380   35.0660   45.9330 C   0  0  0  0  0  0  0  0  0  0  0  0
   59.8700   33.9660   46.6270 O   0  0  0  0  0  0  0  0  0  0  0  0
   59.1990   32.9910   46.0650 C   0  0  0  0  0  0  0  0  0  0  0  0
   63.1575   33.4425   49.8309 H   0  0  0  0  0  0  0  0  0  0  0  0
   63.7060   35.0067   49.1386 H   0  0  0  0  0  0  0  0  0  0  0  0
   61.9593   34.5878   49.1386 H   0  0  0  0  0  0  0  0  0  0  0  0
   63.2282   34.3106   46.9054 H   0  0  0  0  0  0  0  0  0  0  0  0
   64.0369   32.8911   47.7058 H   0  0  0  0  0  0  0  0  0  0  0  0
   61.6900   32.8460   46.3400 H   0  0  0  0  0  0  0  0  0  0  0  0
   61.2050   32.9060   47.9650 H   0  0  0  0  0  0  0  0  0  0  0  0
   62.9112   30.8903   46.6354 H   0  0  0  0  0  0  0  0  0  0  0  0
   62.8692   31.0983   48.4284 H   0  0  0  0  0  0  0  0  0  0  0  0
   60.9683   29.7392   46.6840 H   0  0  0  0  0  0  0  0  0  0  0  0
   61.0408   29.7986   48.4868 H   0  0  0  0  0  0  0  0  0  0  0  0
   58.2647   29.7192   45.9645 H   0  0  0  0  0  0  0  0  0  0  0  0
   57.1705   33.0077   43.3224 H   0  0  0  0  0  0  0  0  0  0  0  0
   58.4023   35.5019   44.1157 H   0  0  0  0  0  0  0  0  0  0  0  0
   60.0629   36.0544   46.1622 H   0  0  0  0  0  0  0  0  0  0  0  0
  1  2  1  0
  2  3  1  0
  3  4  1  0
  4  5  1  0
  5  6  1  0
  6  7  1  0
  7  8  2  0
  8  9  1  0
  9 10  1  0
  9 11  2  0
 11 12  1  0
 12 13  1  0
 13 14  2  0
 14 15  1  0
 15 16  1  0
 16  7  1  0
 16 12  2  0
  1 17  1  0
  1 18  1  0
  1 19  1  0
  2 20  1  0
  2 21  1  0
  3 22  1  0
  3 23  1  0
  4 24  1  0
  4 25  1  0
  5 26  1  0
  5 27  1  0
  8 28  1  0
 11 29  1  0
 13 30  1  0
 14 31  1  0
M  CHG  1   3   1
M  END
>  <UniqueID>  (17) 
17

>  <SMILES>  (17) 
CC[NH2+]CCOc1cc(Br)cc2ccoc12

>  <Energy>  (17) 
60.3111415431906

>  <Genealogy>  (17) 
CC[NH2+]CCOc1cc(Br)cc2ccoc12 (protonated)
CC[NH2+]CCOc1cc(Br)cc2ccoc12 (3D coordinates assigned)
CC[NH2+]CCOc1cc(Br)cc2ccoc12 (optimized conformer: 60.3111415431906 kcal/mol)

>  <smiles>  (17) 
CCNCCOc1cc(Br)cc2ccoc12

>  <score_type>  (17) 
oracle

>  <origin>  (17) 
adg

>  <m_score__min__energy>  (17) 
-3.5

>  <m_primary>  (17) 
energy

$$$$
17:0
     RDKit          3D

 48 50  0  0  0  0  0  0  0  0999 V2000
   60.4060   34.2020   48.6580 C   0  0  0  0  0  0  0  0  0  0  0  0
   59.8510   32.9950   48.0070 N   0  0  0  0  0  0  0  0  0  0  0  0
   60.0560   31.7450   48.5640 C   0  0  0  0  0  0  0  0  0  0  0  0
   59.3430   30.6220   48.0670 C   0  0  0  0  0  0  0  0  0  0  0  0
   58.5030   30.7760   46.9510 C   0  0  0  0  0  0  0  0  0  0  0  0
   57.7130   29.6650   46.4920 N   0  0  0  0  0  0  0  0  0  0  0  0
   58.3210   28.3860   46.1170 C   0  0  0  0  0  0  0  0  0  0  0  0
   58.6210   28.3430   44.6180 C   0  0  0  0  0  0  0  0  0  0  0  0
   57.3730   28.1520   43.8690 N   0  0  0  0  0  0  0  0  0  0  0  0
   56.8710   29.4030   43.2790 C   0  0  0  0  0  0  0  0  0  0  0  0
   55.4520   29.7690   43.7520 C   0  0  0  0  0  0  0  0  0  0  0  0
   55.1740   29.2090   45.0070 O   0  0  0  0  0  0  0  0  0  0  0  0
   58.4700   32.0060   46.2720 C   0  0  0  0  0  0  0  0  0  0  0  0
   57.7990   32.1330   45.0360 C   0  0  0  0  0  0  0  0  0  0  0  0
   57.7750   33.3500   44.3610 C   0  0  0  0  0  0  0  0  0  0  0  0
   58.4370   34.4510   44.8890 C   0  0  0  0  0  0  0  0  0  0  0  0
   59.1290   34.3420   46.0940 C   0  0  0  0  0  0  0  0  0  0  0  0
   59.1580   33.1210   46.8160 C   0  0  0  0  0  0  0  0  0  0  0  0
   59.5410   29.2300   48.6490 C   0  0  0  0  0  0  0  0  0  0  0  0
   60.1930   29.2300   50.0280 C   0  0  0  0  0  0  0  0  0  0  0  0
   61.4150   30.1330   50.0140 C   0  0  0  0  0  0  0  0  0  0  0  0
   60.9860   31.5760   49.7610 C   0  0  0  0  0  0  0  0  0  0  0  0
   60.3529   34.0865   49.7506 H   0  0  0  0  0  0  0  0  0  0  0  0
   61.4549   34.3333   48.3537 H   0  0  0  0  0  0  0  0  0  0  0  0
   59.8229   35.0837   48.3537 H   0  0  0  0  0  0  0  0  0  0  0  0
   56.7010   29.8170   46.2840 H   0  0  0  0  0  0  0  0  0  0  0  0
   59.2594   28.2557   46.6760 H   0  0  0  0  0  0  0  0  0  0  0  0
   57.6151   27.5774   46.3575 H   0  0  0  0  0  0  0  0  0  0  0  0
   59.0901   29.2896   44.3117 H   0  0  0  0  0  0  0  0  0  0  0  0
   59.3041   27.5070   44.4070 H   0  0  0  0  0  0  0  0  0  0  0  0
   56.6470   27.7510   44.5080 H   0  0  0  0  0  0  0  0  0  0  0  0
   57.5538   30.2195   43.5568 H   0  0  0  0  0  0  0  0  0  0  0  0
   56.8252   29.2559   42.1898 H   0  0  0  0  0  0  0  0  0  0  0  0
   55.3684   30.8636   43.8214 H   0  0  0  0  0  0  0  0  0  0  0  0
   54.7294   29.3693   43.0252 H   0  0  0  0  0  0  0  0  0  0  0  0
   55.1600   28.2240   44.8830 H   0  0  0  0  0  0  0  0  0  0  0  0
   57.2895   31.2602   44.6017 H   0  0  0  0  0  0  0  0  0  0  0  0
   57.2315   33.4399   43.4089 H   0  0  0  0  0  0  0  0  0  0  0  0
   58.4151   35.4121   44.3544 H   0  0  0  0  0  0  0  0  0  0  0  0
   59.6620   35.2180   46.4922 H   0  0  0  0  0  0  0  0  0  0  0  0
   58.5575   28.7440   48.7297 H   0  0  0  0  0  0  0  0  0  0  0  0
   60.2203   28.6916   47.9718 H   0  0  0  0  0  0  0  0  0  0  0  0
   59.4732   29.5995   50.7733 H   0  0  0  0  0  0  0  0  0  0  0  0
   60.4986   28.2057   50.2876 H   0  0  0  0  0  0  0  0  0  0  0  0
   61.9280   30.0690   50.9849 H   0  0  0  0  0  0  0  0  0  0  0  0
   62.0971   29.8103   49.2136 H   0  0  0  0  0  0  0  0  0  0  0  0
   60.4665   31.9448   50.6577 H   0  0  0  0  0  0  0  0  0  0  0  0
   61.9001   32.1456   49.5373 H   0  0  0  0  0  0  0  0  0  0  0  0
  1  2  1  0
  2  3  2  0
  3  4  1  0
  4  5  2  0
  5  6  1  0
  6  7  1  0
  7  8  1  0
  8  9  1  0
  9 10  1  0
 10 11  1  0
 11 12  1  0
  5 13  1  0
 13 14  2  0
 14 15  1  0
 15 16  2  0
 16 17  1  0
 17 18  2  0
  4 19  1  0
 19 20  1  0
 20 21  1  0
 21 22  1  0
 18  2  1  0
 22  3  1  0
 18 13  1  0
  1 23  1  0
  1 24  1  0
  1 25  1  0
  6 26  1  0
  7 27  1  0
  7 28  1  0
  8 29  1  0
  8 30  1  0
  9 31  1  0
 10 32  1  0
 10 33  1  0
 11 34  1  0
 11 35  1  0
 12 36  1  0
 14 37  1  0
 15 38  1  0
 16 39  1  0
 17 40  1  0
 19 41  1  0
 19 42  1  0
 20 43  1  0
 20 44  1  0
 21 45  1  0
 21 46  1  0
 22 47  1  0
 22 48  1  0
M  CHG  1   2   1
M  END
>  <UniqueID>  (18) 
18

>  <SMILES>  (18) 
C[n+]1c2c(c(NCCNCCO)c3ccccc31)CCCC2

>  <Energy>  (18) 
65.55833403879907

>  <Genealogy>  (18) 
C[n+]1c2c(c(NCCNCCO)c3ccccc31)CCCC2 (3D coordinates assigned)
C[n+]1c2c(c(NCCNCCO)c3ccccc31)CCCC2 (nonaromatic ring conformer: 65.55833403879907 kcal/mol)

>  <smiles>  (18) 
C[n+]1c2c(c(NCCNCCO)c3ccccc31)CCCC2

>  <score_type>  (18) 
oracle

>  <origin>  (18) 
adg

>  <m_score__min__energy>  (18) 
-6.6500000000000004

>  <m_primary>  (18) 
energy

$$$$
18:0
     RDKit          3D

 38 39  0  0  0  0  0  0  0  0999 V2000
   63.7660   33.0990   47.4340 C   0  0  0  0  0  0  0  0  0  0  0  0
   62.2760   33.1240   47.1060 C   0  0  0  0  0  0  0  0  0  0  0  0
   61.5900   32.0060   47.7700 N   0  0  0  0  0  0  0  0  0  0  0  0
   60.4540   32.4460   48.5960 C   0  0  0  0  0  0  0  0  0  0  0  0
   59.8850   33.7960   48.1290 C   0  0  0  0  0  0  0  0  0  0  0  0
   59.1000   33.6240   46.8610 C   0  0  0  0  0  0  0  0  0  0  0  0
   58.6230   32.3620   46.4790 C   0  0  0  0  0  0  0  0  0  0  0  0
   57.9280   32.2170   45.2680 C   0  0  0  0  0  0  0  0  0  0  0  0
   57.4160   30.9340   44.8620 N   0  0  0  0  0  0  0  0  0  0  0  0
   57.7040   29.7420   45.6710 C   0  0  0  0  0  0  0  0  0  0  0  0
   56.8340   28.5690   45.2190 C   0  0  0  0  0  0  0  0  0  0  0  0
   55.5460   29.0410   44.8890 O   0  0  0  0  0  0  0  0  0  0  0  0
   55.5850   29.7460   43.6590 C   0  0  0  0  0  0  0  0  0  0  0  0
   56.7310   30.7820   43.5710 C   0  0  0  0  0  0  0  0  0  0  0  0
   57.7230   33.3490   44.4640 C   0  0  0  0  0  0  0  0  0  0  0  0
   58.2220   34.5860   44.8720 C   0  0  0  0  0  0  0  0  0  0  0  0
   58.8970   34.6960   46.0460 N   0  0  0  0  0  0  0  0  0  0  0  0
   63.9011   33.0967   48.5257 H   0  0  0  0  0  0  0  0  0  0  0  0
   64.2204   32.1931   47.0064 H   0  0  0  0  0  0  0  0  0  0  0  0
   64.2506   33.9891   47.0064 H   0  0  0  0  0  0  0  0  0  0  0  0
   61.8434   34.0736   47.4540 H   0  0  0  0  0  0  0  0  0  0  0  0
   62.1469   33.0283   46.0178 H   0  0  0  0  0  0  0  0  0  0  0  0
   62.2770   31.4850   48.3650 H   0  0  0  0  0  0  0  0  0  0  0  0
   59.6593   31.6876   48.5384 H   0  0  0  0  0  0  0  0  0  0  0  0
   60.8147   32.5702   49.6277 H   0  0  0  0  0  0  0  0  0  0  0  0
   59.2259   34.2012   48.9109 H   0  0  0  0  0  0  0  0  0  0  0  0
   60.7190   34.4881   47.9406 H   0  0  0  0  0  0  0  0  0  0  0  0
   58.7928   31.4887   47.1260 H   0  0  0  0  0  0  0  0  0  0  0  0
   58.7642   29.4728   45.5553 H   0  0  0  0  0  0  0  0  0  0  0  0
   57.4838   29.9644   46.7255 H   0  0  0  0  0  0  0  0  0  0  0  0
   57.2880   28.0939   44.3369 H   0  0  0  0  0  0  0  0  0  0  0  0
   56.7583   27.8326   46.0326 H   0  0  0  0  0  0  0  0  0  0  0  0
   55.7127   29.0172   42.8451 H   0  0  0  0  0  0  0  0  0  0  0  0
   54.6406   30.3043   43.5788 H   0  0  0  0  0  0  0  0  0  0  0  0
   57.4587   30.4477   42.8168 H   0  0  0  0  0  0  0  0  0  0  0  0
   56.2985   31.7541   43.2918 H   0  0  0  0  0  0  0  0  0  0  0  0
   57.1713   33.2611   43.5164 H   0  0  0  0  0  0  0  0  0  0  0  0
   58.0687   35.4745   44.2418 H   0  0  0  0  0  0  0  0  0  0  0  0
  1  2  1  0
  2  3  1  0
  3  4  1  0
  4  5  1  0
  5  6  1  0
  6  7  2  0
  7  8  1  0
  8  9  1  0
  9 10  1  0
 10 11  1  0
 11 12  1  0
 12 13  1  0
 13 14  1  0
  8 15  2  0
 15 16  1  0
 16 17  2  0
 17  6  1  0
 14  9  1  0
  1 18  1  0
  1 19  1  0
  1 20  1  0
  2 21  1  0
  2 22  1  0
  3 23  1  0
  4 24  1  0
  4 25  1  0
  5 26  1  0
  5 27  1  0
  7 28  1  0
 10 29  1  0
 10 30  1  0
 11 31  1  0
 11 32  1  0
 13 33  1  0
 13 34  1  0
 14 35  1  0
 14 36  1  0
 15 37  1  0
 16 38  1  0
M  END
>  <UniqueID>  (19) 
19

>  <SMILES>  (19) 
CCNCCc1cc(N2CCOCC2)ccn1

>  <Energy>  (19) 
44.212857358755834

>  <Genealogy>  (19) 
CCNCCc1cc(N2CCOCC2)ccn1 (3D coordinates assigned)
CCNCCc1cc(N2CCOCC2)ccn1 (nonaromatic ring conformer: 44.212857358755834 kcal/mol)

>  <smiles>  (19) 
CCNCCc1cc(N2CCOCC2)ccn1

>  <score_type>  (19) 
oracle

>  <origin>  (19) 
adg

>  <m_score__min__energy>  (19) 
-6.6600000000000001

>  <m_primary>  (19) 
energy

$$$$
19:0
     RDKit          3D

 43 44  0  0  0  0  0  0  0  0999 V2000
   63.3880   33.3950   46.8130 C   0  0  0  0  0  0  0  0  0  0  0  0
   63.3360   32.0510   47.5450 C   0  0  0  0  0  0  0  0  0  0  0  0
   62.1100   31.8890   48.3720 N   0  0  0  0  0  0  0  0  0  0  0  0
   61.4620   30.5560   48.1840 C   0  0  0  0  0  0  0  0  0  0  0  0
   60.9740   30.3400   46.7450 C   0  0  0  0  0  0  0  0  0  0  0  0
   62.3800   32.1860   49.8080 C   0  0  0  0  0  0  0  0  0  0  0  0
   62.0340   33.6200   50.2680 C   0  0  0  0  0  0  0  0  0  0  0  0
   61.4360   34.3980   49.1780 N   0  0  0  0  0  0  0  0  0  0  0  0
   59.9800   34.2260   49.1440 C   0  0  0  0  0  0  0  0  0  0  0  0
   59.5340   34.0400   47.7210 C   0  0  0  0  0  0  0  0  0  0  0  0
   59.8220   35.0110   46.7470 C   0  0  0  0  0  0  0  0  0  0  0  0
   59.4340   34.8160   45.4190 C   0  0  0  0  0  0  0  0  0  0  0  0
   58.7650   33.6440   45.0470 C   0  0  0  0  0  0  0  0  0  0  0  0
   58.3940   33.4500   43.7540 N   0  0  0  0  0  0  0  0  0  0  0  0
   57.7470   32.3210   43.3570 C   0  0  0  0  0  0  0  0  0  0  0  0
   57.4480   31.3190   44.2860 C   0  0  0  0  0  0  0  0  0  0  0  0
   56.5460   29.7300   43.7300 Br  0  0  0  0  0  0  0  0  0  0  0  0
   57.8160   31.4900   45.6230 C   0  0  0  0  0  0  0  0  0  0  0  0
   58.4790   32.6590   46.0180 C   0  0  0  0  0  0  0  0  0  0  0  0
   58.8670   32.8610   47.3500 C   0  0  0  0  0  0  0  0  0  0  0  0
   63.4196   34.2122   47.5487 H   0  0  0  0  0  0  0  0  0  0  0  0
   64.2883   33.4344   46.1823 H   0  0  0  0  0  0  0  0  0  0  0  0
   62.4934   33.5039   46.1823 H   0  0  0  0  0  0  0  0  0  0  0  0
   63.3651   31.2435   46.7986 H   0  0  0  0  0  0  0  0  0  0  0  0
   64.2001   32.0117   48.2246 H   0  0  0  0  0  0  0  0  0  0  0  0
   61.4390   32.6360   48.0700 H   0  0  0  0  0  0  0  0  0  0  0  0
   62.1915   29.7707   48.4312 H   0  0  0  0  0  0  0  0  0  0  0  0
   60.5842   30.5137   48.8456 H   0  0  0  0  0  0  0  0  0  0  0  0
   59.9682   29.8948   46.7618 H   0  0  0  0  0  0  0  0  0  0  0  0
   60.9385   31.3065   46.2209 H   0  0  0  0  0  0  0  0  0  0  0  0
   61.6655   29.6639   46.2209 H   0  0  0  0  0  0  0  0  0  0  0  0
   61.7905   31.4838   50.4158 H   0  0  0  0  0  0  0  0  0  0  0  0
   63.4672   32.0815   49.9384 H   0  0  0  0  0  0  0  0  0  0  0  0
   61.3206   33.5662   51.1035 H   0  0  0  0  0  0  0  0  0  0  0  0
   62.9631   34.1183   50.5820 H   0  0  0  0  0  0  0  0  0  0  0  0
   61.6400   35.4110   49.3570 H   0  0  0  0  0  0  0  0  0  0  0  0
   59.7008   33.3413   49.7350 H   0  0  0  0  0  0  0  0  0  0  0  0
   59.4941   35.1169   49.5686 H   0  0  0  0  0  0  0  0  0  0  0  0
   60.3559   35.9297   47.0316 H   0  0  0  0  0  0  0  0  0  0  0  0
   59.6547   35.5851   44.6642 H   0  0  0  0  0  0  0  0  0  0  0  0
   57.4583   32.1959   42.3030 H   0  0  0  0  0  0  0  0  0  0  0  0
   57.5859   30.7093   46.3629 H   0  0  0  0  0  0  0  0  0  0  0  0
   58.6483   32.0935   48.1071 H   0  0  0  0  0  0  0  0  0  0  0  0
  1  2  1  0
  2  3  1  0
  3  4  1  0
  4  5  1  0
  3  6  1  0
  6  7  1  0
  7  8  1  0
  8  9  1  0
  9 10  1  0
 10 11  2  0
 11 12  1  0
 12 13  2  0
 13 14  1  0
 14 15  2  0
 15 16  1  0
 16 17  1  0
 16 18  2  0
 18 19  1  0
 19 20  2  0
 20 10  1  0
 19 13  1  0
  1 21  1  0
  1 22  1  0
  1 23  1  0
  2 24  1  0
  2 25  1  0
  3 26  1  0
  4 27  1  0
  4 28  1  0
  5 29  1  0
  5 30  1  0
  5 31  1  0
  6 32  1  0
  6 33  1  0
  7 34  1  0
  7 35  1  0
  8 36  1  0
  9 37  1  0
  9 38  1  0
 11 39  1  0
 12 40  1  0
 15 41  1  0
 18 42  1  0
 20 43  1  0
M  CHG  1   3   1
M  END
>  <UniqueID>  (20) 
20

>  <SMILES>  (20) 
CC[NH+](CC)CCNCc1ccc2ncc(Br)cc2c1

>  <Energy>  (20) 
47.526183644478586

>  <Genealogy>  (20) 
CC[NH+](CC)CCNCc1ccc2ncc(Br)cc2c1 (protonated)
CC[NH+](CC)CCNCc1ccc2ncc(Br)cc2c1 (3D coordinates assigned)
CC[NH+](CC)CCNCc1ccc2ncc(Br)cc2c1 (optimized conformer: 47.526183644478586 kcal/mol)

>  <smiles>  (20) 
CCN(CC)CCNCc1ccc2ncc(Br)cc2c1

>  <score_type>  (20) 
oracle

>  <origin>  (20) 
adg

>  <m_score__min__energy>  (20) 
-5.9900000000000002

>  <m_primary>  (20) 
energy

$$$$
20:0
     RDKit          3D

 40 42  0  0  0  0  0  0  0  0999 V2000
   57.7670   26.1700   42.8610 C   0  0  0  0  0  0  0  0  0  0  0  0
   57.5120   24.9710   43.7800 C   0  0  0  0  0  0  0  0  0  0  0  0
   58.2780   25.0360   45.0360 N   0  0  0  0  0  0  0  0  0  0  0  0
   57.5620   24.5080   46.2100 C   0  0  0  0  0  0  0  0  0  0  0  0
   56.3730   25.4000   46.6090 C   0  0  0  0  0  0  0  0  0  0  0  0
   56.2290   26.5520   45.7150 N   0  0  0  0  0  0  0  0  0  0  0  0
   57.0680   27.7120   45.8470 C   0  0  0  0  0  0  0  0  0  0  0  0
   58.3020   27.5930   46.4060 N   0  0  0  0  0  0  0  0  0  0  0  0
   59.1150   28.6380   46.5500 N   0  0  0  0  0  0  0  0  0  0  0  0
   60.3500   28.4410   47.1250 O   0  0  0  0  0  0  0  0  0  0  0  0
   58.7280   29.8780   46.1350 C   0  0  0  0  0  0  0  0  0  0  0  0
   59.5730   30.9990   46.2780 C   0  0  0  0  0  0  0  0  0  0  0  0
   59.1230   32.2430   45.8360 C   0  0  0  0  0  0  0  0  0  0  0  0
   57.8860   32.3920   45.2700 C   0  0  0  0  0  0  0  0  0  0  0  0
   57.0240   31.3040   45.1140 C   0  0  0  0  0  0  0  0  0  0  0  0
   57.4450   30.0290   45.5490 C   0  0  0  0  0  0  0  0  0  0  0  0
   56.6390   28.9340   45.4180 N   0  0  0  0  0  0  0  0  0  0  0  0
   55.3880   29.0600   44.8540 O   0  0  0  0  0  0  0  0  0  0  0  0
   57.6160   33.7930   44.8760 C   0  0  0  0  0  0  0  0  0  0  0  0
   58.8970   34.5490   45.2800 C   0  0  0  0  0  0  0  0  0  0  0  0
   59.8640   33.5230   45.9030 C   0  0  0  0  0  0  0  0  0  0  0  0
   57.9574   27.0654   43.4708 H   0  0  0  0  0  0  0  0  0  0  0  0
   58.6418   25.9659   42.2262 H   0  0  0  0  0  0  0  0  0  0  0  0
   56.8848   26.3395   42.2262 H   0  0  0  0  0  0  0  0  0  0  0  0
   56.4400   24.9384   44.0244 H   0  0  0  0  0  0  0  0  0  0  0  0
   57.8380   24.0686   43.2419 H   0  0  0  0  0  0  0  0  0  0  0  0
   58.5350   26.0330   45.2240 H   0  0  0  0  0  0  0  0  0  0  0  0
   57.1872   23.5011   45.9742 H   0  0  0  0  0  0  0  0  0  0  0  0
   58.2663   24.4826   47.0546 H   0  0  0  0  0  0  0  0  0  0  0  0
   55.4508   24.8018   46.5693 H   0  0  0  0  0  0  0  0  0  0  0  0
   56.5572   25.7785   47.6253 H   0  0  0  0  0  0  0  0  0  0  0  0
   55.5140   26.5280   44.9550 H   0  0  0  0  0  0  0  0  0  0  0  0
   60.5700   30.8935   46.7305 H   0  0  0  0  0  0  0  0  0  0  0  0
   56.0317   31.4389   44.6588 H   0  0  0  0  0  0  0  0  0  0  0  0
   57.4435   33.8678   43.7922 H   0  0  0  0  0  0  0  0  0  0  0  0
   56.7148   34.2012   45.3568 H   0  0  0  0  0  0  0  0  0  0  0  0
   59.3574   35.0084   44.3929 H   0  0  0  0  0  0  0  0  0  0  0  0
   58.6645   35.3483   45.9991 H   0  0  0  0  0  0  0  0  0  0  0  0
   60.7977   33.4647   45.3243 H   0  0  0  0  0  0  0  0  0  0  0  0
   60.1576   33.7881   46.9294 H   0  0  0  0  0  0  0  0  0  0  0  0
  1  2  1  0
  2  3  1  0
  3  4  1  0
  4  5  1  0
  5  6  1  0
  6  7  1  0
  7  8  2  0
  8  9  1  0
  9 10  1  0
  9 11  2  0
 11 12  1  0
 12 13  2  0
 13 14  1  0
 14 15  2  0
 15 16  1  0
 16 17  2  0
 17 18  1  0
 14 19  1  0
 19 20  1  0
 20 21  1  0
 17  7  1  0
 16 11  1  0
 21 13  1  0
  1 22  1  0
  1 23  1  0
  1 24  1  0
  2 25  1  0
  2 26  1  0
  3 27  1  0
  4 28  1  0
  4 29  1  0
  5 30  1  0
  5 31  1  0
  6 32  1  0
 12 33  1  0
 15 34  1  0
 19 35  1  0
 19 36  1  0
 20 37  1  0
 20 38  1  0
 21 39  1  0
 21 40  1  0
M  CHG  4   9   1  10  -1  17   1  18  -1
M  END
>  <UniqueID>  (21) 
21

>  <SMILES>  (21) 
CCNCCNc1n[n+]([O-])c2cc3c(cc2[n+]1[O-])CCC3

>  <Energy>  (21) 
51.901460482324175

>  <Genealogy>  (21) 
CCNCCNc1n[n+]([O-])c2cc3c(cc2[n+]1[O-])CCC3 (3D coordinates assigned)
CCNCCNc1n[n+]([O-])c2cc3c(cc2[n+]1[O-])CCC3 (nonaromatic ring conformer: 51.901460482324175 kcal/mol)

>  <smiles>  (21) 
CCNCCNc1n[n+]([O-])c2cc3c(cc2[n+]1[O-])CCC3

>  <score_type>  (21) 
oracle

>  <origin>  (21) 
adg

>  <m_score__min__energy>  (21) 
-7.1500000000000004

>  <m_primary>  (21) 
energy

$$$$
21:0
     RDKit          3D

 40 42  0  0  0  0  0  0  0  0999 V2000
   54.7700   29.7230   43.8860 O   0  0  0  0  0  0  0  0  0  0  0  0
   55.9160   29.4930   44.3520 C   0  0  0  0  0  0  0  0  0  0  0  0
   57.0030   30.2850   43.9680 C   0  0  0  0  0  0  0  0  0  0  0  0
   58.2650   30.0180   44.4990 C   0  0  0  0  0  0  0  0  0  0  0  0
   58.4350   28.9550   45.3970 C   0  0  0  0  0  0  0  0  0  0  0  0
   57.3180   28.1830   45.7570 C   0  0  0  0  0  0  0  0  0  0  0  0
   56.0950   28.4770   45.2370 N   0  0  0  0  0  0  0  0  0  0  0  0
   57.4480   27.1100   46.8010 C   0  0  0  0  0  0  0  0  0  0  0  0
   58.8050   26.3700   46.7740 C   0  0  0  0  0  0  0  0  0  0  0  0
   59.9460   27.1010   46.0300 C   0  0  0  0  0  0  0  0  0  0  0  0
   59.7880   28.6400   45.9930 C   0  0  2  0  0  0  0  0  0  0  0  0
   59.9350   29.2600   47.3380 N   0  0  0  0  0  0  0  0  0  0  0  0
   58.9930   30.3700   47.5750 C   0  0  0  0  0  0  0  0  0  0  0  0
   59.5710   31.7070   47.1780 C   0  0  0  0  0  0  0  0  0  0  0  0
   58.7470   32.6820   46.5930 C   0  0  0  0  0  0  0  0  0  0  0  0
   59.2810   33.9050   46.1880 C   0  0  0  0  0  0  0  0  0  0  0  0
   60.6410   34.1710   46.3610 C   0  0  0  0  0  0  0  0  0  0  0  0
   61.4850   33.2110   46.9480 C   0  0  0  0  0  0  0  0  0  0  0  0
   62.9590   33.4770   47.1370 C   0  0  0  0  0  0  0  0  0  0  0  0
   63.1550   34.1620   48.3230 F   0  0  0  0  0  0  0  0  0  0  0  0
   63.4290   34.2480   46.0890 F   0  0  0  0  0  0  0  0  0  0  0  0
   63.6920   32.3040   47.1810 F   0  0  0  0  0  0  0  0  0  0  0  0
   60.9410   31.9780   47.3560 C   0  0  0  0  0  0  0  0  0  0  0  0
   61.7450   31.0390   47.9230 F   0  0  0  0  0  0  0  0  0  0  0  0
   56.8641   31.1104   43.2542 H   0  0  0  0  0  0  0  0  0  0  0  0
   59.1256   30.6407   44.2135 H   0  0  0  0  0  0  0  0  0  0  0  0
   57.3261   27.5736   47.7910 H   0  0  0  0  0  0  0  0  0  0  0  0
   56.6717   26.3607   46.5867 H   0  0  0  0  0  0  0  0  0  0  0  0
   59.1255   26.2115   47.8143 H   0  0  0  0  0  0  0  0  0  0  0  0
   58.6299   25.4375   46.2175 H   0  0  0  0  0  0  0  0  0  0  0  0
   60.8951   26.8626   46.5324 H   0  0  0  0  0  0  0  0  0  0  0  0
   59.9202   26.7530   44.9868 H   0  0  0  0  0  0  0  0  0  0  0  0
   60.5916   29.0678   45.3756 H   0  0  0  0  0  0  0  0  0  0  0  0
   60.9140   29.5900   47.5030 H   0  0  0  0  0  0  0  0  0  0  0  0
   59.7380   28.5460   48.0800 H   0  0  0  0  0  0  0  0  0  0  0  0
   58.0803   30.1908   46.9877 H   0  0  0  0  0  0  0  0  0  0  0  0
   58.7771   30.4036   48.6531 H   0  0  0  0  0  0  0  0  0  0  0  0
   57.6747   32.4801   46.4535 H   0  0  0  0  0  0  0  0  0  0  0  0
   58.6284   34.6631   45.7305 H   0  0  0  0  0  0  0  0  0  0  0  0
   61.0547   35.1371   46.0362 H   0  0  0  0  0  0  0  0  0  0  0  0
  1  2  2  0
  2  3  1  0
  3  4  2  0
  4  5  1  0
  5  6  2  0
  6  7  1  0
  6  8  1  0
  8  9  1  0
  9 10  1  0
 10 11  1  0
 11 12  1  0
 12 13  1  0
 13 14  1  0
 14 15  2  0
 15 16  1  0
 16 17  2  0
 17 18  1  0
 18 19  1  0
 19 20  1  0
 19 21  1  0
 19 22  1  0
 18 23  2  0
 23 24  1  0
  7  2  1  0
 23 14  1  0
 11  5  1  0
  3 25  1  0
  4 26  1  0
  8 27  1  0
  8 28  1  0
  9 29  1  0
  9 30  1  0
 10 31  1  0
 10 32  1  0
 11 33  1  6
 12 34  1  0
 12 35  1  0
 13 36  1  0
 13 37  1  0
 15 38  1  0
 16 39  1  0
 17 40  1  0
M  CHG  2   7  -1  12   1
M  END
>  <UniqueID>  (22) 
22

>  <SMILES>  (22) 
O=c1ccc2c([n-]1)CCC[C@@H]2[NH2+]Cc1cccc(C(F)(F)F)c1F

>  <Energy>  (22) 
51.59475166909819

>  <Genealogy>  (22) 
O=c1ccc2c([n-]1)CCCC2[NH2+]Cc1cccc(C(F)(F)F)c1F (protonated)
O=c1ccc2c([n-]1)CCC[C@@H]2[NH2+]Cc1cccc(C(F)(F)F)c1F (chirality)
O=c1ccc2c([n-]1)CCC[C@@H]2[NH2+]Cc1cccc(C(F)(F)F)c1F (3D coordinates assigned)
O=c1ccc2c([n-]1)CCC[C@@H]2[NH2+]Cc1cccc(C(F)(F)F)c1F (nonaromatic ring conformer: 51.59475166909819 kcal/mol)

>  <smiles>  (22) 
O=c1ccc2c([nH]1)CCCC2NCc1cccc(C(F)(F)F)c1F

>  <score_type>  (22) 
oracle

>  <origin>  (22) 
adg

>  <m_score__min__energy>  (22) 
-7.6200000000000001

>  <m_primary>  (22) 
energy

$$$$
22:0
     RDKit          3D

 72 75  0  0  0  0  0  0  0  0999 V2000
   57.3260   24.7690   46.4440 C   0  0  0  0  0  0  0  0  0  0  0  0
   56.3150   25.9080   46.3380 C   0  0  0  0  0  0  0  0  0  0  0  0
   56.9610   27.1020   45.7820 N   0  0  0  0  0  0  0  0  0  0  0  0
   58.4160   26.9210   45.7240 C   0  0  0  0  0  0  0  0  0  0  0  0
   59.1260   28.1650   46.2660 C   0  0  0  0  0  0  0  0  0  0  0  0
   58.1490   29.1420   46.7420 N   0  0  0  0  0  0  0  0  0  0  0  0
   58.1680   30.5000   46.2680 C   0  0  0  0  0  0  0  0  0  0  0  0
   57.7920   30.7890   44.9430 C   0  0  0  0  0  0  0  0  0  0  0  0
   57.3470   29.7600   44.0820 C   0  0  0  0  0  0  0  0  0  0  0  0
   57.0290   30.0300   42.7530 C   0  0  0  0  0  0  0  0  0  0  0  0
   57.1670   31.3210   42.2540 C   0  0  0  0  0  0  0  0  0  0  0  0
   57.5970   32.3550   43.0850 C   0  0  0  0  0  0  0  0  0  0  0  0
   57.8840   32.1260   44.4620 C   0  0  0  0  0  0  0  0  0  0  0  0
   58.2580   33.1550   45.3180 N   0  0  0  0  0  0  0  0  0  0  0  0
   58.1190   34.5690   44.8990 C   0  0  0  0  0  0  0  0  0  0  0  0
   58.7100   32.8610   46.6000 C   0  0  0  0  0  0  0  0  0  0  0  0
   59.2770   33.8540   47.4510 C   0  0  0  0  0  0  0  0  0  0  0  0
   59.6170   33.5700   48.7770 C   0  0  0  0  0  0  0  0  0  0  0  0
   59.3930   32.2900   49.3030 C   0  0  0  0  0  0  0  0  0  0  0  0
   59.5680   31.9510   50.6490 O   0  0  0  0  0  0  0  0  0  0  0  0
   60.3570   32.5760   51.6530 C   0  0  0  0  0  0  0  0  0  0  0  0
   61.6780   31.7770   51.9030 C   0  0  0  0  0  0  0  0  0  0  0  0
   62.8000   31.9450   50.9000 N   0  0  0  0  0  0  0  0  0  0  0  0
   62.6730   30.9280   49.8110 C   0  0  0  0  0  0  0  0  0  0  0  0
   62.6610   33.3120   50.2760 C   0  0  0  0  0  0  0  0  0  0  0  0
   63.0480   33.4050   48.7730 C   0  0  0  0  0  0  0  0  0  0  0  0
   64.5290   33.0580   48.5310 C   0  0  0  0  0  0  0  0  0  0  0  0
   65.4000   33.1410   49.7960 C   0  0  0  0  0  0  0  0  0  0  0  0
   65.3830   31.8590   50.6450 C   0  0  0  0  0  0  0  0  0  0  0  0
   64.1430   31.7850   51.5780 C   0  0  0  0  0  0  0  0  0  0  0  0
   58.9190   31.2840   48.4580 C   0  0  0  0  0  0  0  0  0  0  0  0
   58.6110   31.5380   47.1060 C   0  0  0  0  0  0  0  0  0  0  0  0
   57.5210   24.5493   47.5040 H   0  0  0  0  0  0  0  0  0  0  0  0
   56.9210   23.8723   45.9522 H   0  0  0  0  0  0  0  0  0  0  0  0
   58.2644   25.0647   45.9522 H   0  0  0  0  0  0  0  0  0  0  0  0
   55.4884   25.6013   45.6802 H   0  0  0  0  0  0  0  0  0  0  0  0
   55.9271   26.1410   47.3406 H   0  0  0  0  0  0  0  0  0  0  0  0
   56.6200   27.2230   44.7990 H   0  0  0  0  0  0  0  0  0  0  0  0
   58.6980   26.0482   46.3312 H   0  0  0  0  0  0  0  0  0  0  0  0
   58.7166   26.7636   44.6776 H   0  0  0  0  0  0  0  0  0  0  0  0
   59.7826   27.8736   47.0990 H   0  0  0  0  0  0  0  0  0  0  0  0
   59.7192   28.6180   45.4579 H   0  0  0  0  0  0  0  0  0  0  0  0
   57.2990   28.7900   47.2420 H   0  0  0  0  0  0  0  0  0  0  0  0
   57.2507   28.7338   44.4661 H   0  0  0  0  0  0  0  0  0  0  0  0
   56.6689   29.2226   42.0984 H   0  0  0  0  0  0  0  0  0  0  0  0
   56.9358   31.5274   41.1986 H   0  0  0  0  0  0  0  0  0  0  0  0
   57.7169   33.3665   42.6698 H   0  0  0  0  0  0  0  0  0  0  0  0
   58.0559   35.2109   45.7900 H   0  0  0  0  0  0  0  0  0  0  0  0
   58.9928   34.8609   44.2979 H   0  0  0  0  0  0  0  0  0  0  0  0
   57.2051   34.6852   44.2979 H   0  0  0  0  0  0  0  0  0  0  0  0
   59.4508   34.8657   47.0558 H   0  0  0  0  0  0  0  0  0  0  0  0
   60.0614   34.3529   49.4092 H   0  0  0  0  0  0  0  0  0  0  0  0
   60.6092   33.5966   51.3293 H   0  0  0  0  0  0  0  0  0  0  0  0
   59.7793   32.6013   52.5887 H   0  0  0  0  0  0  0  0  0  0  0  0
   62.0665   32.0829   52.8856 H   0  0  0  0  0  0  0  0  0  0  0  0
   61.3849   30.7200   51.8195 H   0  0  0  0  0  0  0  0  0  0  0  0
   62.5483   29.9292   50.2548 H   0  0  0  0  0  0  0  0  0  0  0  0
   61.7974   31.1646   49.1886 H   0  0  0  0  0  0  0  0  0  0  0  0
   63.5799   30.9420   49.1886 H   0  0  0  0  0  0  0  0  0  0  0  0
   61.6110   33.6246   50.3754 H   0  0  0  0  0  0  0  0  0  0  0  0
   63.3699   33.9612   50.8108 H   0  0  0  0  0  0  0  0  0  0  0  0
   62.4219   32.7036   48.2019 H   0  0  0  0  0  0  0  0  0  0  0  0
   62.8866   34.4429   48.4463 H   0  0  0  0  0  0  0  0  0  0  0  0
   64.5852   32.0322   48.1377 H   0  0  0  0  0  0  0  0  0  0  0  0
   64.9211   33.8023   47.8223 H   0  0  0  0  0  0  0  0  0  0  0  0
   66.4376   33.3411   49.4904 H   0  0  0  0  0  0  0  0  0  0  0  0
   64.9832   33.9449   50.4204 H   0  0  0  0  0  0  0  0  0  0  0  0
   65.3713   30.9892   49.9717 H   0  0  0  0  0  0  0  0  0  0  0  0
   66.2814   31.8643   51.2797 H   0  0  0  0  0  0  0  0  0  0  0  0
   64.1544   30.8052   52.0778 H   0  0  0  0  0  0  0  0  0  0  0  0
   64.2346   32.6385   52.2659 H   0  0  0  0  0  0  0  0  0  0  0  0
   58.7826   30.2682   48.8574 H   0  0  0  0  0  0  0  0  0  0  0  0
  1  2  1  0
  2  3  1  0
  3  4  1  0
  4  5  1  0
  5  6  1  0
  6  7  1  0
  7  8  2  0
  8  9  1  0
  9 10  2  0
 10 11  1  0
 11 12  2  0
 12 13  1  0
 13 14  2  0
 14 15  1  0
 14 16  1  0
 16 17  2  0
 17 18  1  0
 18 19  2  0
 19 20  1  0
 20 21  1  0
 21 22  1  0
 22 23  1  0
 23 24  1  0
 23 25  1  0
 25 26  1  0
 26 27  1  0
 27 28  1  0
 28 29  1  0
 29 30  1  0
 19 31  1  0
 31 32  2  0
 32  7  1  0
 13  8  1  0
 32 16  1  0
 30 23  1  0
  1 33  1  0
  1 34  1  0
  1 35  1  0
  2 36  1  0
  2 37  1  0
  3 38  1  0
  4 39  1  0
  4 40  1  0
  5 41  1  0
  5 42  1  0
  6 43  1  0
  9 44  1  0
 10 45  1  0
 11 46  1  0
 12 47  1  0
 15 48  1  0
 15 49  1  0
 15 50  1  0
 17 51  1  0
 18 52  1  0
 21 53  1  0
 21 54  1  0
 22 55  1  0
 22 56  1  0
 24 57  1  0
 24 58  1  0
 24 59  1  0
 25 60  1  0
 25 61  1  0
 26 62  1  0
 26 63  1  0
 27 64  1  0
 27 65  1  0
 28 66  1  0
 28 67  1  0
 29 68  1  0
 29 69  1  0
 30 70  1  0
 30 71  1  0
 31 72  1  0
M  CHG  2  14   1  23   1
M  END
>  <UniqueID>  (23) 
23

>  <SMILES>  (23) 
CCNCCNc1c2ccccc2[n+](C)c2ccc(OCC[N+]3(C)CCCCCC3)cc12

>  <Energy>  (23) 
121.62308010955716

>  <Genealogy>  (23) 
CCNCCNc1c2ccccc2[n+](C)c2ccc(OCC[N+]3(C)CCCCCC3)cc12 (3D coordinates assigned)
CCNCCNc1c2ccccc2[n+](C)c2ccc(OCC[N+]3(C)CCCCCC3)cc12 (nonaromatic ring conformer: 121.62308010955716 kcal/mol)

>  <smiles>  (23) 
CCNCCNc1c2ccccc2[n+](C)c2ccc(OCC[N+]3(C)CCCCCC3)cc12

>  <score_type>  (23) 
oracle

>  <origin>  (23) 
adg

>  <m_score__min__energy>  (23) 
-3.2000000000000002

>  <m_primary>  (23) 
energy

$$$$
23:0
     RDKit          3D

 43 46  0  0  0  0  0  0  0  0999 V2000
   58.1370   27.1780   43.0210 Cl  0  0  0  0  0  0  0  0  0  0  0  0
   58.4370   28.1550   44.4480 C   0  0  0  0  0  0  0  0  0  0  0  0
   57.5120   29.1270   44.8370 C   0  0  0  0  0  0  0  0  0  0  0  0
   57.7490   29.9060   45.9740 C   0  0  0  0  0  0  0  0  0  0  0  0
   58.9210   29.7250   46.7280 C   0  0  0  0  0  0  0  0  0  0  0  0
   59.1820   30.5440   47.9340 C   0  0  0  0  0  0  0  0  0  0  0  0
   59.6030   30.0570   49.1550 C   0  0  0  0  0  0  0  0  0  0  0  0
   59.7550   31.0970   49.9980 N   0  0  0  0  0  0  0  0  0  0  0  0
   59.4290   32.2070   49.2910 C   0  0  0  0  0  0  0  0  0  0  0  0
   59.0740   31.8910   48.0220 N   0  0  0  0  0  0  0  0  0  0  0  0
   58.8200   32.8070   46.9440 C   0  0  0  0  0  0  0  0  0  0  0  0
   57.5030   33.1180   46.5750 C   0  0  0  0  0  0  0  0  0  0  0  0
   57.2590   33.9890   45.5070 C   0  0  0  0  0  0  0  0  0  0  0  0
   58.3290   34.5490   44.8030 C   0  0  0  0  0  0  0  0  0  0  0  0
   59.6440   34.2360   45.1620 C   0  0  0  0  0  0  0  0  0  0  0  0
   59.8900   33.3670   46.2290 C   0  0  0  0  0  0  0  0  0  0  0  0
   59.5800   33.6330   49.7900 C   0  0  0  0  0  0  0  0  0  0  0  0
   59.8840   33.7980   51.2940 C   0  0  0  0  0  0  0  0  0  0  0  0
   58.9000   33.0440   52.2050 C   0  0  0  0  0  0  0  0  0  0  0  0
   59.2560   31.5560   52.3810 C   0  0  0  0  0  0  0  0  0  0  0  0
   60.2700   31.0140   51.3630 C   0  0  0  0  0  0  0  0  0  0  0  0
   59.8370   28.7320   46.3390 C   0  0  0  0  0  0  0  0  0  0  0  0
   59.5970   27.9550   45.2010 C   0  0  0  0  0  0  0  0  0  0  0  0
   56.5957   29.2799   44.2480 H   0  0  0  0  0  0  0  0  0  0  0  0
   57.0137   30.6648   46.2799 H   0  0  0  0  0  0  0  0  0  0  0  0
   59.7837   28.9996   49.3984 H   0  0  0  0  0  0  0  0  0  0  0  0
   56.6599   32.6763   47.1264 H   0  0  0  0  0  0  0  0  0  0  0  0
   56.2251   34.2329   45.2215 H   0  0  0  0  0  0  0  0  0  0  0  0
   58.1366   35.2364   43.9660 H   0  0  0  0  0  0  0  0  0  0  0  0
   60.4851   34.6738   44.6045 H   0  0  0  0  0  0  0  0  0  0  0  0
   60.9250   33.1214   46.5090 H   0  0  0  0  0  0  0  0  0  0  0  0
   60.4019   34.1004   49.2279 H   0  0  0  0  0  0  0  0  0  0  0  0
   58.5993   34.1060   49.6334 H   0  0  0  0  0  0  0  0  0  0  0  0
   60.8983   33.4190   51.4879 H   0  0  0  0  0  0  0  0  0  0  0  0
   59.7868   34.8683   51.5283 H   0  0  0  0  0  0  0  0  0  0  0  0
   58.9021   33.5236   53.1949 H   0  0  0  0  0  0  0  0  0  0  0  0
   57.9106   33.0894   51.7265 H   0  0  0  0  0  0  0  0  0  0  0  0
   59.6765   31.4211   53.3885 H   0  0  0  0  0  0  0  0  0  0  0  0
   58.3246   30.9928   52.2218 H   0  0  0  0  0  0  0  0  0  0  0  0
   61.1960   31.6037   51.4321 H   0  0  0  0  0  0  0  0  0  0  0  0
   60.4612   29.9561   51.5960 H   0  0  0  0  0  0  0  0  0  0  0  0
   60.7477   28.5651   46.9330 H   0  0  0  0  0  0  0  0  0  0  0  0
   60.3224   27.1854   44.8984 H   0  0  0  0  0  0  0  0  0  0  0  0
  1  2  1  0
  2  3  2  0
  3  4  1  0
  4  5  2  0
  5  6  1  0
  6  7  2  0
  7  8  1  0
  8  9  1  0
  9 10  2  0
 10 11  1  0
 11 12  2  0
 12 13  1  0
 13 14  2  0
 14 15  1  0
 15 16  2  0
  9 17  1  0
 17 18  1  0
 18 19  1  0
 19 20  1  0
 20 21  1  0
  5 22  1  0
 22 23  2  0
 23  2  1  0
 10  6  1  0
 16 11  1  0
 21  8  1  0
  3 24  1  0
  4 25  1  0
  7 26  1  0
 12 27  1  0
 13 28  1  0
 14 29  1  0
 15 30  1  0
 16 31  1  0
 17 32  1  0
 17 33  1  0
 18 34  1  0
 18 35  1  0
 19 36  1  0
 19 37  1  0
 20 38  1  0
 20 39  1  0
 21 40  1  0
 21 41  1  0
 22 42  1  0
 23 43  1  0
M  CHG  1  10   1
M  END
>  <UniqueID>  (24) 
24

>  <SMILES>  (24) 
Clc1ccc(-c2cn3c([n+]2-c2ccccc2)CCCCC3)cc1

>  <Energy>  (24) 
92.5491334765854

>  <Genealogy>  (24) 
Clc1ccc(-c2cn3c([n+]2-c2ccccc2)CCCCC3)cc1 (3D coordinates assigned)
Clc1ccc(-c2cn3c([n+]2-c2ccccc2)CCCCC3)cc1 (nonaromatic ring conformer: 92.5491334765854 kcal/mol)

>  <smiles>  (24) 
Clc1ccc(-c2cn3c([n+]2-c2ccccc2)CCCCC3)cc1

>  <score_type>  (24) 
oracle

>  <origin>  (24) 
adg

>  <m_score__min__energy>  (24) 
-4.6799999999999997

>  <m_primary>  (24) 
energy

$$$$
24:0
     RDKit          3D

 60 62  0  0  0  0  0  0  0  0999 V2000
   61.0638   26.6140   47.7611 H   0  0  0  0  0  0  0  0  0  0  0  0
   60.4170   27.2920   47.1850 C   0  0  0  0  0  0  0  0  0  0  0  0
   59.7950   26.8400   46.0270 C   0  0  0  0  0  0  0  0  0  0  0  0
   59.9602   25.8082   45.6833 H   0  0  0  0  0  0  0  0  0  0  0  0
   58.9630   27.6890   45.3000 C   0  0  0  0  0  0  0  0  0  0  0  0
   58.4729   27.3153   44.3889 H   0  0  0  0  0  0  0  0  0  0  0  0
   58.7370   29.0260   45.7140 C   0  0  0  0  0  0  0  0  0  0  0  0
   59.4050   29.4900   46.8870 C   0  0  0  0  0  0  0  0  0  0  0  0
   60.2230   28.6010   47.6170 C   0  0  0  0  0  0  0  0  0  0  0  0
   60.7134   28.9469   48.5389 H   0  0  0  0  0  0  0  0  0  0  0  0
   59.2160   30.8190   47.3250 C   0  0  0  0  0  0  0  0  0  0  0  0
   59.5710   31.1660   48.6680 N   0  0  0  0  0  0  0  0  0  0  0  0
   60.4890   31.6370   48.8370 H   0  0  0  0  0  0  0  0  0  0  0  0
   58.8200   30.5990   49.7900 C   0  0  0  0  0  0  0  0  0  0  0  0
   59.1290   29.5537   49.9382 H   0  0  0  0  0  0  0  0  0  0  0  0
   57.7464   30.6540   49.5567 H   0  0  0  0  0  0  0  0  0  0  0  0
   59.0810   31.3870   51.0800 C   0  0  0  0  0  0  0  0  0  0  0  0
   59.4684   30.7022   51.8488 H   0  0  0  0  0  0  0  0  0  0  0  0
   58.1361   31.8413   51.4129 H   0  0  0  0  0  0  0  0  0  0  0  0
   60.0700   32.4650   50.8470 N   0  0  0  0  0  0  0  0  0  0  0  0
   59.5120   33.8020   51.1830 C   0  0  0  0  0  0  0  0  0  0  0  0
   58.9904   34.2120   50.3056 H   0  0  0  0  0  0  0  0  0  0  0  0
   60.3306   34.4769   51.4734 H   0  0  0  0  0  0  0  0  0  0  0  0
   58.5300   33.6700   52.3410 C   0  0  0  0  0  0  0  0  0  0  0  0
   59.0747   33.7432   53.2938 H   0  0  0  0  0  0  0  0  0  0  0  0
   57.7836   34.4759   52.2825 H   0  0  0  0  0  0  0  0  0  0  0  0
   58.0229   32.6956   52.2825 H   0  0  0  0  0  0  0  0  0  0  0  0
   61.3190   32.1870   51.5920 C   0  0  0  0  0  0  0  0  0  0  0  0
   61.8916   33.1208   51.6928 H   0  0  0  0  0  0  0  0  0  0  0  0
   61.0517   31.7859   52.5808 H   0  0  0  0  0  0  0  0  0  0  0  0
   62.1790   31.1510   50.8670 C   0  0  0  0  0  0  0  0  0  0  0  0
   62.6993   30.5243   51.6063 H   0  0  0  0  0  0  0  0  0  0  0  0
   61.5371   30.5181   50.2366 H   0  0  0  0  0  0  0  0  0  0  0  0
   62.9192   31.6654   50.2366 H   0  0  0  0  0  0  0  0  0  0  0  0
   58.4610   31.6950   46.5240 C   0  0  0  0  0  0  0  0  0  0  0  0
   58.2250   33.0820   46.6880 C   0  0  0  0  0  0  0  0  0  0  0  0
   58.9090   34.0060   47.3000 N   0  0  0  0  0  0  0  0  0  0  0  0
   60.0550   34.7780   46.8360 C   0  0  0  0  0  0  0  0  0  0  0  0
   59.7893   35.3030   45.9066 H   0  0  0  0  0  0  0  0  0  0  0  0
   60.3364   35.5095   47.6079 H   0  0  0  0  0  0  0  0  0  0  0  0
   61.2380   33.8430   46.5710 C   0  0  0  0  0  0  0  0  0  0  0  0
   60.9463   33.1072   45.8071 H   0  0  0  0  0  0  0  0  0  0  0  0
   62.0864   34.4533   46.2280 H   0  0  0  0  0  0  0  0  0  0  0  0
   61.6540   33.1230   47.7960 N   0  0  0  0  0  0  0  0  0  0  0  0
   62.7450   32.1730   47.5120 C   0  0  0  0  0  0  0  0  0  0  0  0
   63.1670   31.8055   48.4590 H   0  0  0  0  0  0  0  0  0  0  0  0
   62.3512   31.3250   46.9325 H   0  0  0  0  0  0  0  0  0  0  0  0
   63.5308   32.6797   46.9325 H   0  0  0  0  0  0  0  0  0  0  0  0
   62.1000   34.0880   48.8130 C   0  0  0  0  0  0  0  0  0  0  0  0
   61.9104   33.6777   49.8159 H   0  0  0  0  0  0  0  0  0  0  0  0
   63.1768   34.2771   48.6918 H   0  0  0  0  0  0  0  0  0  0  0  0
   61.5463   35.0307   48.6918 H   0  0  0  0  0  0  0  0  0  0  0  0
   57.0520   33.4690   45.5790 S   0  0  0  0  0  0  0  0  0  0  0  0
   56.8560   32.0120   44.8160 N   0  0  0  0  0  0  0  0  0  0  0  0
   57.7190   31.1590   45.4340 C   0  0  0  0  0  0  0  0  0  0  0  0
   57.8640   29.8540   45.0360 N   0  0  0  0  0  0  0  0  0  0  0  0
   57.0990   29.3510   43.8770 C   0  0  0  0  0  0  0  0  0  0  0  0
   56.2291   28.7790   44.2321 H   0  0  0  0  0  0  0  0  0  0  0  0
   56.7556   30.2001   43.2678 H   0  0  0  0  0  0  0  0  0  0  0  0
   57.7425   28.6992   43.2678 H   0  0  0  0  0  0  0  0  0  0  0  0
  1  2  1  0
  2  3  2  0
  3  4  1  0
  3  5  1  0
  5  6  1  0
  5  7  2  0
  7  8  1  0
  8  9  2  0
  9 10  1  0
  8 11  1  0
 11 12  1  0
 12 13  1  0
 12 14  1  0
 14 15  1  0
 14 16  1  0
 14 17  1  0
 17 18  1  0
 17 19  1  0
 17 20  1  0
 20 21  1  0
 21 22  1  0
 21 23  1  0
 21 24  1  0
 24 25  1  0
 24 26  1  0
 24 27  1  0
 20 28  1  0
 28 29  1  0
 28 30  1  0
 28 31  1  0
 31 32  1  0
 31 33  1  0
 31 34  1  0
 11 35  2  0
 35 36  1  0
 36 37  2  0
 37 38  1  0
 38 39  1  0
 38 40  1  0
 38 41  1  0
 41 42  1  0
 41 43  1  0
 41 44  1  0
 44 45  1  0
 45 46  1  0
 45 47  1  0
 45 48  1  0
 44 49  1  0
 49 50  1  0
 49 51  1  0
 49 52  1  0
 36 53  1  0
 53 54  1  0
 54 55  1  0
 55 56  2  0
 56 57  1  0
 57 58  1  0
 57 59  1  0
 57 60  1  0
  9  2  1  0
 55 35  1  0
 56  7  1  0
M  CHG  2  54  -1  56   1
M  END
>  <UniqueID>  (25) 
25

>  <SMILES>  (25) 
CCN(CC)CCNc1c2ccccc2[n+](C)c2[n-]s/c(=N/CCN(C)C)c12

>  <Energy>  (25) 
124.05865501677671

>  <Genealogy>  (25) 
CCN(CC)CCNc1c2ccccc2[n+](C)c2[n-]sc(=NCCN(C)C)c12 (protonated)
CCN(CC)CCNc1c2ccccc2[n+](C)c2[n-]s/c(=N/CCN(C)C)c12 (cis-trans isomerization)
CCN(CC)CCNc1c2ccccc2[n+](C)c2[n-]s/c(=N/CCN(C)C)c12 (3D coordinates assigned)
CCN(CC)CCNc1c2ccccc2[n+](C)c2[n-]s/c(=N/CCN(C)C)c12 (optimized conformer: 124.05865501677671 kcal/mol)

>  <smiles>  (25) 
CCN(CC)CCNc1c2ccccc2[n+](C)c2[nH]sc(=NCCN(C)C)c12

>  <score_type>  (25) 
oracle

>  <origin>  (25) 
adg

>  <m_score__min__energy>  (25) 
-6.8300000000000001

>  <m_primary>  (25) 
energy

$$$$
25:0
     RDKit          3D

 58 61  0  0  0  0  0  0  0  0999 V2000
   55.8160   29.7150   43.9710 C   0  0  0  0  0  0  0  0  0  0  0  0
   56.9370   28.8850   44.6150 C   0  0  0  0  0  0  0  0  0  0  0  0
   58.0850   28.6010   43.7150 N   0  0  2  0  0  0  0  0  0  0  0  0
   57.8280   27.4130   42.8730 C   0  0  0  0  0  0  0  0  0  0  0  0
   59.3560   28.4770   44.4710 C   0  0  0  0  0  0  0  0  0  0  0  0
   59.1900   27.6530   45.7670 C   0  0  0  0  0  0  0  0  0  0  0  0
   59.8010   28.3550   46.9910 C   0  0  0  0  0  0  0  0  0  0  0  0
   58.8080   29.1740   47.6910 N   0  0  0  0  0  0  0  0  0  0  0  0
   59.1820   30.3280   48.4530 C   0  0  0  0  0  0  0  0  0  0  0  0
   59.6970   30.2080   49.7650 C   0  0  0  0  0  0  0  0  0  0  0  0
   60.0120   28.9450   50.2990 C   0  0  0  0  0  0  0  0  0  0  0  0
   60.5180   28.8270   51.5910 C   0  0  0  0  0  0  0  0  0  0  0  0
   60.7280   29.9610   52.3680 C   0  0  0  0  0  0  0  0  0  0  0  0
   60.4200   31.2260   51.8680 C   0  0  0  0  0  0  0  0  0  0  0  0
   59.8800   31.3850   50.5680 C   0  0  0  0  0  0  0  0  0  0  0  0
   59.5360   32.6340   50.0710 N   0  0  0  0  0  0  0  0  0  0  0  0
   59.6040   33.8380   50.9180 C   0  0  0  0  0  0  0  0  0  0  0  0
   59.1390   32.7250   48.7620 C   0  0  0  0  0  0  0  0  0  0  0  0
   58.8960   33.8660   48.0680 N   0  0  0  0  0  0  0  0  0  0  0  0
   58.5800   33.4590   46.8230 C   0  0  0  0  0  0  0  0  0  0  0  0
   58.2930   34.2700   45.7280 C   0  0  0  0  0  0  0  0  0  0  0  0
   58.0530   33.6530   44.4890 C   0  0  0  0  0  0  0  0  0  0  0  0
   58.1260   32.2380   44.3580 C   0  0  0  0  0  0  0  0  0  0  0  0
   57.9220   31.5900   43.1320 O   0  0  0  0  0  0  0  0  0  0  0  0
   57.7440   32.2600   41.8890 C   0  0  0  0  0  0  0  0  0  0  0  0
   58.4210   31.4490   45.4860 C   0  0  0  0  0  0  0  0  0  0  0  0
   58.6200   32.0870   46.7110 C   0  0  0  0  0  0  0  0  0  0  0  0
   58.9690   31.6140   47.9640 C   0  0  0  0  0  0  0  0  0  0  0  0
   55.1991   30.1718   44.7589 H   0  0  0  0  0  0  0  0  0  0  0  0
   56.2576   30.5056   43.3465 H   0  0  0  0  0  0  0  0  0  0  0  0
   55.1887   29.0619   43.3465 H   0  0  0  0  0  0  0  0  0  0  0  0
   57.3136   29.4355   45.4897 H   0  0  0  0  0  0  0  0  0  0  0  0
   56.4960   27.9122   44.8779 H   0  0  0  0  0  0  0  0  0  0  0  0
   58.1630   29.4270   43.0730 H   0  0  0  0  0  0  0  0  0  0  0  0
   57.6394   26.5412   43.5167 H   0  0  0  0  0  0  0  0  0  0  0  0
   56.9489   27.5969   42.2379 H   0  0  0  0  0  0  0  0  0  0  0  0
   58.7045   27.2171   42.2379 H   0  0  0  0  0  0  0  0  0  0  0  0
   60.1015   27.9827   43.8307 H   0  0  0  0  0  0  0  0  0  0  0  0
   59.6783   29.4896   44.7553 H   0  0  0  0  0  0  0  0  0  0  0  0
   58.1169   27.4947   45.9498 H   0  0  0  0  0  0  0  0  0  0  0  0
   59.7205   26.6994   45.6281 H   0  0  0  0  0  0  0  0  0  0  0  0
   60.1885   27.5933   47.6836 H   0  0  0  0  0  0  0  0  0  0  0  0
   60.6093   29.0148   46.6429 H   0  0  0  0  0  0  0  0  0  0  0  0
   57.7940   28.9720   47.5500 H   0  0  0  0  0  0  0  0  0  0  0  0
   59.8571   28.0421   49.6901 H   0  0  0  0  0  0  0  0  0  0  0  0
   60.7526   27.8326   51.9986 H   0  0  0  0  0  0  0  0  0  0  0  0
   61.1395   29.8597   53.3831 H   0  0  0  0  0  0  0  0  0  0  0  0
   60.5991   32.1137   52.4925 H   0  0  0  0  0  0  0  0  0  0  0  0
   59.5873   33.5424   51.9774 H   0  0  0  0  0  0  0  0  0  0  0  0
   60.5344   34.3845   50.7044 H   0  0  0  0  0  0  0  0  0  0  0  0
   58.7410   34.4858   50.7044 H   0  0  0  0  0  0  0  0  0  0  0  0
   58.9840   34.8580   48.3780 H   0  0  0  0  0  0  0  0  0  0  0  0
   58.2552   35.3646   45.8305 H   0  0  0  0  0  0  0  0  0  0  0  0
   57.8064   34.2694   43.6120 H   0  0  0  0  0  0  0  0  0  0  0  0
   57.4656   33.3080   42.0739 H   0  0  0  0  0  0  0  0  0  0  0  0
   58.6825   32.2255   41.3162 H   0  0  0  0  0  0  0  0  0  0  0  0
   56.9464   31.7643   41.3162 H   0  0  0  0  0  0  0  0  0  0  0  0
   58.4930   30.3545   45.4036 H   0  0  0  0  0  0  0  0  0  0  0  0
  1  2  1  0
  2  3  1  0
  3  4  1  0
  3  5  1  0
  5  6  1  0
  6  7  1  0
  7  8  1  0
  8  9  1  0
  9 10  2  0
 10 11  1  0
 11 12  2  0
 12 13  1  0
 13 14  2  0
 14 15  1  0
 15 16  2  0
 16 17  1  0
 16 18  1  0
 18 19  1  0
 19 20  1  0
 20 21  2  0
 21 22  1  0
 22 23  2  0
 23 24  1  0
 24 25  1  0
 23 26  1  0
 26 27  2  0
 27 28  1  0
 28  9  1  0
 15 10  1  0
 28 18  2  0
 27 20  1  0
  1 29  1  0
  1 30  1  0
  1 31  1  0
  2 32  1  0
  2 33  1  0
  3 34  1  6
  4 35  1  0
  4 36  1  0
  4 37  1  0
  5 38  1  0
  5 39  1  0
  6 40  1  0
  6 41  1  0
  7 42  1  0
  7 43  1  0
  8 44  1  0
 11 45  1  0
 12 46  1  0
 13 47  1  0
 14 48  1  0
 17 49  1  0
 17 50  1  0
 17 51  1  0
 19 52  1  0
 21 53  1  0
 22 54  1  0
 25 55  1  0
 25 56  1  0
 25 57  1  0
 26 58  1  0
M  CHG  2   3   1  16   1
M  END
>  <UniqueID>  (26) 
26

>  <SMILES>  (26) 
CC[N@H+](C)CCCNc1c2ccccc2[n+](C)c2[nH]c3ccc(OC)cc3c12

>  <Energy>  (26) 
115.22846974092062

>  <Genealogy>  (26) 
CC[NH+](C)CCCNc1c2ccccc2[n+](C)c2[nH]c3ccc(OC)cc3c12 (protonated)
CC[N@H+](C)CCCNc1c2ccccc2[n+](C)c2[nH]c3ccc(OC)cc3c12 (chirality)
CC[N@H+](C)CCCNc1c2ccccc2[n+](C)c2[nH]c3ccc(OC)cc3c12 (3D coordinates assigned)
CC[N@H+](C)CCCNc1c2ccccc2[n+](C)c2[nH]c3ccc(OC)cc3c12 (optimized conformer: 115.22846974092062 kcal/mol)

>  <smiles>  (26) 
CCN(C)CCCNc1c2ccccc2[n+](C)c2[nH]c3ccc(OC)cc3c12

>  <score_type>  (26) 
oracle

>  <origin>  (26) 
adg

>  <m_score__min__energy>  (26) 
-5.1799999999999997

>  <m_primary>  (26) 
energy

$$$$
26:0
     RDKit          3D

 48 50  0  0  0  0  0  0  0  0999 V2000
   56.9340   22.1790   43.5580 C   0  0  0  0  0  0  0  0  0  0  0  0
   56.4140   23.6060   43.4170 C   0  0  0  0  0  0  0  0  0  0  0  0
   55.2580   23.8130   44.2990 N   0  0  0  0  0  0  0  0  0  0  0  0
   55.5680   23.3420   45.6570 C   0  0  0  0  0  0  0  0  0  0  0  0
   56.2360   24.4510   46.4820 C   0  0  0  0  0  0  0  0  0  0  0  0
   55.9460   25.8050   45.9140 C   0  0  0  0  0  0  0  0  0  0  0  0
   54.7740   26.2700   45.9750 O   0  0  0  0  0  0  0  0  0  0  0  0
   57.0000   26.5570   45.2990 N   0  0  0  0  0  0  0  0  0  0  0  0
   57.5870   27.7550   45.8280 C   0  0  0  0  0  0  0  0  0  0  0  0
   57.1950   29.0220   45.3600 C   0  0  0  0  0  0  0  0  0  0  0  0
   57.7600   30.1900   45.9080 C   0  0  0  0  0  0  0  0  0  0  0  0
   57.3870   31.4720   45.4720 C   0  0  0  0  0  0  0  0  0  0  0  0
   56.5110   31.5920   44.5690 O   0  0  0  0  0  0  0  0  0  0  0  0
   57.9620   32.5880   46.0290 N   0  0  0  0  0  0  0  0  0  0  0  0
   58.8810   32.4520   47.0460 C   0  0  0  0  0  0  0  0  0  0  0  0
   59.2440   31.2120   47.4830 N   0  0  0  0  0  0  0  0  0  0  0  0
   58.7090   30.0860   46.9400 C   0  0  0  0  0  0  0  0  0  0  0  0
   59.0760   28.8220   47.4230 C   0  0  0  0  0  0  0  0  0  0  0  0
   58.5170   27.6630   46.8760 C   0  0  0  0  0  0  0  0  0  0  0  0
   58.9920   26.0990   47.5200 Cl  0  0  0  0  0  0  0  0  0  0  0  0
   59.4590   33.6740   47.7370 C   0  0  0  0  0  0  0  0  0  0  0  0
   60.3810   34.5270   46.8330 C   0  0  0  0  0  0  0  0  0  0  0  0
   59.6690   35.4300   45.8070 C   0  0  0  0  0  0  0  0  0  0  0  0
   58.7080   34.6780   44.8680 C   0  0  0  0  0  0  0  0  0  0  0  0
   57.5590   33.9410   45.5820 C   0  0  0  0  0  0  0  0  0  0  0  0
   57.0262   21.9260   44.6245 H   0  0  0  0  0  0  0  0  0  0  0  0
   56.2315   21.4834   43.0756 H   0  0  0  0  0  0  0  0  0  0  0  0
   57.9193   22.0984   43.0756 H   0  0  0  0  0  0  0  0  0  0  0  0
   57.2115   24.3123   43.6911 H   0  0  0  0  0  0  0  0  0  0  0  0
   56.1055   23.7747   42.3747 H   0  0  0  0  0  0  0  0  0  0  0  0
   55.0770   24.8450   44.3410 H   0  0  0  0  0  0  0  0  0  0  0  0
   54.6355   23.0356   46.1536 H   0  0  0  0  0  0  0  0  0  0  0  0
   56.2618   22.4915   45.5843 H   0  0  0  0  0  0  0  0  0  0  0  0
   55.8569   24.4071   47.5137 H   0  0  0  0  0  0  0  0  0  0  0  0
   57.3242   24.2919   46.4585 H   0  0  0  0  0  0  0  0  0  0  0  0
   56.4428   29.1012   44.5613 H   0  0  0  0  0  0  0  0  0  0  0  0
   59.9350   31.1240   48.2630 H   0  0  0  0  0  0  0  0  0  0  0  0
   59.8095   28.7415   48.2388 H   0  0  0  0  0  0  0  0  0  0  0  0
   58.6257   34.3064   48.0770 H   0  0  0  0  0  0  0  0  0  0  0  0
   60.0776   33.3078   48.5696 H   0  0  0  0  0  0  0  0  0  0  0  0
   60.9892   35.1716   47.4846 H   0  0  0  0  0  0  0  0  0  0  0  0
   60.9660   33.8076   46.2412 H   0  0  0  0  0  0  0  0  0  0  0  0
   59.0922   36.1888   46.3562 H   0  0  0  0  0  0  0  0  0  0  0  0
   60.4532   35.8693   45.1729 H   0  0  0  0  0  0  0  0  0  0  0  0
   58.2677   35.4073   44.1721 H   0  0  0  0  0  0  0  0  0  0  0  0
   59.3068   33.9060   44.3625 H   0  0  0  0  0  0  0  0  0  0  0  0
   57.2514   34.5283   46.4598 H   0  0  0  0  0  0  0  0  0  0  0  0
   56.7300   33.8303   44.8675 H   0  0  0  0  0  0  0  0  0  0  0  0
  1  2  1  0
  2  3  1  0
  3  4  1  0
  4  5  1  0
  5  6  1  0
  6  7  2  0
  6  8  1  0
  8  9  1  0
  9 10  2  0
 10 11  1  0
 11 12  1  0
 12 13  2  0
 12 14  1  0
 14 15  1  0
 15 16  2  0
 16 17  1  0
 17 18  1  0
 18 19  2  0
 19 20  1  0
 15 21  1  0
 21 22  1  0
 22 23  1  0
 23 24  1  0
 24 25  1  0
 19  9  1  0
 17 11  2  0
 25 14  1  0
  1 26  1  0
  1 27  1  0
  1 28  1  0
  2 29  1  0
  2 30  1  0
  3 31  1  0
  4 32  1  0
  4 33  1  0
  5 34  1  0
  5 35  1  0
 10 36  1  0
 16 37  1  0
 18 38  1  0
 21 39  1  0
 21 40  1  0
 22 41  1  0
 22 42  1  0
 23 43  1  0
 23 44  1  0
 24 45  1  0
 24 46  1  0
 25 47  1  0
 25 48  1  0
M  CHG  2   8  -1  16   1
M  END
>  <UniqueID>  (27) 
27

>  <SMILES>  (27) 
CCNCCC(=O)[N-]c1cc2c(=O)n3c([nH+]c2cc1Cl)CCCCC3

>  <Energy>  (27) 
59.03014865458549

>  <Genealogy>  (27) 
CCNCCC(=O)[N-]c1cc2c(=O)n3c([nH+]c2cc1Cl)CCCCC3 (protonated)
CCNCCC(=O)[N-]c1cc2c(=O)n3c([nH+]c2cc1Cl)CCCCC3 (3D coordinates assigned)
CCNCCC(=O)[N-]c1cc2c(=O)n3c([nH+]c2cc1Cl)CCCCC3 (nonaromatic ring conformer: 59.03014865458549 kcal/mol)

>  <smiles>  (27) 
CCNCCC(=O)Nc1cc2c(=O)n3c(nc2cc1Cl)CCCCC3

>  <score_type>  (27) 
oracle

>  <origin>  (27) 
adg

>  <m_score__min__energy>  (27) 
-6.3700000000000001

>  <m_primary>  (27) 
energy

$$$$
27:0
     RDKit          3D

 56 59  0  0  0  0  0  0  0  0999 V2000
   62.2420   33.8440   46.3980 C   0  0  0  0  0  0  0  0  0  0  0  0
   63.7190   33.4330   46.3870 C   0  0  0  0  0  0  0  0  0  0  0  0
   64.1770   32.9580   47.7060 N   0  0  0  0  0  0  0  0  0  0  0  0
   63.4100   33.5610   48.8100 C   0  0  0  0  0  0  0  0  0  0  0  0
   62.5410   32.5080   49.5090 C   0  0  0  0  0  0  0  0  0  0  0  0
   62.7100   31.2440   48.8920 O   0  0  0  0  0  0  0  0  0  0  0  0
   61.5110   30.8250   48.2740 C   0  0  0  0  0  0  0  0  0  0  0  0
   60.4110   30.7150   49.3270 C   0  0  0  0  0  0  0  0  0  0  0  0
   59.1660   31.3220   48.8550 N   0  0  0  0  0  0  0  0  0  0  0  0
   58.8630   31.3580   47.4570 C   0  0  0  0  0  0  0  0  0  0  0  0
   58.5930   30.1750   46.7820 C   0  0  0  0  0  0  0  0  0  0  0  0
   58.3270   30.1730   45.4270 C   0  0  0  0  0  0  0  0  0  0  0  0
   58.1940   31.3390   44.7120 N   0  0  0  0  0  0  0  0  0  0  0  0
   57.6050   31.3130   43.3620 C   0  0  0  0  0  0  0  0  0  0  0  0
   58.5520   32.5330   45.3230 C   0  0  0  0  0  0  0  0  0  0  0  0
   58.6340   33.7460   44.5980 C   0  0  0  0  0  0  0  0  0  0  0  0
   58.9440   34.9460   45.2390 C   0  0  0  0  0  0  0  0  0  0  0  0
   59.1890   34.9690   46.6070 C   0  0  0  0  0  0  0  0  0  0  0  0
   59.1520   33.7880   47.3480 C   0  0  0  0  0  0  0  0  0  0  0  0
   58.8640   32.5610   46.7220 C   0  0  0  0  0  0  0  0  0  0  0  0
   58.1880   28.7730   45.0030 C   0  0  0  0  0  0  0  0  0  0  0  0
   58.1240   28.1860   43.7290 C   0  0  0  0  0  0  0  0  0  0  0  0
   58.0730   26.7860   43.6330 C   0  0  0  0  0  0  0  0  0  0  0  0
   58.1290   25.9900   44.7900 C   0  0  0  0  0  0  0  0  0  0  0  0
   58.2630   26.5870   46.0520 C   0  0  0  0  0  0  0  0  0  0  0  0
   58.3030   27.9800   46.1340 C   0  0  0  0  0  0  0  0  0  0  0  0
   58.5670   28.7920   47.3620 C   0  0  0  0  0  0  0  0  0  0  0  0
   61.8959   33.9403   47.4377 H   0  0  0  0  0  0  0  0  0  0  0  0
   62.1260   34.8086   45.8821 H   0  0  0  0  0  0  0  0  0  0  0  0
   61.6444   33.0780   45.8821 H   0  0  0  0  0  0  0  0  0  0  0  0
   63.8561   32.6254   45.6529 H   0  0  0  0  0  0  0  0  0  0  0  0
   64.3135   34.3202   46.1235 H   0  0  0  0  0  0  0  0  0  0  0  0
   64.0430   31.9200   47.7390 H   0  0  0  0  0  0  0  0  0  0  0  0
   65.2000   33.1560   47.8250 H   0  0  0  0  0  0  0  0  0  0  0  0
   64.1093   33.9940   49.5405 H   0  0  0  0  0  0  0  0  0  0  0  0
   62.7541   34.3420   48.3979 H   0  0  0  0  0  0  0  0  0  0  0  0
   62.8356   32.4381   50.5665 H   0  0  0  0  0  0  0  0  0  0  0  0
   61.4850   32.8062   49.4314 H   0  0  0  0  0  0  0  0  0  0  0  0
   61.2158   31.5590   47.5098 H   0  0  0  0  0  0  0  0  0  0  0  0
   61.6649   29.8450   47.7988 H   0  0  0  0  0  0  0  0  0  0  0  0
   60.2311   29.6527   49.5487 H   0  0  0  0  0  0  0  0  0  0  0  0
   60.7387   31.2490   50.2311 H   0  0  0  0  0  0  0  0  0  0  0  0
   58.3900   31.5250   49.5280 H   0  0  0  0  0  0  0  0  0  0  0  0
   56.5089   31.2646   43.4410 H   0  0  0  0  0  0  0  0  0  0  0  0
   57.8935   32.2248   42.8184 H   0  0  0  0  0  0  0  0  0  0  0  0
   57.9727   30.4302   42.8184 H   0  0  0  0  0  0  0  0  0  0  0  0
   58.4507   33.7426   43.5134 H   0  0  0  0  0  0  0  0  0  0  0  0
   58.9948   35.8790   44.6585 H   0  0  0  0  0  0  0  0  0  0  0  0
   59.4130   35.9227   47.1073 H   0  0  0  0  0  0  0  0  0  0  0  0
   59.3494   33.8159   48.4298 H   0  0  0  0  0  0  0  0  0  0  0  0
   58.1140   28.8108   42.8237 H   0  0  0  0  0  0  0  0  0  0  0  0
   57.9886   26.3090   42.6454 H   0  0  0  0  0  0  0  0  0  0  0  0
   58.0675   24.8950   44.7054 H   0  0  0  0  0  0  0  0  0  0  0  0
   58.3352   25.9696   46.9595 H   0  0  0  0  0  0  0  0  0  0  0  0
   57.7623   28.6787   48.1034 H   0  0  0  0  0  0  0  0  0  0  0  0
   59.4789   28.5093   47.9084 H   0  0  0  0  0  0  0  0  0  0  0  0
  1  2  1  0
  2  3  1  0
  3  4  1  0
  4  5  1  0
  5  6  1  0
  6  7  1  0
  7  8  1  0
  8  9  1  0
  9 10  1  0
 10 11  2  0
 11 12  1  0
 12 13  2  0
 13 14  1  0
 13 15  1  0
 15 16  2  0
 16 17  1  0
 17 18  2  0
 18 19  1  0
 19 20  2  0
 12 21  1  0
 21 22  2  0
 22 23  1  0
 23 24  2  0
 24 25  1  0
 25 26  2  0
 26 27  1  0
 20 10  1  0
 26 21  1  0
 27 11  1  0
 20 15  1  0
  1 28  1  0
  1 29  1  0
  1 30  1  0
  2 31  1  0
  2 32  1  0
  3 33  1  0
  3 34  1  0
  4 35  1  0
  4 36  1  0
  5 37  1  0
  5 38  1  0
  7 39  1  0
  7 40  1  0
  8 41  1  0
  8 42  1  0
  9 43  1  0
 14 44  1  0
 14 45  1  0
 14 46  1  0
 16 47  1  0
 17 48  1  0
 18 49  1  0
 19 50  1  0
 22 51  1  0
 23 52  1  0
 24 53  1  0
 25 54  1  0
 27 55  1  0
 27 56  1  0
M  CHG  2   3   1  13   1
M  END
>  <UniqueID>  (28) 
28

>  <SMILES>  (28) 
CC[NH2+]CCOCCNc1c2c([n+](C)c3ccccc13)-c1ccccc1C2

>  <Energy>  (28) 
98.42117753738209

>  <Genealogy>  (28) 
CC[NH2+]CCOCCNc1c2c([n+](C)c3ccccc13)-c1ccccc1C2 (protonated)
CC[NH2+]CCOCCNc1c2c([n+](C)c3ccccc13)-c1ccccc1C2 (3D coordinates assigned)
CC[NH2+]CCOCCNc1c2c([n+](C)c3ccccc13)-c1ccccc1C2 (nonaromatic ring conformer: 98.42117753738209 kcal/mol)

>  <smiles>  (28) 
CCNCCOCCNc1c2c([n+](C)c3ccccc13)-c1ccccc1C2

>  <score_type>  (28) 
oracle

>  <origin>  (28) 
adg

>  <m_score__min__energy>  (28) 
-5.1900000000000004

>  <m_primary>  (28) 
energy

$$$$
28:0
     RDKit          3D

 41 42  0  0  0  0  0  0  0  0999 V2000
   57.4570   32.3370   41.0740 C   0  0  0  0  0  0  0  0  0  0  0  0
   58.0470   32.5340   42.4640 C   0  0  0  0  0  0  0  0  0  0  0  0
   57.7390   31.3750   43.3110 N   0  0  0  0  0  0  0  0  0  0  0  0
   56.6550   30.5860   42.7150 C   0  0  0  0  0  0  0  0  0  0  0  0
   55.9830   29.7180   43.7760 C   0  0  0  0  0  0  0  0  0  0  0  0
   56.5190   30.0110   45.0490 O   0  0  0  0  0  0  0  0  0  0  0  0
   57.0260   28.8260   45.6270 C   0  0  0  0  0  0  0  0  0  0  0  0
   58.5490   28.9320   45.7940 C   0  0  0  0  0  0  0  0  0  0  0  0
   59.1140   30.1290   45.1440 N   0  0  0  0  0  0  0  0  0  0  0  0
   59.9010   30.9300   46.0570 C   0  0  0  0  0  0  0  0  0  0  0  0
   60.9830   30.3520   46.7420 C   0  0  0  0  0  0  0  0  0  0  0  0
   61.7190   31.0920   47.6670 C   0  0  0  0  0  0  0  0  0  0  0  0
   61.4020   32.4290   47.9260 C   0  0  0  0  0  0  0  0  0  0  0  0
   62.4450   33.3570   49.2460 Br  0  0  0  0  0  0  0  0  0  0  0  0
   60.3360   33.0430   47.2320 C   0  0  0  0  0  0  0  0  0  0  0  0
   59.9850   34.3890   47.4410 C   0  0  0  0  0  0  0  0  0  0  0  0
   58.9180   34.9530   46.7400 C   0  0  0  0  0  0  0  0  0  0  0  0
   58.2010   34.1720   45.8360 C   0  0  0  0  0  0  0  0  0  0  0  0
   58.5440   32.8720   45.6380 N   0  0  0  0  0  0  0  0  0  0  0  0
   59.5830   32.2860   46.2970 C   0  0  0  0  0  0  0  0  0  0  0  0
   56.4170   31.9898   41.1629 H   0  0  0  0  0  0  0  0  0  0  0  0
   57.4794   33.2914   40.5275 H   0  0  0  0  0  0  0  0  0  0  0  0
   58.0483   31.5876   40.5275 H   0  0  0  0  0  0  0  0  0  0  0  0
   59.1383   32.6463   42.3836 H   0  0  0  0  0  0  0  0  0  0  0  0
   57.6105   33.4368   42.9161 H   0  0  0  0  0  0  0  0  0  0  0  0
   57.4000   31.7390   44.2330 H   0  0  0  0  0  0  0  0  0  0  0  0
   55.9094   31.2665   42.2780 H   0  0  0  0  0  0  0  0  0  0  0  0
   57.0753   29.9344   41.9348 H   0  0  0  0  0  0  0  0  0  0  0  0
   54.9017   29.9199   43.7806 H   0  0  0  0  0  0  0  0  0  0  0  0
   56.1633   28.6581   43.5432 H   0  0  0  0  0  0  0  0  0  0  0  0
   56.5614   28.6738   46.6124 H   0  0  0  0  0  0  0  0  0  0  0  0
   56.7935   27.9756   44.9691 H   0  0  0  0  0  0  0  0  0  0  0  0
   58.7827   28.9722   46.8681 H   0  0  0  0  0  0  0  0  0  0  0  0
   58.9969   28.0509   45.3112 H   0  0  0  0  0  0  0  0  0  0  0  0
   58.3460   30.6980   44.7190 H   0  0  0  0  0  0  0  0  0  0  0  0
   59.7240   29.8220   44.3500 H   0  0  0  0  0  0  0  0  0  0  0  0
   61.2527   29.3037   46.5464 H   0  0  0  0  0  0  0  0  0  0  0  0
   62.5578   30.6188   48.1985 H   0  0  0  0  0  0  0  0  0  0  0  0
   60.5531   34.9988   48.1590 H   0  0  0  0  0  0  0  0  0  0  0  0
   58.6451   36.0065   46.9001 H   0  0  0  0  0  0  0  0  0  0  0  0
   57.3566   34.6080   45.2821 H   0  0  0  0  0  0  0  0  0  0  0  0
  1  2  1  0
  2  3  1  0
  3  4  1  0
  4  5  1  0
  5  6  1  0
  6  7  1  0
  7  8  1  0
  8  9  1  0
  9 10  1  0
 10 11  2  0
 11 12  1  0
 12 13  2  0
 13 14  1  0
 13 15  1  0
 15 16  2  0
 16 17  1  0
 17 18  2  0
 18 19  1  0
 19 20  2  0
 20 10  1  0
 20 15  1  0
  1 21  1  0
  1 22  1  0
  1 23  1  0
  2 24  1  0
  2 25  1  0
  3 26  1  0
  4 27  1  0
  4 28  1  0
  5 29  1  0
  5 30  1  0
  7 31  1  0
  7 32  1  0
  8 33  1  0
  8 34  1  0
  9 35  1  0
  9 36  1  0
 11 37  1  0
 12 38  1  0
 16 39  1  0
 17 40  1  0
 18 41  1  0
M  CHG  1   9   1
M  END
>  <UniqueID>  (29) 
29

>  <SMILES>  (29) 
CCNCCOCC[NH2+]c1ccc(Br)c2cccnc12

>  <Energy>  (29) 
38.49857590046992

>  <Genealogy>  (29) 
CCNCCOCC[NH2+]c1ccc(Br)c2cccnc12 (protonated)
CCNCCOCC[NH2+]c1ccc(Br)c2cccnc12 (3D coordinates assigned)
CCNCCOCC[NH2+]c1ccc(Br)c2cccnc12 (optimized conformer: 38.49857590046992 kcal/mol)

>  <smiles>  (29) 
CCNCCOCCNc1ccc(Br)c2cccnc12

>  <score_type>  (29) 
oracle

>  <origin>  (29) 
adg

>  <m_score__min__energy>  (29) 
-4.7000000000000002

>  <m_primary>  (29) 
energy

$$$$
29:0
     RDKit          3D

 65 67  0  0  0  0  0  0  0  0999 V2000
   57.9090   25.9150   46.1440 C   0  0  0  0  0  0  0  0  0  0  0  0
   58.4030   26.8040   47.2950 C   0  0  0  0  0  0  0  0  0  0  0  0
   59.8620   26.7300   47.5580 N   0  0  0  0  0  0  0  0  0  0  0  0
   60.7220   26.6000   46.3700 C   0  0  0  0  0  0  0  0  0  0  0  0
   60.3720   27.6750   48.5750 C   0  0  0  0  0  0  0  0  0  0  0  0
   59.8760   29.1170   48.3910 C   0  0  0  0  0  0  0  0  0  0  0  0
   60.2050   29.6060   47.0510 N   0  0  0  0  0  0  0  0  0  0  0  0
   59.4610   30.6860   46.4680 C   0  0  0  0  0  0  0  0  0  0  0  0
   58.5500   30.4300   45.4310 C   0  0  0  0  0  0  0  0  0  0  0  0
   58.3620   29.1190   44.9470 C   0  0  0  0  0  0  0  0  0  0  0  0
   57.4180   28.8560   43.9580 C   0  0  0  0  0  0  0  0  0  0  0  0
   56.6400   29.8870   43.4470 C   0  0  0  0  0  0  0  0  0  0  0  0
   56.8170   31.1930   43.9030 C   0  0  0  0  0  0  0  0  0  0  0  0
   57.7980   31.5020   44.8800 C   0  0  0  0  0  0  0  0  0  0  0  0
   58.0140   32.7980   45.3140 N   0  0  0  0  0  0  0  0  0  0  0  0
   57.4310   33.9350   44.5680 C   0  0  0  0  0  0  0  0  0  0  0  0
   58.7980   33.0330   46.4300 C   0  0  0  0  0  0  0  0  0  0  0  0
   58.8270   34.2970   47.0710 C   0  0  0  0  0  0  0  0  0  0  0  0
   59.6560   34.5290   48.1680 C   0  0  0  0  0  0  0  0  0  0  0  0
   60.4950   33.5280   48.6510 C   0  0  0  0  0  0  0  0  0  0  0  0
   61.3020   33.8120   49.7620 O   0  0  0  0  0  0  0  0  0  0  0  0
   62.5040   34.5850   49.7350 C   0  0  0  0  0  0  0  0  0  0  0  0
   63.6350   33.8300   50.4620 C   0  0  0  0  0  0  0  0  0  0  0  0
   64.1560   32.6170   49.7560 N   0  0  0  0  0  0  0  0  0  0  0  0
   63.3600   31.4480   50.2080 C   0  0  0  0  0  0  0  0  0  0  0  0
   64.0150   32.7330   48.2850 C   0  0  0  0  0  0  0  0  0  0  0  0
   65.5770   32.3650   50.1010 C   0  0  0  0  0  0  0  0  0  0  0  0
   60.4560   32.2590   48.0550 C   0  0  0  0  0  0  0  0  0  0  0  0
   59.5810   31.9870   46.9830 C   0  0  0  0  0  0  0  0  0  0  0  0
   57.4136   25.0235   46.5559 H   0  0  0  0  0  0  0  0  0  0  0  0
   57.1947   26.4787   45.5259 H   0  0  0  0  0  0  0  0  0  0  0  0
   58.7649   25.6062   45.5259 H   0  0  0  0  0  0  0  0  0  0  0  0
   58.1515   27.8473   47.0535 H   0  0  0  0  0  0  0  0  0  0  0  0
   57.9058   26.4365   48.2048 H   0  0  0  0  0  0  0  0  0  0  0  0
   61.7636   26.4426   46.6868 H   0  0  0  0  0  0  0  0  0  0  0  0
   60.3882   25.7421   45.7678 H   0  0  0  0  0  0  0  0  0  0  0  0
   60.6567   27.5182   45.7678 H   0  0  0  0  0  0  0  0  0  0  0  0
   60.0514   27.3226   49.5665 H   0  0  0  0  0  0  0  0  0  0  0  0
   61.4665   27.6984   48.4678 H   0  0  0  0  0  0  0  0  0  0  0  0
   58.7850   29.1447   48.5286 H   0  0  0  0  0  0  0  0  0  0  0  0
   60.3688   29.7601   49.1350 H   0  0  0  0  0  0  0  0  0  0  0  0
   60.9550   29.1520   46.4820 H   0  0  0  0  0  0  0  0  0  0  0  0
   58.9672   28.2959   45.3548 H   0  0  0  0  0  0  0  0  0  0  0  0
   57.2882   27.8308   43.5810 H   0  0  0  0  0  0  0  0  0  0  0  0
   55.8814   29.6726   42.6798 H   0  0  0  0  0  0  0  0  0  0  0  0
   56.1851   31.9973   43.4982 H   0  0  0  0  0  0  0  0  0  0  0  0
   57.0479   34.6821   45.2788 H   0  0  0  0  0  0  0  0  0  0  0  0
   58.2050   34.3939   43.9353 H   0  0  0  0  0  0  0  0  0  0  0  0
   56.6066   33.5743   43.9353 H   0  0  0  0  0  0  0  0  0  0  0  0
   58.1850   35.1081   46.6969 H   0  0  0  0  0  0  0  0  0  0  0  0
   59.6471   35.5141   48.6575 H   0  0  0  0  0  0  0  0  0  0  0  0
   62.7985   34.7636   48.6903 H   0  0  0  0  0  0  0  0  0  0  0  0
   62.3268   35.5446   50.2428 H   0  0  0  0  0  0  0  0  0  0  0  0
   64.4738   34.5279   50.6012 H   0  0  0  0  0  0  0  0  0  0  0  0
   63.1995   33.4676   51.4049 H   0  0  0  0  0  0  0  0  0  0  0  0
   63.3411   31.4203   51.3075 H   0  0  0  0  0  0  0  0  0  0  0  0
   62.3322   31.5343   49.8257 H   0  0  0  0  0  0  0  0  0  0  0  0
   63.8170   30.5233   49.8257 H   0  0  0  0  0  0  0  0  0  0  0  0
   63.1853   33.4156   48.0489 H   0  0  0  0  0  0  0  0  0  0  0  0
   64.9481   33.1283   47.8573 H   0  0  0  0  0  0  0  0  0  0  0  0
   63.8069   31.7412   47.8573 H   0  0  0  0  0  0  0  0  0  0  0  0
   65.6907   32.3448   51.1949 H   0  0  0  0  0  0  0  0  0  0  0  0
   65.8900   31.3973   49.6819 H   0  0  0  0  0  0  0  0  0  0  0  0
   66.2037   33.1660   49.6819 H   0  0  0  0  0  0  0  0  0  0  0  0
   61.1178   31.4640   48.4293 H   0  0  0  0  0  0  0  0  0  0  0  0
  1  2  1  0
  2  3  1  0
  3  4  1  0
  3  5  1  0
  5  6  1  0
  6  7  1  0
  7  8  1  0
  8  9  2  0
  9 10  1  0
 10 11  2  0
 11 12  1  0
 12 13  2  0
 13 14  1  0
 14 15  2  0
 15 16  1  0
 15 17  1  0
 17 18  2  0
 18 19  1  0
 19 20  2  0
 20 21  1  0
 21 22  1  0
 22 23  1  0
 23 24  1  0
 24 25  1  0
 24 26  1  0
 24 27  1  0
 20 28  1  0
 28 29  2  0
 29  8  1  0
 14  9  1  0
 29 17  1  0
  1 30  1  0
  1 31  1  0
  1 32  1  0
  2 33  1  0
  2 34  1  0
  4 35  1  0
  4 36  1  0
  4 37  1  0
  5 38  1  0
  5 39  1  0
  6 40  1  0
  6 41  1  0
  7 42  1  0
 10 43  1  0
 11 44  1  0
 12 45  1  0
 13 46  1  0
 16 47  1  0
 16 48  1  0
 16 49  1  0
 18 50  1  0
 19 51  1  0
 22 52  1  0
 22 53  1  0
 23 54  1  0
 23 55  1  0
 25 56  1  0
 25 57  1  0
 25 58  1  0
 26 59  1  0
 26 60  1  0
 26 61  1  0
 27 62  1  0
 27 63  1  0
 27 64  1  0
 28 65  1  0
M  CHG  2  15   1  24   1
M  END
>  <UniqueID>  (30) 
30

>  <SMILES>  (30) 
CCN(C)CCNc1c2ccccc2[n+](C)c2ccc(OCC[N+](C)(C)C)cc12

>  <Energy>  (30) 
104.40169827421006

>  <Genealogy>  (30) 
CCN(C)CCNc1c2ccccc2[n+](C)c2ccc(OCC[N+](C)(C)C)cc12 (3D coordinates assigned)
CCN(C)CCNc1c2ccccc2[n+](C)c2ccc(OCC[N+](C)(C)C)cc12 (optimized conformer: 104.40169827421006 kcal/mol)

>  <smiles>  (30) 
CCN(C)CCNc1c2ccccc2[n+](C)c2ccc(OCC[N+](C)(C)C)cc12

>  <score_type>  (30) 
oracle

>  <origin>  (30) 
adg

>  <m_score__min__energy>  (30) 
-4.2000000000000002

>  <m_primary>  (30) 
energy

$$$$
