0:0
     RDKit          3D

 38 40  0  0  0  0  0  0  0  0999 V2000
   59.6240   26.6020   46.9930 C   0  0  0  0  0  0  0  0  0  0  0  0
   58.5650   26.8390   46.4680 C   0  0  0  0  0  0  0  0  0  0  0  0
   57.2710   27.1270   45.8290 C   0  0  0  0  0  0  0  0  0  0  0  0
   57.4400   27.5300   44.4240 N   0  0  0  0  0  0  0  0  0  0  0  0
   57.4100   28.9680   44.2810 C   0  0  0  0  0  0  0  0  0  0  0  0
   57.0220   29.5550   43.0640 C   0  0  0  0  0  0  0  0  0  0  0  0
   57.0160   30.9440   42.9170 C   0  0  0  0  0  0  0  0  0  0  0  0
   57.4000   31.7640   43.9810 C   0  0  0  0  0  0  0  0  0  0  0  0
   57.3990   33.1110   43.8330 N   0  0  0  0  0  0  0  0  0  0  0  0
   57.7690   33.9320   44.8470 C   0  0  0  0  0  0  0  0  0  0  0  0
   58.1540   33.4190   46.0550 N   0  0  0  0  0  0  0  0  0  0  0  0
   58.5830   34.3440   47.1180 C   0  0  0  0  0  0  0  0  0  0  0  0
   60.0100   34.0660   47.5070 C   0  0  0  0  0  0  0  0  0  0  0  0
   60.3780   33.9850   48.8610 C   0  0  0  0  0  0  0  0  0  0  0  0
   61.6990   33.6930   49.2150 C   0  0  0  0  0  0  0  0  0  0  0  0
   62.6600   33.4720   48.2240 C   0  0  0  0  0  0  0  0  0  0  0  0
   64.3150   33.1040   48.6720 Cl  0  0  0  0  0  0  0  0  0  0  0  0
   62.2990   33.5430   46.8750 C   0  0  0  0  0  0  0  0  0  0  0  0
   60.9790   33.8350   46.5160 C   0  0  0  0  0  0  0  0  0  0  0  0
   58.1800   32.0610   46.2470 C   0  0  0  0  0  0  0  0  0  0  0  0
   58.5470   31.5820   47.3570 O   0  0  0  0  0  0  0  0  0  0  0  0
   57.7970   31.1950   45.2060 C   0  0  0  0  0  0  0  0  0  0  0  0
   57.8020   29.7960   45.3500 C   0  0  0  0  0  0  0  0  0  0  0  0
   60.5903   26.3857   47.4720 H   0  0  0  0  0  0  0  0  0  0  0  0
   56.6442   26.2240   45.8687 H   0  0  0  0  0  0  0  0  0  0  0  0
   56.7963   27.9581   46.3712 H   0  0  0  0  0  0  0  0  0  0  0  0
   56.6600   27.1160   43.8610 H   0  0  0  0  0  0  0  0  0  0  0  0
   58.3330   27.1400   44.0410 H   0  0  0  0  0  0  0  0  0  0  0  0
   56.7208   28.9156   42.2211 H   0  0  0  0  0  0  0  0  0  0  0  0
   56.7082   31.3933   41.9613 H   0  0  0  0  0  0  0  0  0  0  0  0
   57.7594   35.0216   44.6964 H   0  0  0  0  0  0  0  0  0  0  0  0
   58.5011   35.3787   46.7537 H   0  0  0  0  0  0  0  0  0  0  0  0
   57.9380   34.2024   47.9977 H   0  0  0  0  0  0  0  0  0  0  0  0
   59.6245   34.1518   49.6448 H   0  0  0  0  0  0  0  0  0  0  0  0
   61.9828   33.6370   50.2763 H   0  0  0  0  0  0  0  0  0  0  0  0
   63.0545   33.3689   46.0946 H   0  0  0  0  0  0  0  0  0  0  0  0
   60.6984   33.8840   45.4535 H   0  0  0  0  0  0  0  0  0  0  0  0
   58.1142   29.3459   46.3039 H   0  0  0  0  0  0  0  0  0  0  0  0
  1  2  3  0
  2  3  1  0
  3  4  1  0
  4  5  1  0
  5  6  2  0
  6  7  1  0
  7  8  2  0
  8  9  1  0
  9 10  2  0
 10 11  1  0
 11 12  1  0
 12 13  1  0
 13 14  2  0
 14 15  1  0
 15 16  2  0
 16 17  1  0
 16 18  1  0
 18 19  2  0
 11 20  1  0
 20 21  2  0
 20 22  1  0
 22 23  2  0
 23  5  1  0
 22  8  1  0
 19 13  1  0
  1 24  1  0
  3 25  1  0
  3 26  1  0
  4 27  1  0
  4 28  1  0
  6 29  1  0
  7 30  1  0
 10 31  1  0
 12 32  1  0
 12 33  1  0
 14 34  1  0
 15 35  1  0
 18 36  1  0
 19 37  1  0
 23 38  1  0
M  CHG  1   4   1
M  END
>  <UniqueID>  (1) 
1

>  <SMILES>  (1) 
C#CC[NH2+]c1ccc2ncn(Cc3ccc(Cl)cc3)c(=O)c2c1

>  <Energy>  (1) 
45.05829165795335

>  <Genealogy>  (1) 
C#CC[NH2+]c1ccc2ncn(Cc3ccc(Cl)cc3)c(=O)c2c1 (protonated)
C#CC[NH2+]c1ccc2ncn(Cc3ccc(Cl)cc3)c(=O)c2c1 (3D coordinates assigned)
C#CC[NH2+]c1ccc2ncn(Cc3ccc(Cl)cc3)c(=O)c2c1 (optimized conformer: 45.05829165795335 kcal/mol)

>  <smiles>  (1) 
C#CCNc1ccc2ncn(Cc3ccc(Cl)cc3)c(=O)c2c1

>  <score_type>  (1) 
oracle

>  <origin>  (1) 
adg

>  <m_score__min__energy>  (1) 
-6.2999999999999998

>  <m_primary>  (1) 
energy

$$$$
1:0
     RDKit          3D

 53 55  0  0  0  0  0  0  0  0999 V2000
   63.8170   34.0610   51.2550 C   0  0  0  0  0  0  0  0  0  0  0  0
   63.5790   33.4430   49.9240 C   0  0  0  0  0  0  0  0  0  0  0  0
   64.5870   33.1030   49.0390 C   0  0  0  0  0  0  0  0  0  0  0  0
   63.9860   32.5730   47.9510 N   0  0  0  0  0  0  0  0  0  0  0  0
   62.6550   32.5660   48.1200 C   0  0  0  0  0  0  0  0  0  0  0  0
   61.7120   32.0490   47.1050 C   0  0  0  0  0  0  0  0  0  0  0  0
   60.5500   32.8190   46.8810 N   0  0  0  0  0  0  0  0  0  0  0  0
   60.7200   34.2270   47.0110 C   0  0  0  0  0  0  0  0  0  0  0  0
   59.5390   34.9960   46.4930 C   0  0  0  0  0  0  0  0  0  0  0  0
   58.2950   34.3370   46.6370 N   0  0  0  0  0  0  0  0  0  0  0  0
   57.4830   34.2360   45.4670 C   0  0  0  0  0  0  0  0  0  0  0  0
   58.3240   33.6900   44.3240 C   0  0  0  0  0  0  0  0  0  0  0  0
   58.4450   32.2910   44.4380 O   0  0  0  0  0  0  0  0  0  0  0  0
   58.0430   31.6570   43.2570 C   0  0  0  0  0  0  0  0  0  0  0  0
   57.7630   30.2090   43.5370 C   0  0  0  0  0  0  0  0  0  0  0  0
   57.6500   30.0280   45.0360 C   0  0  0  0  0  0  0  0  0  0  0  0
   56.8280   28.7830   45.3050 C   0  0  0  0  0  0  0  0  0  0  0  0
   55.5010   28.9480   44.9390 O   0  0  0  0  0  0  0  0  0  0  0  0
   55.3210   29.7870   43.8420 C   0  0  0  0  0  0  0  0  0  0  0  0
   56.5070   29.7120   42.8960 C   0  0  0  0  0  0  0  0  0  0  0  0
   58.2270   33.2530   47.5550 C   0  0  0  0  0  0  0  0  0  0  0  0
   59.3370   32.2710   47.4110 C   0  0  0  0  0  0  0  0  0  0  0  0
   62.4200   33.1020   49.3310 N   0  0  0  0  0  0  0  0  0  0  0  0
   63.5420   33.3469   52.0453 H   0  0  0  0  0  0  0  0  0  0  0  0
   64.8807   34.3239   51.3523 H   0  0  0  0  0  0  0  0  0  0  0  0
   63.2044   34.9694   51.3523 H   0  0  0  0  0  0  0  0  0  0  0  0
   65.6680   33.2380   49.1916 H   0  0  0  0  0  0  0  0  0  0  0  0
   64.5580   32.2340   47.1250 H   0  0  0  0  0  0  0  0  0  0  0  0
   62.2541   31.9750   46.1507 H   0  0  0  0  0  0  0  0  0  0  0  0
   61.3545   31.0866   47.5000 H   0  0  0  0  0  0  0  0  0  0  0  0
   60.8603   34.4692   48.0748 H   0  0  0  0  0  0  0  0  0  0  0  0
   61.5969   34.5157   46.4130 H   0  0  0  0  0  0  0  0  0  0  0  0
   59.4862   35.9505   47.0372 H   0  0  0  0  0  0  0  0  0  0  0  0
   59.7003   35.1224   45.4123 H   0  0  0  0  0  0  0  0  0  0  0  0
   56.6398   33.5568   45.6612 H   0  0  0  0  0  0  0  0  0  0  0  0
   57.0934   35.2292   45.1992 H   0  0  0  0  0  0  0  0  0  0  0  0
   57.8413   33.9367   43.3669 H   0  0  0  0  0  0  0  0  0  0  0  0
   59.3256   34.1428   44.3654 H   0  0  0  0  0  0  0  0  0  0  0  0
   57.1317   32.1393   42.8738 H   0  0  0  0  0  0  0  0  0  0  0  0
   58.8435   31.7374   42.5068 H   0  0  0  0  0  0  0  0  0  0  0  0
   58.5920   29.6254   43.1103 H   0  0  0  0  0  0  0  0  0  0  0  0
   58.6528   29.9132   45.4733 H   0  0  0  0  0  0  0  0  0  0  0  0
   57.1662   30.9063   45.4882 H   0  0  0  0  0  0  0  0  0  0  0  0
   57.2531   27.9460   44.7317 H   0  0  0  0  0  0  0  0  0  0  0  0
   56.8599   28.5816   46.3859 H   0  0  0  0  0  0  0  0  0  0  0  0
   54.4116   29.4833   43.3028 H   0  0  0  0  0  0  0  0  0  0  0  0
   55.2281   30.8213   44.2047 H   0  0  0  0  0  0  0  0  0  0  0  0
   56.6533   28.6652   42.5912 H   0  0  0  0  0  0  0  0  0  0  0  0
   56.2913   30.3512   42.0272 H   0  0  0  0  0  0  0  0  0  0  0  0
   58.2558   33.6613   48.5760 H   0  0  0  0  0  0  0  0  0  0  0  0
   57.2926   32.7126   47.3429 H   0  0  0  0  0  0  0  0  0  0  0  0
   59.5549   31.8507   48.4039 H   0  0  0  0  0  0  0  0  0  0  0  0
   58.9940   31.5147   46.6897 H   0  0  0  0  0  0  0  0  0  0  0  0
  1  2  1  0
  2  3  2  0
  3  4  1  0
  4  5  1  0
  5  6  1  0
  6  7  1  0
  7  8  1  0
  8  9  1  0
  9 10  1  0
 10 11  1  0
 11 12  1  0
 12 13  1  0
 13 14  1  0
 14 15  1  0
 15 16  1  0
 16 17  1  0
 17 18  1  0
 18 19  1  0
 19 20  1  0
 10 21  1  0
 21 22  1  0
  5 23  2  0
 23  2  1  0
 22  7  1  0
 20 15  1  0
  1 24  1  0
  1 25  1  0
  1 26  1  0
  3 27  1  0
  4 28  1  0
  6 29  1  0
  6 30  1  0
  8 31  1  0
  8 32  1  0
  9 33  1  0
  9 34  1  0
 11 35  1  0
 11 36  1  0
 12 37  1  0
 12 38  1  0
 14 39  1  0
 14 40  1  0
 15 41  1  0
 16 42  1  0
 16 43  1  0
 17 44  1  0
 17 45  1  0
 19 46  1  0
 19 47  1  0
 20 48  1  0
 20 49  1  0
 21 50  1  0
 21 51  1  0
 22 52  1  0
 22 53  1  0
M  END
>  <smiles>  (2) 
Cc1c[nH]c(CN2CCN(CCOCC3CCOCC3)CC2)n1

>  <score_type>  (2) 
oracle

>  <origin>  (2) 
adg

>  <m_score__min__energy>  (2) 
-7.8600000000000003

>  <m_primary>  (2) 
energy

$$$$
2:0
     RDKit          3D

 49 51  0  0  0  0  0  0  0  0999 V2000
   56.6160   30.4360   43.3740 C   0  0  0  0  0  0  0  0  0  0  0  0
   56.4640   31.2240   44.5500 O   0  0  0  0  0  0  0  0  0  0  0  0
   57.5200   31.8640   45.2160 C   0  0  0  0  0  0  0  0  0  0  0  0
   57.6730   33.2650   45.2200 C   0  0  0  0  0  0  0  0  0  0  0  0
   58.7430   33.8550   45.8980 C   0  0  0  0  0  0  0  0  0  0  0  0
   59.6740   33.0600   46.5830 C   0  0  0  0  0  0  0  0  0  0  0  0
   60.8460   33.7020   47.2920 C   0  0  0  0  0  0  0  0  0  0  0  0
   61.5680   32.7430   48.1650 N   0  0  0  0  0  0  0  0  0  0  0  0
   62.8400   32.3020   47.5170 C   0  0  0  0  0  0  0  0  0  0  0  0
   64.0920   32.9470   48.1270 C   0  0  0  0  0  0  0  0  0  0  0  0
   64.1340   32.6730   49.5680 N   0  0  0  0  0  0  0  0  0  0  0  0
   65.4040   32.5720   50.2450 C   0  0  0  0  0  0  0  0  0  0  0  0
   66.4380   33.0540   49.7020 O   0  0  0  0  0  0  0  0  0  0  0  0
   65.5220   31.9490   51.6130 C   0  0  0  0  0  0  0  0  0  0  0  0
   65.9050   30.4970   51.5160 C   0  0  0  0  0  0  0  0  0  0  0  0
   67.1330   30.1280   50.9410 C   0  0  0  0  0  0  0  0  0  0  0  0
   67.5050   28.7810   50.8740 C   0  0  0  0  0  0  0  0  0  0  0  0
   66.6580   27.7950   51.3890 C   0  0  0  0  0  0  0  0  0  0  0  0
   65.4400   28.1550   51.9740 C   0  0  0  0  0  0  0  0  0  0  0  0
   65.0650   29.5000   52.0410 C   0  0  0  0  0  0  0  0  0  0  0  0
   62.8700   32.5980   50.3100 C   0  0  0  0  0  0  0  0  0  0  0  0
   61.7530   33.3040   49.5320 C   0  0  0  0  0  0  0  0  0  0  0  0
   59.5240   31.6650   46.5760 C   0  0  0  0  0  0  0  0  0  0  0  0
   58.4530   31.0750   45.8970 C   0  0  0  0  0  0  0  0  0  0  0  0
   56.8174   29.3919   43.6557 H   0  0  0  0  0  0  0  0  0  0  0  0
   55.6921   30.4835   42.7788 H   0  0  0  0  0  0  0  0  0  0  0  0
   57.4559   30.8237   42.7788 H   0  0  0  0  0  0  0  0  0  0  0  0
   56.9471   33.8967   44.6872 H   0  0  0  0  0  0  0  0  0  0  0  0
   58.8559   34.9492   45.8946 H   0  0  0  0  0  0  0  0  0  0  0  0
   61.5462   34.0908   46.5380 H   0  0  0  0  0  0  0  0  0  0  0  0
   60.4542   34.5088   47.9288 H   0  0  0  0  0  0  0  0  0  0  0  0
   60.9640   31.8910   48.2590 H   0  0  0  0  0  0  0  0  0  0  0  0
   62.9242   31.2103   47.6219 H   0  0  0  0  0  0  0  0  0  0  0  0
   62.7935   32.6169   46.4641 H   0  0  0  0  0  0  0  0  0  0  0  0
   64.9897   32.5285   47.6484 H   0  0  0  0  0  0  0  0  0  0  0  0
   64.0601   34.0342   47.9625 H   0  0  0  0  0  0  0  0  0  0  0  0
   66.2915   32.4859   52.1871 H   0  0  0  0  0  0  0  0  0  0  0  0
   64.5456   32.0199   52.1145 H   0  0  0  0  0  0  0  0  0  0  0  0
   67.8050   30.9020   50.5417 H   0  0  0  0  0  0  0  0  0  0  0  0
   68.4641   28.4976   50.4160 H   0  0  0  0  0  0  0  0  0  0  0  0
   66.9498   26.7358   51.3340 H   0  0  0  0  0  0  0  0  0  0  0  0
   64.7760   27.3787   52.3820 H   0  0  0  0  0  0  0  0  0  0  0  0
   64.1083   29.7792   52.5066 H   0  0  0  0  0  0  0  0  0  0  0  0
   62.5981   31.5424   50.4576 H   0  0  0  0  0  0  0  0  0  0  0  0
   62.9967   33.0944   51.2834 H   0  0  0  0  0  0  0  0  0  0  0  0
   60.8109   33.1937   50.0891 H   0  0  0  0  0  0  0  0  0  0  0  0
   62.0374   34.3611   49.4239 H   0  0  0  0  0  0  0  0  0  0  0  0
   60.2514   31.0330   47.1065 H   0  0  0  0  0  0  0  0  0  0  0  0
   58.3433   29.9805   45.8985 H   0  0  0  0  0  0  0  0  0  0  0  0
  1  2  1  0
  2  3  1  0
  3  4  2  0
  4  5  1  0
  5  6  2  0
  6  7  1  0
  7  8  1  0
  8  9  1  0
  9 10  1  0
 10 11  1  0
 11 12  1  0
 12 13  2  0
 12 14  1  0
 14 15  1  0
 15 16  2  0
 16 17  1  0
 17 18  2  0
 18 19  1  0
 19 20  2  0
 11 21  1  0
 21 22  1  0
  6 23  1  0
 23 24  2  0
 24  3  1  0
 22  8  1  0
 20 15  1  0
  1 25  1  0
  1 26  1  0
  1 27  1  0
  4 28  1  0
  5 29  1  0
  7 30  1  0
  7 31  1  0
  8 32  1  0
  9 33  1  0
  9 34  1  0
 10 35  1  0
 10 36  1  0
 14 37  1  0
 14 38  1  0
 16 39  1  0
 17 40  1  0
 18 41  1  0
 19 42  1  0
 20 43  1  0
 21 44  1  0
 21 45  1  0
 22 46  1  0
 22 47  1  0
 23 48  1  0
 24 49  1  0
M  CHG  1   8   1
M  END
>  <UniqueID>  (3) 
2

>  <SMILES>  (3) 
COc1ccc(C[NH+]2CCN(C(=O)Cc3ccccc3)CC2)cc1

>  <Energy>  (3) 
57.80578536015195

>  <Genealogy>  (3) 
COc1ccc(C[NH+]2CCN(C(=O)Cc3ccccc3)CC2)cc1 (protonated)
COc1ccc(C[NH+]2CCN(C(=O)Cc3ccccc3)CC2)cc1 (3D coordinates assigned)
COc1ccc(C[NH+]2CCN(C(=O)Cc3ccccc3)CC2)cc1 (nonaromatic ring conformer: 57.80578536015195 kcal/mol)

>  <smiles>  (3) 
COc1ccc(CN2CCN(C(=O)Cc3ccccc3)CC2)cc1

>  <score_type>  (3) 
oracle

>  <origin>  (3) 
adg

>  <m_score__min__energy>  (3) 
-6.2800000000000002

>  <m_primary>  (3) 
energy

$$$$
3:0
     RDKit          3D

 44 46  0  0  0  0  0  0  0  0999 V2000
   57.6090   26.2260   44.8530 C   0  0  0  0  0  0  0  0  0  0  0  0
   56.8370   27.3060   45.3670 O   0  0  0  0  0  0  0  0  0  0  0  0
   57.2680   28.6410   45.4060 C   0  0  0  0  0  0  0  0  0  0  0  0
   56.9420   29.5670   44.4050 C   0  0  0  0  0  0  0  0  0  0  0  0
   57.3920   30.8860   44.4830 C   0  0  0  0  0  0  0  0  0  0  0  0
   58.1890   31.3250   45.5700 C   0  0  0  0  0  0  0  0  0  0  0  0
   58.5110   30.3770   46.5770 C   0  0  0  0  0  0  0  0  0  0  0  0
   58.0500   29.0530   46.4830 C   0  0  0  0  0  0  0  0  0  0  0  0
   59.2920   30.7490   47.6730 C   0  0  0  0  0  0  0  0  0  0  0  0
   59.7660   32.0500   47.8110 C   0  0  0  0  0  0  0  0  0  0  0  0
   60.7560   32.4190   49.2720 S   0  0  0  0  0  0  0  0  0  0  0  0
   62.1000   31.2710   48.8040 C   0  0  0  0  0  0  0  0  0  0  0  0
   62.6640   31.6050   47.4050 C   0  0  0  0  0  0  0  0  0  0  0  0
   63.7150   32.6550   47.3820 N   0  0  0  0  0  0  0  0  0  0  0  0
   64.1040   33.1110   48.7270 C   0  0  0  0  0  0  0  0  0  0  0  0
   63.3550   33.7980   46.5220 C   0  0  0  0  0  0  0  0  0  0  0  0
   59.4690   33.0190   46.8270 C   0  0  0  0  0  0  0  0  0  0  0  0
   59.9510   34.3400   46.9520 C   0  0  0  0  0  0  0  0  0  0  0  0
   59.6590   35.2990   45.9860 C   0  0  0  0  0  0  0  0  0  0  0  0
   58.8860   34.9640   44.8820 C   0  0  0  0  0  0  0  0  0  0  0  0
   58.3970   33.6670   44.7310 C   0  0  0  0  0  0  0  0  0  0  0  0
   58.6740   32.6640   45.6950 C   0  0  0  0  0  0  0  0  0  0  0  0
   58.0256   25.6432   45.6877 H   0  0  0  0  0  0  0  0  0  0  0  0
   56.9683   25.5778   44.2370 H   0  0  0  0  0  0  0  0  0  0  0  0
   58.4296   26.6224   44.2370 H   0  0  0  0  0  0  0  0  0  0  0  0
   56.3259   29.2511   43.5502 H   0  0  0  0  0  0  0  0  0  0  0  0
   57.1236   31.5968   43.6876 H   0  0  0  0  0  0  0  0  0  0  0  0
   58.3103   28.3312   47.2712 H   0  0  0  0  0  0  0  0  0  0  0  0
   59.5369   30.0004   48.4409 H   0  0  0  0  0  0  0  0  0  0  0  0
   62.9101   31.3474   49.5442 H   0  0  0  0  0  0  0  0  0  0  0  0
   61.6906   30.2504   48.7779 H   0  0  0  0  0  0  0  0  0  0  0  0
   63.0929   30.6846   46.9821 H   0  0  0  0  0  0  0  0  0  0  0  0
   61.8205   32.0039   46.8225 H   0  0  0  0  0  0  0  0  0  0  0  0
   64.5650   32.2140   46.9540 H   0  0  0  0  0  0  0  0  0  0  0  0
   63.5861   32.5039   49.4841 H   0  0  0  0  0  0  0  0  0  0  0  0
   65.1916   33.0020   48.8508 H   0  0  0  0  0  0  0  0  0  0  0  0
   63.8250   34.1678   48.8508 H   0  0  0  0  0  0  0  0  0  0  0  0
   63.0839   34.6589   47.1508 H   0  0  0  0  0  0  0  0  0  0  0  0
   64.2130   34.0636   45.8869 H   0  0  0  0  0  0  0  0  0  0  0  0
   62.4997   33.5240   45.8869 H   0  0  0  0  0  0  0  0  0  0  0  0
   60.5644   34.6147   47.8228 H   0  0  0  0  0  0  0  0  0  0  0  0
   60.0414   36.3244   46.0974 H   0  0  0  0  0  0  0  0  0  0  0  0
   58.6582   35.7262   44.1223 H   0  0  0  0  0  0  0  0  0  0  0  0
   57.7868   33.4177   43.8504 H   0  0  0  0  0  0  0  0  0  0  0  0
  1  2  1  0
  2  3  1  0
  3  4  2  0
  4  5  1  0
  5  6  2  0
  6  7  1  0
  7  8  2  0
  7  9  1  0
  9 10  2  0
 10 11  1  0
 11 12  1  0
 12 13  1  0
 13 14  1  0
 14 15  1  0
 14 16  1  0
 10 17  1  0
 17 18  2  0
 18 19  1  0
 19 20  2  0
 20 21  1  0
 21 22  2  0
  8  3  1  0
 22 17  1  0
 22  6  1  0
  1 23  1  0
  1 24  1  0
  1 25  1  0
  4 26  1  0
  5 27  1  0
  8 28  1  0
  9 29  1  0
 12 30  1  0
 12 31  1  0
 13 32  1  0
 13 33  1  0
 14 34  1  0
 15 35  1  0
 15 36  1  0
 15 37  1  0
 16 38  1  0
 16 39  1  0
 16 40  1  0
 18 41  1  0
 19 42  1  0
 20 43  1  0
 21 44  1  0
M  CHG  1  14   1
M  END
>  <UniqueID>  (4) 
3

>  <SMILES>  (4) 
COc1ccc2c(c1)cc(SCC[NH+](C)C)c1ccccc12

>  <Energy>  (4) 
57.75882682959569

>  <Genealogy>  (4) 
COc1ccc2c(c1)cc(SCC[NH+](C)C)c1ccccc12 (protonated)
COc1ccc2c(c1)cc(SCC[NH+](C)C)c1ccccc12 (3D coordinates assigned)
COc1ccc2c(c1)cc(SCC[NH+](C)C)c1ccccc12 (optimized conformer: 57.75882682959569 kcal/mol)

>  <smiles>  (4) 
COc1ccc2c(c1)cc(SCCN(C)C)c1ccccc12

>  <score_type>  (4) 
oracle

>  <origin>  (4) 
adg

>  <m_score__min__energy>  (4) 
-6.3899999999999997

>  <m_primary>  (4) 
energy

$$$$
4:0
     RDKit          3D

 27 28  0  0  0  0  0  0  0  0999 V2000
   62.2995   31.4313   47.9003 H   0  0  0  0  0  0  0  0  0  0  0  0
   61.3530   31.5730   47.3580 C   0  0  0  0  0  0  0  0  0  0  0  0
   60.5940   30.4650   46.9800 C   0  0  0  0  0  0  0  0  0  0  0  0
   60.9459   29.4510   47.2207 H   0  0  0  0  0  0  0  0  0  0  0  0
   59.3890   30.6400   46.2970 C   0  0  0  0  0  0  0  0  0  0  0  0
   58.7964   29.7616   46.0017 H   0  0  0  0  0  0  0  0  0  0  0  0
   58.9260   31.9340   45.9830 C   0  0  0  0  0  0  0  0  0  0  0  0
   59.7060   33.0520   46.3540 C   0  0  0  0  0  0  0  0  0  0  0  0
   60.9130   32.8610   47.0490 C   0  0  0  0  0  0  0  0  0  0  0  0
   61.5140   33.7315   47.3509 H   0  0  0  0  0  0  0  0  0  0  0  0
   59.2550   34.4130   45.9890 C   0  0  0  0  0  0  0  0  0  0  0  0
   59.8540   35.4310   46.4320 O   0  0  0  0  0  0  0  0  0  0  0  0
   58.1240   34.5860   45.0190 C   0  0  0  0  0  0  0  0  0  0  0  0
   58.5119   34.4886   43.9943 H   0  0  0  0  0  0  0  0  0  0  0  0
   57.6818   35.5814   45.1728 H   0  0  0  0  0  0  0  0  0  0  0  0
   57.0370   33.5320   45.2440 C   0  0  0  0  0  0  0  0  0  0  0  0
   56.3093   33.5876   44.4209 H   0  0  0  0  0  0  0  0  0  0  0  0
   56.5520   33.7370   46.2098 H   0  0  0  0  0  0  0  0  0  0  0  0
   57.6210   32.1330   45.2920 C   0  0  0  0  0  0  0  0  0  0  0  0
   56.9600   31.0870   44.8730 N   0  0  0  0  0  0  0  0  0  0  0  0
   56.9160   30.5540   43.5120 C   0  0  0  0  0  0  0  0  0  0  0  0
   55.8797   30.2805   43.2642 H   0  0  0  0  0  0  0  0  0  0  0  0
   57.5668   29.6689   43.4566 H   0  0  0  0  0  0  0  0  0  0  0  0
   57.4130   31.5930   42.5120 C   0  0  0  0  0  0  0  0  0  0  0  0
   57.8259   32.4561   43.0547 H   0  0  0  0  0  0  0  0  0  0  0  0
   58.1960   31.1485   41.8801 H   0  0  0  0  0  0  0  0  0  0  0  0
   56.5756   31.9236   41.8801 H   0  0  0  0  0  0  0  0  0  0  0  0
  1  2  1  0
  2  3  2  0
  3  4  1  0
  3  5  1  0
  5  6  1  0
  5  7  2  0
  7  8  1  0
  8  9  2  0
  9 10  1  0
  8 11  1  0
 11 12  2  0
 11 13  1  0
 13 14  1  0
 13 15  1  0
 13 16  1  0
 16 17  1  0
 16 18  1  0
 16 19  1  0
 19 20  2  0
 20 21  1  0
 21 22  1  0
 21 23  1  0
 21 24  1  0
 24 25  1  0
 24 26  1  0
 24 27  1  0
  9  2  1  0
 19  7  1  0
M  END
>  <UniqueID>  (5) 
4

>  <SMILES>  (5) 
CC/N=C1\CCC(=O)c2ccccc21

>  <Energy>  (5) 
27.90537426207692

>  <Genealogy>  (5) 
CC/N=C1\CCC(=O)c2ccccc21 (cis-trans isomerization)
CC/N=C1\CCC(=O)c2ccccc21 (3D coordinates assigned)
CC/N=C1\CCC(=O)c2ccccc21 (nonaromatic ring conformer: 27.90537426207692 kcal/mol)

>  <smiles>  (5) 
CCN=C1CCC(=O)c2ccccc21

>  <score_type>  (5) 
oracle

>  <origin>  (5) 
adg

>  <m_score__min__energy>  (5) 
-6.0800000000000001

>  <m_primary>  (5) 
energy

$$$$
5:0
     RDKit          3D

 67 71  0  0  0  0  0  0  0  0999 V2000
   57.3950   31.7020   42.0650 C   0  0  0  0  0  0  0  0  0  0  0  0
   57.7610   32.5560   43.2740 C   0  0  0  0  0  0  0  0  0  0  0  0
   58.2280   31.6890   44.4170 C   0  0  0  0  0  0  0  0  0  0  0  0
   57.8560   30.3380   44.4620 C   0  0  0  0  0  0  0  0  0  0  0  0
   58.2900   29.4950   45.5030 C   0  0  0  0  0  0  0  0  0  0  0  0
   59.0990   30.0380   46.5270 C   0  0  0  0  0  0  0  0  0  0  0  0
   59.4650   31.3910   46.4820 C   0  0  0  0  0  0  0  0  0  0  0  0
   59.0370   32.2140   45.4370 C   0  0  0  0  0  0  0  0  0  0  0  0
   59.3960   33.5620   45.4260 O   0  0  0  0  0  0  0  0  0  0  0  0
   59.6700   34.4100   46.8820 S   0  0  0  0  0  0  0  0  0  0  0  0
   58.5760   34.0740   47.8560 O   0  0  0  0  0  0  0  0  0  0  0  0
   59.6510   35.8930   46.6370 O   0  0  0  0  0  0  0  0  0  0  0  0
   61.2370   33.9280   47.5430 C   0  0  0  0  0  0  0  0  0  0  0  0
   62.2990   33.6500   46.6690 C   0  0  0  0  0  0  0  0  0  0  0  0
   63.5590   33.3180   47.1700 C   0  0  0  0  0  0  0  0  0  0  0  0
   63.7720   33.2700   48.5470 C   0  0  0  0  0  0  0  0  0  0  0  0
   62.7280   33.5520   49.4290 C   0  0  0  0  0  0  0  0  0  0  0  0
   61.4480   33.8860   48.9370 C   0  0  0  0  0  0  0  0  0  0  0  0
   60.3810   34.1790   49.8000 O   0  0  0  0  0  0  0  0  0  0  0  0
   59.6830   33.2150   50.5810 C   0  0  0  0  0  0  0  0  0  0  0  0
   59.4750   29.2290   47.7340 C   0  0  0  0  0  0  0  0  0  0  0  0
   59.5260   27.7440   47.4090 C   0  0  0  0  0  0  0  0  0  0  0  0
   58.1880   27.2540   46.8180 C   0  0  1  0  0  0  0  0  0  0  0  0
   57.8180   28.0440   45.5250 C   0  0  2  0  0  0  0  0  0  0  0  0
   58.2790   27.2690   44.2850 C   0  0  0  0  0  0  0  0  0  0  0  0
   57.4370   26.0000   44.1510 C   0  0  0  0  0  0  0  0  0  0  0  0
   57.4750   25.0920   45.4290 C   0  0  2  0  0  0  0  0  0  0  0  0
   58.1390   23.7450   45.0200 C   0  0  0  0  0  0  0  0  0  0  0  0
   56.0780   24.7800   46.0280 C   0  0  2  0  0  0  0  0  0  0  0  0
   55.1810   25.8610   45.9160 O   0  0  0  0  0  0  0  0  0  0  0  0
   56.3270   24.4190   47.5020 C   0  0  0  0  0  0  0  0  0  0  0  0
   57.7120   24.9570   47.8690 C   0  0  0  0  0  0  0  0  0  0  0  0
   58.2620   25.6910   46.6300 C   0  0  2  0  0  0  0  0  0  0  0  0
   56.9831   30.7408   42.4062 H   0  0  0  0  0  0  0  0  0  0  0  0
   56.6434   32.2283   41.4583 H   0  0  0  0  0  0  0  0  0  0  0  0
   58.2945   31.5207   41.4583 H   0  0  0  0  0  0  0  0  0  0  0  0
   58.5670   33.2506   42.9949 H   0  0  0  0  0  0  0  0  0  0  0  0
   56.8698   33.1151   43.5951 H   0  0  0  0  0  0  0  0  0  0  0  0
   57.2128   29.9288   43.6690 H   0  0  0  0  0  0  0  0  0  0  0  0
   60.0968   31.8096   47.2792 H   0  0  0  0  0  0  0  0  0  0  0  0
   62.1376   33.6940   45.5818 H   0  0  0  0  0  0  0  0  0  0  0  0
   64.3842   33.0941   46.4780 H   0  0  0  0  0  0  0  0  0  0  0  0
   64.7660   33.0091   48.9394 H   0  0  0  0  0  0  0  0  0  0  0  0
   62.9037   33.5137   50.5142 H   0  0  0  0  0  0  0  0  0  0  0  0
   59.8369   33.4276   51.6492 H   0  0  0  0  0  0  0  0  0  0  0  0
   58.6089   33.2630   50.3486 H   0  0  0  0  0  0  0  0  0  0  0  0
   60.0638   32.2095   50.3486 H   0  0  0  0  0  0  0  0  0  0  0  0
   60.4648   29.5526   48.0883 H   0  0  0  0  0  0  0  0  0  0  0  0
   58.7127   29.3888   48.5107 H   0  0  0  0  0  0  0  0  0  0  0  0
   60.3280   27.5644   46.6778 H   0  0  0  0  0  0  0  0  0  0  0  0
   59.7178   27.1909   48.3403 H   0  0  0  0  0  0  0  0  0  0  0  0
   57.3584   27.4594   47.5105 H   0  0  0  0  0  0  0  0  0  0  0  0
   56.7209   28.1231   45.5175 H   0  0  0  0  0  0  0  0  0  0  0  0
   58.1489   27.8944   43.3895 H   0  0  0  0  0  0  0  0  0  0  0  0
   59.3412   27.0017   44.3868 H   0  0  0  0  0  0  0  0  0  0  0  0
   56.3936   26.2919   43.9611 H   0  0  0  0  0  0  0  0  0  0  0  0
   57.8611   25.4138   43.3224 H   0  0  0  0  0  0  0  0  0  0  0  0
   58.4159   23.1832   45.9243 H   0  0  0  0  0  0  0  0  0  0  0  0
   57.4296   23.1528   44.4233 H   0  0  0  0  0  0  0  0  0  0  0  0
   59.0408   23.9470   44.4233 H   0  0  0  0  0  0  0  0  0  0  0  0
   55.6006   23.9575   45.4752 H   0  0  0  0  0  0  0  0  0  0  0  0
   55.1200   26.3160   46.7940 H   0  0  0  0  0  0  0  0  0  0  0  0
   55.5604   24.8842   48.1391 H   0  0  0  0  0  0  0  0  0  0  0  0
   56.2772   23.3305   47.6524 H   0  0  0  0  0  0  0  0  0  0  0  0
   57.6325   25.6550   48.7155 H   0  0  0  0  0  0  0  0  0  0  0  0
   58.3824   24.1367   48.1651 H   0  0  0  0  0  0  0  0  0  0  0  0
   59.3364   25.5367   46.4515 H   0  0  0  0  0  0  0  0  0  0  0  0
  1  2  1  0
  2  3  1  0
  3  4  2  0
  4  5  1  0
  5  6  2  0
  6  7  1  0
  7  8  2  0
  8  9  1  0
  9 10  1  0
 10 11  2  0
 10 12  2  0
 10 13  1  0
 13 14  2  0
 14 15  1  0
 15 16  2  0
 16 17  1  0
 17 18  2  0
 18 19  1  0
 19 20  1  0
  6 21  1  0
 21 22  1  0
 22 23  1  0
 23 24  1  0
 24 25  1  0
 25 26  1  0
 26 27  1  0
 27 28  1  6
 27 29  1  0
 29 30  1  0
 29 31  1  0
 31 32  1  0
 32 33  1  0
  8  3  1  0
 18 13  1  0
 33 23  1  0
 24  5  1  0
 33 27  1  0
  1 34  1  0
  1 35  1  0
  1 36  1  0
  2 37  1  0
  2 38  1  0
  4 39  1  0
  7 40  1  0
 14 41  1  0
 15 42  1  0
 16 43  1  0
 17 44  1  0
 20 45  1  0
 20 46  1  0
 20 47  1  0
 21 48  1  0
 21 49  1  0
 22 50  1  0
 22 51  1  0
 23 52  1  1
 24 53  1  6
 25 54  1  0
 25 55  1  0
 26 56  1  0
 26 57  1  0
 28 58  1  0
 28 59  1  0
 28 60  1  0
 29 61  1  6
 30 62  1  0
 31 63  1  0
 31 64  1  0
 32 65  1  0
 32 66  1  0
 33 67  1  6
M  END
>  <UniqueID>  (6) 
5

>  <SMILES>  (6) 
CCc1cc2c(cc1OS(=O)(=O)c1ccccc1OC)CC[C@@H]1C3CCC(O)C3(C)CC[C@H]21

>  <Energy>  (6) 
90.45478865905498

>  <Genealogy>  (6) 
CCc1cc2c(cc1OS(=O)(=O)c1ccccc1OC)CC[C@@H]1C3CCC(O)C3(C)CC[C@H]21 (chirality)
CCc1cc2c(cc1OS(=O)(=O)c1ccccc1OC)CC[C@@H]1C3CCC(O)C3(C)CC[C@H]21 (3D coordinates assigned)
CCc1cc2c(cc1OS(=O)(=O)c1ccccc1OC)CC[C@@H]1C3CCC(O)C3(C)CC[C@H]21 (nonaromatic ring conformer: 90.45478865905498 kcal/mol)

>  <smiles>  (6) 
CCc1cc2c(cc1OS(=O)(=O)c1ccccc1OC)CCC1C2CCC2(C)C(O)CCC12

>  <score_type>  (6) 
oracle

>  <origin>  (6) 
adg

>  <m_score__min__energy>  (6) 
-11.609999999999999

>  <m_primary>  (6) 
energy

$$$$
6:0
     RDKit          3D

 51 54  0  0  0  0  0  0  0  0999 V2000
   61.6140   31.2320   47.9230 C   0  0  0  0  0  0  0  0  0  0  0  0
   60.1550   31.0110   48.3040 C   0  0  0  0  0  0  0  0  0  0  0  0
   59.2990   31.1150   47.1200 N   0  0  0  0  0  0  0  0  0  0  0  0
   58.9330   32.2530   46.4570 C   0  0  0  0  0  0  0  0  0  0  0  0
   59.3480   33.5650   46.7050 C   0  0  0  0  0  0  0  0  0  0  0  0
   58.8210   34.5920   45.8970 C   0  0  0  0  0  0  0  0  0  0  0  0
   57.8930   34.3010   44.8710 C   0  0  0  0  0  0  0  0  0  0  0  0
   57.4740   32.9800   44.6390 C   0  0  0  0  0  0  0  0  0  0  0  0
   58.0130   31.9850   45.4460 C   0  0  0  0  0  0  0  0  0  0  0  0
   57.8070   30.6360   45.5090 C   0  0  0  0  0  0  0  0  0  0  0  0
   57.0950   29.6060   44.9550 C   0  0  0  0  0  0  0  0  0  0  0  0
   57.5160   28.4860   45.6980 C   0  0  0  0  0  0  0  0  0  0  0  0
   56.9880   27.1250   45.4920 C   0  0  0  0  0  0  0  0  0  0  0  0
   57.7010   26.2760   44.8960 O   0  0  0  0  0  0  0  0  0  0  0  0
   55.7090   26.7190   45.9940 N   0  0  0  0  0  0  0  0  0  0  0  0
   55.1150   25.3880   45.8660 C   0  0  0  0  0  0  0  0  0  0  0  0
   56.1270   24.2980   46.2470 C   0  0  0  0  0  0  0  0  0  0  0  0
   56.7250   23.6600   45.0520 N   0  0  0  0  0  0  0  0  0  0  0  0
   55.8300   23.7650   43.8750 C   0  0  0  0  0  0  0  0  0  0  0  0
   56.2690   22.7890   42.7700 C   0  0  0  0  0  0  0  0  0  0  0  0
   56.2910   21.4220   43.1600 O   0  0  0  0  0  0  0  0  0  0  0  0
   56.2820   21.2310   44.5660 C   0  0  0  0  0  0  0  0  0  0  0  0
   57.1480   22.2590   45.3150 C   0  0  0  0  0  0  0  0  0  0  0  0
   58.4170   28.8360   46.6690 N   0  0  0  0  0  0  0  0  0  0  0  0
   59.1300   27.9610   47.6000 C   0  0  0  0  0  0  0  0  0  0  0  0
   58.5630   30.1620   46.4950 C   0  0  0  0  0  0  0  0  0  0  0  0
   62.2214   31.3240   48.8355 H   0  0  0  0  0  0  0  0  0  0  0  0
   61.9714   30.3777   47.3293 H   0  0  0  0  0  0  0  0  0  0  0  0
   61.7023   32.1538   47.3293 H   0  0  0  0  0  0  0  0  0  0  0  0
   60.0430   30.0099   48.7459 H   0  0  0  0  0  0  0  0  0  0  0  0
   59.8547   31.7797   49.0312 H   0  0  0  0  0  0  0  0  0  0  0  0
   60.0655   33.7890   47.5081 H   0  0  0  0  0  0  0  0  0  0  0  0
   59.1353   35.6324   46.0665 H   0  0  0  0  0  0  0  0  0  0  0  0
   57.4953   35.1161   44.2486 H   0  0  0  0  0  0  0  0  0  0  0  0
   56.7469   32.7423   43.8486 H   0  0  0  0  0  0  0  0  0  0  0  0
   56.3694   29.6441   44.1291 H   0  0  0  0  0  0  0  0  0  0  0  0
   54.2420   25.3176   46.5316 H   0  0  0  0  0  0  0  0  0  0  0  0
   54.8129   25.2369   44.8192 H   0  0  0  0  0  0  0  0  0  0  0  0
   56.9294   24.7515   46.8475 H   0  0  0  0  0  0  0  0  0  0  0  0
   55.5953   23.5227   46.8181 H   0  0  0  0  0  0  0  0  0  0  0  0
   54.8011   23.5249   44.1811 H   0  0  0  0  0  0  0  0  0  0  0  0
   55.8814   24.7910   43.4818 H   0  0  0  0  0  0  0  0  0  0  0  0
   55.5731   22.8931   41.9245 H   0  0  0  0  0  0  0  0  0  0  0  0
   57.3047   23.0558   42.5130 H   0  0  0  0  0  0  0  0  0  0  0  0
   55.2459   21.3166   44.9253 H   0  0  0  0  0  0  0  0  0  0  0  0
   56.7037   20.2351   44.7668 H   0  0  0  0  0  0  0  0  0  0  0  0
   57.0716   22.0644   46.3949 H   0  0  0  0  0  0  0  0  0  0  0  0
   58.1820   22.1493   44.9562 H   0  0  0  0  0  0  0  0  0  0  0  0
   58.8918   28.2533   48.6334 H   0  0  0  0  0  0  0  0  0  0  0  0
   58.8209   26.9186   47.4333 H   0  0  0  0  0  0  0  0  0  0  0  0
   60.2134   28.0533   47.4333 H   0  0  0  0  0  0  0  0  0  0  0  0
  1  2  1  0
  2  3  1  0
  3  4  1  0
  4  5  2  0
  5  6  1  0
  6  7  2  0
  7  8  1  0
  8  9  2  0
  9 10  1  0
 10 11  1  0
 11 12  2  0
 12 13  1  0
 13 14  2  0
 13 15  1  0
 15 16  1  0
 16 17  1  0
 17 18  1  0
 18 19  1  0
 19 20  1  0
 20 21  1  0
 21 22  1  0
 22 23  1  0
 12 24  1  0
 24 25  1  0
 24 26  1  0
 26  3  1  0
  9  4  1  0
 26 10  2  0
 23 18  1  0
  1 27  1  0
  1 28  1  0
  1 29  1  0
  2 30  1  0
  2 31  1  0
  5 32  1  0
  6 33  1  0
  7 34  1  0
  8 35  1  0
 11 36  1  0
 16 37  1  0
 16 38  1  0
 17 39  1  0
 17 40  1  0
 19 41  1  0
 19 42  1  0
 20 43  1  0
 20 44  1  0
 22 45  1  0
 22 46  1  0
 23 47  1  0
 23 48  1  0
 25 49  1  0
 25 50  1  0
 25 51  1  0
M  CHG  1  15  -1
M  END
>  <UniqueID>  (7) 
6

>  <SMILES>  (7) 
CCn1c2ccccc2c2cc(C(=O)[N-]CCN3CCOCC3)n(C)c21

>  <Energy>  (7) 
156.86008782812564

>  <Genealogy>  (7) 
CCn1c2ccccc2c2cc(C(=O)[N-]CCN3CCOCC3)n(C)c21 (protonated)
CCn1c2ccccc2c2cc(C(=O)[N-]CCN3CCOCC3)n(C)c21 (3D coordinates assigned)
CCn1c2ccccc2c2cc(C(=O)[N-]CCN3CCOCC3)n(C)c21 (nonaromatic ring conformer: 156.86008782812564 kcal/mol)

>  <smiles>  (7) 
CCn1c2ccccc2c2cc(C(=O)NCCN3CCOCC3)n(C)c21

>  <score_type>  (7) 
oracle

>  <origin>  (7) 
adg

>  <m_score__min__energy>  (7) 
-9.6799999999999997

>  <m_primary>  (7) 
energy

$$$$
7:0
     RDKit          3D

 40 41  0  0  0  0  0  0  0  0999 V2000
   55.8340   29.7230   43.7290 C   0  0  0  0  0  0  0  0  0  0  0  0
   56.2810   29.3000   45.0120 O   0  0  0  0  0  0  0  0  0  0  0  0
   57.4920   29.7240   45.5640 C   0  0  0  0  0  0  0  0  0  0  0  0
   58.3480   28.8850   45.9570 O   0  0  0  0  0  0  0  0  0  0  0  0
   57.7630   31.1610   45.6830 C   0  0  0  0  0  0  0  0  0  0  0  0
   58.7790   31.7380   46.4220 C   0  0  0  0  0  0  0  0  0  0  0  0
   58.6390   33.0950   46.2340 C   0  0  0  0  0  0  0  0  0  0  0  0
   59.6970   34.3270   46.9150 S   0  0  0  0  0  0  0  0  0  0  0  0
   60.1130   35.3050   45.8510 O   0  0  0  0  0  0  0  0  0  0  0  0
   58.9350   35.0700   47.9760 O   0  0  0  0  0  0  0  0  0  0  0  0
   61.1050   33.5710   47.6190 N   0  0  2  0  0  0  0  0  0  0  0  0
   61.3760   34.1540   48.9470 C   0  0  0  0  0  0  0  0  0  0  0  0
   62.4990   33.3890   49.6790 C   0  0  0  0  0  0  0  0  0  0  0  0
   63.4520   32.6580   48.7080 C   0  0  2  0  0  0  0  0  0  0  0  0
   64.8090   32.3880   49.3680 C   0  0  0  0  0  0  0  0  0  0  0  0
   63.6220   33.4630   47.4110 C   0  0  0  0  0  0  0  0  0  0  0  0
   62.2670   33.7190   46.7120 C   0  0  0  0  0  0  0  0  0  0  0  0
   57.5550   33.2630   45.3890 C   0  0  0  0  0  0  0  0  0  0  0  0
   57.0020   34.5550   44.8810 C   0  0  0  0  0  0  0  0  0  0  0  0
   57.0540   32.0890   45.0820 O   0  0  0  0  0  0  0  0  0  0  0  0
   55.0396   30.4747   43.8469 H   0  0  0  0  0  0  0  0  0  0  0  0
   56.6757   30.1630   43.1741 H   0  0  0  0  0  0  0  0  0  0  0  0
   55.4411   28.8583   43.1741 H   0  0  0  0  0  0  0  0  0  0  0  0
   59.5373   31.2231   47.0302 H   0  0  0  0  0  0  0  0  0  0  0  0
   60.8770   32.5550   47.7310 H   0  0  0  0  0  0  0  0  0  0  0  0
   61.6806   35.2035   48.8218 H   0  0  0  0  0  0  0  0  0  0  0  0
   60.4587   34.0832   49.5500 H   0  0  0  0  0  0  0  0  0  0  0  0
   63.0841   34.1063   50.2733 H   0  0  0  0  0  0  0  0  0  0  0  0
   62.0232   32.6275   50.3144 H   0  0  0  0  0  0  0  0  0  0  0  0
   63.0037   31.6862   48.4538 H   0  0  0  0  0  0  0  0  0  0  0  0
   64.6956   32.4106   50.4619 H   0  0  0  0  0  0  0  0  0  0  0  0
   65.1773   31.3990   49.0578 H   0  0  0  0  0  0  0  0  0  0  0  0
   65.5278   33.1607   49.0578 H   0  0  0  0  0  0  0  0  0  0  0  0
   64.0872   34.4305   47.6509 H   0  0  0  0  0  0  0  0  0  0  0  0
   64.2547   32.8788   46.7266 H   0  0  0  0  0  0  0  0  0  0  0  0
   62.2688   34.7431   46.3104 H   0  0  0  0  0  0  0  0  0  0  0  0
   62.1607   32.9642   45.9189 H   0  0  0  0  0  0  0  0  0  0  0  0
   56.7276   35.1961   45.7317 H   0  0  0  0  0  0  0  0  0  0  0  0
   57.7614   35.0634   44.2687 H   0  0  0  0  0  0  0  0  0  0  0  0
   56.1100   34.3565   44.2687 H   0  0  0  0  0  0  0  0  0  0  0  0
  1  2  1  0
  2  3  1  0
  3  4  2  0
  3  5  1  0
  5  6  2  0
  6  7  1  0
  7  8  1  0
  8  9  2  0
  8 10  2  0
  8 11  1  0
 11 12  1  0
 12 13  1  0
 13 14  1  0
 14 15  1  0
 14 16  1  0
 16 17  1  0
  7 18  2  0
 18 19  1  0
 18 20  1  0
 20  5  1  0
 17 11  1  0
  1 21  1  0
  1 22  1  0
  1 23  1  0
  6 24  1  0
 11 25  1  1
 12 26  1  0
 12 27  1  0
 13 28  1  0
 13 29  1  0
 14 30  1  6
 15 31  1  0
 15 32  1  0
 15 33  1  0
 16 34  1  0
 16 35  1  0
 17 36  1  0
 17 37  1  0
 19 38  1  0
 19 39  1  0
 19 40  1  0
M  CHG  1  11   1
M  END
>  <UniqueID>  (8) 
7

>  <SMILES>  (8) 
COC(=O)c1cc(S(=O)(=O)[NH+]2CCC(C)CC2)c(C)o1

>  <Energy>  (8) 
62.138044383771835

>  <Genealogy>  (8) 
COC(=O)c1cc(S(=O)(=O)[NH+]2CCC(C)CC2)c(C)o1 (protonated)
COC(=O)c1cc(S(=O)(=O)[NH+]2CCC(C)CC2)c(C)o1 (3D coordinates assigned)
COC(=O)c1cc(S(=O)(=O)[NH+]2CCC(C)CC2)c(C)o1 (nonaromatic ring conformer: 62.138044383771835 kcal/mol)

>  <smiles>  (8) 
COC(=O)c1cc(S(=O)(=O)N2CCC(C)CC2)c(C)o1

>  <score_type>  (8) 
oracle

>  <origin>  (8) 
adg

>  <m_score__min__energy>  (8) 
-5.75

>  <m_primary>  (8) 
energy

$$$$
8:0
     RDKit          3D

 42 44  0  0  0  0  0  0  0  0999 V2000
   57.5670   24.6630   47.3120 C   0  0  0  0  0  0  0  0  0  0  0  0
   57.0300   25.8290   46.5470 C   0  0  0  0  0  0  0  0  0  0  0  0
   55.7140   26.0570   46.3690 N   0  0  0  0  0  0  0  0  0  0  0  0
   55.6070   27.1320   45.6410 O   0  0  0  0  0  0  0  0  0  0  0  0
   56.7870   27.6130   45.3240 C   0  0  0  0  0  0  0  0  0  0  0  0
   57.0000   28.8540   44.5210 C   0  0  0  0  0  0  0  0  0  0  0  0
   57.7590   26.7970   45.8770 C   0  0  0  0  0  0  0  0  0  0  0  0
   59.2590   26.9500   45.7890 C   0  0  0  0  0  0  0  0  0  0  0  0
   59.7870   27.9420   46.7560 N   0  0  0  0  0  0  0  0  0  0  0  0
   60.2730   29.1790   46.0820 C   0  0  0  0  0  0  0  0  0  0  0  0
   59.2110   30.2920   46.0650 C   0  0  0  0  0  0  0  0  0  0  0  0
   58.7720   30.6760   47.4330 N   0  0  0  0  0  0  0  0  0  0  0  0
   59.4090   31.9270   47.8920 C   0  0  0  0  0  0  0  0  0  0  0  0
   59.1560   33.0290   46.9110 C   0  0  0  0  0  0  0  0  0  0  0  0
   60.0300   34.0640   46.6000 C   0  0  0  0  0  0  0  0  0  0  0  0
   59.5260   34.9360   45.6280 C   0  0  0  0  0  0  0  0  0  0  0  0
   58.2590   34.5890   45.1720 C   0  0  0  0  0  0  0  0  0  0  0  0
   57.7680   33.1970   45.9770 S   0  0  0  0  0  0  0  0  0  0  0  0
   58.9610   29.6000   48.4330 C   0  0  0  0  0  0  0  0  0  0  0  0
   58.7630   28.2180   47.7990 C   0  0  0  0  0  0  0  0  0  0  0  0
   57.4767   24.8591   48.3906 H   0  0  0  0  0  0  0  0  0  0  0  0
   56.9940   23.7601   47.0543 H   0  0  0  0  0  0  0  0  0  0  0  0
   58.6256   24.5115   47.0543 H   0  0  0  0  0  0  0  0  0  0  0  0
   57.1466   29.7083   45.1983 H   0  0  0  0  0  0  0  0  0  0  0  0
   57.8903   28.7320   43.8866 H   0  0  0  0  0  0  0  0  0  0  0  0
   56.1199   29.0358   43.8866 H   0  0  0  0  0  0  0  0  0  0  0  0
   59.7255   25.9751   45.9938 H   0  0  0  0  0  0  0  0  0  0  0  0
   59.4992   27.3092   44.7774 H   0  0  0  0  0  0  0  0  0  0  0  0
   60.6080   27.5140   47.2460 H   0  0  0  0  0  0  0  0  0  0  0  0
   61.1617   29.5466   46.6159 H   0  0  0  0  0  0  0  0  0  0  0  0
   60.5078   28.9228   45.0383 H   0  0  0  0  0  0  0  0  0  0  0  0
   59.6347   31.1773   45.5682 H   0  0  0  0  0  0  0  0  0  0  0  0
   58.3322   29.9095   45.5252 H   0  0  0  0  0  0  0  0  0  0  0  0
   58.9919   32.2090   48.8700 H   0  0  0  0  0  0  0  0  0  0  0  0
   60.4938   31.7659   47.9773 H   0  0  0  0  0  0  0  0  0  0  0  0
   61.0172   34.1855   47.0698 H   0  0  0  0  0  0  0  0  0  0  0  0
   60.0795   35.8124   45.2599 H   0  0  0  0  0  0  0  0  0  0  0  0
   57.6769   35.1328   44.4135 H   0  0  0  0  0  0  0  0  0  0  0  0
   59.9798   29.6649   48.8427 H   0  0  0  0  0  0  0  0  0  0  0  0
   58.2150   29.7290   49.2311 H   0  0  0  0  0  0  0  0  0  0  0  0
   58.8375   27.4511   48.5841 H   0  0  0  0  0  0  0  0  0  0  0  0
   57.7720   28.1972   47.3221 H   0  0  0  0  0  0  0  0  0  0  0  0
  1  2  1  0
  2  3  2  0
  3  4  1  0
  4  5  1  0
  5  6  1  0
  5  7  2  0
  7  8  1  0
  8  9  1  0
  9 10  1  0
 10 11  1  0
 11 12  1  0
 12 13  1  0
 13 14  1  0
 14 15  2  0
 15 16  1  0
 16 17  2  0
 17 18  1  0
 12 19  1  0
 19 20  1  0
  7  2  1  0
 20  9  1  0
 18 14  1  0
  1 21  1  0
  1 22  1  0
  1 23  1  0
  6 24  1  0
  6 25  1  0
  6 26  1  0
  8 27  1  0
  8 28  1  0
  9 29  1  0
 10 30  1  0
 10 31  1  0
 11 32  1  0
 11 33  1  0
 13 34  1  0
 13 35  1  0
 15 36  1  0
 16 37  1  0
 17 38  1  0
 19 39  1  0
 19 40  1  0
 20 41  1  0
 20 42  1  0
M  CHG  1   9   1
M  END
>  <UniqueID>  (9) 
8

>  <SMILES>  (9) 
Cc1noc(C)c1C[NH+]1CCN(Cc2cccs2)CC1

>  <Energy>  (9) 
109.51982726894144

>  <Genealogy>  (9) 
Cc1noc(C)c1C[NH+]1CCN(Cc2cccs2)CC1 (protonated)
Cc1noc(C)c1C[NH+]1CCN(Cc2cccs2)CC1 (3D coordinates assigned)
Cc1noc(C)c1C[NH+]1CCN(Cc2cccs2)CC1 (nonaromatic ring conformer: 109.51982726894144 kcal/mol)

>  <smiles>  (9) 
Cc1noc(C)c1CN1CCN(Cc2cccs2)CC1

>  <score_type>  (9) 
oracle

>  <origin>  (9) 
adg

>  <m_score__min__energy>  (9) 
-5.7300000000000004

>  <m_primary>  (9) 
energy

$$$$
9:0
     RDKit          3D

 28 30  0  0  0  0  0  0  0  0999 V2000
   59.1895   34.9363   44.9682 H   0  0  0  0  0  0  0  0  0  0  0  0
   58.8950   33.8860   45.1100 C   0  0  0  0  0  0  0  0  0  0  0  0
   59.2610   33.2130   46.2810 C   0  0  0  0  0  0  0  0  0  0  0  0
   59.8418   33.7366   47.0546 H   0  0  0  0  0  0  0  0  0  0  0  0
   58.8920   31.8790   46.4720 C   0  0  0  0  0  0  0  0  0  0  0  0
   59.1819   31.3539   47.3941 H   0  0  0  0  0  0  0  0  0  0  0  0
   58.1520   31.2110   45.4870 C   0  0  0  0  0  0  0  0  0  0  0  0
   57.7770   31.8910   44.2930 C   0  0  0  0  0  0  0  0  0  0  0  0
   58.1570   33.2310   44.1190 C   0  0  0  0  0  0  0  0  0  0  0  0
   57.8737   33.7671   43.2012 H   0  0  0  0  0  0  0  0  0  0  0  0
   57.0290   31.2160   43.2960 C   0  0  0  0  0  0  0  0  0  0  0  0
   56.7427   31.7458   42.3755 H   0  0  0  0  0  0  0  0  0  0  0  0
   56.6500   29.8720   43.4760 C   0  0  0  0  0  0  0  0  0  0  0  0
   56.0695   29.3380   42.7093 H   0  0  0  0  0  0  0  0  0  0  0  0
   57.0340   29.2410   44.6560 C   0  0  0  0  0  0  0  0  0  0  0  0
   57.7550   29.8770   45.6240 C   0  0  0  0  0  0  0  0  0  0  0  0
   57.9920   29.0420   46.6550 N   0  0  0  0  0  0  0  0  0  0  0  0
   57.3830   27.8940   46.2520 C   0  0  0  0  0  0  0  0  0  0  0  0
   57.3610   26.7990   46.9550 N   0  0  0  0  0  0  0  0  0  0  0  0
   56.4080   25.7330   46.8350 C   0  0  0  0  0  0  0  0  0  0  0  0
   56.5520   24.6560   47.4780 O   0  0  0  0  0  0  0  0  0  0  0  0
   55.3090   25.9060   45.9900 O   0  0  0  0  0  0  0  0  0  0  0  0
   54.7040   24.8270   45.2870 C   0  0  0  0  0  0  0  0  0  0  0  0
   54.2975   24.1020   46.0075 H   0  0  0  0  0  0  0  0  0  0  0  0
   53.8900   25.2117   44.6550 H   0  0  0  0  0  0  0  0  0  0  0  0
   55.4568   24.3332   44.6550 H   0  0  0  0  0  0  0  0  0  0  0  0
   56.7900   27.9820   45.0380 N   0  0  0  0  0  0  0  0  0  0  0  0
   56.2650   27.2420   44.5200 H   0  0  0  0  0  0  0  0  0  0  0  0
  1  2  1  0
  2  3  2  0
  3  4  1  0
  3  5  1  0
  5  6  1  0
  5  7  2  0
  7  8  1  0
  8  9  2  0
  9 10  1  0
  8 11  1  0
 11 12  1  0
 11 13  2  0
 13 14  1  0
 13 15  1  0
 15 16  2  0
 16 17  1  0
 17 18  1  0
 18 19  2  0
 19 20  1  0
 20 21  2  0
 20 22  1  0
 22 23  1  0
 23 24  1  0
 23 25  1  0
 23 26  1  0
 18 27  1  0
 27 28  1  0
  9  2  1  0
 27 15  1  0
 16  7  1  0
M  CHG  1  17  -1
M  END
>  <UniqueID>  (10) 
9

>  <SMILES>  (10) 
COC(=O)/N=c1\[n-]c2c(ccc3ccccc32)[nH]1

>  <Energy>  (10) 
69.7997953431929

>  <Genealogy>  (10) 
COC(=O)N=c1[n-]c2c(ccc3ccccc32)[nH]1 (protonated)
COC(=O)/N=c1\[n-]c2c(ccc3ccccc32)[nH]1 (cis-trans isomerization)
COC(=O)/N=c1\[n-]c2c(ccc3ccccc32)[nH]1 (3D coordinates assigned)
COC(=O)/N=c1\[n-]c2c(ccc3ccccc32)[nH]1 (optimized conformer: 69.7997953431929 kcal/mol)

>  <smiles>  (10) 
COC(=O)N=c1[nH]c2ccc3ccccc3c2[nH]1

>  <score_type>  (10) 
oracle

>  <origin>  (10) 
adg

>  <m_score__min__energy>  (10) 
-8.3399999999999999

>  <m_primary>  (10) 
energy

$$$$
10:0
     RDKit          3D

 55 58  0  0  0  0  0  0  0  0999 V2000
   58.3210   22.3500   44.1480 C   0  0  0  0  0  0  0  0  0  0  0  0
   57.2970   23.3230   44.6610 C   0  0  0  0  0  0  0  0  0  0  0  0
   57.6860   24.5630   45.1810 C   0  0  0  0  0  0  0  0  0  0  0  0
   56.7540   25.4580   45.6390 N   0  0  0  0  0  0  0  0  0  0  0  0
   57.1900   26.7730   46.1580 C   0  0  2  0  0  0  0  0  0  0  0  0
   57.0780   27.8440   45.0770 C   0  0  0  0  0  0  0  0  0  0  0  0
   58.5060   28.0970   44.6830 C   0  0  1  0  0  0  0  0  0  0  0  0
   58.7250   29.4470   44.3630 O   0  0  0  0  0  0  0  0  0  0  0  0
   59.2960   27.6440   45.9130 C   0  0  1  0  0  0  0  0  0  0  0  0
   59.7320   28.7830   46.8570 C   0  0  0  0  0  0  0  0  0  0  0  0
   58.8730   28.8440   48.0490 N   0  0  0  0  0  0  0  0  0  0  0  0
   59.6440   29.1280   49.2680 C   0  0  0  0  0  0  0  0  0  0  0  0
   59.3860   30.5200   49.7920 C   0  0  0  0  0  0  0  0  0  0  0  0
   58.5960   30.7140   50.9380 C   0  0  0  0  0  0  0  0  0  0  0  0
   58.3380   32.0060   51.4050 C   0  0  0  0  0  0  0  0  0  0  0  0
   58.8630   33.1120   50.7330 C   0  0  0  0  0  0  0  0  0  0  0  0
   59.6470   32.9300   49.5890 C   0  0  0  0  0  0  0  0  0  0  0  0
   60.3220   34.3490   48.7260 S   0  0  0  0  0  0  0  0  0  0  0  0
   62.0120   33.9000   49.1190 C   0  0  0  0  0  0  0  0  0  0  0  0
   62.4940   34.0540   50.4260 C   0  0  0  0  0  0  0  0  0  0  0  0
   63.8110   33.6970   50.7330 C   0  0  0  0  0  0  0  0  0  0  0  0
   64.6510   33.1900   49.7350 C   0  0  0  0  0  0  0  0  0  0  0  0
   66.3020   32.7420   50.1220 Cl  0  0  0  0  0  0  0  0  0  0  0  0
   64.1720   33.0410   48.4290 C   0  0  0  0  0  0  0  0  0  0  0  0
   62.8550   33.3960   48.1200 C   0  0  0  0  0  0  0  0  0  0  0  0
   59.9030   31.6360   49.1160 C   0  0  0  0  0  0  0  0  0  0  0  0
   58.5230   26.7020   46.6280 O   0  0  0  0  0  0  0  0  0  0  0  0
   55.4200   25.1500   45.5390 C   0  0  0  0  0  0  0  0  0  0  0  0
   54.5380   25.9680   45.9160 O   0  0  0  0  0  0  0  0  0  0  0  0
   55.0290   23.9560   45.0250 N   0  0  0  0  0  0  0  0  0  0  0  0
   55.9280   23.0420   44.5870 C   0  0  0  0  0  0  0  0  0  0  0  0
   55.5190   21.9480   44.1130 O   0  0  0  0  0  0  0  0  0  0  0  0
   58.8275   21.8687   44.9976 H   0  0  0  0  0  0  0  0  0  0  0  0
   57.8239   21.5834   43.5354 H   0  0  0  0  0  0  0  0  0  0  0  0
   59.0612   22.8856   43.5354 H   0  0  0  0  0  0  0  0  0  0  0  0
   58.7541   24.8229   45.2227 H   0  0  0  0  0  0  0  0  0  0  0  0
   56.5299   27.0458   46.9946 H   0  0  0  0  0  0  0  0  0  0  0  0
   56.4929   27.4781   44.2204 H   0  0  0  0  0  0  0  0  0  0  0  0
   56.5629   28.7514   45.4253 H   0  0  0  0  0  0  0  0  0  0  0  0
   58.8080   27.5576   43.7731 H   0  0  0  0  0  0  0  0  0  0  0  0
   58.5760   29.5320   43.3840 H   0  0  0  0  0  0  0  0  0  0  0  0
   60.2309   27.2035   45.5364 H   0  0  0  0  0  0  0  0  0  0  0  0
   60.7715   28.6096   47.1723 H   0  0  0  0  0  0  0  0  0  0  0  0
   59.6448   29.7366   46.3157 H   0  0  0  0  0  0  0  0  0  0  0  0
   58.3810   27.9260   48.1630 H   0  0  0  0  0  0  0  0  0  0  0  0
   59.3632   28.3996   50.0430 H   0  0  0  0  0  0  0  0  0  0  0  0
   60.7126   29.0530   49.0180 H   0  0  0  0  0  0  0  0  0  0  0  0
   58.1791   29.8458   51.4695 H   0  0  0  0  0  0  0  0  0  0  0  0
   57.7203   32.1519   52.3034 H   0  0  0  0  0  0  0  0  0  0  0  0
   58.6597   34.1275   51.1038 H   0  0  0  0  0  0  0  0  0  0  0  0
   61.8362   34.4558   51.2107 H   0  0  0  0  0  0  0  0  0  0  0  0
   64.1870   33.8148   51.7600 H   0  0  0  0  0  0  0  0  0  0  0  0
   64.8323   32.6440   47.6439 H   0  0  0  0  0  0  0  0  0  0  0  0
   62.4809   33.2794   47.0922 H   0  0  0  0  0  0  0  0  0  0  0  0
   60.5118   31.4943   48.2109 H   0  0  0  0  0  0  0  0  0  0  0  0
  1  2  1  0
  2  3  2  0
  3  4  1  0
  4  5  1  0
  5  6  1  0
  6  7  1  0
  7  8  1  0
  7  9  1  0
  9 10  1  0
 10 11  1  0
 11 12  1  0
 12 13  1  0
 13 14  2  0
 14 15  1  0
 15 16  2  0
 16 17  1  0
 17 18  1  0
 18 19  1  0
 19 20  2  0
 20 21  1  0
 21 22  2  0
 22 23  1  0
 22 24  1  0
 24 25  2  0
 17 26  2  0
  9 27  1  0
  4 28  1  0
 28 29  2  0
 28 30  1  0
 30 31  1  0
 31 32  2  0
 31  2  1  0
 27  5  1  0
 26 13  1  0
 25 19  1  0
  1 33  1  0
  1 34  1  0
  1 35  1  0
  3 36  1  0
  5 37  1  1
  6 38  1  0
  6 39  1  0
  7 40  1  6
  8 41  1  0
  9 42  1  6
 10 43  1  0
 10 44  1  0
 11 45  1  0
 12 46  1  0
 12 47  1  0
 14 48  1  0
 15 49  1  0
 16 50  1  0
 20 51  1  0
 21 52  1  0
 24 53  1  0
 25 54  1  0
 26 55  1  0
M  CHG  1  30  -1
M  END
>  <UniqueID>  (11) 
10

>  <SMILES>  (11) 
Cc1cn([C@@H]2C[C@@H](O)C(CNCc3cccc(Sc4ccc(Cl)cc4)c3)O2)c(=O)[n-]c1=O

>  <Energy>  (11) 
58.29350702246431

>  <Genealogy>  (11) 
Cc1cn(C2CC(O)C(CNCc3cccc(Sc4ccc(Cl)cc4)c3)O2)c(=O)[n-]c1=O (protonated)
Cc1cn([C@@H]2C[C@@H](O)C(CNCc3cccc(Sc4ccc(Cl)cc4)c3)O2)c(=O)[n-]c1=O (chirality)
Cc1cn([C@@H]2C[C@@H](O)C(CNCc3cccc(Sc4ccc(Cl)cc4)c3)O2)c(=O)[n-]c1=O (3D coordinates assigned)
Cc1cn([C@@H]2C[C@@H](O)C(CNCc3cccc(Sc4ccc(Cl)cc4)c3)O2)c(=O)[n-]c1=O (nonaromatic ring conformer: 58.29350702246431 kcal/mol)

>  <smiles>  (11) 
Cc1cn(C2CC(O)C(CNCc3cccc(Sc4ccc(Cl)cc4)c3)O2)c(=O)[nH]c1=O

>  <score_type>  (11) 
oracle

>  <origin>  (11) 
adg

>  <m_score__min__energy>  (11) 
-11.470000000000001

>  <m_primary>  (11) 
energy

$$$$
11:0
     RDKit          3D

 37 37  0  0  0  0  0  0  0  0999 V2000
   57.9413   31.1570   46.7978 H   0  0  0  0  0  0  0  0  0  0  0  0
   58.1120   31.5780   45.7960 C   0  0  0  0  0  0  0  0  0  0  0  0
   57.4460   30.9060   44.6590 C   0  0  0  0  0  0  0  0  0  0  0  0
   56.4570   30.1600   44.8930 O   0  0  0  0  0  0  0  0  0  0  0  0
   57.9210   31.0440   43.3510 O   0  0  0  0  0  0  0  0  0  0  0  0
   57.0700   31.3290   42.2460 C   0  0  0  0  0  0  0  0  0  0  0  0
   56.1186   31.7419   42.6126 H   0  0  0  0  0  0  0  0  0  0  0  0
   56.8753   30.4035   41.6843 H   0  0  0  0  0  0  0  0  0  0  0  0
   57.7450   32.3420   41.3360 C   0  0  0  0  0  0  0  0  0  0  0  0
   58.2522   33.1031   41.9471 H   0  0  0  0  0  0  0  0  0  0  0  0
   58.4831   31.8300   40.7011 H   0  0  0  0  0  0  0  0  0  0  0  0
   56.9883   32.8260   40.7011 H   0  0  0  0  0  0  0  0  0  0  0  0
   58.9170   32.6710   45.7110 C   0  0  0  0  0  0  0  0  0  0  0  0
   58.4860   33.8710   44.8740 C   0  0  0  0  0  0  0  0  0  0  0  0
   58.6407   33.6354   43.8107 H   0  0  0  0  0  0  0  0  0  0  0  0
   57.4258   34.0701   45.0894 H   0  0  0  0  0  0  0  0  0  0  0  0
   59.2850   35.1380   45.2220 C   0  0  0  0  0  0  0  0  0  0  0  0
   60.2824   35.0694   44.7632 H   0  0  0  0  0  0  0  0  0  0  0  0
   58.7367   36.0099   44.8358 H   0  0  0  0  0  0  0  0  0  0  0  0
   59.4440   35.3010   46.7420 C   0  0  0  0  0  0  0  0  0  0  0  0
   60.1897   36.0837   46.9452 H   0  0  0  0  0  0  0  0  0  0  0  0
   58.4707   35.5805   47.1715 H   0  0  0  0  0  0  0  0  0  0  0  0
   59.8990   34.0080   47.3720 C   0  0  0  0  0  0  0  0  0  0  0  0
   60.0460   33.9600   48.5860 O   0  0  0  0  0  0  0  0  0  0  0  0
   60.1200   32.8430   46.5310 N   0  0  1  0  0  0  0  0  0  0  0  0
   60.8960   33.1030   45.8790 H   0  0  0  0  0  0  0  0  0  0  0  0
   60.6090   31.6660   47.3010 C   0  0  0  0  0  0  0  0  0  0  0  0
   60.1153   31.6592   48.2840 H   0  0  0  0  0  0  0  0  0  0  0  0
   60.3684   30.7650   46.7176 H   0  0  0  0  0  0  0  0  0  0  0  0
   62.1330   31.6860   47.5160 C   0  0  0  0  0  0  0  0  0  0  0  0
   62.3504   31.8292   48.5848 H   0  0  0  0  0  0  0  0  0  0  0  0
   62.5628   30.7314   47.1783 H   0  0  0  0  0  0  0  0  0  0  0  0
   62.7010   32.7460   46.7740 O   0  0  0  0  0  0  0  0  0  0  0  0
   63.7310   33.3460   47.5260 C   0  0  0  0  0  0  0  0  0  0  0  0
   63.5208   33.2236   48.5988 H   0  0  0  0  0  0  0  0  0  0  0  0
   64.6901   32.8653   47.2831 H   0  0  0  0  0  0  0  0  0  0  0  0
   63.7860   34.4174   47.2831 H   0  0  0  0  0  0  0  0  0  0  0  0
  1  2  1  0
  2  3  1  0
  3  4  2  0
  3  5  1  0
  5  6  1  0
  6  7  1  0
  6  8  1  0
  6  9  1  0
  9 10  1  0
  9 11  1  0
  9 12  1  0
  2 13  2  0
 13 14  1  0
 14 15  1  0
 14 16  1  0
 14 17  1  0
 17 18  1  0
 17 19  1  0
 17 20  1  0
 20 21  1  0
 20 22  1  0
 20 23  1  0
 23 24  2  0
 23 25  1  0
 25 26  1  6
 25 27  1  0
 27 28  1  0
 27 29  1  0
 27 30  1  0
 30 31  1  0
 30 32  1  0
 30 33  1  0
 33 34  1  0
 34 35  1  0
 34 36  1  0
 34 37  1  0
 25 13  1  0
M  CHG  1  25   1
M  END
>  <UniqueID>  (12) 
11

>  <SMILES>  (12) 
CCOC(=O)/C=C1\CCCC(=O)[N@H+]1CCOC

>  <Energy>  (12) 
44.21656768511105

>  <Genealogy>  (12) 
CCOC(=O)C=C1CCCC(=O)[NH+]1CCOC (protonated)
CCOC(=O)C=C1CCCC(=O)[N@H+]1CCOC (chirality)
CCOC(=O)/C=C1\CCCC(=O)[N@H+]1CCOC (cis-trans isomerization)
CCOC(=O)/C=C1\CCCC(=O)[N@H+]1CCOC (3D coordinates assigned)
CCOC(=O)/C=C1\CCCC(=O)[N@H+]1CCOC (nonaromatic ring conformer: 44.21656768511105 kcal/mol)

>  <smiles>  (12) 
CCOC(=O)C=C1CCCC(=O)N1CCOC

>  <score_type>  (12) 
oracle

>  <origin>  (12) 
adg

>  <m_score__min__energy>  (12) 
-3.8799999999999999

>  <m_primary>  (12) 
energy

$$$$
12:0
     RDKit          3D

 42 45  0  0  0  0  0  0  0  0999 V2000
   59.3300   34.5890   45.2130 C   0  0  0  0  0  0  0  0  0  0  0  0
   58.1700   33.7950   45.4390 O   0  0  0  0  0  0  0  0  0  0  0  0
   58.0710   32.4270   45.1370 C   0  0  0  0  0  0  0  0  0  0  0  0
   57.3850   31.9620   43.9990 C   0  0  0  0  0  0  0  0  0  0  0  0
   57.3120   30.5940   43.7290 C   0  0  0  0  0  0  0  0  0  0  0  0
   57.9310   29.6690   44.5780 C   0  0  0  0  0  0  0  0  0  0  0  0
   57.8330   28.2640   44.2970 N   0  0  0  0  0  0  0  0  0  0  0  0
   57.9010   27.7570   43.0690 N   0  0  0  0  0  0  0  0  0  0  0  0
   57.7780   26.4110   43.1540 C   0  0  0  0  0  0  0  0  0  0  0  0
   57.6330   26.0650   44.4850 C   0  0  0  0  0  0  0  0  0  0  0  0
   57.5360   24.8310   45.1390 C   0  0  0  0  0  0  0  0  0  0  0  0
   57.4690   23.5430   44.4090 C   0  0  0  0  0  0  0  0  0  0  0  0
   56.6380   23.3930   43.2890 C   0  0  0  0  0  0  0  0  0  0  0  0
   56.5800   22.1690   42.6190 C   0  0  0  0  0  0  0  0  0  0  0  0
   57.3500   21.1010   43.0800 C   0  0  0  0  0  0  0  0  0  0  0  0
   58.1460   21.2530   44.1720 N   0  0  0  0  0  0  0  0  0  0  0  0
   58.2180   22.4360   44.8410 C   0  0  0  0  0  0  0  0  0  0  0  0
   57.5160   24.8720   46.5520 C   0  0  0  0  0  0  0  0  0  0  0  0
   57.5930   26.0660   47.2190 N   0  0  0  0  0  0  0  0  0  0  0  0
   57.6830   27.2600   46.5640 C   0  0  0  0  0  0  0  0  0  0  0  0
   57.6830   27.2460   45.1690 C   0  0  0  0  0  0  0  0  0  0  0  0
   58.5950   30.1290   45.7250 C   0  0  0  0  0  0  0  0  0  0  0  0
   58.6750   31.5060   46.0060 C   0  0  0  0  0  0  0  0  0  0  0  0
   59.3440   31.9980   47.1390 O   0  0  0  0  0  0  0  0  0  0  0  0
   58.7120   32.6910   48.2110 C   0  0  0  0  0  0  0  0  0  0  0  0
   59.7646   34.8865   46.1787 H   0  0  0  0  0  0  0  0  0  0  0  0
   60.0681   34.0058   44.6428 H   0  0  0  0  0  0  0  0  0  0  0  0
   59.0535   35.4881   44.6428 H   0  0  0  0  0  0  0  0  0  0  0  0
   56.9039   32.6803   43.3188 H   0  0  0  0  0  0  0  0  0  0  0  0
   56.7642   30.2407   42.8429 H   0  0  0  0  0  0  0  0  0  0  0  0
   57.7912   25.7102   42.3062 H   0  0  0  0  0  0  0  0  0  0  0  0
   56.0311   24.2406   42.9379 H   0  0  0  0  0  0  0  0  0  0  0  0
   55.9339   22.0483   41.7370 H   0  0  0  0  0  0  0  0  0  0  0  0
   57.3132   20.1331   42.5587 H   0  0  0  0  0  0  0  0  0  0  0  0
   58.7150   20.4430   44.5050 H   0  0  0  0  0  0  0  0  0  0  0  0
   58.8664   22.5258   45.7250 H   0  0  0  0  0  0  0  0  0  0  0  0
   57.4377   23.9346   47.1222 H   0  0  0  0  0  0  0  0  0  0  0  0
   57.7535   28.2064   47.1202 H   0  0  0  0  0  0  0  0  0  0  0  0
   59.0582   29.4057   46.4123 H   0  0  0  0  0  0  0  0  0  0  0  0
   59.0753   32.2927   49.1698 H   0  0  0  0  0  0  0  0  0  0  0  0
   58.9500   33.7630   48.1455 H   0  0  0  0  0  0  0  0  0  0  0  0
   57.6227   32.5525   48.1455 H   0  0  0  0  0  0  0  0  0  0  0  0
  1  2  1  0
  2  3  1  0
  3  4  2  0
  4  5  1  0
  5  6  2  0
  6  7  1  0
  7  8  1  0
  8  9  2  0
  9 10  1  0
 10 11  2  0
 11 12  1  0
 12 13  2  0
 13 14  1  0
 14 15  2  0
 15 16  1  0
 16 17  2  0
 11 18  1  0
 18 19  2  0
 19 20  1  0
 20 21  2  0
  6 22  1  0
 22 23  2  0
 23 24  1  0
 24 25  1  0
 23  3  1  0
 21  7  1  0
 21 10  1  0
 17 12  1  0
  1 26  1  0
  1 27  1  0
  1 28  1  0
  4 29  1  0
  5 30  1  0
  9 31  1  0
 13 32  1  0
 14 33  1  0
 15 34  1  0
 16 35  1  0
 17 36  1  0
 18 37  1  0
 20 38  1  0
 22 39  1  0
 25 40  1  0
 25 41  1  0
 25 42  1  0
M  CHG  1  16   1
M  END
>  <UniqueID>  (13) 
12

>  <SMILES>  (13) 
COc1ccc(-n2ncc3c(-c4ccc[nH+]c4)cncc32)cc1OC

>  <Energy>  (13) 
96.93365573824222

>  <Genealogy>  (13) 
COc1ccc(-n2ncc3c(-c4ccc[nH+]c4)cncc32)cc1OC (protonated)
COc1ccc(-n2ncc3c(-c4ccc[nH+]c4)cncc32)cc1OC (3D coordinates assigned)
COc1ccc(-n2ncc3c(-c4ccc[nH+]c4)cncc32)cc1OC (optimized conformer: 96.93365573824222 kcal/mol)

>  <smiles>  (13) 
COc1ccc(-n2ncc3c(-c4cccnc4)cncc32)cc1OC

>  <score_type>  (13) 
oracle

>  <origin>  (13) 
adg

>  <m_score__min__energy>  (13) 
-6.1900000000000004

>  <m_primary>  (13) 
energy

$$$$
13:0
     RDKit          3D

 40 42  0  0  0  0  0  0  0  0999 V2000
   56.6650   30.2720   42.6260 C   0  0  0  0  0  0  0  0  0  0  0  0
   55.8490   29.7150   43.7880 C   0  0  0  0  0  0  0  0  0  0  0  0
   56.5870   29.7920   45.0080 O   0  0  0  0  0  0  0  0  0  0  0  0
   57.5100   30.7980   45.3490 C   0  0  0  0  0  0  0  0  0  0  0  0
   57.2640   32.1620   45.1060 C   0  0  0  0  0  0  0  0  0  0  0  0
   58.2140   33.1290   45.4560 C   0  0  0  0  0  0  0  0  0  0  0  0
   59.4080   32.7440   46.0920 C   0  0  0  0  0  0  0  0  0  0  0  0
   59.6670   31.3820   46.3070 C   0  0  0  0  0  0  0  0  0  0  0  0
   58.7200   30.4070   45.9430 C   0  0  0  0  0  0  0  0  0  0  0  0
   58.9430   29.0360   46.1570 O   0  0  0  0  0  0  0  0  0  0  0  0
   59.5650   28.1630   45.2200 C   0  0  0  0  0  0  0  0  0  0  0  0
   60.3820   33.8070   46.4730 C   0  0  0  0  0  0  0  0  0  0  0  0
   61.4450   33.5750   47.4760 C   0  0  0  0  0  0  0  0  0  0  0  0
   62.7250   33.1790   47.0530 C   0  0  0  0  0  0  0  0  0  0  0  0
   63.7420   32.9630   47.9870 C   0  0  0  0  0  0  0  0  0  0  0  0
   63.4950   33.1520   49.3480 C   0  0  0  0  0  0  0  0  0  0  0  0
   62.2320   33.5660   49.7780 C   0  0  0  0  0  0  0  0  0  0  0  0
   61.2090   33.7840   48.8500 C   0  0  0  0  0  0  0  0  0  0  0  0
   60.0030   34.2260   49.2880 F   0  0  0  0  0  0  0  0  0  0  0  0
   60.2630   34.9960   45.9560 N   0  0  0  0  0  0  0  0  0  0  0  0
   59.2610   35.3290   44.9410 C   0  0  0  0  0  0  0  0  0  0  0  0
   57.9430   34.5930   45.2160 C   0  0  0  0  0  0  0  0  0  0  0  0
   57.5137   30.8513   43.0184 H   0  0  0  0  0  0  0  0  0  0  0  0
   57.0412   29.4414   42.0108 H   0  0  0  0  0  0  0  0  0  0  0  0
   56.0285   30.9250   42.0108 H   0  0  0  0  0  0  0  0  0  0  0  0
   54.9218   30.2980   43.8899 H   0  0  0  0  0  0  0  0  0  0  0  0
   55.6167   28.6597   43.5822 H   0  0  0  0  0  0  0  0  0  0  0  0
   56.3180   32.4709   44.6374 H   0  0  0  0  0  0  0  0  0  0  0  0
   60.6188   31.0736   46.7642 H   0  0  0  0  0  0  0  0  0  0  0  0
   60.1212   27.3823   45.7595 H   0  0  0  0  0  0  0  0  0  0  0  0
   58.7957   27.6949   44.5883 H   0  0  0  0  0  0  0  0  0  0  0  0
   60.2586   28.7373   44.5883 H   0  0  0  0  0  0  0  0  0  0  0  0
   62.9277   33.0382   45.9810 H   0  0  0  0  0  0  0  0  0  0  0  0
   64.7389   32.6435   47.6491 H   0  0  0  0  0  0  0  0  0  0  0  0
   64.2950   32.9749   50.0819 H   0  0  0  0  0  0  0  0  0  0  0  0
   62.0416   33.7210   50.8502 H   0  0  0  0  0  0  0  0  0  0  0  0
   59.0786   36.4137   44.9563 H   0  0  0  0  0  0  0  0  0  0  0  0
   59.6397   35.0188   43.9559 H   0  0  0  0  0  0  0  0  0  0  0  0
   57.4622   35.0257   46.1057 H   0  0  0  0  0  0  0  0  0  0  0  0
   57.2791   34.7008   44.3456 H   0  0  0  0  0  0  0  0  0  0  0  0
  1  2  1  0
  2  3  1  0
  3  4  1  0
  4  5  2  0
  5  6  1  0
  6  7  2  0
  7  8  1  0
  8  9  2  0
  9 10  1  0
 10 11  1  0
  7 12  1  0
 12 13  1  0
 13 14  2  0
 14 15  1  0
 15 16  2  0
 16 17  1  0
 17 18  2  0
 18 19  1  0
 12 20  2  0
 20 21  1  0
 21 22  1  0
  9  4  1  0
 18 13  1  0
 22  6  1  0
  1 23  1  0
  1 24  1  0
  1 25  1  0
  2 26  1  0
  2 27  1  0
  5 28  1  0
  8 29  1  0
 11 30  1  0
 11 31  1  0
 11 32  1  0
 14 33  1  0
 15 34  1  0
 16 35  1  0
 17 36  1  0
 21 37  1  0
 21 38  1  0
 22 39  1  0
 22 40  1  0
M  END
>  <UniqueID>  (14) 
13

>  <SMILES>  (14) 
CCOc1cc2c(cc1OC)C(c1ccccc1F)=NCC2

>  <Energy>  (14) 
47.67187112011297

>  <Genealogy>  (14) 
CCOc1cc2c(cc1OC)C(c1ccccc1F)=NCC2 (3D coordinates assigned)
CCOc1cc2c(cc1OC)C(c1ccccc1F)=NCC2 (nonaromatic ring conformer: 47.67187112011297 kcal/mol)

>  <smiles>  (14) 
CCOc1cc2c(cc1OC)C(c1ccccc1F)=NCC2

>  <score_type>  (14) 
oracle

>  <origin>  (14) 
adg

>  <m_score__min__energy>  (14) 
-7.1799999999999997

>  <m_primary>  (14) 
energy

$$$$
14:0
     RDKit          3D

 41 43  0  0  0  0  0  0  0  0999 V2000
   57.0540   25.8880   45.3400 C   0  0  0  0  0  0  0  0  0  0  0  0
   56.4870   27.0500   45.9370 O   0  0  0  0  0  0  0  0  0  0  0  0
   57.0280   28.3410   45.8350 C   0  0  0  0  0  0  0  0  0  0  0  0
   58.2340   28.7040   46.4690 C   0  0  0  0  0  0  0  0  0  0  0  0
   58.7400   30.0110   46.3390 C   0  0  0  0  0  0  0  0  0  0  0  0
   59.9340   30.4160   46.9590 C   0  0  0  0  0  0  0  0  0  0  0  0
   60.5900   29.6050   47.6720 O   0  0  0  0  0  0  0  0  0  0  0  0
   60.3880   31.7370   46.7960 C   0  0  0  0  0  0  0  0  0  0  0  0
   61.6280   32.1870   47.4710 C   0  0  0  0  0  0  0  0  0  0  0  0
   62.5810   32.9350   46.7680 C   0  0  0  0  0  0  0  0  0  0  0  0
   63.7560   33.3490   47.3980 C   0  0  0  0  0  0  0  0  0  0  0  0
   63.9970   33.0170   48.7450 C   0  0  0  0  0  0  0  0  0  0  0  0
   65.1660   33.4170   49.4130 O   0  0  0  0  0  0  0  0  0  0  0  0
   66.0730   32.5270   50.0550 C   0  0  0  0  0  0  0  0  0  0  0  0
   63.0490   32.2630   49.4540 C   0  0  0  0  0  0  0  0  0  0  0  0
   63.3180   31.9450   50.7960 O   0  0  0  0  0  0  0  0  0  0  0  0
   63.3350   30.6230   51.3240 C   0  0  0  0  0  0  0  0  0  0  0  0
   61.8670   31.8460   48.8100 C   0  0  0  0  0  0  0  0  0  0  0  0
   59.6240   32.6170   45.9950 C   0  0  0  0  0  0  0  0  0  0  0  0
   60.0420   33.9640   45.7490 N   0  0  0  0  0  0  0  0  0  0  0  0
   58.4950   32.1950   45.4320 O   0  0  0  0  0  0  0  0  0  0  0  0
   58.0330   30.9570   45.5710 C   0  0  0  0  0  0  0  0  0  0  0  0
   56.8370   30.5950   44.9440 C   0  0  0  0  0  0  0  0  0  0  0  0
   56.3380   29.2960   45.0750 C   0  0  0  0  0  0  0  0  0  0  0  0
   55.1480   28.9530   44.4440 O   0  0  0  0  0  0  0  0  0  0  0  0
   57.3906   25.1981   46.1279 H   0  0  0  0  0  0  0  0  0  0  0  0
   56.2975   25.3903   44.7155 H   0  0  0  0  0  0  0  0  0  0  0  0
   57.9118   26.1780   44.7155 H   0  0  0  0  0  0  0  0  0  0  0  0
   58.7821   27.9620   47.0682 H   0  0  0  0  0  0  0  0  0  0  0  0
   62.4028   33.1974   45.7147 H   0  0  0  0  0  0  0  0  0  0  0  0
   64.4979   33.9380   46.8389 H   0  0  0  0  0  0  0  0  0  0  0  0
   65.9728   32.6253   51.1460 H   0  0  0  0  0  0  0  0  0  0  0  0
   65.8444   31.4929   49.7575 H   0  0  0  0  0  0  0  0  0  0  0  0
   67.1025   32.7751   49.7575 H   0  0  0  0  0  0  0  0  0  0  0  0
   63.3344   30.6671   52.4231 H   0  0  0  0  0  0  0  0  0  0  0  0
   62.4438   30.0787   50.9784 H   0  0  0  0  0  0  0  0  0  0  0  0
   64.2399   30.1018   50.9784 H   0  0  0  0  0  0  0  0  0  0  0  0
   61.1263   31.2486   49.3618 H   0  0  0  0  0  0  0  0  0  0  0  0
   60.3120   34.3000   44.8000 H   0  0  0  0  0  0  0  0  0  0  0  0
   60.0240   34.6590   46.5270 H   0  0  0  0  0  0  0  0  0  0  0  0
   56.2865   31.3355   44.3452 H   0  0  0  0  0  0  0  0  0  0  0  0
  1  2  1  0
  2  3  1  0
  3  4  2  0
  4  5  1  0
  5  6  1  0
  6  7  2  0
  6  8  1  0
  8  9  1  0
  9 10  2  0
 10 11  1  0
 11 12  2  0
 12 13  1  0
 13 14  1  0
 12 15  1  0
 15 16  1  0
 16 17  1  0
 15 18  2  0
  8 19  2  0
 19 20  1  0
 19 21  1  0
 21 22  1  0
 22 23  1  0
 23 24  2  0
 24 25  1  0
 24  3  1  0
 22  5  2  0
 18  9  1  0
  1 26  1  0
  1 27  1  0
  1 28  1  0
  4 29  1  0
 10 30  1  0
 11 31  1  0
 14 32  1  0
 14 33  1  0
 14 34  1  0
 17 35  1  0
 17 36  1  0
 17 37  1  0
 18 38  1  0
 20 39  1  0
 20 40  1  0
 23 41  1  0
M  CHG  1  25  -1
M  END
>  <UniqueID>  (15) 
14

>  <SMILES>  (15) 
COc1cc2c(=O)c(-c3ccc(OC)c(OC)c3)c(N)oc2cc1[O-]

>  <Energy>  (15) 
55.14820579876263

>  <Genealogy>  (15) 
COc1cc2c(=O)c(-c3ccc(OC)c(OC)c3)c(N)oc2cc1[O-] (protonated)
COc1cc2c(=O)c(-c3ccc(OC)c(OC)c3)c(N)oc2cc1[O-] (3D coordinates assigned)
COc1cc2c(=O)c(-c3ccc(OC)c(OC)c3)c(N)oc2cc1[O-] (optimized conformer: 55.14820579876263 kcal/mol)

>  <smiles>  (15) 
COc1cc2c(=O)c(-c3ccc(OC)c(OC)c3)c(N)oc2cc1O

>  <score_type>  (15) 
oracle

>  <origin>  (15) 
adg

>  <m_score__min__energy>  (15) 
-8.3200000000000003

>  <m_primary>  (15) 
energy

$$$$
15:0
     RDKit          3D

 55 58  0  0  0  0  0  0  0  0999 V2000
   63.1610   33.2090   47.1460 C   0  0  0  0  0  0  0  0  0  0  0  0
   63.6810   32.8770   48.4150 O   0  0  0  0  0  0  0  0  0  0  0  0
   62.6980   33.0670   49.4160 C   0  0  0  0  0  0  0  0  0  0  0  0
   61.7460   34.1940   49.0170 C   0  0  0  0  0  0  0  0  0  0  0  0
   60.3920   33.7510   49.0960 O   0  0  0  0  0  0  0  0  0  0  0  0
   59.7700   33.0340   48.0670 C   0  0  0  0  0  0  0  0  0  0  0  0
   59.4510   31.6740   48.2100 C   0  0  0  0  0  0  0  0  0  0  0  0
   59.8340   30.9040   49.4160 C   0  0  0  0  0  0  0  0  0  0  0  0
   60.8630   30.1770   49.3740 O   0  0  0  0  0  0  0  0  0  0  0  0
   59.0560   30.9600   50.6300 N   0  0  0  0  0  0  0  0  0  0  0  0
   58.4820   32.2310   51.1010 C   0  0  0  0  0  0  0  0  0  0  0  0
   57.0510   32.0150   51.6150 C   0  0  0  0  0  0  0  0  0  0  0  0
   56.9180   30.7320   52.3250 N   0  0  0  0  0  0  0  0  0  0  0  0
   55.6120   30.1540   52.5100 C   0  0  0  0  0  0  0  0  0  0  0  0
   54.4840   30.7360   51.9020 C   0  0  0  0  0  0  0  0  0  0  0  0
   53.2200   30.1620   52.0650 C   0  0  0  0  0  0  0  0  0  0  0  0
   53.0680   29.0010   52.8260 C   0  0  0  0  0  0  0  0  0  0  0  0
   54.1830   28.4090   53.4250 C   0  0  0  0  0  0  0  0  0  0  0  0
   55.4500   28.9800   53.2680 C   0  0  0  0  0  0  0  0  0  0  0  0
   58.1310   30.0080   52.7260 C   0  0  0  0  0  0  0  0  0  0  0  0
   59.0140   29.7730   51.4990 C   0  0  0  0  0  0  0  0  0  0  0  0
   58.7640   31.0270   47.1800 C   0  0  0  0  0  0  0  0  0  0  0  0
   58.4430   31.7140   45.9960 C   0  0  0  0  0  0  0  0  0  0  0  0
   57.7580   31.0530   44.9480 C   0  0  0  0  0  0  0  0  0  0  0  0
   57.2520   29.3670   45.0470 Cl  0  0  0  0  0  0  0  0  0  0  0  0
   57.4630   31.7510   43.7790 C   0  0  0  0  0  0  0  0  0  0  0  0
   57.8390   33.0810   43.6480 C   0  0  0  0  0  0  0  0  0  0  0  0
   58.5110   33.7110   44.6920 C   0  0  0  0  0  0  0  0  0  0  0  0
   58.8090   33.0400   45.8520 N   0  0  0  0  0  0  0  0  0  0  0  0
   59.4640   33.6930   46.8710 C   0  0  0  0  0  0  0  0  0  0  0  0
   59.7950   34.9070   46.7510 O   0  0  0  0  0  0  0  0  0  0  0  0
   62.2397   33.7972   47.2697 H   0  0  0  0  0  0  0  0  0  0  0  0
   63.9023   33.8013   46.5895 H   0  0  0  0  0  0  0  0  0  0  0  0
   62.9356   32.2873   46.5895 H   0  0  0  0  0  0  0  0  0  0  0  0
   62.1255   32.1365   49.5437 H   0  0  0  0  0  0  0  0  0  0  0  0
   63.1953   33.3358   50.3596 H   0  0  0  0  0  0  0  0  0  0  0  0
   61.8888   35.0470   49.6967 H   0  0  0  0  0  0  0  0  0  0  0  0
   61.9635   34.4958   47.9818 H   0  0  0  0  0  0  0  0  0  0  0  0
   59.1037   32.6292   51.9165 H   0  0  0  0  0  0  0  0  0  0  0  0
   58.4561   32.9429   50.2628 H   0  0  0  0  0  0  0  0  0  0  0  0
   56.7918   32.8326   52.3037 H   0  0  0  0  0  0  0  0  0  0  0  0
   56.3728   32.0009   50.7490 H   0  0  0  0  0  0  0  0  0  0  0  0
   54.5976   31.6468   51.2957 H   0  0  0  0  0  0  0  0  0  0  0  0
   52.3420   30.6264   51.5922 H   0  0  0  0  0  0  0  0  0  0  0  0
   52.0715   28.5530   52.9538 H   0  0  0  0  0  0  0  0  0  0  0  0
   54.0640   27.4922   54.0211 H   0  0  0  0  0  0  0  0  0  0  0  0
   56.3247   28.5085   53.7398 H   0  0  0  0  0  0  0  0  0  0  0  0
   58.6846   30.6026   53.4676 H   0  0  0  0  0  0  0  0  0  0  0  0
   57.8511   29.0399   53.1671 H   0  0  0  0  0  0  0  0  0  0  0  0
   60.0354   29.5383   51.8332 H   0  0  0  0  0  0  0  0  0  0  0  0
   58.5892   28.9379   50.9227 H   0  0  0  0  0  0  0  0  0  0  0  0
   58.4722   29.9728   47.2961 H   0  0  0  0  0  0  0  0  0  0  0  0
   56.9312   31.2474   42.9583 H   0  0  0  0  0  0  0  0  0  0  0  0
   57.6075   33.6334   42.7254 H   0  0  0  0  0  0  0  0  0  0  0  0
   58.8083   34.7647   44.5855 H   0  0  0  0  0  0  0  0  0  0  0  0
  1  2  1  0
  2  3  1  0
  3  4  1  0
  4  5  1  0
  5  6  1  0
  6  7  2  0
  7  8  1  0
  8  9  2  0
  8 10  1  0
 10 11  1  0
 11 12  1  0
 12 13  1  0
 13 14  1  0
 14 15  2  0
 15 16  1  0
 16 17  2  0
 17 18  1  0
 18 19  2  0
 13 20  1  0
 20 21  1  0
  7 22  1  0
 22 23  2  0
 23 24  1  0
 24 25  1  0
 24 26  2  0
 26 27  1  0
 27 28  2  0
 28 29  1  0
 29 30  1  0
 30 31  2  0
 30  6  1  0
 21 10  1  0
 29 23  1  0
 19 14  1  0
  1 32  1  0
  1 33  1  0
  1 34  1  0
  3 35  1  0
  3 36  1  0
  4 37  1  0
  4 38  1  0
 11 39  1  0
 11 40  1  0
 12 41  1  0
 12 42  1  0
 15 43  1  0
 16 44  1  0
 17 45  1  0
 18 46  1  0
 19 47  1  0
 20 48  1  0
 20 49  1  0
 21 50  1  0
 21 51  1  0
 22 52  1  0
 26 53  1  0
 27 54  1  0
 28 55  1  0
M  END
>  <UniqueID>  (16) 
15

>  <SMILES>  (16) 
COCCOc1c(C(=O)N2CCN(c3ccccc3)CC2)cc2c(Cl)cccn2c1=O

>  <Energy>  (16) 
81.39881914687217

>  <Genealogy>  (16) 
COCCOc1c(C(=O)N2CCN(c3ccccc3)CC2)cc2c(Cl)cccn2c1=O (3D coordinates assigned)
COCCOc1c(C(=O)N2CCN(c3ccccc3)CC2)cc2c(Cl)cccn2c1=O (nonaromatic ring conformer: 81.39881914687217 kcal/mol)

>  <smiles>  (16) 
COCCOc1c(C(=O)N2CCN(c3ccccc3)CC2)cc2c(Cl)cccn2c1=O

>  <score_type>  (16) 
oracle

>  <origin>  (16) 
adg

>  <m_score__min__energy>  (16) 
-7.7000000000000002

>  <m_primary>  (16) 
energy

$$$$
16:0
     RDKit          3D

 37 39  0  0  0  0  0  0  0  0999 V2000
   55.5270   30.0690   43.7400 C   0  0  0  0  0  0  0  0  0  0  0  0
   56.3000   30.0410   44.9340 O   0  0  0  0  0  0  0  0  0  0  0  0
   57.5710   29.4520   45.0490 C   0  0  0  0  0  0  0  0  0  0  0  0
   57.7460   28.0540   45.0020 C   0  0  0  0  0  0  0  0  0  0  0  0
   59.0240   27.4970   45.0970 C   0  0  0  0  0  0  0  0  0  0  0  0
   60.1380   28.3220   45.2420 C   0  0  0  0  0  0  0  0  0  0  0  0
   59.9800   29.7070   45.2940 C   0  0  0  0  0  0  0  0  0  0  0  0
   58.7010   30.2840   45.1960 C   0  0  0  0  0  0  0  0  0  0  0  0
   58.5570   31.7560   45.2590 C   0  0  0  0  0  0  0  0  0  0  0  0
   57.6540   32.4910   44.5090 C   0  0  0  0  0  0  0  0  0  0  0  0
   57.7900   33.8060   44.9030 C   0  0  0  0  0  0  0  0  0  0  0  0
   58.7780   33.8270   45.8700 C   0  0  0  0  0  0  0  0  0  0  0  0
   59.2620   35.0640   46.5650 C   0  0  0  0  0  0  0  0  0  0  0  0
   59.2360   32.5750   46.0990 N   0  0  0  0  0  0  0  0  0  0  0  0
   60.3030   32.2030   46.9890 C   0  0  0  0  0  0  0  0  0  0  0  0
   60.0510   31.3510   48.0780 C   0  0  0  0  0  0  0  0  0  0  0  0
   61.0840   31.0010   48.9510 C   0  0  0  0  0  0  0  0  0  0  0  0
   62.3740   31.4980   48.7450 C   0  0  0  0  0  0  0  0  0  0  0  0
   62.6320   32.3480   47.6660 C   0  0  0  0  0  0  0  0  0  0  0  0
   63.8820   32.8360   47.4700 F   0  0  0  0  0  0  0  0  0  0  0  0
   61.6000   32.7010   46.7900 C   0  0  0  0  0  0  0  0  0  0  0  0
   54.4579   30.1077   43.9961 H   0  0  0  0  0  0  0  0  0  0  0  0
   55.7952   30.9580   43.1503 H   0  0  0  0  0  0  0  0  0  0  0  0
   55.7302   29.1629   43.1503 H   0  0  0  0  0  0  0  0  0  0  0  0
   56.8707   27.3973   44.8898 H   0  0  0  0  0  0  0  0  0  0  0  0
   59.1511   26.4051   45.0573 H   0  0  0  0  0  0  0  0  0  0  0  0
   61.1428   27.8805   45.3155 H   0  0  0  0  0  0  0  0  0  0  0  0
   60.8625   30.3529   45.4126 H   0  0  0  0  0  0  0  0  0  0  0  0
   56.9626   32.1018   43.7471 H   0  0  0  0  0  0  0  0  0  0  0  0
   57.2235   34.6687   44.5225 H   0  0  0  0  0  0  0  0  0  0  0  0
   59.2052   34.9188   47.6539 H   0  0  0  0  0  0  0  0  0  0  0  0
   60.3044   35.2632   46.2755 H   0  0  0  0  0  0  0  0  0  0  0  0
   58.6316   35.9177   46.2755 H   0  0  0  0  0  0  0  0  0  0  0  0
   59.0369   30.9584   48.2435 H   0  0  0  0  0  0  0  0  0  0  0  0
   60.8819   30.3334   49.8016 H   0  0  0  0  0  0  0  0  0  0  0  0
   63.1865   31.2200   49.4324 H   0  0  0  0  0  0  0  0  0  0  0  0
   61.8058   33.3712   45.9423 H   0  0  0  0  0  0  0  0  0  0  0  0
  1  2  1  0
  2  3  1  0
  3  4  2  0
  4  5  1  0
  5  6  2  0
  6  7  1  0
  7  8  2  0
  8  9  1  0
  9 10  2  0
 10 11  1  0
 11 12  2  0
 12 13  1  0
 12 14  1  0
 14 15  1  0
 15 16  2  0
 16 17  1  0
 17 18  2  0
 18 19  1  0
 19 20  1  0
 19 21  2  0
  8  3  1  0
 14  9  1  0
 21 15  1  0
  1 22  1  0
  1 23  1  0
  1 24  1  0
  4 25  1  0
  5 26  1  0
  6 27  1  0
  7 28  1  0
 10 29  1  0
 11 30  1  0
 13 31  1  0
 13 32  1  0
 13 33  1  0
 16 34  1  0
 17 35  1  0
 18 36  1  0
 21 37  1  0
M  END
>  <UniqueID>  (17) 
16

>  <SMILES>  (17) 
COc1ccccc1-c1ccc(C)n1-c1cccc(F)c1

>  <Energy>  (17) 
74.79402609856204

>  <Genealogy>  (17) 
COc1ccccc1-c1ccc(C)n1-c1cccc(F)c1 (3D coordinates assigned)
COc1ccccc1-c1ccc(C)n1-c1cccc(F)c1 (optimized conformer: 74.79402609856204 kcal/mol)

>  <smiles>  (17) 
COc1ccccc1-c1ccc(C)n1-c1cccc(F)c1

>  <score_type>  (17) 
oracle

>  <origin>  (17) 
adg

>  <m_score__min__energy>  (17) 
-7.0700000000000003

>  <m_primary>  (17) 
energy

$$$$
17:0
     RDKit          3D

 51 51  0  0  0  0  0  0  0  0999 V2000
   60.0000   33.8550   49.7850 C   0  0  0  0  0  0  0  0  0  0  0  0
   59.8170   34.5660   48.4370 C   0  0  0  0  0  0  0  0  0  0  0  0
   60.8820   34.2740   47.4420 N   0  0  0  0  0  0  0  0  0  0  0  0
   62.1510   33.8040   48.0460 C   0  0  0  0  0  0  0  0  0  0  0  0
   63.2050   33.4600   46.9910 C   0  0  0  0  0  0  0  0  0  0  0  0
   60.3960   33.3610   46.3760 C   0  0  0  0  0  0  0  0  0  0  0  0
   58.8460   33.2030   46.3480 C   0  0  1  0  0  0  0  0  0  0  0  0
   58.2820   33.0010   44.9170 C   0  0  0  0  0  0  0  0  0  0  0  0
   56.8940   32.3330   44.8850 C   0  0  0  0  0  0  0  0  0  0  0  0
   57.0030   30.8620   44.7900 N   0  0  0  0  0  0  0  0  0  0  0  0
   58.2050   30.4820   44.0320 C   0  0  0  0  0  0  0  0  0  0  0  0
   55.8110   30.2800   44.1480 C   0  0  0  0  0  0  0  0  0  0  0  0
   58.4000   32.0900   47.2190 N   0  0  0  0  0  0  0  0  0  0  0  0
   59.5090   31.2460   47.6970 C   0  0  0  0  0  0  0  0  0  0  0  0
   59.5880   29.9350   46.9480 C   0  0  0  0  0  0  0  0  0  0  0  0
   58.6180   28.9380   47.1510 C   0  0  0  0  0  0  0  0  0  0  0  0
   58.7070   27.7200   46.4670 C   0  0  0  0  0  0  0  0  0  0  0  0
   59.7600   27.4910   45.5780 C   0  0  0  0  0  0  0  0  0  0  0  0
   60.7260   28.4780   45.3700 C   0  0  0  0  0  0  0  0  0  0  0  0
   60.6420   29.6950   46.0510 C   0  0  0  0  0  0  0  0  0  0  0  0
   59.8167   34.5672   50.6030 H   0  0  0  0  0  0  0  0  0  0  0  0
   59.2874   33.0203   49.8590 H   0  0  0  0  0  0  0  0  0  0  0  0
   61.0270   33.4680   49.8590 H   0  0  0  0  0  0  0  0  0  0  0  0
   58.8523   34.2535   48.0108 H   0  0  0  0  0  0  0  0  0  0  0  0
   59.8643   35.6458   48.6414 H   0  0  0  0  0  0  0  0  0  0  0  0
   62.5479   34.5971   48.6968 H   0  0  0  0  0  0  0  0  0  0  0  0
   61.9335   32.8881   48.6150 H   0  0  0  0  0  0  0  0  0  0  0  0
   64.1371   33.1558   47.4896 H   0  0  0  0  0  0  0  0  0  0  0  0
   62.8390   32.6347   46.3626 H   0  0  0  0  0  0  0  0  0  0  0  0
   63.3964   34.3423   46.3626 H   0  0  0  0  0  0  0  0  0  0  0  0
   60.7227   33.7573   45.4033 H   0  0  0  0  0  0  0  0  0  0  0  0
   60.8176   32.3669   46.5860 H   0  0  0  0  0  0  0  0  0  0  0  0
   58.4443   34.1518   46.7334 H   0  0  0  0  0  0  0  0  0  0  0  0
   58.2045   33.9855   44.4325 H   0  0  0  0  0  0  0  0  0  0  0  0
   58.9745   32.3269   44.3916 H   0  0  0  0  0  0  0  0  0  0  0  0
   56.3511   32.5925   45.8058 H   0  0  0  0  0  0  0  0  0  0  0  0
   56.3560   32.6973   43.9974 H   0  0  0  0  0  0  0  0  0  0  0  0
   59.0142   30.2262   44.7319 H   0  0  0  0  0  0  0  0  0  0  0  0
   57.9791   29.6115   43.3987 H   0  0  0  0  0  0  0  0  0  0  0  0
   58.5206   31.3242   43.3987 H   0  0  0  0  0  0  0  0  0  0  0  0
   55.1084   29.9370   44.9218 H   0  0  0  0  0  0  0  0  0  0  0  0
   55.3234   31.0414   43.5215 H   0  0  0  0  0  0  0  0  0  0  0  0
   56.1115   29.4272   43.5215 H   0  0  0  0  0  0  0  0  0  0  0  0
   57.7090   31.4740   46.7290 H   0  0  0  0  0  0  0  0  0  0  0  0
   60.4546   31.7909   47.5594 H   0  0  0  0  0  0  0  0  0  0  0  0
   59.3302   31.0200   48.7586 H   0  0  0  0  0  0  0  0  0  0  0  0
   57.7868   29.1155   47.8493 H   0  0  0  0  0  0  0  0  0  0  0  0
   57.9466   26.9420   46.6297 H   0  0  0  0  0  0  0  0  0  0  0  0
   59.8283   26.5330   45.0417 H   0  0  0  0  0  0  0  0  0  0  0  0
   61.5541   28.2969   44.6690 H   0  0  0  0  0  0  0  0  0  0  0  0
   61.4052   30.4693   45.8839 H   0  0  0  0  0  0  0  0  0  0  0  0
  1  2  1  0
  2  3  1  0
  3  4  1  0
  4  5  1  0
  3  6  1  0
  6  7  1  0
  7  8  1  0
  8  9  1  0
  9 10  1  0
 10 11  1  0
 10 12  1  0
  7 13  1  0
 13 14  1  0
 14 15  1  0
 15 16  2  0
 16 17  1  0
 17 18  2  0
 18 19  1  0
 19 20  2  0
 20 15  1  0
  1 21  1  0
  1 22  1  0
  1 23  1  0
  2 24  1  0
  2 25  1  0
  4 26  1  0
  4 27  1  0
  5 28  1  0
  5 29  1  0
  5 30  1  0
  6 31  1  0
  6 32  1  0
  7 33  1  1
  8 34  1  0
  8 35  1  0
  9 36  1  0
  9 37  1  0
 11 38  1  0
 11 39  1  0
 11 40  1  0
 12 41  1  0
 12 42  1  0
 12 43  1  0
 13 44  1  0
 14 45  1  0
 14 46  1  0
 16 47  1  0
 17 48  1  0
 18 49  1  0
 19 50  1  0
 20 51  1  0
M  END
>  <UniqueID>  (18) 
17

>  <SMILES>  (18) 
CCN(CC)C[C@@H](CCN(C)C)NCc1ccccc1

>  <Energy>  (18) 
51.20549761137997

>  <Genealogy>  (18) 
CCN(CC)C[C@@H](CCN(C)C)NCc1ccccc1 (chirality)
CCN(CC)C[C@@H](CCN(C)C)NCc1ccccc1 (3D coordinates assigned)
CCN(CC)C[C@@H](CCN(C)C)NCc1ccccc1 (optimized conformer: 51.20549761137997 kcal/mol)

>  <smiles>  (18) 
CCN(CC)CC(CCN(C)C)NCc1ccccc1

>  <score_type>  (18) 
oracle

>  <origin>  (18) 
adg

>  <m_score__min__energy>  (18) 
-5.5499999999999998

>  <m_primary>  (18) 
energy

$$$$
18:0
     RDKit          3D

 38 39  0  0  0  0  0  0  0  0999 V2000
   55.5500   29.7210   44.4940 C   0  0  0  0  0  0  0  0  0  0  0  0
   56.9210   30.1420   44.8180 N   0  0  0  0  0  0  0  0  0  0  0  0
   57.3580   31.2500   43.9540 C   0  0  0  0  0  0  0  0  0  0  0  0
   57.8840   29.0170   44.8410 C   0  0  0  0  0  0  0  0  0  0  0  0
   58.6070   28.8240   46.1990 C   0  0  0  0  0  0  0  0  0  0  0  0
   58.5190   30.0280   47.0490 N   0  0  0  0  0  0  0  0  0  0  0  0
   59.6820   30.9120   47.0780 C   0  0  0  0  0  0  0  0  0  0  0  0
   60.9520   30.4660   47.4900 C   0  0  0  0  0  0  0  0  0  0  0  0
   62.0440   31.3260   47.4860 C   0  0  0  0  0  0  0  0  0  0  0  0
   61.9190   32.6310   47.1100 N   0  0  0  0  0  0  0  0  0  0  0  0
   63.1300   33.4700   47.1150 C   0  0  0  0  0  0  0  0  0  0  0  0
   60.6860   33.1390   46.7620 C   0  0  0  0  0  0  0  0  0  0  0  0
   60.5250   34.5030   46.4150 C   0  0  0  0  0  0  0  0  0  0  0  0
   59.2700   35.0180   46.0960 C   0  0  0  0  0  0  0  0  0  0  0  0
   58.1500   34.1970   46.1230 C   0  0  0  0  0  0  0  0  0  0  0  0
   58.2760   32.8500   46.4550 C   0  0  0  0  0  0  0  0  0  0  0  0
   59.5380   32.2900   46.7590 C   0  0  0  0  0  0  0  0  0  0  0  0
   54.9896   29.5489   45.4248 H   0  0  0  0  0  0  0  0  0  0  0  0
   55.0537   30.5081   43.9074 H   0  0  0  0  0  0  0  0  0  0  0  0
   55.5810   28.7910   43.9074 H   0  0  0  0  0  0  0  0  0  0  0  0
   57.6903   32.0926   44.5782 H   0  0  0  0  0  0  0  0  0  0  0  0
   58.1907   30.9133   43.3190 H   0  0  0  0  0  0  0  0  0  0  0  0
   56.5197   31.5724   43.3190 H   0  0  0  0  0  0  0  0  0  0  0  0
   57.3380   28.0913   44.6067 H   0  0  0  0  0  0  0  0  0  0  0  0
   58.6623   29.2532   44.1004 H   0  0  0  0  0  0  0  0  0  0  0  0
   58.1443   27.9795   46.7307 H   0  0  0  0  0  0  0  0  0  0  0  0
   59.6701   28.6306   45.9932 H   0  0  0  0  0  0  0  0  0  0  0  0
   58.3340   29.7150   48.0300 H   0  0  0  0  0  0  0  0  0  0  0  0
   57.6880   30.5660   46.7140 H   0  0  0  0  0  0  0  0  0  0  0  0
   61.0818   29.4244   47.8191 H   0  0  0  0  0  0  0  0  0  0  0  0
   63.0297   30.9460   47.7925 H   0  0  0  0  0  0  0  0  0  0  0  0
   63.4285   33.6768   48.1533 H   0  0  0  0  0  0  0  0  0  0  0  0
   63.9443   32.9415   46.5977 H   0  0  0  0  0  0  0  0  0  0  0  0
   62.9214   34.4181   46.5977 H   0  0  0  0  0  0  0  0  0  0  0  0
   61.4032   35.1651   46.3971 H   0  0  0  0  0  0  0  0  0  0  0  0
   59.1660   36.0782   45.8219 H   0  0  0  0  0  0  0  0  0  0  0  0
   57.1603   34.6118   45.8814 H   0  0  0  0  0  0  0  0  0  0  0  0
   57.3800   32.2124   46.4810 H   0  0  0  0  0  0  0  0  0  0  0  0
  1  2  1  0
  2  3  1  0
  2  4  1  0
  4  5  1  0
  5  6  1  0
  6  7  1  0
  7  8  2  0
  8  9  1  0
  9 10  2  0
 10 11  1  0
 10 12  1  0
 12 13  2  0
 13 14  1  0
 14 15  2  0
 15 16  1  0
 16 17  2  0
 17  7  1  0
 17 12  1  0
  1 18  1  0
  1 19  1  0
  1 20  1  0
  3 21  1  0
  3 22  1  0
  3 23  1  0
  4 24  1  0
  4 25  1  0
  5 26  1  0
  5 27  1  0
  6 28  1  0
  6 29  1  0
  8 30  1  0
  9 31  1  0
 11 32  1  0
 11 33  1  0
 11 34  1  0
 13 35  1  0
 14 36  1  0
 15 37  1  0
 16 38  1  0
M  CHG  2   6   1  10   1
M  END
>  <UniqueID>  (19) 
18

>  <SMILES>  (19) 
CN(C)CC[NH2+]c1cc[n+](C)c2ccccc12

>  <Energy>  (19) 
57.23158021985065

>  <Genealogy>  (19) 
CN(C)CC[NH2+]c1cc[n+](C)c2ccccc12 (protonated)
CN(C)CC[NH2+]c1cc[n+](C)c2ccccc12 (3D coordinates assigned)
CN(C)CC[NH2+]c1cc[n+](C)c2ccccc12 (optimized conformer: 57.23158021985065 kcal/mol)

>  <smiles>  (19) 
CN(C)CCNc1cc[n+](C)c2ccccc12

>  <score_type>  (19) 
oracle

>  <origin>  (19) 
adg

>  <m_score__min__energy>  (19) 
-2.6200000000000001

>  <m_primary>  (19) 
energy

$$$$
19:0
     RDKit          3D

 42 43  0  0  0  0  0  0  0  0999 V2000
   56.8340   30.8110   43.5790 C   0  0  0  0  0  0  0  0  0  0  0  0
   56.1000   29.5070   43.8450 C   0  0  0  0  0  0  0  0  0  0  0  0
   56.1580   29.2120   45.2360 O   0  0  0  0  0  0  0  0  0  0  0  0
   57.0330   28.3030   45.8500 C   0  0  0  0  0  0  0  0  0  0  0  0
   58.3690   28.6920   46.1790 C   0  0  0  0  0  0  0  0  0  0  0  0
   58.8970   30.0070   45.8920 N   0  0  0  0  0  0  0  0  0  0  0  0
   60.1910   30.5110   46.3620 C   0  0  0  0  0  0  0  0  0  0  0  0
   60.1450   32.0280   46.5900 C   0  0  0  0  0  0  0  0  0  0  0  0
   58.7950   32.5850   46.3330 N   0  0  0  0  0  0  0  0  0  0  0  0
   58.2920   33.4820   47.4030 C   0  0  0  0  0  0  0  0  0  0  0  0
   59.2860   34.5720   47.8250 C   0  0  0  0  0  0  0  0  0  0  0  0
   58.7140   33.2130   44.9940 C   0  0  0  0  0  0  0  0  0  0  0  0
   57.4640   34.0820   44.8940 C   0  0  0  0  0  0  0  0  0  0  0  0
   59.2280   27.7620   46.8270 C   0  0  0  0  0  0  0  0  0  0  0  0
   58.7960   26.4620   47.1380 C   0  0  0  0  0  0  0  0  0  0  0  0
   57.4990   26.1220   46.7930 C   0  0  0  0  0  0  0  0  0  0  0  0
   56.8620   24.9590   46.9850 N   0  0  0  0  0  0  0  0  0  0  0  0
   55.6670   25.1590   46.4900 O   0  0  0  0  0  0  0  0  0  0  0  0
   55.4850   26.3590   45.9950 N   0  0  0  0  0  0  0  0  0  0  0  0
   56.6550   26.9890   46.1820 C   0  0  0  0  0  0  0  0  0  0  0  0
   57.1001   31.2838   44.5359 H   0  0  0  0  0  0  0  0  0  0  0  0
   57.7492   30.6060   43.0043 H   0  0  0  0  0  0  0  0  0  0  0  0
   56.1839   31.4871   43.0043 H   0  0  0  0  0  0  0  0  0  0  0  0
   55.0497   29.6060   43.5335 H   0  0  0  0  0  0  0  0  0  0  0  0
   56.5733   28.6939   43.2750 H   0  0  0  0  0  0  0  0  0  0  0  0
   58.2790   30.6660   45.3630 H   0  0  0  0  0  0  0  0  0  0  0  0
   60.4477   30.0133   47.3088 H   0  0  0  0  0  0  0  0  0  0  0  0
   60.9486   30.2966   45.5939 H   0  0  0  0  0  0  0  0  0  0  0  0
   60.4244   32.2396   47.6327 H   0  0  0  0  0  0  0  0  0  0  0  0
   60.8479   32.4998   45.8876 H   0  0  0  0  0  0  0  0  0  0  0  0
   57.3757   33.9713   47.0412 H   0  0  0  0  0  0  0  0  0  0  0  0
   58.1164   32.8528   48.2880 H   0  0  0  0  0  0  0  0  0  0  0  0
   59.3313   34.6217   48.9229 H   0  0  0  0  0  0  0  0  0  0  0  0
   60.2833   34.3327   47.4273 H   0  0  0  0  0  0  0  0  0  0  0  0
   58.9560   35.5430   47.4273 H   0  0  0  0  0  0  0  0  0  0  0  0
   59.6047   33.8376   44.8312 H   0  0  0  0  0  0  0  0  0  0  0  0
   58.6641   32.4234   44.2298 H   0  0  0  0  0  0  0  0  0  0  0  0
   57.1078   34.3296   45.9048 H   0  0  0  0  0  0  0  0  0  0  0  0
   57.7042   35.0089   44.3525 H   0  0  0  0  0  0  0  0  0  0  0  0
   56.6788   33.5340   44.3525 H   0  0  0  0  0  0  0  0  0  0  0  0
   60.2516   28.0669   47.0900 H   0  0  0  0  0  0  0  0  0  0  0  0
   59.4622   25.7423   47.6362 H   0  0  0  0  0  0  0  0  0  0  0  0
  1  2  1  0
  2  3  1  0
  3  4  1  0
  4  5  2  0
  5  6  1  0
  6  7  1  0
  7  8  1  0
  8  9  1  0
  9 10  1  0
 10 11  1  0
  9 12  1  0
 12 13  1  0
  5 14  1  0
 14 15  2  0
 15 16  1  0
 16 17  2  0
 17 18  1  0
 18 19  1  0
 19 20  2  0
 20  4  1  0
 20 16  1  0
  1 21  1  0
  1 22  1  0
  1 23  1  0
  2 24  1  0
  2 25  1  0
  6 26  1  0
  7 27  1  0
  7 28  1  0
  8 29  1  0
  8 30  1  0
 10 31  1  0
 10 32  1  0
 11 33  1  0
 11 34  1  0
 11 35  1  0
 12 36  1  0
 12 37  1  0
 13 38  1  0
 13 39  1  0
 13 40  1  0
 14 41  1  0
 15 42  1  0
M  END
>  <UniqueID>  (20) 
19

>  <SMILES>  (20) 
CCOc1c(NCCN(CC)CC)ccc2nonc12

>  <Energy>  (20) 
83.52008420966149

>  <Genealogy>  (20) 
CCOc1c(NCCN(CC)CC)ccc2nonc12 (3D coordinates assigned)
CCOc1c(NCCN(CC)CC)ccc2nonc12 (optimized conformer: 83.52008420966149 kcal/mol)

>  <smiles>  (20) 
CCOc1c(NCCN(CC)CC)ccc2nonc12

>  <score_type>  (20) 
oracle

>  <origin>  (20) 
adg

>  <m_score__min__energy>  (20) 
-6.3899999999999997

>  <m_primary>  (20) 
energy

$$$$
20:0
     RDKit          3D

 39 40  0  0  0  0  0  0  0  0999 V2000
   59.7500   31.4970   45.9740 H   0  0  0  0  0  0  0  0  0  0  0  0
   59.6920   30.5970   45.5150 O   0  0  0  0  0  0  0  0  0  0  0  0
   58.5290   29.8310   45.5410 C   0  0  0  0  0  0  0  0  0  0  0  0
   58.4650   28.6290   46.1530 N   0  0  0  0  0  0  0  0  0  0  0  0
   57.2020   28.1940   45.9700 C   0  0  0  0  0  0  0  0  0  0  0  0
   56.8055   27.2386   46.3440 H   0  0  0  0  0  0  0  0  0  0  0  0
   56.4800   29.1170   45.2480 C   0  0  0  0  0  0  0  0  0  0  0  0
   55.1480   28.9900   44.8720 O   0  0  0  0  0  0  0  0  0  0  0  0
   57.3160   30.1750   44.9670 C   0  0  0  0  0  0  0  0  0  0  0  0
   56.9960   31.3930   44.2050 C   0  0  0  0  0  0  0  0  0  0  0  0
   56.2252   31.3609   43.4209 H   0  0  0  0  0  0  0  0  0  0  0  0
   57.6180   32.5040   44.4530 N   0  0  0  0  0  0  0  0  0  0  0  0
   57.0310   33.5830   45.2390 C   0  0  0  0  0  0  0  0  0  0  0  0
   55.9383   33.5579   45.1152 H   0  0  0  0  0  0  0  0  0  0  0  0
   57.4522   34.5328   44.8777 H   0  0  0  0  0  0  0  0  0  0  0  0
   57.3650   33.4560   46.7420 C   0  0  0  0  0  0  0  0  0  0  0  0
   56.6953   32.6979   47.1742 H   0  0  0  0  0  0  0  0  0  0  0  0
   57.2312   34.4626   47.1650 H   0  0  0  0  0  0  0  0  0  0  0  0
   58.7600   33.0660   47.0600 N   0  0  0  0  0  0  0  0  0  0  0  0
   59.7330   34.1750   46.9550 C   0  0  0  0  0  0  0  0  0  0  0  0
   59.3905   35.0119   47.5813 H   0  0  0  0  0  0  0  0  0  0  0  0
   59.7993   34.4782   45.8997 H   0  0  0  0  0  0  0  0  0  0  0  0
   61.1350   33.7400   47.4230 C   0  0  0  0  0  0  0  0  0  0  0  0
   61.3021   34.0928   48.4514 H   0  0  0  0  0  0  0  0  0  0  0  0
   61.8916   34.1749   46.7533 H   0  0  0  0  0  0  0  0  0  0  0  0
   61.2420   32.2710   47.3870 N   0  0  0  0  0  0  0  0  0  0  0  0
   62.6300   31.7690   47.5000 C   0  0  0  0  0  0  0  0  0  0  0  0
   62.7388   30.9058   46.8269 H   0  0  0  0  0  0  0  0  0  0  0  0
   62.7840   31.5119   48.5584 H   0  0  0  0  0  0  0  0  0  0  0  0
   63.7120   32.7980   47.1390 C   0  0  0  0  0  0  0  0  0  0  0  0
   64.1469   33.2116   48.0609 H   0  0  0  0  0  0  0  0  0  0  0  0
   64.5009   32.3088   46.5488 H   0  0  0  0  0  0  0  0  0  0  0  0
   63.2630   33.6105   46.5488 H   0  0  0  0  0  0  0  0  0  0  0  0
   60.3090   31.6260   48.3360 C   0  0  0  0  0  0  0  0  0  0  0  0
   60.7216   31.7048   49.3526 H   0  0  0  0  0  0  0  0  0  0  0  0
   60.1910   30.5724   48.0426 H   0  0  0  0  0  0  0  0  0  0  0  0
   58.9210   32.2960   48.3050 C   0  0  0  0  0  0  0  0  0  0  0  0
   58.8241   32.9727   49.1668 H   0  0  0  0  0  0  0  0  0  0  0  0
   58.1442   31.5186   48.3513 H   0  0  0  0  0  0  0  0  0  0  0  0
  1  2  1  0
  2  3  1  0
  3  4  1  0
  4  5  1  0
  5  6  1  0
  5  7  2  0
  7  8  1  0
  7  9  1  0
  9 10  1  0
 10 11  1  0
 10 12  2  0
 12 13  1  0
 13 14  1  0
 13 15  1  0
 13 16  1  0
 16 17  1  0
 16 18  1  0
 16 19  1  0
 19 20  1  0
 20 21  1  0
 20 22  1  0
 20 23  1  0
 23 24  1  0
 23 25  1  0
 23 26  1  0
 26 27  1  0
 27 28  1  0
 27 29  1  0
 27 30  1  0
 30 31  1  0
 30 32  1  0
 30 33  1  0
 26 34  1  0
 34 35  1  0
 34 36  1  0
 34 37  1  0
 37 38  1  0
 37 39  1  0
  9  3  2  0
 37 19  1  0
M  CHG  2   4  -1   8  -1
M  END
>  <UniqueID>  (21) 
20

>  <SMILES>  (21) 
CCN1CCN(CC/N=C/c2c([O-])c[n-]c2O)CC1

>  <Energy>  (21) 
75.84787941051907

>  <Genealogy>  (21) 
CCN1CCN(CCN=Cc2c([O-])c[n-]c2O)CC1 (protonated)
CCN1CCN(CC/N=C/c2c([O-])c[n-]c2O)CC1 (cis-trans isomerization)
CCN1CCN(CC/N=C/c2c([O-])c[n-]c2O)CC1 (3D coordinates assigned)
CCN1CCN(CC/N=C/c2c([O-])c[n-]c2O)CC1 (nonaromatic ring conformer: 75.84787941051907 kcal/mol)

>  <smiles>  (21) 
CCN1CCN(CCN=Cc2c(O)c[nH]c2O)CC1

>  <score_type>  (21) 
oracle

>  <origin>  (21) 
adg

>  <m_score__min__energy>  (21) 
-11.66

>  <m_primary>  (21) 
energy

$$$$
21:0
     RDKit          3D

 39 41  0  0  0  0  0  0  0  0999 V2000
   55.5090   29.3690   44.5250 C   0  0  0  0  0  0  0  0  0  0  0  0
   56.5390   30.3800   44.1340 C   0  0  0  0  0  0  0  0  0  0  0  0
   56.6080   30.8480   42.8190 C   0  0  0  0  0  0  0  0  0  0  0  0
   57.5840   31.7950   42.4990 C   0  0  0  0  0  0  0  0  0  0  0  0
   57.6840   32.3410   41.1100 C   0  0  0  0  0  0  0  0  0  0  0  0
   58.4260   32.2470   43.4670 N   0  0  0  0  0  0  0  0  0  0  0  0
   58.3510   31.7870   44.7460 C   0  0  0  0  0  0  0  0  0  0  0  0
   59.2590   32.2840   45.7560 N   0  0  0  0  0  0  0  0  0  0  0  0
   60.1370   31.3550   46.4850 C   0  0  0  0  0  0  0  0  0  0  0  0
   60.3160   31.8120   47.9320 C   0  0  0  0  0  0  0  0  0  0  0  0
   60.6730   33.2350   47.9700 N   0  0  0  0  0  0  0  0  0  0  0  0
   61.6700   33.7340   48.8880 C   0  0  0  0  0  0  0  0  0  0  0  0
   61.5810   34.9090   49.3390 O   0  0  0  0  0  0  0  0  0  0  0  0
   62.8120   32.8720   49.3450 C   0  0  0  0  0  0  0  0  0  0  0  0
   63.6590   32.2980   48.2180 C   0  0  0  0  0  0  0  0  0  0  0  0
   64.1940   33.4430   49.0590 C   0  0  0  0  0  0  0  0  0  0  0  0
   59.7810   34.1650   47.2710 C   0  0  0  0  0  0  0  0  0  0  0  0
   59.5860   33.7180   45.8200 C   0  0  0  0  0  0  0  0  0  0  0  0
   57.4070   30.8590   45.0640 N   0  0  0  0  0  0  0  0  0  0  0  0
   55.4500   29.3111   45.6219 H   0  0  0  0  0  0  0  0  0  0  0  0
   54.5305   29.6671   44.1204 H   0  0  0  0  0  0  0  0  0  0  0  0
   55.7888   28.3851   44.1204 H   0  0  0  0  0  0  0  0  0  0  0  0
   55.9097   30.4791   42.0533 H   0  0  0  0  0  0  0  0  0  0  0  0
   57.8820   33.4221   41.1544 H   0  0  0  0  0  0  0  0  0  0  0  0
   58.5052   31.8394   40.5771 H   0  0  0  0  0  0  0  0  0  0  0  0
   56.7383   32.1630   40.5771 H   0  0  0  0  0  0  0  0  0  0  0  0
   59.6888   30.3505   46.4754 H   0  0  0  0  0  0  0  0  0  0  0  0
   61.1210   31.3359   45.9937 H   0  0  0  0  0  0  0  0  0  0  0  0
   59.3756   31.6579   48.4814 H   0  0  0  0  0  0  0  0  0  0  0  0
   61.1216   31.2257   48.3981 H   0  0  0  0  0  0  0  0  0  0  0  0
   62.3060   32.4609   50.2310 H   0  0  0  0  0  0  0  0  0  0  0  0
   64.0960   31.2933   48.3157 H   0  0  0  0  0  0  0  0  0  0  0  0
   63.5086   32.1284   47.1416 H   0  0  0  0  0  0  0  0  0  0  0  0
   65.0184   33.2675   49.7658 H   0  0  0  0  0  0  0  0  0  0  0  0
   64.5914   34.4459   48.8439 H   0  0  0  0  0  0  0  0  0  0  0  0
   58.8058   34.1851   47.7795 H   0  0  0  0  0  0  0  0  0  0  0  0
   60.2295   35.1694   47.2807 H   0  0  0  0  0  0  0  0  0  0  0  0
   58.7645   34.2959   45.3716 H   0  0  0  0  0  0  0  0  0  0  0  0
   60.5213   33.8921   45.2679 H   0  0  0  0  0  0  0  0  0  0  0  0
  1  2  1  0
  2  3  2  0
  3  4  1  0
  4  5  1  0
  4  6  2  0
  6  7  1  0
  7  8  1  0
  8  9  1  0
  9 10  1  0
 10 11  1  0
 11 12  1  0
 12 13  2  0
 12 14  1  0
 14 15  1  0
 15 16  1  0
 11 17  1  0
 17 18  1  0
  7 19  2  0
 19  2  1  0
 18  8  1  0
 16 14  1  0
  1 20  1  0
  1 21  1  0
  1 22  1  0
  3 23  1  0
  5 24  1  0
  5 25  1  0
  5 26  1  0
  9 27  1  0
  9 28  1  0
 10 29  1  0
 10 30  1  0
 14 31  1  0
 15 32  1  0
 15 33  1  0
 16 34  1  0
 16 35  1  0
 17 36  1  0
 17 37  1  0
 18 38  1  0
 18 39  1  0
M  END
>  <UniqueID>  (22) 
21

>  <SMILES>  (22) 
Cc1cc(C)nc(N2CCN(C(=O)C3CC3)CC2)n1

>  <Energy>  (22) 
301.3108424976592

>  <Genealogy>  (22) 
Cc1cc(C)nc(N2CCN(C(=O)C3CC3)CC2)n1 (3D coordinates assigned)
Cc1cc(C)nc(N2CCN(C(=O)C3CC3)CC2)n1 (nonaromatic ring conformer: 301.3108424976592 kcal/mol)

>  <smiles>  (22) 
Cc1cc(C)nc(N2CCN(C(=O)C3CC3)CC2)n1

>  <score_type>  (22) 
oracle

>  <origin>  (22) 
adg

>  <m_score__min__energy>  (22) 
-6.3799999999999999

>  <m_primary>  (22) 
energy

$$$$
22:0
     RDKit          3D

 41 42  0  0  0  0  0  0  0  0999 V2000
   58.9730   30.2470   46.9680 C   0  0  0  0  0  0  0  0  0  0  0  0
   57.7670   30.6610   46.3350 O   0  0  0  0  0  0  0  0  0  0  0  0
   57.6460   30.9620   44.9690 C   0  0  0  0  0  0  0  0  0  0  0  0
   56.9190   30.1340   44.0880 C   0  0  0  0  0  0  0  0  0  0  0  0
   56.7690   30.4900   42.7460 C   0  0  0  0  0  0  0  0  0  0  0  0
   57.3340   31.6720   42.2670 C   0  0  0  0  0  0  0  0  0  0  0  0
   58.0620   32.4970   43.1260 C   0  0  0  0  0  0  0  0  0  0  0  0
   58.2440   32.1390   44.4710 C   0  0  0  0  0  0  0  0  0  0  0  0
   58.9970   33.0120   45.3260 N   0  0  0  0  0  0  0  0  0  0  0  0
   58.7390   34.4200   45.4310 C   0  0  0  0  0  0  0  0  0  0  0  0
   57.7460   34.9340   44.8470 O   0  0  0  0  0  0  0  0  0  0  0  0
   59.6170   35.2900   46.2800 C   0  0  0  0  0  0  0  0  0  0  0  0
   60.4990   34.4570   47.1230 N   0  0  0  0  0  0  0  0  0  0  0  0
   61.6000   33.7930   46.3900 C   0  0  0  0  0  0  0  0  0  0  0  0
   62.9490   33.8130   47.1370 C   0  0  0  0  0  0  0  0  0  0  0  0
   62.8740   33.2240   48.5480 C   0  0  0  0  0  0  0  0  0  0  0  0
   61.9660   34.0280   49.4860 C   0  0  0  0  0  0  0  0  0  0  0  0
   60.5350   33.4780   49.4980 C   0  0  0  0  0  0  0  0  0  0  0  0
   59.7870   33.6770   48.1680 C   0  0  0  0  0  0  0  0  0  0  0  0
   58.8475   30.2901   48.0600 H   0  0  0  0  0  0  0  0  0  0  0  0
   59.2101   29.2160   46.6666 H   0  0  0  0  0  0  0  0  0  0  0  0
   59.7933   30.9150   46.6666 H   0  0  0  0  0  0  0  0  0  0  0  0
   56.4676   29.2025   44.4603 H   0  0  0  0  0  0  0  0  0  0  0  0
   56.2039   29.8367   42.0649 H   0  0  0  0  0  0  0  0  0  0  0  0
   57.2058   31.9542   41.2116 H   0  0  0  0  0  0  0  0  0  0  0  0
   58.4959   33.4338   42.7464 H   0  0  0  0  0  0  0  0  0  0  0  0
   59.6520   32.5770   46.0140 H   0  0  0  0  0  0  0  0  0  0  0  0
   60.2330   35.9288   45.6300 H   0  0  0  0  0  0  0  0  0  0  0  0
   58.9845   35.9134   46.9290 H   0  0  0  0  0  0  0  0  0  0  0  0
   61.3167   32.7447   46.2146 H   0  0  0  0  0  0  0  0  0  0  0  0
   61.7445   34.3534   45.4546 H   0  0  0  0  0  0  0  0  0  0  0  0
   63.6782   33.2305   46.5548 H   0  0  0  0  0  0  0  0  0  0  0  0
   63.2456   34.8671   47.2416 H   0  0  0  0  0  0  0  0  0  0  0  0
   62.4852   32.1973   48.4789 H   0  0  0  0  0  0  0  0  0  0  0  0
   63.8894   33.2514   48.9701 H   0  0  0  0  0  0  0  0  0  0  0  0
   62.3750   33.9800   50.5060 H   0  0  0  0  0  0  0  0  0  0  0  0
   61.9316   35.0661   49.1239 H   0  0  0  0  0  0  0  0  0  0  0  0
   60.5785   32.4004   49.7146 H   0  0  0  0  0  0  0  0  0  0  0  0
   59.9810   34.0373   50.2663 H   0  0  0  0  0  0  0  0  0  0  0  0
   59.5697   32.6815   47.7535 H   0  0  0  0  0  0  0  0  0  0  0  0
   58.8945   34.2690   48.4190 H   0  0  0  0  0  0  0  0  0  0  0  0
  1  2  1  0
  2  3  1  0
  3  4  2  0
  4  5  1  0
  5  6  2  0
  6  7  1  0
  7  8  2  0
  8  9  1  0
  9 10  1  0
 10 11  2  0
 10 12  1  0
 12 13  1  0
 13 14  1  0
 14 15  1  0
 15 16  1  0
 16 17  1  0
 17 18  1  0
 18 19  1  0
  8  3  1  0
 19 13  1  0
  1 20  1  0
  1 21  1  0
  1 22  1  0
  4 23  1  0
  5 24  1  0
  6 25  1  0
  7 26  1  0
  9 27  1  0
 12 28  1  0
 12 29  1  0
 14 30  1  0
 14 31  1  0
 15 32  1  0
 15 33  1  0
 16 34  1  0
 16 35  1  0
 17 36  1  0
 17 37  1  0
 18 38  1  0
 18 39  1  0
 19 40  1  0
 19 41  1  0
M  END
>  <UniqueID>  (23) 
22

>  <SMILES>  (23) 
COc1ccccc1NC(=O)CN1CCCCCC1

>  <Energy>  (23) 
53.32188599373918

>  <Genealogy>  (23) 
COc1ccccc1NC(=O)CN1CCCCCC1 (3D coordinates assigned)
COc1ccccc1NC(=O)CN1CCCCCC1 (nonaromatic ring conformer: 53.32188599373918 kcal/mol)

>  <smiles>  (23) 
COc1ccccc1NC(=O)CN1CCCCCC1

>  <score_type>  (23) 
oracle

>  <origin>  (23) 
adg

>  <m_score__min__energy>  (23) 
-5.0800000000000001

>  <m_primary>  (23) 
energy

$$$$
23:0
     RDKit          3D

 36 39  0  0  0  0  0  0  0  0999 V2000
   66.2710   32.4410   50.1210 C   0  0  0  0  0  0  0  0  0  0  0  0
   65.2760   33.4590   50.1460 O   0  0  0  0  0  0  0  0  0  0  0  0
   64.1280   33.4650   49.3400 C   0  0  0  0  0  0  0  0  0  0  0  0
   62.9360   33.9530   49.8820 C   0  0  0  0  0  0  0  0  0  0  0  0
   61.7640   33.9810   49.1200 C   0  0  0  0  0  0  0  0  0  0  0  0
   61.7650   33.5160   47.7920 C   0  0  0  0  0  0  0  0  0  0  0  0
   60.5330   33.5380   46.9660 C   0  0  0  0  0  0  0  0  0  0  0  0
   59.6610   34.6310   46.8040 C   0  0  0  0  0  0  0  0  0  0  0  0
   58.7110   34.1690   45.9950 N   0  0  0  0  0  0  0  0  0  0  0  0
   57.5470   34.5870   45.5450 N   0  0  0  0  0  0  0  0  0  0  0  0
   57.0400   33.5030   44.8890 C   0  0  0  0  0  0  0  0  0  0  0  0
   57.9210   32.4000   44.9750 C   0  0  0  0  0  0  0  0  0  0  0  0
   57.7360   31.0220   44.4590 C   0  0  0  0  0  0  0  0  0  0  0  0
   56.7990   30.7600   43.4460 C   0  0  0  0  0  0  0  0  0  0  0  0
   56.6380   29.4570   42.9700 C   0  0  0  0  0  0  0  0  0  0  0  0
   57.3860   28.4420   43.4810 N   0  0  0  0  0  0  0  0  0  0  0  0
   58.3050   28.6660   44.4590 C   0  0  0  0  0  0  0  0  0  0  0  0
   58.4970   29.9540   44.9640 C   0  0  0  0  0  0  0  0  0  0  0  0
   58.9590   32.9300   45.7050 C   0  0  0  0  0  0  0  0  0  0  0  0
   60.0760   32.4440   46.2770 N   0  0  0  0  0  0  0  0  0  0  0  0
   62.9660   33.0280   47.2470 C   0  0  0  0  0  0  0  0  0  0  0  0
   64.1360   33.0000   48.0110 C   0  0  0  0  0  0  0  0  0  0  0  0
   66.5400   32.1658   51.1515 H   0  0  0  0  0  0  0  0  0  0  0  0
   65.8786   31.5575   49.5961 H   0  0  0  0  0  0  0  0  0  0  0  0
   67.1632   32.8131   49.5961 H   0  0  0  0  0  0  0  0  0  0  0  0
   62.9196   34.3190   50.9192 H   0  0  0  0  0  0  0  0  0  0  0  0
   60.8345   34.3693   49.5619 H   0  0  0  0  0  0  0  0  0  0  0  0
   59.7454   35.6354   47.2446 H   0  0  0  0  0  0  0  0  0  0  0  0
   56.0740   33.4890   44.3630 H   0  0  0  0  0  0  0  0  0  0  0  0
   56.1939   31.5785   43.0289 H   0  0  0  0  0  0  0  0  0  0  0  0
   55.9029   29.2504   42.1782 H   0  0  0  0  0  0  0  0  0  0  0  0
   57.2540   27.4740   43.1140 H   0  0  0  0  0  0  0  0  0  0  0  0
   58.8995   27.8289   44.8538 H   0  0  0  0  0  0  0  0  0  0  0  0
   59.2413   30.1317   45.7542 H   0  0  0  0  0  0  0  0  0  0  0  0
   62.9848   32.6646   46.2089 H   0  0  0  0  0  0  0  0  0  0  0  0
   65.0674   32.6129   47.5720 H   0  0  0  0  0  0  0  0  0  0  0  0
  1  2  1  0
  2  3  1  0
  3  4  2  0
  4  5  1  0
  5  6  2  0
  6  7  1  0
  7  8  2  0
  8  9  1  0
  9 10  1  0
 10 11  2  0
 11 12  1  0
 12 13  1  0
 13 14  2  0
 14 15  1  0
 15 16  2  0
 16 17  1  0
 17 18  2  0
 12 19  2  0
 19 20  1  0
  6 21  1  0
 21 22  2  0
 22  3  1  0
 20  7  1  0
 19  9  1  0
 18 13  1  0
  1 23  1  0
  1 24  1  0
  1 25  1  0
  4 26  1  0
  5 27  1  0
  8 28  1  0
 11 29  1  0
 14 30  1  0
 15 31  1  0
 16 32  1  0
 17 33  1  0
 18 34  1  0
 21 35  1  0
 22 36  1  0
M  CHG  2  16   1  20  -1
M  END
>  <UniqueID>  (24) 
23

>  <SMILES>  (24) 
COc1ccc(-c2cn3ncc(-c4cc[nH+]cc4)c3[n-]2)cc1

>  <Energy>  (24) 
132.32204458458

>  <Genealogy>  (24) 
COc1ccc(-c2cn3ncc(-c4cc[nH+]cc4)c3[n-]2)cc1 (protonated)
COc1ccc(-c2cn3ncc(-c4cc[nH+]cc4)c3[n-]2)cc1 (3D coordinates assigned)
COc1ccc(-c2cn3ncc(-c4cc[nH+]cc4)c3[n-]2)cc1 (optimized conformer: 132.32204458458 kcal/mol)

>  <smiles>  (24) 
COc1ccc(-c2cn3ncc(-c4ccncc4)c3[nH]2)cc1

>  <score_type>  (24) 
oracle

>  <origin>  (24) 
adg

>  <m_score__min__energy>  (24) 
-7

>  <m_primary>  (24) 
energy

$$$$
24:0
     RDKit          3D

 40 42  0  0  0  0  0  0  0  0999 V2000
   56.2490   29.7100   42.6010 C   0  0  0  0  0  0  0  0  0  0  0  0
   56.0720   29.7930   44.0110 O   0  0  0  0  0  0  0  0  0  0  0  0
   57.0840   29.5730   44.9610 C   0  0  0  0  0  0  0  0  0  0  0  0
   57.1450   28.3930   45.7170 C   0  0  0  0  0  0  0  0  0  0  0  0
   58.1550   28.1870   46.6780 C   0  0  0  0  0  0  0  0  0  0  0  0
   58.1930   26.9950   47.4210 O   0  0  0  0  0  0  0  0  0  0  0  0
   57.8790   25.6990   46.9190 C   0  0  0  0  0  0  0  0  0  0  0  0
   59.1360   29.1950   46.8870 C   0  0  0  0  0  0  0  0  0  0  0  0
   60.2070   29.0850   47.8250 C   0  0  0  0  0  0  0  0  0  0  0  0
   60.4140   27.8870   48.7180 C   0  0  0  0  0  0  0  0  0  0  0  0
   61.1250   30.1390   47.9300 C   0  0  0  0  0  0  0  0  0  0  0  0
   60.9780   31.2650   47.1280 C   0  0  0  0  0  0  0  0  0  0  0  0
   61.8010   32.2130   47.2160 O   0  0  0  0  0  0  0  0  0  0  0  0
   59.9740   31.3480   46.2690 O   0  0  0  0  0  0  0  0  0  0  0  0
   59.0650   30.3870   46.1150 C   0  0  0  0  0  0  0  0  0  0  0  0
   58.0470   30.5690   45.1650 C   0  0  0  0  0  0  0  0  0  0  0  0
   58.0190   31.8040   44.3560 C   0  0  0  0  0  0  0  0  0  0  0  0
   58.4960   31.7930   43.1900 O   0  0  0  0  0  0  0  0  0  0  0  0
   57.3180   33.0290   44.8610 C   0  0  0  0  0  0  0  0  0  0  0  0
   58.2010   33.7450   45.8320 C   0  0  0  0  0  0  0  0  0  0  0  0
   59.2470   34.5970   45.5000 C   0  0  0  0  0  0  0  0  0  0  0  0
   59.9830   35.0250   46.6120 C   0  0  0  0  0  0  0  0  0  0  0  0
   59.5290   34.5000   47.8150 C   0  0  0  0  0  0  0  0  0  0  0  0
   58.2170   33.4970   47.4950 S   0  0  0  0  0  0  0  0  0  0  0  0
   57.2247   29.2525   42.3802 H   0  0  0  0  0  0  0  0  0  0  0  0
   55.4482   29.0935   42.1666 H   0  0  0  0  0  0  0  0  0  0  0  0
   56.2109   30.7199   42.1666 H   0  0  0  0  0  0  0  0  0  0  0  0
   56.3879   27.6113   45.5562 H   0  0  0  0  0  0  0  0  0  0  0  0
   57.7122   25.0104   47.7604 H   0  0  0  0  0  0  0  0  0  0  0  0
   56.9683   25.7545   46.3045 H   0  0  0  0  0  0  0  0  0  0  0  0
   58.7141   25.3316   46.3045 H   0  0  0  0  0  0  0  0  0  0  0  0
   60.3598   28.2008   49.7709 H   0  0  0  0  0  0  0  0  0  0  0  0
   59.6316   27.1404   48.5171 H   0  0  0  0  0  0  0  0  0  0  0  0
   61.4016   27.4462   48.5171 H   0  0  0  0  0  0  0  0  0  0  0  0
   61.9589   30.0754   48.6445 H   0  0  0  0  0  0  0  0  0  0  0  0
   57.0877   33.6941   44.0157 H   0  0  0  0  0  0  0  0  0  0  0  0
   56.3839   32.7359   45.3626 H   0  0  0  0  0  0  0  0  0  0  0  0
   59.4740   34.9042   44.4685 H   0  0  0  0  0  0  0  0  0  0  0  0
   60.8393   35.7117   46.5395 H   0  0  0  0  0  0  0  0  0  0  0  0
   59.9549   34.7052   48.8082 H   0  0  0  0  0  0  0  0  0  0  0  0
  1  2  1  0
  2  3  1  0
  3  4  2  0
  4  5  1  0
  5  6  1  0
  6  7  1  0
  5  8  2  0
  8  9  1  0
  9 10  1  0
  9 11  2  0
 11 12  1  0
 12 13  2  0
 12 14  1  0
 14 15  1  0
 15 16  2  0
 16 17  1  0
 17 18  2  0
 17 19  1  0
 19 20  1  0
 20 21  2  0
 21 22  1  0
 22 23  2  0
 23 24  1  0
 16  3  1  0
 24 20  1  0
 15  8  1  0
  1 25  1  0
  1 26  1  0
  1 27  1  0
  4 28  1  0
  7 29  1  0
  7 30  1  0
  7 31  1  0
 10 32  1  0
 10 33  1  0
 10 34  1  0
 11 35  1  0
 19 36  1  0
 19 37  1  0
 21 38  1  0
 22 39  1  0
 23 40  1  0
M  END
>  <UniqueID>  (25) 
24

>  <SMILES>  (25) 
COc1cc(OC)c2c(C)cc(=O)oc2c1C(=O)Cc1cccs1

>  <Energy>  (25) 
79.77906589656551

>  <Genealogy>  (25) 
COc1cc(OC)c2c(C)cc(=O)oc2c1C(=O)Cc1cccs1 (3D coordinates assigned)
COc1cc(OC)c2c(C)cc(=O)oc2c1C(=O)Cc1cccs1 (optimized conformer: 79.77906589656551 kcal/mol)

>  <smiles>  (25) 
COc1cc(OC)c2c(C)cc(=O)oc2c1C(=O)Cc1cccs1

>  <score_type>  (25) 
oracle

>  <origin>  (25) 
adg

>  <m_score__min__energy>  (25) 
-6.6500000000000004

>  <m_primary>  (25) 
energy

$$$$
25:0
     RDKit          3D

 44 46  0  0  0  0  0  0  0  0999 V2000
   58.4510   32.3830   48.7220 C   0  0  0  0  0  0  0  0  0  0  0  0
   58.5260   33.1760   47.4430 C   0  0  0  0  0  0  0  0  0  0  0  0
   57.3340   33.4580   46.7500 C   0  0  0  0  0  0  0  0  0  0  0  0
   57.3620   34.1420   45.5350 C   0  0  0  0  0  0  0  0  0  0  0  0
   58.5780   34.5430   44.9860 C   0  0  0  0  0  0  0  0  0  0  0  0
   59.7710   34.2660   45.6530 C   0  0  0  0  0  0  0  0  0  0  0  0
   59.7660   33.5900   46.8870 C   0  0  0  0  0  0  0  0  0  0  0  0
   61.0920   33.3350   47.5800 C   0  0  0  0  0  0  0  0  0  0  0  0
   61.7940   32.1480   47.0500 N   0  0  0  0  0  0  0  0  0  0  0  0
   61.3810   30.8660   47.6530 C   0  0  0  0  0  0  0  0  0  0  0  0
   60.4190   30.0520   46.7640 C   0  0  1  0  0  0  0  0  0  0  0  0
   59.3540   29.3410   47.6140 C   0  0  0  0  0  0  0  0  0  0  0  0
   58.3800   28.6740   46.7380 N   0  0  0  0  0  0  0  0  0  0  0  0
   57.9150   27.3180   47.0480 C   0  0  0  0  0  0  0  0  0  0  0  0
   57.9100   29.3820   45.5670 C   0  0  0  0  0  0  0  0  0  0  0  0
   56.7610   28.9840   44.8570 C   0  0  0  0  0  0  0  0  0  0  0  0
   56.3270   29.7210   43.7510 C   0  0  0  0  0  0  0  0  0  0  0  0
   57.0290   30.8590   43.3450 C   0  0  0  0  0  0  0  0  0  0  0  0
   58.1750   31.2580   44.0390 C   0  0  0  0  0  0  0  0  0  0  0  0
   58.6220   30.5180   45.1370 C   0  0  0  0  0  0  0  0  0  0  0  0
   59.7800   30.9090   45.8150 O   0  0  0  0  0  0  0  0  0  0  0  0
   58.5156   33.0664   49.5815 H   0  0  0  0  0  0  0  0  0  0  0  0
   57.4971   31.8364   48.7591 H   0  0  0  0  0  0  0  0  0  0  0  0
   59.2855   31.6672   48.7591 H   0  0  0  0  0  0  0  0  0  0  0  0
   56.3703   33.1356   47.1710 H   0  0  0  0  0  0  0  0  0  0  0  0
   56.4220   34.3653   45.0091 H   0  0  0  0  0  0  0  0  0  0  0  0
   58.5972   35.0787   44.0254 H   0  0  0  0  0  0  0  0  0  0  0  0
   60.7273   34.5797   45.2091 H   0  0  0  0  0  0  0  0  0  0  0  0
   61.7364   34.2157   47.4416 H   0  0  0  0  0  0  0  0  0  0  0  0
   60.8804   33.1484   48.6432 H   0  0  0  0  0  0  0  0  0  0  0  0
   62.8240   32.2810   47.1830 H   0  0  0  0  0  0  0  0  0  0  0  0
   61.6280   32.0860   46.0190 H   0  0  0  0  0  0  0  0  0  0  0  0
   62.2813   30.2613   47.8371 H   0  0  0  0  0  0  0  0  0  0  0  0
   60.8419   31.1032   48.5820 H   0  0  0  0  0  0  0  0  0  0  0  0
   61.0093   29.2918   46.2315 H   0  0  0  0  0  0  0  0  0  0  0  0
   59.8401   28.5919   48.2564 H   0  0  0  0  0  0  0  0  0  0  0  0
   58.8330   30.0826   48.2374 H   0  0  0  0  0  0  0  0  0  0  0  0
   57.8699   27.1864   48.1392 H   0  0  0  0  0  0  0  0  0  0  0  0
   56.9136   27.1667   46.6187 H   0  0  0  0  0  0  0  0  0  0  0  0
   58.6128   26.5840   46.6187 H   0  0  0  0  0  0  0  0  0  0  0  0
   56.2031   28.0904   45.1735 H   0  0  0  0  0  0  0  0  0  0  0  0
   55.4301   29.4040   43.1987 H   0  0  0  0  0  0  0  0  0  0  0  0
   56.6798   31.4409   42.4793 H   0  0  0  0  0  0  0  0  0  0  0  0
   58.7256   32.1555   43.7205 H   0  0  0  0  0  0  0  0  0  0  0  0
  1  2  1  0
  2  3  2  0
  3  4  1  0
  4  5  2  0
  5  6  1  0
  6  7  2  0
  7  8  1  0
  8  9  1  0
  9 10  1  0
 10 11  1  0
 11 12  1  0
 12 13  1  0
 13 14  1  0
 13 15  1  0
 15 16  2  0
 16 17  1  0
 17 18  2  0
 18 19  1  0
 19 20  2  0
 20 21  1  0
  7  2  1  0
 21 11  1  0
 20 15  1  0
  1 22  1  0
  1 23  1  0
  1 24  1  0
  3 25  1  0
  4 26  1  0
  5 27  1  0
  6 28  1  0
  8 29  1  0
  8 30  1  0
  9 31  1  0
  9 32  1  0
 10 33  1  0
 10 34  1  0
 11 35  1  6
 12 36  1  0
 12 37  1  0
 14 38  1  0
 14 39  1  0
 14 40  1  0
 16 41  1  0
 17 42  1  0
 18 43  1  0
 19 44  1  0
M  CHG  1   9   1
M  END
>  <UniqueID>  (26) 
25

>  <SMILES>  (26) 
Cc1ccccc1C[NH2+]C[C@H]1CN(C)c2ccccc2O1

>  <Energy>  (26) 
47.89961094056227

>  <Genealogy>  (26) 
Cc1ccccc1C[NH2+]CC1CN(C)c2ccccc2O1 (protonated)
Cc1ccccc1C[NH2+]C[C@H]1CN(C)c2ccccc2O1 (chirality)
Cc1ccccc1C[NH2+]C[C@H]1CN(C)c2ccccc2O1 (3D coordinates assigned)
Cc1ccccc1C[NH2+]C[C@H]1CN(C)c2ccccc2O1 (nonaromatic ring conformer: 47.89961094056227 kcal/mol)

>  <smiles>  (26) 
Cc1ccccc1CNCC1CN(C)c2ccccc2O1

>  <score_type>  (26) 
oracle

>  <origin>  (26) 
adg

>  <m_score__min__energy>  (26) 
-5.1900000000000004

>  <m_primary>  (26) 
energy

$$$$
26:0
     RDKit          3D

 44 46  0  0  0  0  0  0  0  0999 V2000
   57.5170   31.7590   42.4720 C   0  0  0  0  0  0  0  0  0  0  0  0
   56.6600   30.5990   42.9610 C   0  0  0  0  0  0  0  0  0  0  0  0
   57.4910   29.6210   43.6570 N   0  0  0  0  0  0  0  0  0  0  0  0
   58.3920   29.8910   44.6270 C   0  0  0  0  0  0  0  0  0  0  0  0
   58.8850   28.6850   45.0930 C   0  0  0  0  0  0  0  0  0  0  0  0
   58.2320   27.7250   44.3700 C   0  0  0  0  0  0  0  0  0  0  0  0
   57.3900   28.3090   43.5010 N   0  0  0  0  0  0  0  0  0  0  0  0
   58.4750   26.2650   44.5270 C   0  0  0  0  0  0  0  0  0  0  0  0
   59.0830   25.9740   45.8430 N   0  0  0  0  0  0  0  0  0  0  0  0
   58.1840   25.4350   46.8840 C   0  0  0  0  0  0  0  0  0  0  0  0
   56.7470   25.3510   46.4580 C   0  0  0  0  0  0  0  0  0  0  0  0
   55.8910   26.4180   46.2990 C   0  0  0  0  0  0  0  0  0  0  0  0
   54.6730   25.9550   45.9690 N   0  0  0  0  0  0  0  0  0  0  0  0
   54.8230   24.6140   45.9720 C   0  0  0  0  0  0  0  0  0  0  0  0
   53.7300   23.6740   45.5910 C   0  0  0  0  0  0  0  0  0  0  0  0
   56.0720   24.2030   46.2690 N   0  0  0  0  0  0  0  0  0  0  0  0
   60.1780   26.8750   46.2910 C   0  0  0  0  0  0  0  0  0  0  0  0
   59.8770   28.4050   46.1830 C   0  0  2  0  0  0  0  0  0  0  0  0
   59.4220   29.0180   47.5200 C   0  0  0  0  0  0  0  0  0  0  0  0
   59.3740   30.4260   47.4020 O   0  0  0  0  0  0  0  0  0  0  0  0
   60.6830   30.9300   47.2500 C   0  0  0  0  0  0  0  0  0  0  0  0
   57.9212   32.3061   43.3364 H   0  0  0  0  0  0  0  0  0  0  0  0
   58.3468   31.3707   41.8632 H   0  0  0  0  0  0  0  0  0  0  0  0
   56.9020   32.4381   41.8632 H   0  0  0  0  0  0  0  0  0  0  0  0
   55.8913   30.9794   43.6498 H   0  0  0  0  0  0  0  0  0  0  0  0
   56.1812   30.1153   42.0968 H   0  0  0  0  0  0  0  0  0  0  0  0
   58.6818   30.8908   44.9826 H   0  0  0  0  0  0  0  0  0  0  0  0
   56.7510   27.8280   42.8280 H   0  0  0  0  0  0  0  0  0  0  0  0
   57.5179   25.7290   44.4451 H   0  0  0  0  0  0  0  0  0  0  0  0
   59.1665   25.9351   43.7377 H   0  0  0  0  0  0  0  0  0  0  0  0
   58.5270   24.4240   47.1491 H   0  0  0  0  0  0  0  0  0  0  0  0
   58.2261   26.1301   47.7355 H   0  0  0  0  0  0  0  0  0  0  0  0
   56.1603   27.4774   46.4221 H   0  0  0  0  0  0  0  0  0  0  0  0
   53.2603   23.2701   46.5000 H   0  0  0  0  0  0  0  0  0  0  0  0
   52.9761   24.2102   44.9960 H   0  0  0  0  0  0  0  0  0  0  0  0
   54.1473   22.8483   44.9960 H   0  0  0  0  0  0  0  0  0  0  0  0
   60.3957   26.6460   47.3446 H   0  0  0  0  0  0  0  0  0  0  0  0
   61.0225   26.6847   45.6123 H   0  0  0  0  0  0  0  0  0  0  0  0
   60.8265   28.8946   45.9209 H   0  0  0  0  0  0  0  0  0  0  0  0
   58.4222   28.6374   47.7762 H   0  0  0  0  0  0  0  0  0  0  0  0
   60.1343   28.7409   48.3111 H   0  0  0  0  0  0  0  0  0  0  0  0
   61.1275   31.1011   48.2416 H   0  0  0  0  0  0  0  0  0  0  0  0
   61.2938   30.2027   46.6950 H   0  0  0  0  0  0  0  0  0  0  0  0
   60.6483   31.8791   46.6950 H   0  0  0  0  0  0  0  0  0  0  0  0
  1  2  1  0
  2  3  1  0
  3  4  1  0
  4  5  2  0
  5  6  1  0
  6  7  2  0
  6  8  1  0
  8  9  1  0
  9 10  1  0
 10 11  1  0
 11 12  2  0
 12 13  1  0
 13 14  1  0
 14 15  1  0
 14 16  2  0
  9 17  1  0
 17 18  1  0
 18 19  1  0
 19 20  1  0
 20 21  1  0
  7  3  1  0
 16 11  1  0
 18  5  1  0
  1 22  1  0
  1 23  1  0
  1 24  1  0
  2 25  1  0
  2 26  1  0
  4 27  1  0
  7 28  1  0
  8 29  1  0
  8 30  1  0
 10 31  1  0
 10 32  1  0
 12 33  1  0
 15 34  1  0
 15 35  1  0
 15 36  1  0
 17 37  1  0
 17 38  1  0
 18 39  1  6
 19 40  1  0
 19 41  1  0
 21 42  1  0
 21 43  1  0
 21 44  1  0
M  CHG  2   7   1  13  -1
M  END
>  <UniqueID>  (27) 
26

>  <SMILES>  (27) 
CCn1cc2c([nH+]1)CN(Cc1c[n-]c(C)n1)C[C@@H]2COC

>  <Energy>  (27) 
110.66690756230909

>  <Genealogy>  (27) 
CCn1cc2c([nH+]1)CN(Cc1c[n-]c(C)n1)CC2COC (protonated)
CCn1cc2c([nH+]1)CN(Cc1c[n-]c(C)n1)C[C@@H]2COC (chirality)
CCn1cc2c([nH+]1)CN(Cc1c[n-]c(C)n1)C[C@@H]2COC (3D coordinates assigned)
CCn1cc2c([nH+]1)CN(Cc1c[n-]c(C)n1)C[C@@H]2COC (nonaromatic ring conformer: 110.66690756230909 kcal/mol)

>  <smiles>  (27) 
CCn1cc2c(n1)CN(Cc1c[nH]c(C)n1)CC2COC

>  <score_type>  (27) 
oracle

>  <origin>  (27) 
adg

>  <m_score__min__energy>  (27) 
-7.0800000000000001

>  <m_primary>  (27) 
energy

$$$$
27:0
     RDKit          3D

 39 40  0  0  0  0  0  0  0  0999 V2000
   59.3856   34.8322   48.2102 H   0  0  0  0  0  0  0  0  0  0  0  0
   59.7990   34.4530   47.2640 C   0  0  0  0  0  0  0  0  0  0  0  0
   59.3030   34.9270   46.1140 C   0  0  0  0  0  0  0  0  0  0  0  0
   58.9165   35.9568   46.1003 H   0  0  0  0  0  0  0  0  0  0  0  0
   59.2450   34.1290   44.8390 C   0  0  0  0  0  0  0  0  0  0  0  0
   59.8388   33.2111   44.9607 H   0  0  0  0  0  0  0  0  0  0  0  0
   59.6509   34.7419   44.0207 H   0  0  0  0  0  0  0  0  0  0  0  0
   57.8460   33.7630   44.5100 N   0  0  0  0  0  0  0  0  0  0  0  0
   57.1010   33.4560   45.7420 C   0  0  0  0  0  0  0  0  0  0  0  0
   57.7179   33.7102   46.6165 H   0  0  0  0  0  0  0  0  0  0  0  0
   56.1720   34.0446   45.7650 H   0  0  0  0  0  0  0  0  0  0  0  0
   56.8564   32.3838   45.7650 H   0  0  0  0  0  0  0  0  0  0  0  0
   57.7750   32.6110   43.5840 C   0  0  0  0  0  0  0  0  0  0  0  0
   58.7467   32.4917   43.0823 H   0  0  0  0  0  0  0  0  0  0  0  0
   56.9823   32.8019   42.8457 H   0  0  0  0  0  0  0  0  0  0  0  0
   57.4470   31.3510   44.3230 C   0  0  0  0  0  0  0  0  0  0  0  0
   56.1950   30.8840   44.4960 N   0  0  0  0  0  0  0  0  0  0  0  0
   56.3010   29.7530   45.1320 O   0  0  0  0  0  0  0  0  0  0  0  0
   57.5580   29.4680   45.3790 C   0  0  0  0  0  0  0  0  0  0  0  0
   58.0260   28.2260   46.0580 C   0  0  0  0  0  0  0  0  0  0  0  0
   57.9746   28.3625   47.1483 H   0  0  0  0  0  0  0  0  0  0  0  0
   57.3839   27.3828   45.7634 H   0  0  0  0  0  0  0  0  0  0  0  0
   59.0648   28.0162   45.7634 H   0  0  0  0  0  0  0  0  0  0  0  0
   58.3550   30.4690   44.8700 C   0  0  0  0  0  0  0  0  0  0  0  0
   59.4520   30.5464   44.8940 H   0  0  0  0  0  0  0  0  0  0  0  0
   60.8750   33.4450   47.3190 C   0  0  0  0  0  0  0  0  0  0  0  0
   62.1880   33.8400   47.0180 C   0  0  0  0  0  0  0  0  0  0  0  0
   62.3933   34.8806   46.7263 H   0  0  0  0  0  0  0  0  0  0  0  0
   63.2340   32.9190   47.0870 C   0  0  0  0  0  0  0  0  0  0  0  0
   64.2617   33.2367   46.8572 H   0  0  0  0  0  0  0  0  0  0  0  0
   62.9780   31.5960   47.4470 C   0  0  0  0  0  0  0  0  0  0  0  0
   63.8059   30.8744   47.5090 H   0  0  0  0  0  0  0  0  0  0  0  0
   61.6730   31.1850   47.7290 C   0  0  0  0  0  0  0  0  0  0  0  0
   61.4778   30.1391   48.0084 H   0  0  0  0  0  0  0  0  0  0  0  0
   60.6070   32.1000   47.6580 C   0  0  0  0  0  0  0  0  0  0  0  0
   59.2080   31.6360   47.9620 C   0  0  0  0  0  0  0  0  0  0  0  0
   59.0660   31.5889   49.0518 H   0  0  0  0  0  0  0  0  0  0  0  0
   58.4850   32.3425   47.5282 H   0  0  0  0  0  0  0  0  0  0  0  0
   59.0505   30.6375   47.5282 H   0  0  0  0  0  0  0  0  0  0  0  0
  1  2  1  0
  2  3  2  0
  3  4  1  0
  3  5  1  0
  5  6  1  0
  5  7  1  0
  5  8  1  0
  8  9  1  0
  9 10  1  0
  9 11  1  0
  9 12  1  0
  8 13  1  0
 13 14  1  0
 13 15  1  0
 13 16  1  0
 16 17  2  0
 17 18  1  0
 18 19  1  0
 19 20  1  0
 20 21  1  0
 20 22  1  0
 20 23  1  0
 19 24  2  0
 24 25  1  0
  2 26  1  0
 26 27  2  0
 27 28  1  0
 27 29  1  0
 29 30  1  0
 29 31  2  0
 31 32  1  0
 31 33  1  0
 33 34  1  0
 33 35  2  0
 35 36  1  0
 36 37  1  0
 36 38  1  0
 36 39  1  0
 24 16  1  0
 35 26  1  0
M  END
>  <UniqueID>  (28) 
27

>  <SMILES>  (28) 
Cc1cc(CN(C)C/C=C\c2ccccc2C)no1

>  <Energy>  (28) 
72.4985202041781

>  <Genealogy>  (28) 
Cc1cc(CN(C)C/C=C\c2ccccc2C)no1 (cis-trans isomerization)
Cc1cc(CN(C)C/C=C\c2ccccc2C)no1 (3D coordinates assigned)
Cc1cc(CN(C)C/C=C\c2ccccc2C)no1 (optimized conformer: 72.4985202041781 kcal/mol)

>  <smiles>  (28) 
Cc1cc(CN(C)CC=Cc2ccccc2C)no1

>  <score_type>  (28) 
oracle

>  <origin>  (28) 
adg

>  <m_score__min__energy>  (28) 
-8.0600000000000005

>  <m_primary>  (28) 
energy

$$$$
28:0
     RDKit          3D

 50 53  0  0  0  0  0  0  0  0999 V2000
   55.6580   30.4050   44.1190 C   0  0  0  0  0  0  0  0  0  0  0  0
   56.4780   30.0990   45.2420 O   0  0  0  0  0  0  0  0  0  0  0  0
   57.5290   29.1660   45.2310 C   0  0  0  0  0  0  0  0  0  0  0  0
   57.4420   27.9510   44.5220 C   0  0  0  0  0  0  0  0  0  0  0  0
   58.5110   27.0510   44.5280 C   0  0  0  0  0  0  0  0  0  0  0  0
   59.6750   27.3500   45.2410 C   0  0  0  0  0  0  0  0  0  0  0  0
   59.7720   28.5480   45.9500 C   0  0  0  0  0  0  0  0  0  0  0  0
   58.7060   29.4600   45.9470 C   0  0  0  0  0  0  0  0  0  0  0  0
   58.8180   30.7220   46.7150 C   0  0  0  0  0  0  0  0  0  0  0  0
   59.0100   30.6540   48.1040 C   0  0  0  0  0  0  0  0  0  0  0  0
   59.1450   29.4010   48.7020 O   0  0  0  0  0  0  0  0  0  0  0  0
   59.0720   31.7960   48.8650 N   0  0  0  0  0  0  0  0  0  0  0  0
   59.1940   31.6990   50.3360 C   0  0  0  0  0  0  0  0  0  0  0  0
   60.5630   31.1350   50.7470 C   0  0  0  0  0  0  0  0  0  0  0  0
   61.3810   30.7870   49.5820 N   0  0  0  0  0  0  0  0  0  0  0  0
   62.3260   31.6920   48.9810 C   0  0  0  0  0  0  0  0  0  0  0  0
   62.1620   32.0590   47.6330 C   0  0  0  0  0  0  0  0  0  0  0  0
   63.0670   32.9300   47.0200 C   0  0  0  0  0  0  0  0  0  0  0  0
   64.1420   33.4480   47.7460 C   0  0  0  0  0  0  0  0  0  0  0  0
   64.3140   33.0950   49.0860 C   0  0  0  0  0  0  0  0  0  0  0  0
   63.4120   32.2210   49.7040 C   0  0  0  0  0  0  0  0  0  0  0  0
   58.9930   33.0320   48.2720 C   0  0  0  0  0  0  0  0  0  0  0  0
   59.0780   34.0780   48.9780 O   0  0  0  0  0  0  0  0  0  0  0  0
   58.8170   33.1510   46.8790 C   0  0  0  0  0  0  0  0  0  0  0  0
   58.7250   34.4160   46.2620 C   0  0  0  0  0  0  0  0  0  0  0  0
   58.5260   34.5180   44.8850 C   0  0  0  0  0  0  0  0  0  0  0  0
   58.4140   33.3690   44.1070 C   0  0  0  0  0  0  0  0  0  0  0  0
   58.5040   32.1080   44.6990 C   0  0  0  0  0  0  0  0  0  0  0  0
   58.7160   31.9820   46.0900 C   0  0  0  0  0  0  0  0  0  0  0  0
   54.6805   30.7698   44.4673 H   0  0  0  0  0  0  0  0  0  0  0  0
   56.1440   31.1823   43.5110 H   0  0  0  0  0  0  0  0  0  0  0  0
   55.5160   29.4993   43.5110 H   0  0  0  0  0  0  0  0  0  0  0  0
   56.5273   27.7098   43.9607 H   0  0  0  0  0  0  0  0  0  0  0  0
   58.4361   26.1057   43.9706 H   0  0  0  0  0  0  0  0  0  0  0  0
   60.5155   26.6404   45.2434 H   0  0  0  0  0  0  0  0  0  0  0  0
   60.6882   28.7782   46.5136 H   0  0  0  0  0  0  0  0  0  0  0  0
   59.0739   32.7016   50.7723 H   0  0  0  0  0  0  0  0  0  0  0  0
   58.4131   31.0178   50.7049 H   0  0  0  0  0  0  0  0  0  0  0  0
   61.0953   31.8913   51.3425 H   0  0  0  0  0  0  0  0  0  0  0  0
   60.3935   30.2186   51.3314 H   0  0  0  0  0  0  0  0  0  0  0  0
   61.2820   29.8390   49.1560 H   0  0  0  0  0  0  0  0  0  0  0  0
   61.3152   31.6575   47.0570 H   0  0  0  0  0  0  0  0  0  0  0  0
   62.9325   33.2080   45.9642 H   0  0  0  0  0  0  0  0  0  0  0  0
   64.8530   34.1339   47.2622 H   0  0  0  0  0  0  0  0  0  0  0  0
   65.1601   33.5046   49.6572 H   0  0  0  0  0  0  0  0  0  0  0  0
   63.5524   31.9461   50.7598 H   0  0  0  0  0  0  0  0  0  0  0  0
   58.8107   35.3282   46.8707 H   0  0  0  0  0  0  0  0  0  0  0  0
   58.4574   35.5091   44.4127 H   0  0  0  0  0  0  0  0  0  0  0  0
   58.2540   33.4551   43.0221 H   0  0  0  0  0  0  0  0  0  0  0  0
   58.4091   31.2054   44.0775 H   0  0  0  0  0  0  0  0  0  0  0  0
  1  2  1  0
  2  3  1  0
  3  4  2  0
  4  5  1  0
  5  6  2  0
  6  7  1  0
  7  8  2  0
  8  9  1  0
  9 10  2  0
 10 11  1  0
 10 12  1  0
 12 13  1  0
 13 14  1  0
 14 15  1  0
 15 16  1  0
 16 17  2  0
 17 18  1  0
 18 19  2  0
 19 20  1  0
 20 21  2  0
 12 22  1  0
 22 23  2  0
 22 24  1  0
 24 25  2  0
 25 26  1  0
 26 27  2  0
 27 28  1  0
 28 29  2  0
  8  3  1  0
 29  9  1  0
 21 16  1  0
 29 24  1  0
  1 30  1  0
  1 31  1  0
  1 32  1  0
  4 33  1  0
  5 34  1  0
  6 35  1  0
  7 36  1  0
 13 37  1  0
 13 38  1  0
 14 39  1  0
 14 40  1  0
 15 41  1  0
 17 42  1  0
 18 43  1  0
 19 44  1  0
 20 45  1  0
 21 46  1  0
 25 47  1  0
 26 48  1  0
 27 49  1  0
 28 50  1  0
M  CHG  1  11  -1
M  END
>  <UniqueID>  (29) 
28

>  <SMILES>  (29) 
COc1ccccc1-c1c([O-])n(CCNc2ccccc2)c(=O)c2ccccc12

>  <Energy>  (29) 
69.37154159990061

>  <Genealogy>  (29) 
COc1ccccc1-c1c([O-])n(CCNc2ccccc2)c(=O)c2ccccc12 (protonated)
COc1ccccc1-c1c([O-])n(CCNc2ccccc2)c(=O)c2ccccc12 (3D coordinates assigned)
COc1ccccc1-c1c([O-])n(CCNc2ccccc2)c(=O)c2ccccc12 (optimized conformer: 69.37154159990061 kcal/mol)

>  <smiles>  (29) 
COc1ccccc1-c1c(O)n(CCNc2ccccc2)c(=O)c2ccccc12

>  <score_type>  (29) 
oracle

>  <origin>  (29) 
adg

>  <m_score__min__energy>  (29) 
-11.1

>  <m_primary>  (29) 
energy

$$$$
29:0
     RDKit          3D

 60 63  0  0  0  0  0  0  0  0999 V2000
   60.4630   28.6650   49.2400 C   0  0  0  0  0  0  0  0  0  0  0  0
   59.2970   28.7300   48.4500 O   0  0  0  0  0  0  0  0  0  0  0  0
   58.8980   30.0770   48.3150 C   0  0  0  0  0  0  0  0  0  0  0  0
   59.3320   30.8500   49.5600 C   0  0  0  0  0  0  0  0  0  0  0  0
   59.4230   32.3620   49.3110 C   0  0  0  0  0  0  0  0  0  0  0  0
   60.6120   32.7350   48.5230 N   0  0  0  0  0  0  0  0  0  0  0  0
   60.7540   32.9830   47.1770 C   0  0  0  0  0  0  0  0  0  0  0  0
   59.6630   33.1200   46.1250 C   0  0  2  0  0  0  0  0  0  0  0  0
   58.5800   34.1250   46.5740 C   0  0  0  0  0  0  0  0  0  0  0  0
   57.2210   33.8590   45.9050 C   0  0  0  0  0  0  0  0  0  0  0  0
   57.4020   33.3140   44.4780 C   0  0  0  0  0  0  0  0  0  0  0  0
   58.1930   32.0570   44.4220 N   0  0  0  0  0  0  0  0  0  0  0  0
   57.1660   30.6710   44.1330 S   0  0  0  0  0  0  0  0  0  0  0  0
   56.9220   30.5280   42.6570 O   0  0  0  0  0  0  0  0  0  0  0  0
   55.8360   30.8790   44.8070 O   0  0  0  0  0  0  0  0  0  0  0  0
   57.9070   29.1890   44.7450 C   0  0  0  0  0  0  0  0  0  0  0  0
   59.2810   28.9650   44.5780 C   0  0  0  0  0  0  0  0  0  0  0  0
   59.8810   27.8230   45.1140 C   0  0  0  0  0  0  0  0  0  0  0  0
   59.1120   26.8900   45.8270 C   0  0  0  0  0  0  0  0  0  0  0  0
   59.7490   25.6500   46.3790 C   0  0  0  0  0  0  0  0  0  0  0  0
   57.7310   27.0970   45.9650 C   0  0  0  0  0  0  0  0  0  0  0  0
   57.1330   28.2420   45.4320 C   0  0  0  0  0  0  0  0  0  0  0  0
   59.0380   31.8130   45.6130 C   0  0  0  0  0  0  0  0  0  0  0  0
   62.0390   33.2760   46.8510 N   0  0  0  0  0  0  0  0  0  0  0  0
   62.7170   33.2060   48.0020 C   0  0  0  0  0  0  0  0  0  0  0  0
   64.0730   33.4470   48.2120 C   0  0  0  0  0  0  0  0  0  0  0  0
   64.5590   33.3420   49.5270 C   0  0  0  0  0  0  0  0  0  0  0  0
   63.6850   33.0120   50.5860 C   0  0  0  0  0  0  0  0  0  0  0  0
   62.3190   32.7800   50.3380 C   0  0  0  0  0  0  0  0  0  0  0  0
   61.8640   32.8840   49.0170 C   0  0  0  0  0  0  0  0  0  0  0  0
   60.1860   28.6804   50.3044 H   0  0  0  0  0  0  0  0  0  0  0  0
   61.0063   27.7352   49.0160 H   0  0  0  0  0  0  0  0  0  0  0  0
   61.1063   29.5287   49.0160 H   0  0  0  0  0  0  0  0  0  0  0  0
   59.3725   30.5150   47.4245 H   0  0  0  0  0  0  0  0  0  0  0  0
   57.8049   30.1322   48.2047 H   0  0  0  0  0  0  0  0  0  0  0  0
   58.6006   30.6678   50.3612 H   0  0  0  0  0  0  0  0  0  0  0  0
   60.3352   30.4964   49.8402 H   0  0  0  0  0  0  0  0  0  0  0  0
   58.5235   32.6843   48.7660 H   0  0  0  0  0  0  0  0  0  0  0  0
   59.5026   32.8573   50.2900 H   0  0  0  0  0  0  0  0  0  0  0  0
   60.1934   33.5130   45.2451 H   0  0  0  0  0  0  0  0  0  0  0  0
   58.4579   34.0492   47.6646 H   0  0  0  0  0  0  0  0  0  0  0  0
   58.9104   35.1306   46.2747 H   0  0  0  0  0  0  0  0  0  0  0  0
   56.6646   33.1221   46.5029 H   0  0  0  0  0  0  0  0  0  0  0  0
   56.6683   34.8084   45.8483 H   0  0  0  0  0  0  0  0  0  0  0  0
   56.4074   33.1194   44.0503 H   0  0  0  0  0  0  0  0  0  0  0  0
   57.9582   34.0732   43.9086 H   0  0  0  0  0  0  0  0  0  0  0  0
   59.8900   29.6927   44.0217 H   0  0  0  0  0  0  0  0  0  0  0  0
   60.9593   27.6544   44.9769 H   0  0  0  0  0  0  0  0  0  0  0  0
   59.7303   25.6864   47.4782 H   0  0  0  0  0  0  0  0  0  0  0  0
   59.1931   24.7665   46.0319 H   0  0  0  0  0  0  0  0  0  0  0  0
   60.7909   25.5873   46.0319 H   0  0  0  0  0  0  0  0  0  0  0  0
   57.1164   26.3546   46.4951 H   0  0  0  0  0  0  0  0  0  0  0  0
   56.0512   28.4013   45.5516 H   0  0  0  0  0  0  0  0  0  0  0  0
   58.4185   31.3749   46.4094 H   0  0  0  0  0  0  0  0  0  0  0  0
   59.8487   31.1250   45.3312 H   0  0  0  0  0  0  0  0  0  0  0  0
   62.4150   33.5390   45.9130 H   0  0  0  0  0  0  0  0  0  0  0  0
   64.7401   33.7103   47.3780 H   0  0  0  0  0  0  0  0  0  0  0  0
   65.6253   33.5178   49.7320 H   0  0  0  0  0  0  0  0  0  0  0  0
   64.0745   32.9357   51.6119 H   0  0  0  0  0  0  0  0  0  0  0  0
   61.6297   32.5248   51.1564 H   0  0  0  0  0  0  0  0  0  0  0  0
  1  2  1  0
  2  3  1  0
  3  4  1  0
  4  5  1  0
  5  6  1  0
  6  7  1  0
  7  8  1  0
  8  9  1  0
  9 10  1  0
 10 11  1  0
 11 12  1  0
 12 13  1  0
 13 14  2  0
 13 15  2  0
 13 16  1  0
 16 17  2  0
 17 18  1  0
 18 19  2  0
 19 20  1  0
 19 21  1  0
 21 22  2  0
 12 23  1  0
  7 24  2  0
 24 25  1  0
 25 26  2  0
 26 27  1  0
 27 28  2  0
 28 29  1  0
 29 30  2  0
 30  6  1  0
 23  8  1  0
 30 25  1  0
 22 16  1  0
  1 31  1  0
  1 32  1  0
  1 33  1  0
  3 34  1  0
  3 35  1  0
  4 36  1  0
  4 37  1  0
  5 38  1  0
  5 39  1  0
  8 40  1  6
  9 41  1  0
  9 42  1  0
 10 43  1  0
 10 44  1  0
 11 45  1  0
 11 46  1  0
 17 47  1  0
 18 48  1  0
 20 49  1  0
 20 50  1  0
 20 51  1  0
 21 52  1  0
 22 53  1  0
 23 54  1  0
 23 55  1  0
 24 56  1  0
 26 57  1  0
 27 58  1  0
 28 59  1  0
 29 60  1  0
M  CHG  1  24   1
M  END
>  <UniqueID>  (30) 
29

>  <SMILES>  (30) 
COCCCn1c([C@@H]2CCCN(S(=O)(=O)c3ccc(C)cc3)C2)[nH+]c2ccccc21

>  <Energy>  (30) 
106.08354979759036

>  <Genealogy>  (30) 
COCCCn1c(C2CCCN(S(=O)(=O)c3ccc(C)cc3)C2)[nH+]c2ccccc21 (protonated)
COCCCn1c([C@@H]2CCCN(S(=O)(=O)c3ccc(C)cc3)C2)[nH+]c2ccccc21 (chirality)
COCCCn1c([C@@H]2CCCN(S(=O)(=O)c3ccc(C)cc3)C2)[nH+]c2ccccc21 (3D coordinates assigned)
COCCCn1c([C@@H]2CCCN(S(=O)(=O)c3ccc(C)cc3)C2)[nH+]c2ccccc21 (nonaromatic ring conformer: 106.08354979759036 kcal/mol)

>  <smiles>  (30) 
COCCCn1c(C2CCCN(S(=O)(=O)c3ccc(C)cc3)C2)nc2ccccc21

>  <score_type>  (30) 
oracle

>  <origin>  (30) 
adg

>  <m_score__min__energy>  (30) 
-7.6399999999999997

>  <m_primary>  (30) 
energy

$$$$
30:0
     RDKit          3D

 45 47  0  0  0  0  0  0  0  0999 V2000
   67.1930   32.9740   50.4830 C   0  0  0  0  0  0  0  0  0  0  0  0
   65.8090   32.4330   50.1360 C   0  0  0  0  0  0  0  0  0  0  0  0
   64.9810   33.4650   49.6020 O   0  0  0  0  0  0  0  0  0  0  0  0
   63.7810   33.2680   48.8990 C   0  0  0  0  0  0  0  0  0  0  0  0
   63.8000   33.4220   47.5070 C   0  0  0  0  0  0  0  0  0  0  0  0
   62.6360   33.2410   46.7550 C   0  0  0  0  0  0  0  0  0  0  0  0
   61.4280   32.9190   47.3880 C   0  0  0  0  0  0  0  0  0  0  0  0
   60.2410   32.7170   46.6080 N   0  0  0  0  0  0  0  0  0  0  0  0
   59.5060   33.7050   46.1120 N   0  0  0  0  0  0  0  0  0  0  0  0
   58.4320   33.1790   45.4860 C   0  0  0  0  0  0  0  0  0  0  0  0
   57.3320   33.9830   44.8720 C   0  0  0  0  0  0  0  0  0  0  0  0
   58.4860   31.8030   45.6160 C   0  0  0  0  0  0  0  0  0  0  0  0
   59.6430   31.5430   46.3060 C   0  0  0  0  0  0  0  0  0  0  0  0
   59.9680   30.1750   46.8500 C   0  0  0  0  0  0  0  0  0  0  0  0
   59.3060   29.0570   45.9830 C   0  0  0  0  0  0  0  0  0  0  0  0
   60.0360   28.9420   44.6250 C   0  0  0  0  0  0  0  0  0  0  0  0
   59.4440   27.7110   46.7220 C   0  0  0  0  0  0  0  0  0  0  0  0
   57.7880   29.3520   45.7470 C   0  0  0  0  0  0  0  0  0  0  0  0
   57.5350   30.7520   45.2450 C   0  0  0  0  0  0  0  0  0  0  0  0
   56.4970   31.0170   44.5820 O   0  0  0  0  0  0  0  0  0  0  0  0
   61.4060   32.7480   48.7790 C   0  0  0  0  0  0  0  0  0  0  0  0
   62.5690   32.9290   49.5330 C   0  0  0  0  0  0  0  0  0  0  0  0
   67.3059   33.0181   51.5763 H   0  0  0  0  0  0  0  0  0  0  0  0
   67.9624   32.3104   50.0614 H   0  0  0  0  0  0  0  0  0  0  0  0
   67.3084   33.9834   50.0614 H   0  0  0  0  0  0  0  0  0  0  0  0
   65.9118   31.6310   49.3902 H   0  0  0  0  0  0  0  0  0  0  0  0
   65.3418   32.0452   51.0532 H   0  0  0  0  0  0  0  0  0  0  0  0
   64.7398   33.6879   47.0010 H   0  0  0  0  0  0  0  0  0  0  0  0
   62.6682   33.3518   45.6611 H   0  0  0  0  0  0  0  0  0  0  0  0
   59.7240   34.7220   46.2150 H   0  0  0  0  0  0  0  0  0  0  0  0
   56.7181   34.4317   45.6669 H   0  0  0  0  0  0  0  0  0  0  0  0
   57.7641   34.7797   44.2486 H   0  0  0  0  0  0  0  0  0  0  0  0
   56.7041   33.3294   44.2486 H   0  0  0  0  0  0  0  0  0  0  0  0
   61.0591   30.0356   46.8450 H   0  0  0  0  0  0  0  0  0  0  0  0
   59.5754   30.1027   47.8750 H   0  0  0  0  0  0  0  0  0  0  0  0
   61.1090   28.7730   44.7987 H   0  0  0  0  0  0  0  0  0  0  0  0
   59.6194   28.0984   44.0551 H   0  0  0  0  0  0  0  0  0  0  0  0
   59.8990   29.8728   44.0551 H   0  0  0  0  0  0  0  0  0  0  0  0
   59.4261   27.8854   47.8079 H   0  0  0  0  0  0  0  0  0  0  0  0
   58.6087   27.0520   46.4427 H   0  0  0  0  0  0  0  0  0  0  0  0
   60.3956   27.2352   46.4427 H   0  0  0  0  0  0  0  0  0  0  0  0
   57.4025   28.6376   45.0047 H   0  0  0  0  0  0  0  0  0  0  0  0
   57.2767   29.2503   46.7156 H   0  0  0  0  0  0  0  0  0  0  0  0
   60.4674   32.4696   49.2805 H   0  0  0  0  0  0  0  0  0  0  0  0
   62.5380   32.8063   50.6257 H   0  0  0  0  0  0  0  0  0  0  0  0
  1  2  1  0
  2  3  1  0
  3  4  1  0
  4  5  2  0
  5  6  1  0
  6  7  2  0
  7  8  1  0
  8  9  1  0
  9 10  2  0
 10 11  1  0
 10 12  1  0
 12 13  2  0
 13 14  1  0
 14 15  1  0
 15 16  1  0
 15 17  1  0
 15 18  1  0
 18 19  1  0
 19 20  2  0
  7 21  1  0
 21 22  2  0
 22  4  1  0
 13  8  1  0
 19 12  1  0
  1 23  1  0
  1 24  1  0
  1 25  1  0
  2 26  1  0
  2 27  1  0
  5 28  1  0
  6 29  1  0
  9 30  1  0
 11 31  1  0
 11 32  1  0
 11 33  1  0
 14 34  1  0
 14 35  1  0
 16 36  1  0
 16 37  1  0
 16 38  1  0
 17 39  1  0
 17 40  1  0
 17 41  1  0
 18 42  1  0
 18 43  1  0
 21 44  1  0
 22 45  1  0
M  CHG  1   9   1
M  END
>  <UniqueID>  (31) 
30

>  <SMILES>  (31) 
CCOc1ccc(-n2[nH+]c(C)c3c2CC(C)(C)CC3=O)cc1

>  <Energy>  (31) 
80.76100839991813

>  <Genealogy>  (31) 
CCOc1ccc(-n2[nH+]c(C)c3c2CC(C)(C)CC3=O)cc1 (protonated)
CCOc1ccc(-n2[nH+]c(C)c3c2CC(C)(C)CC3=O)cc1 (3D coordinates assigned)
CCOc1ccc(-n2[nH+]c(C)c3c2CC(C)(C)CC3=O)cc1 (nonaromatic ring conformer: 80.76100839991813 kcal/mol)

>  <smiles>  (31) 
CCOc1ccc(-n2nc(C)c3c2CC(C)(C)CC3=O)cc1

>  <score_type>  (31) 
oracle

>  <origin>  (31) 
adg

>  <m_score__min__energy>  (31) 
-6.2699999999999996

>  <m_primary>  (31) 
energy

$$$$
31:0
     RDKit          3D

 41 42  0  0  0  0  0  0  0  0999 V2000
   63.7250   33.0940   47.1150 C   0  0  0  0  0  0  0  0  0  0  0  0
   62.5850   32.7330   48.0700 C   0  0  0  0  0  0  0  0  0  0  0  0
   61.2880   33.4890   47.7480 C   0  0  0  0  0  0  0  0  0  0  0  0
   61.3470   34.1970   46.3880 C   0  0  0  0  0  0  0  0  0  0  0  0
   59.8000   35.1150   46.0540 S   0  0  0  0  0  0  0  0  0  0  0  0
   58.8660   33.6530   45.5930 C   0  0  0  0  0  0  0  0  0  0  0  0
   58.4380   32.7570   46.5770 C   0  0  0  0  0  0  0  0  0  0  0  0
   57.7960   31.5800   46.1980 C   0  0  0  0  0  0  0  0  0  0  0  0
   57.5890   31.3030   44.8420 C   0  0  0  0  0  0  0  0  0  0  0  0
   56.8550   29.7830   44.3410 S   0  0  0  0  0  0  0  0  0  0  0  0
   56.7800   29.7530   42.8390 O   0  0  0  0  0  0  0  0  0  0  0  0
   55.4480   29.7230   44.8680 O   0  0  0  0  0  0  0  0  0  0  0  0
   57.7450   28.3820   44.8970 N   0  0  0  0  0  0  0  0  0  0  0  0
   57.9420   28.3480   46.3600 C   0  0  0  0  0  0  0  0  0  0  0  0
   59.2610   29.0010   46.7960 C   0  0  0  0  0  0  0  0  0  0  0  0
   60.3500   28.4570   46.0840 O   0  0  0  0  0  0  0  0  0  0  0  0
   60.2150   28.7860   44.7200 C   0  0  0  0  0  0  0  0  0  0  0  0
   58.9700   28.1160   44.1180 C   0  0  0  0  0  0  0  0  0  0  0  0
   57.9780   32.2550   43.8900 C   0  0  0  0  0  0  0  0  0  0  0  0
   58.6030   33.3980   44.2800 N   0  0  0  0  0  0  0  0  0  0  0  0
   64.6151   33.3759   47.6966 H   0  0  0  0  0  0  0  0  0  0  0  0
   63.9608   32.2266   46.4810 H   0  0  0  0  0  0  0  0  0  0  0  0
   63.4185   33.9390   46.4810 H   0  0  0  0  0  0  0  0  0  0  0  0
   62.3915   31.6527   47.9962 H   0  0  0  0  0  0  0  0  0  0  0  0
   62.8959   33.0192   49.0856 H   0  0  0  0  0  0  0  0  0  0  0  0
   60.4542   32.7716   47.7371 H   0  0  0  0  0  0  0  0  0  0  0  0
   61.1470   34.2585   48.5213 H   0  0  0  0  0  0  0  0  0  0  0  0
   62.1907   34.9028   46.3870 H   0  0  0  0  0  0  0  0  0  0  0  0
   61.4775   33.4364   45.6041 H   0  0  0  0  0  0  0  0  0  0  0  0
   58.6066   32.9793   47.6410 H   0  0  0  0  0  0  0  0  0  0  0  0
   57.4522   30.8692   46.9639 H   0  0  0  0  0  0  0  0  0  0  0  0
   57.1091   28.8830   46.8397 H   0  0  0  0  0  0  0  0  0  0  0  0
   57.9773   27.2920   46.6658 H   0  0  0  0  0  0  0  0  0  0  0  0
   59.2086   30.0827   46.6032 H   0  0  0  0  0  0  0  0  0  0  0  0
   59.4109   28.8094   47.8688 H   0  0  0  0  0  0  0  0  0  0  0  0
   60.1213   29.8774   44.6198 H   0  0  0  0  0  0  0  0  0  0  0  0
   61.1041   28.4271   44.1809 H   0  0  0  0  0  0  0  0  0  0  0  0
   58.8260   28.4958   43.0957 H   0  0  0  0  0  0  0  0  0  0  0  0
   59.1404   27.0293   44.1290 H   0  0  0  0  0  0  0  0  0  0  0  0
   57.7770   32.0770   42.8233 H   0  0  0  0  0  0  0  0  0  0  0  0
   58.9140   34.0780   43.5490 H   0  0  0  0  0  0  0  0  0  0  0  0
  1  2  1  0
  2  3  1  0
  3  4  1  0
  4  5  1  0
  5  6  1  0
  6  7  2  0
  7  8  1  0
  8  9  2  0
  9 10  1  0
 10 11  2  0
 10 12  2  0
 10 13  1  0
 13 14  1  0
 14 15  1  0
 15 16  1  0
 16 17  1  0
 17 18  1  0
  9 19  1  0
 19 20  2  0
 20  6  1  0
 18 13  1  0
  1 21  1  0
  1 22  1  0
  1 23  1  0
  2 24  1  0
  2 25  1  0
  3 26  1  0
  3 27  1  0
  4 28  1  0
  4 29  1  0
  7 30  1  0
  8 31  1  0
 14 32  1  0
 14 33  1  0
 15 34  1  0
 15 35  1  0
 17 36  1  0
 17 37  1  0
 18 38  1  0
 18 39  1  0
 19 40  1  0
 20 41  1  0
M  CHG  1  20   1
M  END
>  <UniqueID>  (32) 
31

>  <SMILES>  (32) 
CCCCSc1ccc(S(=O)(=O)N2CCOCC2)c[nH+]1

>  <Energy>  (32) 
34.36504155396603

>  <Genealogy>  (32) 
CCCCSc1ccc(S(=O)(=O)N2CCOCC2)c[nH+]1 (protonated)
CCCCSc1ccc(S(=O)(=O)N2CCOCC2)c[nH+]1 (3D coordinates assigned)
CCCCSc1ccc(S(=O)(=O)N2CCOCC2)c[nH+]1 (nonaromatic ring conformer: 34.36504155396603 kcal/mol)

>  <smiles>  (32) 
CCCCSc1ccc(S(=O)(=O)N2CCOCC2)cn1

>  <score_type>  (32) 
oracle

>  <origin>  (32) 
adg

>  <m_score__min__energy>  (32) 
-5.6699999999999999

>  <m_primary>  (32) 
energy

$$$$
32:0
     RDKit          3D

 50 51  0  0  0  0  0  0  0  0999 V2000
   56.2860   23.6540   43.3480 C   0  0  0  0  0  0  0  0  0  0  0  0
   56.6900   22.7740   44.5270 C   0  0  0  0  0  0  0  0  0  0  0  0
   56.2940   23.4160   45.8610 C   0  0  0  0  0  0  0  0  0  0  0  0
   56.7450   24.8220   45.9070 N   0  0  0  0  0  0  0  0  0  0  0  0
   55.8240   25.8390   45.9300 C   0  0  0  0  0  0  0  0  0  0  0  0
   54.5870   25.5930   45.8940 O   0  0  0  0  0  0  0  0  0  0  0  0
   56.2290   27.1330   45.9960 N   0  0  0  0  0  0  0  0  0  0  0  0
   57.5410   27.4630   46.0530 C   0  0  0  0  0  0  0  0  0  0  0  0
   57.9210   28.8080   46.1200 C   0  0  0  0  0  0  0  0  0  0  0  0
   59.2780   29.1570   46.1990 C   0  0  0  0  0  0  0  0  0  0  0  0
   59.6900   30.5730   46.2670 C   0  0  0  0  0  0  0  0  0  0  0  0
   60.9140   30.8490   46.3730 O   0  0  0  0  0  0  0  0  0  0  0  0
   58.7390   31.6440   46.2510 N   0  0  0  0  0  0  0  0  0  0  0  0
   58.1500   32.2470   47.4420 C   0  0  0  0  0  0  0  0  0  0  0  0
   58.9930   33.4650   47.8720 C   0  0  0  0  0  0  0  0  0  0  0  0
   60.1820   33.7560   47.0180 N   0  0  0  0  0  0  0  0  0  0  0  0
   59.9520   34.8740   46.0620 C   0  0  0  0  0  0  0  0  0  0  0  0
   58.9130   34.5970   44.9710 C   0  0  0  0  0  0  0  0  0  0  0  0
   61.4550   33.8450   47.7820 C   0  0  0  0  0  0  0  0  0  0  0  0
   62.6880   33.4810   46.9460 C   0  0  0  0  0  0  0  0  0  0  0  0
   60.2520   28.1480   46.1730 C   0  0  0  0  0  0  0  0  0  0  0  0
   59.8770   26.8020   46.1060 C   0  0  0  0  0  0  0  0  0  0  0  0
   58.5160   26.4510   46.0490 C   0  0  0  0  0  0  0  0  0  0  0  0
   58.0860   25.1140   45.9820 C   0  0  0  0  0  0  0  0  0  0  0  0
   58.9400   24.1820   45.9950 O   0  0  0  0  0  0  0  0  0  0  0  0
   55.8545   24.5938   43.7229 H   0  0  0  0  0  0  0  0  0  0  0  0
   57.1723   23.8760   42.7355 H   0  0  0  0  0  0  0  0  0  0  0  0
   55.5399   23.1266   42.7355 H   0  0  0  0  0  0  0  0  0  0  0  0
   56.1884   21.7993   44.4353 H   0  0  0  0  0  0  0  0  0  0  0  0
   57.7831   22.6516   44.5110 H   0  0  0  0  0  0  0  0  0  0  0  0
   55.1999   23.3821   45.9694 H   0  0  0  0  0  0  0  0  0  0  0  0
   56.7713   22.8600   46.6814 H   0  0  0  0  0  0  0  0  0  0  0  0
   57.1528   29.5952   46.1107 H   0  0  0  0  0  0  0  0  0  0  0  0
   57.1231   32.5722   47.2188 H   0  0  0  0  0  0  0  0  0  0  0  0
   58.1316   31.5078   48.2564 H   0  0  0  0  0  0  0  0  0  0  0  0
   58.3408   34.3507   47.8583 H   0  0  0  0  0  0  0  0  0  0  0  0
   59.3890   33.2220   48.8691 H   0  0  0  0  0  0  0  0  0  0  0  0
   60.2800   32.9080   46.4070 H   0  0  0  0  0  0  0  0  0  0  0  0
   59.6163   35.7496   46.6370 H   0  0  0  0  0  0  0  0  0  0  0  0
   60.9077   35.0305   45.5402 H   0  0  0  0  0  0  0  0  0  0  0  0
   57.9506   34.3404   45.4379 H   0  0  0  0  0  0  0  0  0  0  0  0
   58.7898   35.4937   44.3459 H   0  0  0  0  0  0  0  0  0  0  0  0
   59.2525   33.7580   44.3459 H   0  0  0  0  0  0  0  0  0  0  0  0
   61.5722   34.8760   48.1472 H   0  0  0  0  0  0  0  0  0  0  0  0
   61.3930   33.1192   48.6062 H   0  0  0  0  0  0  0  0  0  0  0  0
   63.5250   33.2339   47.6155 H   0  0  0  0  0  0  0  0  0  0  0  0
   62.4574   32.6126   46.3114 H   0  0  0  0  0  0  0  0  0  0  0  0
   62.9660   34.3354   46.3114 H   0  0  0  0  0  0  0  0  0  0  0  0
   61.3181   28.4170   46.2055 H   0  0  0  0  0  0  0  0  0  0  0  0
   60.6475   26.0169   46.0979 H   0  0  0  0  0  0  0  0  0  0  0  0
  1  2  1  0
  2  3  1  0
  3  4  1  0
  4  5  1  0
  5  6  2  0
  5  7  1  0
  7  8  1  0
  8  9  2  0
  9 10  1  0
 10 11  1  0
 11 12  2  0
 11 13  1  0
 13 14  1  0
 14 15  1  0
 15 16  1  0
 16 17  1  0
 17 18  1  0
 16 19  1  0
 19 20  1  0
 10 21  2  0
 21 22  1  0
 22 23  2  0
 23 24  1  0
 24 25  2  0
 24  4  1  0
 23  8  1  0
  1 26  1  0
  1 27  1  0
  1 28  1  0
  2 29  1  0
  2 30  1  0
  3 31  1  0
  3 32  1  0
  9 33  1  0
 14 34  1  0
 14 35  1  0
 15 36  1  0
 15 37  1  0
 16 38  1  0
 17 39  1  0
 17 40  1  0
 18 41  1  0
 18 42  1  0
 18 43  1  0
 19 44  1  0
 19 45  1  0
 20 46  1  0
 20 47  1  0
 20 48  1  0
 21 49  1  0
 22 50  1  0
M  CHG  3   7  -1  13  -1  16   1
M  END
>  <UniqueID>  (33) 
32

>  <SMILES>  (33) 
CCCn1c(=O)[n-]c2cc(C(=O)[N-]CC[NH+](CC)CC)ccc2c1=O

>  <Energy>  (33) 
62.69739411692655

>  <Genealogy>  (33) 
CCCn1c(=O)[n-]c2cc(C(=O)[N-]CC[NH+](CC)CC)ccc2c1=O (protonated)
CCCn1c(=O)[n-]c2cc(C(=O)[N-]CC[NH+](CC)CC)ccc2c1=O (3D coordinates assigned)
CCCn1c(=O)[n-]c2cc(C(=O)[N-]CC[NH+](CC)CC)ccc2c1=O (optimized conformer: 62.69739411692655 kcal/mol)

>  <smiles>  (33) 
CCCn1c(=O)[nH]c2cc(C(=O)NCCN(CC)CC)ccc2c1=O

>  <score_type>  (33) 
oracle

>  <origin>  (33) 
adg

>  <m_score__min__energy>  (33) 
-7.9500000000000002

>  <m_primary>  (33) 
energy

$$$$
33:0
     RDKit          3D

 40 42  0  0  0  0  0  0  0  0999 V2000
   62.8770   33.1530   50.5610 C   0  0  0  0  0  0  0  0  0  0  0  0
   62.6260   33.4160   49.1040 C   0  0  0  0  0  0  0  0  0  0  0  0
   63.6260   33.1600   48.1530 C   0  0  0  0  0  0  0  0  0  0  0  0
   63.3910   33.4100   46.8000 C   0  0  0  0  0  0  0  0  0  0  0  0
   62.1590   33.9160   46.3840 C   0  0  0  0  0  0  0  0  0  0  0  0
   61.1420   34.1680   47.3200 C   0  0  0  0  0  0  0  0  0  0  0  0
   59.8310   34.7520   46.8600 C   0  0  0  0  0  0  0  0  0  0  0  0
   59.0570   33.7360   46.0640 C   0  0  0  0  0  0  0  0  0  0  0  0
   58.0900   34.1420   45.1440 C   0  0  0  0  0  0  0  0  0  0  0  0
   57.3740   33.2230   44.4460 N   0  0  0  0  0  0  0  0  0  0  0  0
   57.5570   31.8760   44.6030 C   0  0  0  0  0  0  0  0  0  0  0  0
   58.4960   31.4150   45.5700 C   0  0  0  0  0  0  0  0  0  0  0  0
   59.2500   32.3680   46.2730 C   0  0  0  0  0  0  0  0  0  0  0  0
   58.8020   29.9510   45.8320 C   0  0  0  0  0  0  0  0  0  0  0  0
   57.5640   29.0470   45.8000 C   0  0  0  0  0  0  0  0  0  0  0  0
   57.2300   28.5920   44.4400 N   0  0  0  0  0  0  0  0  0  0  0  0
   57.3510   29.6270   43.4000 C   0  0  0  0  0  0  0  0  0  0  0  0
   56.6720   30.9510   43.7890 C   0  0  0  0  0  0  0  0  0  0  0  0
   61.3840   33.9230   48.6850 C   0  0  0  0  0  0  0  0  0  0  0  0
   60.4170   34.1780   49.6040 F   0  0  0  0  0  0  0  0  0  0  0  0
   62.2436   33.8167   51.1678 H   0  0  0  0  0  0  0  0  0  0  0  0
   62.6359   32.1047   50.7912 H   0  0  0  0  0  0  0  0  0  0  0  0
   63.9354   33.3449   50.7912 H   0  0  0  0  0  0  0  0  0  0  0  0
   64.5990   32.7607   48.4753 H   0  0  0  0  0  0  0  0  0  0  0  0
   64.1791   33.2076   46.0598 H   0  0  0  0  0  0  0  0  0  0  0  0
   61.9830   34.1187   45.3173 H   0  0  0  0  0  0  0  0  0  0  0  0
   59.2397   35.0523   47.7376 H   0  0  0  0  0  0  0  0  0  0  0  0
   60.0325   35.6266   46.2240 H   0  0  0  0  0  0  0  0  0  0  0  0
   57.9061   35.2145   44.9828 H   0  0  0  0  0  0  0  0  0  0  0  0
   56.6600   33.5770   43.7700 H   0  0  0  0  0  0  0  0  0  0  0  0
   60.0045   32.0325   46.9997 H   0  0  0  0  0  0  0  0  0  0  0  0
   59.5075   29.6009   45.0641 H   0  0  0  0  0  0  0  0  0  0  0  0
   59.2206   29.8869   46.8472 H   0  0  0  0  0  0  0  0  0  0  0  0
   57.7552   28.1654   46.4294 H   0  0  0  0  0  0  0  0  0  0  0  0
   56.7125   29.6349   46.1731 H   0  0  0  0  0  0  0  0  0  0  0  0
   56.2390   28.2510   44.4530 H   0  0  0  0  0  0  0  0  0  0  0  0
   58.4189   29.8202   43.2201 H   0  0  0  0  0  0  0  0  0  0  0  0
   56.8449   29.2495   42.4992 H   0  0  0  0  0  0  0  0  0  0  0  0
   56.3783   31.4743   42.8671 H   0  0  0  0  0  0  0  0  0  0  0  0
   55.8086   30.6952   44.4207 H   0  0  0  0  0  0  0  0  0  0  0  0
  1  2  1  0
  2  3  2  0
  3  4  1  0
  4  5  2  0
  5  6  1  0
  6  7  1  0
  7  8  1  0
  8  9  2  0
  9 10  1  0
 10 11  2  0
 11 12  1  0
 12 13  2  0
 12 14  1  0
 14 15  1  0
 15 16  1  0
 16 17  1  0
 17 18  1  0
  6 19  2  0
 19 20  1  0
 19  2  1  0
 13  8  1  0
 18 11  1  0
  1 21  1  0
  1 22  1  0
  1 23  1  0
  3 24  1  0
  4 25  1  0
  5 26  1  0
  7 27  1  0
  7 28  1  0
  9 29  1  0
 10 30  1  0
 13 31  1  0
 14 32  1  0
 14 33  1  0
 15 34  1  0
 15 35  1  0
 16 36  1  0
 17 37  1  0
 17 38  1  0
 18 39  1  0
 18 40  1  0
M  CHG  1  10   1
M  END
>  <UniqueID>  (34) 
33

>  <SMILES>  (34) 
Cc1cccc(Cc2c[nH+]c3c(c2)CCNCC3)c1F

>  <Energy>  (34) 
50.10862545346993

>  <Genealogy>  (34) 
Cc1cccc(Cc2c[nH+]c3c(c2)CCNCC3)c1F (protonated)
Cc1cccc(Cc2c[nH+]c3c(c2)CCNCC3)c1F (3D coordinates assigned)
Cc1cccc(Cc2c[nH+]c3c(c2)CCNCC3)c1F (nonaromatic ring conformer: 50.10862545346993 kcal/mol)

>  <smiles>  (34) 
Cc1cccc(Cc2cnc3c(c2)CCNCC3)c1F

>  <score_type>  (34) 
oracle

>  <origin>  (34) 
adg

>  <m_score__min__energy>  (34) 
-4.71

>  <m_primary>  (34) 
energy

$$$$
34:0
     RDKit          3D

 41 43  0  0  0  0  0  0  0  0999 V2000
   63.3660   33.8600   45.9970 C   0  0  0  0  0  0  0  0  0  0  0  0
   63.2140   33.2470   47.3540 C   0  0  0  0  0  0  0  0  0  0  0  0
   64.2560   32.9780   48.1660 N   0  0  0  0  0  0  0  0  0  0  0  0
   63.7950   32.6340   49.3580 N   0  0  0  0  0  0  0  0  0  0  0  0
   64.6370   32.4400   50.5350 C   0  0  0  0  0  0  0  0  0  0  0  0
   62.4470   32.6910   49.3370 C   0  0  0  0  0  0  0  0  0  0  0  0
   62.0390   33.0680   48.0730 C   0  0  0  0  0  0  0  0  0  0  0  0
   60.5970   33.2780   47.6850 C   0  0  1  0  0  0  0  0  0  0  0  0
   59.9750   32.0090   47.2460 N   0  0  0  0  0  0  0  0  0  0  0  0
   58.5180   32.0930   47.0420 C   0  0  0  0  0  0  0  0  0  0  0  0
   58.1260   31.8190   45.6040 C   0  0  0  0  0  0  0  0  0  0  0  0
   57.5480   30.5810   45.2500 C   0  0  0  0  0  0  0  0  0  0  0  0
   57.1960   30.3130   43.9260 C   0  0  0  0  0  0  0  0  0  0  0  0
   57.3810   31.2840   42.9420 C   0  0  0  0  0  0  0  0  0  0  0  0
   57.9010   32.5330   43.2840 C   0  0  0  0  0  0  0  0  0  0  0  0
   58.2610   32.8150   44.6080 C   0  0  0  0  0  0  0  0  0  0  0  0
   58.8980   34.5830   44.9970 Br  0  0  0  0  0  0  0  0  0  0  0  0
   59.8560   33.7960   48.9420 C   0  0  0  0  0  0  0  0  0  0  0  0
   60.0600   32.8430   50.1420 C   0  0  0  0  0  0  0  0  0  0  0  0
   61.5460   32.7120   50.5410 C   0  0  0  0  0  0  0  0  0  0  0  0
   63.6295   34.9228   46.1022 H   0  0  0  0  0  0  0  0  0  0  0  0
   64.1618   33.3377   45.4458 H   0  0  0  0  0  0  0  0  0  0  0  0
   62.4183   33.7700   45.4458 H   0  0  0  0  0  0  0  0  0  0  0  0
   65.2670   33.0930   47.9280 H   0  0  0  0  0  0  0  0  0  0  0  0
   64.0338   32.5790   51.4443 H   0  0  0  0  0  0  0  0  0  0  0  0
   65.0541   31.4222   50.5237 H   0  0  0  0  0  0  0  0  0  0  0  0
   65.4574   33.1726   50.5237 H   0  0  0  0  0  0  0  0  0  0  0  0
   60.5351   33.9928   46.8512 H   0  0  0  0  0  0  0  0  0  0  0  0
   60.1300   31.3000   48.0010 H   0  0  0  0  0  0  0  0  0  0  0  0
   58.0260   31.3533   47.6907 H   0  0  0  0  0  0  0  0  0  0  0  0
   58.2001   33.1164   47.2902 H   0  0  0  0  0  0  0  0  0  0  0  0
   57.3732   29.8200   46.0248 H   0  0  0  0  0  0  0  0  0  0  0  0
   56.7719   29.3340   43.6582 H   0  0  0  0  0  0  0  0  0  0  0  0
   57.1171   31.0653   41.8967 H   0  0  0  0  0  0  0  0  0  0  0  0
   58.0292   33.3020   42.5079 H   0  0  0  0  0  0  0  0  0  0  0  0
   60.2451   34.7911   49.2036 H   0  0  0  0  0  0  0  0  0  0  0  0
   58.7806   33.8477   48.7165 H   0  0  0  0  0  0  0  0  0  0  0  0
   59.4958   33.2320   51.0024 H   0  0  0  0  0  0  0  0  0  0  0  0
   59.7026   31.8462   49.8443 H   0  0  0  0  0  0  0  0  0  0  0  0
   61.8208   33.5666   51.1767 H   0  0  0  0  0  0  0  0  0  0  0  0
   61.6731   31.7617   51.0802 H   0  0  0  0  0  0  0  0  0  0  0  0
  1  2  1  0
  2  3  2  0
  3  4  1  0
  4  5  1  0
  4  6  1  0
  6  7  2  0
  7  8  1  0
  8  9  1  0
  9 10  1  0
 10 11  1  0
 11 12  2  0
 12 13  1  0
 13 14  2  0
 14 15  1  0
 15 16  2  0
 16 17  1  0
  8 18  1  0
 18 19  1  0
 19 20  1  0
  7  2  1  0
 16 11  1  0
 20  6  1  0
  1 21  1  0
  1 22  1  0
  1 23  1  0
  3 24  1  0
  5 25  1  0
  5 26  1  0
  5 27  1  0
  8 28  1  6
  9 29  1  0
 10 30  1  0
 10 31  1  0
 12 32  1  0
 13 33  1  0
 14 34  1  0
 15 35  1  0
 18 36  1  0
 18 37  1  0
 19 38  1  0
 19 39  1  0
 20 40  1  0
 20 41  1  0
M  CHG  1   3   1
M  END
>  <UniqueID>  (35) 
34

>  <SMILES>  (35) 
Cc1[nH+]n(C)c2c1[C@@H](NCc1ccccc1Br)CCC2

>  <Energy>  (35) 
74.35835929593617

>  <Genealogy>  (35) 
Cc1[nH+]n(C)c2c1C(NCc1ccccc1Br)CCC2 (protonated)
Cc1[nH+]n(C)c2c1[C@@H](NCc1ccccc1Br)CCC2 (chirality)
Cc1[nH+]n(C)c2c1[C@@H](NCc1ccccc1Br)CCC2 (3D coordinates assigned)
Cc1[nH+]n(C)c2c1[C@@H](NCc1ccccc1Br)CCC2 (nonaromatic ring conformer: 74.35835929593617 kcal/mol)

>  <smiles>  (35) 
Cc1nn(C)c2c1C(NCc1ccccc1Br)CCC2

>  <score_type>  (35) 
oracle

>  <origin>  (35) 
adg

>  <m_score__min__energy>  (35) 
-6.4100000000000001

>  <m_primary>  (35) 
energy

$$$$
35:0
     RDKit          3D

 47 50  0  0  0  0  0  0  0  0999 V2000
   54.5517   30.4332   43.8223 H   0  0  0  0  0  0  0  0  0  0  0  0
   55.4920   30.0620   44.2560 C   0  0  0  0  0  0  0  0  0  0  0  0
   55.5220   28.8560   44.8710 N   0  0  0  0  0  0  0  0  0  0  0  0
   56.6680   28.3370   45.3810 C   0  0  0  0  0  0  0  0  0  0  0  0
   56.6330   27.0660   45.9640 C   0  0  0  0  0  0  0  0  0  0  0  0
   55.6744   26.5361   46.0655 H   0  0  0  0  0  0  0  0  0  0  0  0
   57.8080   26.4680   46.4170 C   0  0  0  0  0  0  0  0  0  0  0  0
   57.7730   25.4796   46.8984 H   0  0  0  0  0  0  0  0  0  0  0  0
   59.0260   27.1240   46.2590 C   0  0  0  0  0  0  0  0  0  0  0  0
   59.9554   26.6371   46.5893 H   0  0  0  0  0  0  0  0  0  0  0  0
   59.0760   28.3960   45.6840 C   0  0  0  0  0  0  0  0  0  0  0  0
   60.0493   28.8862   45.5340 H   0  0  0  0  0  0  0  0  0  0  0  0
   57.8910   29.0620   45.2920 C   0  0  0  0  0  0  0  0  0  0  0  0
   57.8470   30.3840   44.7410 C   0  0  0  0  0  0  0  0  0  0  0  0
   58.8220   31.2570   44.7800 N   0  0  0  0  0  0  0  0  0  0  0  0
   58.9970   32.4230   45.5950 C   0  0  0  0  0  0  0  0  0  0  0  0
   58.0220   33.4270   45.5270 C   0  0  0  0  0  0  0  0  0  0  0  0
   57.1490   33.2945   44.8711 H   0  0  0  0  0  0  0  0  0  0  0  0
   58.1470   34.5920   46.2820 C   0  0  0  0  0  0  0  0  0  0  0  0
   57.3789   35.3765   46.2140 H   0  0  0  0  0  0  0  0  0  0  0  0
   59.2450   34.7630   47.1230 C   0  0  0  0  0  0  0  0  0  0  0  0
   59.3545   35.6928   47.7005 H   0  0  0  0  0  0  0  0  0  0  0  0
   60.2060   33.7570   47.2340 C   0  0  0  0  0  0  0  0  0  0  0  0
   61.0748   33.9067   47.8918 H   0  0  0  0  0  0  0  0  0  0  0  0
   60.0780   32.5510   46.5140 C   0  0  0  0  0  0  0  0  0  0  0  0
   61.0810   31.5120   46.6610 N   0  0  0  0  0  0  0  0  0  0  0  0
   60.9370   30.7250   45.9950 H   0  0  0  0  0  0  0  0  0  0  0  0
   62.0110   31.9260   46.4190 H   0  0  0  0  0  0  0  0  0  0  0  0
   61.1030   30.9710   48.0050 C   0  0  0  0  0  0  0  0  0  0  0  0
   60.0080   30.2050   48.4530 C   0  0  0  0  0  0  0  0  0  0  0  0
   59.1572   30.0289   47.7784 H   0  0  0  0  0  0  0  0  0  0  0  0
   59.9880   29.6670   49.7400 C   0  0  0  0  0  0  0  0  0  0  0  0
   59.1282   29.0659   50.0709 H   0  0  0  0  0  0  0  0  0  0  0  0
   61.0550   29.8900   50.6060 C   0  0  0  0  0  0  0  0  0  0  0  0
   61.0366   29.4651   51.6204 H   0  0  0  0  0  0  0  0  0  0  0  0
   62.1470   30.6510   50.1900 C   0  0  0  0  0  0  0  0  0  0  0  0
   62.9807   30.8305   50.8848 H   0  0  0  0  0  0  0  0  0  0  0  0
   62.1950   31.1920   48.8920 C   0  0  0  0  0  0  0  0  0  0  0  0
   63.3880   32.0450   48.5230 C   0  0  0  0  0  0  0  0  0  0  0  0
   63.5574   31.9752   47.4384 H   0  0  0  0  0  0  0  0  0  0  0  0
   64.2644   31.6768   49.0766 H   0  0  0  0  0  0  0  0  0  0  0  0
   63.1580   33.5060   48.8980 C   0  0  0  0  0  0  0  0  0  0  0  0
   63.1424   33.6053   49.9934 H   0  0  0  0  0  0  0  0  0  0  0  0
   63.9701   34.1227   48.4855 H   0  0  0  0  0  0  0  0  0  0  0  0
   62.1957   33.8433   48.4855 H   0  0  0  0  0  0  0  0  0  0  0  0
   56.6470   30.8330   44.1710 C   0  0  0  0  0  0  0  0  0  0  0  0
   56.6187   31.8027   43.6525 H   0  0  0  0  0  0  0  0  0  0  0  0
  1  2  1  0
  2  3  1  0
  3  4  1  0
  4  5  2  0
  5  6  1  0
  5  7  1  0
  7  8  1  0
  7  9  2  0
  9 10  1  0
  9 11  1  0
 11 12  1  0
 11 13  2  0
 13 14  1  0
 14 15  2  0
 15 16  1  0
 16 17  2  0
 17 18  1  0
 17 19  1  0
 19 20  1  0
 19 21  2  0
 21 22  1  0
 21 23  1  0
 23 24  1  0
 23 25  2  0
 25 26  1  0
 26 27  1  0
 26 28  1  0
 26 29  1  0
 29 30  2  0
 30 31  1  0
 30 32  1  0
 32 33  1  0
 32 34  2  0
 34 35  1  0
 34 36  1  0
 36 37  1  0
 36 38  2  0
 38 39  1  0
 39 40  1  0
 39 41  1  0
 39 42  1  0
 42 43  1  0
 42 44  1  0
 42 45  1  0
 14 46  1  0
 46 47  1  0
 46  2  2  0
 13  4  1  0
 25 16  1  0
 38 29  1  0
M  CHG  2   3  -1  26   1
M  END
>  <UniqueID>  (36) 
35

>  <SMILES>  (36) 
CCc1ccccc1[NH2+]c1ccccc1/N=c1/cc[n-]c2ccccc12

>  <Energy>  (36) 
77.81962704479555

>  <Genealogy>  (36) 
CCc1ccccc1[NH2+]c1ccccc1N=c1cc[n-]c2ccccc12 (protonated)
CCc1ccccc1[NH2+]c1ccccc1/N=c1/cc[n-]c2ccccc12 (cis-trans isomerization)
CCc1ccccc1[NH2+]c1ccccc1/N=c1/cc[n-]c2ccccc12 (3D coordinates assigned)
CCc1ccccc1[NH2+]c1ccccc1/N=c1/cc[n-]c2ccccc12 (optimized conformer: 77.81962704479555 kcal/mol)

>  <smiles>  (36) 
CCc1ccccc1Nc1ccccc1N=c1cc[nH]c2ccccc12

>  <score_type>  (36) 
oracle

>  <origin>  (36) 
adg

>  <m_score__min__energy>  (36) 
-9.25

>  <m_primary>  (36) 
energy

$$$$
36:0
     RDKit          3D

 55 56  0  0  0  0  0  0  0  0999 V2000
   64.4540   31.9950   50.0060 C   0  0  0  0  0  0  0  0  0  0  0  0
   63.1890   31.5900   49.2470 C   0  0  0  0  0  0  0  0  0  0  0  0
   62.7160   32.6530   48.3300 N   0  0  0  0  0  0  0  0  0  0  0  0
   63.5690   32.8270   47.1230 C   0  0  0  0  0  0  0  0  0  0  0  0
   63.3550   34.1430   46.3610 C   0  0  0  0  0  0  0  0  0  0  0  0
   62.4780   33.9090   49.0810 C   0  0  0  0  0  0  0  0  0  0  0  0
   61.2380   33.8360   49.9910 C   0  0  0  0  0  0  0  0  0  0  0  0
   60.2510   32.8710   49.4750 N   0  0  0  0  0  0  0  0  0  0  0  0
   59.9990   31.7590   50.4070 C   0  0  0  0  0  0  0  0  0  0  0  0
   59.2680   30.5860   49.7250 C   0  0  0  0  0  0  0  0  0  0  0  0
   60.1270   29.9190   48.6400 C   0  0  0  0  0  0  0  0  0  0  0  0
   60.3790   30.8000   47.4880 N   0  0  0  0  0  0  0  0  0  0  0  0
   59.3400   31.3350   46.6460 C   0  0  0  0  0  0  0  0  0  0  0  0
   58.3400   30.4600   46.1920 C   0  0  0  0  0  0  0  0  0  0  0  0
   57.3790   30.8820   45.2570 C   0  0  0  0  0  0  0  0  0  0  0  0
   56.3740   30.0300   44.7740 O   0  0  0  0  0  0  0  0  0  0  0  0
   56.1630   29.7280   43.3990 C   0  0  0  0  0  0  0  0  0  0  0  0
   57.4200   32.1930   44.7790 C   0  0  0  0  0  0  0  0  0  0  0  0
   58.3700   33.1000   45.2650 C   0  0  0  0  0  0  0  0  0  0  0  0
   58.3770   34.4280   44.8210 C   0  0  0  0  0  0  0  0  0  0  0  0
   59.2900   35.3340   45.3560 C   0  0  0  0  0  0  0  0  0  0  0  0
   60.1740   34.9110   46.3470 C   0  0  0  0  0  0  0  0  0  0  0  0
   60.1670   33.6180   46.7710 N   0  0  0  0  0  0  0  0  0  0  0  0
   59.3200   32.6880   46.2320 C   0  0  0  0  0  0  0  0  0  0  0  0
   64.2672   31.9352   51.0884 H   0  0  0  0  0  0  0  0  0  0  0  0
   65.2761   31.3151   49.7377 H   0  0  0  0  0  0  0  0  0  0  0  0
   64.7284   33.0259   49.7377 H   0  0  0  0  0  0  0  0  0  0  0  0
   63.4043   30.6859   48.6586 H   0  0  0  0  0  0  0  0  0  0  0  0
   62.3965   31.4093   49.9882 H   0  0  0  0  0  0  0  0  0  0  0  0
   64.6215   32.7835   47.4398 H   0  0  0  0  0  0  0  0  0  0  0  0
   63.2879   32.0210   46.4292 H   0  0  0  0  0  0  0  0  0  0  0  0
   63.2213   34.9651   47.0795 H   0  0  0  0  0  0  0  0  0  0  0  0
   64.2317   34.3474   45.7289 H   0  0  0  0  0  0  0  0  0  0  0  0
   62.4587   34.0591   45.7289 H   0  0  0  0  0  0  0  0  0  0  0  0
   63.3596   34.1176   49.7049 H   0  0  0  0  0  0  0  0  0  0  0  0
   62.3008   34.7062   48.3441 H   0  0  0  0  0  0  0  0  0  0  0  0
   61.5508   33.5245   50.9985 H   0  0  0  0  0  0  0  0  0  0  0  0
   60.7691   34.8306   50.0192 H   0  0  0  0  0  0  0  0  0  0  0  0
   60.5920   32.4910   48.5610 H   0  0  0  0  0  0  0  0  0  0  0  0
   60.9620   31.3981   50.7974 H   0  0  0  0  0  0  0  0  0  0  0  0
   59.3559   32.1344   51.2166 H   0  0  0  0  0  0  0  0  0  0  0  0
   59.0147   29.8349   50.4877 H   0  0  0  0  0  0  0  0  0  0  0  0
   58.3646   30.9863   49.2417 H   0  0  0  0  0  0  0  0  0  0  0  0
   61.0931   29.6346   49.0825 H   0  0  0  0  0  0  0  0  0  0  0  0
   59.5725   29.0434   48.2714 H   0  0  0  0  0  0  0  0  0  0  0  0
   61.3000   31.2940   47.4760 H   0  0  0  0  0  0  0  0  0  0  0  0
   58.3082   29.4289   46.5738 H   0  0  0  0  0  0  0  0  0  0  0  0
   55.5349   28.8290   43.3132 H   0  0  0  0  0  0  0  0  0  0  0  0
   55.6593   30.5752   42.9106 H   0  0  0  0  0  0  0  0  0  0  0  0
   57.1318   29.5464   42.9106 H   0  0  0  0  0  0  0  0  0  0  0  0
   56.6994   32.5166   44.0135 H   0  0  0  0  0  0  0  0  0  0  0  0
   57.6628   34.7553   44.0511 H   0  0  0  0  0  0  0  0  0  0  0  0
   59.3130   36.3743   44.9994 H   0  0  0  0  0  0  0  0  0  0  0  0
   60.8821   35.6272   46.7894 H   0  0  0  0  0  0  0  0  0  0  0  0
   60.7990   33.3740   47.5630 H   0  0  0  0  0  0  0  0  0  0  0  0
  1  2  1  0
  2  3  1  0
  3  4  1  0
  4  5  1  0
  3  6  1  0
  6  7  1  0
  7  8  1  0
  8  9  1  0
  9 10  1  0
 10 11  1  0
 11 12  1  0
 12 13  1  0
 13 14  2  0
 14 15  1  0
 15 16  1  0
 16 17  1  0
 15 18  2  0
 18 19  1  0
 19 20  2  0
 20 21  1  0
 21 22  2  0
 22 23  1  0
 23 24  2  0
 24 13  1  0
 24 19  1  0
  1 25  1  0
  1 26  1  0
  1 27  1  0
  2 28  1  0
  2 29  1  0
  4 30  1  0
  4 31  1  0
  5 32  1  0
  5 33  1  0
  5 34  1  0
  6 35  1  0
  6 36  1  0
  7 37  1  0
  7 38  1  0
  8 39  1  0
  9 40  1  0
  9 41  1  0
 10 42  1  0
 10 43  1  0
 11 44  1  0
 11 45  1  0
 12 46  1  0
 14 47  1  0
 17 48  1  0
 17 49  1  0
 17 50  1  0
 18 51  1  0
 20 52  1  0
 21 53  1  0
 22 54  1  0
 23 55  1  0
M  CHG  1  23   1
M  END
>  <UniqueID>  (37) 
36

>  <SMILES>  (37) 
CCN(CC)CCNCCCNc1cc(OC)cc2ccc[nH+]c12

>  <Energy>  (37) 
61.094079782676914

>  <Genealogy>  (37) 
CCN(CC)CCNCCCNc1cc(OC)cc2ccc[nH+]c12 (protonated)
CCN(CC)CCNCCCNc1cc(OC)cc2ccc[nH+]c12 (3D coordinates assigned)
CCN(CC)CCNCCCNc1cc(OC)cc2ccc[nH+]c12 (optimized conformer: 61.094079782676914 kcal/mol)

>  <smiles>  (37) 
CCN(CC)CCNCCCNc1cc(OC)cc2cccnc12

>  <score_type>  (37) 
oracle

>  <origin>  (37) 
adg

>  <m_score__min__energy>  (37) 
-4.4699999999999998

>  <m_primary>  (37) 
energy

$$$$
37:0
     RDKit          3D

 15 15  0  0  0  0  0  0  0  0999 V2000
   55.8650   29.7540   44.1360 Br  0  0  0  0  0  0  0  0  0  0  0  0
   57.7900   29.9720   44.1280 C   0  0  0  0  0  0  0  0  0  0  0  0
   58.1520   31.3570   44.5930 C   0  0  0  0  0  0  0  0  0  0  0  0
   58.4300   31.5720   45.9550 C   0  0  0  0  0  0  0  0  0  0  0  0
   58.7420   32.8530   46.4220 C   0  0  0  0  0  0  0  0  0  0  0  0
   59.1260   33.1270   48.2720 Br  0  0  0  0  0  0  0  0  0  0  0  0
   58.7710   33.9320   45.5360 C   0  0  0  0  0  0  0  0  0  0  0  0
   58.4820   33.7340   44.1840 C   0  0  0  0  0  0  0  0  0  0  0  0
   58.1660   32.4570   43.7050 C   0  0  0  0  0  0  0  0  0  0  0  0
   57.7570   32.2720   41.8390 Br  0  0  0  0  0  0  0  0  0  0  0  0
   58.2436   29.2309   44.8026 H   0  0  0  0  0  0  0  0  0  0  0  0
   58.1664   29.8241   43.1050 H   0  0  0  0  0  0  0  0  0  0  0  0
   58.4018   30.7265   46.6580 H   0  0  0  0  0  0  0  0  0  0  0  0
   59.0215   34.9382   45.9030 H   0  0  0  0  0  0  0  0  0  0  0  0
   58.5028   34.5876   43.4905 H   0  0  0  0  0  0  0  0  0  0  0  0
  1  2  1  0
  2  3  1  0
  3  4  2  0
  4  5  1  0
  5  6  1  0
  5  7  2  0
  7  8  1  0
  8  9  2  0
  9 10  1  0
  9  3  1  0
  2 11  1  0
  2 12  1  0
  4 13  1  0
  7 14  1  0
  8 15  1  0
M  END
>  <UniqueID>  (38) 
37

>  <SMILES>  (38) 
BrCc1cc(Br)ccc1Br

>  <Energy>  (38) 
13.703875586090437

>  <Genealogy>  (38) 
BrCc1cc(Br)ccc1Br (3D coordinates assigned)
BrCc1cc(Br)ccc1Br (optimized conformer: 13.703875586090437 kcal/mol)

>  <smiles>  (38) 
BrCc1cc(Br)ccc1Br

>  <score_type>  (38) 
oracle

>  <origin>  (38) 
adg

>  <m_score__min__energy>  (38) 
-5.5800000000000001

>  <m_primary>  (38) 
energy

$$$$
38:0
     RDKit          3D

 35 37  0  0  0  0  0  0  0  0999 V2000
   57.7040   32.7000   44.7720 C   0  0  0  0  0  0  0  0  0  0  0  0
   57.7050   31.6200   43.6950 C   0  0  0  0  0  0  0  0  0  0  0  0
   57.5010   30.2950   44.2950 N   0  0  0  0  0  0  0  0  0  0  0  0
   58.6620   29.4070   44.4610 C   0  0  0  0  0  0  0  0  0  0  0  0
   58.4060   28.2500   45.4000 C   0  0  0  0  0  0  0  0  0  0  0  0
   59.4920   27.5140   45.8970 C   0  0  0  0  0  0  0  0  0  0  0  0
   59.2770   26.3950   46.7050 C   0  0  0  0  0  0  0  0  0  0  0  0
   57.9700   25.9760   47.0020 C   0  0  0  0  0  0  0  0  0  0  0  0
   57.7210   24.8370   47.8350 N   0  0  0  0  0  0  0  0  0  0  0  0
   56.7630   23.8070   47.5620 C   0  0  0  0  0  0  0  0  0  0  0  0
   57.0840   22.6060   47.7610 O   0  0  0  0  0  0  0  0  0  0  0  0
   55.4310   24.1090   47.1340 N   0  0  0  0  0  0  0  0  0  0  0  0
   54.7680   23.4480   46.0160 C   0  0  0  0  0  0  0  0  0  0  0  0
   53.7980   24.3350   45.2580 C   0  0  0  0  0  0  0  0  0  0  0  0
   55.1710   24.0410   44.6790 C   0  0  0  0  0  0  0  0  0  0  0  0
   56.8850   26.7170   46.5190 C   0  0  0  0  0  0  0  0  0  0  0  0
   57.0970   27.8420   45.7150 C   0  0  0  0  0  0  0  0  0  0  0  0
   55.9770   28.5830   45.2340 N   0  0  0  0  0  0  0  0  0  0  0  0
   56.1670   29.8070   44.5340 C   0  0  0  0  0  0  0  0  0  0  0  0
   55.1620   30.4590   44.1450 O   0  0  0  0  0  0  0  0  0  0  0  0
   57.7044   32.2273   45.7653 H   0  0  0  0  0  0  0  0  0  0  0  0
   58.6016   33.3266   44.6637 H   0  0  0  0  0  0  0  0  0  0  0  0
   56.8053   33.3250   44.6637 H   0  0  0  0  0  0  0  0  0  0  0  0
   56.8946   31.8219   42.9792 H   0  0  0  0  0  0  0  0  0  0  0  0
   58.6771   31.6317   43.1804 H   0  0  0  0  0  0  0  0  0  0  0  0
   58.9344   29.0019   43.4753 H   0  0  0  0  0  0  0  0  0  0  0  0
   59.4700   30.0093   44.9019 H   0  0  0  0  0  0  0  0  0  0  0  0
   60.5191   27.8199   45.6489 H   0  0  0  0  0  0  0  0  0  0  0  0
   60.1355   25.8395   47.1105 H   0  0  0  0  0  0  0  0  0  0  0  0
   54.7108   22.4388   46.4498 H   0  0  0  0  0  0  0  0  0  0  0  0
   52.9007   23.8989   44.7947 H   0  0  0  0  0  0  0  0  0  0  0  0
   53.2322   25.2485   45.4935 H   0  0  0  0  0  0  0  0  0  0  0  0
   55.2683   23.3919   43.7962 H   0  0  0  0  0  0  0  0  0  0  0  0
   56.0119   24.6533   44.3213 H   0  0  0  0  0  0  0  0  0  0  0  0
   55.8590   26.4127   46.7733 H   0  0  0  0  0  0  0  0  0  0  0  0
  1  2  1  0
  2  3  1  0
  3  4  1  0
  4  5  1  0
  5  6  2  0
  6  7  1  0
  7  8  2  0
  8  9  1  0
  9 10  1  0
 10 11  2  0
 10 12  1  0
 12 13  1  0
 13 14  1  0
 14 15  1  0
  8 16  1  0
 16 17  2  0
 17 18  1  0
 18 19  1  0
 19 20  2  0
 19  3  1  0
 17  5  1  0
 15 13  1  0
  1 21  1  0
  1 22  1  0
  1 23  1  0
  2 24  1  0
  2 25  1  0
  4 26  1  0
  4 27  1  0
  6 28  1  0
  7 29  1  0
 13 30  1  0
 14 31  1  0
 14 32  1  0
 15 33  1  0
 15 34  1  0
 16 35  1  0
M  CHG  3   9  -1  12  -1  18  -1
M  END
>  <UniqueID>  (39) 
38

>  <SMILES>  (39) 
CCN1Cc2ccc([N-]C(=O)[N-]C3CC3)cc2[N-]C1=O

>  <Energy>  (39) 
301.9427216036076

>  <Genealogy>  (39) 
CCN1Cc2ccc([N-]C(=O)[N-]C3CC3)cc2[N-]C1=O (protonated)
CCN1Cc2ccc([N-]C(=O)[N-]C3CC3)cc2[N-]C1=O (3D coordinates assigned)
CCN1Cc2ccc([N-]C(=O)[N-]C3CC3)cc2[N-]C1=O (nonaromatic ring conformer: 301.9427216036076 kcal/mol)

>  <smiles>  (39) 
CCN1Cc2ccc(NC(=O)NC3CC3)cc2NC1=O

>  <score_type>  (39) 
oracle

>  <origin>  (39) 
adg

>  <m_score__min__energy>  (39) 
-11.68

>  <m_primary>  (39) 
energy

$$$$
39:0
     RDKit          3D

 34 36  0  0  0  0  0  0  0  0999 V2000
   65.8180   31.8780   50.5210 C   0  0  0  0  0  0  0  0  0  0  0  0
   65.5570   32.7020   49.3910 O   0  0  0  0  0  0  0  0  0  0  0  0
   64.2740   33.0690   48.9560 C   0  0  0  0  0  0  0  0  0  0  0  0
   64.0010   33.4050   47.6180 C   0  0  0  0  0  0  0  0  0  0  0  0
   62.7090   33.7660   47.2290 C   0  0  0  0  0  0  0  0  0  0  0  0
   61.6590   33.8020   48.1670 C   0  0  0  0  0  0  0  0  0  0  0  0
   60.3320   34.1670   47.8200 C   0  0  0  0  0  0  0  0  0  0  0  0
   59.9280   34.5850   46.4260 C   0  0  0  0  0  0  0  0  0  0  0  0
   59.1160   33.5100   45.7460 C   0  0  0  0  0  0  0  0  0  0  0  0
   58.5290   33.7540   44.4910 C   0  0  0  0  0  0  0  0  0  0  0  0
   57.7700   32.7620   43.8620 C   0  0  0  0  0  0  0  0  0  0  0  0
   57.5840   31.5230   44.4820 C   0  0  0  0  0  0  0  0  0  0  0  0
   56.6320   30.2800   43.6910 Cl  0  0  0  0  0  0  0  0  0  0  0  0
   58.1520   31.2780   45.7360 C   0  0  0  0  0  0  0  0  0  0  0  0
   58.9110   32.2670   46.3680 C   0  0  0  0  0  0  0  0  0  0  0  0
   59.3720   34.1840   48.7850 N   0  0  0  0  0  0  0  0  0  0  0  0
   59.6260   33.8560   50.0770 C   0  0  0  0  0  0  0  0  0  0  0  0
   60.9120   33.4900   50.4660 C   0  0  0  0  0  0  0  0  0  0  0  0
   61.9380   33.4610   49.5140 C   0  0  0  0  0  0  0  0  0  0  0  0
   63.2390   33.0990   49.8940 C   0  0  0  0  0  0  0  0  0  0  0  0
   65.6365   32.4509   51.4423 H   0  0  0  0  0  0  0  0  0  0  0  0
   65.1534   31.0018   50.4972 H   0  0  0  0  0  0  0  0  0  0  0  0
   66.8659   31.5442   50.4972 H   0  0  0  0  0  0  0  0  0  0  0  0
   64.8101   33.3834   46.8731 H   0  0  0  0  0  0  0  0  0  0  0  0
   62.5094   34.0250   46.1787 H   0  0  0  0  0  0  0  0  0  0  0  0
   59.3264   35.5038   46.4874 H   0  0  0  0  0  0  0  0  0  0  0  0
   60.8406   34.7567   45.8363 H   0  0  0  0  0  0  0  0  0  0  0  0
   58.6677   34.7296   44.0022 H   0  0  0  0  0  0  0  0  0  0  0  0
   57.3187   32.9570   42.8780 H   0  0  0  0  0  0  0  0  0  0  0  0
   58.0012   30.3049   46.2262 H   0  0  0  0  0  0  0  0  0  0  0  0
   59.3501   32.0712   47.3574 H   0  0  0  0  0  0  0  0  0  0  0  0
   58.8141   33.8793   50.8188 H   0  0  0  0  0  0  0  0  0  0  0  0
   61.1201   33.2257   51.5133 H   0  0  0  0  0  0  0  0  0  0  0  0
   63.4465   32.8359   50.9417 H   0  0  0  0  0  0  0  0  0  0  0  0
  1  2  1  0
  2  3  1  0
  3  4  2  0
  4  5  1  0
  5  6  2  0
  6  7  1  0
  7  8  1  0
  8  9  1  0
  9 10  2  0
 10 11  1  0
 11 12  2  0
 12 13  1  0
 12 14  1  0
 14 15  2  0
  7 16  2  0
 16 17  1  0
 17 18  2  0
 18 19  1  0
 19 20  2  0
 20  3  1  0
 19  6  1  0
 15  9  1  0
  1 21  1  0
  1 22  1  0
  1 23  1  0
  4 24  1  0
  5 25  1  0
  8 26  1  0
  8 27  1  0
 10 28  1  0
 11 29  1  0
 14 30  1  0
 15 31  1  0
 17 32  1  0
 18 33  1  0
 20 34  1  0
M  END
>  <UniqueID>  (40) 
39

>  <SMILES>  (40) 
COc1ccc2c(Cc3ccc(Cl)cc3)nccc2c1

>  <Energy>  (40) 
40.793331745289144

>  <Genealogy>  (40) 
COc1ccc2c(Cc3ccc(Cl)cc3)nccc2c1 (3D coordinates assigned)
COc1ccc2c(Cc3ccc(Cl)cc3)nccc2c1 (optimized conformer: 40.793331745289144 kcal/mol)

>  <smiles>  (40) 
COc1ccc2c(Cc3ccc(Cl)cc3)nccc2c1

>  <score_type>  (40) 
oracle

>  <origin>  (40) 
adg

>  <m_score__min__energy>  (40) 
-7.1399999999999997

>  <m_primary>  (40) 
energy

$$$$
40:0
     RDKit          3D

 57 60  0  0  0  0  0  0  0  0999 V2000
   59.5090   31.6040   50.0170 C   0  0  0  0  0  0  0  0  0  0  0  0
   60.1310   32.0540   48.7640 N   0  0  0  0  0  0  0  0  0  0  0  0
   60.8250   31.0890   47.9270 C   0  0  0  0  0  0  0  0  0  0  0  0
   61.8820   31.4200   47.3230 O   0  0  0  0  0  0  0  0  0  0  0  0
   60.2880   29.6870   47.7400 C   0  0  0  0  0  0  0  0  0  0  0  0
   59.2220   29.6220   46.6770 C   0  0  0  0  0  0  0  0  0  0  0  0
   58.2950   28.5660   46.6750 C   0  0  0  0  0  0  0  0  0  0  0  0
   57.3300   28.4710   45.6700 C   0  0  0  0  0  0  0  0  0  0  0  0
   57.2850   29.4270   44.6440 C   0  0  0  0  0  0  0  0  0  0  0  0
   56.3210   29.3400   43.6280 C   0  0  0  0  0  0  0  0  0  0  0  0
   56.2900   30.2940   42.6070 C   0  0  0  0  0  0  0  0  0  0  0  0
   57.2180   31.3390   42.5920 C   0  0  0  0  0  0  0  0  0  0  0  0
   58.1830   31.4370   43.5980 C   0  0  0  0  0  0  0  0  0  0  0  0
   58.2250   30.4860   44.6300 C   0  0  0  0  0  0  0  0  0  0  0  0
   59.1900   30.5730   45.6440 C   0  0  0  0  0  0  0  0  0  0  0  0
   60.0640   33.4990   48.4360 C   0  0  1  0  0  0  0  0  0  0  0  0
   61.4610   34.1780   48.5260 C   0  0  0  0  0  0  0  0  0  0  0  0
   62.5140   33.3430   49.1640 N   0  0  0  0  0  0  0  0  0  0  0  0
   62.9100   33.8110   50.5060 C   0  0  0  0  0  0  0  0  0  0  0  0
   64.3640   33.4030   50.7170 C   0  0  0  0  0  0  0  0  0  0  0  0
   64.8840   33.0180   49.3440 C   0  0  0  0  0  0  0  0  0  0  0  0
   63.7590   33.3650   48.3850 C   0  0  0  0  0  0  0  0  0  0  0  0
   59.2420   33.7820   47.1800 C   0  0  0  0  0  0  0  0  0  0  0  0
   57.9160   33.3120   47.1360 C   0  0  0  0  0  0  0  0  0  0  0  0
   57.1180   33.5300   46.0100 C   0  0  0  0  0  0  0  0  0  0  0  0
   57.6290   34.2260   44.9130 C   0  0  0  0  0  0  0  0  0  0  0  0
   58.9390   34.7070   44.9430 C   0  0  0  0  0  0  0  0  0  0  0  0
   59.7440   34.4910   46.0670 C   0  0  0  0  0  0  0  0  0  0  0  0
   60.0703   32.0101   50.8715 H   0  0  0  0  0  0  0  0  0  0  0  0
   58.4691   31.9602   50.0587 H   0  0  0  0  0  0  0  0  0  0  0  0
   59.5220   30.5049   50.0587 H   0  0  0  0  0  0  0  0  0  0  0  0
   61.1179   29.0257   47.4502 H   0  0  0  0  0  0  0  0  0  0  0  0
   59.8358   29.3693   48.6911 H   0  0  0  0  0  0  0  0  0  0  0  0
   58.3297   27.8081   47.4714 H   0  0  0  0  0  0  0  0  0  0  0  0
   56.6037   27.6450   45.6828 H   0  0  0  0  0  0  0  0  0  0  0  0
   55.5884   28.5195   43.6351 H   0  0  0  0  0  0  0  0  0  0  0  0
   55.5326   30.2221   41.8125 H   0  0  0  0  0  0  0  0  0  0  0  0
   57.1887   32.0867   41.7857 H   0  0  0  0  0  0  0  0  0  0  0  0
   58.9114   32.2611   43.5813 H   0  0  0  0  0  0  0  0  0  0  0  0
   59.9258   31.3905   45.6302 H   0  0  0  0  0  0  0  0  0  0  0  0
   59.4808   34.0067   49.2184 H   0  0  0  0  0  0  0  0  0  0  0  0
   61.7895   34.4242   47.5055 H   0  0  0  0  0  0  0  0  0  0  0  0
   61.3365   35.0652   49.1643 H   0  0  0  0  0  0  0  0  0  0  0  0
   62.2020   32.3470   49.2360 H   0  0  0  0  0  0  0  0  0  0  0  0
   62.8133   34.9050   50.5670 H   0  0  0  0  0  0  0  0  0  0  0  0
   62.2649   33.3683   51.2792 H   0  0  0  0  0  0  0  0  0  0  0  0
   64.9434   34.2444   51.1249 H   0  0  0  0  0  0  0  0  0  0  0  0
   64.4537   32.5730   51.4333 H   0  0  0  0  0  0  0  0  0  0  0  0
   65.7907   33.5909   49.0996 H   0  0  0  0  0  0  0  0  0  0  0  0
   65.1589   31.9543   49.2901 H   0  0  0  0  0  0  0  0  0  0  0  0
   63.9207   34.3658   47.9581 H   0  0  0  0  0  0  0  0  0  0  0  0
   63.7156   32.6478   47.5521 H   0  0  0  0  0  0  0  0  0  0  0  0
   57.5033   32.7669   47.9978 H   0  0  0  0  0  0  0  0  0  0  0  0
   56.0851   33.1525   45.9878 H   0  0  0  0  0  0  0  0  0  0  0  0
   57.0003   34.3951   44.0264 H   0  0  0  0  0  0  0  0  0  0  0  0
   59.3401   35.2581   44.0796 H   0  0  0  0  0  0  0  0  0  0  0  0
   60.7743   34.8760   46.0836 H   0  0  0  0  0  0  0  0  0  0  0  0
  1  2  1  0
  2  3  1  0
  3  4  2  0
  3  5  1  0
  5  6  1  0
  6  7  2  0
  7  8  1  0
  8  9  2  0
  9 10  1  0
 10 11  2  0
 11 12  1  0
 12 13  2  0
 13 14  1  0
 14 15  2  0
  2 16  1  0
 16 17  1  0
 17 18  1  0
 18 19  1  0
 19 20  1  0
 20 21  1  0
 21 22  1  0
 16 23  1  0
 23 24  2  0
 24 25  1  0
 25 26  2  0
 26 27  1  0
 27 28  2  0
 15  6  1  0
 22 18  1  0
 28 23  1  0
 14  9  1  0
  1 29  1  0
  1 30  1  0
  1 31  1  0
  5 32  1  0
  5 33  1  0
  7 34  1  0
  8 35  1  0
 10 36  1  0
 11 37  1  0
 12 38  1  0
 13 39  1  0
 15 40  1  0
 16 41  1  1
 17 42  1  0
 17 43  1  0
 18 44  1  0
 19 45  1  0
 19 46  1  0
 20 47  1  0
 20 48  1  0
 21 49  1  0
 21 50  1  0
 22 51  1  0
 22 52  1  0
 24 53  1  0
 25 54  1  0
 26 55  1  0
 27 56  1  0
 28 57  1  0
M  CHG  1  18   1
M  END
>  <UniqueID>  (41) 
40

>  <SMILES>  (41) 
CN(C(=O)Cc1ccc2ccccc2c1)[C@@H](C[NH+]1CCCC1)c1ccccc1

>  <Energy>  (41) 
73.20676092337125

>  <Genealogy>  (41) 
CN(C(=O)Cc1ccc2ccccc2c1)C(C[NH+]1CCCC1)c1ccccc1 (protonated)
CN(C(=O)Cc1ccc2ccccc2c1)[C@@H](C[NH+]1CCCC1)c1ccccc1 (chirality)
CN(C(=O)Cc1ccc2ccccc2c1)[C@@H](C[NH+]1CCCC1)c1ccccc1 (3D coordinates assigned)
CN(C(=O)Cc1ccc2ccccc2c1)[C@@H](C[NH+]1CCCC1)c1ccccc1 (nonaromatic ring conformer: 73.20676092337125 kcal/mol)

>  <smiles>  (41) 
CN(C(=O)Cc1ccc2ccccc2c1)C(CN1CCCC1)c1ccccc1

>  <score_type>  (41) 
oracle

>  <origin>  (41) 
adg

>  <m_score__min__energy>  (41) 
-7.7800000000000002

>  <m_primary>  (41) 
energy

$$$$
41:0
     RDKit          3D

 40 43  0  0  0  0  0  0  0  0999 V2000
   55.4260   29.2460   44.3230 O   0  0  0  0  0  0  0  0  0  0  0  0
   56.5540   29.4310   44.8340 C   0  0  0  0  0  0  0  0  0  0  0  0
   57.0030   30.6780   44.9620 N   0  0  0  0  0  0  0  0  0  0  0  0
   58.1790   31.0370   45.4850 C   0  0  0  0  0  0  0  0  0  0  0  0
   58.6570   32.3970   45.6180 C   0  0  0  0  0  0  0  0  0  0  0  0
   58.3850   33.3800   44.7070 C   0  0  0  0  0  0  0  0  0  0  0  0
   58.8530   34.6690   44.8590 C   0  0  0  0  0  0  0  0  0  0  0  0
   59.6210   34.9930   45.9570 C   0  0  0  0  0  0  0  0  0  0  0  0
   60.0510   36.2680   46.0520 F   0  0  0  0  0  0  0  0  0  0  0  0
   59.9070   34.0160   46.8860 C   0  0  0  0  0  0  0  0  0  0  0  0
   59.4310   32.7510   46.7120 C   0  0  0  0  0  0  0  0  0  0  0  0
   58.9720   30.0120   45.9200 N   0  0  0  0  0  0  0  0  0  0  0  0
   58.5560   28.7450   45.8090 C   0  0  0  0  0  0  0  0  0  0  0  0
   59.3650   27.1810   46.2870 S   0  0  0  0  0  0  0  0  0  0  0  0
   58.0070   26.1570   45.7230 C   0  0  0  0  0  0  0  0  0  0  0  0
   57.9660   24.6990   45.7980 C   0  0  0  0  0  0  0  0  0  0  0  0
   57.8500   24.0580   44.5210 N   0  0  0  0  0  0  0  0  0  0  0  0
   56.5660   24.1630   43.9000 C   0  0  0  0  0  0  0  0  0  0  0  0
   56.4430   22.9750   42.9350 C   0  0  0  0  0  0  0  0  0  0  0  0
   56.2620   21.7980   43.6430 O   0  0  0  0  0  0  0  0  0  0  0  0
   56.8510   21.8890   44.9190 C   0  0  0  0  0  0  0  0  0  0  0  0
   58.1530   22.6420   44.7490 C   0  0  0  0  0  0  0  0  0  0  0  0
   57.0950   27.0310   45.2430 C   0  0  0  0  0  0  0  0  0  0  0  0
   57.3520   28.3480   45.2760 C   0  0  0  0  0  0  0  0  0  0  0  0
   56.3820   31.4460   44.6240 H   0  0  0  0  0  0  0  0  0  0  0  0
   57.7740   33.1354   43.8256 H   0  0  0  0  0  0  0  0  0  0  0  0
   58.6142   35.4353   44.1068 H   0  0  0  0  0  0  0  0  0  0  0  0
   60.5192   34.2572   47.7675 H   0  0  0  0  0  0  0  0  0  0  0  0
   59.6690   31.9852   47.4649 H   0  0  0  0  0  0  0  0  0  0  0  0
   58.8919   24.3501   46.2786 H   0  0  0  0  0  0  0  0  0  0  0  0
   57.0673   24.4325   46.3736 H   0  0  0  0  0  0  0  0  0  0  0  0
   55.7724   24.1173   44.6604 H   0  0  0  0  0  0  0  0  0  0  0  0
   56.4624   25.1188   43.3655 H   0  0  0  0  0  0  0  0  0  0  0  0
   55.5813   23.1350   42.2703 H   0  0  0  0  0  0  0  0  0  0  0  0
   57.3665   22.8980   42.3423 H   0  0  0  0  0  0  0  0  0  0  0  0
   56.1856   22.4338   45.6049 H   0  0  0  0  0  0  0  0  0  0  0  0
   57.0264   20.8897   45.3441 H   0  0  0  0  0  0  0  0  0  0  0  0
   58.7636   22.5357   45.6578 H   0  0  0  0  0  0  0  0  0  0  0  0
   58.7123   22.2357   43.8934 H   0  0  0  0  0  0  0  0  0  0  0  0
   56.1452   26.6644   44.8266 H   0  0  0  0  0  0  0  0  0  0  0  0
  1  2  2  0
  2  3  1  0
  3  4  1  0
  4  5  1  0
  5  6  2  0
  6  7  1  0
  7  8  2  0
  8  9  1  0
  8 10  1  0
 10 11  2  0
  4 12  2  0
 12 13  1  0
 13 14  1  0
 14 15  1  0
 15 16  1  0
 16 17  1  0
 17 18  1  0
 18 19  1  0
 19 20  1  0
 20 21  1  0
 21 22  1  0
 15 23  2  0
 23 24  1  0
 24  2  1  0
 11  5  1  0
 24 13  2  0
 22 17  1  0
  3 25  1  0
  6 26  1  0
  7 27  1  0
 10 28  1  0
 11 29  1  0
 16 30  1  0
 16 31  1  0
 18 32  1  0
 18 33  1  0
 19 34  1  0
 19 35  1  0
 21 36  1  0
 21 37  1  0
 22 38  1  0
 22 39  1  0
 23 40  1  0
M  END
>  <smiles>  (42) 
O=c1[nH]c(-c2ccc(F)cc2)nc2sc(CN3CCOCC3)cc12

>  <score_type>  (42) 
oracle

>  <origin>  (42) 
adg

>  <m_score__min__energy>  (42) 
-8.1099999999999994

>  <m_primary>  (42) 
energy

$$$$
42:0
     RDKit          3D

 36 37  0  0  0  0  0  0  0  0999 V2000
   60.3800   27.6700   47.1430 C   0  0  0  0  0  0  0  0  0  0  0  0
   59.4010   28.2250   46.1580 C   0  0  0  0  0  0  0  0  0  0  0  0
   58.7650   27.3410   44.8620 S   0  0  0  0  0  0  0  0  0  0  0  0
   57.8250   28.6030   44.2860 C   0  0  0  0  0  0  0  0  0  0  0  0
   57.0170   28.5820   43.1990 N   0  0  0  0  0  0  0  0  0  0  0  0
   56.3290   29.7110   42.8690 C   0  0  0  0  0  0  0  0  0  0  0  0
   56.4550   30.8390   43.6280 N   0  0  0  0  0  0  0  0  0  0  0  0
   57.2640   30.8800   44.7270 C   0  0  0  0  0  0  0  0  0  0  0  0
   57.3730   32.0480   45.4900 O   0  0  0  0  0  0  0  0  0  0  0  0
   57.4120   33.3600   44.9320 C   0  0  0  0  0  0  0  0  0  0  0  0
   58.8570   33.8580   44.7740 C   0  0  0  0  0  0  0  0  0  0  0  0
   59.4660   34.4260   46.0780 C   0  0  0  0  0  0  0  0  0  0  0  0
   58.5210   34.1580   47.2550 C   0  0  0  0  0  0  0  0  0  0  0  0
   60.8510   33.8320   46.3730 C   0  0  0  0  0  0  0  0  0  0  0  0
   57.9780   29.7260   45.0760 C   0  0  0  0  0  0  0  0  0  0  0  0
   58.8760   29.5290   46.1470 C   0  0  0  0  0  0  0  0  0  0  0  0
   59.2380   30.5890   47.1500 C   0  0  0  0  0  0  0  0  0  0  0  0
   60.0258   27.8708   48.1649 H   0  0  0  0  0  0  0  0  0  0  0  0
   60.4742   26.5842   46.9943 H   0  0  0  0  0  0  0  0  0  0  0  0
   61.3601   28.1468   46.9943 H   0  0  0  0  0  0  0  0  0  0  0  0
   56.9240   27.7180   42.6190 H   0  0  0  0  0  0  0  0  0  0  0  0
   55.6700   29.7136   41.9883 H   0  0  0  0  0  0  0  0  0  0  0  0
   56.9289   33.3434   43.9439 H   0  0  0  0  0  0  0  0  0  0  0  0
   56.8826   34.0424   45.6133 H   0  0  0  0  0  0  0  0  0  0  0  0
   59.4797   33.0157   44.4382 H   0  0  0  0  0  0  0  0  0  0  0  0
   58.8350   34.6812   44.0447 H   0  0  0  0  0  0  0  0  0  0  0  0
   59.5922   35.5102   45.9413 H   0  0  0  0  0  0  0  0  0  0  0  0
   59.0610   34.3111   48.2010 H   0  0  0  0  0  0  0  0  0  0  0  0
   57.6669   34.8493   47.2043 H   0  0  0  0  0  0  0  0  0  0  0  0
   58.1570   33.1212   47.2043 H   0  0  0  0  0  0  0  0  0  0  0  0
   60.9986   33.7687   47.4612 H   0  0  0  0  0  0  0  0  0  0  0  0
   60.9193   32.8255   45.9346 H   0  0  0  0  0  0  0  0  0  0  0  0
   61.6273   34.4763   45.9346 H   0  0  0  0  0  0  0  0  0  0  0  0
   59.1027   30.1928   48.1672 H   0  0  0  0  0  0  0  0  0  0  0  0
   60.2880   30.8846   47.0083 H   0  0  0  0  0  0  0  0  0  0  0  0
   58.5881   31.4651   47.0083 H   0  0  0  0  0  0  0  0  0  0  0  0
  1  2  1  0
  2  3  1  0
  3  4  1  0
  4  5  2  0
  5  6  1  0
  6  7  2  0
  7  8  1  0
  8  9  1  0
  9 10  1  0
 10 11  1  0
 11 12  1  0
 12 13  1  0
 12 14  1  0
  8 15  2  0
 15 16  1  0
 16 17  1  0
 16  2  2  0
 15  4  1  0
  1 18  1  0
  1 19  1  0
  1 20  1  0
  5 21  1  0
  6 22  1  0
 10 23  1  0
 10 24  1  0
 11 25  1  0
 11 26  1  0
 12 27  1  0
 13 28  1  0
 13 29  1  0
 13 30  1  0
 14 31  1  0
 14 32  1  0
 14 33  1  0
 17 34  1  0
 17 35  1  0
 17 36  1  0
M  CHG  1   5   1
M  END
>  <UniqueID>  (43) 
41

>  <SMILES>  (43) 
Cc1sc2[nH+]cnc(OCCC(C)C)c2c1C

>  <Energy>  (43) 
58.847885731694156

>  <Genealogy>  (43) 
Cc1sc2[nH+]cnc(OCCC(C)C)c2c1C (protonated)
Cc1sc2[nH+]cnc(OCCC(C)C)c2c1C (3D coordinates assigned)
Cc1sc2[nH+]cnc(OCCC(C)C)c2c1C (optimized conformer: 58.847885731694156 kcal/mol)

>  <smiles>  (43) 
Cc1sc2ncnc(OCCC(C)C)c2c1C

>  <score_type>  (43) 
oracle

>  <origin>  (43) 
adg

>  <m_score__min__energy>  (43) 
-5.0700000000000003

>  <m_primary>  (43) 
energy

$$$$
43:0
     RDKit          3D

 39 40  0  0  0  0  0  0  0  0999 V2000
   60.1160   33.8660   49.8330 C   0  0  0  0  0  0  0  0  0  0  0  0
   61.6190   33.8950   49.5340 C   0  0  0  0  0  0  0  0  0  0  0  0
   61.9950   33.0750   48.3530 N   0  0  0  0  0  0  0  0  0  0  0  0
   63.3610   33.3730   47.8380 C   0  0  0  0  0  0  0  0  0  0  0  0
   63.4000   33.8440   46.3770 C   0  0  0  0  0  0  0  0  0  0  0  0
   61.8390   31.6220   48.6420 C   0  0  0  0  0  0  0  0  0  0  0  0
   60.9580   30.8990   47.6130 C   0  0  0  0  0  0  0  0  0  0  0  0
   60.7630   31.7320   46.4730 O   0  0  0  0  0  0  0  0  0  0  0  0
   59.5320   32.2870   46.0850 C   0  0  0  0  0  0  0  0  0  0  0  0
   59.2380   33.6510   46.2850 C   0  0  0  0  0  0  0  0  0  0  0  0
   58.0050   34.1770   45.8910 C   0  0  0  0  0  0  0  0  0  0  0  0
   57.0470   33.3570   45.2930 C   0  0  0  0  0  0  0  0  0  0  0  0
   57.3180   32.0010   45.0860 C   0  0  0  0  0  0  0  0  0  0  0  0
   56.3810   31.2050   44.5030 N   0  0  0  0  0  0  0  0  0  0  0  0
   56.6030   29.8830   44.2800 C   0  0  0  0  0  0  0  0  0  0  0  0
   57.8180   29.3040   44.6530 C   0  0  0  0  0  0  0  0  0  0  0  0
   58.8000   30.0930   45.2550 C   0  0  0  0  0  0  0  0  0  0  0  0
   58.5640   31.4590   45.4810 C   0  0  0  0  0  0  0  0  0  0  0  0
   59.9587   33.8630   50.9217 H   0  0  0  0  0  0  0  0  0  0  0  0
   59.6380   34.7551   49.3959 H   0  0  0  0  0  0  0  0  0  0  0  0
   59.6726   32.9591   49.3959 H   0  0  0  0  0  0  0  0  0  0  0  0
   61.9185   34.9367   49.3464 H   0  0  0  0  0  0  0  0  0  0  0  0
   62.1351   33.4685   50.4068 H   0  0  0  0  0  0  0  0  0  0  0  0
   61.3390   33.3260   47.5760 H   0  0  0  0  0  0  0  0  0  0  0  0
   63.8006   34.1622   48.4656 H   0  0  0  0  0  0  0  0  0  0  0  0
   63.9243   32.4290   47.8784 H   0  0  0  0  0  0  0  0  0  0  0  0
   63.4907   34.9399   46.3473 H   0  0  0  0  0  0  0  0  0  0  0  0
   64.2637   33.3907   45.8685 H   0  0  0  0  0  0  0  0  0  0  0  0
   62.4735   33.5389   45.8685 H   0  0  0  0  0  0  0  0  0  0  0  0
   62.8350   31.1551   48.6410 H   0  0  0  0  0  0  0  0  0  0  0  0
   61.3452   31.5314   49.6208 H   0  0  0  0  0  0  0  0  0  0  0  0
   61.4501   29.9653   47.3030 H   0  0  0  0  0  0  0  0  0  0  0  0
   59.9823   30.6711   48.0670 H   0  0  0  0  0  0  0  0  0  0  0  0
   59.9855   34.3068   46.7552 H   0  0  0  0  0  0  0  0  0  0  0  0
   57.7882   35.2432   46.0530 H   0  0  0  0  0  0  0  0  0  0  0  0
   56.0785   33.7776   44.9845 H   0  0  0  0  0  0  0  0  0  0  0  0
   55.8245   29.2679   43.8050 H   0  0  0  0  0  0  0  0  0  0  0  0
   57.9999   28.2341   44.4738 H   0  0  0  0  0  0  0  0  0  0  0  0
   59.7593   29.6445   45.5526 H   0  0  0  0  0  0  0  0  0  0  0  0
  1  2  1  0
  2  3  1  0
  3  4  1  0
  4  5  1  0
  3  6  1  0
  6  7  1  0
  7  8  1  0
  8  9  1  0
  9 10  2  0
 10 11  1  0
 11 12  2  0
 12 13  1  0
 13 14  2  0
 14 15  1  0
 15 16  2  0
 16 17  1  0
 17 18  2  0
 18  9  1  0
 18 13  1  0
  1 19  1  0
  1 20  1  0
  1 21  1  0
  2 22  1  0
  2 23  1  0
  3 24  1  0
  4 25  1  0
  4 26  1  0
  5 27  1  0
  5 28  1  0
  5 29  1  0
  6 30  1  0
  6 31  1  0
  7 32  1  0
  7 33  1  0
 10 34  1  0
 11 35  1  0
 12 36  1  0
 15 37  1  0
 16 38  1  0
 17 39  1  0
M  CHG  1   3   1
M  END
>  <UniqueID>  (44) 
42

>  <SMILES>  (44) 
CC[NH+](CC)CCOc1cccc2ncccc12

>  <Energy>  (44) 
43.98132505132217

>  <Genealogy>  (44) 
CC[NH+](CC)CCOc1cccc2ncccc12 (protonated)
CC[NH+](CC)CCOc1cccc2ncccc12 (3D coordinates assigned)
CC[NH+](CC)CCOc1cccc2ncccc12 (optimized conformer: 43.98132505132217 kcal/mol)

>  <smiles>  (44) 
CCN(CC)CCOc1cccc2ncccc12

>  <score_type>  (44) 
oracle

>  <origin>  (44) 
adg

>  <m_score__min__energy>  (44) 
-4.21

>  <m_primary>  (44) 
energy

$$$$
44:0
     RDKit          3D

 51 54  0  0  0  0  0  0  0  0999 V2000
   59.0250   32.7480   50.6590 C   0  0  0  0  0  0  0  0  0  0  0  0
   59.5810   34.0500   50.0930 C   0  0  0  0  0  0  0  0  0  0  0  0
   60.5240   33.7810   49.0050 N   0  0  0  0  0  0  0  0  0  0  0  0
   60.2750   33.7400   47.6690 C   0  0  0  0  0  0  0  0  0  0  0  0
   58.9840   33.9730   47.0940 N   0  0  0  0  0  0  0  0  0  0  0  0
   58.8440   34.9930   46.0440 C   0  0  0  0  0  0  0  0  0  0  0  0
   58.0030   34.5130   44.8340 C   0  0  0  0  0  0  0  0  0  0  0  0
   58.1930   33.0320   44.4370 C   0  0  0  0  0  0  0  0  0  0  0  0
   57.3840   32.0670   45.2210 N   0  0  0  0  0  0  0  0  0  0  0  0
   57.1230   30.5760   44.3430 S   0  0  0  0  0  0  0  0  0  0  0  0
   55.6790   30.1690   44.4510 O   0  0  0  0  0  0  0  0  0  0  0  0
   57.4290   30.7970   42.8870 O   0  0  0  0  0  0  0  0  0  0  0  0
   58.1350   29.2690   44.9580 C   0  0  0  0  0  0  0  0  0  0  0  0
   57.5600   28.2140   45.6820 C   0  0  0  0  0  0  0  0  0  0  0  0
   58.3650   27.1890   46.1870 C   0  0  0  0  0  0  0  0  0  0  0  0
   59.7460   27.2100   45.9700 C   0  0  0  0  0  0  0  0  0  0  0  0
   60.3230   28.2590   45.2470 C   0  0  0  0  0  0  0  0  0  0  0  0
   59.5220   29.2860   44.7410 C   0  0  0  0  0  0  0  0  0  0  0  0
   57.8740   31.7840   46.5830 C   0  0  0  0  0  0  0  0  0  0  0  0
   57.9010   33.0490   47.4520 C   0  0  0  0  0  0  0  0  0  0  0  0
   61.3760   33.5050   46.9100 N   0  0  0  0  0  0  0  0  0  0  0  0
   62.3490   33.3830   47.8330 C   0  0  0  0  0  0  0  0  0  0  0  0
   63.7010   33.1390   47.6100 C   0  0  0  0  0  0  0  0  0  0  0  0
   64.5480   33.0670   48.7320 C   0  0  0  0  0  0  0  0  0  0  0  0
   64.0280   33.2430   50.0340 C   0  0  0  0  0  0  0  0  0  0  0  0
   62.6570   33.4920   50.2260 C   0  0  0  0  0  0  0  0  0  0  0  0
   61.8440   33.5490   49.0920 C   0  0  0  0  0  0  0  0  0  0  0  0
   59.0425   32.7890   51.7581 H   0  0  0  0  0  0  0  0  0  0  0  0
   57.9897   32.6106   50.3136 H   0  0  0  0  0  0  0  0  0  0  0  0
   59.6417   31.9051   50.3136 H   0  0  0  0  0  0  0  0  0  0  0  0
   58.7505   34.6602   49.7084 H   0  0  0  0  0  0  0  0  0  0  0  0
   60.1098   34.5866   50.8945 H   0  0  0  0  0  0  0  0  0  0  0  0
   58.3568   35.8780   46.4792 H   0  0  0  0  0  0  0  0  0  0  0  0
   59.8539   35.2185   45.6709 H   0  0  0  0  0  0  0  0  0  0  0  0
   56.9412   34.6649   45.0778 H   0  0  0  0  0  0  0  0  0  0  0  0
   58.3492   35.1032   43.9727 H   0  0  0  0  0  0  0  0  0  0  0  0
   57.9203   32.9247   43.3768 H   0  0  0  0  0  0  0  0  0  0  0  0
   59.2463   32.7901   44.6420 H   0  0  0  0  0  0  0  0  0  0  0  0
   56.4735   28.1933   45.8526 H   0  0  0  0  0  0  0  0  0  0  0  0
   57.9112   26.3643   46.7562 H   0  0  0  0  0  0  0  0  0  0  0  0
   60.3781   26.4023   46.3675 H   0  0  0  0  0  0  0  0  0  0  0  0
   61.4096   28.2756   45.0764 H   0  0  0  0  0  0  0  0  0  0  0  0
   59.9788   30.1090   44.1718 H   0  0  0  0  0  0  0  0  0  0  0  0
   57.2111   31.0428   47.0533 H   0  0  0  0  0  0  0  0  0  0  0  0
   58.9020   31.4005   46.5043 H   0  0  0  0  0  0  0  0  0  0  0  0
   56.9411   33.5735   47.3359 H   0  0  0  0  0  0  0  0  0  0  0  0
   58.0739   32.7290   48.4901 H   0  0  0  0  0  0  0  0  0  0  0  0
   64.0944   33.0069   46.5913 H   0  0  0  0  0  0  0  0  0  0  0  0
   65.6219   32.8724   48.5943 H   0  0  0  0  0  0  0  0  0  0  0  0
   64.6998   33.1849   50.9031 H   0  0  0  0  0  0  0  0  0  0  0  0
   62.2400   33.6367   51.2336 H   0  0  0  0  0  0  0  0  0  0  0  0
  1  2  1  0
  2  3  1  0
  3  4  1  0
  4  5  1  0
  5  6  1  0
  6  7  1  0
  7  8  1  0
  8  9  1  0
  9 10  1  0
 10 11  2  0
 10 12  2  0
 10 13  1  0
 13 14  2  0
 14 15  1  0
 15 16  2  0
 16 17  1  0
 17 18  2  0
  9 19  1  0
 19 20  1  0
  4 21  2  0
 21 22  1  0
 22 23  2  0
 23 24  1  0
 24 25  2  0
 25 26  1  0
 26 27  2  0
 27  3  1  0
 20  5  1  0
 27 22  1  0
 18 13  1  0
  1 28  1  0
  1 29  1  0
  1 30  1  0
  2 31  1  0
  2 32  1  0
  6 33  1  0
  6 34  1  0
  7 35  1  0
  7 36  1  0
  8 37  1  0
  8 38  1  0
 14 39  1  0
 15 40  1  0
 16 41  1  0
 17 42  1  0
 18 43  1  0
 19 44  1  0
 19 45  1  0
 20 46  1  0
 20 47  1  0
 23 48  1  0
 24 49  1  0
 25 50  1  0
 26 51  1  0
M  END
>  <UniqueID>  (45) 
43

>  <SMILES>  (45) 
CCn1c(N2CCCN(S(=O)(=O)c3ccccc3)CC2)nc2ccccc21

>  <Energy>  (45) 
103.71290169549647

>  <Genealogy>  (45) 
CCn1c(N2CCCN(S(=O)(=O)c3ccccc3)CC2)nc2ccccc21 (3D coordinates assigned)
CCn1c(N2CCCN(S(=O)(=O)c3ccccc3)CC2)nc2ccccc21 (nonaromatic ring conformer: 103.71290169549647 kcal/mol)

>  <smiles>  (45) 
CCn1c(N2CCCN(S(=O)(=O)c3ccccc3)CC2)nc2ccccc21

>  <score_type>  (45) 
oracle

>  <origin>  (45) 
adg

>  <m_score__min__energy>  (45) 
-7.4000000000000004

>  <m_primary>  (45) 
energy

$$$$
45:0
     RDKit          3D

 46 48  0  0  0  0  0  0  0  0999 V2000
   58.7990   33.8360   53.5020 C   0  0  0  0  0  0  0  0  0  0  0  0
   58.1100   33.0970   52.4980 O   0  0  0  0  0  0  0  0  0  0  0  0
   58.6680   32.7120   51.2680 C   0  0  0  0  0  0  0  0  0  0  0  0
   59.7170   33.4320   50.6670 C   0  0  0  0  0  0  0  0  0  0  0  0
   60.2540   33.0210   49.4400 C   0  0  0  0  0  0  0  0  0  0  0  0
   59.7430   31.8760   48.7990 C   0  0  0  0  0  0  0  0  0  0  0  0
   58.6920   31.1650   49.3970 C   0  0  0  0  0  0  0  0  0  0  0  0
   58.1530   31.5760   50.6310 C   0  0  0  0  0  0  0  0  0  0  0  0
   57.1030   30.8810   51.2520 O   0  0  0  0  0  0  0  0  0  0  0  0
   57.1870   30.2680   52.5350 C   0  0  0  0  0  0  0  0  0  0  0  0
   60.2780   31.4190   47.4500 C   0  0  1  0  0  0  0  0  0  0  0  0
   59.2910   31.6810   46.3070 C   0  0  0  0  0  0  0  0  0  0  0  0
   58.8990   30.6070   45.4660 C   0  0  0  0  0  0  0  0  0  0  0  0
   59.4230   29.3230   45.7010 O   0  0  0  0  0  0  0  0  0  0  0  0
   60.4120   28.6870   44.8970 C   0  0  0  0  0  0  0  0  0  0  0  0
   58.0000   30.8390   44.4100 C   0  0  0  0  0  0  0  0  0  0  0  0
   57.5040   32.1160   44.1710 C   0  0  0  0  0  0  0  0  0  0  0  0
   57.8990   33.1820   44.9720 C   0  0  0  0  0  0  0  0  0  0  0  0
   58.7970   32.9850   46.0370 C   0  0  0  0  0  0  0  0  0  0  0  0
   59.2110   34.0610   46.8380 O   0  0  0  0  0  0  0  0  0  0  0  0
   59.6310   35.3300   46.3490 C   0  0  0  0  0  0  0  0  0  0  0  0
   61.6890   31.9610   47.1240 C   0  0  0  0  0  0  0  0  0  0  0  0
   61.8990   33.3630   47.6050 C   0  0  0  0  0  0  0  0  0  0  0  0
   62.6730   34.1350   46.9800 O   0  0  0  0  0  0  0  0  0  0  0  0
   61.2890   33.7970   48.8210 N   0  0  0  0  0  0  0  0  0  0  0  0
   58.4779   33.4916   54.4961 H   0  0  0  0  0  0  0  0  0  0  0  0
   59.8825   33.6811   53.3926 H   0  0  0  0  0  0  0  0  0  0  0  0
   58.5687   34.9060   53.3926 H   0  0  0  0  0  0  0  0  0  0  0  0
   60.1193   34.3263   51.1654 H   0  0  0  0  0  0  0  0  0  0  0  0
   58.2838   30.2751   48.8955 H   0  0  0  0  0  0  0  0  0  0  0  0
   57.0818   31.0357   53.3158 H   0  0  0  0  0  0  0  0  0  0  0  0
   56.3822   29.5255   52.6400 H   0  0  0  0  0  0  0  0  0  0  0  0
   58.1619   29.7694   52.6400 H   0  0  0  0  0  0  0  0  0  0  0  0
   60.3882   30.3285   47.5428 H   0  0  0  0  0  0  0  0  0  0  0  0
   61.1589   28.2067   45.5461 H   0  0  0  0  0  0  0  0  0  0  0  0
   59.9346   27.9262   44.2620 H   0  0  0  0  0  0  0  0  0  0  0  0
   60.9062   29.4370   44.2620 H   0  0  0  0  0  0  0  0  0  0  0  0
   57.6863   30.0031   43.7674 H   0  0  0  0  0  0  0  0  0  0  0  0
   56.7967   32.2835   43.3454 H   0  0  0  0  0  0  0  0  0  0  0  0
   57.5054   34.1893   44.7709 H   0  0  0  0  0  0  0  0  0  0  0  0
   59.8511   35.9952   47.1970 H   0  0  0  0  0  0  0  0  0  0  0  0
   60.5359   35.2056   45.7360 H   0  0  0  0  0  0  0  0  0  0  0  0
   58.8306   35.7700   45.7360 H   0  0  0  0  0  0  0  0  0  0  0  0
   62.4347   31.3098   47.6035 H   0  0  0  0  0  0  0  0  0  0  0  0
   61.7957   31.9677   46.0292 H   0  0  0  0  0  0  0  0  0  0  0  0
   61.5720   34.7160   49.2320 H   0  0  0  0  0  0  0  0  0  0  0  0
  1  2  1  0
  2  3  1  0
  3  4  2  0
  4  5  1  0
  5  6  2  0
  6  7  1  0
  7  8  2  0
  8  9  1  0
  9 10  1  0
  6 11  1  0
 11 12  1  0
 12 13  2  0
 13 14  1  0
 14 15  1  0
 13 16  1  0
 16 17  2  0
 17 18  1  0
 18 19  2  0
 19 20  1  0
 20 21  1  0
 11 22  1  0
 22 23  1  0
 23 24  2  0
 23 25  1  0
  8  3  1  0
 19 12  1  0
 25  5  1  0
  1 26  1  0
  1 27  1  0
  1 28  1  0
  4 29  1  0
  7 30  1  0
 10 31  1  0
 10 32  1  0
 10 33  1  0
 11 34  1  1
 15 35  1  0
 15 36  1  0
 15 37  1  0
 16 38  1  0
 17 39  1  0
 18 40  1  0
 21 41  1  0
 21 42  1  0
 21 43  1  0
 22 44  1  0
 22 45  1  0
 25 46  1  0
M  END
>  <UniqueID>  (46) 
44

>  <SMILES>  (46) 
COc1cc2c(cc1OC)[C@@H](c1c(OC)cccc1OC)CC(=O)N2

>  <Energy>  (46) 
50.62001582667401

>  <Genealogy>  (46) 
COc1cc2c(cc1OC)[C@@H](c1c(OC)cccc1OC)CC(=O)N2 (chirality)
COc1cc2c(cc1OC)[C@@H](c1c(OC)cccc1OC)CC(=O)N2 (3D coordinates assigned)
COc1cc2c(cc1OC)[C@@H](c1c(OC)cccc1OC)CC(=O)N2 (nonaromatic ring conformer: 50.62001582667401 kcal/mol)

>  <smiles>  (46) 
COc1cc2c(cc1OC)C(c1c(OC)cccc1OC)CC(=O)N2

>  <score_type>  (46) 
oracle

>  <origin>  (46) 
adg

>  <m_score__min__energy>  (46) 
-5.5899999999999999

>  <m_primary>  (46) 
energy

$$$$
46:0
     RDKit          3D

 36 37  0  0  0  0  0  0  0  0999 V2000
   59.0332   34.9265   44.8508 H   0  0  0  0  0  0  0  0  0  0  0  0
   58.7750   33.9180   45.2060 C   0  0  0  0  0  0  0  0  0  0  0  0
   57.7040   33.2300   44.6280 C   0  0  0  0  0  0  0  0  0  0  0  0
   57.1114   33.7075   43.8337 H   0  0  0  0  0  0  0  0  0  0  0  0
   57.3800   31.9280   45.0580 C   0  0  0  0  0  0  0  0  0  0  0  0
   56.3150   31.1920   44.5160 O   0  0  0  0  0  0  0  0  0  0  0  0
   56.4080   29.8660   44.0010 C   0  0  0  0  0  0  0  0  0  0  0  0
   55.5870   29.0380   44.7420 F   0  0  0  0  0  0  0  0  0  0  0  0
   57.7090   29.4070   44.0970 F   0  0  0  0  0  0  0  0  0  0  0  0
   55.9940   29.8370   42.6800 F   0  0  0  0  0  0  0  0  0  0  0  0
   58.1510   31.3320   46.0640 C   0  0  0  0  0  0  0  0  0  0  0  0
   57.9117   30.3134   46.4035 H   0  0  0  0  0  0  0  0  0  0  0  0
   59.2220   32.0210   46.6400 C   0  0  0  0  0  0  0  0  0  0  0  0
   59.8334   31.5349   47.4145 H   0  0  0  0  0  0  0  0  0  0  0  0
   59.5200   33.3300   46.2340 C   0  0  0  0  0  0  0  0  0  0  0  0
   60.6550   34.0260   46.7690 N   0  0  0  0  0  0  0  0  0  0  0  0
   61.2040   33.9020   47.9480 C   0  0  0  0  0  0  0  0  0  0  0  0
   60.3840   33.9010   49.0280 N   0  0  0  0  0  0  0  0  0  0  0  0
   60.8700   33.7840   50.2840 C   0  0  0  0  0  0  0  0  0  0  0  0
   59.7440   33.7920   51.6780 S   0  0  0  0  0  0  0  0  0  0  0  0
   58.6540   32.5290   50.9490 C   0  0  0  0  0  0  0  0  0  0  0  0
   58.1632   31.9603   51.7525 H   0  0  0  0  0  0  0  0  0  0  0  0
   57.8902   33.0186   50.3270 H   0  0  0  0  0  0  0  0  0  0  0  0
   59.2501   31.8450   50.3270 H   0  0  0  0  0  0  0  0  0  0  0  0
   62.2070   33.6580   50.4800 N   0  0  0  0  0  0  0  0  0  0  0  0
   62.5630   33.5640   51.4600 H   0  0  0  0  0  0  0  0  0  0  0  0
   63.0610   33.6440   49.4500 N   0  0  0  0  0  0  0  0  0  0  0  0
   64.4950   33.4620   49.7200 C   0  0  0  0  0  0  0  0  0  0  0  0
   64.7516   33.9599   50.6667 H   0  0  0  0  0  0  0  0  0  0  0  0
   65.0724   33.9015   48.8933 H   0  0  0  0  0  0  0  0  0  0  0  0
   64.8320   31.9780   49.8250 C   0  0  0  0  0  0  0  0  0  0  0  0
   64.8972   31.6909   50.8849 H   0  0  0  0  0  0  0  0  0  0  0  0
   64.0451   31.3876   49.3329 H   0  0  0  0  0  0  0  0  0  0  0  0
   65.7968   31.7854   49.3329 H   0  0  0  0  0  0  0  0  0  0  0  0
   62.5930   33.7320   48.1630 C   0  0  0  0  0  0  0  0  0  0  0  0
   63.3950   33.6220   47.1950 O   0  0  0  0  0  0  0  0  0  0  0  0
  1  2  1  0
  2  3  2  0
  3  4  1  0
  3  5  1  0
  5  6  1  0
  6  7  1  0
  7  8  1  0
  7  9  1  0
  7 10  1  0
  5 11  2  0
 11 12  1  0
 11 13  1  0
 13 14  1  0
 13 15  2  0
 15 16  1  0
 16 17  2  0
 17 18  1  0
 18 19  2  0
 19 20  1  0
 20 21  1  0
 21 22  1  0
 21 23  1  0
 21 24  1  0
 19 25  1  0
 25 26  1  0
 25 27  1  0
 27 28  1  0
 28 29  1  0
 28 30  1  0
 28 31  1  0
 31 32  1  0
 31 33  1  0
 31 34  1  0
 27 35  1  0
 35 36  2  0
 15  2  1  0
 35 17  1  0
M  END
>  <UniqueID>  (47) 
45

>  <SMILES>  (47) 
CCn1[nH]c(SC)n/c(=N/c2ccc(OC(F)(F)F)cc2)c1=O

>  <Energy>  (47) 
44.68718875348566

>  <Genealogy>  (47) 
CCn1[nH]c(SC)n/c(=N/c2ccc(OC(F)(F)F)cc2)c1=O (cis-trans isomerization)
CCn1[nH]c(SC)n/c(=N/c2ccc(OC(F)(F)F)cc2)c1=O (3D coordinates assigned)
CCn1[nH]c(SC)n/c(=N/c2ccc(OC(F)(F)F)cc2)c1=O (optimized conformer: 44.68718875348566 kcal/mol)

>  <smiles>  (47) 
CCn1[nH]c(SC)nc(=Nc2ccc(OC(F)(F)F)cc2)c1=O

>  <score_type>  (47) 
oracle

>  <origin>  (47) 
adg

>  <m_score__min__energy>  (47) 
-5.9500000000000002

>  <m_primary>  (47) 
energy

$$$$
