0:0
     RDKit          3D

 36 37  0  0  0  0  0  0  0  0999 V2000
   59.4130   30.8960   46.6820 C   0  0  0  0  0  0  0  0  0  0  0  0
   58.5290   30.4150   45.5850 C   0  0  0  0  0  0  0  0  0  0  0  0
   57.3980   31.2050   45.2780 N   0  0  0  0  0  0  0  0  0  0  0  0
   56.6620   30.8770   44.1190 C   0  0  0  0  0  0  0  0  0  0  0  0
   57.3880   32.5380   45.7170 C   0  0  0  0  0  0  0  0  0  0  0  0
   57.7000   33.6050   44.7330 C   0  0  0  0  0  0  0  0  0  0  0  0
   58.9980   33.9500   44.5570 O   0  0  0  0  0  0  0  0  0  0  0  0
   59.5340   34.9230   45.3380 C   0  0  0  0  0  0  0  0  0  0  0  0
   59.9630   34.5010   46.6560 N   0  0  0  0  0  0  0  0  0  0  0  0
   59.2870   34.4700   47.8170 C   0  0  0  0  0  0  0  0  0  0  0  0
   60.0790   33.9920   48.8310 C   0  0  0  0  0  0  0  0  0  0  0  0
   59.6500   33.8340   50.2100 C   0  0  0  0  0  0  0  0  0  0  0  0
   59.2930   33.7180   51.3130 N   0  0  0  0  0  0  0  0  0  0  0  0
   61.2910   33.7160   48.2800 C   0  0  0  0  0  0  0  0  0  0  0  0
   62.4480   33.2170   48.8420 C   0  0  0  0  0  0  0  0  0  0  0  0
   62.4790   32.8360   50.5580 Cl  0  0  0  0  0  0  0  0  0  0  0  0
   63.5180   33.0390   48.0490 N   0  0  0  0  0  0  0  0  0  0  0  0
   63.4440   33.3480   46.7300 C   0  0  0  0  0  0  0  0  0  0  0  0
   62.3210   33.8330   46.1810 N   0  0  0  0  0  0  0  0  0  0  0  0
   61.2110   34.0360   46.9190 C   0  0  0  0  0  0  0  0  0  0  0  0
   58.9594   30.6492   47.6533 H   0  0  0  0  0  0  0  0  0  0  0  0
   60.3956   30.4082   46.6016 H   0  0  0  0  0  0  0  0  0  0  0  0
   59.5371   31.9860   46.6016 H   0  0  0  0  0  0  0  0  0  0  0  0
   59.1406   30.3432   44.6736 H   0  0  0  0  0  0  0  0  0  0  0  0
   58.1201   29.4598   45.9463 H   0  0  0  0  0  0  0  0  0  0  0  0
   55.6930   30.4452   44.4100 H   0  0  0  0  0  0  0  0  0  0  0  0
   56.4941   31.7855   43.5219 H   0  0  0  0  0  0  0  0  0  0  0  0
   57.2253   30.1447   43.5219 H   0  0  0  0  0  0  0  0  0  0  0  0
   56.3822   32.7433   46.1122 H   0  0  0  0  0  0  0  0  0  0  0  0
   58.2112   32.5905   46.4448 H   0  0  0  0  0  0  0  0  0  0  0  0
   57.3151   33.2727   43.7576 H   0  0  0  0  0  0  0  0  0  0  0  0
   57.2306   34.5081   45.1502 H   0  0  0  0  0  0  0  0  0  0  0  0
   60.4084   35.3352   44.8131 H   0  0  0  0  0  0  0  0  0  0  0  0
   58.7293   35.6546   45.5029 H   0  0  0  0  0  0  0  0  0  0  0  0
   58.2401   34.7852   47.9383 H   0  0  0  0  0  0  0  0  0  0  0  0
   64.3287   33.1966   46.0941 H   0  0  0  0  0  0  0  0  0  0  0  0
  1  2  1  0
  2  3  1  0
  3  4  1  0
  3  5  1  0
  5  6  1  0
  6  7  1  0
  7  8  1  0
  8  9  1  0
  9 10  1  0
 10 11  2  0
 11 12  1  0
 12 13  3  0
 11 14  1  0
 14 15  2  0
 15 16  1  0
 15 17  1  0
 17 18  2  0
 18 19  1  0
 19 20  2  0
 20  9  1  0
 20 14  1  0
  1 21  1  0
  1 22  1  0
  1 23  1  0
  2 24  1  0
  2 25  1  0
  4 26  1  0
  4 27  1  0
  4 28  1  0
  5 29  1  0
  5 30  1  0
  6 31  1  0
  6 32  1  0
  8 33  1  0
  8 34  1  0
 10 35  1  0
 18 36  1  0
M  END
>  <smiles>  (1) 
CCN(C)CCOCn1cc(C#N)c2c(Cl)ncnc21

>  <score_type>  (1) 
oracle

>  <origin>  (1) 
adg

>  <m_score__min__energy>  (1) 
-5.7599999999999998

>  <m_primary>  (1) 
energy

$$$$
1:0
     RDKit          3D

 43 45  0  0  1  0  0  0  0  0999 V2000
   56.2150   30.1420   43.1650 C   0  0  0  0  0  0  0  0  0  0  0  0
   56.2480   30.5670   44.4950 O   0  0  0  0  0  0  0  0  0  0  0  0
   57.0380   29.7170   45.2640 C   0  0  0  0  0  0  0  0  0  0  0  0
   58.4360   30.2690   45.3390 C   0  0  1  0  0  0  0  0  0  0  0  0
   58.5970   31.6530   44.8190 C   0  0  0  0  0  0  0  0  0  0  0  0
   58.1450   32.6710   45.7550 N   0  0  0  0  0  0  0  0  0  0  0  0
   58.0470   34.0230   45.3220 C   0  0  0  0  0  0  0  0  0  0  0  0
   56.9900   34.4850   44.7940 O   0  0  0  0  0  0  0  0  0  0  0  0
   59.2000   34.9480   45.4800 C   0  0  0  0  0  0  0  0  0  0  0  0
   60.1060   34.4750   46.5480 C   0  0  0  0  0  0  0  0  0  0  0  0
   59.7720   34.6680   47.8760 C   0  0  0  0  0  0  0  0  0  0  0  0
   60.6230   34.2230   48.8610 C   0  0  0  0  0  0  0  0  0  0  0  0
   61.8130   33.5830   48.5480 C   0  0  0  0  0  0  0  0  0  0  0  0
   62.1660   33.3790   47.2190 C   0  0  0  0  0  0  0  0  0  0  0  0
   63.3290   32.7520   46.8860 F   0  0  0  0  0  0  0  0  0  0  0  0
   61.2830   33.8420   46.2530 C   0  0  0  0  0  0  0  0  0  0  0  0
   57.7850   32.3580   47.1290 C   0  0  0  0  0  0  0  0  0  0  0  0
   58.6630   31.2410   47.5680 C   0  0  0  0  0  0  0  0  0  0  0  0
   59.2880   30.9740   48.7710 C   0  0  0  0  0  0  0  0  0  0  0  0
   59.9650   29.8280   48.6310 N   0  0  0  0  0  0  0  0  0  0  0  0
   60.7620   29.1800   49.6490 C   0  0  0  0  0  0  0  0  0  0  0  0
   59.7870   29.3790   47.4080 N   0  0  0  0  0  0  0  0  0  0  0  0
   58.9980   30.1990   46.7030 C   0  0  0  0  0  0  0  0  0  0  0  0
   56.1299   29.0458   43.1324 H   0  0  0  0  0  0  0  0  0  0  0  0
   55.3491   30.5923   42.6576 H   0  0  0  0  0  0  0  0  0  0  0  0
   57.1400   30.4532   42.6576 H   0  0  0  0  0  0  0  0  0  0  0  0
   56.6178   29.6419   46.2778 H   0  0  0  0  0  0  0  0  0  0  0  0
   57.0606   28.7182   44.8036 H   0  0  0  0  0  0  0  0  0  0  0  0
   59.0007   29.6065   44.6666 H   0  0  0  0  0  0  0  0  0  0  0  0
   59.6620   31.8241   44.6031 H   0  0  0  0  0  0  0  0  0  0  0  0
   57.9746   31.7384   43.9160 H   0  0  0  0  0  0  0  0  0  0  0  0
   59.7550   34.9987   44.5316 H   0  0  0  0  0  0  0  0  0  0  0  0
   58.8202   35.9435   45.7532 H   0  0  0  0  0  0  0  0  0  0  0  0
   58.8324   35.1738   48.1429 H   0  0  0  0  0  0  0  0  0  0  0  0
   60.3547   34.3776   49.9165 H   0  0  0  0  0  0  0  0  0  0  0  0
   62.4784   33.2364   49.3525 H   0  0  0  0  0  0  0  0  0  0  0  0
   61.5430   33.6922   45.1947 H   0  0  0  0  0  0  0  0  0  0  0  0
   57.9442   33.2374   47.7704 H   0  0  0  0  0  0  0  0  0  0  0  0
   56.7248   32.0737   47.2007 H   0  0  0  0  0  0  0  0  0  0  0  0
   59.2381   31.5918   49.6798 H   0  0  0  0  0  0  0  0  0  0  0  0
   60.3976   29.4762   50.6437 H   0  0  0  0  0  0  0  0  0  0  0  0
   60.6807   28.0886   49.5388 H   0  0  0  0  0  0  0  0  0  0  0  0
   61.8139   29.4823   49.5388 H   0  0  0  0  0  0  0  0  0  0  0  0
  1  2  1  0
  2  3  1  0
  3  4  1  0
  4  5  1  0
  5  6  1  0
  6  7  1  0
  7  8  2  0
  7  9  1  0
  9 10  1  0
 10 11  2  0
 11 12  1  0
 12 13  2  0
 13 14  1  0
 14 15  1  0
 14 16  2  0
  6 17  1  0
 17 18  1  0
 18 19  2  0
 19 20  1  0
 20 21  1  0
 20 22  1  0
 22 23  2  0
 23  4  1  0
 16 10  1  0
 23 18  1  0
  1 24  1  0
  1 25  1  0
  1 26  1  0
  3 27  1  0
  3 28  1  0
  4 29  1  6
  5 30  1  0
  5 31  1  0
  9 32  1  0
  9 33  1  0
 11 34  1  0
 12 35  1  0
 13 36  1  0
 16 37  1  0
 17 38  1  0
 17 39  1  0
 19 40  1  0
 21 41  1  0
 21 42  1  0
 21 43  1  0
M  END
>  <smiles>  (2) 
COCC1CN(C(=O)Cc2cccc(F)c2)Cc2cn(C)nc21

>  <score_type>  (2) 
oracle

>  <origin>  (2) 
adg

>  <m_score__min__energy>  (2) 
-7.3399999999999999

>  <m_primary>  (2) 
energy

$$$$
2:0
     RDKit          3D

 75 78  0  0  0  0  0  0  0  0999 V2000
   63.2890   34.2010   50.6620 C   0  0  0  0  0  0  0  0  0  0  0  0
   63.1680   34.1770   49.1440 C   0  0  0  0  0  0  0  0  0  0  0  0
   63.4810   32.8970   48.6690 N   0  0  0  0  0  0  0  0  0  0  0  0
   63.4560   32.6340   47.2920 C   0  0  0  0  0  0  0  0  0  0  0  0
   63.2340   33.8240   46.4140 C   0  0  0  0  0  0  0  0  0  0  0  0
   64.1170   31.9670   49.5340 C   0  0  0  0  0  0  0  0  0  0  0  0
   63.1200   30.9960   50.0740 C   0  0  0  0  0  0  0  0  0  0  0  0
   61.7950   31.4660   50.1110 O   0  0  0  0  0  0  0  0  0  0  0  0
   60.9380   30.3600   50.1650 C   0  0  0  0  0  0  0  0  0  0  0  0
   60.2960   29.9970   48.8920 C   0  0  0  0  0  0  0  0  0  0  0  0
   60.8440   30.6850   47.7150 N   0  0  0  0  0  0  0  0  0  0  0  0
   59.8910   30.9560   46.6960 C   0  0  0  0  0  0  0  0  0  0  0  0
   59.5240   29.8250   45.9530 C   0  0  0  0  0  0  0  0  0  0  0  0
   60.0350   28.5600   46.2920 C   0  0  0  0  0  0  0  0  0  0  0  0
   59.7240   27.4260   45.6090 C   0  0  0  0  0  0  0  0  0  0  0  0
   58.8700   27.4990   44.5370 C   0  0  0  0  0  0  0  0  0  0  0  0
   58.3540   28.7420   44.1870 C   0  0  0  0  0  0  0  0  0  0  0  0
   58.6760   29.8910   44.8830 C   0  0  0  0  0  0  0  0  0  0  0  0
   58.1670   31.1080   44.5280 N   0  0  0  0  0  0  0  0  0  0  0  0
   57.2610   31.0880   43.4050 C   0  0  0  0  0  0  0  0  0  0  0  0
   58.5030   32.2090   45.2230 C   0  0  0  0  0  0  0  0  0  0  0  0
   57.9770   33.4020   44.7980 C   0  0  0  0  0  0  0  0  0  0  0  0
   58.3220   34.5420   45.4860 C   0  0  0  0  0  0  0  0  0  0  0  0
   59.1710   34.4810   46.5710 C   0  0  0  0  0  0  0  0  0  0  0  0
   59.7220   33.2700   47.0280 C   0  0  0  0  0  0  0  0  0  0  0  0
   60.4810   33.3110   48.2130 N   0  0  0  0  0  0  0  0  0  0  0  0
   59.9510   34.1780   49.2850 C   0  0  0  0  0  0  0  0  0  0  0  0
   59.2740   33.4520   50.3760 C   0  0  0  0  0  0  0  0  0  0  0  0
   59.3630   33.8090   51.7190 C   0  0  0  0  0  0  0  0  0  0  0  0
   58.6190   33.0570   52.6000 C   0  0  0  0  0  0  0  0  0  0  0  0
   57.8180   32.0090   52.2550 C   0  0  0  0  0  0  0  0  0  0  0  0
   57.0640   31.2440   53.1130 O   0  0  0  0  0  0  0  0  0  0  0  0
   55.9350   30.5040   52.7020 C   0  0  0  0  0  0  0  0  0  0  0  0
   57.7480   31.6760   50.9150 C   0  0  0  0  0  0  0  0  0  0  0  0
   58.4610   32.3790   49.9670 C   0  0  0  0  0  0  0  0  0  0  0  0
   59.3720   32.1540   46.3290 C   0  0  0  0  0  0  0  0  0  0  0  0
   62.3042   34.0057   51.1115 H   0  0  0  0  0  0  0  0  0  0  0  0
   63.9998   33.4264   50.9855 H   0  0  0  0  0  0  0  0  0  0  0  0
   63.6503   35.1883   50.9855 H   0  0  0  0  0  0  0  0  0  0  0  0
   62.1382   34.4335   48.8545 H   0  0  0  0  0  0  0  0  0  0  0  0
   63.8650   34.9089   48.7098 H   0  0  0  0  0  0  0  0  0  0  0  0
   64.4207   32.1837   47.0153 H   0  0  0  0  0  0  0  0  0  0  0  0
   62.5940   31.9711   47.1264 H   0  0  0  0  0  0  0  0  0  0  0  0
   63.0679   34.7144   47.0382 H   0  0  0  0  0  0  0  0  0  0  0  0
   64.1183   33.9812   45.7790 H   0  0  0  0  0  0  0  0  0  0  0  0
   62.3525   33.6518   45.7790 H   0  0  0  0  0  0  0  0  0  0  0  0
   64.8896   31.4200   48.9737 H   0  0  0  0  0  0  0  0  0  0  0  0
   64.5748   32.5131   50.3720 H   0  0  0  0  0  0  0  0  0  0  0  0
   63.1452   30.0946   49.4441 H   0  0  0  0  0  0  0  0  0  0  0  0
   63.4090   30.8061   51.1182 H   0  0  0  0  0  0  0  0  0  0  0  0
   61.5225   29.4941   50.5094 H   0  0  0  0  0  0  0  0  0  0  0  0
   60.1220   30.6416   50.8468 H   0  0  0  0  0  0  0  0  0  0  0  0
   60.4159   28.9137   48.7434 H   0  0  0  0  0  0  0  0  0  0  0  0
   59.2435   30.3063   48.9732 H   0  0  0  0  0  0  0  0  0  0  0  0
   61.8520   30.9780   47.6590 H   0  0  0  0  0  0  0  0  0  0  0  0
   60.7187   28.4839   47.1503 H   0  0  0  0  0  0  0  0  0  0  0  0
   60.1527   26.4596   45.9127 H   0  0  0  0  0  0  0  0  0  0  0  0
   58.6004   26.5966   43.9687 H   0  0  0  0  0  0  0  0  0  0  0  0
   57.6684   28.8125   43.3297 H   0  0  0  0  0  0  0  0  0  0  0  0
   56.2239   31.0651   43.7709 H   0  0  0  0  0  0  0  0  0  0  0  0
   57.4144   31.9897   42.7940 H   0  0  0  0  0  0  0  0  0  0  0  0
   57.4541   30.1939   42.7940 H   0  0  0  0  0  0  0  0  0  0  0  0
   57.2993   33.4460   43.9326 H   0  0  0  0  0  0  0  0  0  0  0  0
   57.9161   35.5134   45.1671 H   0  0  0  0  0  0  0  0  0  0  0  0
   59.4264   35.4123   47.0978 H   0  0  0  0  0  0  0  0  0  0  0  0
   61.3290   32.8210   48.4900 H   0  0  0  0  0  0  0  0  0  0  0  0
   60.7900   34.7436   49.7166 H   0  0  0  0  0  0  0  0  0  0  0  0
   59.1925   34.8248   48.8199 H   0  0  0  0  0  0  0  0  0  0  0  0
   59.9926   34.6452   52.0571 H   0  0  0  0  0  0  0  0  0  0  0  0
   58.6752   33.3225   53.6660 H   0  0  0  0  0  0  0  0  0  0  0  0
   55.3890   30.1461   53.5873 H   0  0  0  0  0  0  0  0  0  0  0  0
   55.2756   31.1457   52.0991 H   0  0  0  0  0  0  0  0  0  0  0  0
   56.2603   29.6433   52.0991 H   0  0  0  0  0  0  0  0  0  0  0  0
   57.1124   30.8355   50.5996 H   0  0  0  0  0  0  0  0  0  0  0  0
   58.3950   32.1043   48.9039 H   0  0  0  0  0  0  0  0  0  0  0  0
  1  2  1  0
  2  3  1  0
  3  4  1  0
  4  5  1  0
  3  6  1  0
  6  7  1  0
  7  8  1  0
  8  9  1  0
  9 10  1  0
 10 11  1  0
 11 12  1  0
 12 13  2  0
 13 14  1  0
 14 15  2  0
 15 16  1  0
 16 17  2  0
 17 18  1  0
 18 19  2  0
 19 20  1  0
 19 21  1  0
 21 22  2  0
 22 23  1  0
 23 24  2  0
 24 25  1  0
 25 26  1  0
 26 27  1  0
 27 28  1  0
 28 29  2  0
 29 30  1  0
 30 31  2  0
 31 32  1  0
 32 33  1  0
 31 34  1  0
 34 35  2  0
 25 36  2  0
 36 12  1  0
 18 13  1  0
 36 21  1  0
 35 28  1  0
  1 37  1  0
  1 38  1  0
  1 39  1  0
  2 40  1  0
  2 41  1  0
  4 42  1  0
  4 43  1  0
  5 44  1  0
  5 45  1  0
  5 46  1  0
  6 47  1  0
  6 48  1  0
  7 49  1  0
  7 50  1  0
  9 51  1  0
  9 52  1  0
 10 53  1  0
 10 54  1  0
 11 55  1  0
 14 56  1  0
 15 57  1  0
 16 58  1  0
 17 59  1  0
 20 60  1  0
 20 61  1  0
 20 62  1  0
 22 63  1  0
 23 64  1  0
 24 65  1  0
 26 66  1  0
 27 67  1  0
 27 68  1  0
 29 69  1  0
 30 70  1  0
 33 71  1  0
 33 72  1  0
 33 73  1  0
 34 74  1  0
 35 75  1  0
M  CHG  1  19   1
M  END
>  <smiles>  (3) 
CCN(CC)CCOCCNc1c2ccccc2[n+](C)c2cccc(NCc3ccc(OC)cc3)c12

>  <score_type>  (3) 
oracle

>  <origin>  (3) 
adg

>  <m_score__min__energy>  (3) 
-5.8899999999999997

>  <m_primary>  (3) 
energy

$$$$
3:0
     RDKit          3D

 42 44  0  0  0  0  0  0  0  0999 V2000
   58.1540   27.0480   42.7390 C   0  0  0  0  0  0  0  0  0  0  0  0
   57.9150   27.2270   44.1470 N   0  0  0  0  0  0  0  0  0  0  0  0
   57.2270   26.3130   44.8600 N   0  0  0  0  0  0  0  0  0  0  0  0
   57.1400   26.7630   46.1310 C   0  0  0  0  0  0  0  0  0  0  0  0
   57.7700   27.9430   46.1990 N   0  0  0  0  0  0  0  0  0  0  0  0
   58.2490   28.2330   44.9800 C   0  0  0  0  0  0  0  0  0  0  0  0
   59.0040   29.4220   44.6360 C   0  0  0  0  0  0  0  0  0  0  0  0
   58.1540   30.6540   44.4390 N   0  0  0  0  0  0  0  0  0  0  0  0
   57.1560   30.2330   43.5610 C   0  0  0  0  0  0  0  0  0  0  0  0
   55.7650   29.9770   43.9810 C   0  0  0  0  0  0  0  0  0  0  0  0
   55.4950   28.9500   44.8280 O   0  0  0  0  0  0  0  0  0  0  0  0
   57.9490   31.2340   45.6880 C   0  0  0  0  0  0  0  0  0  0  0  0
   58.9780   31.8930   46.4600 C   0  0  0  0  0  0  0  0  0  0  0  0
   58.6520   33.1210   47.0590 C   0  0  0  0  0  0  0  0  0  0  0  0
   59.5810   33.8640   47.7520 C   0  0  0  0  0  0  0  0  0  0  0  0
   60.8750   33.4140   47.8780 C   0  0  0  0  0  0  0  0  0  0  0  0
   61.7930   34.1580   48.5610 C   0  0  0  0  0  0  0  0  0  0  0  0
   63.0980   33.7080   48.6840 C   0  0  0  0  0  0  0  0  0  0  0  0
   63.4860   32.5100   48.1220 C   0  0  0  0  0  0  0  0  0  0  0  0
   62.5370   31.7600   47.4260 C   0  0  0  0  0  0  0  0  0  0  0  0
   61.2300   32.2160   47.3050 C   0  0  0  0  0  0  0  0  0  0  0  0
   60.2900   31.4930   46.6200 C   0  0  0  0  0  0  0  0  0  0  0  0
   59.0269   26.3942   42.5955 H   0  0  0  0  0  0  0  0  0  0  0  0
   57.2705   26.5876   42.2727 H   0  0  0  0  0  0  0  0  0  0  0  0
   58.3473   28.0254   42.2727 H   0  0  0  0  0  0  0  0  0  0  0  0
   56.6389   26.2496   46.9649 H   0  0  0  0  0  0  0  0  0  0  0  0
   59.7212   29.6225   45.4456 H   0  0  0  0  0  0  0  0  0  0  0  0
   59.4969   29.2185   43.6739 H   0  0  0  0  0  0  0  0  0  0  0  0
   57.0980   31.0034   42.7780 H   0  0  0  0  0  0  0  0  0  0  0  0
   57.4987   29.2176   43.3129 H   0  0  0  0  0  0  0  0  0  0  0  0
   55.4050   30.8951   44.4683 H   0  0  0  0  0  0  0  0  0  0  0  0
   55.2673   29.6760   43.0474 H   0  0  0  0  0  0  0  0  0  0  0  0
   56.1340   28.2130   44.6750 H   0  0  0  0  0  0  0  0  0  0  0  0
   57.1616   31.9876   45.5393 H   0  0  0  0  0  0  0  0  0  0  0  0
   57.7720   30.3395   46.3032 H   0  0  0  0  0  0  0  0  0  0  0  0
   57.6232   33.5005   46.9717 H   0  0  0  0  0  0  0  0  0  0  0  0
   59.2874   34.8215   48.2069 H   0  0  0  0  0  0  0  0  0  0  0  0
   61.4968   35.1155   49.0142 H   0  0  0  0  0  0  0  0  0  0  0  0
   63.8323   34.3131   49.2360 H   0  0  0  0  0  0  0  0  0  0  0  0
   64.5218   32.1530   48.2203 H   0  0  0  0  0  0  0  0  0  0  0  0
   62.8256   30.8014   46.9701 H   0  0  0  0  0  0  0  0  0  0  0  0
   60.5982   30.5374   46.1708 H   0  0  0  0  0  0  0  0  0  0  0  0
  1  2  1  0
  2  3  1  0
  3  4  2  0
  4  5  1  0
  5  6  2  0
  6  7  1  0
  7  8  1  0
  8  9  1  0
  9 10  1  0
 10 11  1  0
  8 12  1  0
 12 13  1  0
 13 14  2  0
 14 15  1  0
 15 16  2  0
 16 17  1  0
 17 18  2  0
 18 19  1  0
 19 20  2  0
 20 21  1  0
 21 22  2  0
  6  2  1  0
 22 13  1  0
 21 16  1  0
  1 23  1  0
  1 24  1  0
  1 25  1  0
  4 26  1  0
  7 27  1  0
  7 28  1  0
  9 29  1  0
  9 30  1  0
 10 31  1  0
 10 32  1  0
 11 33  1  0
 12 34  1  0
 12 35  1  0
 14 36  1  0
 15 37  1  0
 17 38  1  0
 18 39  1  0
 19 40  1  0
 20 41  1  0
 22 42  1  0
M  END
>  <smiles>  (4) 
Cn1ncnc1CN(CCO)Cc1ccc2ccccc2c1

>  <score_type>  (4) 
oracle

>  <origin>  (4) 
adg

>  <m_score__min__energy>  (4) 
-7.71

>  <m_primary>  (4) 
energy

$$$$
4:0
     RDKit          3D

 52 55  0  0  0  0  0  0  0  0999 V2000
   62.8540   29.8410   51.2410 C   0  0  0  0  0  0  0  0  0  0  0  0
   63.7080   31.1020   51.1390 C   0  0  0  0  0  0  0  0  0  0  0  0
   63.8120   31.5230   49.8120 O   0  0  0  0  0  0  0  0  0  0  0  0
   62.7940   32.0630   49.0680 C   0  0  0  0  0  0  0  0  0  0  0  0
   61.8010   31.2830   48.4560 C   0  0  0  0  0  0  0  0  0  0  0  0
   60.7980   31.8630   47.7160 C   0  0  0  0  0  0  0  0  0  0  0  0
   59.8270   31.1340   47.1160 C   0  0  0  0  0  0  0  0  0  0  0  0
   58.8600   31.8000   46.3940 C   0  0  0  0  0  0  0  0  0  0  0  0
   58.8370   33.1800   46.2560 C   0  0  0  0  0  0  0  0  0  0  0  0
   59.8100   33.8700   46.8620 N   0  0  0  0  0  0  0  0  0  0  0  0
   59.8110   35.3110   46.7350 C   0  0  0  0  0  0  0  0  0  0  0  0
   60.7630   33.2380   47.5710 C   0  0  0  0  0  0  0  0  0  0  0  0
   61.7230   34.0450   48.1580 C   0  0  0  0  0  0  0  0  0  0  0  0
   62.7090   33.4220   48.8880 C   0  0  0  0  0  0  0  0  0  0  0  0
   63.6690   34.2110   49.4760 O   0  0  0  0  0  0  0  0  0  0  0  0
   63.7330   34.4250   50.8820 C   0  0  0  0  0  0  0  0  0  0  0  0
   57.7710   31.0820   45.7110 C   0  0  0  0  0  0  0  0  0  0  0  0
   56.8830   31.6810   45.0500 O   0  0  0  0  0  0  0  0  0  0  0  0
   57.7620   29.6450   45.8320 C   0  0  0  0  0  0  0  0  0  0  0  0
   56.7760   28.8990   45.2220 C   0  0  0  0  0  0  0  0  0  0  0  0
   55.8170   29.5930   44.5040 O   0  0  0  0  0  0  0  0  0  0  0  0
   55.8350   29.7630   43.1210 C   0  0  0  0  0  0  0  0  0  0  0  0
   56.7060   27.5240   45.2960 C   0  0  0  0  0  0  0  0  0  0  0  0
   57.6610   26.8320   46.0110 C   0  0  0  0  0  0  0  0  0  0  0  0
   58.6460   27.5800   46.6210 C   0  0  0  0  0  0  0  0  0  0  0  0
   59.8860   26.6960   47.5490 S   0  0  0  0  0  0  0  0  0  0  0  0
   61.2300   26.2950   46.3990 C   0  0  0  0  0  0  0  0  0  0  0  0
   58.7140   28.9550   46.5460 C   0  0  0  0  0  0  0  0  0  0  0  0
   59.8070   29.6850   47.2300 C   0  0  0  0  0  0  0  0  0  0  0  0
   60.6150   28.9930   47.8450 O   0  0  0  0  0  0  0  0  0  0  0  0
   62.6877   29.5955   52.3003 H   0  0  0  0  0  0  0  0  0  0  0  0
   61.8858   30.0130   50.7481 H   0  0  0  0  0  0  0  0  0  0  0  0
   63.3731   29.0058   50.7481 H   0  0  0  0  0  0  0  0  0  0  0  0
   63.2442   31.9012   51.7358 H   0  0  0  0  0  0  0  0  0  0  0  0
   64.7159   30.8775   51.5182 H   0  0  0  0  0  0  0  0  0  0  0  0
   61.8255   30.1892   48.5702 H   0  0  0  0  0  0  0  0  0  0  0  0
   58.0526   33.6853   45.6734 H   0  0  0  0  0  0  0  0  0  0  0  0
   59.8113   35.7673   47.7359 H   0  0  0  0  0  0  0  0  0  0  0  0
   60.7094   35.6301   46.1863 H   0  0  0  0  0  0  0  0  0  0  0  0
   58.9131   35.6314   46.1863 H   0  0  0  0  0  0  0  0  0  0  0  0
   61.6984   35.1389   48.0454 H   0  0  0  0  0  0  0  0  0  0  0  0
   63.4560   33.4988   51.4068 H   0  0  0  0  0  0  0  0  0  0  0  0
   64.7567   34.7134   51.1628 H   0  0  0  0  0  0  0  0  0  0  0  0
   63.0357   35.2281   51.1628 H   0  0  0  0  0  0  0  0  0  0  0  0
   55.9481   30.8313   42.8843 H   0  0  0  0  0  0  0  0  0  0  0  0
   56.6787   29.2014   42.6935 H   0  0  0  0  0  0  0  0  0  0  0  0
   54.8924   29.3905   42.6935 H   0  0  0  0  0  0  0  0  0  0  0  0
   55.8941   26.9827   44.7883 H   0  0  0  0  0  0  0  0  0  0  0  0
   57.6381   25.7351   46.0909 H   0  0  0  0  0  0  0  0  0  0  0  0
   62.1318   26.0259   46.9685 H   0  0  0  0  0  0  0  0  0  0  0  0
   60.9299   25.4473   45.7655 H   0  0  0  0  0  0  0  0  0  0  0  0
   61.4434   27.1686   45.7655 H   0  0  0  0  0  0  0  0  0  0  0  0
  1  2  1  0
  2  3  1  0
  3  4  1  0
  4  5  2  0
  5  6  1  0
  6  7  2  0
  7  8  1  0
  8  9  2  0
  9 10  1  0
 10 11  1  0
 10 12  2  0
 12 13  1  0
 13 14  2  0
 14 15  1  0
 15 16  1  0
  8 17  1  0
 17 18  2  0
 17 19  1  0
 19 20  2  0
 20 21  1  0
 21 22  1  0
 20 23  1  0
 23 24  2  0
 24 25  1  0
 25 26  1  0
 26 27  1  0
 25 28  2  0
 28 29  1  0
 29 30  2  0
 14  4  1  0
 28 19  1  0
 12  6  1  0
 29  7  1  0
  1 31  1  0
  1 32  1  0
  1 33  1  0
  2 34  1  0
  2 35  1  0
  5 36  1  0
  9 37  1  0
 11 38  1  0
 11 39  1  0
 11 40  1  0
 13 41  1  0
 16 42  1  0
 16 43  1  0
 16 44  1  0
 22 45  1  0
 22 46  1  0
 22 47  1  0
 23 48  1  0
 24 49  1  0
 27 50  1  0
 27 51  1  0
 27 52  1  0
M  CHG  1  10   1
M  END
>  <smiles>  (5) 
CCOc1cc2c3c(c[n+](C)c2cc1OC)C(=O)c1c(OC)ccc(SC)c1C3=O

>  <score_type>  (5) 
oracle

>  <origin>  (5) 
adg

>  <m_score__min__energy>  (5) 
-6.4199999999999999

>  <m_primary>  (5) 
energy

$$$$
5:0
     RDKit          3D

 68 72  0  0  0  0  0  0  0  0999 V2000
   65.3010   30.8610   51.2430 C   0  0  0  0  0  0  0  0  0  0  0  0
   64.3280   31.9350   51.6310 C   0  0  0  0  0  0  0  0  0  0  0  0
   64.8050   33.2620   51.3710 N   0  0  0  0  0  0  0  0  0  0  0  0
   65.3520   33.4550   50.0610 C   0  0  0  0  0  0  0  0  0  0  0  0
   64.3180   33.2610   48.9460 C   0  0  0  0  0  0  0  0  0  0  0  0
   63.0430   33.5740   49.4990 N   0  0  0  0  0  0  0  0  0  0  0  0
   61.9210   33.4520   48.6410 C   0  0  0  0  0  0  0  0  0  0  0  0
   60.9040   32.5450   49.2980 C   0  0  0  0  0  0  0  0  0  0  0  0
   59.8190   32.3260   48.2340 C   0  0  0  0  0  0  0  0  0  0  0  0
   60.4210   31.3410   47.3250 N   0  0  0  0  0  0  0  0  0  0  0  0
   59.6720   30.3370   46.6860 C   0  0  0  0  0  0  0  0  0  0  0  0
   58.4030   30.5660   46.2280 C   0  0  0  0  0  0  0  0  0  0  0  0
   57.6560   29.5700   45.5940 C   0  0  0  0  0  0  0  0  0  0  0  0
   58.1970   28.3280   45.4210 C   0  0  0  0  0  0  0  0  0  0  0  0
   57.5330   27.2410   44.7850 N   0  0  0  0  0  0  0  0  0  0  0  0
   57.3960   26.0420   45.5170 C   0  0  0  0  0  0  0  0  0  0  0  0
   57.8800   26.0310   46.6910 O   0  0  0  0  0  0  0  0  0  0  0  0
   56.7320   24.8250   45.0030 C   0  0  0  0  0  0  0  0  0  0  0  0
   57.3320   24.3230   43.7230 C   0  0  0  0  0  0  0  0  0  0  0  0
   56.9790   22.8710   43.7460 C   0  0  0  0  0  0  0  0  0  0  0  0
   56.8710   21.9650   42.7120 C   0  0  0  0  0  0  0  0  0  0  0  0
   56.5240   20.6760   43.0410 C   0  0  0  0  0  0  0  0  0  0  0  0
   56.2920   20.2960   44.3500 C   0  0  0  0  0  0  0  0  0  0  0  0
   56.3990   21.1970   45.3970 C   0  0  0  0  0  0  0  0  0  0  0  0
   56.7480   22.4920   45.0510 C   0  0  0  0  0  0  0  0  0  0  0  0
   56.9360   23.6640   45.9590 C   0  0  0  0  0  0  0  0  0  0  0  0
   59.4840   28.0710   45.8760 C   0  0  0  0  0  0  0  0  0  0  0  0
   60.2120   29.0860   46.5080 C   0  0  0  0  0  0  0  0  0  0  0  0
   61.8590   31.4800   47.1260 C   0  0  0  0  0  0  0  0  0  0  0  0
   62.2610   32.9450   47.2610 C   0  0  0  0  0  0  0  0  0  0  0  0
   63.0330   34.6680   50.4110 C   0  0  0  0  0  0  0  0  0  0  0  0
   63.7780   34.2190   51.6510 C   0  0  0  0  0  0  0  0  0  0  0  0
   65.7189   30.3997   52.1500 H   0  0  0  0  0  0  0  0  0  0  0  0
   64.7832   30.0949   50.6473 H   0  0  0  0  0  0  0  0  0  0  0  0
   66.1144   31.3009   50.6473 H   0  0  0  0  0  0  0  0  0  0  0  0
   63.3975   31.7826   51.0645 H   0  0  0  0  0  0  0  0  0  0  0  0
   64.1741   31.8542   52.7172 H   0  0  0  0  0  0  0  0  0  0  0  0
   65.7511   34.4779   49.9949 H   0  0  0  0  0  0  0  0  0  0  0  0
   66.1371   32.6980   49.9173 H   0  0  0  0  0  0  0  0  0  0  0  0
   64.5398   33.9336   48.1043 H   0  0  0  0  0  0  0  0  0  0  0  0
   64.3383   32.2281   48.5681 H   0  0  0  0  0  0  0  0  0  0  0  0
   61.5114   34.4620   48.4924 H   0  0  0  0  0  0  0  0  0  0  0  0
   61.3660   31.5878   49.5815 H   0  0  0  0  0  0  0  0  0  0  0  0
   60.4950   32.9833   50.2203 H   0  0  0  0  0  0  0  0  0  0  0  0
   58.8981   31.9306   48.6876 H   0  0  0  0  0  0  0  0  0  0  0  0
   59.5264   33.2557   47.7240 H   0  0  0  0  0  0  0  0  0  0  0  0
   57.9582   31.5630   46.3629 H   0  0  0  0  0  0  0  0  0  0  0  0
   56.6382   29.7849   45.2363 H   0  0  0  0  0  0  0  0  0  0  0  0
   57.1510   27.3020   43.8160 H   0  0  0  0  0  0  0  0  0  0  0  0
   55.6808   25.1206   44.8702 H   0  0  0  0  0  0  0  0  0  0  0  0
   56.8874   24.8261   42.8517 H   0  0  0  0  0  0  0  0  0  0  0  0
   58.4131   24.5096   43.6434 H   0  0  0  0  0  0  0  0  0  0  0  0
   57.0546   22.2610   41.6686 H   0  0  0  0  0  0  0  0  0  0  0  0
   56.4284   19.9268   42.2413 H   0  0  0  0  0  0  0  0  0  0  0  0
   56.0158   19.2532   44.5653 H   0  0  0  0  0  0  0  0  0  0  0  0
   56.2176   20.9015   46.4409 H   0  0  0  0  0  0  0  0  0  0  0  0
   56.1878   23.6715   46.7653 H   0  0  0  0  0  0  0  0  0  0  0  0
   57.9053   23.6769   46.4790 H   0  0  0  0  0  0  0  0  0  0  0  0
   59.9292   27.0743   45.7403 H   0  0  0  0  0  0  0  0  0  0  0  0
   61.2309   28.8792   46.8673 H   0  0  0  0  0  0  0  0  0  0  0  0
   62.3914   30.8843   47.8821 H   0  0  0  0  0  0  0  0  0  0  0  0
   62.1221   31.1229   46.1194 H   0  0  0  0  0  0  0  0  0  0  0  0
   63.3440   33.0417   47.0947 H   0  0  0  0  0  0  0  0  0  0  0  0
   61.7127   33.5386   46.5146 H   0  0  0  0  0  0  0  0  0  0  0  0
   63.5355   35.5378   49.9628 H   0  0  0  0  0  0  0  0  0  0  0  0
   62.0025   34.9632   50.6580 H   0  0  0  0  0  0  0  0  0  0  0  0
   64.2388   35.1002   52.1213 H   0  0  0  0  0  0  0  0  0  0  0  0
   63.0481   33.7333   52.3154 H   0  0  0  0  0  0  0  0  0  0  0  0
  1  2  1  0
  2  3  1  0
  3  4  1  0
  4  5  1  0
  5  6  1  0
  6  7  1  0
  7  8  1  0
  8  9  1  0
  9 10  1  0
 10 11  1  0
 11 12  2  0
 12 13  1  0
 13 14  2  0
 14 15  1  0
 15 16  1  0
 16 17  2  0
 16 18  1  0
 18 19  1  0
 19 20  1  0
 20 21  2  0
 21 22  1  0
 22 23  2  0
 23 24  1  0
 24 25  2  0
 25 26  1  0
 14 27  1  0
 27 28  2  0
 10 29  1  0
 29 30  1  0
  6 31  1  0
 31 32  1  0
 32  3  1  0
 30  7  1  0
 28 11  1  0
 26 18  1  0
 25 20  1  0
  1 33  1  0
  1 34  1  0
  1 35  1  0
  2 36  1  0
  2 37  1  0
  4 38  1  0
  4 39  1  0
  5 40  1  0
  5 41  1  0
  7 42  1  0
  8 43  1  0
  8 44  1  0
  9 45  1  0
  9 46  1  0
 12 47  1  0
 13 48  1  0
 15 49  1  0
 18 50  1  0
 19 51  1  0
 19 52  1  0
 21 53  1  0
 22 54  1  0
 23 55  1  0
 24 56  1  0
 26 57  1  0
 26 58  1  0
 27 59  1  0
 28 60  1  0
 29 61  1  0
 29 62  1  0
 30 63  1  0
 30 64  1  0
 31 65  1  0
 31 66  1  0
 32 67  1  0
 32 68  1  0
M  END
>  <smiles>  (6) 
CCN1CCN(C2CCN(c3ccc(NC(=O)C4Cc5ccccc5C4)cc3)CC2)CC1

>  <score_type>  (6) 
oracle

>  <origin>  (6) 
adg

>  <m_score__min__energy>  (6) 
-7.7999999999999998

>  <m_primary>  (6) 
energy

$$$$
6:0
     RDKit          3D

 61 64  0  0  0  0  0  0  0  0999 V2000
   58.5750   32.4670   49.3920 C   0  0  0  0  0  0  0  0  0  0  0  0
   58.1160   32.7090   47.9880 C   0  0  0  0  0  0  0  0  0  0  0  0
   58.4300   34.0120   47.5100 N   0  0  0  0  0  0  0  0  0  0  0  0
   57.8430   34.1750   46.1950 C   0  0  0  0  0  0  0  0  0  0  0  0
   57.3780   32.8630   45.6020 C   0  0  0  0  0  0  0  0  0  0  0  0
   59.8040   34.3530   47.3970 C   0  0  0  0  0  0  0  0  0  0  0  0
   60.4810   33.9320   46.1190 C   0  0  0  0  0  0  0  0  0  0  0  0
   61.6330   33.0900   46.3660 N   0  0  0  0  0  0  0  0  0  0  0  0
   61.5120   32.1130   47.3970 C   0  0  0  0  0  0  0  0  0  0  0  0
   62.1440   32.3740   48.5940 C   0  0  0  0  0  0  0  0  0  0  0  0
   62.8690   33.5520   48.7770 C   0  0  0  0  0  0  0  0  0  0  0  0
   63.5130   33.8420   49.9620 C   0  0  0  0  0  0  0  0  0  0  0  0
   63.4510   32.9450   51.0170 C   0  0  0  0  0  0  0  0  0  0  0  0
   62.7410   31.7670   50.8680 C   0  0  0  0  0  0  0  0  0  0  0  0
   62.1030   31.5040   49.6640 C   0  0  0  0  0  0  0  0  0  0  0  0
   61.3980   30.3480   49.5010 N   0  0  0  0  0  0  0  0  0  0  0  0
   61.3480   29.4140   50.6340 C   0  0  0  0  0  0  0  0  0  0  0  0
   60.7770   30.0870   48.3350 C   0  0  0  0  0  0  0  0  0  0  0  0
   60.0840   28.9150   48.2200 N   0  0  0  0  0  0  0  0  0  0  0  0
   59.4370   28.5990   47.0660 C   0  0  0  0  0  0  0  0  0  0  0  0
   58.7660   27.3950   47.0450 C   0  0  0  0  0  0  0  0  0  0  0  0
   58.1020   27.0690   45.8600 C   0  0  0  0  0  0  0  0  0  0  0  0
   57.4120   25.8250   45.8410 N   0  0  0  0  0  0  0  0  0  0  0  0
   55.9950   25.7170   45.9210 C   0  0  0  0  0  0  0  0  0  0  0  0
   55.4240   24.3410   45.8870 C   0  0  0  0  0  0  0  0  0  0  0  0
   55.2260   26.7090   46.0150 O   0  0  0  0  0  0  0  0  0  0  0  0
   58.1270   27.9240   44.7700 C   0  0  0  0  0  0  0  0  0  0  0  0
   58.8190   29.1320   44.8350 C   0  0  0  0  0  0  0  0  0  0  0  0
   59.4790   29.4670   45.9970 C   0  0  0  0  0  0  0  0  0  0  0  0
   60.1710   30.6750   46.0590 C   0  0  0  0  0  0  0  0  0  0  0  0
   60.8060   30.9410   47.2540 C   0  0  0  0  0  0  0  0  0  0  0  0
   57.8269   32.8614   50.0954 H   0  0  0  0  0  0  0  0  0  0  0  0
   58.6988   31.3864   49.5562 H   0  0  0  0  0  0  0  0  0  0  0  0
   59.5366   32.9754   49.5562 H   0  0  0  0  0  0  0  0  0  0  0  0
   58.5982   31.9704   47.3308 H   0  0  0  0  0  0  0  0  0  0  0  0
   57.0200   32.6153   47.9828 H   0  0  0  0  0  0  0  0  0  0  0  0
   56.9795   34.8516   46.2755 H   0  0  0  0  0  0  0  0  0  0  0  0
   58.6180   34.5860   45.5314 H   0  0  0  0  0  0  0  0  0  0  0  0
   57.1295   32.1619   46.4124 H   0  0  0  0  0  0  0  0  0  0  0  0
   56.4867   33.0366   44.9812 H   0  0  0  0  0  0  0  0  0  0  0  0
   58.1797   32.4366   44.9812 H   0  0  0  0  0  0  0  0  0  0  0  0
   59.8881   35.4467   47.4790 H   0  0  0  0  0  0  0  0  0  0  0  0
   60.3153   33.8033   48.2010 H   0  0  0  0  0  0  0  0  0  0  0  0
   59.7602   33.3753   45.5022 H   0  0  0  0  0  0  0  0  0  0  0  0
   60.8284   34.8398   45.6041 H   0  0  0  0  0  0  0  0  0  0  0  0
   62.5020   33.2130   45.7950 H   0  0  0  0  0  0  0  0  0  0  0  0
   62.9291   34.2735   47.9488 H   0  0  0  0  0  0  0  0  0  0  0  0
   64.0740   34.7821   50.0694 H   0  0  0  0  0  0  0  0  0  0  0  0
   63.9622   33.1680   51.9651 H   0  0  0  0  0  0  0  0  0  0  0  0
   62.6827   31.0455   51.6963 H   0  0  0  0  0  0  0  0  0  0  0  0
   61.3783   29.9795   51.5770 H   0  0  0  0  0  0  0  0  0  0  0  0
   60.4173   28.8296   50.5866 H   0  0  0  0  0  0  0  0  0  0  0  0
   62.2110   28.7336   50.5866 H   0  0  0  0  0  0  0  0  0  0  0  0
   58.7540   26.7249   47.9172 H   0  0  0  0  0  0  0  0  0  0  0  0
   58.0050   24.9670   45.7640 H   0  0  0  0  0  0  0  0  0  0  0  0
   55.2744   23.9806   46.9155 H   0  0  0  0  0  0  0  0  0  0  0  0
   54.4585   24.3576   45.3602 H   0  0  0  0  0  0  0  0  0  0  0  0
   56.1176   23.6691   45.3602 H   0  0  0  0  0  0  0  0  0  0  0  0
   57.5969   27.6474   43.8467 H   0  0  0  0  0  0  0  0  0  0  0  0
   58.8380   29.8099   43.9689 H   0  0  0  0  0  0  0  0  0  0  0  0
   60.2084   31.3720   45.2089 H   0  0  0  0  0  0  0  0  0  0  0  0
  1  2  1  0
  2  3  1  0
  3  4  1  0
  4  5  1  0
  3  6  1  0
  6  7  1  0
  7  8  1  0
  8  9  1  0
  9 10  2  0
 10 11  1  0
 11 12  2  0
 12 13  1  0
 13 14  2  0
 14 15  1  0
 15 16  2  0
 16 17  1  0
 16 18  1  0
 18 19  2  0
 19 20  1  0
 20 21  2  0
 21 22  1  0
 22 23  1  0
 23 24  1  0
 24 25  1  0
 24 26  2  0
 22 27  2  0
 27 28  1  0
 28 29  2  0
 29 30  1  0
 30 31  2  0
 31  9  1  0
 15 10  1  0
 31 18  1  0
 29 20  1  0
  1 32  1  0
  1 33  1  0
  1 34  1  0
  2 35  1  0
  2 36  1  0
  4 37  1  0
  4 38  1  0
  5 39  1  0
  5 40  1  0
  5 41  1  0
  6 42  1  0
  6 43  1  0
  7 44  1  0
  7 45  1  0
  8 46  1  0
 11 47  1  0
 12 48  1  0
 13 49  1  0
 14 50  1  0
 17 51  1  0
 17 52  1  0
 17 53  1  0
 21 54  1  0
 23 55  1  0
 25 56  1  0
 25 57  1  0
 25 58  1  0
 27 59  1  0
 28 60  1  0
 30 61  1  0
M  CHG  1  16   1
M  END
>  <smiles>  (7) 
CCN(CC)CCNc1c2ccccc2[n+](C)c2nc3cc(NC(C)=O)ccc3cc12

>  <score_type>  (7) 
oracle

>  <origin>  (7) 
adg

>  <m_score__min__energy>  (7) 
-7.6399999999999997

>  <m_primary>  (7) 
energy

$$$$
7:0
     RDKit          3D

 45 47  0  0  0  0  0  0  0  0999 V2000
   59.8070   29.2670   46.4950 C   0  0  0  0  0  0  0  0  0  0  0  0
   59.3810   30.6700   46.2920 C   0  0  0  0  0  0  0  0  0  0  0  0
   59.9520   31.7210   46.9040 N   0  0  0  0  0  0  0  0  0  0  0  0
   59.3240   32.8090   46.4900 N   0  0  0  0  0  0  0  0  0  0  0  0
   59.5920   34.2000   46.8820 C   0  0  0  0  0  0  0  0  0  0  0  0
   58.3440   32.4820   45.6120 C   0  0  0  0  0  0  0  0  0  0  0  0
   57.3940   33.3690   44.9020 C   0  0  0  0  0  0  0  0  0  0  0  0
   58.3510   31.1120   45.4610 C   0  0  0  0  0  0  0  0  0  0  0  0
   57.3080   30.1330   44.4550 S   0  0  0  0  0  0  0  0  0  0  0  0
   57.3940   30.6430   43.0450 O   0  0  0  0  0  0  0  0  0  0  0  0
   55.8550   30.3100   44.8650 O   0  0  0  0  0  0  0  0  0  0  0  0
   57.6730   28.4720   44.5580 N   0  0  0  0  0  0  0  0  0  0  0  0
   56.8310   27.7340   45.4180 C   0  0  0  0  0  0  0  0  0  0  0  0
   57.2900   26.3540   45.7230 C   0  0  0  0  0  0  0  0  0  0  0  0
   57.5830   25.6860   44.4590 N   0  0  0  0  0  0  0  0  0  0  0  0
   57.6550   24.2660   44.4580 C   0  0  0  0  0  0  0  0  0  0  0  0
   58.5540   23.5760   45.2480 C   0  0  0  0  0  0  0  0  0  0  0  0
   58.6330   22.1950   45.2560 C   0  0  0  0  0  0  0  0  0  0  0  0
   57.7920   21.4470   44.4510 C   0  0  0  0  0  0  0  0  0  0  0  0
   56.8870   22.1130   43.6530 C   0  0  0  0  0  0  0  0  0  0  0  0
   56.8240   23.5070   43.6610 C   0  0  0  0  0  0  0  0  0  0  0  0
   57.8020   26.3970   43.2250 C   0  0  0  0  0  0  0  0  0  0  0  0
   58.1140   27.8460   43.3720 C   0  0  0  0  0  0  0  0  0  0  0  0
   59.8712   29.0556   47.5726 H   0  0  0  0  0  0  0  0  0  0  0  0
   59.0738   28.5905   46.0316 H   0  0  0  0  0  0  0  0  0  0  0  0
   60.7926   29.1124   46.0316 H   0  0  0  0  0  0  0  0  0  0  0  0
   59.6065   34.2754   47.9793 H   0  0  0  0  0  0  0  0  0  0  0  0
   60.5669   34.5129   46.4800 H   0  0  0  0  0  0  0  0  0  0  0  0
   58.8031   34.8527   46.4800 H   0  0  0  0  0  0  0  0  0  0  0  0
   56.7954   33.9279   45.6364 H   0  0  0  0  0  0  0  0  0  0  0  0
   57.9534   34.0754   44.2711 H   0  0  0  0  0  0  0  0  0  0  0  0
   56.7276   32.7625   44.2711 H   0  0  0  0  0  0  0  0  0  0  0  0
   56.7494   28.2830   46.3677 H   0  0  0  0  0  0  0  0  0  0  0  0
   55.8729   27.6266   44.8884 H   0  0  0  0  0  0  0  0  0  0  0  0
   58.1968   26.3911   46.3445 H   0  0  0  0  0  0  0  0  0  0  0  0
   56.5115   25.8054   46.2734 H   0  0  0  0  0  0  0  0  0  0  0  0
   59.2342   24.1476   45.8966 H   0  0  0  0  0  0  0  0  0  0  0  0
   59.3655   21.6906   45.9033 H   0  0  0  0  0  0  0  0  0  0  0  0
   57.8445   20.3483   44.4481 H   0  0  0  0  0  0  0  0  0  0  0  0
   56.2081   21.5405   43.0039 H   0  0  0  0  0  0  0  0  0  0  0  0
   56.0923   24.0138   43.0146 H   0  0  0  0  0  0  0  0  0  0  0  0
   58.6439   25.9194   42.7024 H   0  0  0  0  0  0  0  0  0  0  0  0
   56.8529   26.3449   42.6713 H   0  0  0  0  0  0  0  0  0  0  0  0
   59.2071   27.9584   43.3223 H   0  0  0  0  0  0  0  0  0  0  0  0
   57.5638   28.3442   42.5602 H   0  0  0  0  0  0  0  0  0  0  0  0
  1  2  1  0
  2  3  2  0
  3  4  1  0
  4  5  1  0
  4  6  1  0
  6  7  1  0
  6  8  2  0
  8  9  1  0
  9 10  2  0
  9 11  2  0
  9 12  1  0
 12 13  1  0
 13 14  1  0
 14 15  1  0
 15 16  1  0
 16 17  2  0
 17 18  1  0
 18 19  2  0
 19 20  1  0
 20 21  2  0
 15 22  1  0
 22 23  1  0
  8  2  1  0
 23 12  1  0
 21 16  1  0
  1 24  1  0
  1 25  1  0
  1 26  1  0
  5 27  1  0
  5 28  1  0
  5 29  1  0
  7 30  1  0
  7 31  1  0
  7 32  1  0
 13 33  1  0
 13 34  1  0
 14 35  1  0
 14 36  1  0
 17 37  1  0
 18 38  1  0
 19 39  1  0
 20 40  1  0
 21 41  1  0
 22 42  1  0
 22 43  1  0
 23 44  1  0
 23 45  1  0
M  END
>  <smiles>  (8) 
Cc1nn(C)c(C)c1S(=O)(=O)N1CCN(c2ccccc2)CC1

>  <score_type>  (8) 
oracle

>  <origin>  (8) 
adg

>  <m_score__min__energy>  (8) 
-7.5300000000000002

>  <m_primary>  (8) 
energy

$$$$
8:0
     RDKit          3D

 18 18  0  0  0  0  0  0  0  0999 V2000
   58.5030   28.2160   46.3540 C   0  0  0  0  0  0  0  0  0  0  0  0
   58.7820   29.6700   46.0120 C   0  0  0  0  0  0  0  0  0  0  0  0
   57.6210   30.4070   46.0250 O   0  0  0  0  0  0  0  0  0  0  0  0
   57.1540   30.6220   44.7430 N   0  0  0  0  0  0  0  0  0  0  0  0
   57.6380   31.6540   43.9060 C   0  0  0  0  0  0  0  0  0  0  0  0
   57.0140   31.2170   42.2620 S   0  0  0  0  0  0  0  0  0  0  0  0
   56.4160   29.5760   42.7550 C   0  0  0  0  0  0  0  0  0  0  0  0
   56.1550   29.8270   44.1790 C   0  0  0  0  0  0  0  0  0  0  0  0
   55.1440   29.3730   44.8110 O   0  0  0  0  0  0  0  0  0  0  0  0
   58.4797   28.0944   47.4470 H   0  0  0  0  0  0  0  0  0  0  0  0
   57.5316   27.9198   45.9313 H   0  0  0  0  0  0  0  0  0  0  0  0
   59.2957   27.5813   45.9313 H   0  0  0  0  0  0  0  0  0  0  0  0
   59.4816   30.0864   46.7517 H   0  0  0  0  0  0  0  0  0  0  0  0
   59.2178   29.7172   45.0031 H   0  0  0  0  0  0  0  0  0  0  0  0
   57.2472   32.6315   44.2251 H   0  0  0  0  0  0  0  0  0  0  0  0
   58.7343   31.7406   43.9327 H   0  0  0  0  0  0  0  0  0  0  0  0
   55.5006   29.2939   42.2141 H   0  0  0  0  0  0  0  0  0  0  0  0
   57.1063   28.7454   42.5462 H   0  0  0  0  0  0  0  0  0  0  0  0
  1  2  1  0
  2  3  1  0
  3  4  1  0
  4  5  1  0
  5  6  1  0
  6  7  1  0
  7  8  1  0
  8  9  2  0
  8  4  1  0
  1 10  1  0
  1 11  1  0
  1 12  1  0
  2 13  1  0
  2 14  1  0
  5 15  1  0
  5 16  1  0
  7 17  1  0
  7 18  1  0
M  END
>  <smiles>  (9) 
CCON1CSCC1=O

>  <score_type>  (9) 
oracle

>  <origin>  (9) 
adg

>  <m_score__min__energy>  (9) 
-4.2300000000000004

>  <m_primary>  (9) 
energy

$$$$
9:0
     RDKit          3D

 59 61  0  0  0  0  0  0  0  0999 V2000
   55.2200   24.5750   45.5680 C   0  0  0  0  0  0  0  0  0  0  0  0
   55.4080   25.7650   46.3000 O   0  0  0  0  0  0  0  0  0  0  0  0
   56.6450   26.3890   46.2220 C   0  0  0  0  0  0  0  0  0  0  0  0
   57.5750   26.0590   47.1790 C   0  0  0  0  0  0  0  0  0  0  0  0
   58.8240   26.6470   47.1550 C   0  0  0  0  0  0  0  0  0  0  0  0
   59.1990   27.5720   46.1970 C   0  0  0  0  0  0  0  0  0  0  0  0
   60.5530   28.1840   46.2020 C   0  0  0  0  0  0  0  0  0  0  0  0
   60.5040   29.6650   45.8190 C   0  0  0  0  0  0  0  0  0  0  0  0
   61.2260   30.4920   46.8230 C   0  0  0  0  0  0  0  0  0  0  0  0
   60.4240   31.5680   47.3730 N   0  0  0  0  0  0  0  0  0  0  0  0
   60.9670   32.6250   48.1550 C   0  0  0  0  0  0  0  0  0  0  0  0
   60.7920   33.9820   47.9880 C   0  0  0  0  0  0  0  0  0  0  0  0
   59.9890   34.6500   46.9440 C   0  0  0  0  0  0  0  0  0  0  0  0
   61.4940   34.5860   48.9620 N   0  0  0  0  0  0  0  0  0  0  0  0
   62.0940   33.6680   49.7220 N   0  0  0  0  0  0  0  0  0  0  0  0
   62.9520   33.9260   50.8880 C   0  0  0  0  0  0  0  0  0  0  0  0
   61.7920   32.4420   49.2540 C   0  0  0  0  0  0  0  0  0  0  0  0
   62.2850   31.1780   49.8530 C   0  0  0  0  0  0  0  0  0  0  0  0
   58.7390   31.5530   47.0560 S   0  0  0  0  0  0  0  0  0  0  0  0
   58.1780   30.2110   47.5030 O   0  0  0  0  0  0  0  0  0  0  0  0
   57.9880   32.5720   47.8330 O   0  0  0  0  0  0  0  0  0  0  0  0
   58.3250   31.7610   45.3930 C   0  0  0  0  0  0  0  0  0  0  0  0
   57.6050   30.8190   44.6970 C   0  0  0  0  0  0  0  0  0  0  0  0
   57.2580   30.9550   43.3660 C   0  0  0  0  0  0  0  0  0  0  0  0
   57.6740   32.1150   42.7370 C   0  0  0  0  0  0  0  0  0  0  0  0
   57.3220   32.3050   41.3010 C   0  0  0  0  0  0  0  0  0  0  0  0
   58.3990   33.0980   43.3810 C   0  0  0  0  0  0  0  0  0  0  0  0
   58.7090   32.8930   44.7060 C   0  0  0  0  0  0  0  0  0  0  0  0
   58.2550   27.8920   45.2430 C   0  0  0  0  0  0  0  0  0  0  0  0
   56.9910   27.3010   45.2640 C   0  0  0  0  0  0  0  0  0  0  0  0
   55.0871   23.7336   46.2639 H   0  0  0  0  0  0  0  0  0  0  0  0
   54.3260   24.6716   44.9344 H   0  0  0  0  0  0  0  0  0  0  0  0
   56.1003   24.3913   44.9344 H   0  0  0  0  0  0  0  0  0  0  0  0
   57.3247   25.3282   47.9621 H   0  0  0  0  0  0  0  0  0  0  0  0
   59.5522   26.3680   47.9309 H   0  0  0  0  0  0  0  0  0  0  0  0
   60.9833   28.0901   47.2100 H   0  0  0  0  0  0  0  0  0  0  0  0
   61.1711   27.6573   45.4600 H   0  0  0  0  0  0  0  0  0  0  0  0
   60.9756   29.7991   44.8343 H   0  0  0  0  0  0  0  0  0  0  0  0
   59.4527   29.9871   45.7857 H   0  0  0  0  0  0  0  0  0  0  0  0
   61.5439   29.8381   47.6485 H   0  0  0  0  0  0  0  0  0  0  0  0
   62.0784   30.9566   46.3057 H   0  0  0  0  0  0  0  0  0  0  0  0
   59.2260   35.2847   47.4183 H   0  0  0  0  0  0  0  0  0  0  0  0
   60.6458   35.2719   46.3180 H   0  0  0  0  0  0  0  0  0  0  0  0
   59.4970   33.8910   46.3180 H   0  0  0  0  0  0  0  0  0  0  0  0
   62.3784   33.7535   51.8106 H   0  0  0  0  0  0  0  0  0  0  0  0
   63.8183   33.2486   50.8628 H   0  0  0  0  0  0  0  0  0  0  0  0
   63.3011   34.9688   50.8628 H   0  0  0  0  0  0  0  0  0  0  0  0
   62.2547   31.2557   50.9498 H   0  0  0  0  0  0  0  0  0  0  0  0
   61.6462   30.3440   49.5267 H   0  0  0  0  0  0  0  0  0  0  0  0
   63.3197   30.9967   49.5267 H   0  0  0  0  0  0  0  0  0  0  0  0
   57.2883   29.9089   45.2275 H   0  0  0  0  0  0  0  0  0  0  0  0
   56.6821   30.1825   42.8354 H   0  0  0  0  0  0  0  0  0  0  0  0
   56.3563   32.8263   41.2261 H   0  0  0  0  0  0  0  0  0  0  0  0
   58.1016   32.9048   40.8086 H   0  0  0  0  0  0  0  0  0  0  0  0
   57.2484   31.3241   40.8086 H   0  0  0  0  0  0  0  0  0  0  0  0
   58.7167   34.0103   42.8549 H   0  0  0  0  0  0  0  0  0  0  0  0
   59.2863   33.6632   45.2384 H   0  0  0  0  0  0  0  0  0  0  0  0
   58.5015   28.6211   44.4571 H   0  0  0  0  0  0  0  0  0  0  0  0
   56.2565   27.5751   44.4924 H   0  0  0  0  0  0  0  0  0  0  0  0
  1  2  1  0
  2  3  1  0
  3  4  2  0
  4  5  1  0
  5  6  2  0
  6  7  1  0
  7  8  1  0
  8  9  1  0
  9 10  1  0
 10 11  1  0
 11 12  1  0
 12 13  1  0
 12 14  2  0
 14 15  1  0
 15 16  1  0
 15 17  1  0
 17 18  1  0
 10 19  1  0
 19 20  2  0
 19 21  2  0
 19 22  1  0
 22 23  2  0
 23 24  1  0
 24 25  2  0
 25 26  1  0
 25 27  1  0
 27 28  2  0
  6 29  1  0
 29 30  2  0
 30  3  1  0
 17 11  2  0
 28 22  1  0
  1 31  1  0
  1 32  1  0
  1 33  1  0
  4 34  1  0
  5 35  1  0
  7 36  1  0
  7 37  1  0
  8 38  1  0
  8 39  1  0
  9 40  1  0
  9 41  1  0
 13 42  1  0
 13 43  1  0
 13 44  1  0
 16 45  1  0
 16 46  1  0
 16 47  1  0
 18 48  1  0
 18 49  1  0
 18 50  1  0
 23 51  1  0
 24 52  1  0
 26 53  1  0
 26 54  1  0
 26 55  1  0
 27 56  1  0
 28 57  1  0
 29 58  1  0
 30 59  1  0
M  END
>  <smiles>  (10) 
COc1ccc(CCCN(c2c(C)nn(C)c2C)S(=O)(=O)c2ccc(C)cc2)cc1

>  <score_type>  (10) 
oracle

>  <origin>  (10) 
adg

>  <m_score__min__energy>  (10) 
-8.6699999999999999

>  <m_primary>  (10) 
energy

$$$$
10:0
     RDKit          3D

 48 49  0  0  0  0  0  0  0  0999 V2000
   56.3250   29.4120   42.6350 C   0  0  0  0  0  0  0  0  0  0  0  0
   55.8520   29.8660   43.9720 C   0  0  0  0  0  0  0  0  0  0  0  0
   56.7600   30.6080   44.7640 N   0  0  0  0  0  0  0  0  0  0  0  0
   57.3440   31.7750   44.2280 C   0  0  0  0  0  0  0  0  0  0  0  0
   57.6650   32.8810   45.2110 C   0  0  0  0  0  0  0  0  0  0  0  0
   57.4160   32.4660   46.5170 O   0  0  0  0  0  0  0  0  0  0  0  0
   58.5970   32.4470   47.2280 C   0  0  0  0  0  0  0  0  0  0  0  0
   59.0480   31.0670   47.6310 C   0  0  0  0  0  0  0  0  0  0  0  0
   58.4190   30.0150   46.8330 N   0  0  0  0  0  0  0  0  0  0  0  0
   59.3720   29.0730   46.2880 C   0  0  0  0  0  0  0  0  0  0  0  0
   58.6660   27.8920   45.8330 C   0  0  0  0  0  0  0  0  0  0  0  0
   57.8150   27.0520   46.4560 C   0  0  0  0  0  0  0  0  0  0  0  0
   57.2890   26.0130   45.7910 C   0  0  0  0  0  0  0  0  0  0  0  0
   56.3890   25.0320   46.2650 C   0  0  0  0  0  0  0  0  0  0  0  0
   55.9450   24.0270   45.4460 C   0  0  0  0  0  0  0  0  0  0  0  0
   56.3310   23.8930   44.1190 C   0  0  0  0  0  0  0  0  0  0  0  0
   55.8260   22.8480   43.3870 O   0  0  0  0  0  0  0  0  0  0  0  0
   56.6310   21.8730   42.8190 C   0  0  0  0  0  0  0  0  0  0  0  0
   57.7980   21.4480   43.6740 C   0  0  0  0  0  0  0  0  0  0  0  0
   57.2060   24.8410   43.6480 C   0  0  0  0  0  0  0  0  0  0  0  0
   57.6470   25.8450   44.4740 C   0  0  0  0  0  0  0  0  0  0  0  0
   58.7890   27.2160   44.1320 S   0  0  0  0  0  0  0  0  0  0  0  0
   57.1133   28.6554   42.7624 H   0  0  0  0  0  0  0  0  0  0  0  0
   55.4836   28.9746   42.0775 H   0  0  0  0  0  0  0  0  0  0  0  0
   56.7275   30.2706   42.0775 H   0  0  0  0  0  0  0  0  0  0  0  0
   54.9631   30.4940   43.8123 H   0  0  0  0  0  0  0  0  0  0  0  0
   55.6748   28.9398   44.5383 H   0  0  0  0  0  0  0  0  0  0  0  0
   56.6540   30.5490   45.7910 H   0  0  0  0  0  0  0  0  0  0  0  0
   58.2829   31.4830   43.7348 H   0  0  0  0  0  0  0  0  0  0  0  0
   56.5856   32.1966   43.5519 H   0  0  0  0  0  0  0  0  0  0  0  0
   58.7265   33.1530   45.1146 H   0  0  0  0  0  0  0  0  0  0  0  0
   57.0271   33.7489   44.9878 H   0  0  0  0  0  0  0  0  0  0  0  0
   59.3828   32.8996   46.6054 H   0  0  0  0  0  0  0  0  0  0  0  0
   58.4177   33.0071   48.1576 H   0  0  0  0  0  0  0  0  0  0  0  0
   60.1386   31.0015   47.5037 H   0  0  0  0  0  0  0  0  0  0  0  0
   58.7522   30.9124   48.6791 H   0  0  0  0  0  0  0  0  0  0  0  0
   58.0130   30.5250   46.0070 H   0  0  0  0  0  0  0  0  0  0  0  0
   59.9023   29.5338   45.4416 H   0  0  0  0  0  0  0  0  0  0  0  0
   60.1004   28.7930   47.0633 H   0  0  0  0  0  0  0  0  0  0  0  0
   57.5519   27.2191   47.5109 H   0  0  0  0  0  0  0  0  0  0  0  0
   56.0396   25.0758   47.3071 H   0  0  0  0  0  0  0  0  0  0  0  0
   55.2455   23.2870   45.8621 H   0  0  0  0  0  0  0  0  0  0  0  0
   56.0097   20.9871   42.6212 H   0  0  0  0  0  0  0  0  0  0  0  0
   57.0571   22.3130   41.9053 H   0  0  0  0  0  0  0  0  0  0  0  0
   57.5292   21.5459   44.7362 H   0  0  0  0  0  0  0  0  0  0  0  0
   58.0507   20.4001   43.4548 H   0  0  0  0  0  0  0  0  0  0  0  0
   58.6654   22.0880   43.4548 H   0  0  0  0  0  0  0  0  0  0  0  0
   57.5546   24.7957   42.6057 H   0  0  0  0  0  0  0  0  0  0  0  0
  1  2  1  0
  2  3  1  0
  3  4  1  0
  4  5  1  0
  5  6  1  0
  6  7  1  0
  7  8  1  0
  8  9  1  0
  9 10  1  0
 10 11  1  0
 11 12  2  0
 12 13  1  0
 13 14  2  0
 14 15  1  0
 15 16  2  0
 16 17  1  0
 17 18  1  0
 18 19  1  0
 16 20  1  0
 20 21  2  0
 21 22  1  0
 22 11  1  0
 21 13  1  0
  1 23  1  0
  1 24  1  0
  1 25  1  0
  2 26  1  0
  2 27  1  0
  3 28  1  0
  4 29  1  0
  4 30  1  0
  5 31  1  0
  5 32  1  0
  7 33  1  0
  7 34  1  0
  8 35  1  0
  8 36  1  0
  9 37  1  0
 10 38  1  0
 10 39  1  0
 12 40  1  0
 14 41  1  0
 15 42  1  0
 18 43  1  0
 18 44  1  0
 19 45  1  0
 19 46  1  0
 19 47  1  0
 20 48  1  0
M  END
>  <smiles>  (11) 
CCNCCOCCNCc1cc2ccc(OCC)cc2s1

>  <score_type>  (11) 
oracle

>  <origin>  (11) 
adg

>  <m_score__min__energy>  (11) 
-6.0599999999999996

>  <m_primary>  (11) 
energy

$$$$
11:0
     RDKit          3D

 47 49  0  0  0  0  0  0  0  0999 V2000
   56.4710   29.8010   43.2310 C   0  0  0  0  0  0  0  0  0  0  0  0
   57.4550   30.6740   43.9720 C   0  0  0  0  0  0  0  0  0  0  0  0
   56.8500   31.3620   45.0760 N   0  0  0  0  0  0  0  0  0  0  0  0
   56.9690   32.7800   45.0580 C   0  0  0  0  0  0  0  0  0  0  0  0
   58.2550   33.2480   45.6600 C   0  0  0  0  0  0  0  0  0  0  0  0
   58.9670   34.3840   45.3640 C   0  0  0  0  0  0  0  0  0  0  0  0
   60.1000   34.5990   46.0370 C   0  0  0  0  0  0  0  0  0  0  0  0
   60.4960   33.7110   46.9620 C   0  0  0  0  0  0  0  0  0  0  0  0
   61.6430   33.6570   47.8390 C   0  0  0  0  0  0  0  0  0  0  0  0
   61.5250   33.8010   49.2030 C   0  0  0  0  0  0  0  0  0  0  0  0
   62.6690   33.7420   50.0060 C   0  0  0  0  0  0  0  0  0  0  0  0
   63.9170   33.5410   49.4600 C   0  0  0  0  0  0  0  0  0  0  0  0
   65.1080   33.4760   50.2360 N   0  0  0  0  0  0  0  0  0  0  0  0
   65.2410   34.1640   51.5220 C   0  0  0  0  0  0  0  0  0  0  0  0
   66.7180   34.4640   51.7410 C   0  0  0  0  0  0  0  0  0  0  0  0
   67.5220   33.2680   51.8290 N   0  0  0  0  0  0  0  0  0  0  0  0
   68.8470   33.4580   51.3240 C   0  0  0  0  0  0  0  0  0  0  0  0
   66.9140   32.1770   51.0870 C   0  0  0  0  0  0  0  0  0  0  0  0
   66.2770   32.7190   49.8060 C   0  0  0  0  0  0  0  0  0  0  0  0
   64.0120   33.3990   48.0870 C   0  0  0  0  0  0  0  0  0  0  0  0
   62.8770   33.4570   47.2790 C   0  0  0  0  0  0  0  0  0  0  0  0
   59.2010   32.4580   46.9170 S   0  0  0  0  0  0  0  0  0  0  0  0
   55.8513   29.2512   43.9546 H   0  0  0  0  0  0  0  0  0  0  0  0
   55.8263   30.4297   42.5992 H   0  0  0  0  0  0  0  0  0  0  0  0
   57.0185   29.0860   42.5992 H   0  0  0  0  0  0  0  0  0  0  0  0
   58.2708   30.0423   44.3533 H   0  0  0  0  0  0  0  0  0  0  0  0
   57.8287   31.4319   43.2677 H   0  0  0  0  0  0  0  0  0  0  0  0
   57.0440   30.9210   45.9990 H   0  0  0  0  0  0  0  0  0  0  0  0
   56.9198   33.1261   44.0150 H   0  0  0  0  0  0  0  0  0  0  0  0
   56.1455   33.1950   45.6577 H   0  0  0  0  0  0  0  0  0  0  0  0
   58.6162   35.0924   44.5990 H   0  0  0  0  0  0  0  0  0  0  0  0
   60.7036   35.4962   45.8350 H   0  0  0  0  0  0  0  0  0  0  0  0
   60.5369   33.9615   49.6589 H   0  0  0  0  0  0  0  0  0  0  0  0
   62.5696   33.8585   51.0953 H   0  0  0  0  0  0  0  0  0  0  0  0
   64.6674   35.1024   51.5050 H   0  0  0  0  0  0  0  0  0  0  0  0
   64.8529   33.5340   52.3359 H   0  0  0  0  0  0  0  0  0  0  0  0
   67.0822   35.0719   50.8997 H   0  0  0  0  0  0  0  0  0  0  0  0
   66.8104   34.9979   52.6983 H   0  0  0  0  0  0  0  0  0  0  0  0
   69.5490   33.5587   52.1649 H   0  0  0  0  0  0  0  0  0  0  0  0
   69.1329   32.5917   50.7094 H   0  0  0  0  0  0  0  0  0  0  0  0
   68.8779   34.3698   50.7094 H   0  0  0  0  0  0  0  0  0  0  0  0
   67.6850   31.4366   50.8274 H   0  0  0  0  0  0  0  0  0  0  0  0
   66.1397   31.7010   51.7066 H   0  0  0  0  0  0  0  0  0  0  0  0
   66.9831   33.3734   49.2738 H   0  0  0  0  0  0  0  0  0  0  0  0
   66.0037   31.9085   49.1143 H   0  0  0  0  0  0  0  0  0  0  0  0
   64.9976   33.2379   47.6259 H   0  0  0  0  0  0  0  0  0  0  0  0
   62.9728   33.3419   46.1892 H   0  0  0  0  0  0  0  0  0  0  0  0
  1  2  1  0
  2  3  1  0
  3  4  1  0
  4  5  1  0
  5  6  2  0
  6  7  1  0
  7  8  2  0
  8  9  1  0
  9 10  2  0
 10 11  1  0
 11 12  2  0
 12 13  1  0
 13 14  1  0
 14 15  1  0
 15 16  1  0
 16 17  1  0
 16 18  1  0
 18 19  1  0
 12 20  1  0
 20 21  2  0
  8 22  1  0
 22  5  1  0
 21  9  1  0
 19 13  1  0
  1 23  1  0
  1 24  1  0
  1 25  1  0
  2 26  1  0
  2 27  1  0
  3 28  1  0
  4 29  1  0
  4 30  1  0
  6 31  1  0
  7 32  1  0
 10 33  1  0
 11 34  1  0
 14 35  1  0
 14 36  1  0
 15 37  1  0
 15 38  1  0
 17 39  1  0
 17 40  1  0
 17 41  1  0
 18 42  1  0
 18 43  1  0
 19 44  1  0
 19 45  1  0
 20 46  1  0
 21 47  1  0
M  END
>  <smiles>  (12) 
CCNCc1ccc(-c2ccc(N3CCN(C)CC3)cc2)s1

>  <score_type>  (12) 
oracle

>  <origin>  (12) 
adg

>  <m_score__min__energy>  (12) 
-7.5099999999999998

>  <m_primary>  (12) 
energy

$$$$
12:0
     RDKit          3D

 95 99  0  0  1  0  0  0  0  0999 V2000
   55.3370   30.8140   51.9870 C   0  0  0  0  0  0  0  0  0  0  0  0
   56.4800   31.4370   52.7450 C   0  0  0  0  0  0  0  0  0  0  0  0
   57.5790   31.8380   51.9620 N   0  0  0  0  0  0  0  0  0  0  0  0
   58.5510   32.6930   52.5970 C   0  0  0  0  0  0  0  0  0  0  0  0
   58.1370   34.1200   52.5200 C   0  0  0  0  0  0  0  0  0  0  0  0
   58.1560   30.8730   51.1100 C   0  0  0  0  0  0  0  0  0  0  0  0
   58.8830   29.7280   51.6840 C   0  0  0  0  0  0  0  0  0  0  0  0
   60.2890   29.6300   51.5590 N   0  0  0  0  0  0  0  0  0  0  0  0
   61.1980   30.5990   51.1000 C   0  0  0  0  0  0  0  0  0  0  0  0
   61.9270   31.3910   51.9900 C   0  0  0  0  0  0  0  0  0  0  0  0
   61.6840   31.2780   53.3280 C   0  0  0  0  0  0  0  0  0  0  0  0
   62.3130   32.0130   54.3060 C   0  0  0  0  0  0  0  0  0  0  0  0
   63.2550   32.9270   53.8860 C   0  0  0  0  0  0  0  0  0  0  0  0
   63.5200   33.0630   52.5280 C   0  0  0  0  0  0  0  0  0  0  0  0
   62.8650   32.3040   51.5660 C   0  0  0  0  0  0  0  0  0  0  0  0
   63.1380   32.4900   50.2380 N   0  0  0  0  0  0  0  0  0  0  0  0
   64.1230   33.4720   49.9200 C   0  0  0  0  0  0  0  0  0  0  0  0
   62.4470   31.7390   49.3700 C   0  0  0  0  0  0  0  0  0  0  0  0
   62.6910   31.8930   48.0280 C   0  0  0  0  0  0  0  0  0  0  0  0
   62.0030   31.1390   47.1050 C   0  0  0  0  0  0  0  0  0  0  0  0
   61.0400   30.1970   47.4700 C   0  0  0  0  0  0  0  0  0  0  0  0
   60.4300   29.5190   46.4680 O   0  0  0  0  0  0  0  0  0  0  0  0
   59.7850   28.3120   46.3950 C   0  0  0  0  0  0  0  0  0  0  0  0
   58.3210   28.2950   46.1380 C   0  0  0  0  0  0  0  0  0  0  0  0
   57.9490   28.6110   44.7790 N   0  0  2  0  0  0  0  0  0  0  0  0
   57.7690   27.4480   43.9450 C   0  0  0  0  0  0  0  0  0  0  0  0
   58.9010   29.4980   44.1420 C   0  0  0  0  0  0  0  0  0  0  0  0
   58.7620   30.9180   44.6740 C   0  0  0  0  0  0  0  0  0  0  0  0
   57.5880   31.5020   44.0440 N   0  0  2  0  0  0  0  0  0  0  0  0
   58.0280   32.0090   42.7520 C   0  0  0  0  0  0  0  0  0  0  0  0
   57.0350   32.5500   44.8710 C   0  0  0  0  0  0  0  0  0  0  0  0
   57.9590   33.1090   45.8630 C   0  0  0  0  0  0  0  0  0  0  0  0
   57.9710   32.5890   47.1640 C   0  0  0  0  0  0  0  0  0  0  0  0
   58.8020   33.0790   48.1400 C   0  0  0  0  0  0  0  0  0  0  0  0
   59.6680   34.1310   47.8390 C   0  0  0  0  0  0  0  0  0  0  0  0
   60.4920   34.5980   48.8610 O   0  0  0  0  0  0  0  0  0  0  0  0
   60.3290   34.0560   50.1470 C   0  0  0  0  0  0  0  0  0  0  0  0
   59.6840   34.6670   46.5720 C   0  0  0  0  0  0  0  0  0  0  0  0
   58.8370   34.1460   45.6230 C   0  0  0  0  0  0  0  0  0  0  0  0
   56.6090   30.4630   43.8580 C   0  0  0  0  0  0  0  0  0  0  0  0
   56.6910   29.3300   44.8240 C   0  0  0  0  0  0  0  0  0  0  0  0
   60.8140   30.0630   48.8180 C   0  0  0  0  0  0  0  0  0  0  0  0
   61.4940   30.8090   49.7560 C   0  0  0  0  0  0  0  0  0  0  0  0
   54.6006   30.4126   52.6987 H   0  0  0  0  0  0  0  0  0  0  0  0
   54.8581   31.5758   51.3544 H   0  0  0  0  0  0  0  0  0  0  0  0
   55.7177   29.9986   51.3544 H   0  0  0  0  0  0  0  0  0  0  0  0
   56.0955   32.3244   53.2691 H   0  0  0  0  0  0  0  0  0  0  0  0
   56.8585   30.6539   53.4184 H   0  0  0  0  0  0  0  0  0  0  0  0
   58.6490   32.4034   53.6537 H   0  0  0  0  0  0  0  0  0  0  0  0
   59.5126   32.5784   52.0752 H   0  0  0  0  0  0  0  0  0  0  0  0
   58.0200   34.5232   53.5367 H   0  0  0  0  0  0  0  0  0  0  0  0
   58.9050   34.6962   51.9832 H   0  0  0  0  0  0  0  0  0  0  0  0
   57.1799   34.1957   51.9832 H   0  0  0  0  0  0  0  0  0  0  0  0
   57.3397   30.4582   50.5003 H   0  0  0  0  0  0  0  0  0  0  0  0
   58.9419   31.4354   50.5846 H   0  0  0  0  0  0  0  0  0  0  0  0
   58.6621   29.7236   52.7616 H   0  0  0  0  0  0  0  0  0  0  0  0
   58.5232   28.8813   51.0810 H   0  0  0  0  0  0  0  0  0  0  0  0
   60.7440   28.7000   51.8500 H   0  0  0  0  0  0  0  0  0  0  0  0
   60.9291   30.5448   53.6483 H   0  0  0  0  0  0  0  0  0  0  0  0
   62.0756   31.8777   55.3715 H   0  0  0  0  0  0  0  0  0  0  0  0
   63.7934   33.5446   54.6200 H   0  0  0  0  0  0  0  0  0  0  0  0
   64.2735   33.7961   52.2043 H   0  0  0  0  0  0  0  0  0  0  0  0
   64.5398   33.8876   50.8493 H   0  0  0  0  0  0  0  0  0  0  0  0
   64.9284   33.0067   49.3328 H   0  0  0  0  0  0  0  0  0  0  0  0
   63.6602   34.2788   49.3328 H   0  0  0  0  0  0  0  0  0  0  0  0
   63.4405   32.6230   47.6885 H   0  0  0  0  0  0  0  0  0  0  0  0
   62.2208   31.2846   46.0366 H   0  0  0  0  0  0  0  0  0  0  0  0
   60.2616   27.7395   45.5856 H   0  0  0  0  0  0  0  0  0  0  0  0
   59.8810   27.8982   47.4097 H   0  0  0  0  0  0  0  0  0  0  0  0
   57.9423   27.2893   46.3731 H   0  0  0  0  0  0  0  0  0  0  0  0
   57.8822   29.0785   46.7733 H   0  0  0  0  0  0  0  0  0  0  0  0
   57.6315   26.5598   44.5792 H   0  0  0  0  0  0  0  0  0  0  0  0
   56.8815   27.5860   43.3099 H   0  0  0  0  0  0  0  0  0  0  0  0
   58.6567   27.3113   43.3099 H   0  0  0  0  0  0  0  0  0  0  0  0
   58.7202   29.5008   43.0570 H   0  0  0  0  0  0  0  0  0  0  0  0
   59.9172   29.1386   44.3617 H   0  0  0  0  0  0  0  0  0  0  0  0
   59.6570   31.5047   44.4197 H   0  0  0  0  0  0  0  0  0  0  0  0
   58.6562   30.9155   45.7689 H   0  0  0  0  0  0  0  0  0  0  0  0
   58.7420   32.8317   42.9048 H   0  0  0  0  0  0  0  0  0  0  0  0
   58.5155   31.2005   42.1875 H   0  0  0  0  0  0  0  0  0  0  0  0
   57.1589   32.3778   42.1875 H   0  0  0  0  0  0  0  0  0  0  0  0
   56.7065   33.3672   44.2120 H   0  0  0  0  0  0  0  0  0  0  0  0
   56.2133   32.0911   45.4404 H   0  0  0  0  0  0  0  0  0  0  0  0
   57.2915   31.7601   47.4114 H   0  0  0  0  0  0  0  0  0  0  0  0
   58.7856   32.6461   49.1511 H   0  0  0  0  0  0  0  0  0  0  0  0
   60.5598   34.8236   50.9004 H   0  0  0  0  0  0  0  0  0  0  0  0
   59.2897   33.7187   50.2737 H   0  0  0  0  0  0  0  0  0  0  0  0
   61.0099   33.2014   50.2737 H   0  0  0  0  0  0  0  0  0  0  0  0
   60.3618   35.4968   46.3231 H   0  0  0  0  0  0  0  0  0  0  0  0
   58.8605   34.5813   44.6131 H   0  0  0  0  0  0  0  0  0  0  0  0
   56.7348   30.0550   42.8442 H   0  0  0  0  0  0  0  0  0  0  0  0
   55.6294   30.9347   44.0248 H   0  0  0  0  0  0  0  0  0  0  0  0
   55.8793   28.6227   44.5983 H   0  0  0  0  0  0  0  0  0  0  0  0
   56.6056   29.7623   45.8319 H   0  0  0  0  0  0  0  0  0  0  0  0
   60.0641   29.3349   49.1608 H   0  0  0  0  0  0  0  0  0  0  0  0
  1  2  1  0
  2  3  1  0
  3  4  1  0
  4  5  1  0
  3  6  1  0
  6  7  1  0
  7  8  1  0
  8  9  1  0
  9 10  2  0
 10 11  1  0
 11 12  2  0
 12 13  1  0
 13 14  2  0
 14 15  1  0
 15 16  2  0
 16 17  1  0
 16 18  1  0
 18 19  2  0
 19 20  1  0
 20 21  2  0
 21 22  1  0
 22 23  1  0
 23 24  1  0
 25 24  1  1
 25 26  1  0
 25 27  1  0
 27 28  1  0
 28 29  1  0
 29 30  1  6
 29 31  1  0
 31 32  1  0
 32 33  2  0
 33 34  1  0
 34 35  2  0
 35 36  1  0
 36 37  1  0
 35 38  1  0
 38 39  2  0
 29 40  1  0
 40 41  1  0
 21 42  1  0
 42 43  2  0
 43  9  1  0
 15 10  1  0
 43 18  1  0
 41 25  1  0
 39 32  1  0
  1 44  1  0
  1 45  1  0
  1 46  1  0
  2 47  1  0
  2 48  1  0
  4 49  1  0
  4 50  1  0
  5 51  1  0
  5 52  1  0
  5 53  1  0
  6 54  1  0
  6 55  1  0
  7 56  1  0
  7 57  1  0
  8 58  1  0
 11 59  1  0
 12 60  1  0
 13 61  1  0
 14 62  1  0
 17 63  1  0
 17 64  1  0
 17 65  1  0
 19 66  1  0
 20 67  1  0
 23 68  1  0
 23 69  1  0
 24 70  1  0
 24 71  1  0
 26 72  1  0
 26 73  1  0
 26 74  1  0
 27 75  1  0
 27 76  1  0
 28 77  1  0
 28 78  1  0
 30 79  1  0
 30 80  1  0
 30 81  1  0
 31 82  1  0
 31 83  1  0
 33 84  1  0
 34 85  1  0
 37 86  1  0
 37 87  1  0
 37 88  1  0
 38 89  1  0
 39 90  1  0
 40 91  1  0
 40 92  1  0
 41 93  1  0
 41 94  1  0
 42 95  1  0
M  CHG  3  16   1  25   1  29   1
M  END
>  <smiles>  (13) 
CCN(CC)CCNc1c2ccccc2[n+](C)c2ccc(OCC[N+]3(C)CC[N+](C)(Cc4ccc(OC)cc4)CC3)cc12

>  <score_type>  (13) 
oracle

>  <origin>  (13) 
adg

>  <m_score__min__energy>  (13) 
-6.4100000000000001

>  <m_primary>  (13) 
energy

$$$$
14:0
     RDKit          3D

 45 46  0  0  0  0  0  0  0  0999 V2000
   56.2920   30.0780   42.6190 C   0  0  0  0  0  0  0  0  0  0  0  0
   55.6750   30.0870   43.9830 C   0  0  0  0  0  0  0  0  0  0  0  0
   56.6520   30.0370   45.0560 N   0  0  0  0  0  0  0  0  0  0  0  0
   57.0610   28.6990   45.3420 C   0  0  0  0  0  0  0  0  0  0  0  0
   58.2790   28.2200   44.6290 C   0  0  0  0  0  0  0  0  0  0  0  0
   57.7210   30.9190   44.7010 C   0  0  0  0  0  0  0  0  0  0  0  0
   58.5390   31.4010   45.8320 C   0  0  0  0  0  0  0  0  0  0  0  0
   58.9650   30.6080   46.8380 N   0  0  0  0  0  0  0  0  0  0  0  0
   59.7240   31.0730   47.8690 C   0  0  0  0  0  0  0  0  0  0  0  0
   60.1080   32.3960   47.9480 C   0  0  0  0  0  0  0  0  0  0  0  0
   60.9340   32.9120   49.0630 C   0  0  0  0  0  0  0  0  0  0  0  0
   62.1920   33.3240   48.5380 N   0  0  0  0  0  0  0  0  0  0  0  0
   62.9010   32.3640   47.7610 C   0  0  0  0  0  0  0  0  0  0  0  0
   62.9760   34.1890   49.3520 C   0  0  0  0  0  0  0  0  0  0  0  0
   59.6880   33.2300   46.9370 C   0  0  0  0  0  0  0  0  0  0  0  0
   60.0380   34.5850   46.9490 C   0  0  0  0  0  0  0  0  0  0  0  0
   59.6310   35.4450   45.9490 C   0  0  0  0  0  0  0  0  0  0  0  0
   58.8620   34.9740   44.9050 C   0  0  0  0  0  0  0  0  0  0  0  0
   58.5110   33.6230   44.8900 C   0  0  0  0  0  0  0  0  0  0  0  0
   58.9090   32.7500   45.8810 C   0  0  0  0  0  0  0  0  0  0  0  0
   57.3879   30.0620   42.7124 H   0  0  0  0  0  0  0  0  0  0  0  0
   55.9576   29.1846   42.0712 H   0  0  0  0  0  0  0  0  0  0  0  0
   55.9838   30.9807   42.0712 H   0  0  0  0  0  0  0  0  0  0  0  0
   55.0832   31.0078   44.0924 H   0  0  0  0  0  0  0  0  0  0  0  0
   55.0541   29.1828   44.0655 H   0  0  0  0  0  0  0  0  0  0  0  0
   57.2551   28.6304   46.4226 H   0  0  0  0  0  0  0  0  0  0  0  0
   56.2402   28.0570   44.9896 H   0  0  0  0  0  0  0  0  0  0  0  0
   59.0404   27.9206   45.3643 H   0  0  0  0  0  0  0  0  0  0  0  0
   58.0191   27.3571   43.9982 H   0  0  0  0  0  0  0  0  0  0  0  0
   58.6765   29.0288   43.9982 H   0  0  0  0  0  0  0  0  0  0  0  0
   58.3844   30.3866   44.0036 H   0  0  0  0  0  0  0  0  0  0  0  0
   57.2489   31.8109   44.2632 H   0  0  0  0  0  0  0  0  0  0  0  0
   60.0391   30.3757   48.6592 H   0  0  0  0  0  0  0  0  0  0  0  0
   60.4294   33.7687   49.5335 H   0  0  0  0  0  0  0  0  0  0  0  0
   61.0794   32.1272   49.8200 H   0  0  0  0  0  0  0  0  0  0  0  0
   63.4197   31.6617   48.4301 H   0  0  0  0  0  0  0  0  0  0  0  0
   62.1930   31.8108   47.1264 H   0  0  0  0  0  0  0  0  0  0  0  0
   63.6379   32.8780   47.1264 H   0  0  0  0  0  0  0  0  0  0  0  0
   62.7796   33.9723   50.4124 H   0  0  0  0  0  0  0  0  0  0  0  0
   64.0426   34.0284   49.1364 H   0  0  0  0  0  0  0  0  0  0  0  0
   62.7117   35.2348   49.1364 H   0  0  0  0  0  0  0  0  0  0  0  0
   60.6519   34.9738   47.7748 H   0  0  0  0  0  0  0  0  0  0  0  0
   59.9198   36.5058   45.9845 H   0  0  0  0  0  0  0  0  0  0  0  0
   58.5324   35.6488   44.1013 H   0  0  0  0  0  0  0  0  0  0  0  0
   57.8969   33.2421   44.0607 H   0  0  0  0  0  0  0  0  0  0  0  0
  1  2  1  0
  2  3  1  0
  3  4  1  0
  4  5  1  0
  3  6  1  0
  6  7  1  0
  7  8  2  0
  8  9  1  0
  9 10  2  0
 10 11  1  0
 11 12  1  0
 12 13  1  0
 12 14  1  0
 10 15  1  0
 15 16  2  0
 16 17  1  0
 17 18  2  0
 18 19  1  0
 19 20  2  0
 20  7  1  0
 20 15  1  0
  1 21  1  0
  1 22  1  0
  1 23  1  0
  2 24  1  0
  2 25  1  0
  4 26  1  0
  4 27  1  0
  5 28  1  0
  5 29  1  0
  5 30  1  0
  6 31  1  0
  6 32  1  0
  9 33  1  0
 11 34  1  0
 11 35  1  0
 13 36  1  0
 13 37  1  0
 13 38  1  0
 14 39  1  0
 14 40  1  0
 14 41  1  0
 16 42  1  0
 17 43  1  0
 18 44  1  0
 19 45  1  0
M  END
>  <smiles>  (14) 
CCN(CC)Cc1ncc(CN(C)C)c2ccccc12

>  <score_type>  (14) 
oracle

>  <origin>  (14) 
adg

>  <m_score__min__energy>  (14) 
-6.8200000000000003

>  <m_primary>  (14) 
energy

$$$$
15:0
     RDKit          3D

 32 33  0  0  0  0  0  0  0  0999 V2000
   58.1410   27.1880   43.0910 C   0  0  0  0  0  0  0  0  0  0  0  0
   58.3970   26.8100   44.5170 C   0  0  0  0  0  0  0  0  0  0  0  0
   57.1850   27.5950   45.6120 S   0  0  0  0  0  0  0  0  0  0  0  0
   57.1870   29.3640   45.4170 C   0  0  0  0  0  0  0  0  0  0  0  0
   56.2630   30.0900   44.7630 N   0  0  0  0  0  0  0  0  0  0  0  0
   56.5920   31.3650   44.8240 N   0  0  0  0  0  0  0  0  0  0  0  0
   57.7560   31.5060   45.5270 C   0  0  0  0  0  0  0  0  0  0  0  0
   58.3530   32.8030   45.7570 C   0  0  0  0  0  0  0  0  0  0  0  0
   58.7290   33.6920   44.7810 C   0  0  0  0  0  0  0  0  0  0  0  0
   59.3100   34.9300   45.0580 C   0  0  0  0  0  0  0  0  0  0  0  0
   59.5350   35.3160   46.3420 C   0  0  0  0  0  0  0  0  0  0  0  0
   59.1690   34.4470   47.3460 C   0  0  0  0  0  0  0  0  0  0  0  0
   58.5910   33.2150   47.0680 C   0  0  0  0  0  0  0  0  0  0  0  0
   58.2480   32.3920   48.1280 O   0  0  0  0  0  0  0  0  0  0  0  0
   59.0090   32.4520   49.3120 C   0  0  0  0  0  0  0  0  0  0  0  0
   58.1080   30.2660   45.8850 N   0  0  0  0  0  0  0  0  0  0  0  0
   59.2490   29.8840   46.6410 C   0  0  0  0  0  0  0  0  0  0  0  0
   57.5244   28.0984   43.0580 H   0  0  0  0  0  0  0  0  0  0  0  0
   59.0989   27.3753   42.5837 H   0  0  0  0  0  0  0  0  0  0  0  0
   57.6116   26.3680   42.5837 H   0  0  0  0  0  0  0  0  0  0  0  0
   58.3232   25.7173   44.6203 H   0  0  0  0  0  0  0  0  0  0  0  0
   59.4038   27.1516   44.7993 H   0  0  0  0  0  0  0  0  0  0  0  0
   58.5643   33.4149   43.7293 H   0  0  0  0  0  0  0  0  0  0  0  0
   59.5883   35.5992   44.2306 H   0  0  0  0  0  0  0  0  0  0  0  0
   59.9937   36.2892   46.5713 H   0  0  0  0  0  0  0  0  0  0  0  0
   59.3386   34.7358   48.3938 H   0  0  0  0  0  0  0  0  0  0  0  0
   58.3381   32.3991   50.1821 H   0  0  0  0  0  0  0  0  0  0  0  0
   59.7121   31.6065   49.3392 H   0  0  0  0  0  0  0  0  0  0  0  0
   59.5709   33.3972   49.3392 H   0  0  0  0  0  0  0  0  0  0  0  0
   59.0202   29.9606   47.7142 H   0  0  0  0  0  0  0  0  0  0  0  0
   59.5199   28.8462   46.3970 H   0  0  0  0  0  0  0  0  0  0  0  0
   60.0901   30.5495   46.3970 H   0  0  0  0  0  0  0  0  0  0  0  0
  1  2  1  0
  2  3  1  0
  3  4  1  0
  4  5  2  0
  5  6  1  0
  6  7  2  0
  7  8  1  0
  8  9  2  0
  9 10  1  0
 10 11  2  0
 11 12  1  0
 12 13  2  0
 13 14  1  0
 14 15  1  0
  7 16  1  0
 16 17  1  0
 16  4  1  0
 13  8  1  0
  1 18  1  0
  1 19  1  0
  1 20  1  0
  2 21  1  0
  2 22  1  0
  9 23  1  0
 10 24  1  0
 11 25  1  0
 12 26  1  0
 15 27  1  0
 15 28  1  0
 15 29  1  0
 17 30  1  0
 17 31  1  0
 17 32  1  0
M  END
>  <smiles>  (15) 
CCSc1nnc(-c2ccccc2OC)n1C

>  <score_type>  (15) 
oracle

>  <origin>  (15) 
adg

>  <m_score__min__energy>  (15) 
-6.5700000000000003

>  <m_primary>  (15) 
energy

$$$$
16:0
     RDKit          3D

 73 75  0  0  0  0  0  0  0  0999 V2000
   63.2970   33.8150   46.5450 C   0  0  0  0  0  0  0  0  0  0  0  0
   63.2490   32.4220   47.1330 C   0  0  0  0  0  0  0  0  0  0  0  0
   62.5970   32.4930   48.4060 N   0  0  0  0  0  0  0  0  0  0  0  0
   63.1250   31.6230   49.4070 C   0  0  0  0  0  0  0  0  0  0  0  0
   62.3740   33.8440   48.8070 C   0  0  0  0  0  0  0  0  0  0  0  0
   60.8980   34.1220   49.1080 C   0  0  0  0  0  0  0  0  0  0  0  0
   60.2230   33.8630   47.9360 O   0  0  0  0  0  0  0  0  0  0  0  0
   59.4160   34.9120   47.4660 C   0  0  0  0  0  0  0  0  0  0  0  0
   59.6890   35.2720   46.0580 C   0  0  0  0  0  0  0  0  0  0  0  0
   59.1340   34.3910   45.0050 C   0  0  0  0  0  0  0  0  0  0  0  0
   57.7890   34.0410   44.9320 N   0  0  0  0  0  0  0  0  0  0  0  0
   57.0600   33.4880   45.9970 C   0  0  0  0  0  0  0  0  0  0  0  0
   57.7750   32.2450   46.5780 C   0  0  0  0  0  0  0  0  0  0  0  0
   57.9810   31.2710   45.5840 N   0  0  0  0  0  0  0  0  0  0  0  0
   57.9890   29.9140   45.8250 C   0  0  0  0  0  0  0  0  0  0  0  0
   59.2390   29.2020   46.1780 C   0  0  0  0  0  0  0  0  0  0  0  0
   60.4340   30.1290   46.3250 C   0  0  0  0  0  0  0  0  0  0  0  0
   60.4670   30.7400   47.6320 N   0  0  0  0  0  0  0  0  0  0  0  0
   60.2480   30.0330   48.8450 C   0  0  0  0  0  0  0  0  0  0  0  0
   60.7890   28.7900   49.0970 C   0  0  0  0  0  0  0  0  0  0  0  0
   60.5860   28.0970   50.2730 C   0  0  0  0  0  0  0  0  0  0  0  0
   61.1220   26.8570   50.5340 O   0  0  0  0  0  0  0  0  0  0  0  0
   61.8030   26.5960   51.7540 C   0  0  0  0  0  0  0  0  0  0  0  0
   59.7880   28.7020   51.2480 C   0  0  0  0  0  0  0  0  0  0  0  0
   59.2240   29.9390   51.0470 C   0  0  0  0  0  0  0  0  0  0  0  0
   58.4300   30.5630   51.9890 C   0  0  0  0  0  0  0  0  0  0  0  0
   57.8750   31.8200   51.7450 C   0  0  0  0  0  0  0  0  0  0  0  0
   58.1560   32.4050   50.5270 C   0  0  0  0  0  0  0  0  0  0  0  0
   58.9300   31.7800   49.6300 N   0  0  0  0  0  0  0  0  0  0  0  0
   59.4650   30.5800   49.8500 C   0  0  0  0  0  0  0  0  0  0  0  0
   58.3320   31.7690   44.3130 C   0  0  0  0  0  0  0  0  0  0  0  0
   57.6790   33.0270   43.8480 C   0  0  0  0  0  0  0  0  0  0  0  0
   63.3225   34.5555   47.3580 H   0  0  0  0  0  0  0  0  0  0  0  0
   64.1993   33.9203   45.9247 H   0  0  0  0  0  0  0  0  0  0  0  0
   62.4041   33.9821   45.9247 H   0  0  0  0  0  0  0  0  0  0  0  0
   62.6860   31.7550   46.4636 H   0  0  0  0  0  0  0  0  0  0  0  0
   64.2682   32.0254   47.2510 H   0  0  0  0  0  0  0  0  0  0  0  0
   62.8833   32.0212   50.4035 H   0  0  0  0  0  0  0  0  0  0  0  0
   62.6815   30.6227   49.2944 H   0  0  0  0  0  0  0  0  0  0  0  0
   64.2171   31.5546   49.2944 H   0  0  0  0  0  0  0  0  0  0  0  0
   62.9645   34.0468   49.7126 H   0  0  0  0  0  0  0  0  0  0  0  0
   62.6782   34.4975   47.9761 H   0  0  0  0  0  0  0  0  0  0  0  0
   60.5394   33.4613   49.9111 H   0  0  0  0  0  0  0  0  0  0  0  0
   60.7408   35.1567   49.4466 H   0  0  0  0  0  0  0  0  0  0  0  0
   58.3624   34.6074   47.5509 H   0  0  0  0  0  0  0  0  0  0  0  0
   59.6413   35.7972   48.0790 H   0  0  0  0  0  0  0  0  0  0  0  0
   59.2824   36.2804   45.8914 H   0  0  0  0  0  0  0  0  0  0  0  0
   60.7801   35.1800   45.9527 H   0  0  0  0  0  0  0  0  0  0  0  0
   59.3711   34.8787   44.0479 H   0  0  0  0  0  0  0  0  0  0  0  0
   59.5951   33.4265   45.2642 H   0  0  0  0  0  0  0  0  0  0  0  0
   56.9531   34.2435   46.7893 H   0  0  0  0  0  0  0  0  0  0  0  0
   56.0737   33.1786   45.6208 H   0  0  0  0  0  0  0  0  0  0  0  0
   58.7483   32.5498   46.9901 H   0  0  0  0  0  0  0  0  0  0  0  0
   57.1410   31.8126   47.3661 H   0  0  0  0  0  0  0  0  0  0  0  0
   57.2875   29.7411   46.6545 H   0  0  0  0  0  0  0  0  0  0  0  0
   57.7469   29.4950   44.8372 H   0  0  0  0  0  0  0  0  0  0  0  0
   59.0847   28.6764   47.1319 H   0  0  0  0  0  0  0  0  0  0  0  0
   59.4632   28.5071   45.3553 H   0  0  0  0  0  0  0  0  0  0  0  0
   61.3572   29.5495   46.1771 H   0  0  0  0  0  0  0  0  0  0  0  0
   60.3494   30.9260   45.5716 H   0  0  0  0  0  0  0  0  0  0  0  0
   60.6620   31.7550   47.6820 H   0  0  0  0  0  0  0  0  0  0  0  0
   61.4150   28.3266   48.3202 H   0  0  0  0  0  0  0  0  0  0  0  0
   61.1475   26.8472   52.6008 H   0  0  0  0  0  0  0  0  0  0  0  0
   62.0729   25.5307   51.8027 H   0  0  0  0  0  0  0  0  0  0  0  0
   62.7157   27.2080   51.8027 H   0  0  0  0  0  0  0  0  0  0  0  0
   59.6074   28.1764   52.1973 H   0  0  0  0  0  0  0  0  0  0  0  0
   58.2317   30.0610   52.9475 H   0  0  0  0  0  0  0  0  0  0  0  0
   57.2414   32.3224   52.4907 H   0  0  0  0  0  0  0  0  0  0  0  0
   57.7398   33.3953   50.2902 H   0  0  0  0  0  0  0  0  0  0  0  0
   59.4174   31.9474   44.3201 H   0  0  0  0  0  0  0  0  0  0  0  0
   57.9785   31.0004   43.6100 H   0  0  0  0  0  0  0  0  0  0  0  0
   58.1836   33.3949   42.9424 H   0  0  0  0  0  0  0  0  0  0  0  0
   56.6212   32.8391   43.6117 H   0  0  0  0  0  0  0  0  0  0  0  0
  1  2  1  0
  2  3  1  0
  3  4  1  0
  3  5  1  0
  5  6  1  0
  6  7  1  0
  7  8  1  0
  8  9  1  0
  9 10  1  0
 10 11  1  0
 11 12  1  0
 12 13  1  0
 13 14  1  0
 14 15  1  0
 15 16  1  0
 16 17  1  0
 17 18  1  0
 18 19  1  0
 19 20  2  0
 20 21  1  0
 21 22  1  0
 22 23  1  0
 21 24  2  0
 24 25  1  0
 25 26  2  0
 26 27  1  0
 27 28  2  0
 28 29  1  0
 29 30  2  0
 14 31  1  0
 31 32  1  0
 32 11  1  0
 30 19  1  0
 30 25  1  0
  1 33  1  0
  1 34  1  0
  1 35  1  0
  2 36  1  0
  2 37  1  0
  4 38  1  0
  4 39  1  0
  4 40  1  0
  5 41  1  0
  5 42  1  0
  6 43  1  0
  6 44  1  0
  8 45  1  0
  8 46  1  0
  9 47  1  0
  9 48  1  0
 10 49  1  0
 10 50  1  0
 12 51  1  0
 12 52  1  0
 13 53  1  0
 13 54  1  0
 15 55  1  0
 15 56  1  0
 16 57  1  0
 16 58  1  0
 17 59  1  0
 17 60  1  0
 18 61  1  0
 20 62  1  0
 23 63  1  0
 23 64  1  0
 23 65  1  0
 24 66  1  0
 26 67  1  0
 27 68  1  0
 28 69  1  0
 31 70  1  0
 31 71  1  0
 32 72  1  0
 32 73  1  0
M  END
>  <smiles>  (16) 
CCN(C)CCOCCCN1CCN(CCCNc2cc(OC)cc3cccnc23)CC1

>  <score_type>  (16) 
oracle

>  <origin>  (16) 
adg

>  <m_score__min__energy>  (16) 
-7.3399999999999999

>  <m_primary>  (16) 
energy

$$$$
17:0
     RDKit          3D

 44 46  0  0  0  0  0  0  0  0999 V2000
   59.5240   35.3170   47.0260 C   0  0  0  0  0  0  0  0  0  0  0  0
   59.9940   34.7930   45.7560 N   0  0  0  0  0  0  0  0  0  0  0  0
   61.1090   33.9350   46.0390 C   0  0  0  0  0  0  0  0  0  0  0  0
   58.9300   34.0980   45.0490 C   0  0  0  0  0  0  0  0  0  0  0  0
   57.6320   34.1500   45.8190 C   0  0  0  0  0  0  0  0  0  0  0  0
   57.3780   32.9980   46.6310 N   0  0  0  0  0  0  0  0  0  0  0  0
   58.0770   31.7920   46.4090 C   0  0  0  0  0  0  0  0  0  0  0  0
   57.7760   30.8880   45.4140 C   0  0  0  0  0  0  0  0  0  0  0  0
   58.4820   29.7130   45.2210 C   0  0  0  0  0  0  0  0  0  0  0  0
   59.5090   29.4470   46.0470 N   0  0  0  0  0  0  0  0  0  0  0  0
   60.3290   28.2620   45.9610 C   0  0  0  0  0  0  0  0  0  0  0  0
   59.8330   30.3230   47.0440 C   0  0  0  0  0  0  0  0  0  0  0  0
   60.8930   30.0560   47.9010 C   0  0  0  0  0  0  0  0  0  0  0  0
   61.2480   30.9220   48.9210 C   0  0  0  0  0  0  0  0  0  0  0  0
   60.5330   32.0890   49.0990 C   0  0  0  0  0  0  0  0  0  0  0  0
   59.4710   32.3750   48.2530 C   0  0  0  0  0  0  0  0  0  0  0  0
   59.1350   31.4950   47.2420 C   0  0  0  0  0  0  0  0  0  0  0  0
   58.1700   28.7470   44.1670 C   0  0  0  0  0  0  0  0  0  0  0  0
   57.0210   29.0890   43.2880 C   0  0  0  0  0  0  0  0  0  0  0  0
   56.3500   30.3600   43.5890 C   0  0  0  0  0  0  0  0  0  0  0  0
   56.6890   31.1640   44.5410 N   0  0  0  0  0  0  0  0  0  0  0  0
   60.0110   34.7741   47.8495 H   0  0  0  0  0  0  0  0  0  0  0  0
   59.7711   36.3866   47.0953 H   0  0  0  0  0  0  0  0  0  0  0  0
   58.4339   35.1873   47.0953 H   0  0  0  0  0  0  0  0  0  0  0  0
   61.2318   33.8405   47.1280 H   0  0  0  0  0  0  0  0  0  0  0  0
   60.9272   32.9416   45.6029 H   0  0  0  0  0  0  0  0  0  0  0  0
   62.0227   34.3652   45.6029 H   0  0  0  0  0  0  0  0  0  0  0  0
   58.7832   34.5722   44.0674 H   0  0  0  0  0  0  0  0  0  0  0  0
   59.2221   33.0438   44.9332 H   0  0  0  0  0  0  0  0  0  0  0  0
   57.6558   35.0336   46.4737 H   0  0  0  0  0  0  0  0  0  0  0  0
   56.8258   34.1907   45.0718 H   0  0  0  0  0  0  0  0  0  0  0  0
   56.6770   33.0030   47.4080 H   0  0  0  0  0  0  0  0  0  0  0  0
   60.5724   27.9102   46.9744 H   0  0  0  0  0  0  0  0  0  0  0  0
   59.7811   27.4753   45.4215 H   0  0  0  0  0  0  0  0  0  0  0  0
   61.2583   28.4975   45.4215 H   0  0  0  0  0  0  0  0  0  0  0  0
   61.4679   29.1281   47.7650 H   0  0  0  0  0  0  0  0  0  0  0  0
   62.0925   30.6821   49.5838 H   0  0  0  0  0  0  0  0  0  0  0  0
   60.8029   32.7869   49.9052 H   0  0  0  0  0  0  0  0  0  0  0  0
   58.8960   33.3031   48.3873 H   0  0  0  0  0  0  0  0  0  0  0  0
   59.0613   28.6438   43.5307 H   0  0  0  0  0  0  0  0  0  0  0  0
   57.8793   27.8231   44.6885 H   0  0  0  0  0  0  0  0  0  0  0  0
   57.3893   29.1373   42.2526 H   0  0  0  0  0  0  0  0  0  0  0  0
   56.2690   28.3039   43.4555 H   0  0  0  0  0  0  0  0  0  0  0  0
   55.4966   30.6482   42.9577 H   0  0  0  0  0  0  0  0  0  0  0  0
  1  2  1  0
  2  3  1  0
  2  4  1  0
  4  5  1  0
  5  6  1  0
  6  7  1  0
  7  8  2  0
  8  9  1  0
  9 10  2  0
 10 11  1  0
 10 12  1  0
 12 13  2  0
 13 14  1  0
 14 15  2  0
 15 16  1  0
 16 17  2  0
  9 18  1  0
 18 19  1  0
 19 20  1  0
 20 21  2  0
 17  7  1  0
 21  8  1  0
 17 12  1  0
  1 22  1  0
  1 23  1  0
  1 24  1  0
  3 25  1  0
  3 26  1  0
  3 27  1  0
  4 28  1  0
  4 29  1  0
  5 30  1  0
  5 31  1  0
  6 32  1  0
 11 33  1  0
 11 34  1  0
 11 35  1  0
 13 36  1  0
 14 37  1  0
 15 38  1  0
 16 39  1  0
 18 40  1  0
 18 41  1  0
 19 42  1  0
 19 43  1  0
 20 44  1  0
M  CHG  1  10   1
M  END
>  <smiles>  (17) 
CN(C)CCNc1c2c([n+](C)c3ccccc13)CCC=N2

>  <score_type>  (17) 
oracle

>  <origin>  (17) 
adg

>  <m_score__min__energy>  (17) 
-5.29

>  <m_primary>  (17) 
energy

$$$$
18:0
     RDKit          3D

 39 41  0  0  0  0  0  0  0  0999 V2000
   55.8190   26.2420   46.0490 C   0  0  0  0  0  0  0  0  0  0  0  0
   56.6050   25.2120   45.4040 N   0  0  0  0  0  0  0  0  0  0  0  0
   57.9550   25.1170   45.1960 C   0  0  0  0  0  0  0  0  0  0  0  0
   58.8540   26.1610   45.6270 C   0  0  0  0  0  0  0  0  0  0  0  0
   59.7990   25.7920   46.3960 O   0  0  0  0  0  0  0  0  0  0  0  0
   58.8320   27.5360   45.3150 N   0  0  0  0  0  0  0  0  0  0  0  0
   57.9790   28.3000   44.4800 C   0  0  0  0  0  0  0  0  0  0  0  0
   57.3560   29.4280   45.3160 C   0  0  0  0  0  0  0  0  0  0  0  0
   58.4630   30.3210   45.5740 N   0  0  0  0  0  0  0  0  0  0  0  0
   58.3600   31.7320   45.6080 C   0  0  0  0  0  0  0  0  0  0  0  0
   58.5790   32.4070   46.7920 C   0  0  0  0  0  0  0  0  0  0  0  0
   58.4950   33.7830   46.9030 C   0  0  0  0  0  0  0  0  0  0  0  0
   58.1830   34.5350   45.7970 C   0  0  0  0  0  0  0  0  0  0  0  0
   57.9640   33.8490   44.6170 C   0  0  0  0  0  0  0  0  0  0  0  0
   58.0450   32.4810   44.4990 C   0  0  0  0  0  0  0  0  0  0  0  0
   57.7630   31.6520   42.9620 Cl  0  0  0  0  0  0  0  0  0  0  0  0
   59.7970   29.7830   45.8120 C   0  0  0  0  0  0  0  0  0  0  0  0
   59.8890   28.3290   46.0100 C   0  0  0  0  0  0  0  0  0  0  0  0
   58.1530   23.9370   44.5300 C   0  0  0  0  0  0  0  0  0  0  0  0
   56.9420   23.2810   44.3110 C   0  0  0  0  0  0  0  0  0  0  0  0
   56.6470   21.6230   43.4330 Br  0  0  0  0  0  0  0  0  0  0  0  0
   56.0030   24.1030   44.8690 C   0  0  0  0  0  0  0  0  0  0  0  0
   54.1400   23.7130   44.8680 Br  0  0  0  0  0  0  0  0  0  0  0  0
   55.9003   26.1355   47.1408 H   0  0  0  0  0  0  0  0  0  0  0  0
   56.1937   27.2315   45.7482 H   0  0  0  0  0  0  0  0  0  0  0  0
   54.7657   26.1418   45.7482 H   0  0  0  0  0  0  0  0  0  0  0  0
   58.5603   28.7307   43.6514 H   0  0  0  0  0  0  0  0  0  0  0  0
   57.1873   27.6590   44.0648 H   0  0  0  0  0  0  0  0  0  0  0  0
   56.5627   29.9407   44.7523 H   0  0  0  0  0  0  0  0  0  0  0  0
   56.8830   29.0608   46.2387 H   0  0  0  0  0  0  0  0  0  0  0  0
   58.8322   31.8232   47.6892 H   0  0  0  0  0  0  0  0  0  0  0  0
   58.6770   34.2721   47.8713 H   0  0  0  0  0  0  0  0  0  0  0  0
   58.1108   35.6315   45.8477 H   0  0  0  0  0  0  0  0  0  0  0  0
   57.7099   34.4317   43.7192 H   0  0  0  0  0  0  0  0  0  0  0  0
   60.4225   30.0431   44.9453 H   0  0  0  0  0  0  0  0  0  0  0  0
   60.1271   30.2290   46.7618 H   0  0  0  0  0  0  0  0  0  0  0  0
   60.8686   27.9940   45.6382 H   0  0  0  0  0  0  0  0  0  0  0  0
   59.7512   28.1531   47.0871 H   0  0  0  0  0  0  0  0  0  0  0  0
   59.1349   23.5577   44.2108 H   0  0  0  0  0  0  0  0  0  0  0  0
  1  2  1  0
  2  3  1  0
  3  4  1  0
  4  5  2  0
  4  6  1  0
  6  7  1  0
  7  8  1  0
  8  9  1  0
  9 10  1  0
 10 11  2  0
 11 12  1  0
 12 13  2  0
 13 14  1  0
 14 15  2  0
 15 16  1  0
  9 17  1  0
 17 18  1  0
  3 19  2  0
 19 20  1  0
 20 21  1  0
 20 22  2  0
 22 23  1  0
 22  2  1  0
 18  6  1  0
 15 10  1  0
  1 24  1  0
  1 25  1  0
  1 26  1  0
  7 27  1  0
  7 28  1  0
  8 29  1  0
  8 30  1  0
 11 31  1  0
 12 32  1  0
 13 33  1  0
 14 34  1  0
 17 35  1  0
 17 36  1  0
 18 37  1  0
 18 38  1  0
 19 39  1  0
M  END
>  <smiles>  (18) 
Cn1c(C(=O)N2CCN(c3ccccc3Cl)CC2)cc(Br)c1Br

>  <score_type>  (18) 
oracle

>  <origin>  (18) 
adg

>  <m_score__min__energy>  (18) 
-7.79

>  <m_primary>  (18) 
energy

$$$$
19:0
     RDKit          3D

 62 66  0  0  0  0  0  0  0  0999 V2000
   63.3910   33.8270   46.3880 C   0  0  0  0  0  0  0  0  0  0  0  0
   63.0740   32.8500   47.4950 C   0  0  0  0  0  0  0  0  0  0  0  0
   63.4400   33.2720   48.7800 N   0  0  0  0  0  0  0  0  0  0  0  0
   64.6810   32.9090   49.3200 C   0  0  0  0  0  0  0  0  0  0  0  0
   64.5230   31.7910   50.3560 C   0  0  0  0  0  0  0  0  0  0  0  0
   62.6520   34.2500   49.4400 C   0  0  0  0  0  0  0  0  0  0  0  0
   61.2830   34.3370   48.8850 C   0  0  0  0  0  0  0  0  0  0  0  0
   60.2900   33.4110   49.2640 N   0  0  0  0  0  0  0  0  0  0  0  0
   59.8930   32.2260   48.6010 C   0  0  0  0  0  0  0  0  0  0  0  0
   59.1860   32.1440   47.4220 C   0  0  0  0  0  0  0  0  0  0  0  0
   58.8460   30.8710   46.9250 C   0  0  0  0  0  0  0  0  0  0  0  0
   59.1850   29.7460   47.5780 N   0  0  0  0  0  0  0  0  0  0  0  0
   58.6100   28.4650   47.2460 C   0  0  0  0  0  0  0  0  0  0  0  0
   59.8890   29.7990   48.7400 C   0  0  0  0  0  0  0  0  0  0  0  0
   60.2400   31.0330   49.2490 C   0  0  0  0  0  0  0  0  0  0  0  0
   60.9850   30.8600   50.5000 C   0  0  0  0  0  0  0  0  0  0  0  0
   61.1300   29.4040   50.6840 C   0  0  0  0  0  0  0  0  0  0  0  0
   61.7940   28.7140   51.6740 C   0  0  0  0  0  0  0  0  0  0  0  0
   61.8120   27.3400   51.6600 C   0  0  0  0  0  0  0  0  0  0  0  0
   61.1460   26.7050   50.6300 C   0  0  0  0  0  0  0  0  0  0  0  0
   60.4760   27.4210   49.6320 C   0  0  0  0  0  0  0  0  0  0  0  0
   60.4570   28.8070   49.6450 C   0  0  0  0  0  0  0  0  0  0  0  0
   58.1820   30.8650   45.6230 C   0  0  0  0  0  0  0  0  0  0  0  0
   57.9380   29.6770   44.9700 C   0  0  0  0  0  0  0  0  0  0  0  0
   57.3970   29.6480   43.6650 C   0  0  0  0  0  0  0  0  0  0  0  0
   57.1070   30.8030   43.0130 C   0  0  0  0  0  0  0  0  0  0  0  0
   57.3430   31.9940   43.6330 C   0  0  0  0  0  0  0  0  0  0  0  0
   57.8750   32.0100   44.9210 C   0  0  0  0  0  0  0  0  0  0  0  0
   58.1160   33.3550   45.4840 C   0  0  0  0  0  0  0  0  0  0  0  0
   58.8230   33.3950   46.7620 C   0  0  0  0  0  0  0  0  0  0  0  0
   63.7026   34.7874   46.8246 H   0  0  0  0  0  0  0  0  0  0  0  0
   64.2050   33.4255   45.7665 H   0  0  0  0  0  0  0  0  0  0  0  0
   62.4964   33.9798   45.7665 H   0  0  0  0  0  0  0  0  0  0  0  0
   61.9888   32.6702   47.4911 H   0  0  0  0  0  0  0  0  0  0  0  0
   63.6671   31.9471   47.2874 H   0  0  0  0  0  0  0  0  0  0  0  0
   65.3373   32.5585   48.5098 H   0  0  0  0  0  0  0  0  0  0  0  0
   65.1178   33.7880   49.8166 H   0  0  0  0  0  0  0  0  0  0  0  0
   64.5833   32.2177   51.3681 H   0  0  0  0  0  0  0  0  0  0  0  0
   63.5468   31.3020   50.2218 H   0  0  0  0  0  0  0  0  0  0  0  0
   65.3254   31.0507   50.2218 H   0  0  0  0  0  0  0  0  0  0  0  0
   62.5853   33.9895   50.5066 H   0  0  0  0  0  0  0  0  0  0  0  0
   63.1366   35.2267   49.2943 H   0  0  0  0  0  0  0  0  0  0  0  0
   60.9000   35.3336   49.1498 H   0  0  0  0  0  0  0  0  0  0  0  0
   61.4365   34.1079   47.8201 H   0  0  0  0  0  0  0  0  0  0  0  0
   59.7470   33.6030   50.1700 H   0  0  0  0  0  0  0  0  0  0  0  0
   58.3662   27.9218   48.1709 H   0  0  0  0  0  0  0  0  0  0  0  0
   57.6934   28.6161   46.6570 H   0  0  0  0  0  0  0  0  0  0  0  0
   59.3321   27.8805   46.6570 H   0  0  0  0  0  0  0  0  0  0  0  0
   61.9735   31.3370   50.4261 H   0  0  0  0  0  0  0  0  0  0  0  0
   60.4632   31.3251   51.3493 H   0  0  0  0  0  0  0  0  0  0  0  0
   62.3098   29.2627   52.4758 H   0  0  0  0  0  0  0  0  0  0  0  0
   62.3367   26.7678   52.4393 H   0  0  0  0  0  0  0  0  0  0  0  0
   61.1422   25.6056   50.5933 H   0  0  0  0  0  0  0  0  0  0  0  0
   59.9583   26.8778   48.8277 H   0  0  0  0  0  0  0  0  0  0  0  0
   58.1698   28.7284   45.4764 H   0  0  0  0  0  0  0  0  0  0  0  0
   57.2093   28.6820   43.1735 H   0  0  0  0  0  0  0  0  0  0  0  0
   56.6867   30.7781   41.9968 H   0  0  0  0  0  0  0  0  0  0  0  0
   57.1143   32.9390   43.1185 H   0  0  0  0  0  0  0  0  0  0  0  0
   58.7085   33.9250   44.7532 H   0  0  0  0  0  0  0  0  0  0  0  0
   57.1198   33.7776   45.6818 H   0  0  0  0  0  0  0  0  0  0  0  0
   59.7572   33.9508   46.5937 H   0  0  0  0  0  0  0  0  0  0  0  0
   58.0913   33.8464   47.4482 H   0  0  0  0  0  0  0  0  0  0  0  0
  1  2  1  0
  2  3  1  0
  3  4  1  0
  4  5  1  0
  3  6  1  0
  6  7  1  0
  7  8  1  0
  8  9  1  0
  9 10  2  0
 10 11  1  0
 11 12  2  0
 12 13  1  0
 12 14  1  0
 14 15  2  0
 15 16  1  0
 16 17  1  0
 17 18  2  0
 18 19  1  0
 19 20  2  0
 20 21  1  0
 21 22  2  0
 11 23  1  0
 23 24  2  0
 24 25  1  0
 25 26  2  0
 26 27  1  0
 27 28  2  0
 28 29  1  0
 29 30  1  0
 15  9  1  0
 22 17  1  0
 28 23  1  0
 30 10  1  0
 22 14  1  0
  1 31  1  0
  1 32  1  0
  1 33  1  0
  2 34  1  0
  2 35  1  0
  4 36  1  0
  4 37  1  0
  5 38  1  0
  5 39  1  0
  5 40  1  0
  6 41  1  0
  6 42  1  0
  7 43  1  0
  7 44  1  0
  8 45  1  0
 13 46  1  0
 13 47  1  0
 13 48  1  0
 16 49  1  0
 16 50  1  0
 18 51  1  0
 19 52  1  0
 20 53  1  0
 21 54  1  0
 24 55  1  0
 25 56  1  0
 26 57  1  0
 27 58  1  0
 29 59  1  0
 29 60  1  0
 30 61  1  0
 30 62  1  0
M  CHG  1  12   1
M  END
>  <smiles>  (19) 
CCN(CC)CCNc1c2c([n+](C)c3c1Cc1ccccc1-3)-c1ccccc1CC2

>  <score_type>  (19) 
oracle

>  <origin>  (19) 
adg

>  <m_score__min__energy>  (19) 
-6.7400000000000002

>  <m_primary>  (19) 
energy

$$$$
20:0
     RDKit          3D

 60 62  0  0  0  0  0  0  0  0999 V2000
   58.8940   32.6980   50.6160 C   0  0  0  0  0  0  0  0  0  0  0  0
   60.1370   33.5640   50.5070 C   0  0  0  0  0  0  0  0  0  0  0  0
   60.3810   34.0110   49.1100 C   0  0  0  0  0  0  0  0  0  0  0  0
   60.1970   33.0900   48.0960 O   0  0  0  0  0  0  0  0  0  0  0  0
   59.5200   33.2980   46.9300 C   0  0  0  0  0  0  0  0  0  0  0  0
   59.1710   34.5220   46.4090 C   0  0  0  0  0  0  0  0  0  0  0  0
   58.4840   34.5970   45.2150 C   0  0  0  0  0  0  0  0  0  0  0  0
   58.1320   33.4660   44.5160 C   0  0  0  0  0  0  0  0  0  0  0  0
   58.4690   32.2220   45.0110 C   0  0  0  0  0  0  0  0  0  0  0  0
   59.1510   32.1850   46.2000 C   0  0  0  0  0  0  0  0  0  0  0  0
   59.4670   30.9050   46.6660 C   0  0  0  0  0  0  0  0  0  0  0  0
   60.1930   30.6840   47.8650 N   0  0  0  0  0  0  0  0  0  0  0  0
   59.6570   29.8460   48.9360 C   0  0  0  0  0  0  0  0  0  0  0  0
   60.7880   29.1540   49.6700 C   0  0  0  0  0  0  0  0  0  0  0  0
   61.4780   30.0960   50.6370 C   0  0  0  0  0  0  0  0  0  0  0  0
   61.9690   31.1540   49.9260 O   0  0  0  0  0  0  0  0  0  0  0  0
   63.2390   31.5570   50.2350 C   0  0  0  0  0  0  0  0  0  0  0  0
   63.9250   32.2160   49.0900 C   0  0  0  0  0  0  0  0  0  0  0  0
   63.1400   31.9730   47.8810 N   0  0  0  0  0  0  0  0  0  0  0  0
   63.7010   32.7360   46.7760 C   0  0  0  0  0  0  0  0  0  0  0  0
   62.7460   33.8550   46.3980 C   0  0  0  0  0  0  0  0  0  0  0  0
   59.0800   29.8160   45.9160 C   0  0  0  0  0  0  0  0  0  0  0  0
   59.3490   28.1200   46.2720 S   0  0  0  0  0  0  0  0  0  0  0  0
   58.4860   27.5500   44.7290 C   0  0  0  0  0  0  0  0  0  0  0  0
   58.0960   28.7100   44.1260 C   0  0  0  0  0  0  0  0  0  0  0  0
   58.4010   29.8680   44.7340 C   0  0  0  0  0  0  0  0  0  0  0  0
   58.1030   31.1460   44.3010 N   0  0  0  0  0  0  0  0  0  0  0  0
   57.3870   31.3800   43.0660 C   0  0  0  0  0  0  0  0  0  0  0  0
   58.6550   32.5315   51.6767 H   0  0  0  0  0  0  0  0  0  0  0  0
   58.0500   33.2046   50.1251 H   0  0  0  0  0  0  0  0  0  0  0  0
   59.0768   31.7307   50.1251 H   0  0  0  0  0  0  0  0  0  0  0  0
   60.0104   34.4498   51.1468 H   0  0  0  0  0  0  0  0  0  0  0  0
   61.0004   32.9628   50.8281 H   0  0  0  0  0  0  0  0  0  0  0  0
   59.7039   34.8552   48.9129 H   0  0  0  0  0  0  0  0  0  0  0  0
   61.4552   34.2458   49.0786 H   0  0  0  0  0  0  0  0  0  0  0  0
   59.4403   35.4436   46.9457 H   0  0  0  0  0  0  0  0  0  0  0  0
   58.2115   35.5839   44.8128 H   0  0  0  0  0  0  0  0  0  0  0  0
   57.5840   33.5523   43.5661 H   0  0  0  0  0  0  0  0  0  0  0  0
   61.1280   31.1540   47.9340 H   0  0  0  0  0  0  0  0  0  0  0  0
   59.0948   30.4740   49.6428 H   0  0  0  0  0  0  0  0  0  0  0  0
   58.9917   29.0860   48.5003 H   0  0  0  0  0  0  0  0  0  0  0  0
   60.3808   28.3001   50.2313 H   0  0  0  0  0  0  0  0  0  0  0  0
   61.5270   28.8169   48.9282 H   0  0  0  0  0  0  0  0  0  0  0  0
   60.7569   30.4538   51.3866 H   0  0  0  0  0  0  0  0  0  0  0  0
   62.2960   29.5750   51.1562 H   0  0  0  0  0  0  0  0  0  0  0  0
   63.1889   32.2684   51.0725 H   0  0  0  0  0  0  0  0  0  0  0  0
   63.8183   30.6599   50.4989 H   0  0  0  0  0  0  0  0  0  0  0  0
   63.9990   33.2980   49.2739 H   0  0  0  0  0  0  0  0  0  0  0  0
   64.9394   31.8076   48.9709 H   0  0  0  0  0  0  0  0  0  0  0  0
   62.1780   32.2920   48.0930 H   0  0  0  0  0  0  0  0  0  0  0  0
   64.6671   33.1653   47.0798 H   0  0  0  0  0  0  0  0  0  0  0  0
   63.8505   32.0732   45.9109 H   0  0  0  0  0  0  0  0  0  0  0  0
   62.3479   34.3214   47.3112 H   0  0  0  0  0  0  0  0  0  0  0  0
   63.2824   34.6100   45.8045 H   0  0  0  0  0  0  0  0  0  0  0  0
   61.9161   33.4439   45.8045 H   0  0  0  0  0  0  0  0  0  0  0  0
   58.3266   26.5183   44.3824 H   0  0  0  0  0  0  0  0  0  0  0  0
   57.5489   28.6972   43.1718 H   0  0  0  0  0  0  0  0  0  0  0  0
   56.3639   31.7144   43.2930 H   0  0  0  0  0  0  0  0  0  0  0  0
   57.9053   32.1555   42.4830 H   0  0  0  0  0  0  0  0  0  0  0  0
   57.3473   30.4481   42.4830 H   0  0  0  0  0  0  0  0  0  0  0  0
  1  2  1  0
  2  3  1  0
  3  4  1  0
  4  5  1  0
  5  6  2  0
  6  7  1  0
  7  8  2  0
  8  9  1  0
  9 10  2  0
 10 11  1  0
 11 12  1  0
 12 13  1  0
 13 14  1  0
 14 15  1  0
 15 16  1  0
 16 17  1  0
 17 18  1  0
 18 19  1  0
 19 20  1  0
 20 21  1  0
 11 22  2  0
 22 23  1  0
 23 24  1  0
 24 25  2  0
 25 26  1  0
 26 27  2  0
 27 28  1  0
 10  5  1  0
 26 22  1  0
 27  9  1  0
  1 29  1  0
  1 30  1  0
  1 31  1  0
  2 32  1  0
  2 33  1  0
  3 34  1  0
  3 35  1  0
  6 36  1  0
  7 37  1  0
  8 38  1  0
 12 39  1  0
 13 40  1  0
 13 41  1  0
 14 42  1  0
 14 43  1  0
 15 44  1  0
 15 45  1  0
 17 46  1  0
 17 47  1  0
 18 48  1  0
 18 49  1  0
 19 50  1  0
 20 51  1  0
 20 52  1  0
 21 53  1  0
 21 54  1  0
 21 55  1  0
 24 56  1  0
 25 57  1  0
 28 58  1  0
 28 59  1  0
 28 60  1  0
M  CHG  1  27   1
M  END
>  <smiles>  (20) 
CCCOc1cccc2c1c(NCCCOCCNCC)c1sccc1[n+]2C

>  <score_type>  (20) 
oracle

>  <origin>  (20) 
adg

>  <m_score__min__energy>  (20) 
-4.1799999999999997

>  <m_primary>  (20) 
energy

$$$$
21:0
     RDKit          3D

 66 68  0  0  0  0  0  0  0  0999 V2000
   63.6270   31.9560   49.3900 C   0  0  0  0  0  0  0  0  0  0  0  0
   62.9940   31.9160   48.0480 C   0  0  0  0  0  0  0  0  0  0  0  0
   61.7230   32.6510   47.9470 N   0  0  0  0  0  0  0  0  0  0  0  0
   61.9670   33.7730   47.1140 C   0  0  0  0  0  0  0  0  0  0  0  0
   63.2930   33.8380   46.4300 C   0  0  0  0  0  0  0  0  0  0  0  0
   61.2900   32.8740   49.2810 C   0  0  0  0  0  0  0  0  0  0  0  0
   60.2880   33.9740   49.4990 C   0  0  0  0  0  0  0  0  0  0  0  0
   59.5840   33.8150   50.8400 C   0  0  0  0  0  0  0  0  0  0  0  0
   58.6270   32.8130   50.8000 O   0  0  0  0  0  0  0  0  0  0  0  0
   58.3910   32.2450   52.0450 C   0  0  0  0  0  0  0  0  0  0  0  0
   57.6380   30.9370   51.9490 C   0  0  0  0  0  0  0  0  0  0  0  0
   57.7340   30.4820   50.6580 O   0  0  0  0  0  0  0  0  0  0  0  0
   59.0240   30.1170   50.2630 C   0  0  0  0  0  0  0  0  0  0  0  0
   59.0680   29.4760   48.9200 C   0  0  0  0  0  0  0  0  0  0  0  0
   59.5850   30.3060   47.8530 N   0  0  0  0  0  0  0  0  0  0  0  0
   58.9850   30.3980   46.5670 C   0  0  0  0  0  0  0  0  0  0  0  0
   58.7490   29.3350   45.7390 C   0  0  0  0  0  0  0  0  0  0  0  0
   59.1600   28.0810   46.1300 C   0  0  0  0  0  0  0  0  0  0  0  0
   58.9700   26.9450   45.3600 C   0  0  0  0  0  0  0  0  0  0  0  0
   58.3370   27.1130   44.1530 C   0  0  0  0  0  0  0  0  0  0  0  0
   57.9150   28.3760   43.7420 C   0  0  0  0  0  0  0  0  0  0  0  0
   58.1060   29.5060   44.5070 C   0  0  0  0  0  0  0  0  0  0  0  0
   57.6950   30.7170   44.0820 N   0  0  0  0  0  0  0  0  0  0  0  0
   57.0490   30.9060   42.8140 C   0  0  0  0  0  0  0  0  0  0  0  0
   57.9180   31.7880   44.8850 C   0  0  0  0  0  0  0  0  0  0  0  0
   57.5260   33.0630   44.5270 C   0  0  0  0  0  0  0  0  0  0  0  0
   57.7510   34.1710   45.3440 C   0  0  0  0  0  0  0  0  0  0  0  0
   58.3740   34.0350   46.5430 C   0  0  0  0  0  0  0  0  0  0  0  0
   58.7780   32.7640   46.9280 C   0  0  0  0  0  0  0  0  0  0  0  0
   58.5570   31.6510   46.1190 C   0  0  0  0  0  0  0  0  0  0  0  0
   62.8476   31.9067   50.1647 H   0  0  0  0  0  0  0  0  0  0  0  0
   64.3079   31.0991   49.4999 H   0  0  0  0  0  0  0  0  0  0  0  0
   64.1946   32.8918   49.4999 H   0  0  0  0  0  0  0  0  0  0  0  0
   63.6991   32.3491   47.3232 H   0  0  0  0  0  0  0  0  0  0  0  0
   62.7602   30.8604   47.8454 H   0  0  0  0  0  0  0  0  0  0  0  0
   61.1913   33.7814   46.3341 H   0  0  0  0  0  0  0  0  0  0  0  0
   61.9545   34.6387   47.7925 H   0  0  0  0  0  0  0  0  0  0  0  0
   64.0930   33.8772   47.1840 H   0  0  0  0  0  0  0  0  0  0  0  0
   63.4253   32.9453   45.8011 H   0  0  0  0  0  0  0  0  0  0  0  0
   63.3374   34.7394   45.8011 H   0  0  0  0  0  0  0  0  0  0  0  0
   60.8399   31.9384   49.6445 H   0  0  0  0  0  0  0  0  0  0  0  0
   62.1909   33.1968   49.8234 H   0  0  0  0  0  0  0  0  0  0  0  0
   60.8080   34.9431   49.4787 H   0  0  0  0  0  0  0  0  0  0  0  0
   59.5338   33.9237   48.6998 H   0  0  0  0  0  0  0  0  0  0  0  0
   60.3310   33.5643   51.6075 H   0  0  0  0  0  0  0  0  0  0  0  0
   59.0789   34.7630   51.0771 H   0  0  0  0  0  0  0  0  0  0  0  0
   59.3569   32.0611   52.5381 H   0  0  0  0  0  0  0  0  0  0  0  0
   57.7710   32.9472   52.6217 H   0  0  0  0  0  0  0  0  0  0  0  0
   58.0799   30.2013   52.6371 H   0  0  0  0  0  0  0  0  0  0  0  0
   56.5829   31.0844   52.2230 H   0  0  0  0  0  0  0  0  0  0  0  0
   59.6510   31.0205   50.2396 H   0  0  0  0  0  0  0  0  0  0  0  0
   59.3909   29.3774   50.9899 H   0  0  0  0  0  0  0  0  0  0  0  0
   59.7032   28.5808   48.9918 H   0  0  0  0  0  0  0  0  0  0  0  0
   58.0234   29.2565   48.6544 H   0  0  0  0  0  0  0  0  0  0  0  0
   60.4560   30.9010   47.9800 H   0  0  0  0  0  0  0  0  0  0  0  0
   59.6643   27.9755   47.1019 H   0  0  0  0  0  0  0  0  0  0  0  0
   59.3101   25.9555   45.6994 H   0  0  0  0  0  0  0  0  0  0  0  0
   58.1613   26.2422   43.5043 H   0  0  0  0  0  0  0  0  0  0  0  0
   57.4101   28.4746   42.7697 H   0  0  0  0  0  0  0  0  0  0  0  0
   56.0048   31.2115   42.9764 H   0  0  0  0  0  0  0  0  0  0  0  0
   57.5758   31.6877   42.2470 H   0  0  0  0  0  0  0  0  0  0  0  0
   57.0714   29.9637   42.2470 H   0  0  0  0  0  0  0  0  0  0  0  0
   57.0179   33.2101   43.5625 H   0  0  0  0  0  0  0  0  0  0  0  0
   57.4199   35.1665   45.0132 H   0  0  0  0  0  0  0  0  0  0  0  0
   58.5532   34.9063   47.1900 H   0  0  0  0  0  0  0  0  0  0  0  0
   59.2850   32.6321   47.8953 H   0  0  0  0  0  0  0  0  0  0  0  0
  1  2  1  0
  2  3  1  0
  3  4  1  0
  4  5  1  0
  3  6  1  0
  6  7  1  0
  7  8  1  0
  8  9  1  0
  9 10  1  0
 10 11  1  0
 11 12  1  0
 12 13  1  0
 13 14  1  0
 14 15  1  0
 15 16  1  0
 16 17  2  0
 17 18  1  0
 18 19  2  0
 19 20  1  0
 20 21  2  0
 21 22  1  0
 22 23  2  0
 23 24  1  0
 23 25  1  0
 25 26  2  0
 26 27  1  0
 27 28  2  0
 28 29  1  0
 29 30  2  0
 30 16  1  0
 22 17  1  0
 30 25  1  0
  1 31  1  0
  1 32  1  0
  1 33  1  0
  2 34  1  0
  2 35  1  0
  4 36  1  0
  4 37  1  0
  5 38  1  0
  5 39  1  0
  5 40  1  0
  6 41  1  0
  6 42  1  0
  7 43  1  0
  7 44  1  0
  8 45  1  0
  8 46  1  0
 10 47  1  0
 10 48  1  0
 11 49  1  0
 11 50  1  0
 13 51  1  0
 13 52  1  0
 14 53  1  0
 14 54  1  0
 15 55  1  0
 18 56  1  0
 19 57  1  0
 20 58  1  0
 21 59  1  0
 24 60  1  0
 24 61  1  0
 24 62  1  0
 26 63  1  0
 27 64  1  0
 28 65  1  0
 29 66  1  0
M  CHG  1  23   1
M  END
>  <smiles>  (21) 
CCN(CC)CCCOCCOCCNc1c2ccccc2[n+](C)c2ccccc12

>  <score_type>  (21) 
oracle

>  <origin>  (21) 
adg

>  <m_score__min__energy>  (21) 
-5.8399999999999999

>  <m_primary>  (21) 
energy

$$$$
22:0
     RDKit          3D

 50 52  0  0  0  0  0  0  0  0999 V2000
   56.7580   29.2860   45.0000 O   0  0  0  0  0  0  0  0  0  0  0  0
   57.9630   28.9500   45.1880 C   0  0  0  0  0  0  0  0  0  0  0  0
   58.9950   29.9970   45.3890 C   0  0  0  0  0  0  0  0  0  0  0  0
   59.5270   30.0520   46.7680 C   0  0  0  0  0  0  0  0  0  0  0  0
   59.2040   31.2760   47.5620 C   0  0  0  0  0  0  0  0  0  0  0  0
   58.7760   32.4120   46.8700 N   0  0  0  0  0  0  0  0  0  0  0  0
   59.5530   33.8690   47.0740 S   0  0  0  0  0  0  0  0  0  0  0  0
   59.3390   34.7420   45.8700 O   0  0  0  0  0  0  0  0  0  0  0  0
   58.8820   34.6110   48.2230 O   0  0  0  0  0  0  0  0  0  0  0  0
   61.2460   33.8050   47.4550 C   0  0  0  0  0  0  0  0  0  0  0  0
   61.6640   33.7870   48.7730 C   0  0  0  0  0  0  0  0  0  0  0  0
   63.0010   33.7370   49.1240 C   0  0  0  0  0  0  0  0  0  0  0  0
   63.9500   33.7060   48.0970 C   0  0  0  0  0  0  0  0  0  0  0  0
   63.5420   33.7250   46.7600 C   0  0  0  0  0  0  0  0  0  0  0  0
   62.1930   33.7740   46.4410 C   0  0  0  0  0  0  0  0  0  0  0  0
   57.8940   32.2370   45.7850 C   0  0  0  0  0  0  0  0  0  0  0  0
   58.5050   31.2930   44.8070 C   0  0  0  0  0  0  0  0  0  0  0  0
   58.2350   27.5590   45.1900 N   0  0  0  0  0  0  0  0  0  0  0  0
   57.0750   26.7300   44.9790 C   0  0  0  0  0  0  0  0  0  0  0  0
   56.4890   26.4550   46.3530 C   0  0  0  0  0  0  0  0  0  0  0  0
   57.3010   25.5010   47.1720 C   0  0  0  0  0  0  0  0  0  0  0  0
   58.6090   25.1000   46.5660 C   0  0  0  0  0  0  0  0  0  0  0  0
   59.6450   26.1860   46.6010 C   0  0  0  0  0  0  0  0  0  0  0  0
   59.5880   27.0950   45.3900 C   0  0  0  0  0  0  0  0  0  0  0  0
   59.9026   29.7310   44.8273 H   0  0  0  0  0  0  0  0  0  0  0  0
   59.1277   29.1849   47.3145 H   0  0  0  0  0  0  0  0  0  0  0  0
   60.6213   30.0594   46.6563 H   0  0  0  0  0  0  0  0  0  0  0  0
   58.4078   31.0054   48.2711 H   0  0  0  0  0  0  0  0  0  0  0  0
   60.1628   31.5730   48.0119 H   0  0  0  0  0  0  0  0  0  0  0  0
   60.9067   33.8134   49.5703 H   0  0  0  0  0  0  0  0  0  0  0  0
   63.3089   33.7221   50.1799 H   0  0  0  0  0  0  0  0  0  0  0  0
   65.0216   33.6665   48.3423 H   0  0  0  0  0  0  0  0  0  0  0  0
   64.2940   33.7010   45.9575 H   0  0  0  0  0  0  0  0  0  0  0  0
   61.8750   33.7882   45.3881 H   0  0  0  0  0  0  0  0  0  0  0  0
   56.9407   31.8254   46.1480 H   0  0  0  0  0  0  0  0  0  0  0  0
   57.7084   33.2059   45.2984 H   0  0  0  0  0  0  0  0  0  0  0  0
   57.7495   31.0587   44.0426 H   0  0  0  0  0  0  0  0  0  0  0  0
   59.3933   31.8024   44.4052 H   0  0  0  0  0  0  0  0  0  0  0  0
   56.3410   27.2556   44.3506 H   0  0  0  0  0  0  0  0  0  0  0  0
   57.3413   25.7949   44.4645 H   0  0  0  0  0  0  0  0  0  0  0  0
   56.4185   27.4080   46.8978 H   0  0  0  0  0  0  0  0  0  0  0  0
   55.5053   25.9883   46.1961 H   0  0  0  0  0  0  0  0  0  0  0  0
   57.5062   25.9746   48.1434 H   0  0  0  0  0  0  0  0  0  0  0  0
   56.7045   24.5802   47.2515 H   0  0  0  0  0  0  0  0  0  0  0  0
   58.9967   24.2315   47.1186 H   0  0  0  0  0  0  0  0  0  0  0  0
   58.4175   24.8705   45.5074 H   0  0  0  0  0  0  0  0  0  0  0  0
   59.4858   26.7939   47.5039 H   0  0  0  0  0  0  0  0  0  0  0  0
   60.6320   25.7005   46.6030 H   0  0  0  0  0  0  0  0  0  0  0  0
   60.2503   27.9585   45.5500 H   0  0  0  0  0  0  0  0  0  0  0  0
   59.9157   26.5365   44.5008 H   0  0  0  0  0  0  0  0  0  0  0  0
  1  2  2  0
  2  3  1  0
  3  4  1  0
  4  5  1  0
  5  6  1  0
  6  7  1  0
  7  8  2  0
  7  9  2  0
  7 10  1  0
 10 11  2  0
 11 12  1  0
 12 13  2  0
 13 14  1  0
 14 15  2  0
  6 16  1  0
 16 17  1  0
  2 18  1  0
 18 19  1  0
 19 20  1  0
 20 21  1  0
 21 22  1  0
 22 23  1  0
 23 24  1  0
 17  3  1  0
 24 18  1  0
 15 10  1  0
  3 25  1  0
  4 26  1  0
  4 27  1  0
  5 28  1  0
  5 29  1  0
 11 30  1  0
 12 31  1  0
 13 32  1  0
 14 33  1  0
 15 34  1  0
 16 35  1  0
 16 36  1  0
 17 37  1  0
 17 38  1  0
 19 39  1  0
 19 40  1  0
 20 41  1  0
 20 42  1  0
 21 43  1  0
 21 44  1  0
 22 45  1  0
 22 46  1  0
 23 47  1  0
 23 48  1  0
 24 49  1  0
 24 50  1  0
M  END
>  <smiles>  (22) 
O=C(C1CCN(S(=O)(=O)c2ccccc2)CC1)N1CCCCCC1

>  <score_type>  (22) 
oracle

>  <origin>  (22) 
adg

>  <m_score__min__energy>  (22) 
-6.4100000000000001

>  <m_primary>  (22) 
energy

$$$$
23:0
     RDKit          3D

 88 92  0  0  1  0  0  0  0  0999 V2000
   63.6530   32.9170   49.6820 C   0  0  0  0  0  0  0  0  0  0  0  0
   63.6530   32.0880   48.4250 C   0  0  0  0  0  0  0  0  0  0  0  0
   62.3540   32.0470   47.8660 N   0  0  0  0  0  0  0  0  0  0  0  0
   62.1520   33.1510   46.9590 C   0  0  0  0  0  0  0  0  0  0  0  0
   63.3780   33.8150   46.4540 C   0  0  0  0  0  0  0  0  0  0  0  0
   61.8140   30.8230   47.4630 C   0  0  0  0  0  0  0  0  0  0  0  0
   60.9120   30.0740   48.3570 C   0  0  0  0  0  0  0  0  0  0  0  0
   59.6680   29.5670   47.8740 N   0  0  0  0  0  0  0  0  0  0  0  0
   59.0540   29.9010   46.6320 C   0  0  0  0  0  0  0  0  0  0  0  0
   58.7150   28.9740   45.6730 C   0  0  0  0  0  0  0  0  0  0  0  0
   59.0610   27.6560   45.8360 C   0  0  0  0  0  0  0  0  0  0  0  0
   58.7990   26.6550   44.9410 C   0  0  0  0  0  0  0  0  0  0  0  0
   58.1370   26.9920   43.7820 C   0  0  0  0  0  0  0  0  0  0  0  0
   57.7640   28.3230   43.5670 C   0  0  0  0  0  0  0  0  0  0  0  0
   58.0510   29.3030   44.4990 C   0  0  0  0  0  0  0  0  0  0  0  0
   57.7040   30.5740   44.2470 N   0  0  0  0  0  0  0  0  0  0  0  0
   57.0030   31.0200   43.0720 C   0  0  0  0  0  0  0  0  0  0  0  0
   58.0200   31.5370   45.1620 C   0  0  0  0  0  0  0  0  0  0  0  0
   57.6820   32.8610   44.9140 C   0  0  0  0  0  0  0  0  0  0  0  0
   57.9970   33.8520   45.8160 C   0  0  0  0  0  0  0  0  0  0  0  0
   58.6660   33.5660   47.0130 C   0  0  0  0  0  0  0  0  0  0  0  0
   58.9300   34.6060   47.8380 O   0  0  0  0  0  0  0  0  0  0  0  0
   59.6790   34.7190   48.9850 C   0  0  0  0  0  0  0  0  0  0  0  0
   60.2040   33.4810   49.6150 C   0  0  0  0  0  0  0  0  0  0  0  0
   59.5710   33.0970   50.8570 N   0  0  2  0  0  0  0  0  0  0  0  0
   59.0500   34.1780   51.6320 C   0  0  0  0  0  0  0  0  0  0  0  0
   60.5410   32.4000   51.6660 C   0  0  0  0  0  0  0  0  0  0  0  0
   60.0270   31.0020   51.8190 C   0  0  0  0  0  0  0  0  0  0  0  0
   58.6370   31.0640   51.5410 N   0  0  1  0  0  0  0  0  0  0  0  0
   58.1820   29.8710   50.8000 C   0  0  0  0  0  0  0  0  0  0  0  0
   57.8450   31.2250   52.7290 C   0  0  0  0  0  0  0  0  0  0  0  0
   56.5870   30.4710   52.7550 C   0  0  0  0  0  0  0  0  0  0  0  0
   56.4170   29.2370   53.3470 C   0  0  0  0  0  0  0  0  0  0  0  0
   55.1830   28.5830   53.3280 C   0  0  0  0  0  0  0  0  0  0  0  0
   54.0890   29.1720   52.7050 C   0  0  0  0  0  0  0  0  0  0  0  0
   54.2460   30.4030   52.1110 C   0  0  0  0  0  0  0  0  0  0  0  0
   52.7330   31.2170   51.2500 Br  0  0  0  0  0  0  0  0  0  0  0  0
   55.4790   31.0240   52.1460 C   0  0  0  0  0  0  0  0  0  0  0  0
   58.4930   32.1550   50.6210 C   0  0  0  0  0  0  0  0  0  0  0  0
   58.9830   32.2450   47.2200 C   0  0  0  0  0  0  0  0  0  0  0  0
   58.6830   31.2250   46.3400 C   0  0  0  0  0  0  0  0  0  0  0  0
   64.6901   33.1189   49.9881 H   0  0  0  0  0  0  0  0  0  0  0  0
   63.1345   33.8686   49.4936 H   0  0  0  0  0  0  0  0  0  0  0  0
   63.1345   32.3691   50.4826 H   0  0  0  0  0  0  0  0  0  0  0  0
   64.3479   32.5321   47.6970 H   0  0  0  0  0  0  0  0  0  0  0  0
   63.9701   31.0638   48.6709 H   0  0  0  0  0  0  0  0  0  0  0  0
   61.5923   32.7739   46.0904 H   0  0  0  0  0  0  0  0  0  0  0  0
   61.6202   33.9177   47.5416 H   0  0  0  0  0  0  0  0  0  0  0  0
   63.9917   34.1474   47.3042 H   0  0  0  0  0  0  0  0  0  0  0  0
   63.9536   33.1053   45.8416 H   0  0  0  0  0  0  0  0  0  0  0  0
   63.0981   34.6848   45.8416 H   0  0  0  0  0  0  0  0  0  0  0  0
   61.2521   31.0156   46.5372 H   0  0  0  0  0  0  0  0  0  0  0  0
   62.6976   30.1710   47.3992 H   0  0  0  0  0  0  0  0  0  0  0  0
   61.4822   29.2091   48.7270 H   0  0  0  0  0  0  0  0  0  0  0  0
   60.6012   30.8350   49.0879 H   0  0  0  0  0  0  0  0  0  0  0  0
   59.1170   28.8780   48.4570 H   0  0  0  0  0  0  0  0  0  0  0  0
   59.5914   27.3826   46.7601 H   0  0  0  0  0  0  0  0  0  0  0  0
   59.1064   25.6178   45.1404 H   0  0  0  0  0  0  0  0  0  0  0  0
   57.9035   26.2219   43.0320 H   0  0  0  0  0  0  0  0  0  0  0  0
   57.2341   28.5941   42.6420 H   0  0  0  0  0  0  0  0  0  0  0  0
   56.1100   31.5882   43.3714 H   0  0  0  0  0  0  0  0  0  0  0  0
   57.6637   31.6641   42.4732 H   0  0  0  0  0  0  0  0  0  0  0  0
   56.6995   30.1486   42.4732 H   0  0  0  0  0  0  0  0  0  0  0  0
   57.1553   33.1214   43.9840 H   0  0  0  0  0  0  0  0  0  0  0  0
   57.7171   34.8919   45.5918 H   0  0  0  0  0  0  0  0  0  0  0  0
   60.5450   35.3536   48.7457 H   0  0  0  0  0  0  0  0  0  0  0  0
   58.9738   35.1201   49.7278 H   0  0  0  0  0  0  0  0  0  0  0  0
   60.0745   32.6556   48.8995 H   0  0  0  0  0  0  0  0  0  0  0  0
   61.2545   33.6916   49.8643 H   0  0  0  0  0  0  0  0  0  0  0  0
   59.1606   33.9486   52.7021 H   0  0  0  0  0  0  0  0  0  0  0  0
   59.6032   35.0988   51.3953 H   0  0  0  0  0  0  0  0  0  0  0  0
   57.9850   34.3190   51.3953 H   0  0  0  0  0  0  0  0  0  0  0  0
   61.5210   32.3938   51.1664 H   0  0  0  0  0  0  0  0  0  0  0  0
   60.6745   32.8881   52.6427 H   0  0  0  0  0  0  0  0  0  0  0  0
   60.5295   30.3300   51.1077 H   0  0  0  0  0  0  0  0  0  0  0  0
   60.2189   30.6103   52.8288 H   0  0  0  0  0  0  0  0  0  0  0  0
   57.8835   29.0883   51.5129 H   0  0  0  0  0  0  0  0  0  0  0  0
   57.3226   30.1379   50.1675 H   0  0  0  0  0  0  0  0  0  0  0  0
   59.0009   29.4978   50.1675 H   0  0  0  0  0  0  0  0  0  0  0  0
   58.4519   30.9017   53.5876 H   0  0  0  0  0  0  0  0  0  0  0  0
   57.5617   32.2874   52.7620 H   0  0  0  0  0  0  0  0  0  0  0  0
   57.2723   28.7572   53.8452 H   0  0  0  0  0  0  0  0  0  0  0  0
   55.0766   27.5988   53.8076 H   0  0  0  0  0  0  0  0  0  0  0  0
   53.1142   28.6626   52.6872 H   0  0  0  0  0  0  0  0  0  0  0  0
   55.5830   32.0077   51.6648 H   0  0  0  0  0  0  0  0  0  0  0  0
   58.5466   31.7799   49.5883 H   0  0  0  0  0  0  0  0  0  0  0  0
   57.5207   32.6480   50.7679 H   0  0  0  0  0  0  0  0  0  0  0  0
   59.5110   31.9831   48.1488 H   0  0  0  0  0  0  0  0  0  0  0  0
  1  2  1  0
  2  3  1  0
  3  4  1  0
  4  5  1  0
  3  6  1  0
  6  7  1  0
  7  8  1  0
  8  9  1  0
  9 10  2  0
 10 11  1  0
 11 12  2  0
 12 13  1  0
 13 14  2  0
 14 15  1  0
 15 16  2  0
 16 17  1  0
 16 18  1  0
 18 19  2  0
 19 20  1  0
 20 21  2  0
 21 22  1  0
 22 23  1  0
 23 24  1  0
 25 24  1  6
 25 26  1  0
 25 27  1  0
 27 28  1  0
 28 29  1  0
 29 30  1  6
 29 31  1  0
 31 32  1  0
 32 33  2  0
 33 34  1  0
 34 35  2  0
 35 36  1  0
 36 37  1  0
 36 38  2  0
 29 39  1  0
 21 40  1  0
 40 41  2  0
 41  9  1  0
 15 10  1  0
 41 18  1  0
 39 25  1  0
 38 32  1  0
  1 42  1  0
  1 43  1  0
  1 44  1  0
  2 45  1  0
  2 46  1  0
  4 47  1  0
  4 48  1  0
  5 49  1  0
  5 50  1  0
  5 51  1  0
  6 52  1  0
  6 53  1  0
  7 54  1  0
  7 55  1  0
  8 56  1  0
 11 57  1  0
 12 58  1  0
 13 59  1  0
 14 60  1  0
 17 61  1  0
 17 62  1  0
 17 63  1  0
 19 64  1  0
 20 65  1  0
 23 66  1  0
 23 67  1  0
 24 68  1  0
 24 69  1  0
 26 70  1  0
 26 71  1  0
 26 72  1  0
 27 73  1  0
 27 74  1  0
 28 75  1  0
 28 76  1  0
 30 77  1  0
 30 78  1  0
 30 79  1  0
 31 80  1  0
 31 81  1  0
 33 82  1  0
 34 83  1  0
 35 84  1  0
 38 85  1  0
 39 86  1  0
 39 87  1  0
 40 88  1  0
M  CHG  3  16   1  25   1  29   1
M  END
>  <smiles>  (23) 
CCN(CC)CCNc1c2ccccc2[n+](C)c2ccc(OCC[N+]3(C)CC[N+](C)(Cc4cccc(Br)c4)C3)cc12

>  <score_type>  (23) 
oracle

>  <origin>  (23) 
adg

>  <m_score__min__energy>  (23) 
-5.4800000000000004

>  <m_primary>  (23) 
energy

$$$$
24:0
     RDKit          3D

 46 48  0  0  0  0  0  0  0  0999 V2000
   59.3900   35.0810   45.6960 C   0  0  0  0  0  0  0  0  0  0  0  0
   59.1970   33.6160   45.7460 C   0  0  0  0  0  0  0  0  0  0  0  0
   60.0350   32.7990   46.4400 C   0  0  0  0  0  0  0  0  0  0  0  0
   61.2230   33.1540   47.1590 C   0  0  0  0  0  0  0  0  0  0  0  0
   61.0490   33.6040   48.4740 C   0  0  0  0  0  0  0  0  0  0  0  0
   62.1100   33.9340   49.2880 C   0  0  0  0  0  0  0  0  0  0  0  0
   63.4040   33.8350   48.8420 C   0  0  0  0  0  0  0  0  0  0  0  0
   63.6100   33.4000   47.5700 C   0  0  0  0  0  0  0  0  0  0  0  0
   62.5220   33.0670   46.7490 C   0  0  0  0  0  0  0  0  0  0  0  0
   59.7020   31.5050   46.4520 O   0  0  0  0  0  0  0  0  0  0  0  0
   58.6550   31.0170   45.8500 C   0  0  0  0  0  0  0  0  0  0  0  0
   58.4170   29.6660   45.9340 C   0  0  0  0  0  0  0  0  0  0  0  0
   59.2320   28.8250   46.6240 F   0  0  0  0  0  0  0  0  0  0  0  0
   57.3190   29.1000   45.3100 C   0  0  0  0  0  0  0  0  0  0  0  0
   57.0550   27.6880   45.3880 N   0  0  0  0  0  0  0  0  0  0  0  0
   57.3790   26.9060   46.5650 C   0  0  0  0  0  0  0  0  0  0  0  0
   57.3320   25.4470   46.1720 C   0  0  0  0  0  0  0  0  0  0  0  0
   56.3920   25.1860   45.1170 N   0  0  0  0  0  0  0  0  0  0  0  0
   55.1720   24.5690   45.6070 C   0  0  0  0  0  0  0  0  0  0  0  0
   56.9580   24.4720   44.0050 C   0  0  0  0  0  0  0  0  0  0  0  0
   56.4560   29.9170   44.5950 C   0  0  0  0  0  0  0  0  0  0  0  0
   55.3550   29.4410   43.9580 F   0  0  0  0  0  0  0  0  0  0  0  0
   56.6670   31.2870   44.4900 C   0  0  0  0  0  0  0  0  0  0  0  0
   57.7760   31.7950   45.1310 C   0  0  0  0  0  0  0  0  0  0  0  0
   58.0540   33.1420   45.0760 C   0  0  0  0  0  0  0  0  0  0  0  0
   57.3060   33.9160   44.4460 O   0  0  0  0  0  0  0  0  0  0  0  0
   59.4424   35.4791   46.7201 H   0  0  0  0  0  0  0  0  0  0  0  0
   60.3260   35.3096   45.1654 H   0  0  0  0  0  0  0  0  0  0  0  0
   58.5451   35.5442   45.1654 H   0  0  0  0  0  0  0  0  0  0  0  0
   60.0275   33.6973   48.8712 H   0  0  0  0  0  0  0  0  0  0  0  0
   61.9168   34.2829   50.3132 H   0  0  0  0  0  0  0  0  0  0  0  0
   64.2495   34.0996   49.4940 H   0  0  0  0  0  0  0  0  0  0  0  0
   64.6355   33.3087   47.1826 H   0  0  0  0  0  0  0  0  0  0  0  0
   62.7257   32.7190   45.7256 H   0  0  0  0  0  0  0  0  0  0  0  0
   56.6150   27.2580   44.5440 H   0  0  0  0  0  0  0  0  0  0  0  0
   58.3864   27.1659   46.9223 H   0  0  0  0  0  0  0  0  0  0  0  0
   56.6627   27.1112   47.3742 H   0  0  0  0  0  0  0  0  0  0  0  0
   58.3333   25.1412   45.8346 H   0  0  0  0  0  0  0  0  0  0  0  0
   57.0075   24.8759   47.0544 H   0  0  0  0  0  0  0  0  0  0  0  0
   55.1762   24.5711   46.7070 H   0  0  0  0  0  0  0  0  0  0  0  0
   54.3025   25.1357   45.2426 H   0  0  0  0  0  0  0  0  0  0  0  0
   55.1132   23.5328   45.2426 H   0  0  0  0  0  0  0  0  0  0  0  0
   57.6007   23.6613   44.3787 H   0  0  0  0  0  0  0  0  0  0  0  0
   56.1494   24.0463   43.3927 H   0  0  0  0  0  0  0  0  0  0  0  0
   57.5570   25.1621   43.3927 H   0  0  0  0  0  0  0  0  0  0  0  0
   55.9819   31.9342   43.9227 H   0  0  0  0  0  0  0  0  0  0  0  0
  1  2  1  0
  2  3  2  0
  3  4  1  0
  4  5  2  0
  5  6  1  0
  6  7  2  0
  7  8  1  0
  8  9  2  0
  3 10  1  0
 10 11  1  0
 11 12  2  0
 12 13  1  0
 12 14  1  0
 14 15  1  0
 15 16  1  0
 16 17  1  0
 17 18  1  0
 18 19  1  0
 18 20  1  0
 14 21  2  0
 21 22  1  0
 21 23  1  0
 23 24  2  0
 24 25  1  0
 25 26  2  0
 25  2  1  0
  9  4  1  0
 24 11  1  0
  1 27  1  0
  1 28  1  0
  1 29  1  0
  5 30  1  0
  6 31  1  0
  7 32  1  0
  8 33  1  0
  9 34  1  0
 15 35  1  0
 16 36  1  0
 16 37  1  0
 17 38  1  0
 17 39  1  0
 19 40  1  0
 19 41  1  0
 19 42  1  0
 20 43  1  0
 20 44  1  0
 20 45  1  0
 23 46  1  0
M  END
>  <smiles>  (24) 
Cc1c(-c2ccccc2)oc2c(F)c(NCCN(C)C)c(F)cc2c1=O

>  <score_type>  (24) 
oracle

>  <origin>  (24) 
adg

>  <m_score__min__energy>  (24) 
-8.0299999999999994

>  <m_primary>  (24) 
energy

$$$$
25:0
     RDKit          3D

 54 56  0  0  0  0  0  0  0  0999 V2000
   59.6610   33.9230   49.4530 C   0  0  0  0  0  0  0  0  0  0  0  0
   61.0690   34.1780   48.9730 C   0  0  0  0  0  0  0  0  0  0  0  0
   61.7560   32.9670   48.7810 N   0  0  0  0  0  0  0  0  0  0  0  0
   63.1750   33.0940   48.5630 C   0  0  0  0  0  0  0  0  0  0  0  0
   63.3790   33.4140   47.0740 C   0  0  0  0  0  0  0  0  0  0  0  0
   61.3440   31.7980   49.4280 C   0  0  0  0  0  0  0  0  0  0  0  0
   60.8440   30.6400   48.6570 C   0  0  0  0  0  0  0  0  0  0  0  0
   60.7610   30.7850   47.2310 N   0  0  0  0  0  0  0  0  0  0  0  0
   59.5630   30.6180   46.4780 C   0  0  0  0  0  0  0  0  0  0  0  0
   59.0630   31.7780   45.8780 C   0  0  0  0  0  0  0  0  0  0  0  0
   59.7280   32.9810   46.0510 C   0  0  0  0  0  0  0  0  0  0  0  0
   59.2780   34.1560   45.4880 C   0  0  0  0  0  0  0  0  0  0  0  0
   58.1270   34.0920   44.7350 C   0  0  0  0  0  0  0  0  0  0  0  0
   57.4690   32.8950   44.5640 C   0  0  0  0  0  0  0  0  0  0  0  0
   57.9040   31.7020   45.1210 C   0  0  0  0  0  0  0  0  0  0  0  0
   57.2360   30.5350   44.9420 N   0  0  0  0  0  0  0  0  0  0  0  0
   56.0410   30.4860   44.1230 C   0  0  0  0  0  0  0  0  0  0  0  0
   57.7320   29.4140   45.5330 C   0  0  0  0  0  0  0  0  0  0  0  0
   57.1080   28.1920   45.4090 C   0  0  0  0  0  0  0  0  0  0  0  0
   57.5830   27.0320   46.0020 C   0  0  0  0  0  0  0  0  0  0  0  0
   56.8480   25.7560   45.8250 C   0  0  0  0  0  0  0  0  0  0  0  0
   55.4370   25.8680   45.9850 N   0  0  0  0  0  0  0  0  0  0  0  0
   58.7210   27.1210   46.7400 C   0  0  0  0  0  0  0  0  0  0  0  0
   59.4070   28.3170   46.9130 C   0  0  0  0  0  0  0  0  0  0  0  0
   58.8950   29.4510   46.3010 C   0  0  0  0  0  0  0  0  0  0  0  0
   59.6435   33.9198   50.5529 H   0  0  0  0  0  0  0  0  0  0  0  0
   58.9966   34.7154   49.0780 H   0  0  0  0  0  0  0  0  0  0  0  0
   59.3167   32.9479   49.0780 H   0  0  0  0  0  0  0  0  0  0  0  0
   61.0318   34.7269   48.0204 H   0  0  0  0  0  0  0  0  0  0  0  0
   61.6002   34.7688   49.7338 H   0  0  0  0  0  0  0  0  0  0  0  0
   63.5801   33.9078   49.1823 H   0  0  0  0  0  0  0  0  0  0  0  0
   63.6970   32.1656   48.8380 H   0  0  0  0  0  0  0  0  0  0  0  0
   63.9679   34.3378   46.9748 H   0  0  0  0  0  0  0  0  0  0  0  0
   63.9149   32.5838   46.5906 H   0  0  0  0  0  0  0  0  0  0  0  0
   62.4002   33.5495   46.5906 H   0  0  0  0  0  0  0  0  0  0  0  0
   62.2077   31.4394   50.0072 H   0  0  0  0  0  0  0  0  0  0  0  0
   60.4508   32.1271   49.9793 H   0  0  0  0  0  0  0  0  0  0  0  0
   61.5124   29.7913   48.8645 H   0  0  0  0  0  0  0  0  0  0  0  0
   59.8035   30.5078   48.9886 H   0  0  0  0  0  0  0  0  0  0  0  0
   61.6100   31.0270   46.6730 H   0  0  0  0  0  0  0  0  0  0  0  0
   60.6454   32.9991   46.6577 H   0  0  0  0  0  0  0  0  0  0  0  0
   59.8156   35.1045   45.6341 H   0  0  0  0  0  0  0  0  0  0  0  0
   57.7301   35.0046   44.2664 H   0  0  0  0  0  0  0  0  0  0  0  0
   56.5528   32.8844   43.9554 H   0  0  0  0  0  0  0  0  0  0  0  0
   55.1533   30.4496   44.7715 H   0  0  0  0  0  0  0  0  0  0  0  0
   55.9947   31.3830   43.4880 H   0  0  0  0  0  0  0  0  0  0  0  0
   56.0683   29.5882   43.4880 H   0  0  0  0  0  0  0  0  0  0  0  0
   56.1873   28.1336   44.8099 H   0  0  0  0  0  0  0  0  0  0  0  0
   57.0514   25.3783   44.8121 H   0  0  0  0  0  0  0  0  0  0  0  0
   57.2024   25.0751   46.6129 H   0  0  0  0  0  0  0  0  0  0  0  0
   54.8710   26.0010   45.1430 H   0  0  0  0  0  0  0  0  0  0  0  0
   55.1360   26.3680   46.8400 H   0  0  0  0  0  0  0  0  0  0  0  0
   59.1138   26.2117   47.2185 H   0  0  0  0  0  0  0  0  0  0  0  0
   60.3261   28.3626   47.5157 H   0  0  0  0  0  0  0  0  0  0  0  0
  1  2  1  0
  2  3  1  0
  3  4  1  0
  4  5  1  0
  3  6  1  0
  6  7  1  0
  7  8  1  0
  8  9  1  0
  9 10  2  0
 10 11  1  0
 11 12  2  0
 12 13  1  0
 13 14  2  0
 14 15  1  0
 15 16  2  0
 16 17  1  0
 16 18  1  0
 18 19  2  0
 19 20  1  0
 20 21  1  0
 21 22  1  0
 20 23  2  0
 23 24  1  0
 24 25  2  0
 25  9  1  0
 15 10  1  0
 25 18  1  0
  1 26  1  0
  1 27  1  0
  1 28  1  0
  2 29  1  0
  2 30  1  0
  4 31  1  0
  4 32  1  0
  5 33  1  0
  5 34  1  0
  5 35  1  0
  6 36  1  0
  6 37  1  0
  7 38  1  0
  7 39  1  0
  8 40  1  0
 11 41  1  0
 12 42  1  0
 13 43  1  0
 14 44  1  0
 17 45  1  0
 17 46  1  0
 17 47  1  0
 19 48  1  0
 21 49  1  0
 21 50  1  0
 22 51  1  0
 22 52  1  0
 23 53  1  0
 24 54  1  0
M  CHG  1  16   1
M  END
>  <smiles>  (25) 
CCN(CC)CCNc1c2ccccc2[n+](C)c2cc(CN)ccc12

>  <score_type>  (25) 
oracle

>  <origin>  (25) 
adg

>  <m_score__min__energy>  (25) 
-6.6200000000000001

>  <m_primary>  (25) 
energy

$$$$
26:0
     RDKit          3D

 60 62  0  0  0  0  0  0  0  0999 V2000
   61.3580   34.1850   49.7290 C   0  0  0  0  0  0  0  0  0  0  0  0
   62.5750   33.9920   48.9010 C   0  0  0  0  0  0  0  0  0  0  0  0
   62.8340   32.6530   48.4330 N   0  0  0  0  0  0  0  0  0  0  0  0
   63.3870   32.5670   47.1540 C   0  0  0  0  0  0  0  0  0  0  0  0
   63.3740   33.8710   46.3830 C   0  0  0  0  0  0  0  0  0  0  0  0
   63.3230   31.8970   49.5090 C   0  0  0  0  0  0  0  0  0  0  0  0
   62.3890   31.1320   50.3670 C   0  0  0  0  0  0  0  0  0  0  0  0
   61.8960   29.9580   49.8350 O   0  0  0  0  0  0  0  0  0  0  0  0
   60.5750   29.7550   50.2290 C   0  0  0  0  0  0  0  0  0  0  0  0
   59.5680   30.4250   49.3700 C   0  0  0  0  0  0  0  0  0  0  0  0
   60.0680   31.1190   48.2090 N   0  0  0  0  0  0  0  0  0  0  0  0
   59.4070   31.1580   46.9520 C   0  0  0  0  0  0  0  0  0  0  0  0
   58.9790   32.4010   46.5240 C   0  0  0  0  0  0  0  0  0  0  0  0
   58.3300   32.5870   45.3090 C   0  0  0  0  0  0  0  0  0  0  0  0
   58.1070   31.5250   44.5230 N   0  0  0  0  0  0  0  0  0  0  0  0
   57.4340   31.6220   43.2480 C   0  0  0  0  0  0  0  0  0  0  0  0
   58.5230   30.2900   44.9300 C   0  0  0  0  0  0  0  0  0  0  0  0
   58.3270   29.1740   44.1450 C   0  0  0  0  0  0  0  0  0  0  0  0
   58.7460   27.9040   44.5190 C   0  0  0  0  0  0  0  0  0  0  0  0
   59.3940   27.7420   45.7350 C   0  0  0  0  0  0  0  0  0  0  0  0
   59.5990   28.8490   46.5320 C   0  0  0  0  0  0  0  0  0  0  0  0
   59.1690   30.0920   46.1330 C   0  0  0  0  0  0  0  0  0  0  0  0
   57.9520   33.9800   44.9800 C   0  0  0  0  0  0  0  0  0  0  0  0
   59.2610   34.7780   45.1470 C   0  0  0  0  0  0  0  0  0  0  0  0
   59.6900   34.7850   46.5760 C   0  0  0  0  0  0  0  0  0  0  0  0
   59.2020   33.6130   47.3800 C   0  0  0  0  0  0  0  0  0  0  0  0
   61.6287   34.1421   50.7943 H   0  0  0  0  0  0  0  0  0  0  0  0
   60.9124   35.1650   49.5031 H   0  0  0  0  0  0  0  0  0  0  0  0
   60.6311   33.3909   49.5031 H   0  0  0  0  0  0  0  0  0  0  0  0
   62.4841   34.6419   48.0182 H   0  0  0  0  0  0  0  0  0  0  0  0
   63.4179   34.2343   49.5650 H   0  0  0  0  0  0  0  0  0  0  0  0
   64.4309   32.2341   47.2512 H   0  0  0  0  0  0  0  0  0  0  0  0
   62.7647   31.8586   46.5875 H   0  0  0  0  0  0  0  0  0  0  0  0
   63.3656   34.7144   47.0891 H   0  0  0  0  0  0  0  0  0  0  0  0
   64.2716   33.9317   45.7500 H   0  0  0  0  0  0  0  0  0  0  0  0
   62.4754   33.9138   45.7500 H   0  0  0  0  0  0  0  0  0  0  0  0
   64.0338   31.1705   49.0884 H   0  0  0  0  0  0  0  0  0  0  0  0
   63.7219   32.6615   50.1919 H   0  0  0  0  0  0  0  0  0  0  0  0
   62.9173   30.8824   51.2990 H   0  0  0  0  0  0  0  0  0  0  0  0
   61.5136   31.7839   50.5036 H   0  0  0  0  0  0  0  0  0  0  0  0
   60.3743   28.6736   50.2145 H   0  0  0  0  0  0  0  0  0  0  0  0
   60.4756   30.1970   51.2314 H   0  0  0  0  0  0  0  0  0  0  0  0
   58.8627   29.6563   49.0211 H   0  0  0  0  0  0  0  0  0  0  0  0
   59.1200   31.2050   50.0032 H   0  0  0  0  0  0  0  0  0  0  0  0
   60.9930   31.6600   48.2260 H   0  0  0  0  0  0  0  0  0  0  0  0
   56.3575   31.7772   43.4125 H   0  0  0  0  0  0  0  0  0  0  0  0
   57.8442   32.4703   42.6805 H   0  0  0  0  0  0  0  0  0  0  0  0
   57.5880   30.6924   42.6805 H   0  0  0  0  0  0  0  0  0  0  0  0
   57.8156   29.2949   43.1786 H   0  0  0  0  0  0  0  0  0  0  0  0
   58.5670   27.0403   43.8617 H   0  0  0  0  0  0  0  0  0  0  0  0
   59.7382   26.7484   46.0578 H   0  0  0  0  0  0  0  0  0  0  0  0
   60.1126   28.7357   47.4981 H   0  0  0  0  0  0  0  0  0  0  0  0
   57.5819   34.0499   43.9465 H   0  0  0  0  0  0  0  0  0  0  0  0
   57.1431   34.3593   45.6217 H   0  0  0  0  0  0  0  0  0  0  0  0
   60.0484   34.3140   44.5349 H   0  0  0  0  0  0  0  0  0  0  0  0
   59.0896   35.8148   44.8219 H   0  0  0  0  0  0  0  0  0  0  0  0
   60.7896   34.7868   46.6044 H   0  0  0  0  0  0  0  0  0  0  0  0
   59.2459   35.6826   47.0311 H   0  0  0  0  0  0  0  0  0  0  0  0
   59.9512   33.3725   48.1487 H   0  0  0  0  0  0  0  0  0  0  0  0
   58.2401   33.8896   47.8364 H   0  0  0  0  0  0  0  0  0  0  0  0
  1  2  1  0
  2  3  1  0
  3  4  1  0
  4  5  1  0
  3  6  1  0
  6  7  1  0
  7  8  1  0
  8  9  1  0
  9 10  1  0
 10 11  1  0
 11 12  1  0
 12 13  2  0
 13 14  1  0
 14 15  2  0
 15 16  1  0
 15 17  1  0
 17 18  2  0
 18 19  1  0
 19 20  2  0
 20 21  1  0
 21 22  2  0
 14 23  1  0
 23 24  1  0
 24 25  1  0
 25 26  1  0
 22 12  1  0
 26 13  1  0
 22 17  1  0
  1 27  1  0
  1 28  1  0
  1 29  1  0
  2 30  1  0
  2 31  1  0
  4 32  1  0
  4 33  1  0
  5 34  1  0
  5 35  1  0
  5 36  1  0
  6 37  1  0
  6 38  1  0
  7 39  1  0
  7 40  1  0
  9 41  1  0
  9 42  1  0
 10 43  1  0
 10 44  1  0
 11 45  1  0
 16 46  1  0
 16 47  1  0
 16 48  1  0
 18 49  1  0
 19 50  1  0
 20 51  1  0
 21 52  1  0
 23 53  1  0
 23 54  1  0
 24 55  1  0
 24 56  1  0
 25 57  1  0
 25 58  1  0
 26 59  1  0
 26 60  1  0
M  CHG  1  15   1
M  END
>  <smiles>  (26) 
CCN(CC)CCOCCNc1c2c([n+](C)c3ccccc13)CCCC2

>  <score_type>  (26) 
oracle

>  <origin>  (26) 
adg

>  <m_score__min__energy>  (26) 
-5.6699999999999999

>  <m_primary>  (26) 
energy

$$$$
27:0
     RDKit          3D

 56 57  0  0  0  0  0  0  0  0999 V2000
   57.8050   31.9350   43.4130 C   0  0  0  0  0  0  0  0  0  0  0  0
   57.3910   31.8680   44.8540 C   0  0  0  0  0  0  0  0  0  0  0  0
   57.6250   33.0120   45.6160 N   0  0  0  0  0  0  0  0  0  0  0  0
   57.8080   34.1930   44.8620 C   0  0  0  0  0  0  0  0  0  0  0  0
   59.2040   34.7890   44.9440 C   0  0  0  0  0  0  0  0  0  0  0  0
   57.4230   33.0860   46.9880 C   0  0  0  0  0  0  0  0  0  0  0  0
   58.7510   32.8930   47.7290 C   0  0  0  0  0  0  0  0  0  0  0  0
   58.9560   33.8990   48.6470 O   0  0  0  0  0  0  0  0  0  0  0  0
   60.2980   34.0800   48.9260 C   0  0  0  0  0  0  0  0  0  0  0  0
   61.0390   34.1630   47.6090 C   0  0  0  0  0  0  0  0  0  0  0  0
   62.4000   34.1680   47.7090 O   0  0  0  0  0  0  0  0  0  0  0  0
   63.1020   33.5910   46.6840 C   0  0  0  0  0  0  0  0  0  0  0  0
   63.6520   32.2370   47.1480 C   0  0  0  0  0  0  0  0  0  0  0  0
   62.7290   31.6180   48.0840 N   0  0  0  0  0  0  0  0  0  0  0  0
   62.9140   31.7290   49.4270 C   0  0  0  0  0  0  0  0  0  0  0  0
   64.0070   32.4680   50.1380 C   0  0  0  0  0  0  0  0  0  0  0  0
   61.9120   31.0420   50.0940 C   0  0  0  0  0  0  0  0  0  0  0  0
   61.1220   30.5150   49.0860 C   0  0  0  0  0  0  0  0  0  0  0  0
   59.9880   29.7370   49.1960 C   0  0  0  0  0  0  0  0  0  0  0  0
   59.3930   29.3400   48.0140 C   0  0  0  0  0  0  0  0  0  0  0  0
   59.9070   29.7040   46.7660 C   0  0  0  0  0  0  0  0  0  0  0  0
   59.1900   29.2250   45.5320 C   0  0  0  0  0  0  0  0  0  0  0  0
   61.0430   30.4810   46.6810 C   0  0  0  0  0  0  0  0  0  0  0  0
   61.6350   30.8760   47.8570 C   0  0  0  0  0  0  0  0  0  0  0  0
   58.8891   32.1104   43.3508 H   0  0  0  0  0  0  0  0  0  0  0  0
   57.5581   30.9852   42.9160 H   0  0  0  0  0  0  0  0  0  0  0  0
   57.2712   32.7584   42.9160 H   0  0  0  0  0  0  0  0  0  0  0  0
   56.3112   31.6603   44.8835 H   0  0  0  0  0  0  0  0  0  0  0  0
   58.0160   31.0823   45.3034 H   0  0  0  0  0  0  0  0  0  0  0  0
   57.5951   33.9628   43.8076 H   0  0  0  0  0  0  0  0  0  0  0  0
   57.1247   34.9425   45.2878 H   0  0  0  0  0  0  0  0  0  0  0  0
   59.4893   34.9108   45.9994 H   0  0  0  0  0  0  0  0  0  0  0  0
   59.9191   34.1177   44.4460 H   0  0  0  0  0  0  0  0  0  0  0  0
   59.2138   35.7698   44.4460 H   0  0  0  0  0  0  0  0  0  0  0  0
   57.0053   34.0716   47.2413 H   0  0  0  0  0  0  0  0  0  0  0  0
   56.7237   32.2930   47.2915 H   0  0  0  0  0  0  0  0  0  0  0  0
   58.7329   31.9261   48.2533 H   0  0  0  0  0  0  0  0  0  0  0  0
   59.5688   32.9182   46.9938 H   0  0  0  0  0  0  0  0  0  0  0  0
   60.4395   35.0113   49.4940 H   0  0  0  0  0  0  0  0  0  0  0  0
   60.6805   33.2435   49.5292 H   0  0  0  0  0  0  0  0  0  0  0  0
   60.7456   33.2967   46.9979 H   0  0  0  0  0  0  0  0  0  0  0  0
   60.7615   35.1291   47.1621 H   0  0  0  0  0  0  0  0  0  0  0  0
   62.4366   33.4414   45.8210 H   0  0  0  0  0  0  0  0  0  0  0  0
   63.9350   34.2473   46.3916 H   0  0  0  0  0  0  0  0  0  0  0  0
   63.7821   31.5790   46.2762 H   0  0  0  0  0  0  0  0  0  0  0  0
   64.6200   32.3931   47.6466 H   0  0  0  0  0  0  0  0  0  0  0  0
   63.8668   32.3732   51.2249 H   0  0  0  0  0  0  0  0  0  0  0  0
   64.9812   32.0425   49.8555 H   0  0  0  0  0  0  0  0  0  0  0  0
   63.9751   33.5306   49.8555 H   0  0  0  0  0  0  0  0  0  0  0  0
   61.7749   30.9385   51.1805 H   0  0  0  0  0  0  0  0  0  0  0  0
   59.5784   29.4475   50.1750 H   0  0  0  0  0  0  0  0  0  0  0  0
   58.4866   28.7181   48.0562 H   0  0  0  0  0  0  0  0  0  0  0  0
   58.3085   28.6361   45.8255 H   0  0  0  0  0  0  0  0  0  0  0  0
   58.8699   30.0913   44.9344 H   0  0  0  0  0  0  0  0  0  0  0  0
   59.8677   28.5976   44.9344 H   0  0  0  0  0  0  0  0  0  0  0  0
   61.4607   30.7744   45.7066 H   0  0  0  0  0  0  0  0  0  0  0  0
  1  2  1  0
  2  3  1  0
  3  4  1  0
  4  5  1  0
  3  6  1  0
  6  7  1  0
  7  8  1  0
  8  9  1  0
  9 10  1  0
 10 11  1  0
 11 12  1  0
 12 13  1  0
 13 14  1  0
 14 15  1  0
 15 16  1  0
 15 17  2  0
 17 18  1  0
 18 19  2  0
 19 20  1  0
 20 21  2  0
 21 22  1  0
 21 23  1  0
 23 24  2  0
 24 14  1  0
 24 18  1  0
  1 25  1  0
  1 26  1  0
  1 27  1  0
  2 28  1  0
  2 29  1  0
  4 30  1  0
  4 31  1  0
  5 32  1  0
  5 33  1  0
  5 34  1  0
  6 35  1  0
  6 36  1  0
  7 37  1  0
  7 38  1  0
  9 39  1  0
  9 40  1  0
 10 41  1  0
 10 42  1  0
 12 43  1  0
 12 44  1  0
 13 45  1  0
 13 46  1  0
 16 47  1  0
 16 48  1  0
 16 49  1  0
 17 50  1  0
 19 51  1  0
 20 52  1  0
 22 53  1  0
 22 54  1  0
 22 55  1  0
 23 56  1  0
M  END
>  <smiles>  (27) 
CCN(CC)CCOCCOCCn1c(C)cc2ccc(C)cc21

>  <score_type>  (27) 
oracle

>  <origin>  (27) 
adg

>  <m_score__min__energy>  (27) 
-6.5099999999999998

>  <m_primary>  (27) 
energy

$$$$
