0:0
     RDKit          3D

 47 50  0  0  0  0  0  0  0  0999 V2000
   61.4060   33.1430   51.6060 C   0  0  0  0  0  0  0  0  0  0  0  0
   60.7380   32.5440   50.4400 N   0  0  0  0  0  0  0  0  0  0  0  0
   59.3780   33.0860   50.2420 C   0  0  0  0  0  0  0  0  0  0  0  0
   59.1170   33.3310   48.7800 C   0  0  0  0  0  0  0  0  0  0  0  0
   59.5780   34.5240   48.1730 C   0  0  0  0  0  0  0  0  0  0  0  0
   59.3270   34.7770   46.8160 C   0  0  0  0  0  0  0  0  0  0  0  0
   58.6130   33.8280   46.0930 C   0  0  0  0  0  0  0  0  0  0  0  0
   58.1650   33.8570   44.4770 S   0  0  0  0  0  0  0  0  0  0  0  0
   57.3880   32.3550   44.5840 C   0  0  0  0  0  0  0  0  0  0  0  0
   57.4670   31.8340   45.8330 N   0  0  0  0  0  0  0  0  0  0  0  0
   58.1500   32.6580   46.6680 C   0  0  0  0  0  0  0  0  0  0  0  0
   58.3920   32.3900   48.0160 C   0  0  0  0  0  0  0  0  0  0  0  0
   60.7770   31.0620   50.4780 C   0  0  0  0  0  0  0  0  0  0  0  0
   60.5570   30.3950   49.1270 C   0  0  0  0  0  0  0  0  0  0  0  0
   59.6700   29.3070   49.0370 C   0  0  0  0  0  0  0  0  0  0  0  0
   59.4730   28.6640   47.8560 N   0  0  0  0  0  0  0  0  0  0  0  0
   60.1060   29.0550   46.7190 C   0  0  0  0  0  0  0  0  0  0  0  0
   59.8150   28.2030   45.2120 Cl  0  0  0  0  0  0  0  0  0  0  0  0
   60.9700   30.1490   46.7420 C   0  0  0  0  0  0  0  0  0  0  0  0
   61.2010   30.8340   47.9430 C   0  0  0  0  0  0  0  0  0  0  0  0
   62.0230   32.0120   47.9220 N   0  0  0  0  0  0  0  0  0  0  0  0
   62.0230   32.9040   46.7740 C   0  0  0  0  0  0  0  0  0  0  0  0
   63.1970   33.8460   46.9890 C   0  0  0  0  0  0  0  0  0  0  0  0
   64.1250   33.1250   47.9600 C   0  0  0  0  0  0  0  0  0  0  0  0
   63.2510   32.1180   48.6960 C   0  0  0  0  0  0  0  0  0  0  0  0
   60.9605   32.7436   52.5291 H   0  0  0  0  0  0  0  0  0  0  0  0
   62.4781   32.8980   51.5804 H   0  0  0  0  0  0  0  0  0  0  0  0
   61.2788   34.2353   51.5804 H   0  0  0  0  0  0  0  0  0  0  0  0
   58.6413   32.3648   50.6255 H   0  0  0  0  0  0  0  0  0  0  0  0
   59.2921   34.0394   50.7838 H   0  0  0  0  0  0  0  0  0  0  0  0
   60.1377   35.2588   48.7703 H   0  0  0  0  0  0  0  0  0  0  0  0
   59.6851   35.7004   46.3374 H   0  0  0  0  0  0  0  0  0  0  0  0
   56.8807   31.8621   43.7416 H   0  0  0  0  0  0  0  0  0  0  0  0
   58.0241   31.4610   48.4760 H   0  0  0  0  0  0  0  0  0  0  0  0
   61.7617   30.7529   50.8587 H   0  0  0  0  0  0  0  0  0  0  0  0
   59.9483   30.7414   51.1265 H   0  0  0  0  0  0  0  0  0  0  0  0
   59.1287   28.9722   49.9342 H   0  0  0  0  0  0  0  0  0  0  0  0
   58.8140   27.8540   47.8250 H   0  0  0  0  0  0  0  0  0  0  0  0
   61.4702   30.4745   45.8180 H   0  0  0  0  0  0  0  0  0  0  0  0
   62.1546   32.3324   45.8434 H   0  0  0  0  0  0  0  0  0  0  0  0
   61.0731   33.4512   46.6834 H   0  0  0  0  0  0  0  0  0  0  0  0
   63.7128   34.0409   46.0372 H   0  0  0  0  0  0  0  0  0  0  0  0
   62.8717   34.8203   47.3826 H   0  0  0  0  0  0  0  0  0  0  0  0
   64.9268   32.6084   47.4120 H   0  0  0  0  0  0  0  0  0  0  0  0
   64.6089   33.8267   48.6553 H   0  0  0  0  0  0  0  0  0  0  0  0
   63.7548   31.1416   48.7493 H   0  0  0  0  0  0  0  0  0  0  0  0
   63.0500   32.4379   49.7291 H   0  0  0  0  0  0  0  0  0  0  0  0
  1  2  1  0
  2  3  1  0
  3  4  1  0
  4  5  2  0
  5  6  1  0
  6  7  2  0
  7  8  1  0
  8  9  1  0
  9 10  2  0
 10 11  1  0
 11 12  2  0
  2 13  1  0
 13 14  1  0
 14 15  2  0
 15 16  1  0
 16 17  2  0
 17 18  1  0
 17 19  1  0
 19 20  2  0
 20 21  1  0
 21 22  1  0
 22 23  1  0
 23 24  1  0
 24 25  1  0
 12  4  1  0
 20 14  1  0
 25 21  1  0
 11  7  1  0
  1 26  1  0
  1 27  1  0
  1 28  1  0
  3 29  1  0
  3 30  1  0
  5 31  1  0
  6 32  1  0
  9 33  1  0
 12 34  1  0
 13 35  1  0
 13 36  1  0
 15 37  1  0
 16 38  1  0
 19 39  1  0
 22 40  1  0
 22 41  1  0
 23 42  1  0
 23 43  1  0
 24 44  1  0
 24 45  1  0
 25 46  1  0
 25 47  1  0
M  CHG  1  16   1
M  END
>  <UniqueID>  (1) 
1

>  <SMILES>  (1) 
CN(Cc1ccc2scnc2c1)Cc1c[nH+]c(Cl)cc1N1CCCC1

>  <Energy>  (1) 
94.4939605077294

>  <Genealogy>  (1) 
CN(Cc1ccc2scnc2c1)Cc1c[nH+]c(Cl)cc1N1CCCC1 (protonated)
CN(Cc1ccc2scnc2c1)Cc1c[nH+]c(Cl)cc1N1CCCC1 (3D coordinates assigned)
CN(Cc1ccc2scnc2c1)Cc1c[nH+]c(Cl)cc1N1CCCC1 (nonaromatic ring conformer: 94.4939605077294 kcal/mol)

>  <smiles>  (1) 
CN(Cc1ccc2scnc2c1)Cc1cnc(Cl)cc1N1CCCC1

>  <score_type>  (1) 
oracle

>  <origin>  (1) 
adg

>  <m_score__min__energy>  (1) 
-6.7800000000000002

>  <m_primary>  (1) 
energy

$$$$
1:0
     RDKit          3D

 44 47  0  0  0  0  0  0  0  0999 V2000
   60.5740   31.4870   51.9370 C   0  0  0  0  0  0  0  0  0  0  0  0
   60.1610   31.3240   50.5050 C   0  0  0  0  0  0  0  0  0  0  0  0
   61.0510   30.7740   49.5690 C   0  0  0  0  0  0  0  0  0  0  0  0
   60.6700   30.6360   48.2310 C   0  0  0  0  0  0  0  0  0  0  0  0
   59.3970   31.0480   47.8150 C   0  0  0  0  0  0  0  0  0  0  0  0
   58.9770   30.8760   46.4050 C   0  0  0  0  0  0  0  0  0  0  0  0
   58.8280   32.0040   45.5610 C   0  0  0  0  0  0  0  0  0  0  0  0
   59.1030   33.6640   46.1290 S   0  0  0  0  0  0  0  0  0  0  0  0
   59.1720   34.6110   44.9640 O   0  0  0  0  0  0  0  0  0  0  0  0
   57.9510   34.0730   47.0060 O   0  0  0  0  0  0  0  0  0  0  0  0
   60.6230   33.7820   47.0110 C   0  0  0  0  0  0  0  0  0  0  0  0
   60.6420   34.1750   48.3580 C   0  0  0  0  0  0  0  0  0  0  0  0
   61.8520   34.2240   49.0580 C   0  0  0  0  0  0  0  0  0  0  0  0
   63.0470   33.8890   48.4140 C   0  0  0  0  0  0  0  0  0  0  0  0
   63.0340   33.5070   47.0690 C   0  0  0  0  0  0  0  0  0  0  0  0
   61.8250   33.4550   46.3680 C   0  0  0  0  0  0  0  0  0  0  0  0
   58.4510   31.8080   44.2270 C   0  0  0  0  0  0  0  0  0  0  0  0
   58.2350   30.5600   43.7390 N   0  0  0  0  0  0  0  0  0  0  0  0
   58.3670   29.4530   44.5190 C   0  0  0  0  0  0  0  0  0  0  0  0
   58.1300   28.1790   43.9750 C   0  0  0  0  0  0  0  0  0  0  0  0
   58.2510   27.0390   44.7700 C   0  0  0  0  0  0  0  0  0  0  0  0
   58.6070   27.1570   46.1140 C   0  0  0  0  0  0  0  0  0  0  0  0
   58.7180   26.0450   46.8830 F   0  0  0  0  0  0  0  0  0  0  0  0
   58.8480   28.4160   46.6700 C   0  0  0  0  0  0  0  0  0  0  0  0
   58.7390   29.5820   45.8800 C   0  0  0  0  0  0  0  0  0  0  0  0
   58.5220   31.6350   48.7410 C   0  0  0  0  0  0  0  0  0  0  0  0
   58.9020   31.7740   50.0780 C   0  0  0  0  0  0  0  0  0  0  0  0
   59.7536   31.1632   52.5943 H   0  0  0  0  0  0  0  0  0  0  0  0
   61.4654   30.8733   52.1337 H   0  0  0  0  0  0  0  0  0  0  0  0
   60.8060   32.5441   52.1337 H   0  0  0  0  0  0  0  0  0  0  0  0
   62.0522   30.4503   49.8896 H   0  0  0  0  0  0  0  0  0  0  0  0
   61.3715   30.2028   47.5028 H   0  0  0  0  0  0  0  0  0  0  0  0
   59.7035   34.4450   48.8643 H   0  0  0  0  0  0  0  0  0  0  0  0
   61.8634   34.5262   50.1156 H   0  0  0  0  0  0  0  0  0  0  0  0
   63.9979   33.9260   48.9658 H   0  0  0  0  0  0  0  0  0  0  0  0
   63.9751   33.2473   46.5621 H   0  0  0  0  0  0  0  0  0  0  0  0
   61.8172   33.1567   45.3092 H   0  0  0  0  0  0  0  0  0  0  0  0
   58.3281   32.6778   43.5649 H   0  0  0  0  0  0  0  0  0  0  0  0
   57.9580   30.4650   42.7350 H   0  0  0  0  0  0  0  0  0  0  0  0
   57.8475   28.0802   42.9165 H   0  0  0  0  0  0  0  0  0  0  0  0
   58.0654   26.0452   44.3365 H   0  0  0  0  0  0  0  0  0  0  0  0
   59.1248   28.4999   47.7313 H   0  0  0  0  0  0  0  0  0  0  0  0
   57.5328   31.9872   48.4131 H   0  0  0  0  0  0  0  0  0  0  0  0
   58.2122   32.2377   50.7986 H   0  0  0  0  0  0  0  0  0  0  0  0
  1  2  1  0
  2  3  2  0
  3  4  1  0
  4  5  2  0
  5  6  1  0
  6  7  1  0
  7  8  1  0
  8  9  2  0
  8 10  2  0
  8 11  1  0
 11 12  2  0
 12 13  1  0
 13 14  2  0
 14 15  1  0
 15 16  2  0
  7 17  2  0
 17 18  1  0
 18 19  2  0
 19 20  1  0
 20 21  2  0
 21 22  1  0
 22 23  1  0
 22 24  2  0
 24 25  1  0
  5 26  1  0
 26 27  2  0
 27  2  1  0
 25  6  2  0
 16 11  1  0
 25 19  1  0
  1 28  1  0
  1 29  1  0
  1 30  1  0
  3 31  1  0
  4 32  1  0
 12 33  1  0
 13 34  1  0
 14 35  1  0
 15 36  1  0
 16 37  1  0
 17 38  1  0
 18 39  1  0
 20 40  1  0
 21 41  1  0
 24 42  1  0
 26 43  1  0
 27 44  1  0
M  CHG  1  18   1
M  END
>  <UniqueID>  (2) 
2

>  <SMILES>  (2) 
Cc1ccc(-c2c(S(=O)(=O)c3ccccc3)c[nH+]c3ccc(F)cc23)cc1

>  <Energy>  (2) 
60.36984874262614

>  <Genealogy>  (2) 
Cc1ccc(-c2c(S(=O)(=O)c3ccccc3)c[nH+]c3ccc(F)cc23)cc1 (protonated)
Cc1ccc(-c2c(S(=O)(=O)c3ccccc3)c[nH+]c3ccc(F)cc23)cc1 (3D coordinates assigned)
Cc1ccc(-c2c(S(=O)(=O)c3ccccc3)c[nH+]c3ccc(F)cc23)cc1 (optimized conformer: 60.36984874262614 kcal/mol)

>  <smiles>  (2) 
Cc1ccc(-c2c(S(=O)(=O)c3ccccc3)cnc3ccc(F)cc23)cc1

>  <score_type>  (2) 
oracle

>  <origin>  (2) 
adg

>  <m_score__min__energy>  (2) 
-7.5599999999999996

>  <m_primary>  (2) 
energy

$$$$
2:0
     RDKit          3D

 44 47  0  0  0  0  0  0  0  0999 V2000
   59.5930   24.8990   45.9720 C   0  0  0  0  0  0  0  0  0  0  0  0
   59.2570   26.3530   45.8130 C   0  0  0  0  0  0  0  0  0  0  0  0
   59.6240   27.2740   46.8040 C   0  0  0  0  0  0  0  0  0  0  0  0
   59.2790   28.6230   46.6760 C   0  0  0  0  0  0  0  0  0  0  0  0
   58.5540   29.0690   45.5570 C   0  0  0  0  0  0  0  0  0  0  0  0
   58.1860   30.4540   45.4230 N   0  0  0  0  0  0  0  0  0  0  0  0
   59.0990   31.5670   45.6350 C   0  0  0  0  0  0  0  0  0  0  0  0
   58.2310   32.8510   45.4810 C   0  0  2  0  0  0  0  0  0  0  0  0
   59.0250   34.0170   44.8410 C   0  0  0  0  0  0  0  0  0  0  0  0
   59.4860   34.7680   46.0290 C   0  0  0  0  0  0  0  0  0  0  0  0
   60.3880   35.6460   45.9960 O   0  0  0  0  0  0  0  0  0  0  0  0
   58.8100   34.3940   47.2170 N   0  0  0  0  0  0  0  0  0  0  0  0
   59.3660   34.5730   48.5570 C   0  0  0  0  0  0  0  0  0  0  0  0
   60.4070   33.4830   48.8440 C   0  0  0  0  0  0  0  0  0  0  0  0
   61.6880   33.9470   49.5210 C   0  0  0  0  0  0  0  0  0  0  0  0
   61.6930   33.6020   48.0400 C   0  0  0  0  0  0  0  0  0  0  0  0
   57.8180   33.3840   46.8830 C   0  0  0  0  0  0  0  0  0  0  0  0
   57.0050   32.4130   44.6410 C   0  0  0  0  0  0  0  0  0  0  0  0
   56.9910   30.9470   44.8380 C   0  0  0  0  0  0  0  0  0  0  0  0
   56.0110   30.2150   44.5370 O   0  0  0  0  0  0  0  0  0  0  0  0
   58.1660   28.1370   44.5800 C   0  0  0  0  0  0  0  0  0  0  0  0
   58.5120   26.7890   44.7090 C   0  0  0  0  0  0  0  0  0  0  0  0
   59.6503   24.6508   47.0421 H   0  0  0  0  0  0  0  0  0  0  0  0
   58.8124   24.2880   45.4952 H   0  0  0  0  0  0  0  0  0  0  0  0
   60.5625   24.6924   45.4952 H   0  0  0  0  0  0  0  0  0  0  0  0
   60.1860   26.9339   47.6864 H   0  0  0  0  0  0  0  0  0  0  0  0
   59.5767   29.3397   47.4556 H   0  0  0  0  0  0  0  0  0  0  0  0
   59.5378   31.5180   46.6425 H   0  0  0  0  0  0  0  0  0  0  0  0
   59.9353   31.5511   44.9206 H   0  0  0  0  0  0  0  0  0  0  0  0
   59.8746   33.6443   44.2500 H   0  0  0  0  0  0  0  0  0  0  0  0
   58.4333   34.6215   44.1379 H   0  0  0  0  0  0  0  0  0  0  0  0
   59.8454   35.5608   48.6234 H   0  0  0  0  0  0  0  0  0  0  0  0
   58.5550   34.5010   49.2966 H   0  0  0  0  0  0  0  0  0  0  0  0
   59.6732   32.6875   49.0408 H   0  0  0  0  0  0  0  0  0  0  0  0
   61.7922   34.9939   49.8422 H   0  0  0  0  0  0  0  0  0  0  0  0
   62.2667   33.6204   50.3976 H   0  0  0  0  0  0  0  0  0  0  0  0
   61.8009   34.3994   47.2899 H   0  0  0  0  0  0  0  0  0  0  0  0
   62.2768   32.9225   47.4017 H   0  0  0  0  0  0  0  0  0  0  0  0
   57.8315   32.5709   47.6237 H   0  0  0  0  0  0  0  0  0  0  0  0
   56.7980   33.7958   46.8811 H   0  0  0  0  0  0  0  0  0  0  0  0
   56.0798   32.8738   45.0174 H   0  0  0  0  0  0  0  0  0  0  0  0
   57.0665   32.7135   43.5846 H   0  0  0  0  0  0  0  0  0  0  0  0
   57.5857   28.4706   43.7071 H   0  0  0  0  0  0  0  0  0  0  0  0
   58.1982   26.0671   43.9406 H   0  0  0  0  0  0  0  0  0  0  0  0
  1  2  1  0
  2  3  2  0
  3  4  1  0
  4  5  2  0
  5  6  1  0
  6  7  1  0
  8  7  1  1
  8  9  1  0
  9 10  1  0
 10 11  2  0
 10 12  1  0
 12 13  1  0
 13 14  1  0
 14 15  1  0
 15 16  1  0
 12 17  1  0
  8 18  1  0
 18 19  1  0
 19 20  2  0
  5 21  1  0
 21 22  2  0
 22  2  1  0
 19  6  1  0
 17  8  1  0
 16 14  1  0
  1 23  1  0
  1 24  1  0
  1 25  1  0
  3 26  1  0
  4 27  1  0
  7 28  1  0
  7 29  1  0
  9 30  1  0
  9 31  1  0
 13 32  1  0
 13 33  1  0
 14 34  1  0
 15 35  1  0
 15 36  1  0
 16 37  1  0
 16 38  1  0
 17 39  1  0
 17 40  1  0
 18 41  1  0
 18 42  1  0
 21 43  1  0
 22 44  1  0
M  END
>  <UniqueID>  (3) 
3

>  <SMILES>  (3) 
Cc1ccc(N2C[C@@]3(CC(=O)N(CC4CC4)C3)CC2=O)cc1

>  <Energy>  (3) 
329.022822391926

>  <Genealogy>  (3) 
Cc1ccc(N2C[C@@]3(CC(=O)N(CC4CC4)C3)CC2=O)cc1 (chirality)
Cc1ccc(N2C[C@@]3(CC(=O)N(CC4CC4)C3)CC2=O)cc1 (3D coordinates assigned)
Cc1ccc(N2C[C@@]3(CC(=O)N(CC4CC4)C3)CC2=O)cc1 (nonaromatic ring conformer: 329.022822391926 kcal/mol)

>  <smiles>  (3) 
Cc1ccc(N2CC3(CC(=O)N(CC4CC4)C3)CC2=O)cc1

>  <score_type>  (3) 
oracle

>  <origin>  (3) 
adg

>  <m_score__min__energy>  (3) 
-7.6200000000000001

>  <m_primary>  (3) 
energy

$$$$
3:0
     RDKit          3D

 50 52  0  0  0  0  0  0  0  0999 V2000
   61.5350   33.7250   46.5210 C   0  0  0  0  0  0  0  0  0  0  0  0
   60.9800   33.3770   47.8380 N   0  0  0  0  0  0  0  0  0  0  0  0
   61.0850   31.9220   48.0480 C   0  0  0  0  0  0  0  0  0  0  0  0
   59.5740   33.8210   47.9260 C   0  0  0  0  0  0  0  0  0  0  0  0
   58.8300   33.4740   46.6680 C   0  0  0  0  0  0  0  0  0  0  0  0
   58.5470   34.3990   45.6680 C   0  0  0  0  0  0  0  0  0  0  0  0
   57.7460   33.5960   44.4280 S   0  0  0  0  0  0  0  0  0  0  0  0
   57.7560   32.0700   45.1440 C   0  0  0  0  0  0  0  0  0  0  0  0
   57.1990   30.8260   44.5730 C   0  0  0  0  0  0  0  0  0  0  0  0
   55.9830   30.5650   44.7940 O   0  0  0  0  0  0  0  0  0  0  0  0
   58.0300   29.9120   43.7990 N   0  0  2  0  0  0  0  0  0  0  0  0
   57.3100   28.6830   43.3330 C   0  0  0  0  0  0  0  0  0  0  0  0
   58.1510   27.3840   43.2700 C   0  0  0  0  0  0  0  0  0  0  0  0
   58.5710   26.8380   44.6470 C   0  0  0  0  0  0  0  0  0  0  0  0
   58.2870   27.7760   45.7570 N   0  0  0  0  0  0  0  0  0  0  0  0
   58.2440   27.0560   47.0510 C   0  0  0  0  0  0  0  0  0  0  0  0
   58.8960   27.8280   48.2050 C   0  0  0  0  0  0  0  0  0  0  0  0
   59.9480   26.7410   48.3520 C   0  0  0  0  0  0  0  0  0  0  0  0
   59.3400   25.9910   47.1800 C   0  0  0  0  0  0  0  0  0  0  0  0
   59.2780   28.8730   45.7950 C   0  0  0  0  0  0  0  0  0  0  0  0
   59.3410   29.6550   44.4550 C   0  0  0  0  0  0  0  0  0  0  0  0
   58.3870   32.1750   46.3780 C   0  0  0  0  0  0  0  0  0  0  0  0
   62.4601   34.3050   46.6546 H   0  0  0  0  0  0  0  0  0  0  0  0
   61.7571   32.8042   45.9618 H   0  0  0  0  0  0  0  0  0  0  0  0
   60.8029   34.3260   45.9618 H   0  0  0  0  0  0  0  0  0  0  0  0
   61.1005   31.7074   49.1268 H   0  0  0  0  0  0  0  0  0  0  0  0
   60.2206   31.4217   47.5870 H   0  0  0  0  0  0  0  0  0  0  0  0
   62.0123   31.5510   47.5870 H   0  0  0  0  0  0  0  0  0  0  0  0
   59.0909   33.3243   48.7803 H   0  0  0  0  0  0  0  0  0  0  0  0
   59.5547   34.9127   48.0596 H   0  0  0  0  0  0  0  0  0  0  0  0
   58.8028   35.4687   45.6859 H   0  0  0  0  0  0  0  0  0  0  0  0
   58.2610   30.4350   42.9220 H   0  0  0  0  0  0  0  0  0  0  0  0
   56.4686   28.5058   44.0191 H   0  0  0  0  0  0  0  0  0  0  0  0
   57.0099   28.8916   42.2955 H   0  0  0  0  0  0  0  0  0  0  0  0
   57.5563   26.6122   42.7594 H   0  0  0  0  0  0  0  0  0  0  0  0
   59.0777   27.6326   42.7319 H   0  0  0  0  0  0  0  0  0  0  0  0
   58.0257   25.9009   44.8328 H   0  0  0  0  0  0  0  0  0  0  0  0
   59.6598   26.6836   44.6196 H   0  0  0  0  0  0  0  0  0  0  0  0
   57.1779   26.7870   47.0848 H   0  0  0  0  0  0  0  0  0  0  0  0
   59.3026   28.8079   47.9145 H   0  0  0  0  0  0  0  0  0  0  0  0
   58.2951   28.1372   49.0729 H   0  0  0  0  0  0  0  0  0  0  0  0
   60.9777   27.0866   48.1781 H   0  0  0  0  0  0  0  0  0  0  0  0
   60.0953   26.2369   49.3185 H   0  0  0  0  0  0  0  0  0  0  0  0
   60.0004   25.9203   46.3031 H   0  0  0  0  0  0  0  0  0  0  0  0
   59.0699   24.9297   47.2833 H   0  0  0  0  0  0  0  0  0  0  0  0
   59.0029   29.5709   46.5995 H   0  0  0  0  0  0  0  0  0  0  0  0
   60.2679   28.4271   45.9720 H   0  0  0  0  0  0  0  0  0  0  0  0
   59.8172   30.6268   44.6522 H   0  0  0  0  0  0  0  0  0  0  0  0
   59.9057   29.0164   43.7598 H   0  0  0  0  0  0  0  0  0  0  0  0
   58.5254   31.3232   47.0601 H   0  0  0  0  0  0  0  0  0  0  0  0
  1  2  1  0
  2  3  1  0
  2  4  1  0
  4  5  1  0
  5  6  2  0
  6  7  1  0
  7  8  1  0
  8  9  1  0
  9 10  2  0
  9 11  1  0
 11 12  1  0
 12 13  1  0
 13 14  1  0
 14 15  1  0
 15 16  1  0
 16 17  1  0
 17 18  1  0
 18 19  1  0
 15 20  1  0
 20 21  1  0
  8 22  2  0
 22  5  1  0
 21 11  1  0
 19 16  1  0
  1 23  1  0
  1 24  1  0
  1 25  1  0
  3 26  1  0
  3 27  1  0
  3 28  1  0
  4 29  1  0
  4 30  1  0
  6 31  1  0
 11 32  1  6
 12 33  1  0
 12 34  1  0
 13 35  1  0
 13 36  1  0
 14 37  1  0
 14 38  1  0
 16 39  1  0
 17 40  1  0
 17 41  1  0
 18 42  1  0
 18 43  1  0
 19 44  1  0
 19 45  1  0
 20 46  1  0
 20 47  1  0
 21 48  1  0
 21 49  1  0
 22 50  1  0
M  CHG  1  11   1
M  END
>  <UniqueID>  (4) 
4

>  <SMILES>  (4) 
CN(C)Cc1csc(C(=O)[N@@H+]2CCCN(C3CCC3)CC2)c1

>  <Energy>  (4) 
156.57309571375853

>  <Genealogy>  (4) 
CN(C)Cc1csc(C(=O)[NH+]2CCCN(C3CCC3)CC2)c1 (protonated)
CN(C)Cc1csc(C(=O)[N@@H+]2CCCN(C3CCC3)CC2)c1 (chirality)
CN(C)Cc1csc(C(=O)[N@@H+]2CCCN(C3CCC3)CC2)c1 (3D coordinates assigned)
CN(C)Cc1csc(C(=O)[N@@H+]2CCCN(C3CCC3)CC2)c1 (nonaromatic ring conformer: 156.57309571375853 kcal/mol)

>  <smiles>  (4) 
CN(C)Cc1csc(C(=O)N2CCCN(C3CCC3)CC2)c1

>  <score_type>  (4) 
oracle

>  <origin>  (4) 
adg

>  <m_score__min__energy>  (4) 
-3.8399999999999999

>  <m_primary>  (4) 
energy

$$$$
4:0
     RDKit          3D

 53 54  0  0  0  0  0  0  0  0999 V2000
   62.6750   34.5620   50.1600 C   0  0  0  0  0  0  0  0  0  0  0  0
   61.5630   33.5530   49.8450 C   0  0  0  0  0  0  0  0  0  0  0  0
   61.8120   32.7670   48.6080 N   0  0  0  0  0  0  0  0  0  0  0  0
   62.6800   33.4770   47.6260 C   0  0  0  0  0  0  0  0  0  0  0  0
   63.6880   32.5810   46.8910 C   0  0  0  0  0  0  0  0  0  0  0  0
   62.3130   31.4180   48.9860 C   0  0  0  0  0  0  0  0  0  0  0  0
   61.3430   30.5730   49.8450 C   0  0  0  0  0  0  0  0  0  0  0  0
   60.1480   30.0030   49.0630 C   0  0  0  0  0  0  0  0  0  0  0  0
   59.9850   30.7010   47.7670 N   0  0  0  0  0  0  0  0  0  0  0  0
   60.5080   29.8700   46.6690 C   0  0  0  0  0  0  0  0  0  0  0  0
   58.5670   31.0520   47.5250 C   0  0  0  0  0  0  0  0  0  0  0  0
   58.4120   31.7530   46.1900 C   0  0  0  0  0  0  0  0  0  0  0  0
   58.9930   33.0260   46.0040 C   0  0  0  0  0  0  0  0  0  0  0  0
   59.6740   33.6220   47.0800 O   0  0  0  0  0  0  0  0  0  0  0  0
   59.4150   34.9300   47.5800 C   0  0  0  0  0  0  0  0  0  0  0  0
   58.8790   33.6690   44.7570 C   0  0  0  0  0  0  0  0  0  0  0  0
   58.1980   33.0610   43.7030 C   0  0  0  0  0  0  0  0  0  0  0  0
   57.6200   31.8000   43.8740 C   0  0  0  0  0  0  0  0  0  0  0  0
   56.9370   31.1720   42.8230 C   0  0  0  0  0  0  0  0  0  0  0  0
   56.3720   29.9110   43.0150 C   0  0  0  0  0  0  0  0  0  0  0  0
   56.4970   29.2860   44.2560 C   0  0  0  0  0  0  0  0  0  0  0  0
   57.1610   29.9050   45.2680 N   0  0  0  0  0  0  0  0  0  0  0  0
   57.7250   31.1380   45.1190 C   0  0  0  0  0  0  0  0  0  0  0  0
   62.7831   34.6601   51.2503 H   0  0  0  0  0  0  0  0  0  0  0  0
   63.6231   34.2095   49.7278 H   0  0  0  0  0  0  0  0  0  0  0  0
   62.4161   35.5398   49.7278 H   0  0  0  0  0  0  0  0  0  0  0  0
   61.4762   32.8546   50.6904 H   0  0  0  0  0  0  0  0  0  0  0  0
   60.6390   34.1278   49.6840 H   0  0  0  0  0  0  0  0  0  0  0  0
   60.8780   32.6350   48.1530 H   0  0  0  0  0  0  0  0  0  0  0  0
   62.0306   33.9495   46.8743 H   0  0  0  0  0  0  0  0  0  0  0  0
   63.2733   34.2009   48.2040 H   0  0  0  0  0  0  0  0  0  0  0  0
   64.2996   32.0374   47.6262 H   0  0  0  0  0  0  0  0  0  0  0  0
   63.1465   31.8607   46.2602 H   0  0  0  0  0  0  0  0  0  0  0  0
   64.3399   33.2032   46.2602 H   0  0  0  0  0  0  0  0  0  0  0  0
   62.5220   30.8609   48.0608 H   0  0  0  0  0  0  0  0  0  0  0  0
   63.2046   31.5863   49.6079 H   0  0  0  0  0  0  0  0  0  0  0  0
   61.9062   29.7325   50.2767 H   0  0  0  0  0  0  0  0  0  0  0  0
   60.9297   31.2450   50.6116 H   0  0  0  0  0  0  0  0  0  0  0  0
   60.3168   28.9321   48.8769 H   0  0  0  0  0  0  0  0  0  0  0  0
   59.2351   30.1494   49.6590 H   0  0  0  0  0  0  0  0  0  0  0  0
   61.0500   29.0089   47.0870 H   0  0  0  0  0  0  0  0  0  0  0  0
   59.6722   29.5119   46.0500 H   0  0  0  0  0  0  0  0  0  0  0  0
   61.1924   30.4687   46.0500 H   0  0  0  0  0  0  0  0  0  0  0  0
   57.9622   30.1332   47.5234 H   0  0  0  0  0  0  0  0  0  0  0  0
   58.2278   31.7290   48.3229 H   0  0  0  0  0  0  0  0  0  0  0  0
   59.4190   34.9096   48.6798 H   0  0  0  0  0  0  0  0  0  0  0  0
   60.1940   35.6198   47.2232 H   0  0  0  0  0  0  0  0  0  0  0  0
   58.4319   35.2709   47.2232 H   0  0  0  0  0  0  0  0  0  0  0  0
   59.3317   34.6611   44.6126 H   0  0  0  0  0  0  0  0  0  0  0  0
   58.1154   33.5753   42.7341 H   0  0  0  0  0  0  0  0  0  0  0  0
   56.8467   31.6731   41.8479 H   0  0  0  0  0  0  0  0  0  0  0  0
   55.8327   29.4139   42.1952 H   0  0  0  0  0  0  0  0  0  0  0  0
   56.0574   28.2904   44.4160 H   0  0  0  0  0  0  0  0  0  0  0  0
  1  2  1  0
  2  3  1  0
  3  4  1  0
  4  5  1  0
  3  6  1  0
  6  7  1  0
  7  8  1  0
  8  9  1  0
  9 10  1  0
  9 11  1  0
 11 12  1  0
 12 13  2  0
 13 14  1  0
 14 15  1  0
 13 16  1  0
 16 17  2  0
 17 18  1  0
 18 19  2  0
 19 20  1  0
 20 21  2  0
 21 22  1  0
 22 23  2  0
 23 12  1  0
 23 18  1  0
  1 24  1  0
  1 25  1  0
  1 26  1  0
  2 27  1  0
  2 28  1  0
  3 29  1  0
  4 30  1  0
  4 31  1  0
  5 32  1  0
  5 33  1  0
  5 34  1  0
  6 35  1  0
  6 36  1  0
  7 37  1  0
  7 38  1  0
  8 39  1  0
  8 40  1  0
 10 41  1  0
 10 42  1  0
 10 43  1  0
 11 44  1  0
 11 45  1  0
 15 46  1  0
 15 47  1  0
 15 48  1  0
 16 49  1  0
 17 50  1  0
 19 51  1  0
 20 52  1  0
 21 53  1  0
M  CHG  1   3   1
M  END
>  <UniqueID>  (5) 
5

>  <SMILES>  (5) 
CC[NH+](CC)CCCN(C)Cc1c(OC)ccc2cccnc12

>  <Energy>  (5) 
58.26107485022659

>  <Genealogy>  (5) 
CC[NH+](CC)CCCN(C)Cc1c(OC)ccc2cccnc12 (protonated)
CC[NH+](CC)CCCN(C)Cc1c(OC)ccc2cccnc12 (3D coordinates assigned)
CC[NH+](CC)CCCN(C)Cc1c(OC)ccc2cccnc12 (optimized conformer: 58.26107485022659 kcal/mol)

>  <smiles>  (5) 
CCN(CC)CCCN(C)Cc1c(OC)ccc2cccnc12

>  <score_type>  (5) 
oracle

>  <origin>  (5) 
adg

>  <m_score__min__energy>  (5) 
-4.6100000000000003

>  <m_primary>  (5) 
energy

$$$$
5:0
     RDKit          3D

 29 31  0  0  0  0  0  0  0  0999 V2000
   59.2520   33.4470   51.3750 C   0  0  0  0  0  0  0  0  0  0  0  0
   59.6430   34.1310   50.1880 O   0  0  0  0  0  0  0  0  0  0  0  0
   59.2750   33.7400   48.8920 C   0  0  0  0  0  0  0  0  0  0  0  0
   59.5840   34.5930   47.8280 C   0  0  0  0  0  0  0  0  0  0  0  0
   59.2390   34.2490   46.5170 C   0  0  0  0  0  0  0  0  0  0  0  0
   58.5820   33.0370   46.2490 C   0  0  0  0  0  0  0  0  0  0  0  0
   58.2260   32.6880   44.8970 N   0  0  0  0  0  0  0  0  0  0  0  0
   58.6280   33.3040   43.7520 C   0  0  0  0  0  0  0  0  0  0  0  0
   58.1230   32.7170   42.6370 N   0  0  0  0  0  0  0  0  0  0  0  0
   57.3860   31.6970   43.1040 C   0  0  0  0  0  0  0  0  0  0  0  0
   56.6710   30.7360   42.3980 C   0  0  0  0  0  0  0  0  0  0  0  0
   56.0180   29.7430   43.1510 C   0  0  0  0  0  0  0  0  0  0  0  0
   56.1160   29.7490   44.5640 C   0  0  0  0  0  0  0  0  0  0  0  0
   55.5400   28.8560   45.2370 O   0  0  0  0  0  0  0  0  0  0  0  0
   56.8380   30.7190   45.2040 N   0  0  0  0  0  0  0  0  0  0  0  0
   57.4450   31.6800   44.4620 C   0  0  0  0  0  0  0  0  0  0  0  0
   58.2650   32.1830   47.3190 C   0  0  0  0  0  0  0  0  0  0  0  0
   58.6090   32.5290   48.6290 C   0  0  0  0  0  0  0  0  0  0  0  0
   59.5802   34.0211   52.2540 H   0  0  0  0  0  0  0  0  0  0  0  0
   58.1572   33.3416   51.3937 H   0  0  0  0  0  0  0  0  0  0  0  0
   59.7167   32.4501   51.3937 H   0  0  0  0  0  0  0  0  0  0  0  0
   60.1030   35.5429   48.0238 H   0  0  0  0  0  0  0  0  0  0  0  0
   59.4838   34.9322   45.6904 H   0  0  0  0  0  0  0  0  0  0  0  0
   59.2902   34.1821   43.7322 H   0  0  0  0  0  0  0  0  0  0  0  0
   58.2830   32.9910   41.6420 H   0  0  0  0  0  0  0  0  0  0  0  0
   56.6182   30.7514   41.2994 H   0  0  0  0  0  0  0  0  0  0  0  0
   55.4320   28.9629   42.6430 H   0  0  0  0  0  0  0  0  0  0  0  0
   57.7422   31.2350   47.1243 H   0  0  0  0  0  0  0  0  0  0  0  0
   58.3578   31.8512   49.4581 H   0  0  0  0  0  0  0  0  0  0  0  0
  1  2  1  0
  2  3  1  0
  3  4  2  0
  4  5  1  0
  5  6  2  0
  6  7  1  0
  7  8  1  0
  8  9  2  0
  9 10  1  0
 10 11  1  0
 11 12  2  0
 12 13  1  0
 13 14  2  0
 13 15  1  0
 15 16  1  0
  6 17  1  0
 17 18  2  0
 18  3  1  0
 16  7  1  0
 16 10  2  0
  1 19  1  0
  1 20  1  0
  1 21  1  0
  4 22  1  0
  5 23  1  0
  8 24  1  0
  9 25  1  0
 11 26  1  0
 12 27  1  0
 17 28  1  0
 18 29  1  0
M  CHG  2   9   1  15  -1
M  END
>  <UniqueID>  (6) 
6

>  <SMILES>  (6) 
COc1ccc(-n2c[nH+]c3ccc(=O)[n-]c32)cc1

>  <Energy>  (6) 
76.67748400294086

>  <Genealogy>  (6) 
COc1ccc(-n2c[nH+]c3ccc(=O)[n-]c32)cc1 (protonated)
COc1ccc(-n2c[nH+]c3ccc(=O)[n-]c32)cc1 (3D coordinates assigned)
COc1ccc(-n2c[nH+]c3ccc(=O)[n-]c32)cc1 (optimized conformer: 76.67748400294086 kcal/mol)

>  <smiles>  (6) 
COc1ccc(-n2cnc3ccc(=O)[nH]c32)cc1

>  <score_type>  (6) 
oracle

>  <origin>  (6) 
adg

>  <m_score__min__energy>  (6) 
-7.0999999999999996

>  <m_primary>  (6) 
energy

$$$$
6:0
     RDKit          3D

 40 43  0  0  0  0  0  0  0  0999 V2000
   56.1860   29.7070   42.7200 C   0  0  0  0  0  0  0  0  0  0  0  0
   57.1800   29.3590   43.7890 C   0  0  0  0  0  0  0  0  0  0  0  0
   57.7840   28.0870   43.8410 C   0  0  0  0  0  0  0  0  0  0  0  0
   58.7280   27.7850   44.8410 C   0  0  0  0  0  0  0  0  0  0  0  0
   59.0760   28.7630   45.7810 C   0  0  0  0  0  0  0  0  0  0  0  0
   58.4860   29.9840   45.6880 N   0  0  0  0  0  0  0  0  0  0  0  0
   58.6370   31.0870   46.4410 C   0  0  0  0  0  0  0  0  0  0  0  0
   59.5030   31.1960   47.6590 C   0  0  0  0  0  0  0  0  0  0  0  0
   57.7770   32.0480   45.9300 C   0  0  0  0  0  0  0  0  0  0  0  0
   57.5400   33.7090   46.5650 S   0  0  0  0  0  0  0  0  0  0  0  0
   58.6190   34.5130   45.3250 C   0  0  0  0  0  0  0  0  0  0  0  0
   59.6520   35.4410   45.9680 C   0  0  0  0  0  0  0  0  0  0  0  0
   60.2070   34.8480   47.1830 N   0  0  0  0  0  0  0  0  0  0  0  0
   59.6930   34.9580   48.4060 N   0  0  0  0  0  0  0  0  0  0  0  0
   60.4540   34.3590   49.3220 N   0  0  0  0  0  0  0  0  0  0  0  0
   61.4970   33.8530   48.6350 C   0  0  0  0  0  0  0  0  0  0  0  0
   62.6020   33.1450   49.0890 C   0  0  0  0  0  0  0  0  0  0  0  0
   63.5510   32.7600   48.1210 C   0  0  0  0  0  0  0  0  0  0  0  0
   63.3530   33.1020   46.7600 C   0  0  0  0  0  0  0  0  0  0  0  0
   62.2430   33.8040   46.3710 N   0  0  0  0  0  0  0  0  0  0  0  0
   61.3440   34.1560   47.3230 C   0  0  0  0  0  0  0  0  0  0  0  0
   57.1140   31.5620   44.8550 N   0  0  0  0  0  0  0  0  0  0  0  0
   57.5780   30.2980   44.7470 C   0  0  0  0  0  0  0  0  0  0  0  0
   55.2458   30.0362   43.1866 H   0  0  0  0  0  0  0  0  0  0  0  0
   56.5885   30.5177   42.0949 H   0  0  0  0  0  0  0  0  0  0  0  0
   55.9950   28.8223   42.0949 H   0  0  0  0  0  0  0  0  0  0  0  0
   57.5160   27.3244   43.0949 H   0  0  0  0  0  0  0  0  0  0  0  0
   59.1892   26.7873   44.8837 H   0  0  0  0  0  0  0  0  0  0  0  0
   59.8077   28.5487   46.5739 H   0  0  0  0  0  0  0  0  0  0  0  0
   58.8785   31.1174   48.5611 H   0  0  0  0  0  0  0  0  0  0  0  0
   60.2453   30.3842   47.6550 H   0  0  0  0  0  0  0  0  0  0  0  0
   60.0209   32.1664   47.6550 H   0  0  0  0  0  0  0  0  0  0  0  0
   59.1486   33.7331   44.7582 H   0  0  0  0  0  0  0  0  0  0  0  0
   57.9808   35.1233   44.6690 H   0  0  0  0  0  0  0  0  0  0  0  0
   60.4671   35.6224   45.2520 H   0  0  0  0  0  0  0  0  0  0  0  0
   59.1552   36.3853   46.2353 H   0  0  0  0  0  0  0  0  0  0  0  0
   58.8050   35.4620   48.6290 H   0  0  0  0  0  0  0  0  0  0  0  0
   62.7303   32.8967   50.1529 H   0  0  0  0  0  0  0  0  0  0  0  0
   64.4451   32.1942   48.4217 H   0  0  0  0  0  0  0  0  0  0  0  0
   64.0979   32.8008   46.0088 H   0  0  0  0  0  0  0  0  0  0  0  0
  1  2  1  0
  2  3  2  0
  3  4  1  0
  4  5  2  0
  5  6  1  0
  6  7  1  0
  7  8  1  0
  7  9  2  0
  9 10  1  0
 10 11  1  0
 11 12  1  0
 12 13  1  0
 13 14  1  0
 14 15  2  0
 15 16  1  0
 16 17  2  0
 17 18  1  0
 18 19  2  0
 19 20  1  0
 20 21  2  0
  9 22  1  0
 22 23  2  0
 23  2  1  0
 23  6  1  0
 21 13  1  0
 21 16  1  0
  1 24  1  0
  1 25  1  0
  1 26  1  0
  3 27  1  0
  4 28  1  0
  5 29  1  0
  8 30  1  0
  8 31  1  0
  8 32  1  0
 11 33  1  0
 11 34  1  0
 12 35  1  0
 12 36  1  0
 14 37  1  0
 17 38  1  0
 18 39  1  0
 19 40  1  0
M  CHG  1  14   1
M  END
>  <UniqueID>  (7) 
7

>  <SMILES>  (7) 
Cc1cccn2c(C)c(SCCn3[nH+]nc4cccnc43)nc12

>  <Energy>  (7) 
118.49731201969821

>  <Genealogy>  (7) 
Cc1cccn2c(C)c(SCCn3[nH+]nc4cccnc43)nc12 (protonated)
Cc1cccn2c(C)c(SCCn3[nH+]nc4cccnc43)nc12 (3D coordinates assigned)
Cc1cccn2c(C)c(SCCn3[nH+]nc4cccnc43)nc12 (optimized conformer: 118.49731201969821 kcal/mol)

>  <smiles>  (7) 
Cc1cccn2c(C)c(SCCn3nnc4cccnc43)nc12

>  <score_type>  (7) 
oracle

>  <origin>  (7) 
adg

>  <m_score__min__energy>  (7) 
-7.2699999999999996

>  <m_primary>  (7) 
energy

$$$$
7:0
     RDKit          3D

 39 40  0  0  0  0  0  0  0  0999 V2000
   55.5380   29.7170   43.4800 C   0  0  0  0  0  0  0  0  0  0  0  0
   56.9830   29.9060   43.0210 C   0  0  0  0  0  0  0  0  0  0  0  0
   57.2350   31.3130   42.4730 C   0  0  0  0  0  0  0  0  0  0  0  0
   57.9670   32.1220   43.4470 N   0  0  0  0  0  0  0  0  0  0  0  0
   57.6820   32.0960   44.8540 C   0  0  0  0  0  0  0  0  0  0  0  0
   57.0180   31.1400   45.3430 O   0  0  0  0  0  0  0  0  0  0  0  0
   58.1810   33.1290   45.7200 N   0  0  0  0  0  0  0  0  0  0  0  0
   58.4960   32.8130   47.1170 C   0  0  0  0  0  0  0  0  0  0  0  0
   59.2720   33.9660   47.7740 C   0  0  0  0  0  0  0  0  0  0  0  0
   60.2430   34.5690   46.8360 N   0  0  0  0  0  0  0  0  0  0  0  0
   61.3270   33.6280   46.4830 C   0  0  0  0  0  0  0  0  0  0  0  0
   62.2850   33.4850   47.6290 C   0  0  0  0  0  0  0  0  0  0  0  0
   63.3870   32.6160   47.6010 C   0  0  0  0  0  0  0  0  0  0  0  0
   64.1320   32.6290   48.7710 C   0  0  0  0  0  0  0  0  0  0  0  0
   63.4180   33.7180   49.8330 S   0  0  0  0  0  0  0  0  0  0  0  0
   62.1580   34.1850   48.8240 C   0  0  0  0  0  0  0  0  0  0  0  0
   59.5900   35.1590   45.6360 C   0  0  0  0  0  0  0  0  0  0  0  0
   58.2260   34.5300   45.2900 C   0  0  0  0  0  0  0  0  0  0  0  0
   55.5002   29.7120   44.5793 H   0  0  0  0  0  0  0  0  0  0  0  0
   54.9203   30.5420   43.0956 H   0  0  0  0  0  0  0  0  0  0  0  0
   55.1532   28.7609   43.0956 H   0  0  0  0  0  0  0  0  0  0  0  0
   57.6522   29.7338   43.8769 H   0  0  0  0  0  0  0  0  0  0  0  0
   57.1773   29.1877   42.2109 H   0  0  0  0  0  0  0  0  0  0  0  0
   57.8250   31.2401   41.5475 H   0  0  0  0  0  0  0  0  0  0  0  0
   56.2663   31.7931   42.2702 H   0  0  0  0  0  0  0  0  0  0  0  0
   58.6860   32.7880   43.0840 H   0  0  0  0  0  0  0  0  0  0  0  0
   57.5594   32.6472   47.6696 H   0  0  0  0  0  0  0  0  0  0  0  0
   59.1200   31.9075   47.1424 H   0  0  0  0  0  0  0  0  0  0  0  0
   58.5588   34.7390   48.0962 H   0  0  0  0  0  0  0  0  0  0  0  0
   59.8272   33.5628   48.6338 H   0  0  0  0  0  0  0  0  0  0  0  0
   60.8924   32.6451   46.2483 H   0  0  0  0  0  0  0  0  0  0  0  0
   61.8695   34.0180   45.6092 H   0  0  0  0  0  0  0  0  0  0  0  0
   63.6358   31.9854   46.7347 H   0  0  0  0  0  0  0  0  0  0  0  0
   65.0334   32.0305   48.9691 H   0  0  0  0  0  0  0  0  0  0  0  0
   61.3718   34.9153   49.0659 H   0  0  0  0  0  0  0  0  0  0  0  0
   59.4391   36.2333   45.8177 H   0  0  0  0  0  0  0  0  0  0  0  0
   60.2561   34.9625   44.7829 H   0  0  0  0  0  0  0  0  0  0  0  0
   57.4292   35.0908   45.8004 H   0  0  0  0  0  0  0  0  0  0  0  0
   58.0819   34.5718   44.2003 H   0  0  0  0  0  0  0  0  0  0  0  0
  1  2  1  0
  2  3  1  0
  3  4  1  0
  4  5  1  0
  5  6  2  0
  5  7  1  0
  7  8  1  0
  8  9  1  0
  9 10  1  0
 10 11  1  0
 11 12  1  0
 12 13  1  0
 13 14  2  0
 14 15  1  0
 15 16  1  0
 10 17  1  0
 17 18  1  0
 18  7  1  0
 16 12  2  0
  1 19  1  0
  1 20  1  0
  1 21  1  0
  2 22  1  0
  2 23  1  0
  3 24  1  0
  3 25  1  0
  4 26  1  0
  8 27  1  0
  8 28  1  0
  9 29  1  0
  9 30  1  0
 11 31  1  0
 11 32  1  0
 13 33  1  0
 14 34  1  0
 16 35  1  0
 17 36  1  0
 17 37  1  0
 18 38  1  0
 18 39  1  0
M  END
>  <UniqueID>  (8) 
8

>  <SMILES>  (8) 
CCCNC(=O)N1CCN(Cc2ccsc2)CC1

>  <Energy>  (8) 
66.12007142558616

>  <Genealogy>  (8) 
CCCNC(=O)N1CCN(Cc2ccsc2)CC1 (3D coordinates assigned)
CCCNC(=O)N1CCN(Cc2ccsc2)CC1 (nonaromatic ring conformer: 66.12007142558616 kcal/mol)

>  <smiles>  (8) 
CCCNC(=O)N1CCN(Cc2ccsc2)CC1

>  <score_type>  (8) 
oracle

>  <origin>  (8) 
adg

>  <m_score__min__energy>  (8) 
-6.7699999999999996

>  <m_primary>  (8) 
energy

$$$$
8:0
     RDKit          3D

 52 54  0  0  0  0  0  0  0  0999 V2000
   65.7940   33.0790   50.1190 C   0  0  0  0  0  0  0  0  0  0  0  0
   64.8000   31.9950   49.6770 C   0  0  0  0  0  0  0  0  0  0  0  0
   63.3980   32.4640   49.5560 N   0  0  0  0  0  0  0  0  0  0  0  0
   63.2920   33.7550   48.8400 C   0  0  0  0  0  0  0  0  0  0  0  0
   63.4420   33.5410   47.3350 C   0  0  0  0  0  0  0  0  0  0  0  0
   62.6560   32.4710   50.8390 C   0  0  0  0  0  0  0  0  0  0  0  0
   61.9810   33.8290   51.1160 C   0  0  0  0  0  0  0  0  0  0  0  0
   60.4660   33.8440   50.8430 C   0  0  0  0  0  0  0  0  0  0  0  0
   59.8440   32.4410   50.8770 C   0  0  0  0  0  0  0  0  0  0  0  0
   59.3750   32.0130   49.4750 C   0  0  0  0  0  0  0  0  0  0  0  0
   60.4140   32.2230   48.4420 N   0  0  2  0  0  0  0  0  0  0  0  0
   60.0600   33.3840   47.6520 C   0  0  0  0  0  0  0  0  0  0  0  0
   60.4730   34.5240   48.0010 O   0  0  0  0  0  0  0  0  0  0  0  0
   59.1500   33.2510   46.4880 C   0  0  0  0  0  0  0  0  0  0  0  0
   58.4970   34.3640   45.9350 C   0  0  0  0  0  0  0  0  0  0  0  0
   57.6240   34.2050   44.8550 C   0  0  0  0  0  0  0  0  0  0  0  0
   57.3980   32.9380   44.3100 C   0  0  0  0  0  0  0  0  0  0  0  0
   58.0530   31.8170   44.8390 C   0  0  0  0  0  0  0  0  0  0  0  0
   57.8540   30.5420   44.2860 C   0  0  0  0  0  0  0  0  0  0  0  0
   58.5360   29.4370   44.8050 C   0  0  0  0  0  0  0  0  0  0  0  0
   58.2590   27.7050   44.0490 Br  0  0  0  0  0  0  0  0  0  0  0  0
   59.4220   29.5940   45.8760 C   0  0  0  0  0  0  0  0  0  0  0  0
   59.6180   30.8580   46.4510 C   0  0  0  0  0  0  0  0  0  0  0  0
   58.9320   31.9740   45.9360 C   0  0  0  0  0  0  0  0  0  0  0  0
   60.5400   31.0560   47.5920 C   0  0  0  0  0  0  0  0  0  0  0  0
   61.4190   30.1860   47.8480 O   0  0  0  0  0  0  0  0  0  0  0  0
   65.8296   33.1178   51.2177 H   0  0  0  0  0  0  0  0  0  0  0  0
   66.7942   32.8408   49.7279 H   0  0  0  0  0  0  0  0  0  0  0  0
   65.4702   34.0548   49.7279 H   0  0  0  0  0  0  0  0  0  0  0  0
   65.1210   31.6125   48.6968 H   0  0  0  0  0  0  0  0  0  0  0  0
   64.8071   31.2232   50.4608 H   0  0  0  0  0  0  0  0  0  0  0  0
   62.3096   34.2047   49.0463 H   0  0  0  0  0  0  0  0  0  0  0  0
   64.0933   34.4236   49.1877 H   0  0  0  0  0  0  0  0  0  0  0  0
   64.0645   32.6529   47.1512 H   0  0  0  0  0  0  0  0  0  0  0  0
   62.4493   33.3925   46.8850 H   0  0  0  0  0  0  0  0  0  0  0  0
   63.9202   34.4235   46.8850 H   0  0  0  0  0  0  0  0  0  0  0  0
   61.8810   31.6912   50.8039 H   0  0  0  0  0  0  0  0  0  0  0  0
   63.3783   32.2828   51.6470 H   0  0  0  0  0  0  0  0  0  0  0  0
   62.1443   34.0870   52.1728 H   0  0  0  0  0  0  0  0  0  0  0  0
   62.4352   34.5560   50.4266 H   0  0  0  0  0  0  0  0  0  0  0  0
   59.9767   34.4645   51.6082 H   0  0  0  0  0  0  0  0  0  0  0  0
   60.3146   34.2502   49.8320 H   0  0  0  0  0  0  0  0  0  0  0  0
   60.5943   31.7233   51.2403 H   0  0  0  0  0  0  0  0  0  0  0  0
   58.9727   32.4595   51.5482 H   0  0  0  0  0  0  0  0  0  0  0  0
   59.1140   30.9447   49.5010 H   0  0  0  0  0  0  0  0  0  0  0  0
   58.5075   32.6344   49.2082 H   0  0  0  0  0  0  0  0  0  0  0  0
   61.3350   32.4070   48.9070 H   0  0  0  0  0  0  0  0  0  0  0  0
   58.6732   35.3659   46.3536 H   0  0  0  0  0  0  0  0  0  0  0  0
   57.1121   35.0818   44.4317 H   0  0  0  0  0  0  0  0  0  0  0  0
   56.7047   32.8201   43.4642 H   0  0  0  0  0  0  0  0  0  0  0  0
   57.1600   30.4119   43.4425 H   0  0  0  0  0  0  0  0  0  0  0  0
   59.9670   28.7229   46.2686 H   0  0  0  0  0  0  0  0  0  0  0  0
  1  2  1  0
  2  3  1  0
  3  4  1  0
  4  5  1  0
  3  6  1  0
  6  7  1  0
  7  8  1  0
  8  9  1  0
  9 10  1  0
 10 11  1  0
 11 12  1  0
 12 13  2  0
 12 14  1  0
 14 15  1  0
 15 16  2  0
 16 17  1  0
 17 18  2  0
 18 19  1  0
 19 20  2  0
 20 21  1  0
 20 22  1  0
 22 23  2  0
 23 24  1  0
 23 25  1  0
 25 26  2  0
 25 11  1  0
 24 14  2  0
 24 18  1  0
  1 27  1  0
  1 28  1  0
  1 29  1  0
  2 30  1  0
  2 31  1  0
  4 32  1  0
  4 33  1  0
  5 34  1  0
  5 35  1  0
  5 36  1  0
  6 37  1  0
  6 38  1  0
  7 39  1  0
  7 40  1  0
  8 41  1  0
  8 42  1  0
  9 43  1  0
  9 44  1  0
 10 45  1  0
 10 46  1  0
 11 47  1  1
 15 48  1  0
 16 49  1  0
 17 50  1  0
 19 51  1  0
 22 52  1  0
M  CHG  1  11   1
M  END
>  <UniqueID>  (9) 
9

>  <SMILES>  (9) 
CCN(CC)CCCCC[N@@H+]1C(=O)c2cccc3cc(Br)cc(c23)C1=O

>  <Energy>  (9) 
57.830800342009184

>  <Genealogy>  (9) 
CCN(CC)CCCCC[NH+]1C(=O)c2cccc3cc(Br)cc(c23)C1=O (protonated)
CCN(CC)CCCCC[N@@H+]1C(=O)c2cccc3cc(Br)cc(c23)C1=O (chirality)
CCN(CC)CCCCC[N@@H+]1C(=O)c2cccc3cc(Br)cc(c23)C1=O (3D coordinates assigned)
CCN(CC)CCCCC[N@@H+]1C(=O)c2cccc3cc(Br)cc(c23)C1=O (nonaromatic ring conformer: 57.830800342009184 kcal/mol)

>  <smiles>  (9) 
CCN(CC)CCCCCN1C(=O)c2cccc3cc(Br)cc(c23)C1=O

>  <score_type>  (9) 
oracle

>  <origin>  (9) 
adg

>  <m_score__min__energy>  (9) 
-7.0899999999999999

>  <m_primary>  (9) 
energy

$$$$
9:0
     RDKit          3D

 65 69  0  0  0  0  0  0  0  0999 V2000
   61.4210   28.5900   44.6170 C   0  0  0  0  0  0  0  0  0  0  0  0
   60.8390   28.0650   45.9420 C   0  0  0  0  0  0  0  0  0  0  0  0
   59.3490   28.3530   46.1200 C   0  0  0  0  0  0  0  0  0  0  0  0
   58.8110   29.6690   45.9160 C   0  0  0  0  0  0  0  0  0  0  0  0
   57.5070   29.7790   45.4900 N   0  0  0  0  0  0  0  0  0  0  0  0
   56.6330   28.7410   45.6020 C   0  0  0  0  0  0  0  0  0  0  0  0
   57.0560   27.4870   46.0400 C   0  0  0  0  0  0  0  0  0  0  0  0
   56.1310   26.4300   46.1830 C   0  0  0  0  0  0  0  0  0  0  0  0
   54.7690   26.6520   45.9910 O   0  0  0  0  0  0  0  0  0  0  0  0
   56.5650   25.1450   46.5180 C   0  0  0  0  0  0  0  0  0  0  0  0
   55.6010   24.1320   46.6650 O   0  0  0  0  0  0  0  0  0  0  0  0
   55.7880   22.9070   47.3720 C   0  0  0  0  0  0  0  0  0  0  0  0
   56.8550   22.0460   46.6840 C   0  0  0  0  0  0  0  0  0  0  0  0
   56.3100   21.3170   45.4530 C   0  0  0  0  0  0  0  0  0  0  0  0
   56.9990   21.8000   44.2280 N   0  0  0  0  0  0  0  0  0  0  0  0
   56.0890   22.5750   43.3540 C   0  0  0  0  0  0  0  0  0  0  0  0
   56.2870   24.0740   43.5710 C   0  0  0  0  0  0  0  0  0  0  0  0
   58.2230   22.5670   44.5500 C   0  0  0  0  0  0  0  0  0  0  0  0
   59.4680   21.8090   44.0900 C   0  0  0  0  0  0  0  0  0  0  0  0
   57.9380   24.9100   46.6810 C   0  0  0  0  0  0  0  0  0  0  0  0
   58.8580   25.9490   46.5380 C   0  0  0  0  0  0  0  0  0  0  0  0
   58.4360   27.2650   46.2430 C   0  0  0  0  0  0  0  0  0  0  0  0
   57.0830   30.9460   44.6980 C   0  0  0  0  0  0  0  0  0  0  0  0
   57.5520   32.2490   45.3180 C   0  0  0  0  0  0  0  0  0  0  0  0
   59.0020   32.1880   45.6930 C   0  0  0  0  0  0  0  0  0  0  0  0
   59.7010   33.4070   45.8360 C   0  0  0  0  0  0  0  0  0  0  0  0
   60.9350   33.3830   46.4660 C   0  0  0  0  0  0  0  0  0  0  0  0
   61.4510   32.2430   46.9720 C   0  0  0  0  0  0  0  0  0  0  0  0
   60.7960   31.0230   46.8590 C   0  0  0  0  0  0  0  0  0  0  0  0
   59.5850   30.9540   46.1220 C   0  0  0  0  0  0  0  0  0  0  0  0
   62.6480   32.5210   47.6050 O   0  0  0  0  0  0  0  0  0  0  0  0
   62.9020   33.9260   47.4740 C   0  0  0  0  0  0  0  0  0  0  0  0
   61.7810   34.4400   46.7420 O   0  0  0  0  0  0  0  0  0  0  0  0
   62.2224   29.3129   44.8294 H   0  0  0  0  0  0  0  0  0  0  0  0
   61.8298   27.7492   44.0374 H   0  0  0  0  0  0  0  0  0  0  0  0
   60.6266   29.0830   44.0374 H   0  0  0  0  0  0  0  0  0  0  0  0
   60.9882   26.9758   45.9785 H   0  0  0  0  0  0  0  0  0  0  0  0
   61.3652   28.5903   46.7527 H   0  0  0  0  0  0  0  0  0  0  0  0
   55.5751   28.8945   45.3425 H   0  0  0  0  0  0  0  0  0  0  0  0
   56.1095   23.1282   48.4004 H   0  0  0  0  0  0  0  0  0  0  0  0
   54.8373   22.3538   47.3821 H   0  0  0  0  0  0  0  0  0  0  0  0
   57.6857   22.6956   46.3712 H   0  0  0  0  0  0  0  0  0  0  0  0
   57.1888   21.2850   47.4048 H   0  0  0  0  0  0  0  0  0  0  0  0
   56.4811   20.2361   45.5647 H   0  0  0  0  0  0  0  0  0  0  0  0
   55.2322   21.5175   45.3631 H   0  0  0  0  0  0  0  0  0  0  0  0
   56.3011   22.3303   42.3028 H   0  0  0  0  0  0  0  0  0  0  0  0
   55.0496   22.3138   43.6018 H   0  0  0  0  0  0  0  0  0  0  0  0
   56.3152   24.2878   44.6497 H   0  0  0  0  0  0  0  0  0  0  0  0
   57.2346   24.3892   43.1098 H   0  0  0  0  0  0  0  0  0  0  0  0
   55.4538   24.6245   43.1098 H   0  0  0  0  0  0  0  0  0  0  0  0
   58.1839   23.5412   44.0407 H   0  0  0  0  0  0  0  0  0  0  0  0
   58.2764   22.7097   45.6394 H   0  0  0  0  0  0  0  0  0  0  0  0
   60.0333   21.4649   44.9687 H   0  0  0  0  0  0  0  0  0  0  0  0
   59.1663   20.9412   43.4851 H   0  0  0  0  0  0  0  0  0  0  0  0
   60.1004   22.4755   43.4851 H   0  0  0  0  0  0  0  0  0  0  0  0
   58.2927   23.8974   46.9238 H   0  0  0  0  0  0  0  0  0  0  0  0
   59.9314   25.7400   46.6570 H   0  0  0  0  0  0  0  0  0  0  0  0
   57.5048   30.8614   43.6856 H   0  0  0  0  0  0  0  0  0  0  0  0
   55.9835   30.9578   44.6688 H   0  0  0  0  0  0  0  0  0  0  0  0
   57.4041   33.0633   44.5934 H   0  0  0  0  0  0  0  0  0  0  0  0
   56.9662   32.4270   46.2319 H   0  0  0  0  0  0  0  0  0  0  0  0
   59.2776   34.3492   45.4578 H   0  0  0  0  0  0  0  0  0  0  0  0
   61.2107   30.1220   47.3347 H   0  0  0  0  0  0  0  0  0  0  0  0
   62.9676   34.4008   48.4641 H   0  0  0  0  0  0  0  0  0  0  0  0
   63.8556   34.1273   46.9639 H   0  0  0  0  0  0  0  0  0  0  0  0
  1  2  1  0
  2  3  1  0
  3  4  2  0
  4  5  1  0
  5  6  2  0
  6  7  1  0
  7  8  2  0
  8  9  1  0
  8 10  1  0
 10 11  1  0
 11 12  1  0
 12 13  1  0
 13 14  1  0
 14 15  1  0
 15 16  1  0
 16 17  1  0
 15 18  1  0
 18 19  1  0
 10 20  2  0
 20 21  1  0
 21 22  2  0
  5 23  1  0
 23 24  1  0
 24 25  1  0
 25 26  2  0
 26 27  1  0
 27 28  2  0
 28 29  1  0
 29 30  2  0
 28 31  1  0
 31 32  1  0
 32 33  1  0
 22  3  1  0
 30 25  1  0
 30  4  1  0
 22  7  1  0
 33 27  1  0
  1 34  1  0
  1 35  1  0
  1 36  1  0
  2 37  1  0
  2 38  1  0
  6 39  1  0
 12 40  1  0
 12 41  1  0
 13 42  1  0
 13 43  1  0
 14 44  1  0
 14 45  1  0
 16 46  1  0
 16 47  1  0
 17 48  1  0
 17 49  1  0
 17 50  1  0
 18 51  1  0
 18 52  1  0
 19 53  1  0
 19 54  1  0
 19 55  1  0
 20 56  1  0
 21 57  1  0
 23 58  1  0
 23 59  1  0
 24 60  1  0
 24 61  1  0
 26 62  1  0
 29 63  1  0
 32 64  1  0
 32 65  1  0
M  CHG  2   5   1   9  -1
M  END
>  <UniqueID>  (10) 
10

>  <SMILES>  (10) 
CCc1c2[n+](cc3c([O-])c(OCCCN(CC)CC)ccc13)CCc1cc3c(cc1-2)OCO3

>  <Energy>  (10) 
127.66130091369119

>  <Genealogy>  (10) 
CCc1c2[n+](cc3c([O-])c(OCCCN(CC)CC)ccc13)CCc1cc3c(cc1-2)OCO3 (protonated)
CCc1c2[n+](cc3c([O-])c(OCCCN(CC)CC)ccc13)CCc1cc3c(cc1-2)OCO3 (3D coordinates assigned)
CCc1c2[n+](cc3c([O-])c(OCCCN(CC)CC)ccc13)CCc1cc3c(cc1-2)OCO3 (nonaromatic ring conformer: 127.66130091369119 kcal/mol)

>  <smiles>  (10) 
CCc1c2[n+](cc3c(O)c(OCCCN(CC)CC)ccc13)CCc1cc3c(cc1-2)OCO3

>  <score_type>  (10) 
oracle

>  <origin>  (10) 
adg

>  <m_score__min__energy>  (10) 
-9.7699999999999996

>  <m_primary>  (10) 
energy

$$$$
10:0
     RDKit          3D

 45 47  0  0  0  0  0  0  0  0999 V2000
   56.6250   23.6780   43.2230 C   0  0  0  0  0  0  0  0  0  0  0  0
   56.5710   24.1960   44.6560 C   0  0  0  0  0  0  0  0  0  0  0  0
   57.1750   25.5240   44.7470 N   0  0  0  0  0  0  0  0  0  0  0  0
   58.4310   25.7590   45.3980 C   0  0  0  0  0  0  0  0  0  0  0  0
   59.0460   24.8040   45.9450 O   0  0  0  0  0  0  0  0  0  0  0  0
   58.9680   27.0900   45.4420 N   0  0  0  0  0  0  0  0  0  0  0  0
   60.2520   27.4180   45.9970 C   0  0  0  0  0  0  0  0  0  0  0  0
   61.0550   26.5090   46.3430 O   0  0  0  0  0  0  0  0  0  0  0  0
   60.6770   28.8520   46.1160 C   0  0  0  0  0  0  0  0  0  0  0  0
   59.6570   29.6260   46.7450 O   0  0  0  0  0  0  0  0  0  0  0  0
   58.4010   29.8520   46.1720 C   0  0  0  0  0  0  0  0  0  0  0  0
   57.4200   29.1350   46.5130 O   0  0  0  0  0  0  0  0  0  0  0  0
   58.2030   30.9500   45.1910 C   0  0  0  0  0  0  0  0  0  0  0  0
   58.6010   32.2540   45.5450 C   0  0  0  0  0  0  0  0  0  0  0  0
   58.4570   33.3160   44.6470 C   0  0  0  0  0  0  0  0  0  0  0  0
   58.9700   34.9660   45.1220 S   0  0  0  0  0  0  0  0  0  0  0  0
   60.1340   34.3460   46.3280 C   0  0  0  0  0  0  0  0  0  0  0  0
   61.3590   33.8700   46.0000 N   0  0  0  0  0  0  0  0  0  0  0  0
   62.0220   33.4490   47.1060 C   0  0  0  0  0  0  0  0  0  0  0  0
   63.3060   32.9020   47.0960 C   0  0  0  0  0  0  0  0  0  0  0  0
   63.8790   32.5020   48.3160 C   0  0  0  0  0  0  0  0  0  0  0  0
   63.1660   32.6500   49.5230 C   0  0  0  0  0  0  0  0  0  0  0  0
   61.8760   33.2010   49.5200 C   0  0  0  0  0  0  0  0  0  0  0  0
   61.3310   33.5920   48.3000 C   0  0  0  0  0  0  0  0  0  0  0  0
   59.8250   34.2660   47.9890 S   0  0  0  0  0  0  0  0  0  0  0  0
   57.9160   33.0900   43.3810 C   0  0  0  0  0  0  0  0  0  0  0  0
   57.5040   31.8080   43.0170 C   0  0  0  0  0  0  0  0  0  0  0  0
   57.6380   30.7360   43.9080 C   0  0  0  0  0  0  0  0  0  0  0  0
   57.0270   29.1700   43.3800 Cl  0  0  0  0  0  0  0  0  0  0  0  0
   56.7391   22.5840   43.2326 H   0  0  0  0  0  0  0  0  0  0  0  0
   55.6941   23.9450   42.7013 H   0  0  0  0  0  0  0  0  0  0  0  0
   57.4808   24.1313   42.7013 H   0  0  0  0  0  0  0  0  0  0  0  0
   55.5214   24.2534   44.9802 H   0  0  0  0  0  0  0  0  0  0  0  0
   57.1325   23.5063   45.3034 H   0  0  0  0  0  0  0  0  0  0  0  0
   56.6400   26.3390   44.3730 H   0  0  0  0  0  0  0  0  0  0  0  0
   58.3870   27.8650   45.0490 H   0  0  0  0  0  0  0  0  0  0  0  0
   61.5964   28.9081   46.7173 H   0  0  0  0  0  0  0  0  0  0  0  0
   60.8573   29.2539   45.1081 H   0  0  0  0  0  0  0  0  0  0  0  0
   59.0306   32.4392   46.5406 H   0  0  0  0  0  0  0  0  0  0  0  0
   63.8588   32.7861   46.1521 H   0  0  0  0  0  0  0  0  0  0  0  0
   64.8908   32.0705   48.3287 H   0  0  0  0  0  0  0  0  0  0  0  0
   63.6233   32.3320   50.4715 H   0  0  0  0  0  0  0  0  0  0  0  0
   61.3105   33.3209   50.4559 H   0  0  0  0  0  0  0  0  0  0  0  0
   57.8143   33.9229   42.6698 H   0  0  0  0  0  0  0  0  0  0  0  0
   57.0698   31.6375   42.0208 H   0  0  0  0  0  0  0  0  0  0  0  0
  1  2  1  0
  2  3  1  0
  3  4  1  0
  4  5  2  0
  4  6  1  0
  6  7  1  0
  7  8  2  0
  7  9  1  0
  9 10  1  0
 10 11  1  0
 11 12  2  0
 11 13  1  0
 13 14  2  0
 14 15  1  0
 15 16  1  0
 16 17  1  0
 17 18  2  0
 18 19  1  0
 19 20  2  0
 20 21  1  0
 21 22  2  0
 22 23  1  0
 23 24  2  0
 24 25  1  0
 15 26  2  0
 26 27  1  0
 27 28  2  0
 28 29  1  0
 28 13  1  0
 25 17  1  0
 24 19  1  0
  1 30  1  0
  1 31  1  0
  1 32  1  0
  2 33  1  0
  2 34  1  0
  3 35  1  0
  6 36  1  0
  9 37  1  0
  9 38  1  0
 14 39  1  0
 20 40  1  0
 21 41  1  0
 22 42  1  0
 23 43  1  0
 26 44  1  0
 27 45  1  0
M  END
>  <UniqueID>  (11) 
11

>  <SMILES>  (11) 
CCNC(=O)NC(=O)COC(=O)c1cc(Sc2nc3ccccc3s2)ccc1Cl

>  <Energy>  (11) 
73.98016390973727

>  <Genealogy>  (11) 
CCNC(=O)NC(=O)COC(=O)c1cc(Sc2nc3ccccc3s2)ccc1Cl (3D coordinates assigned)
CCNC(=O)NC(=O)COC(=O)c1cc(Sc2nc3ccccc3s2)ccc1Cl (optimized conformer: 73.98016390973727 kcal/mol)

>  <smiles>  (11) 
CCNC(=O)NC(=O)COC(=O)c1cc(Sc2nc3ccccc3s2)ccc1Cl

>  <score_type>  (11) 
oracle

>  <origin>  (11) 
adg

>  <m_score__min__energy>  (11) 
-9.5399999999999991

>  <m_primary>  (11) 
energy

$$$$
11:0
     RDKit          3D

 67 71  0  0  0  0  0  0  0  0999 V2000
   63.7500   33.1180   46.7990 C   0  0  0  0  0  0  0  0  0  0  0  0
   63.6770   33.4370   48.2910 C   0  0  0  0  0  0  0  0  0  0  0  0
   63.4570   32.2520   48.9870 O   0  0  0  0  0  0  0  0  0  0  0  0
   62.6360   32.0990   50.0590 C   0  0  0  0  0  0  0  0  0  0  0  0
   62.9540   32.6950   51.2530 C   0  0  0  0  0  0  0  0  0  0  0  0
   62.1340   32.5560   52.3710 C   0  0  0  0  0  0  0  0  0  0  0  0
   60.9800   31.7930   52.2400 C   0  0  0  0  0  0  0  0  0  0  0  0
   60.6830   31.1990   51.0170 C   0  0  0  0  0  0  0  0  0  0  0  0
   61.4950   31.3370   49.9090 C   0  0  0  0  0  0  0  0  0  0  0  0
   61.1060   30.6890   48.6710 C   0  0  0  0  0  0  0  0  0  0  0  0
   59.9000   30.0170   48.4360 C   0  0  0  0  0  0  0  0  0  0  0  0
   59.8810   29.5590   47.1460 C   0  0  0  0  0  0  0  0  0  0  0  0
   58.9030   28.8310   46.3690 C   0  0  0  0  0  0  0  0  0  0  0  0
   58.6600   27.5150   46.5680 N   0  0  0  0  0  0  0  0  0  0  0  0
   57.7080   27.1460   45.7010 C   0  0  0  0  0  0  0  0  0  0  0  0
   57.1640   25.8450   45.6010 N   0  0  0  0  0  0  0  0  0  0  0  0
   56.3590   25.2900   46.6990 C   0  0  0  0  0  0  0  0  0  0  0  0
   56.9320   23.8910   46.9200 C   0  0  0  0  0  0  0  0  0  0  0  0
   56.5840   23.1270   45.8470 O   0  0  0  0  0  0  0  0  0  0  0  0
   56.7550   23.6400   44.5990 C   0  0  0  0  0  0  0  0  0  0  0  0
   57.3640   24.9820   44.4630 C   0  0  0  0  0  0  0  0  0  0  0  0
   57.3200   28.1790   44.9410 N   0  0  0  0  0  0  0  0  0  0  0  0
   58.0680   29.2420   45.3570 C   0  0  0  0  0  0  0  0  0  0  0  0
   57.9240   30.5500   44.7360 C   0  0  0  0  0  0  0  0  0  0  0  0
   57.7910   30.7330   43.3720 C   0  0  0  0  0  0  0  0  0  0  0  0
   57.7090   32.0290   42.9130 C   0  0  0  0  0  0  0  0  0  0  0  0
   57.7600   33.1010   43.7970 C   0  0  0  0  0  0  0  0  0  0  0  0
   57.8940   32.9460   45.1550 C   0  0  0  0  0  0  0  0  0  0  0  0
   57.9800   34.0210   46.1360 C   0  0  0  0  0  0  0  0  0  0  0  0
   59.2570   34.3370   46.6620 N   0  0  0  0  0  0  0  0  0  0  0  0
   60.3940   33.8340   45.9640 C   0  0  0  0  0  0  0  0  0  0  0  0
   59.2850   33.7830   48.0270 C   0  0  0  0  0  0  0  0  0  0  0  0
   57.9750   31.6370   45.6190 C   0  0  0  0  0  0  0  0  0  0  0  0
   61.0690   29.9520   46.6050 N   0  0  0  0  0  0  0  0  0  0  0  0
   61.7830   30.6150   47.5100 N   0  0  0  0  0  0  0  0  0  0  0  0
   63.9935   32.0539   46.6630 H   0  0  0  0  0  0  0  0  0  0  0  0
   62.7790   33.3348   46.3298 H   0  0  0  0  0  0  0  0  0  0  0  0
   64.5300   33.7355   46.3298 H   0  0  0  0  0  0  0  0  0  0  0  0
   64.6238   33.8900   48.6201 H   0  0  0  0  0  0  0  0  0  0  0  0
   62.8577   34.1449   48.4848 H   0  0  0  0  0  0  0  0  0  0  0  0
   63.8735   33.2939   51.3292 H   0  0  0  0  0  0  0  0  0  0  0  0
   62.3920   33.0351   53.3270 H   0  0  0  0  0  0  0  0  0  0  0  0
   60.3050   31.6593   53.0982 H   0  0  0  0  0  0  0  0  0  0  0  0
   59.7666   30.5968   50.9298 H   0  0  0  0  0  0  0  0  0  0  0  0
   59.0945   29.8789   49.1723 H   0  0  0  0  0  0  0  0  0  0  0  0
   56.4646   25.9019   47.6070 H   0  0  0  0  0  0  0  0  0  0  0  0
   55.2847   25.2709   46.4635 H   0  0  0  0  0  0  0  0  0  0  0  0
   58.0276   23.9436   47.0030 H   0  0  0  0  0  0  0  0  0  0  0  0
   56.5358   23.4545   47.8487 H   0  0  0  0  0  0  0  0  0  0  0  0
   57.3927   22.9365   44.0436 H   0  0  0  0  0  0  0  0  0  0  0  0
   55.7308   23.7701   44.2194 H   0  0  0  0  0  0  0  0  0  0  0  0
   58.4464   24.8551   44.3135 H   0  0  0  0  0  0  0  0  0  0  0  0
   56.8673   25.4672   43.6099 H   0  0  0  0  0  0  0  0  0  0  0  0
   56.5960   28.1920   44.1830 H   0  0  0  0  0  0  0  0  0  0  0  0
   57.7522   29.8779   42.6812 H   0  0  0  0  0  0  0  0  0  0  0  0
   57.6019   32.2181   41.8347 H   0  0  0  0  0  0  0  0  0  0  0  0
   57.6898   34.1204   43.3898 H   0  0  0  0  0  0  0  0  0  0  0  0
   57.5873   34.9315   45.6597 H   0  0  0  0  0  0  0  0  0  0  0  0
   57.4087   33.6522   47.0007 H   0  0  0  0  0  0  0  0  0  0  0  0
   61.1507   33.4992   46.6888 H   0  0  0  0  0  0  0  0  0  0  0  0
   60.0909   32.9860   45.3323 H   0  0  0  0  0  0  0  0  0  0  0  0
   60.8176   34.6287   45.3323 H   0  0  0  0  0  0  0  0  0  0  0  0
   59.2435   34.6047   48.7571 H   0  0  0  0  0  0  0  0  0  0  0  0
   58.4192   33.1200   48.1715 H   0  0  0  0  0  0  0  0  0  0  0  0
   60.2132   33.2107   48.1715 H   0  0  0  0  0  0  0  0  0  0  0  0
   58.0810   31.4519   46.6981 H   0  0  0  0  0  0  0  0  0  0  0  0
   62.7260   30.9900   47.2700 H   0  0  0  0  0  0  0  0  0  0  0  0
  1  2  1  0
  2  3  1  0
  3  4  1  0
  4  5  2  0
  5  6  1  0
  6  7  2  0
  7  8  1  0
  8  9  2  0
  9 10  1  0
 10 11  2  0
 11 12  1  0
 12 13  1  0
 13 14  1  0
 14 15  2  0
 15 16  1  0
 16 17  1  0
 17 18  1  0
 18 19  1  0
 19 20  1  0
 20 21  1  0
 15 22  1  0
 22 23  1  0
 23 24  1  0
 24 25  2  0
 25 26  1  0
 26 27  2  0
 27 28  1  0
 28 29  1  0
 29 30  1  0
 30 31  1  0
 30 32  1  0
 28 33  2  0
 12 34  2  0
 34 35  1  0
  9  4  1  0
 35 10  1  0
 23 13  2  0
 33 24  1  0
 21 16  1  0
  1 36  1  0
  1 37  1  0
  1 38  1  0
  2 39  1  0
  2 40  1  0
  5 41  1  0
  6 42  1  0
  7 43  1  0
  8 44  1  0
 11 45  1  0
 17 46  1  0
 17 47  1  0
 18 48  1  0
 18 49  1  0
 20 50  1  0
 20 51  1  0
 21 52  1  0
 21 53  1  0
 22 54  1  0
 25 55  1  0
 26 56  1  0
 27 57  1  0
 29 58  1  0
 29 59  1  0
 31 60  1  0
 31 61  1  0
 31 62  1  0
 32 63  1  0
 32 64  1  0
 32 65  1  0
 33 66  1  0
 35 67  1  0
M  END
>  <smiles>  (12) 
CCOc1ccccc1-c1cc(-c2nc(N3CCOCC3)[nH]c2-c2cccc(CN(C)C)c2)n[nH]1

>  <score_type>  (12) 
oracle

>  <origin>  (12) 
adg

>  <m_score__min__energy>  (12) 
-9.1500000000000004

>  <m_primary>  (12) 
energy

$$$$
12:0
     RDKit          3D

 36 36  0  0  0  0  0  0  0  0999 V2000
   57.7070   32.3280   41.4530 C   0  0  0  0  0  0  0  0  0  0  0  0
   57.6580   31.7530   42.8640 C   0  0  0  0  0  0  0  0  0  0  0  0
   56.8320   30.4630   42.9090 C   0  0  0  0  0  0  0  0  0  0  0  0
   55.9050   30.4460   44.1270 C   0  0  0  0  0  0  0  0  0  0  0  0
   56.0850   29.1980   44.8800 N   0  0  0  0  0  0  0  0  0  0  0  0
   57.4830   28.7440   44.8360 C   0  0  0  0  0  0  0  0  0  0  0  0
   57.8850   28.1110   46.1700 C   0  0  0  0  0  0  0  0  0  0  0  0
   58.7680   29.3340   47.2070 S   0  0  0  0  0  0  0  0  0  0  0  0
   58.4660   30.8070   46.1590 C   0  0  0  0  0  0  0  0  0  0  0  0
   59.4770   31.8950   46.4200 C   0  0  0  0  0  0  0  0  0  0  0  0
   60.7660   31.5460   46.8640 C   0  0  0  0  0  0  0  0  0  0  0  0
   61.7070   32.5350   47.1590 C   0  0  0  0  0  0  0  0  0  0  0  0
   61.3780   33.8820   47.0040 C   0  0  0  0  0  0  0  0  0  0  0  0
   60.1080   34.2440   46.5490 C   0  0  0  0  0  0  0  0  0  0  0  0
   59.1550   33.2620   46.2540 C   0  0  0  0  0  0  0  0  0  0  0  0
   57.4380   33.8390   45.6220 Br  0  0  0  0  0  0  0  0  0  0  0  0
   57.8003   33.4227   41.5062 H   0  0  0  0  0  0  0  0  0  0  0  0
   58.5729   31.9118   40.9173 H   0  0  0  0  0  0  0  0  0  0  0  0
   56.7831   32.0643   40.9173 H   0  0  0  0  0  0  0  0  0  0  0  0
   58.6830   31.5344   43.1981 H   0  0  0  0  0  0  0  0  0  0  0  0
   57.1838   32.4932   43.5252 H   0  0  0  0  0  0  0  0  0  0  0  0
   56.2251   30.3926   41.9943 H   0  0  0  0  0  0  0  0  0  0  0  0
   57.5210   29.6086   42.9817 H   0  0  0  0  0  0  0  0  0  0  0  0
   56.1426   31.3009   44.7772 H   0  0  0  0  0  0  0  0  0  0  0  0
   54.8613   30.5140   43.7864 H   0  0  0  0  0  0  0  0  0  0  0  0
   55.5000   28.4630   44.4160 H   0  0  0  0  0  0  0  0  0  0  0  0
   57.5966   28.0000   44.0338 H   0  0  0  0  0  0  0  0  0  0  0  0
   58.1321   29.6112   44.6447 H   0  0  0  0  0  0  0  0  0  0  0  0
   56.9819   27.7710   46.6980 H   0  0  0  0  0  0  0  0  0  0  0  0
   58.5501   27.2564   45.9767 H   0  0  0  0  0  0  0  0  0  0  0  0
   58.5267   30.5104   45.1015 H   0  0  0  0  0  0  0  0  0  0  0  0
   57.4682   31.2013   46.4016 H   0  0  0  0  0  0  0  0  0  0  0  0
   61.0346   30.4856   46.9797 H   0  0  0  0  0  0  0  0  0  0  0  0
   62.7088   32.2516   47.5140 H   0  0  0  0  0  0  0  0  0  0  0  0
   62.1194   34.6595   47.2403 H   0  0  0  0  0  0  0  0  0  0  0  0
   59.8552   35.3070   46.4217 H   0  0  0  0  0  0  0  0  0  0  0  0
  1  2  1  0
  2  3  1  0
  3  4  1  0
  4  5  1  0
  5  6  1  0
  6  7  1  0
  7  8  1  0
  8  9  1  0
  9 10  1  0
 10 11  2  0
 11 12  1  0
 12 13  2  0
 13 14  1  0
 14 15  2  0
 15 16  1  0
 15 10  1  0
  1 17  1  0
  1 18  1  0
  1 19  1  0
  2 20  1  0
  2 21  1  0
  3 22  1  0
  3 23  1  0
  4 24  1  0
  4 25  1  0
  5 26  1  0
  6 27  1  0
  6 28  1  0
  7 29  1  0
  7 30  1  0
  9 31  1  0
  9 32  1  0
 11 33  1  0
 12 34  1  0
 13 35  1  0
 14 36  1  0
M  END
>  <UniqueID>  (13) 
12

>  <SMILES>  (13) 
CCCCNCCSCc1ccccc1Br

>  <Energy>  (13) 
20.594799234704613

>  <Genealogy>  (13) 
CCCCNCCSCc1ccccc1Br (3D coordinates assigned)
CCCCNCCSCc1ccccc1Br (optimized conformer: 20.594799234704613 kcal/mol)

>  <smiles>  (13) 
CCCCNCCSCc1ccccc1Br

>  <score_type>  (13) 
oracle

>  <origin>  (13) 
adg

>  <m_score__min__energy>  (13) 
-6.6600000000000001

>  <m_primary>  (13) 
energy

$$$$
13:0
     RDKit          3D

 31 32  0  0  0  0  0  0  0  0999 V2000
   60.5092   33.5614   47.6187 H   0  0  0  0  0  0  0  0  0  0  0  0
   59.6890   33.4450   46.8950 C   0  0  0  0  0  0  0  0  0  0  0  0
   58.9190   34.4470   46.4250 N   0  0  0  0  0  0  0  0  0  0  0  0
   58.0620   33.8400   45.5760 C   0  0  0  0  0  0  0  0  0  0  0  0
   56.9780   34.5910   44.8660 C   0  0  0  0  0  0  0  0  0  0  0  0
   56.3085   35.0548   45.6053 H   0  0  0  0  0  0  0  0  0  0  0  0
   57.4262   35.3731   44.2356 H   0  0  0  0  0  0  0  0  0  0  0  0
   56.4032   33.8966   44.2356 H   0  0  0  0  0  0  0  0  0  0  0  0
   58.2790   32.5050   45.4840 N   0  0  0  0  0  0  0  0  0  0  0  0
   57.5730   31.5140   44.7200 C   0  0  0  0  0  0  0  0  0  0  0  0
   57.1340   30.3830   45.3360 N   0  0  0  0  0  0  0  0  0  0  0  0
   56.4790   29.4060   44.6500 C   0  0  0  0  0  0  0  0  0  0  0  0
   56.0580   28.3330   45.2510 N   0  0  0  0  0  0  0  0  0  0  0  0
   56.8930   27.1810   45.5910 C   0  0  0  0  0  0  0  0  0  0  0  0
   57.7344   27.5188   46.2139 H   0  0  0  0  0  0  0  0  0  0  0  0
   57.2592   26.7282   44.6578 H   0  0  0  0  0  0  0  0  0  0  0  0
   56.0920   26.1250   46.3620 C   0  0  0  0  0  0  0  0  0  0  0  0
   56.1554   26.3387   47.4392 H   0  0  0  0  0  0  0  0  0  0  0  0
   56.5137   25.1325   46.1450 H   0  0  0  0  0  0  0  0  0  0  0  0
   54.7330   26.1400   45.9640 O   0  0  0  0  0  0  0  0  0  0  0  0
   54.3080   24.8440   45.6080 C   0  0  0  0  0  0  0  0  0  0  0  0
   54.1158   24.2580   46.5189 H   0  0  0  0  0  0  0  0  0  0  0  0
   53.3848   24.9112   45.0137 H   0  0  0  0  0  0  0  0  0  0  0  0
   55.0917   24.3515   45.0137 H   0  0  0  0  0  0  0  0  0  0  0  0
   56.2680   29.5480   43.3150 N   0  0  0  0  0  0  0  0  0  0  0  0
   56.7030   30.6500   42.6520 C   0  0  0  0  0  0  0  0  0  0  0  0
   56.5252   30.7470   41.5708 H   0  0  0  0  0  0  0  0  0  0  0  0
   57.3750   31.6590   43.3410 C   0  0  0  0  0  0  0  0  0  0  0  0
   57.7422   32.5509   42.8122 H   0  0  0  0  0  0  0  0  0  0  0  0
   59.2920   32.2550   46.3310 C   0  0  0  0  0  0  0  0  0  0  0  0
   59.7292   31.2670   46.5380 H   0  0  0  0  0  0  0  0  0  0  0  0
  1  2  1  0
  2  3  1  0
  3  4  2  0
  4  5  1  0
  5  6  1  0
  5  7  1  0
  5  8  1  0
  4  9  1  0
  9 10  1  0
 10 11  2  0
 11 12  1  0
 12 13  2  0
 13 14  1  0
 14 15  1  0
 14 16  1  0
 14 17  1  0
 17 18  1  0
 17 19  1  0
 17 20  1  0
 20 21  1  0
 21 22  1  0
 21 23  1  0
 21 24  1  0
 12 25  1  0
 25 26  1  0
 26 27  1  0
 26 28  2  0
 28 29  1  0
  9 30  1  0
 30 31  1  0
 30  2  2  0
 28 10  1  0
M  CHG  1  25  -1
M  END
>  <UniqueID>  (14) 
13

>  <SMILES>  (14) 
COCC/N=c1\nc(-n2ccnc2C)cc[n-]1

>  <Energy>  (14) 
64.87453957293857

>  <Genealogy>  (14) 
COCCN=c1nc(-n2ccnc2C)cc[n-]1 (protonated)
COCC/N=c1\nc(-n2ccnc2C)cc[n-]1 (cis-trans isomerization)
COCC/N=c1\nc(-n2ccnc2C)cc[n-]1 (3D coordinates assigned)
COCC/N=c1\nc(-n2ccnc2C)cc[n-]1 (optimized conformer: 64.87453957293857 kcal/mol)

>  <smiles>  (14) 
COCCN=c1nc(-n2ccnc2C)cc[nH]1

>  <score_type>  (14) 
oracle

>  <origin>  (14) 
adg

>  <m_score__min__energy>  (14) 
-7.9100000000000001

>  <m_primary>  (14) 
energy

$$$$
14:0
     RDKit          3D

 42 45  0  0  0  0  0  0  0  0999 V2000
   57.5870   34.0000   46.2910 C   0  0  0  0  0  0  0  0  0  0  0  0
   57.8670   32.6060   45.8140 C   0  0  0  0  0  0  0  0  0  0  0  0
   57.0440   32.0570   44.8790 N   0  0  0  0  0  0  0  0  0  0  0  0
   57.2620   30.8120   44.3830 C   0  0  0  0  0  0  0  0  0  0  0  0
   56.4060   30.2670   43.4200 C   0  0  0  0  0  0  0  0  0  0  0  0
   56.6530   28.9850   42.9150 C   0  0  0  0  0  0  0  0  0  0  0  0
   57.7530   28.2480   43.3710 C   0  0  0  0  0  0  0  0  0  0  0  0
   58.6110   28.7890   44.3350 C   0  0  0  0  0  0  0  0  0  0  0  0
   58.3670   30.0710   44.8430 C   0  0  0  0  0  0  0  0  0  0  0  0
   59.1840   30.6100   45.7830 N   0  0  0  0  0  0  0  0  0  0  0  0
   58.9600   31.8510   46.2960 C   0  0  0  0  0  0  0  0  0  0  0  0
   59.8550   32.3650   47.2960 N   0  0  0  0  0  0  0  0  0  0  0  0
   60.1210   31.6020   48.5230 C   0  0  0  0  0  0  0  0  0  0  0  0
   61.6300   31.5410   48.7960 C   0  0  0  0  0  0  0  0  0  0  0  0
   62.2760   32.8470   48.5890 N   0  0  0  0  0  0  0  0  0  0  0  0
   63.7100   32.9230   48.5020 C   0  0  0  0  0  0  0  0  0  0  0  0
   64.2410   33.4780   47.5020 O   0  0  0  0  0  0  0  0  0  0  0  0
   64.5750   32.3740   49.5610 C   0  0  0  0  0  0  0  0  0  0  0  0
   65.9070   32.7150   49.7720 C   0  0  0  0  0  0  0  0  0  0  0  0
   66.4720   32.0850   50.8880 C   0  0  0  0  0  0  0  0  0  0  0  0
   65.5880   31.2590   51.5700 C   0  0  0  0  0  0  0  0  0  0  0  0
   64.1050   31.3150   50.7820 S   0  0  0  0  0  0  0  0  0  0  0  0
   61.4640   34.0090   48.2050 C   0  0  0  0  0  0  0  0  0  0  0  0
   60.5500   33.6330   47.0370 C   0  0  0  0  0  0  0  0  0  0  0  0
   57.5835   34.0174   47.3909 H   0  0  0  0  0  0  0  0  0  0  0  0
   58.3666   34.6794   45.9160 H   0  0  0  0  0  0  0  0  0  0  0  0
   56.6055   34.3257   45.9160 H   0  0  0  0  0  0  0  0  0  0  0  0
   55.5413   30.8442   43.0607 H   0  0  0  0  0  0  0  0  0  0  0  0
   55.9810   28.5552   42.1576 H   0  0  0  0  0  0  0  0  0  0  0  0
   57.9430   27.2413   42.9704 H   0  0  0  0  0  0  0  0  0  0  0  0
   59.4745   28.2090   44.6927 H   0  0  0  0  0  0  0  0  0  0  0  0
   59.6184   32.0910   49.3705 H   0  0  0  0  0  0  0  0  0  0  0  0
   59.7385   30.5783   48.3976 H   0  0  0  0  0  0  0  0  0  0  0  0
   61.7910   31.2252   49.8373 H   0  0  0  0  0  0  0  0  0  0  0  0
   62.0762   30.8234   48.0918 H   0  0  0  0  0  0  0  0  0  0  0  0
   66.4620   33.4110   49.1259 H   0  0  0  0  0  0  0  0  0  0  0  0
   67.5180   32.2308   51.1956 H   0  0  0  0  0  0  0  0  0  0  0  0
   65.8187   30.6702   52.4700 H   0  0  0  0  0  0  0  0  0  0  0  0
   60.8514   34.3267   49.0616 H   0  0  0  0  0  0  0  0  0  0  0  0
   62.1262   34.8327   47.9002 H   0  0  0  0  0  0  0  0  0  0  0  0
   59.8041   34.4287   46.8939 H   0  0  0  0  0  0  0  0  0  0  0  0
   61.1674   33.5148   46.1343 H   0  0  0  0  0  0  0  0  0  0  0  0
  1  2  1  0
  2  3  2  0
  3  4  1  0
  4  5  2  0
  5  6  1  0
  6  7  2  0
  7  8  1  0
  8  9  2  0
  9 10  1  0
 10 11  2  0
 11 12  1  0
 12 13  1  0
 13 14  1  0
 14 15  1  0
 15 16  1  0
 16 17  2  0
 16 18  1  0
 18 19  2  0
 19 20  1  0
 20 21  2  0
 21 22  1  0
 15 23  1  0
 23 24  1  0
 11  2  1  0
 24 12  1  0
  9  4  1  0
 22 18  1  0
  1 25  1  0
  1 26  1  0
  1 27  1  0
  5 28  1  0
  6 29  1  0
  7 30  1  0
  8 31  1  0
 13 32  1  0
 13 33  1  0
 14 34  1  0
 14 35  1  0
 19 36  1  0
 20 37  1  0
 21 38  1  0
 23 39  1  0
 23 40  1  0
 24 41  1  0
 24 42  1  0
M  END
>  <UniqueID>  (15) 
14

>  <SMILES>  (15) 
Cc1nc2ccccc2nc1N1CCN(C(=O)c2cccs2)CC1

>  <Energy>  (15) 
83.46962665261677

>  <Genealogy>  (15) 
Cc1nc2ccccc2nc1N1CCN(C(=O)c2cccs2)CC1 (3D coordinates assigned)
Cc1nc2ccccc2nc1N1CCN(C(=O)c2cccs2)CC1 (nonaromatic ring conformer: 83.46962665261677 kcal/mol)

>  <smiles>  (15) 
Cc1nc2ccccc2nc1N1CCN(C(=O)c2cccs2)CC1

>  <score_type>  (15) 
oracle

>  <origin>  (15) 
adg

>  <m_score__min__energy>  (15) 
-7.4100000000000001

>  <m_primary>  (15) 
energy

$$$$
15:0
     RDKit          3D

 50 53  0  0  0  0  0  0  0  0999 V2000
   61.8790   29.2600   50.9760 C   0  0  0  0  0  0  0  0  0  0  0  0
   61.4240   30.4630   50.3650 O   0  0  0  0  0  0  0  0  0  0  0  0
   60.5310   30.5210   49.2820 C   0  0  0  0  0  0  0  0  0  0  0  0
   60.5670   29.5750   48.2410 C   0  0  0  0  0  0  0  0  0  0  0  0
   59.6820   29.6680   47.1660 C   0  0  0  0  0  0  0  0  0  0  0  0
   58.7530   30.7150   47.0990 C   0  0  0  0  0  0  0  0  0  0  0  0
   57.8020   30.8280   45.9710 C   0  0  0  0  0  0  0  0  0  0  0  0
   57.0300   29.8110   45.5430 N   0  0  0  0  0  0  0  0  0  0  0  0
   56.3150   30.3120   44.5440 N   0  0  0  0  0  0  0  0  0  0  0  0
   56.6180   31.5880   44.3630 N   0  0  0  0  0  0  0  0  0  0  0  0
   57.5370   31.9350   45.2470 N   0  0  0  0  0  0  0  0  0  0  0  0
   58.0760   33.2840   45.3770 C   0  0  0  0  0  0  0  0  0  0  0  0
   58.6960   31.6460   48.1460 C   0  0  0  0  0  0  0  0  0  0  0  0
   59.5730   31.5570   49.2420 C   0  0  0  0  0  0  0  0  0  0  0  0
   59.5220   32.5550   50.2840 N   0  0  0  0  0  0  0  0  0  0  0  0
   60.0540   33.8310   49.7880 C   0  0  0  0  0  0  0  0  0  0  0  0
   61.3680   33.6150   49.0830 C   0  0  0  0  0  0  0  0  0  0  0  0
   61.4640   33.8050   47.6970 C   0  0  0  0  0  0  0  0  0  0  0  0
   62.6720   33.5670   47.0370 C   0  0  0  0  0  0  0  0  0  0  0  0
   63.7870   33.1260   47.7520 C   0  0  0  0  0  0  0  0  0  0  0  0
   63.7070   32.9140   49.1390 C   0  0  0  0  0  0  0  0  0  0  0  0
   64.8910   32.4360   49.9000 C   0  0  0  0  0  0  0  0  0  0  0  0
   66.1310   33.0940   49.7830 C   0  0  0  0  0  0  0  0  0  0  0  0
   67.2430   32.6420   50.5000 C   0  0  0  0  0  0  0  0  0  0  0  0
   67.1320   31.5330   51.3410 C   0  0  0  0  0  0  0  0  0  0  0  0
   65.9070   30.8720   51.4660 C   0  0  0  0  0  0  0  0  0  0  0  0
   64.7920   31.3190   50.7500 C   0  0  0  0  0  0  0  0  0  0  0  0
   62.4870   33.1580   49.7970 C   0  0  0  0  0  0  0  0  0  0  0  0
   61.8387   29.3665   52.0701 H   0  0  0  0  0  0  0  0  0  0  0  0
   61.2348   28.4244   50.6650 H   0  0  0  0  0  0  0  0  0  0  0  0
   62.9149   29.0598   50.6650 H   0  0  0  0  0  0  0  0  0  0  0  0
   61.2993   28.7548   48.2748 H   0  0  0  0  0  0  0  0  0  0  0  0
   59.7139   28.9141   46.3656 H   0  0  0  0  0  0  0  0  0  0  0  0
   58.1772   33.5373   46.4426 H   0  0  0  0  0  0  0  0  0  0  0  0
   59.0627   33.3328   44.8932 H   0  0  0  0  0  0  0  0  0  0  0  0
   57.3946   33.9993   44.8932 H   0  0  0  0  0  0  0  0  0  0  0  0
   57.9546   32.4578   48.1097 H   0  0  0  0  0  0  0  0  0  0  0  0
   58.5310   32.6880   50.5990 H   0  0  0  0  0  0  0  0  0  0  0  0
   60.0750   32.2350   51.1150 H   0  0  0  0  0  0  0  0  0  0  0  0
   59.3341   34.2746   49.0845 H   0  0  0  0  0  0  0  0  0  0  0  0
   60.2143   34.5061   50.6415 H   0  0  0  0  0  0  0  0  0  0  0  0
   60.5854   34.1425   47.1277 H   0  0  0  0  0  0  0  0  0  0  0  0
   62.7448   33.7275   45.9512 H   0  0  0  0  0  0  0  0  0  0  0  0
   64.7355   32.9430   47.2257 H   0  0  0  0  0  0  0  0  0  0  0  0
   66.2251   33.9691   49.1232 H   0  0  0  0  0  0  0  0  0  0  0  0
   68.2076   33.1614   50.4013 H   0  0  0  0  0  0  0  0  0  0  0  0
   68.0081   31.1798   51.9047 H   0  0  0  0  0  0  0  0  0  0  0  0
   65.8197   29.9985   52.1288 H   0  0  0  0  0  0  0  0  0  0  0  0
   63.8309   30.7938   50.8520 H   0  0  0  0  0  0  0  0  0  0  0  0
   62.4096   32.9890   50.8812 H   0  0  0  0  0  0  0  0  0  0  0  0
  1  2  1  0
  2  3  1  0
  3  4  2  0
  4  5  1  0
  5  6  2  0
  6  7  1  0
  7  8  2  0
  8  9  1  0
  9 10  2  0
 10 11  1  0
 11 12  1  0
  6 13  1  0
 13 14  2  0
 14 15  1  0
 15 16  1  0
 16 17  1  0
 17 18  2  0
 18 19  1  0
 19 20  2  0
 20 21  1  0
 21 22  1  0
 22 23  2  0
 23 24  1  0
 24 25  2  0
 25 26  1  0
 26 27  2  0
 21 28  2  0
 14  3  1  0
 28 17  1  0
 11  7  1  0
 27 22  1  0
  1 29  1  0
  1 30  1  0
  1 31  1  0
  4 32  1  0
  5 33  1  0
 12 34  1  0
 12 35  1  0
 12 36  1  0
 13 37  1  0
 15 38  1  0
 15 39  1  0
 16 40  1  0
 16 41  1  0
 18 42  1  0
 19 43  1  0
 20 44  1  0
 23 45  1  0
 24 46  1  0
 25 47  1  0
 26 48  1  0
 27 49  1  0
 28 50  1  0
M  CHG  1  15   1
M  END
>  <UniqueID>  (16) 
15

>  <SMILES>  (16) 
COc1ccc(-c2nnnn2C)cc1[NH2+]Cc1cccc(-c2ccccc2)c1

>  <Energy>  (16) 
103.1571981908502

>  <Genealogy>  (16) 
COc1ccc(-c2nnnn2C)cc1[NH2+]Cc1cccc(-c2ccccc2)c1 (protonated)
COc1ccc(-c2nnnn2C)cc1[NH2+]Cc1cccc(-c2ccccc2)c1 (3D coordinates assigned)
COc1ccc(-c2nnnn2C)cc1[NH2+]Cc1cccc(-c2ccccc2)c1 (optimized conformer: 103.1571981908502 kcal/mol)

>  <smiles>  (16) 
COc1ccc(-c2nnnn2C)cc1NCc1cccc(-c2ccccc2)c1

>  <score_type>  (16) 
oracle

>  <origin>  (16) 
adg

>  <m_score__min__energy>  (16) 
-8.4199999999999999

>  <m_primary>  (16) 
energy

$$$$
16:0
     RDKit          3D

 37 38  0  0  0  0  0  0  0  0999 V2000
   62.3890   32.8410   47.8750 C   0  0  0  0  0  0  0  0  0  0  0  0
   61.2800   31.8480   47.6950 C   0  0  0  0  0  0  0  0  0  0  0  0
   61.3950   30.8180   46.7510 C   0  0  0  0  0  0  0  0  0  0  0  0
   60.3630   29.8880   46.5940 C   0  0  0  0  0  0  0  0  0  0  0  0
   59.2070   29.9700   47.3780 C   0  0  0  0  0  0  0  0  0  0  0  0
   58.1680   29.0600   47.1290 O   0  0  0  0  0  0  0  0  0  0  0  0
   58.3450   27.7780   46.5270 C   0  0  0  0  0  0  0  0  0  0  0  0
   58.0580   27.8540   45.0220 C   0  0  0  0  0  0  0  0  0  0  0  0
   57.8730   29.2910   44.5010 C   0  0  0  0  0  0  0  0  0  0  0  0
   56.4660   29.7810   44.6700 C   0  0  0  0  0  0  0  0  0  0  0  0
   55.5310   28.9610   44.8720 O   0  0  0  0  0  0  0  0  0  0  0  0
   56.2090   31.1900   44.6270 N   0  0  0  0  0  0  0  0  0  0  0  0
   57.1570   32.2420   44.8540 C   0  0  0  0  0  0  0  0  0  0  0  0
   57.3820   32.7770   46.1340 C   0  0  0  0  0  0  0  0  0  0  0  0
   58.3740   33.7400   46.3260 C   0  0  0  0  0  0  0  0  0  0  0  0
   59.1460   34.1530   45.2400 C   0  0  0  0  0  0  0  0  0  0  0  0
   58.9300   33.6170   44.0110 N   0  0  0  0  0  0  0  0  0  0  0  0
   57.9690   32.6800   43.7940 C   0  0  0  0  0  0  0  0  0  0  0  0
   57.7740   32.0220   42.1790 Cl  0  0  0  0  0  0  0  0  0  0  0  0
   59.1150   30.9720   48.3630 C   0  0  0  0  0  0  0  0  0  0  0  0
   60.1450   31.9050   48.5170 C   0  0  0  0  0  0  0  0  0  0  0  0
   62.5674   33.0008   48.9486 H   0  0  0  0  0  0  0  0  0  0  0  0
   63.3057   32.4562   47.4042 H   0  0  0  0  0  0  0  0  0  0  0  0
   62.1074   33.7945   47.4042 H   0  0  0  0  0  0  0  0  0  0  0  0
   62.3007   30.7412   46.1314 H   0  0  0  0  0  0  0  0  0  0  0  0
   60.4606   29.0854   45.8482 H   0  0  0  0  0  0  0  0  0  0  0  0
   59.3814   27.4437   46.6826 H   0  0  0  0  0  0  0  0  0  0  0  0
   57.6464   27.0653   46.9896 H   0  0  0  0  0  0  0  0  0  0  0  0
   58.9003   27.3948   44.4838 H   0  0  0  0  0  0  0  0  0  0  0  0
   57.1104   27.3233   44.8474 H   0  0  0  0  0  0  0  0  0  0  0  0
   58.5490   29.9582   45.0559 H   0  0  0  0  0  0  0  0  0  0  0  0
   58.1023   29.2910   43.4252 H   0  0  0  0  0  0  0  0  0  0  0  0
   56.7753   32.4362   46.9859 H   0  0  0  0  0  0  0  0  0  0  0  0
   58.5454   34.1692   47.3242 H   0  0  0  0  0  0  0  0  0  0  0  0
   59.9294   34.9125   45.3790 H   0  0  0  0  0  0  0  0  0  0  0  0
   58.2295   31.0210   49.0138 H   0  0  0  0  0  0  0  0  0  0  0  0
   60.0648   32.6872   49.2863 H   0  0  0  0  0  0  0  0  0  0  0  0
  1  2  1  0
  2  3  2  0
  3  4  1  0
  4  5  2  0
  5  6  1  0
  6  7  1  0
  7  8  1  0
  8  9  1  0
  9 10  1  0
 10 11  2  0
 10 12  1  0
 12 13  1  0
 13 14  2  0
 14 15  1  0
 15 16  2  0
 16 17  1  0
 17 18  2  0
 18 19  1  0
  5 20  1  0
 20 21  2  0
 21  2  1  0
 18 13  1  0
  1 22  1  0
  1 23  1  0
  1 24  1  0
  3 25  1  0
  4 26  1  0
  7 27  1  0
  7 28  1  0
  8 29  1  0
  8 30  1  0
  9 31  1  0
  9 32  1  0
 14 33  1  0
 15 34  1  0
 16 35  1  0
 20 36  1  0
 21 37  1  0
M  CHG  1  12  -1
M  END
>  <UniqueID>  (17) 
16

>  <SMILES>  (17) 
Cc1ccc(OCCCC(=O)[N-]c2cccnc2Cl)cc1

>  <Energy>  (17) 
33.88404463550386

>  <Genealogy>  (17) 
Cc1ccc(OCCCC(=O)[N-]c2cccnc2Cl)cc1 (protonated)
Cc1ccc(OCCCC(=O)[N-]c2cccnc2Cl)cc1 (3D coordinates assigned)
Cc1ccc(OCCCC(=O)[N-]c2cccnc2Cl)cc1 (optimized conformer: 33.88404463550386 kcal/mol)

>  <smiles>  (17) 
Cc1ccc(OCCCC(=O)Nc2cccnc2Cl)cc1

>  <score_type>  (17) 
oracle

>  <origin>  (17) 
adg

>  <m_score__min__energy>  (17) 
-9.1699999999999999

>  <m_primary>  (17) 
energy

$$$$
17:0
     RDKit          3D

 52 54  0  0  0  0  0  0  0  0999 V2000
   57.5870   31.3350   42.9840 C   0  0  0  0  0  0  0  0  0  0  0  0
   56.4990   30.8390   43.9320 C   0  0  2  0  0  0  0  0  0  0  0  0
   56.6510   31.4880   45.1970 O   0  0  0  0  0  0  0  0  0  0  0  0
   57.8200   32.1270   45.6480 C   0  0  0  0  0  0  0  0  0  0  0  0
   57.9070   33.5170   45.5140 C   0  0  0  0  0  0  0  0  0  0  0  0
   59.0620   34.2010   45.9000 C   0  0  0  0  0  0  0  0  0  0  0  0
   60.1530   33.4980   46.4310 C   0  0  0  0  0  0  0  0  0  0  0  0
   61.3250   34.1720   46.8050 C   0  0  0  0  0  0  0  0  0  0  0  0
   62.4090   33.4580   47.3270 C   0  0  0  0  0  0  0  0  0  0  0  0
   62.3290   32.0710   47.4790 C   0  0  0  0  0  0  0  0  0  0  0  0
   61.1660   31.3890   47.1120 C   0  0  0  0  0  0  0  0  0  0  0  0
   60.0710   32.0940   46.5870 C   0  0  0  0  0  0  0  0  0  0  0  0
   58.9010   31.4190   46.2090 C   0  0  0  0  0  0  0  0  0  0  0  0
   56.6000   29.3490   44.0930 C   0  0  0  0  0  0  0  0  0  0  0  0
   57.2680   28.6760   43.2630 O   0  0  0  0  0  0  0  0  0  0  0  0
   55.9370   28.7040   45.1840 N   0  0  0  0  0  0  0  0  0  0  0  0
   56.2850   27.3720   45.6640 C   0  0  0  0  0  0  0  0  0  0  0  0
   57.7770   27.3340   46.0570 C   0  0  0  0  0  0  0  0  0  0  0  0
   58.2500   26.0290   46.5760 N   0  0  0  0  0  0  0  0  0  0  0  0
   59.5230   25.5470   46.0180 C   0  0  0  0  0  0  0  0  0  0  0  0
   57.2110   24.9850   46.7170 C   0  0  0  0  0  0  0  0  0  0  0  0
   57.1310   24.0470   45.5360 C   0  0  0  0  0  0  0  0  0  0  0  0
   57.8060   22.8150   45.5560 C   0  0  0  0  0  0  0  0  0  0  0  0
   57.7340   21.9520   44.4590 C   0  0  0  0  0  0  0  0  0  0  0  0
   56.9770   22.3080   43.3380 C   0  0  0  0  0  0  0  0  0  0  0  0
   56.2880   23.5220   43.3160 C   0  0  0  0  0  0  0  0  0  0  0  0
   56.3600   24.3880   44.4120 C   0  0  0  0  0  0  0  0  0  0  0  0
   58.4347   31.7214   43.5689 H   0  0  0  0  0  0  0  0  0  0  0  0
   57.9279   30.5033   42.3499 H   0  0  0  0  0  0  0  0  0  0  0  0
   57.1828   32.1378   42.3499 H   0  0  0  0  0  0  0  0  0  0  0  0
   55.5082   31.0771   43.5178 H   0  0  0  0  0  0  0  0  0  0  0  0
   57.0560   34.0776   45.0999 H   0  0  0  0  0  0  0  0  0  0  0  0
   59.1159   35.2939   45.7872 H   0  0  0  0  0  0  0  0  0  0  0  0
   61.3919   35.2637   46.6877 H   0  0  0  0  0  0  0  0  0  0  0  0
   63.3267   33.9897   47.6186 H   0  0  0  0  0  0  0  0  0  0  0  0
   63.1846   31.5143   47.8890 H   0  0  0  0  0  0  0  0  0  0  0  0
   61.1081   30.2974   47.2346 H   0  0  0  0  0  0  0  0  0  0  0  0
   58.8271   30.3308   46.3514 H   0  0  0  0  0  0  0  0  0  0  0  0
   55.6693   27.1273   46.5421 H   0  0  0  0  0  0  0  0  0  0  0  0
   56.0996   26.6374   44.8665 H   0  0  0  0  0  0  0  0  0  0  0  0
   58.3720   27.5839   45.1662 H   0  0  0  0  0  0  0  0  0  0  0  0
   57.8995   28.0563   46.8775 H   0  0  0  0  0  0  0  0  0  0  0  0
   60.2082   25.2876   46.8385 H   0  0  0  0  0  0  0  0  0  0  0  0
   59.3383   24.6566   45.3991 H   0  0  0  0  0  0  0  0  0  0  0  0
   59.9744   26.3365   45.3991 H   0  0  0  0  0  0  0  0  0  0  0  0
   57.4333   24.3927   47.6169 H   0  0  0  0  0  0  0  0  0  0  0  0
   56.2422   25.5016   46.7844 H   0  0  0  0  0  0  0  0  0  0  0  0
   58.3944   22.5280   46.4400 H   0  0  0  0  0  0  0  0  0  0  0  0
   58.2725   20.9930   44.4772 H   0  0  0  0  0  0  0  0  0  0  0  0
   56.9245   21.6307   42.4728 H   0  0  0  0  0  0  0  0  0  0  0  0
   55.6881   23.7977   42.4362 H   0  0  0  0  0  0  0  0  0  0  0  0
   55.8103   25.3407   44.3939 H   0  0  0  0  0  0  0  0  0  0  0  0
  1  2  1  0
  2  3  1  0
  3  4  1  0
  4  5  2  0
  5  6  1  0
  6  7  2  0
  7  8  1  0
  8  9  2  0
  9 10  1  0
 10 11  2  0
 11 12  1  0
 12 13  2  0
  2 14  1  0
 14 15  2  0
 14 16  1  0
 16 17  1  0
 17 18  1  0
 18 19  1  0
 19 20  1  0
 19 21  1  0
 21 22  1  0
 22 23  2  0
 23 24  1  0
 24 25  2  0
 25 26  1  0
 26 27  2  0
 13  4  1  0
 27 22  1  0
 12  7  1  0
  1 28  1  0
  1 29  1  0
  1 30  1  0
  2 31  1  6
  5 32  1  0
  6 33  1  0
  8 34  1  0
  9 35  1  0
 10 36  1  0
 11 37  1  0
 13 38  1  0
 17 39  1  0
 17 40  1  0
 18 41  1  0
 18 42  1  0
 20 43  1  0
 20 44  1  0
 20 45  1  0
 21 46  1  0
 21 47  1  0
 23 48  1  0
 24 49  1  0
 25 50  1  0
 26 51  1  0
 27 52  1  0
M  CHG  1  16  -1
M  END
>  <UniqueID>  (18) 
17

>  <SMILES>  (18) 
C[C@H](Oc1ccc2ccccc2c1)C(=O)[N-]CCN(C)Cc1ccccc1

>  <Energy>  (18) 
56.116582389412585

>  <Genealogy>  (18) 
CC(Oc1ccc2ccccc2c1)C(=O)[N-]CCN(C)Cc1ccccc1 (protonated)
C[C@H](Oc1ccc2ccccc2c1)C(=O)[N-]CCN(C)Cc1ccccc1 (chirality)
C[C@H](Oc1ccc2ccccc2c1)C(=O)[N-]CCN(C)Cc1ccccc1 (3D coordinates assigned)
C[C@H](Oc1ccc2ccccc2c1)C(=O)[N-]CCN(C)Cc1ccccc1 (optimized conformer: 56.116582389412585 kcal/mol)

>  <smiles>  (18) 
CC(Oc1ccc2ccccc2c1)C(=O)NCCN(C)Cc1ccccc1

>  <score_type>  (18) 
oracle

>  <origin>  (18) 
adg

>  <m_score__min__energy>  (18) 
-10.06

>  <m_primary>  (18) 
energy

$$$$
18:0
     RDKit          3D

 40 41  0  0  0  0  0  0  0  0999 V2000
   57.5310   31.9460   42.1310 C   0  0  0  0  0  0  0  0  0  0  0  0
   57.8220   32.0320   43.6060 C   0  0  0  0  0  0  0  0  0  0  0  0
   58.4120   33.2020   44.1160 C   0  0  0  0  0  0  0  0  0  0  0  0
   58.6890   33.3220   45.4800 C   0  0  0  0  0  0  0  0  0  0  0  0
   59.4790   34.9240   46.1550 Br  0  0  0  0  0  0  0  0  0  0  0  0
   58.3870   32.2740   46.3490 C   0  0  0  0  0  0  0  0  0  0  0  0
   57.8140   31.1000   45.8570 C   0  0  0  0  0  0  0  0  0  0  0  0
   57.5340   30.9590   44.4870 C   0  0  0  0  0  0  0  0  0  0  0  0
   56.7850   29.4560   43.9220 S   0  0  0  0  0  0  0  0  0  0  0  0
   57.8420   28.4810   43.4850 O   0  0  0  0  0  0  0  0  0  0  0  0
   55.9020   29.7470   42.7410 O   0  0  0  0  0  0  0  0  0  0  0  0
   55.8320   28.7350   45.1870 N   0  0  0  0  0  0  0  0  0  0  0  0
   56.4030   27.4570   45.6170 C   0  0  0  0  0  0  0  0  0  0  0  0
   57.4960   27.6980   46.6640 C   0  0  0  0  0  0  0  0  0  0  0  0
   58.4920   26.5310   46.7330 C   0  0  0  0  0  0  0  0  0  0  0  0
   59.8410   27.0000   47.1290 N   0  0  0  0  0  0  0  0  0  0  0  0
   60.7880   26.9140   46.0090 C   0  0  0  0  0  0  0  0  0  0  0  0
   60.7410   28.2350   45.2640 C   0  0  0  0  0  0  0  0  0  0  0  0
   60.2500   29.2420   46.2850 C   0  0  0  0  0  0  0  0  0  0  0  0
   59.8320   28.4250   47.5030 C   0  0  0  0  0  0  0  0  0  0  0  0
   56.4860   31.6372   41.9808 H   0  0  0  0  0  0  0  0  0  0  0  0
   57.6927   32.9303   41.6674 H   0  0  0  0  0  0  0  0  0  0  0  0
   58.2018   31.2077   41.6674 H   0  0  0  0  0  0  0  0  0  0  0  0
   58.6576   34.0301   43.4349 H   0  0  0  0  0  0  0  0  0  0  0  0
   58.6006   32.3726   47.4236 H   0  0  0  0  0  0  0  0  0  0  0  0
   57.5793   30.2772   46.5483 H   0  0  0  0  0  0  0  0  0  0  0  0
   55.6103   26.8326   46.0548 H   0  0  0  0  0  0  0  0  0  0  0  0
   56.8420   26.9463   44.7472 H   0  0  0  0  0  0  0  0  0  0  0  0
   58.0422   28.6164   46.4027 H   0  0  0  0  0  0  0  0  0  0  0  0
   57.0112   27.7903   47.6471 H   0  0  0  0  0  0  0  0  0  0  0  0
   58.1356   25.7984   47.4721 H   0  0  0  0  0  0  0  0  0  0  0  0
   58.5615   26.0731   45.7352 H   0  0  0  0  0  0  0  0  0  0  0  0
   61.8041   26.7346   46.3902 H   0  0  0  0  0  0  0  0  0  0  0  0
   60.5190   26.0838   45.3394 H   0  0  0  0  0  0  0  0  0  0  0  0
   61.7420   28.5097   44.9000 H   0  0  0  0  0  0  0  0  0  0  0  0
   60.0872   28.1889   44.3806 H   0  0  0  0  0  0  0  0  0  0  0  0
   61.0555   29.9423   46.5510 H   0  0  0  0  0  0  0  0  0  0  0  0
   59.4159   29.8429   45.8937 H   0  0  0  0  0  0  0  0  0  0  0  0
   60.5394   28.5977   48.3274 H   0  0  0  0  0  0  0  0  0  0  0  0
   58.8262   28.7240   47.8331 H   0  0  0  0  0  0  0  0  0  0  0  0
  1  2  1  0
  2  3  2  0
  3  4  1  0
  4  5  1  0
  4  6  2  0
  6  7  1  0
  7  8  2  0
  8  9  1  0
  9 10  2  0
  9 11  2  0
  9 12  1  0
 12 13  1  0
 13 14  1  0
 14 15  1  0
 15 16  1  0
 16 17  1  0
 17 18  1  0
 18 19  1  0
 19 20  1  0
  8  2  1  0
 20 16  1  0
  1 21  1  0
  1 22  1  0
  1 23  1  0
  3 24  1  0
  6 25  1  0
  7 26  1  0
 13 27  1  0
 13 28  1  0
 14 29  1  0
 14 30  1  0
 15 31  1  0
 15 32  1  0
 17 33  1  0
 17 34  1  0
 18 35  1  0
 18 36  1  0
 19 37  1  0
 19 38  1  0
 20 39  1  0
 20 40  1  0
M  CHG  1  12  -1
M  END
>  <UniqueID>  (19) 
18

>  <SMILES>  (19) 
Cc1cc(Br)ccc1S(=O)(=O)[N-]CCCN1CCCC1

>  <Energy>  (19) 
38.56026783049524

>  <Genealogy>  (19) 
Cc1cc(Br)ccc1S(=O)(=O)[N-]CCCN1CCCC1 (protonated)
Cc1cc(Br)ccc1S(=O)(=O)[N-]CCCN1CCCC1 (3D coordinates assigned)
Cc1cc(Br)ccc1S(=O)(=O)[N-]CCCN1CCCC1 (nonaromatic ring conformer: 38.56026783049524 kcal/mol)

>  <smiles>  (19) 
Cc1cc(Br)ccc1S(=O)(=O)NCCCN1CCCC1

>  <score_type>  (19) 
oracle

>  <origin>  (19) 
adg

>  <m_score__min__energy>  (19) 
-8.9900000000000002

>  <m_primary>  (19) 
energy

$$$$
19:0
     RDKit          3D

 59 63  0  0  0  0  0  0  0  0999 V2000
   60.4770   34.2170   49.8710 C   0  0  0  0  0  0  0  0  0  0  0  0
   61.4530   33.9070   48.7690 C   0  0  0  0  0  0  0  0  0  0  0  0
   62.7860   33.6150   49.1010 C   0  0  0  0  0  0  0  0  0  0  0  0
   63.7140   33.3020   48.1030 C   0  0  0  0  0  0  0  0  0  0  0  0
   63.3200   33.2820   46.7650 C   0  0  0  0  0  0  0  0  0  0  0  0
   62.0030   33.5870   46.4180 C   0  0  0  0  0  0  0  0  0  0  0  0
   61.0640   33.9190   47.4080 C   0  0  0  0  0  0  0  0  0  0  0  0
   59.7230   34.2630   47.0140 N   0  0  0  0  0  0  0  0  0  0  0  0
   58.5800   33.8010   47.8040 C   0  0  0  0  0  0  0  0  0  0  0  0
   57.6550   32.8990   46.9580 C   0  0  0  0  0  0  0  0  0  0  0  0
   57.6980   33.1790   45.4920 N   0  0  0  0  0  0  0  0  0  0  0  0
   58.5570   32.1940   44.7830 C   0  0  0  0  0  0  0  0  0  0  0  0
   58.3520   30.7860   45.2830 C   0  0  0  0  0  0  0  0  0  0  0  0
   57.2830   30.0380   44.9030 N   0  0  0  0  0  0  0  0  0  0  0  0
   57.4560   28.8910   45.5800 C   0  0  0  0  0  0  0  0  0  0  0  0
   56.6410   27.7630   45.5540 C   0  0  0  0  0  0  0  0  0  0  0  0
   57.0190   26.6620   46.3440 C   0  0  0  0  0  0  0  0  0  0  0  0
   58.1900   26.7160   47.1320 C   0  0  0  0  0  0  0  0  0  0  0  0
   58.9920   27.8720   47.1380 C   0  0  0  0  0  0  0  0  0  0  0  0
   58.5880   28.9490   46.3420 C   0  0  0  0  0  0  0  0  0  0  0  0
   59.1700   30.1510   46.1700 N   0  0  0  0  0  0  0  0  0  0  0  0
   60.4370   30.6260   46.7370 C   0  0  0  0  0  0  0  0  0  0  0  0
   60.3840   30.6180   48.2440 C   0  0  0  0  0  0  0  0  0  0  0  0
   59.1570   30.7710   48.9120 C   0  0  0  0  0  0  0  0  0  0  0  0
   59.1080   30.7620   50.3090 C   0  0  0  0  0  0  0  0  0  0  0  0
   60.2820   30.6050   51.0500 C   0  0  0  0  0  0  0  0  0  0  0  0
   60.2320   30.5960   52.4050 F   0  0  0  0  0  0  0  0  0  0  0  0
   61.5080   30.4600   50.3950 C   0  0  0  0  0  0  0  0  0  0  0  0
   61.5620   30.4700   48.9980 C   0  0  0  0  0  0  0  0  0  0  0  0
   58.0710   34.5870   45.2070 C   0  0  0  0  0  0  0  0  0  0  0  0
   59.4770   34.9270   45.7300 C   0  0  0  0  0  0  0  0  0  0  0  0
   60.9632   34.0626   50.8456 H   0  0  0  0  0  0  0  0  0  0  0  0
   60.1490   35.2636   49.7866 H   0  0  0  0  0  0  0  0  0  0  0  0
   59.6052   33.5515   49.7866 H   0  0  0  0  0  0  0  0  0  0  0  0
   63.1025   33.6327   50.1543 H   0  0  0  0  0  0  0  0  0  0  0  0
   64.7551   33.0714   48.3731 H   0  0  0  0  0  0  0  0  0  0  0  0
   64.0487   33.0254   45.9819 H   0  0  0  0  0  0  0  0  0  0  0  0
   61.6983   33.5672   45.3612 H   0  0  0  0  0  0  0  0  0  0  0  0
   58.9474   33.2296   48.6692 H   0  0  0  0  0  0  0  0  0  0  0  0
   58.0062   34.6778   48.1387 H   0  0  0  0  0  0  0  0  0  0  0  0
   57.9539   31.8525   47.1179 H   0  0  0  0  0  0  0  0  0  0  0  0
   56.6261   33.1046   47.2882 H   0  0  0  0  0  0  0  0  0  0  0  0
   56.7230   33.0520   45.1320 H   0  0  0  0  0  0  0  0  0  0  0  0
   58.3186   32.2257   43.7096 H   0  0  0  0  0  0  0  0  0  0  0  0
   59.6057   32.4671   44.9717 H   0  0  0  0  0  0  0  0  0  0  0  0
   55.7314   27.7334   44.9362 H   0  0  0  0  0  0  0  0  0  0  0  0
   56.3988   25.7535   46.3481 H   0  0  0  0  0  0  0  0  0  0  0  0
   58.4767   25.8487   47.7449 H   0  0  0  0  0  0  0  0  0  0  0  0
   59.9057   27.9270   47.7480 H   0  0  0  0  0  0  0  0  0  0  0  0
   61.2519   29.9680   46.4010 H   0  0  0  0  0  0  0  0  0  0  0  0
   60.6125   31.6567   46.3952 H   0  0  0  0  0  0  0  0  0  0  0  0
   58.2306   30.8985   48.3327 H   0  0  0  0  0  0  0  0  0  0  0  0
   58.1439   30.8787   50.8256 H   0  0  0  0  0  0  0  0  0  0  0  0
   62.4318   30.3378   50.9795 H   0  0  0  0  0  0  0  0  0  0  0  0
   62.5298   30.3617   48.4865 H   0  0  0  0  0  0  0  0  0  0  0  0
   58.0483   34.7473   44.1190 H   0  0  0  0  0  0  0  0  0  0  0  0
   57.3501   35.2404   45.7202 H   0  0  0  0  0  0  0  0  0  0  0  0
   60.2264   34.5896   44.9988 H   0  0  0  0  0  0  0  0  0  0  0  0
   59.5492   36.0152   45.8732 H   0  0  0  0  0  0  0  0  0  0  0  0
  1  2  1  0
  2  3  2  0
  3  4  1  0
  4  5  2  0
  5  6  1  0
  6  7  2  0
  7  8  1  0
  8  9  1  0
  9 10  1  0
 10 11  1  0
 11 12  1  0
 12 13  1  0
 13 14  2  0
 14 15  1  0
 15 16  2  0
 16 17  1  0
 17 18  2  0
 18 19  1  0
 19 20  2  0
 20 21  1  0
 21 22  1  0
 22 23  1  0
 23 24  2  0
 24 25  1  0
 25 26  2  0
 26 27  1  0
 26 28  1  0
 28 29  2  0
 11 30  1  0
 30 31  1  0
  7  2  1  0
 31  8  1  0
 21 13  1  0
 29 23  1  0
 20 15  1  0
  1 32  1  0
  1 33  1  0
  1 34  1  0
  3 35  1  0
  4 36  1  0
  5 37  1  0
  6 38  1  0
  9 39  1  0
  9 40  1  0
 10 41  1  0
 10 42  1  0
 11 43  1  0
 12 44  1  0
 12 45  1  0
 16 46  1  0
 17 47  1  0
 18 48  1  0
 19 49  1  0
 22 50  1  0
 22 51  1  0
 24 52  1  0
 25 53  1  0
 28 54  1  0
 29 55  1  0
 30 56  1  0
 30 57  1  0
 31 58  1  0
 31 59  1  0
M  CHG  1  11   1
M  END
>  <UniqueID>  (20) 
19

>  <SMILES>  (20) 
Cc1ccccc1N1CC[NH+](Cc2nc3ccccc3n2Cc2ccc(F)cc2)CC1

>  <Energy>  (20) 
114.63892241080443

>  <Genealogy>  (20) 
Cc1ccccc1N1CC[NH+](Cc2nc3ccccc3n2Cc2ccc(F)cc2)CC1 (protonated)
Cc1ccccc1N1CC[NH+](Cc2nc3ccccc3n2Cc2ccc(F)cc2)CC1 (3D coordinates assigned)
Cc1ccccc1N1CC[NH+](Cc2nc3ccccc3n2Cc2ccc(F)cc2)CC1 (nonaromatic ring conformer: 114.63892241080443 kcal/mol)

>  <smiles>  (20) 
Cc1ccccc1N1CCN(Cc2nc3ccccc3n2Cc2ccc(F)cc2)CC1

>  <score_type>  (20) 
oracle

>  <origin>  (20) 
adg

>  <m_score__min__energy>  (20) 
-6.9400000000000004

>  <m_primary>  (20) 
energy

$$$$
20:0
     RDKit          3D

 61 64  0  0  0  0  0  0  0  0999 V2000
   59.6020   28.8210   44.7420 C   0  0  0  0  0  0  0  0  0  0  0  0
   59.2360   28.9030   46.1660 N   0  0  0  0  0  0  0  0  0  0  0  0
   58.0130   28.1310   46.4920 C   0  0  0  0  0  0  0  0  0  0  0  0
   57.1870   27.6870   45.2660 C   0  0  0  0  0  0  0  0  0  0  0  0
   56.1590   28.6370   44.9990 O   0  0  0  0  0  0  0  0  0  0  0  0
   56.2220   29.5740   43.9590 C   0  0  0  0  0  0  0  0  0  0  0  0
   55.6020   29.3640   42.8800 O   0  0  0  0  0  0  0  0  0  0  0  0
   57.0130   30.8100   44.1320 C   0  0  0  0  0  0  0  0  0  0  0  0
   57.3760   31.5970   43.0100 C   0  0  0  0  0  0  0  0  0  0  0  0
   58.1370   32.7680   43.1690 C   0  0  0  0  0  0  0  0  0  0  0  0
   58.5290   33.1420   44.4530 C   0  0  0  0  0  0  0  0  0  0  0  0
   58.1740   32.3800   45.5490 C   0  0  0  0  0  0  0  0  0  0  0  0
   57.4220   31.2130   45.4220 C   0  0  0  0  0  0  0  0  0  0  0  0
   58.7150   33.0140   46.7320 C   0  0  0  0  0  0  0  0  0  0  0  0
   58.6300   32.6350   48.0720 C   0  0  0  0  0  0  0  0  0  0  0  0
   59.2610   33.4450   49.0310 C   0  0  0  0  0  0  0  0  0  0  0  0
   59.9520   34.6090   48.6370 C   0  0  0  0  0  0  0  0  0  0  0  0
   60.0180   34.9720   47.2820 C   0  0  0  0  0  0  0  0  0  0  0  0
   59.3920   34.1540   46.3400 C   0  0  0  0  0  0  0  0  0  0  0  0
   59.3380   34.3420   44.8510 C   0  0  0  0  0  0  0  0  0  0  0  0
   60.3850   28.6010   47.0500 C   0  0  0  0  0  0  0  0  0  0  0  0
   59.9480   28.5570   48.5200 C   0  0  0  0  0  0  0  0  0  0  0  0
   60.0630   29.9030   49.1370 N   0  0  0  0  0  0  0  0  0  0  0  0
   59.0260   30.0950   50.1630 C   0  0  0  0  0  0  0  0  0  0  0  0
   61.3990   30.1360   49.7270 C   0  0  0  0  0  0  0  0  0  0  0  0
   62.0780   31.3080   49.0690 C   0  0  0  0  0  0  0  0  0  0  0  0
   61.9190   31.5280   47.6910 C   0  0  0  0  0  0  0  0  0  0  0  0
   62.5730   32.5950   47.0690 C   0  0  0  0  0  0  0  0  0  0  0  0
   63.3940   33.4460   47.8150 C   0  0  0  0  0  0  0  0  0  0  0  0
   63.5640   33.2290   49.1850 C   0  0  0  0  0  0  0  0  0  0  0  0
   62.9090   32.1630   49.8130 C   0  0  0  0  0  0  0  0  0  0  0  0
   60.6718   28.5813   44.6516 H   0  0  0  0  0  0  0  0  0  0  0  0
   59.0075   28.0338   44.2553 H   0  0  0  0  0  0  0  0  0  0  0  0
   59.4002   29.7866   44.2553 H   0  0  0  0  0  0  0  0  0  0  0  0
   58.3137   27.2304   47.0474 H   0  0  0  0  0  0  0  0  0  0  0  0
   57.3670   28.8028   47.0762 H   0  0  0  0  0  0  0  0  0  0  0  0
   57.8481   27.6103   44.3902 H   0  0  0  0  0  0  0  0  0  0  0  0
   56.7286   26.7092   45.4753 H   0  0  0  0  0  0  0  0  0  0  0  0
   57.0584   31.2876   42.0033 H   0  0  0  0  0  0  0  0  0  0  0  0
   58.4176   33.3772   42.2972 H   0  0  0  0  0  0  0  0  0  0  0  0
   57.1530   30.6188   46.3078 H   0  0  0  0  0  0  0  0  0  0  0  0
   58.0842   31.7274   48.3694 H   0  0  0  0  0  0  0  0  0  0  0  0
   59.2156   33.1695   50.0950 H   0  0  0  0  0  0  0  0  0  0  0  0
   60.4424   35.2367   49.3956 H   0  0  0  0  0  0  0  0  0  0  0  0
   60.5517   35.8817   46.9696 H   0  0  0  0  0  0  0  0  0  0  0  0
   58.8334   35.2806   44.5782 H   0  0  0  0  0  0  0  0  0  0  0  0
   60.3207   34.4149   44.3622 H   0  0  0  0  0  0  0  0  0  0  0  0
   60.8076   27.6246   46.7705 H   0  0  0  0  0  0  0  0  0  0  0  0
   61.1381   29.3939   46.9308 H   0  0  0  0  0  0  0  0  0  0  0  0
   58.9022   28.2208   48.5769 H   0  0  0  0  0  0  0  0  0  0  0  0
   60.6008   27.8589   49.0646 H   0  0  0  0  0  0  0  0  0  0  0  0
   59.4787   30.0112   51.1620 H   0  0  0  0  0  0  0  0  0  0  0  0
   58.5755   31.0918   50.0470 H   0  0  0  0  0  0  0  0  0  0  0  0
   58.2485   29.3255   50.0470 H   0  0  0  0  0  0  0  0  0  0  0  0
   61.2876   30.3409   50.8020 H   0  0  0  0  0  0  0  0  0  0  0  0
   62.0149   29.2383   49.5698 H   0  0  0  0  0  0  0  0  0  0  0  0
   61.2776   30.8583   47.0994 H   0  0  0  0  0  0  0  0  0  0  0  0
   62.4416   32.7656   45.9903 H   0  0  0  0  0  0  0  0  0  0  0  0
   63.9061   34.2864   47.3235 H   0  0  0  0  0  0  0  0  0  0  0  0
   64.2132   33.8966   49.7706 H   0  0  0  0  0  0  0  0  0  0  0  0
   63.0451   31.9942   50.8914 H   0  0  0  0  0  0  0  0  0  0  0  0
  1  2  1  0
  2  3  1  0
  3  4  1  0
  4  5  1  0
  5  6  1  0
  6  7  2  0
  6  8  1  0
  8  9  2  0
  9 10  1  0
 10 11  2  0
 11 12  1  0
 12 13  2  0
 12 14  1  0
 14 15  2  0
 15 16  1  0
 16 17  2  0
 17 18  1  0
 18 19  2  0
 19 20  1  0
  2 21  1  0
 21 22  1  0
 22 23  1  0
 23 24  1  0
 23 25  1  0
 25 26  1  0
 26 27  2  0
 27 28  1  0
 28 29  2  0
 29 30  1  0
 30 31  2  0
 13  8  1  0
 19 14  1  0
 31 26  1  0
 20 11  1  0
  1 32  1  0
  1 33  1  0
  1 34  1  0
  3 35  1  0
  3 36  1  0
  4 37  1  0
  4 38  1  0
  9 39  1  0
 10 40  1  0
 13 41  1  0
 15 42  1  0
 16 43  1  0
 17 44  1  0
 18 45  1  0
 20 46  1  0
 20 47  1  0
 21 48  1  0
 21 49  1  0
 22 50  1  0
 22 51  1  0
 24 52  1  0
 24 53  1  0
 24 54  1  0
 25 55  1  0
 25 56  1  0
 27 57  1  0
 28 58  1  0
 29 59  1  0
 30 60  1  0
 31 61  1  0
M  END
>  <UniqueID>  (21) 
20

>  <SMILES>  (21) 
CN(CCOC(=O)c1ccc2c(c1)-c1ccccc1C2)CCN(C)Cc1ccccc1

>  <Energy>  (21) 
89.06860995437111

>  <Genealogy>  (21) 
CN(CCOC(=O)c1ccc2c(c1)-c1ccccc1C2)CCN(C)Cc1ccccc1 (3D coordinates assigned)
CN(CCOC(=O)c1ccc2c(c1)-c1ccccc1C2)CCN(C)Cc1ccccc1 (nonaromatic ring conformer: 89.06860995437111 kcal/mol)

>  <smiles>  (21) 
CN(CCOC(=O)c1ccc2c(c1)-c1ccccc1C2)CCN(C)Cc1ccccc1

>  <score_type>  (21) 
oracle

>  <origin>  (21) 
adg

>  <m_score__min__energy>  (21) 
-8.5899999999999999

>  <m_primary>  (21) 
energy

$$$$
21:0
     RDKit          3D

 44 46  0  0  0  0  0  0  0  0999 V2000
   57.7310   32.3380   41.0790 C   0  0  0  0  0  0  0  0  0  0  0  0
   57.5900   31.8480   42.4840 C   0  0  0  0  0  0  0  0  0  0  0  0
   56.6620   30.8500   42.7960 C   0  0  0  0  0  0  0  0  0  0  0  0
   56.5590   30.4250   44.1230 C   0  0  0  0  0  0  0  0  0  0  0  0
   55.5790   29.3630   44.5050 C   0  0  0  0  0  0  0  0  0  0  0  0
   57.3510   30.9900   45.0730 N   0  0  0  0  0  0  0  0  0  0  0  0
   58.2500   31.9640   44.7610 C   0  0  0  0  0  0  0  0  0  0  0  0
   59.0740   32.5470   45.7910 N   0  0  0  0  0  0  0  0  0  0  0  0
   59.4590   33.9640   45.7320 C   0  0  0  0  0  0  0  0  0  0  0  0
   60.8910   34.1500   46.2430 C   0  0  0  0  0  0  0  0  0  0  0  0
   61.1020   33.4800   47.5340 N   0  0  0  0  0  0  0  0  0  0  0  0
   62.2960   33.7870   48.2840 C   0  0  0  0  0  0  0  0  0  0  0  0
   63.3200   34.2040   47.6730 O   0  0  0  0  0  0  0  0  0  0  0  0
   62.3630   33.5790   49.7760 C   0  0  0  0  0  0  0  0  0  0  0  0
   63.7790   33.4040   50.2450 C   0  0  0  0  0  0  0  0  0  0  0  0
   64.6070   32.4210   49.6810 C   0  0  0  0  0  0  0  0  0  0  0  0
   65.9290   32.3060   50.1170 C   0  0  0  0  0  0  0  0  0  0  0  0
   66.4140   33.1710   51.1010 C   0  0  0  0  0  0  0  0  0  0  0  0
   65.5650   34.1450   51.6330 C   0  0  0  0  0  0  0  0  0  0  0  0
   64.2810   34.2420   51.1950 N   0  0  0  0  0  0  0  0  0  0  0  0
   60.0750   32.5780   48.0730 C   0  0  0  0  0  0  0  0  0  0  0  0
   59.4530   31.7320   46.9550 C   0  0  0  0  0  0  0  0  0  0  0  0
   58.3580   32.3830   43.4700 N   0  0  0  0  0  0  0  0  0  0  0  0
   58.0352   33.3951   41.0881 H   0  0  0  0  0  0  0  0  0  0  0  0
   58.4939   31.7414   40.5574 H   0  0  0  0  0  0  0  0  0  0  0  0
   56.7677   32.2381   40.5574 H   0  0  0  0  0  0  0  0  0  0  0  0
   56.0267   30.4089   42.0138 H   0  0  0  0  0  0  0  0  0  0  0  0
   55.5183   29.2973   45.6014 H   0  0  0  0  0  0  0  0  0  0  0  0
   54.5887   29.6142   44.0974 H   0  0  0  0  0  0  0  0  0  0  0  0
   55.9088   28.3960   44.0974 H   0  0  0  0  0  0  0  0  0  0  0  0
   59.3975   34.3132   44.6907 H   0  0  0  0  0  0  0  0  0  0  0  0
   58.7751   34.5463   46.3670 H   0  0  0  0  0  0  0  0  0  0  0  0
   61.5897   33.7289   45.5051 H   0  0  0  0  0  0  0  0  0  0  0  0
   61.0661   35.2267   46.3843 H   0  0  0  0  0  0  0  0  0  0  0  0
   61.9257   34.4542   50.2788 H   0  0  0  0  0  0  0  0  0  0  0  0
   61.8027   32.6650   50.0222 H   0  0  0  0  0  0  0  0  0  0  0  0
   64.2185   31.7475   48.9029 H   0  0  0  0  0  0  0  0  0  0  0  0
   66.5866   31.5363   49.6867 H   0  0  0  0  0  0  0  0  0  0  0  0
   67.4527   33.0863   51.4531 H   0  0  0  0  0  0  0  0  0  0  0  0
   65.9354   34.8338   52.4066 H   0  0  0  0  0  0  0  0  0  0  0  0
   60.5352   31.9108   48.8167 H   0  0  0  0  0  0  0  0  0  0  0  0
   59.2836   33.1830   48.5396 H   0  0  0  0  0  0  0  0  0  0  0  0
   60.1836   30.9745   46.6350 H   0  0  0  0  0  0  0  0  0  0  0  0
   58.5406   31.2633   47.3522 H   0  0  0  0  0  0  0  0  0  0  0  0
  1  2  1  0
  2  3  2  0
  3  4  1  0
  4  5  1  0
  4  6  2  0
  6  7  1  0
  7  8  1  0
  8  9  1  0
  9 10  1  0
 10 11  1  0
 11 12  1  0
 12 13  2  0
 12 14  1  0
 14 15  1  0
 15 16  2  0
 16 17  1  0
 17 18  2  0
 18 19  1  0
 19 20  2  0
 11 21  1  0
 21 22  1  0
  7 23  2  0
 23  2  1  0
 22  8  1  0
 20 15  1  0
  1 24  1  0
  1 25  1  0
  1 26  1  0
  3 27  1  0
  5 28  1  0
  5 29  1  0
  5 30  1  0
  9 31  1  0
  9 32  1  0
 10 33  1  0
 10 34  1  0
 14 35  1  0
 14 36  1  0
 16 37  1  0
 17 38  1  0
 18 39  1  0
 19 40  1  0
 21 41  1  0
 21 42  1  0
 22 43  1  0
 22 44  1  0
M  END
>  <UniqueID>  (22) 
21

>  <SMILES>  (22) 
Cc1cc(C)nc(N2CCN(C(=O)Cc3ccccn3)CC2)n1

>  <Energy>  (22) 
44.534021639558986

>  <Genealogy>  (22) 
Cc1cc(C)nc(N2CCN(C(=O)Cc3ccccn3)CC2)n1 (3D coordinates assigned)
Cc1cc(C)nc(N2CCN(C(=O)Cc3ccccn3)CC2)n1 (nonaromatic ring conformer: 44.534021639558986 kcal/mol)

>  <smiles>  (22) 
Cc1cc(C)nc(N2CCN(C(=O)Cc3ccccn3)CC2)n1

>  <score_type>  (22) 
oracle

>  <origin>  (22) 
adg

>  <m_score__min__energy>  (22) 
-7.4900000000000002

>  <m_primary>  (22) 
energy

$$$$
22:0
     RDKit          3D

 53 55  0  0  0  0  0  0  0  0999 V2000
   63.0160   33.8440   46.4840 C   0  0  0  0  0  0  0  0  0  0  0  0
   62.9820   32.8560   47.6470 C   0  0  0  0  0  0  0  0  0  0  0  0
   61.6170   32.7050   48.1730 N   0  0  0  0  0  0  0  0  0  0  0  0
   61.4040   31.9670   49.4270 C   0  0  0  0  0  0  0  0  0  0  0  0
   59.9160   31.7260   49.6670 C   0  0  0  0  0  0  0  0  0  0  0  0
   60.5010   33.2920   47.4660 C   0  0  0  0  0  0  0  0  0  0  0  0
   59.9780   34.5370   47.8480 C   0  0  0  0  0  0  0  0  0  0  0  0
   58.9400   35.0840   47.1630 N   0  0  0  0  0  0  0  0  0  0  0  0
   58.3720   34.4590   46.0990 C   0  0  0  0  0  0  0  0  0  0  0  0
   58.8480   33.2100   45.6770 C   0  0  0  0  0  0  0  0  0  0  0  0
   58.2510   32.5240   44.5060 C   0  0  0  0  0  0  0  0  0  0  0  0
   58.4850   33.0030   43.2050 C   0  0  0  0  0  0  0  0  0  0  0  0
   57.8760   32.3890   42.1080 C   0  0  0  0  0  0  0  0  0  0  0  0
   57.0130   31.3070   42.2980 C   0  0  0  0  0  0  0  0  0  0  0  0
   56.7610   30.8250   43.5910 C   0  0  0  0  0  0  0  0  0  0  0  0
   55.7390   29.7390   43.8010 C   0  0  0  0  0  0  0  0  0  0  0  0
   55.7590   29.2710   45.1970 N   0  0  0  0  0  0  0  0  0  0  0  0
   56.6240   28.0940   45.3920 C   0  0  0  0  0  0  0  0  0  0  0  0
   58.0540   28.4970   45.6520 C   0  0  0  0  0  0  0  0  0  0  0  0
   59.0160   28.4080   44.6330 C   0  0  0  0  0  0  0  0  0  0  0  0
   60.3330   28.8140   44.8680 C   0  0  0  0  0  0  0  0  0  0  0  0
   60.7020   29.3010   46.1260 C   0  0  0  0  0  0  0  0  0  0  0  0
   59.7560   29.3720   47.1520 C   0  0  0  0  0  0  0  0  0  0  0  0
   58.4400   28.9620   46.9220 C   0  0  0  0  0  0  0  0  0  0  0  0
   57.4020   31.4200   44.6890 C   0  0  0  0  0  0  0  0  0  0  0  0
   59.9210   32.6320   46.3730 C   0  0  0  0  0  0  0  0  0  0  0  0
   63.0513   34.8711   46.8763 H   0  0  0  0  0  0  0  0  0  0  0  0
   63.9082   33.6556   45.8688 H   0  0  0  0  0  0  0  0  0  0  0  0
   62.1130   33.7174   45.8688 H   0  0  0  0  0  0  0  0  0  0  0  0
   63.3428   31.8773   47.2978 H   0  0  0  0  0  0  0  0  0  0  0  0
   63.6261   33.2407   48.4515 H   0  0  0  0  0  0  0  0  0  0  0  0
   61.9215   30.9981   49.3678 H   0  0  0  0  0  0  0  0  0  0  0  0
   61.8038   32.5638   50.2601 H   0  0  0  0  0  0  0  0  0  0  0  0
   59.7195   31.6942   50.7488 H   0  0  0  0  0  0  0  0  0  0  0  0
   59.3345   32.5417   49.2126 H   0  0  0  0  0  0  0  0  0  0  0  0
   59.6217   30.7685   49.2126 H   0  0  0  0  0  0  0  0  0  0  0  0
   60.4105   35.0725   48.7060 H   0  0  0  0  0  0  0  0  0  0  0  0
   57.5353   34.9349   45.5666 H   0  0  0  0  0  0  0  0  0  0  0  0
   59.1506   33.8650   43.0503 H   0  0  0  0  0  0  0  0  0  0  0  0
   58.0766   32.7586   41.0915 H   0  0  0  0  0  0  0  0  0  0  0  0
   56.5299   30.8318   41.4315 H   0  0  0  0  0  0  0  0  0  0  0  0
   54.7393   30.1332   43.5662 H   0  0  0  0  0  0  0  0  0  0  0  0
   55.9796   28.8932   43.1401 H   0  0  0  0  0  0  0  0  0  0  0  0
   54.7830   28.9780   45.4390 H   0  0  0  0  0  0  0  0  0  0  0  0
   56.2534   27.5163   46.2516 H   0  0  0  0  0  0  0  0  0  0  0  0
   56.5970   27.4894   44.4735 H   0  0  0  0  0  0  0  0  0  0  0  0
   58.7320   28.0169   43.6449 H   0  0  0  0  0  0  0  0  0  0  0  0
   61.0797   28.7503   44.0627 H   0  0  0  0  0  0  0  0  0  0  0  0
   61.7364   29.6280   46.3077 H   0  0  0  0  0  0  0  0  0  0  0  0
   60.0477   29.7513   48.1425 H   0  0  0  0  0  0  0  0  0  0  0  0
   57.7030   29.0031   47.7376 H   0  0  0  0  0  0  0  0  0  0  0  0
   57.2383   31.0188   45.7001 H   0  0  0  0  0  0  0  0  0  0  0  0
   60.3105   31.6526   46.0584 H   0  0  0  0  0  0  0  0  0  0  0  0
  1  2  1  0
  2  3  1  0
  3  4  1  0
  4  5  1  0
  3  6  1  0
  6  7  2  0
  7  8  1  0
  8  9  2  0
  9 10  1  0
 10 11  1  0
 11 12  2  0
 12 13  1  0
 13 14  2  0
 14 15  1  0
 15 16  1  0
 16 17  1  0
 17 18  1  0
 18 19  1  0
 19 20  2  0
 20 21  1  0
 21 22  2  0
 22 23  1  0
 23 24  2  0
 15 25  2  0
 10 26  2  0
 26  6  1  0
 25 11  1  0
 24 19  1  0
  1 27  1  0
  1 28  1  0
  1 29  1  0
  2 30  1  0
  2 31  1  0
  4 32  1  0
  4 33  1  0
  5 34  1  0
  5 35  1  0
  5 36  1  0
  7 37  1  0
  9 38  1  0
 12 39  1  0
 13 40  1  0
 14 41  1  0
 16 42  1  0
 16 43  1  0
 17 44  1  0
 18 45  1  0
 18 46  1  0
 20 47  1  0
 21 48  1  0
 22 49  1  0
 23 50  1  0
 24 51  1  0
 25 52  1  0
 26 53  1  0
M  END
>  <UniqueID>  (23) 
22

>  <SMILES>  (23) 
CCN(CC)c1cncc(-c2cccc(CNCc3ccccc3)c2)c1

>  <Energy>  (23) 
52.55261388591135

>  <Genealogy>  (23) 
CCN(CC)c1cncc(-c2cccc(CNCc3ccccc3)c2)c1 (3D coordinates assigned)
CCN(CC)c1cncc(-c2cccc(CNCc3ccccc3)c2)c1 (optimized conformer: 52.55261388591135 kcal/mol)

>  <smiles>  (23) 
CCN(CC)c1cncc(-c2cccc(CNCc3ccccc3)c2)c1

>  <score_type>  (23) 
oracle

>  <origin>  (23) 
adg

>  <m_score__min__energy>  (23) 
-8.4600000000000009

>  <m_primary>  (23) 
energy

$$$$
23:0
     RDKit          3D

 43 46  0  0  0  0  0  0  0  0999 V2000
   65.2490   32.7150   49.6490 C   0  0  0  0  0  0  0  0  0  0  0  0
   63.8450   33.1590   49.3640 C   0  0  0  0  0  0  0  0  0  0  0  0
   62.9760   33.4740   50.4170 C   0  0  0  0  0  0  0  0  0  0  0  0
   61.6780   33.9240   50.1530 C   0  0  0  0  0  0  0  0  0  0  0  0
   61.2360   34.0710   48.8280 C   0  0  0  0  0  0  0  0  0  0  0  0
   59.8530   34.5910   48.5360 C   0  0  0  0  0  0  0  0  0  0  0  0
   59.4170   34.1630   47.1970 N   0  0  0  0  0  0  0  0  0  0  0  0
   59.5650   35.0300   46.1500 C   0  0  0  0  0  0  0  0  0  0  0  0
   59.1410   34.6800   44.8700 C   0  0  0  0  0  0  0  0  0  0  0  0
   58.5530   33.4380   44.6570 C   0  0  0  0  0  0  0  0  0  0  0  0
   58.3880   32.5440   45.7230 C   0  0  0  0  0  0  0  0  0  0  0  0
   57.7520   31.2260   45.4850 C   0  0  0  0  0  0  0  0  0  0  0  0
   56.5700   31.0540   44.8610 N   0  0  0  0  0  0  0  0  0  0  0  0
   56.3410   29.7500   44.8420 N   0  0  0  0  0  0  0  0  0  0  0  0
   57.3930   29.1720   45.4530 C   0  0  0  0  0  0  0  0  0  0  0  0
   57.5500   27.7180   45.6540 C   0  0  0  0  0  0  0  0  0  0  0  0
   56.4400   26.9290   46.0000 C   0  0  0  0  0  0  0  0  0  0  0  0
   56.5850   25.5510   46.1900 C   0  0  0  0  0  0  0  0  0  0  0  0
   57.8380   24.9510   46.0390 C   0  0  0  0  0  0  0  0  0  0  0  0
   58.9480   25.7280   45.6950 C   0  0  0  0  0  0  0  0  0  0  0  0
   58.8070   27.1060   45.5030 C   0  0  0  0  0  0  0  0  0  0  0  0
   58.2600   30.0720   45.8490 O   0  0  0  0  0  0  0  0  0  0  0  0
   58.8310   32.9330   47.0070 C   0  0  0  0  0  0  0  0  0  0  0  0
   58.6890   32.1450   47.9840 O   0  0  0  0  0  0  0  0  0  0  0  0
   62.1160   33.7790   47.7740 C   0  0  0  0  0  0  0  0  0  0  0  0
   63.4120   33.3290   48.0400 C   0  0  0  0  0  0  0  0  0  0  0  0
   65.4043   32.6659   50.7369 H   0  0  0  0  0  0  0  0  0  0  0  0
   65.4154   31.7204   49.2096 H   0  0  0  0  0  0  0  0  0  0  0  0
   65.9570   33.4331   49.2096 H   0  0  0  0  0  0  0  0  0  0  0  0
   63.3164   33.3668   51.4575 H   0  0  0  0  0  0  0  0  0  0  0  0
   61.0010   34.1636   50.9862 H   0  0  0  0  0  0  0  0  0  0  0  0
   59.1521   34.1994   49.2880 H   0  0  0  0  0  0  0  0  0  0  0  0
   59.8698   35.6903   48.5718 H   0  0  0  0  0  0  0  0  0  0  0  0
   60.0241   36.0150   46.3204 H   0  0  0  0  0  0  0  0  0  0  0  0
   59.2705   35.3818   44.0329 H   0  0  0  0  0  0  0  0  0  0  0  0
   58.2163   33.1565   43.6483 H   0  0  0  0  0  0  0  0  0  0  0  0
   55.4522   27.3974   46.1220 H   0  0  0  0  0  0  0  0  0  0  0  0
   55.7116   24.9387   46.4587 H   0  0  0  0  0  0  0  0  0  0  0  0
   57.9509   23.8674   46.1908 H   0  0  0  0  0  0  0  0  0  0  0  0
   59.9338   25.2548   45.5752 H   0  0  0  0  0  0  0  0  0  0  0  0
   59.6831   27.7138   45.2327 H   0  0  0  0  0  0  0  0  0  0  0  0
   61.7836   33.9051   46.7330 H   0  0  0  0  0  0  0  0  0  0  0  0
   64.0960   33.1070   47.2076 H   0  0  0  0  0  0  0  0  0  0  0  0
  1  2  1  0
  2  3  2  0
  3  4  1  0
  4  5  2  0
  5  6  1  0
  6  7  1  0
  7  8  1  0
  8  9  2  0
  9 10  1  0
 10 11  2  0
 11 12  1  0
 12 13  2  0
 13 14  1  0
 14 15  2  0
 15 16  1  0
 16 17  2  0
 17 18  1  0
 18 19  2  0
 19 20  1  0
 20 21  2  0
 15 22  1  0
 11 23  1  0
 23 24  2  0
  5 25  1  0
 25 26  2  0
 26  2  1  0
 23  7  1  0
 22 12  1  0
 21 16  1  0
  1 27  1  0
  1 28  1  0
  1 29  1  0
  3 30  1  0
  4 31  1  0
  6 32  1  0
  6 33  1  0
  8 34  1  0
  9 35  1  0
 10 36  1  0
 17 37  1  0
 18 38  1  0
 19 39  1  0
 20 40  1  0
 21 41  1  0
 25 42  1  0
 26 43  1  0
M  END
>  <UniqueID>  (24) 
23

>  <SMILES>  (24) 
Cc1ccc(Cn2cccc(-c3nnc(-c4ccccc4)o3)c2=O)cc1

>  <Energy>  (24) 
84.68670223901668

>  <Genealogy>  (24) 
Cc1ccc(Cn2cccc(-c3nnc(-c4ccccc4)o3)c2=O)cc1 (3D coordinates assigned)
Cc1ccc(Cn2cccc(-c3nnc(-c4ccccc4)o3)c2=O)cc1 (optimized conformer: 84.68670223901668 kcal/mol)

>  <smiles>  (24) 
Cc1ccc(Cn2cccc(-c3nnc(-c4ccccc4)o3)c2=O)cc1

>  <score_type>  (24) 
oracle

>  <origin>  (24) 
adg

>  <m_score__min__energy>  (24) 
-9.1799999999999997

>  <m_primary>  (24) 
energy

$$$$
24:0
     RDKit          3D

 36 38  0  0  0  0  0  0  0  0999 V2000
   60.3980   33.2420   51.6020 C   0  0  0  0  0  0  0  0  0  0  0  0
   59.8560   33.1250   50.2080 C   0  0  0  0  0  0  0  0  0  0  0  0
   58.6860   32.3970   49.9650 C   0  0  0  0  0  0  0  0  0  0  0  0
   58.1630   32.3160   48.6750 C   0  0  0  0  0  0  0  0  0  0  0  0
   58.7880   32.9740   47.6010 C   0  0  0  0  0  0  0  0  0  0  0  0
   59.9690   33.7220   47.8410 C   0  0  0  0  0  0  0  0  0  0  0  0
   60.4830   33.7940   49.1480 C   0  0  0  0  0  0  0  0  0  0  0  0
   60.6480   34.4180   46.7720 N   0  0  0  0  0  0  0  0  0  0  0  0
   62.0470   34.0970   46.4700 C   0  0  0  0  0  0  0  0  0  0  0  0
   59.9170   35.2840   45.8830 C   0  0  0  0  0  0  0  0  0  0  0  0
   60.0400   36.5360   45.9710 O   0  0  0  0  0  0  0  0  0  0  0  0
   58.9960   34.7110   44.8520 C   0  0  0  0  0  0  0  0  0  0  0  0
   57.9620   33.9260   45.5150 N   0  0  0  0  0  0  0  0  0  0  0  0
   58.1800   32.8670   46.2430 C   0  0  0  0  0  0  0  0  0  0  0  0
   57.8380   31.5360   45.6740 C   0  0  0  0  0  0  0  0  0  0  0  0
   58.3220   30.3530   46.2660 C   0  0  0  0  0  0  0  0  0  0  0  0
   57.9880   29.1060   45.7320 C   0  0  0  0  0  0  0  0  0  0  0  0
   57.1650   29.0210   44.6080 C   0  0  0  0  0  0  0  0  0  0  0  0
   56.6690   30.1850   44.0170 C   0  0  0  0  0  0  0  0  0  0  0  0
   56.9990   31.4370   44.5470 C   0  0  0  0  0  0  0  0  0  0  0  0
   59.5885   33.0673   52.3260 H   0  0  0  0  0  0  0  0  0  0  0  0
   61.1910   32.4943   51.7511 H   0  0  0  0  0  0  0  0  0  0  0  0
   60.8119   34.2502   51.7511 H   0  0  0  0  0  0  0  0  0  0  0  0
   58.1765   31.8863   50.7954 H   0  0  0  0  0  0  0  0  0  0  0  0
   57.2497   31.7298   48.4952 H   0  0  0  0  0  0  0  0  0  0  0  0
   61.3909   34.3843   49.3413 H   0  0  0  0  0  0  0  0  0  0  0  0
   62.6048   33.9690   47.4094 H   0  0  0  0  0  0  0  0  0  0  0  0
   62.0918   33.1652   45.8871 H   0  0  0  0  0  0  0  0  0  0  0  0
   62.4935   34.9160   45.8871 H   0  0  0  0  0  0  0  0  0  0  0  0
   58.5289   35.5274   44.2817 H   0  0  0  0  0  0  0  0  0  0  0  0
   59.5652   34.0670   44.1655 H   0  0  0  0  0  0  0  0  0  0  0  0
   58.9674   30.4115   47.1549 H   0  0  0  0  0  0  0  0  0  0  0  0
   58.3749   28.1882   46.1989 H   0  0  0  0  0  0  0  0  0  0  0  0
   56.9072   28.0376   44.1879 H   0  0  0  0  0  0  0  0  0  0  0  0
   56.0177   30.1174   43.1332 H   0  0  0  0  0  0  0  0  0  0  0  0
   56.6006   32.3501   44.0805 H   0  0  0  0  0  0  0  0  0  0  0  0
  1  2  1  0
  2  3  2  0
  3  4  1  0
  4  5  2  0
  5  6  1  0
  6  7  2  0
  6  8  1  0
  8  9  1  0
  8 10  1  0
 10 11  2  0
 10 12  1  0
 12 13  1  0
 13 14  2  0
 14 15  1  0
 15 16  2  0
 16 17  1  0
 17 18  2  0
 18 19  1  0
 19 20  2  0
  7  2  1  0
 20 15  1  0
 14  5  1  0
  1 21  1  0
  1 22  1  0
  1 23  1  0
  3 24  1  0
  4 25  1  0
  7 26  1  0
  9 27  1  0
  9 28  1  0
  9 29  1  0
 12 30  1  0
 12 31  1  0
 16 32  1  0
 17 33  1  0
 18 34  1  0
 19 35  1  0
 20 36  1  0
M  END
>  <UniqueID>  (25) 
24

>  <SMILES>  (25) 
Cc1ccc2c(c1)N(C)C(=O)CN=C2c1ccccc1

>  <Energy>  (25) 
52.26326723482277

>  <Genealogy>  (25) 
Cc1ccc2c(c1)N(C)C(=O)CN=C2c1ccccc1 (3D coordinates assigned)
Cc1ccc2c(c1)N(C)C(=O)CN=C2c1ccccc1 (nonaromatic ring conformer: 52.26326723482277 kcal/mol)

>  <smiles>  (25) 
Cc1ccc2c(c1)N(C)C(=O)CN=C2c1ccccc1

>  <score_type>  (25) 
oracle

>  <origin>  (25) 
adg

>  <m_score__min__energy>  (25) 
-5.25

>  <m_primary>  (25) 
energy

$$$$
25:0
     RDKit          3D

 57 59  0  0  0  0  0  0  0  0999 V2000
   55.2770   24.1950   44.9980 C   0  0  0  0  0  0  0  0  0  0  0  0
   55.8560   25.3450   45.7630 C   0  0  0  0  0  0  0  0  0  0  0  0
   55.1310   26.3420   46.0160 O   0  0  0  0  0  0  0  0  0  0  0  0
   57.2250   25.3600   46.1870 N   0  0  0  0  0  0  0  0  0  0  0  0
   58.3270   26.0200   45.4850 C   0  0  2  0  0  0  0  0  0  0  0  0
   59.6020   25.9600   46.3300 C   0  0  0  0  0  0  0  0  0  0  0  0
   57.9590   27.4600   45.2030 C   0  0  0  0  0  0  0  0  0  0  0  0
   57.7080   27.8950   43.8900 C   0  0  0  0  0  0  0  0  0  0  0  0
   57.3430   29.2210   43.6390 C   0  0  0  0  0  0  0  0  0  0  0  0
   57.2080   30.1340   44.7010 C   0  0  0  0  0  0  0  0  0  0  0  0
   56.8440   31.4760   44.5080 O   0  0  0  0  0  0  0  0  0  0  0  0
   57.7300   32.5950   44.5910 C   0  0  1  0  0  0  0  0  0  0  0  0
   57.0580   33.7970   45.2570 C   0  0  0  0  0  0  0  0  0  0  0  0
   58.1390   34.4550   46.1030 C   0  0  0  0  0  0  0  0  0  0  0  0
   59.1750   33.4490   46.2780 N   0  0  0  0  0  0  0  0  0  0  0  0
   60.3200   33.6110   47.1490 C   0  0  0  0  0  0  0  0  0  0  0  0
   60.1560   34.0310   48.4830 C   0  0  0  0  0  0  0  0  0  0  0  0
   61.2610   34.1870   49.3240 C   0  0  0  0  0  0  0  0  0  0  0  0
   62.5590   33.9250   48.8480 C   0  0  0  0  0  0  0  0  0  0  0  0
   63.6990   34.0650   49.6530 O   0  0  0  0  0  0  0  0  0  0  0  0
   64.1150   33.1190   50.6350 C   0  0  0  0  0  0  0  0  0  0  0  0
   65.0570   32.0870   50.0080 C   0  0  0  0  0  0  0  0  0  0  0  0
   66.4840   32.1720   50.5570 C   0  0  0  0  0  0  0  0  0  0  0  0
   67.1000   30.9350   50.4850 F   0  0  0  0  0  0  0  0  0  0  0  0
   66.4740   32.6010   51.8720 F   0  0  0  0  0  0  0  0  0  0  0  0
   67.2110   33.0740   49.8020 F   0  0  0  0  0  0  0  0  0  0  0  0
   62.7260   33.5080   47.5250 C   0  0  0  0  0  0  0  0  0  0  0  0
   61.6230   33.3520   46.6820 C   0  0  0  0  0  0  0  0  0  0  0  0
   58.9220   32.2580   45.4810 C   0  0  0  0  0  0  0  0  0  0  0  0
   57.4510   29.6970   46.0080 C   0  0  0  0  0  0  0  0  0  0  0  0
   57.8170   28.3730   46.2610 C   0  0  0  0  0  0  0  0  0  0  0  0
   54.8970   23.4403   45.7023 H   0  0  0  0  0  0  0  0  0  0  0  0
   54.4522   24.5539   44.3649 H   0  0  0  0  0  0  0  0  0  0  0  0
   56.0566   23.7461   44.3649 H   0  0  0  0  0  0  0  0  0  0  0  0
   58.5107   25.5000   44.5333 H   0  0  0  0  0  0  0  0  0  0  0  0
   59.3355   25.9725   47.3972 H   0  0  0  0  0  0  0  0  0  0  0  0
   60.1511   25.0350   46.1000 H   0  0  0  0  0  0  0  0  0  0  0  0
   60.2356   26.8293   46.1000 H   0  0  0  0  0  0  0  0  0  0  0  0
   57.7995   27.1865   43.0535 H   0  0  0  0  0  0  0  0  0  0  0  0
   57.1604   29.5522   42.6061 H   0  0  0  0  0  0  0  0  0  0  0  0
   58.0283   32.8291   43.5584 H   0  0  0  0  0  0  0  0  0  0  0  0
   56.6858   34.4989   44.4962 H   0  0  0  0  0  0  0  0  0  0  0  0
   56.1935   33.4937   45.8659 H   0  0  0  0  0  0  0  0  0  0  0  0
   58.5454   35.3370   45.5864 H   0  0  0  0  0  0  0  0  0  0  0  0
   57.7423   34.7989   47.0696 H   0  0  0  0  0  0  0  0  0  0  0  0
   59.1465   34.2387   48.8675 H   0  0  0  0  0  0  0  0  0  0  0  0
   61.1154   34.5163   50.3634 H   0  0  0  0  0  0  0  0  0  0  0  0
   64.6397   33.6444   51.4466 H   0  0  0  0  0  0  0  0  0  0  0  0
   63.2297   32.6020   51.0337 H   0  0  0  0  0  0  0  0  0  0  0  0
   64.6616   31.0810   50.2123 H   0  0  0  0  0  0  0  0  0  0  0  0
   65.1052   32.2964   48.9292 H   0  0  0  0  0  0  0  0  0  0  0  0
   63.7365   33.3004   47.1432 H   0  0  0  0  0  0  0  0  0  0  0  0
   61.7738   33.0236   45.6431 H   0  0  0  0  0  0  0  0  0  0  0  0
   59.8015   32.0150   44.8666 H   0  0  0  0  0  0  0  0  0  0  0  0
   58.7170   31.3835   46.1160 H   0  0  0  0  0  0  0  0  0  0  0  0
   57.3527   30.4038   46.8451 H   0  0  0  0  0  0  0  0  0  0  0  0
   57.9951   28.0432   47.2952 H   0  0  0  0  0  0  0  0  0  0  0  0
  1  2  1  0
  2  3  2  0
  2  4  1  0
  4  5  1  0
  5  6  1  0
  5  7  1  0
  7  8  2  0
  8  9  1  0
  9 10  2  0
 10 11  1  0
 11 12  1  0
 12 13  1  0
 13 14  1  0
 14 15  1  0
 15 16  1  0
 16 17  2  0
 17 18  1  0
 18 19  2  0
 19 20  1  0
 20 21  1  0
 21 22  1  0
 22 23  1  0
 23 24  1  0
 23 25  1  0
 23 26  1  0
 19 27  1  0
 27 28  2  0
 15 29  1  0
 10 30  1  0
 30 31  2  0
 31  7  1  0
 29 12  1  0
 28 16  1  0
  1 32  1  0
  1 33  1  0
  1 34  1  0
  5 35  1  6
  6 36  1  0
  6 37  1  0
  6 38  1  0
  8 39  1  0
  9 40  1  0
 12 41  1  6
 13 42  1  0
 13 43  1  0
 14 44  1  0
 14 45  1  0
 17 46  1  0
 18 47  1  0
 21 48  1  0
 21 49  1  0
 22 50  1  0
 22 51  1  0
 27 52  1  0
 28 53  1  0
 29 54  1  0
 29 55  1  0
 30 56  1  0
 31 57  1  0
M  CHG  1   4  -1
M  END
>  <UniqueID>  (26) 
25

>  <SMILES>  (26) 
CC(=O)[N-][C@H](C)c1ccc(O[C@H]2CCN(c3ccc(OCCC(F)(F)F)cc3)C2)cc1

>  <Energy>  (26) 
51.718172570741274

>  <Genealogy>  (26) 
CC(=O)[N-]C(C)c1ccc(OC2CCN(c3ccc(OCCC(F)(F)F)cc3)C2)cc1 (protonated)
CC(=O)[N-][C@H](C)c1ccc(O[C@H]2CCN(c3ccc(OCCC(F)(F)F)cc3)C2)cc1 (chirality)
CC(=O)[N-][C@H](C)c1ccc(O[C@H]2CCN(c3ccc(OCCC(F)(F)F)cc3)C2)cc1 (3D coordinates assigned)
CC(=O)[N-][C@H](C)c1ccc(O[C@H]2CCN(c3ccc(OCCC(F)(F)F)cc3)C2)cc1 (nonaromatic ring conformer: 51.718172570741274 kcal/mol)

>  <smiles>  (26) 
CC(=O)NC(C)c1ccc(OC2CCN(c3ccc(OCCC(F)(F)F)cc3)C2)cc1

>  <score_type>  (26) 
oracle

>  <origin>  (26) 
adg

>  <m_score__min__energy>  (26) 
-10.49

>  <m_primary>  (26) 
energy

$$$$
26:0
     RDKit          3D

 43 45  0  0  0  0  0  0  0  0999 V2000
   62.3330   33.4990   46.8180 C   0  0  0  0  0  0  0  0  0  0  0  0
   60.8850   33.3480   47.9100 S   0  0  0  0  0  0  0  0  0  0  0  0
   59.7040   33.3660   46.5590 C   0  0  0  0  0  0  0  0  0  0  0  0
   59.4020   34.5640   45.9040 C   0  0  0  0  0  0  0  0  0  0  0  0
   58.4610   34.5780   44.8720 C   0  0  0  0  0  0  0  0  0  0  0  0
   57.8250   33.3940   44.4860 C   0  0  0  0  0  0  0  0  0  0  0  0
   58.1400   32.1810   45.1200 C   0  0  0  0  0  0  0  0  0  0  0  0
   57.4590   30.9390   44.6830 C   0  0  0  0  0  0  0  0  0  0  0  0
   56.2050   30.8840   44.8070 O   0  0  0  0  0  0  0  0  0  0  0  0
   58.1650   29.8020   44.1160 N   0  0  0  0  0  0  0  0  0  0  0  0
   58.9760   29.0490   45.1160 C   0  0  0  0  0  0  0  0  0  0  0  0
   58.3290   27.7300   45.5600 C   0  0  0  0  0  0  0  0  0  0  0  0
   57.9900   26.9000   44.3960 N   0  0  0  0  0  0  0  0  0  0  0  0
   57.8660   25.4670   44.5330 C   0  0  0  0  0  0  0  0  0  0  0  0
   57.0870   24.7230   43.6250 C   0  0  0  0  0  0  0  0  0  0  0  0
   56.9770   23.3350   43.7560 C   0  0  0  0  0  0  0  0  0  0  0  0
   57.6400   22.6740   44.7920 C   0  0  0  0  0  0  0  0  0  0  0  0
   58.4120   23.3990   45.7010 C   0  0  0  0  0  0  0  0  0  0  0  0
   58.5270   24.7870   45.5750 C   0  0  0  0  0  0  0  0  0  0  0  0
   57.7690   27.5480   43.0970 C   0  0  0  0  0  0  0  0  0  0  0  0
   57.2410   28.9720   43.3020 C   0  0  0  0  0  0  0  0  0  0  0  0
   59.0680   32.1790   46.1750 C   0  0  0  0  0  0  0  0  0  0  0  0
   63.2437   33.5940   47.4276 H   0  0  0  0  0  0  0  0  0  0  0  0
   62.4084   32.6039   46.1832 H   0  0  0  0  0  0  0  0  0  0  0  0
   62.2221   34.3905   46.1832 H   0  0  0  0  0  0  0  0  0  0  0  0
   59.9057   35.4955   46.2016 H   0  0  0  0  0  0  0  0  0  0  0  0
   58.2197   35.5222   44.3619 H   0  0  0  0  0  0  0  0  0  0  0  0
   57.0745   33.4127   43.6820 H   0  0  0  0  0  0  0  0  0  0  0  0
   58.8610   30.2070   43.4430 H   0  0  0  0  0  0  0  0  0  0  0  0
   59.9562   28.8235   44.6707 H   0  0  0  0  0  0  0  0  0  0  0  0
   59.0603   29.6851   46.0095 H   0  0  0  0  0  0  0  0  0  0  0  0
   59.0331   27.1807   46.2024 H   0  0  0  0  0  0  0  0  0  0  0  0
   57.4057   27.9576   46.1129 H   0  0  0  0  0  0  0  0  0  0  0  0
   56.5615   25.2376   42.8071 H   0  0  0  0  0  0  0  0  0  0  0  0
   56.3670   22.7628   43.0415 H   0  0  0  0  0  0  0  0  0  0  0  0
   57.5538   21.5819   44.8917 H   0  0  0  0  0  0  0  0  0  0  0  0
   58.9312   22.8774   46.5185 H   0  0  0  0  0  0  0  0  0  0  0  0
   59.1379   25.3519   46.2945 H   0  0  0  0  0  0  0  0  0  0  0  0
   58.7191   27.5883   42.5442 H   0  0  0  0  0  0  0  0  0  0  0  0
   57.0285   26.9680   42.5266 H   0  0  0  0  0  0  0  0  0  0  0  0
   57.1120   29.4469   42.3182 H   0  0  0  0  0  0  0  0  0  0  0  0
   56.2852   28.9029   43.8420 H   0  0  0  0  0  0  0  0  0  0  0  0
   59.2960   31.2406   46.7018 H   0  0  0  0  0  0  0  0  0  0  0  0
  1  2  1  0
  2  3  1  0
  3  4  2  0
  4  5  1  0
  5  6  2  0
  6  7  1  0
  7  8  1  0
  8  9  2  0
  8 10  1  0
 10 11  1  0
 11 12  1  0
 12 13  1  0
 13 14  1  0
 14 15  2  0
 15 16  1  0
 16 17  2  0
 17 18  1  0
 18 19  2  0
 13 20  1  0
 20 21  1  0
  7 22  2  0
 22  3  1  0
 21 10  1  0
 19 14  1  0
  1 23  1  0
  1 24  1  0
  1 25  1  0
  4 26  1  0
  5 27  1  0
  6 28  1  0
 10 29  1  0
 11 30  1  0
 11 31  1  0
 12 32  1  0
 12 33  1  0
 15 34  1  0
 16 35  1  0
 17 36  1  0
 18 37  1  0
 19 38  1  0
 20 39  1  0
 20 40  1  0
 21 41  1  0
 21 42  1  0
 22 43  1  0
M  CHG  1  10   1
M  END
>  <UniqueID>  (27) 
26

>  <SMILES>  (27) 
CSc1cccc(C(=O)[NH+]2CCN(c3ccccc3)CC2)c1

>  <Energy>  (27) 
59.7304977378053

>  <Genealogy>  (27) 
CSc1cccc(C(=O)[NH+]2CCN(c3ccccc3)CC2)c1 (protonated)
CSc1cccc(C(=O)[NH+]2CCN(c3ccccc3)CC2)c1 (3D coordinates assigned)
CSc1cccc(C(=O)[NH+]2CCN(c3ccccc3)CC2)c1 (nonaromatic ring conformer: 59.7304977378053 kcal/mol)

>  <smiles>  (27) 
CSc1cccc(C(=O)N2CCN(c3ccccc3)CC2)c1

>  <score_type>  (27) 
oracle

>  <origin>  (27) 
adg

>  <m_score__min__energy>  (27) 
-6.5899999999999999

>  <m_primary>  (27) 
energy

$$$$
27:0
     RDKit          3D

 50 53  0  0  0  0  0  0  0  0999 V2000
   55.9670   30.0890   43.2600 C   0  0  0  0  0  0  0  0  0  0  0  0
   56.2380   30.2720   44.6460 O   0  0  0  0  0  0  0  0  0  0  0  0
   57.1780   29.5300   45.3820 C   0  0  0  0  0  0  0  0  0  0  0  0
   57.0910   28.1300   45.4920 C   0  0  0  0  0  0  0  0  0  0  0  0
   58.0270   27.4210   46.2420 C   0  0  0  0  0  0  0  0  0  0  0  0
   59.0690   28.0910   46.8780 C   0  0  0  0  0  0  0  0  0  0  0  0
   59.1940   29.4860   46.7690 C   0  0  0  0  0  0  0  0  0  0  0  0
   60.4090   30.1580   47.3730 C   0  0  0  0  0  0  0  0  0  0  0  0
   60.7390   29.5600   48.6780 N   0  0  0  0  0  0  0  0  0  0  0  0
   61.6110   30.4260   49.4890 C   0  0  0  0  0  0  0  0  0  0  0  0
   60.8590   31.6400   49.9770 C   0  0  0  0  0  0  0  0  0  0  0  0
   60.0180   31.4880   51.0390 N   0  0  0  0  0  0  0  0  0  0  0  0
   59.2370   32.5000   51.5000 C   0  0  0  0  0  0  0  0  0  0  0  0
   59.2670   33.7430   50.8760 C   0  0  0  0  0  0  0  0  0  0  0  0
   60.1320   33.9460   49.8010 C   0  0  0  0  0  0  0  0  0  0  0  0
   60.9630   32.9080   49.3530 C   0  0  0  0  0  0  0  0  0  0  0  0
   61.8770   33.1630   48.2770 N   0  0  0  0  0  0  0  0  0  0  0  0
   63.2200   33.0740   48.3320 C   0  0  0  0  0  0  0  0  0  0  0  0
   63.7340   33.4910   47.1230 C   0  0  0  0  0  0  0  0  0  0  0  0
   62.6260   33.8450   46.3750 C   0  0  0  0  0  0  0  0  0  0  0  0
   61.5080   33.6490   47.1000 N   0  0  0  0  0  0  0  0  0  0  0  0
   58.2280   30.2140   46.0300 C   0  0  0  0  0  0  0  0  0  0  0  0
   58.2900   31.6920   45.9390 C   0  0  0  0  0  0  0  0  0  0  0  0
   58.1910   32.4660   47.1060 C   0  0  0  0  0  0  0  0  0  0  0  0
   58.2470   33.8620   47.0330 C   0  0  0  0  0  0  0  0  0  0  0  0
   58.3910   34.4930   45.7950 C   0  0  0  0  0  0  0  0  0  0  0  0
   58.4710   33.7300   44.6270 C   0  0  0  0  0  0  0  0  0  0  0  0
   58.4150   32.3330   44.6940 C   0  0  0  0  0  0  0  0  0  0  0  0
   58.4850   31.6110   43.5480 F   0  0  0  0  0  0  0  0  0  0  0  0
   55.0607   29.4770   43.1413 H   0  0  0  0  0  0  0  0  0  0  0  0
   55.8129   31.0687   42.7841 H   0  0  0  0  0  0  0  0  0  0  0  0
   56.8181   29.5800   42.7841 H   0  0  0  0  0  0  0  0  0  0  0  0
   56.2784   27.5915   44.9824 H   0  0  0  0  0  0  0  0  0  0  0  0
   57.9426   26.3280   46.3321 H   0  0  0  0  0  0  0  0  0  0  0  0
   59.8008   27.5229   47.4710 H   0  0  0  0  0  0  0  0  0  0  0  0
   61.2649   30.0358   46.6929 H   0  0  0  0  0  0  0  0  0  0  0  0
   60.1872   31.2255   47.5188 H   0  0  0  0  0  0  0  0  0  0  0  0
   61.2680   28.6760   48.4910 H   0  0  0  0  0  0  0  0  0  0  0  0
   61.9782   29.8571   50.3559 H   0  0  0  0  0  0  0  0  0  0  0  0
   62.4529   30.7608   48.8652 H   0  0  0  0  0  0  0  0  0  0  0  0
   58.5805   32.3362   52.3673 H   0  0  0  0  0  0  0  0  0  0  0  0
   58.6155   34.5570   51.2267 H   0  0  0  0  0  0  0  0  0  0  0  0
   60.1629   34.9255   49.3015 H   0  0  0  0  0  0  0  0  0  0  0  0
   63.8069   32.7273   49.1953 H   0  0  0  0  0  0  0  0  0  0  0  0
   64.7907   33.5329   46.8204 H   0  0  0  0  0  0  0  0  0  0  0  0
   62.6536   34.2284   45.3444 H   0  0  0  0  0  0  0  0  0  0  0  0
   58.0689   31.9729   48.0817 H   0  0  0  0  0  0  0  0  0  0  0  0
   58.1776   34.4634   47.9514 H   0  0  0  0  0  0  0  0  0  0  0  0
   58.4414   35.5904   45.7396 H   0  0  0  0  0  0  0  0  0  0  0  0
   58.5783   34.2286   43.6524 H   0  0  0  0  0  0  0  0  0  0  0  0
  1  2  1  0
  2  3  1  0
  3  4  2  0
  4  5  1  0
  5  6  2  0
  6  7  1  0
  7  8  1  0
  8  9  1  0
  9 10  1  0
 10 11  1  0
 11 12  2  0
 12 13  1  0
 13 14  2  0
 14 15  1  0
 15 16  2  0
 16 17  1  0
 17 18  1  0
 18 19  2  0
 19 20  1  0
 20 21  2  0
  7 22  2  0
 22 23  1  0
 23 24  2  0
 24 25  1  0
 25 26  2  0
 26 27  1  0
 27 28  2  0
 28 29  1  0
 22  3  1  0
 28 23  1  0
 16 11  1  0
 21 17  1  0
  1 30  1  0
  1 31  1  0
  1 32  1  0
  4 33  1  0
  5 34  1  0
  6 35  1  0
  8 36  1  0
  8 37  1  0
  9 38  1  0
 10 39  1  0
 10 40  1  0
 13 41  1  0
 14 42  1  0
 15 43  1  0
 18 44  1  0
 19 45  1  0
 20 46  1  0
 24 47  1  0
 25 48  1  0
 26 49  1  0
 27 50  1  0
M  END
>  <UniqueID>  (28) 
27

>  <SMILES>  (28) 
COc1cccc(CNCc2ncccc2-n2cccn2)c1-c1ccccc1F

>  <Energy>  (28) 
95.56003920820282

>  <Genealogy>  (28) 
COc1cccc(CNCc2ncccc2-n2cccn2)c1-c1ccccc1F (3D coordinates assigned)
COc1cccc(CNCc2ncccc2-n2cccn2)c1-c1ccccc1F (optimized conformer: 95.56003920820282 kcal/mol)

>  <smiles>  (28) 
COc1cccc(CNCc2ncccc2-n2cccn2)c1-c1ccccc1F

>  <score_type>  (28) 
oracle

>  <origin>  (28) 
adg

>  <m_score__min__energy>  (28) 
-8.0500000000000007

>  <m_primary>  (28) 
energy

$$$$
28:0
     RDKit          3D

 38 41  0  0  0  0  0  0  0  0999 V2000
   62.1400   34.2210   48.7120 C   0  0  0  0  0  0  0  0  0  0  0  0
   60.6920   33.9950   48.7830 N   0  0  0  0  0  0  0  0  0  0  0  0
   60.0050   34.1920   50.0660 C   0  0  0  0  0  0  0  0  0  0  0  0
   59.9490   33.5860   47.6050 C   0  0  0  0  0  0  0  0  0  0  0  0
   59.6460   34.5110   46.5880 C   0  0  0  0  0  0  0  0  0  0  0  0
   58.9320   34.1210   45.4540 C   0  0  0  0  0  0  0  0  0  0  0  0
   58.5050   32.7970   45.2980 C   0  0  0  0  0  0  0  0  0  0  0  0
   58.7980   31.8510   46.3100 C   0  0  0  0  0  0  0  0  0  0  0  0
   59.5140   32.2540   47.4510 C   0  0  0  0  0  0  0  0  0  0  0  0
   58.3530   30.4490   46.1590 C   0  0  0  0  0  0  0  0  0  0  0  0
   58.4620   29.6270   47.1080 O   0  0  0  0  0  0  0  0  0  0  0  0
   57.7310   30.0700   44.8870 C   0  0  0  0  0  0  0  0  0  0  0  0
   57.2700   28.8400   44.4280 C   0  0  0  0  0  0  0  0  0  0  0  0
   57.4180   27.5080   45.0410 C   0  0  0  0  0  0  0  0  0  0  0  0
   58.5900   26.7590   45.0520 C   0  0  0  0  0  0  0  0  0  0  0  0
   58.4900   25.5780   45.7980 C   0  0  0  0  0  0  0  0  0  0  0  0
   57.2500   25.4000   46.3970 C   0  0  0  0  0  0  0  0  0  0  0  0
   56.2840   26.7160   46.0020 S   0  0  0  0  0  0  0  0  0  0  0  0
   56.6710   29.0400   43.2350 N   0  0  0  0  0  0  0  0  0  0  0  0
   56.7870   30.3570   42.9760 C   0  0  0  0  0  0  0  0  0  0  0  0
   57.4340   31.0000   43.9650 N   0  0  0  0  0  0  0  0  0  0  0  0
   57.7010   32.4360   44.0610 C   0  0  0  0  0  0  0  0  0  0  0  0
   62.5514   34.2852   49.7301 H   0  0  0  0  0  0  0  0  0  0  0  0
   62.6156   33.3862   48.1763 H   0  0  0  0  0  0  0  0  0  0  0  0
   62.3386   35.1610   48.1763 H   0  0  0  0  0  0  0  0  0  0  0  0
   60.7044   33.9914   50.8910 H   0  0  0  0  0  0  0  0  0  0  0  0
   59.6456   35.2294   50.1340 H   0  0  0  0  0  0  0  0  0  0  0  0
   59.1505   33.5027   50.1340 H   0  0  0  0  0  0  0  0  0  0  0  0
   59.9765   35.5554   46.6885 H   0  0  0  0  0  0  0  0  0  0  0  0
   58.7023   34.8621   44.6743 H   0  0  0  0  0  0  0  0  0  0  0  0
   59.7385   31.5175   48.2367 H   0  0  0  0  0  0  0  0  0  0  0  0
   59.5064   27.0646   44.5258 H   0  0  0  0  0  0  0  0  0  0  0  0
   59.3162   24.8589   45.8999 H   0  0  0  0  0  0  0  0  0  0  0  0
   56.9520   24.5452   47.0219 H   0  0  0  0  0  0  0  0  0  0  0  0
   56.2280   28.3220   42.6180 H   0  0  0  0  0  0  0  0  0  0  0  0
   56.4010   30.8456   42.0692 H   0  0  0  0  0  0  0  0  0  0  0  0
   58.2644   32.7503   43.1700 H   0  0  0  0  0  0  0  0  0  0  0  0
   56.7320   32.9521   44.1299 H   0  0  0  0  0  0  0  0  0  0  0  0
  1  2  1  0
  2  3  1  0
  2  4  1  0
  4  5  2  0
  5  6  1  0
  6  7  2  0
  7  8  1  0
  8  9  2  0
  8 10  1  0
 10 11  2  0
 10 12  1  0
 12 13  2  0
 13 14  1  0
 14 15  2  0
 15 16  1  0
 16 17  2  0
 17 18  1  0
 13 19  1  0
 19 20  2  0
 20 21  1  0
 21 22  1  0
  9  4  1  0
 21 12  1  0
 22  7  1  0
 18 14  1  0
  1 23  1  0
  1 24  1  0
  1 25  1  0
  3 26  1  0
  3 27  1  0
  3 28  1  0
  5 29  1  0
  6 30  1  0
  9 31  1  0
 15 32  1  0
 16 33  1  0
 17 34  1  0
 19 35  1  0
 20 36  1  0
 22 37  1  0
 22 38  1  0
M  CHG  1  19   1
M  END
>  <UniqueID>  (29) 
28

>  <SMILES>  (29) 
CN(C)c1ccc2c(c1)C(=O)c1c(-c3cccs3)[nH+]cn1C2

>  <Energy>  (29) 
109.60180129048524

>  <Genealogy>  (29) 
CN(C)c1ccc2c(c1)C(=O)c1c(-c3cccs3)[nH+]cn1C2 (protonated)
CN(C)c1ccc2c(c1)C(=O)c1c(-c3cccs3)[nH+]cn1C2 (3D coordinates assigned)
CN(C)c1ccc2c(c1)C(=O)c1c(-c3cccs3)[nH+]cn1C2 (nonaromatic ring conformer: 109.60180129048524 kcal/mol)

>  <smiles>  (29) 
C[N+](C)c1ccc2c(c1)C(=O)c1c(-c3cccs3)ncn1C2

>  <score_type>  (29) 
oracle

>  <origin>  (29) 
adg

>  <m_score__min__energy>  (29) 
-6.04

>  <m_primary>  (29) 
energy

$$$$
29:0
     RDKit          3D

 46 48  0  0  0  0  0  0  0  0999 V2000
   65.1420   33.1000   49.3660 C   0  0  0  0  0  0  0  0  0  0  0  0
   63.7680   33.1070   48.7640 C   0  0  0  0  0  0  0  0  0  0  0  0
   63.6050   33.2110   47.3760 C   0  0  0  0  0  0  0  0  0  0  0  0
   62.3240   33.2590   46.8160 C   0  0  0  0  0  0  0  0  0  0  0  0
   61.1810   33.2140   47.6380 C   0  0  0  0  0  0  0  0  0  0  0  0
   59.8090   33.2690   47.0660 C   0  0  0  0  0  0  0  0  0  0  0  0
   58.6440   33.4490   47.8190 C   0  0  0  0  0  0  0  0  0  0  0  0
   57.3340   33.4470   46.7660 S   0  0  0  0  0  0  0  0  0  0  0  0
   58.2880   33.2350   45.4020 C   0  0  0  0  0  0  0  0  0  0  0  0
   57.7690   33.0630   44.0090 C   0  0  0  0  0  0  0  0  0  0  0  0
   57.5340   31.5880   43.6850 C   0  0  0  0  0  0  0  0  0  0  0  0
   56.8360   30.9350   44.7880 N   0  0  0  0  0  0  0  0  0  0  0  0
   56.3900   29.5750   44.7630 C   0  0  0  0  0  0  0  0  0  0  0  0
   55.1550   29.3430   44.8570 O   0  0  0  0  0  0  0  0  0  0  0  0
   57.3750   28.4380   44.6430 C   0  0  0  0  0  0  0  0  0  0  0  0
   58.8330   28.9110   44.5780 C   0  0  0  0  0  0  0  0  0  0  0  0
   59.3420   29.2510   45.9540 C   0  0  0  0  0  0  0  0  0  0  0  0
   58.5440   29.0060   47.0850 C   0  0  0  0  0  0  0  0  0  0  0  0
   59.0310   29.2930   48.3640 C   0  0  0  0  0  0  0  0  0  0  0  0
   60.3180   29.8140   48.5240 C   0  0  0  0  0  0  0  0  0  0  0  0
   61.1210   30.0470   47.4040 C   0  0  0  0  0  0  0  0  0  0  0  0
   60.6390   29.7620   46.1240 C   0  0  0  0  0  0  0  0  0  0  0  0
   59.5960   33.1470   45.7250 N   0  0  0  0  0  0  0  0  0  0  0  0
   61.3550   33.1340   49.0310 C   0  0  0  0  0  0  0  0  0  0  0  0
   62.6360   33.0860   49.5890 C   0  0  0  0  0  0  0  0  0  0  0  0
   65.0617   33.1004   50.4631 H   0  0  0  0  0  0  0  0  0  0  0  0
   65.6814   32.1991   49.0382 H   0  0  0  0  0  0  0  0  0  0  0  0
   65.6905   33.9954   49.0382 H   0  0  0  0  0  0  0  0  0  0  0  0
   64.4893   33.2551   46.7232 H   0  0  0  0  0  0  0  0  0  0  0  0
   62.2083   33.3325   45.7246 H   0  0  0  0  0  0  0  0  0  0  0  0
   58.5939   33.5708   48.9111 H   0  0  0  0  0  0  0  0  0  0  0  0
   56.8185   33.6079   43.9104 H   0  0  0  0  0  0  0  0  0  0  0  0
   58.5176   33.4589   43.3070 H   0  0  0  0  0  0  0  0  0  0  0  0
   56.9254   31.5089   42.7721 H   0  0  0  0  0  0  0  0  0  0  0  0
   58.5053   31.0947   43.5325 H   0  0  0  0  0  0  0  0  0  0  0  0
   57.2588   27.7801   45.5169 H   0  0  0  0  0  0  0  0  0  0  0  0
   57.1576   27.9129   43.7012 H   0  0  0  0  0  0  0  0  0  0  0  0
   59.4541   28.1101   44.1505 H   0  0  0  0  0  0  0  0  0  0  0  0
   58.8860   29.8111   43.9479 H   0  0  0  0  0  0  0  0  0  0  0  0
   57.5340   28.5875   46.9636 H   0  0  0  0  0  0  0  0  0  0  0  0
   58.4000   29.1084   49.2459 H   0  0  0  0  0  0  0  0  0  0  0  0
   60.6987   30.0405   49.5308 H   0  0  0  0  0  0  0  0  0  0  0  0
   62.1344   30.4556   47.5306 H   0  0  0  0  0  0  0  0  0  0  0  0
   61.2778   29.9385   45.2461 H   0  0  0  0  0  0  0  0  0  0  0  0
   60.4737   33.1089   49.6888 H   0  0  0  0  0  0  0  0  0  0  0  0
   62.7556   33.0315   50.6811 H   0  0  0  0  0  0  0  0  0  0  0  0
  1  2  1  0
  2  3  2  0
  3  4  1  0
  4  5  2  0
  5  6  1  0
  6  7  2  0
  7  8  1  0
  8  9  1  0
  9 10  1  0
 10 11  1  0
 11 12  1  0
 12 13  1  0
 13 14  2  0
 13 15  1  0
 15 16  1  0
 16 17  1  0
 17 18  2  0
 18 19  1  0
 19 20  2  0
 20 21  1  0
 21 22  2  0
  9 23  2  0
  5 24  1  0
 24 25  2  0
 25  2  1  0
 23  6  1  0
 22 17  1  0
  1 26  1  0
  1 27  1  0
  1 28  1  0
  3 29  1  0
  4 30  1  0
  7 31  1  0
 10 32  1  0
 10 33  1  0
 11 34  1  0
 11 35  1  0
 15 36  1  0
 15 37  1  0
 16 38  1  0
 16 39  1  0
 18 40  1  0
 19 41  1  0
 20 42  1  0
 21 43  1  0
 22 44  1  0
 24 45  1  0
 25 46  1  0
M  CHG  1  12  -1
M  END
>  <UniqueID>  (30) 
29

>  <SMILES>  (30) 
Cc1ccc(-c2csc(CC[N-]C(=O)CCc3ccccc3)n2)cc1

>  <Energy>  (30) 
71.27834320632294

>  <Genealogy>  (30) 
Cc1ccc(-c2csc(CC[N-]C(=O)CCc3ccccc3)n2)cc1 (protonated)
Cc1ccc(-c2csc(CC[N-]C(=O)CCc3ccccc3)n2)cc1 (3D coordinates assigned)
Cc1ccc(-c2csc(CC[N-]C(=O)CCc3ccccc3)n2)cc1 (optimized conformer: 71.27834320632294 kcal/mol)

>  <smiles>  (30) 
Cc1ccc(-c2csc(CCNC(=O)CCc3ccccc3)n2)cc1

>  <score_type>  (30) 
oracle

>  <origin>  (30) 
adg

>  <m_score__min__energy>  (30) 
-10.44

>  <m_primary>  (30) 
energy

$$$$
30:0
     RDKit          3D

 55 57  0  0  0  0  0  0  0  0999 V2000
   57.6520   32.0670   42.0160 C   0  0  0  0  0  0  0  0  0  0  0  0
   58.1940   32.2560   43.4340 C   0  0  0  0  0  0  0  0  0  0  0  0
   57.2280   31.8840   44.4910 N   0  0  0  0  0  0  0  0  0  0  0  0
   56.2530   30.8310   44.1100 C   0  0  0  0  0  0  0  0  0  0  0  0
   56.4800   29.4650   44.7750 C   0  0  0  0  0  0  0  0  0  0  0  0
   56.7120   33.0280   45.2760 C   0  0  0  0  0  0  0  0  0  0  0  0
   57.6880   34.2080   45.2530 C   0  0  0  0  0  0  0  0  0  0  0  0
   58.6750   34.2680   46.7400 S   0  0  0  0  0  0  0  0  0  0  0  0
   59.5090   35.7200   46.8670 O   0  0  0  0  0  0  0  0  0  0  0  0
   59.7700   32.9040   46.8670 C   0  0  0  0  0  0  0  0  0  0  0  0
   61.0520   33.0930   47.3880 C   0  0  0  0  0  0  0  0  0  0  0  0
   61.9060   31.9990   47.5130 C   0  0  0  0  0  0  0  0  0  0  0  0
   61.4730   30.7320   47.1230 C   0  0  0  0  0  0  0  0  0  0  0  0
   60.1760   30.5680   46.6060 C   0  0  0  0  0  0  0  0  0  0  0  0
   59.6890   29.2240   46.2070 C   0  0  0  0  0  0  0  0  0  0  0  0
   59.7350   28.8110   44.8660 C   0  0  0  0  0  0  0  0  0  0  0  0
   59.2710   27.5450   44.4960 C   0  0  0  0  0  0  0  0  0  0  0  0
   58.7500   26.6650   45.4600 C   0  0  0  0  0  0  0  0  0  0  0  0
   58.2530   25.3220   45.0660 C   0  0  0  0  0  0  0  0  0  0  0  0
   58.8000   24.1600   45.6430 C   0  0  0  0  0  0  0  0  0  0  0  0
   58.3280   22.8960   45.2720 C   0  0  0  0  0  0  0  0  0  0  0  0
   57.3110   22.7790   44.3230 C   0  0  0  0  0  0  0  0  0  0  0  0
   56.7620   23.9250   43.7420 C   0  0  0  0  0  0  0  0  0  0  0  0
   57.2280   25.1910   44.1100 C   0  0  0  0  0  0  0  0  0  0  0  0
   58.7060   27.0790   46.8030 C   0  0  0  0  0  0  0  0  0  0  0  0
   59.1710   28.3440   47.1730 C   0  0  0  0  0  0  0  0  0  0  0  0
   59.3610   31.6600   46.4910 N   0  0  0  0  0  0  0  0  0  0  0  0
   56.6144   31.7052   42.0653 H   0  0  0  0  0  0  0  0  0  0  0  0
   57.6802   33.0280   41.4816 H   0  0  0  0  0  0  0  0  0  0  0  0
   58.2717   31.3319   41.4816 H   0  0  0  0  0  0  0  0  0  0  0  0
   59.0928   31.6323   43.5489 H   0  0  0  0  0  0  0  0  0  0  0  0
   58.4103   33.3275   43.5568 H   0  0  0  0  0  0  0  0  0  0  0  0
   55.2473   31.1815   44.3850 H   0  0  0  0  0  0  0  0  0  0  0  0
   56.3794   30.6715   43.0290 H   0  0  0  0  0  0  0  0  0  0  0  0
   56.4606   29.5818   45.8686 H   0  0  0  0  0  0  0  0  0  0  0  0
   55.6850   28.7703   44.4663 H   0  0  0  0  0  0  0  0  0  0  0  0
   57.4570   29.0647   44.4663 H   0  0  0  0  0  0  0  0  0  0  0  0
   55.7508   33.3503   44.8491 H   0  0  0  0  0  0  0  0  0  0  0  0
   56.5867   32.7031   46.3194 H   0  0  0  0  0  0  0  0  0  0  0  0
   58.3553   34.1034   44.3848 H   0  0  0  0  0  0  0  0  0  0  0  0
   57.1044   35.1381   45.1877 H   0  0  0  0  0  0  0  0  0  0  0  0
   58.9520   36.2700   47.4740 H   0  0  0  0  0  0  0  0  0  0  0  0
   61.3842   34.0952   47.6965 H   0  0  0  0  0  0  0  0  0  0  0  0
   62.9195   32.1345   47.9184 H   0  0  0  0  0  0  0  0  0  0  0  0
   62.1431   29.8650   47.2195 H   0  0  0  0  0  0  0  0  0  0  0  0
   60.1394   29.4890   44.1000 H   0  0  0  0  0  0  0  0  0  0  0  0
   59.3141   27.2351   43.4414 H   0  0  0  0  0  0  0  0  0  0  0  0
   59.6031   24.2463   46.3898 H   0  0  0  0  0  0  0  0  0  0  0  0
   58.7591   21.9930   45.7290 H   0  0  0  0  0  0  0  0  0  0  0  0
   56.9417   21.7844   44.0325 H   0  0  0  0  0  0  0  0  0  0  0  0
   55.9615   23.8311   42.9935 H   0  0  0  0  0  0  0  0  0  0  0  0
   56.7912   26.0896   43.6499 H   0  0  0  0  0  0  0  0  0  0  0  0
   58.3020   26.4012   47.5694 H   0  0  0  0  0  0  0  0  0  0  0  0
   59.1313   28.6532   48.2279 H   0  0  0  0  0  0  0  0  0  0  0  0
   58.4010   31.5520   46.0920 H   0  0  0  0  0  0  0  0  0  0  0  0
  1  2  1  0
  2  3  1  0
  3  4  1  0
  4  5  1  0
  3  6  1  0
  6  7  1  0
  7  8  1  0
  8  9  1  6
  8 10  1  0
 10 11  2  0
 11 12  1  0
 12 13  2  0
 13 14  1  0
 14 15  1  0
 15 16  2  0
 16 17  1  0
 17 18  2  0
 18 19  1  0
 19 20  2  0
 20 21  1  0
 21 22  2  0
 22 23  1  0
 23 24  2  0
 18 25  1  0
 25 26  2  0
 14 27  2  0
 27 10  1  0
 26 15  1  0
 24 19  1  0
  1 28  1  0
  1 29  1  0
  1 30  1  0
  2 31  1  0
  2 32  1  0
  4 33  1  0
  4 34  1  0
  5 35  1  0
  5 36  1  0
  5 37  1  0
  6 38  1  0
  6 39  1  0
  7 40  1  0
  7 41  1  0
  9 42  1  0
 11 43  1  0
 12 44  1  0
 13 45  1  0
 16 46  1  0
 17 47  1  0
 20 48  1  0
 21 49  1  0
 22 50  1  0
 23 51  1  0
 24 52  1  0
 25 53  1  0
 26 54  1  0
 27 55  1  0
M  CHG  2   8   1  27   1
M  END
>  <UniqueID>  (31) 
30

>  <SMILES>  (31) 
CCN(CC)CC[S@+](O)c1cccc(-c2ccc(-c3ccccc3)cc2)[nH+]1

>  <Energy>  (31) 
65.64395843566959

>  <Genealogy>  (31) 
CCN(CC)CC[S+](O)c1cccc(-c2ccc(-c3ccccc3)cc2)[nH+]1 (protonated)
CCN(CC)CC[S@+](O)c1cccc(-c2ccc(-c3ccccc3)cc2)[nH+]1 (chirality)
CCN(CC)CC[S@+](O)c1cccc(-c2ccc(-c3ccccc3)cc2)[nH+]1 (3D coordinates assigned)
CCN(CC)CC[S@+](O)c1cccc(-c2ccc(-c3ccccc3)cc2)[nH+]1 (optimized conformer: 65.64395843566959 kcal/mol)

>  <smiles>  (31) 
CCN(CC)CC[S+]([O-])c1cccc(-c2ccc(-c3ccccc3)cc2)n1

>  <score_type>  (31) 
oracle

>  <origin>  (31) 
adg

>  <m_score__min__energy>  (31) 
-5.04

>  <m_primary>  (31) 
energy

$$$$
31:0
     RDKit          3D

 41 43  0  0  1  0  0  0  0  0999 V2000
   58.6240   32.4360   46.1660 C   0  0  0  0  0  0  0  0  0  0  0  0
   57.8740   31.2740   45.6390 C   0  0  0  0  0  0  0  0  0  0  0  0
   56.9780   31.2970   44.6080 N   0  0  0  0  0  0  0  0  0  0  0  0
   56.4650   30.0930   44.4140 N   0  0  0  0  0  0  0  0  0  0  0  0
   55.4760   29.7750   43.3880 C   0  0  0  0  0  0  0  0  0  0  0  0
   56.9950   29.2360   45.2990 C   0  0  0  0  0  0  0  0  0  0  0  0
   56.7660   27.9230   45.4900 N   0  0  0  0  0  0  0  0  0  0  0  0
   57.4580   27.3400   46.4950 C   0  0  0  0  0  0  0  0  0  0  0  0
   57.2990   26.0860   46.7500 N   0  0  0  0  0  0  0  0  0  0  0  0
   57.6840   25.0790   45.7830 C   0  0  0  0  0  0  0  0  0  0  0  0
   56.4730   24.8550   44.9000 C   0  0  0  0  0  0  0  0  0  0  0  0
   55.1880   24.7380   45.6570 C   0  0  0  0  0  0  0  0  0  0  0  0
   54.7940   26.0610   45.9650 O   0  0  0  0  0  0  0  0  0  0  0  0
   58.3260   28.0190   47.2650 N   0  0  0  0  0  0  0  0  0  0  0  0
   58.5610   29.3490   47.0700 C   0  0  0  0  0  0  0  0  0  0  0  0
   59.5090   29.9720   47.9580 C   0  0  0  0  0  0  0  0  0  0  0  0
   59.1360   30.1830   49.2920 C   0  0  0  0  0  0  0  0  0  0  0  0
   60.0140   30.7280   50.2070 C   0  0  0  0  0  0  0  0  0  0  0  0
   61.2990   31.0950   49.8650 C   0  0  0  0  0  0  0  0  0  0  0  0
   61.6780   30.8910   48.5510 C   0  0  0  0  0  0  0  0  0  0  0  0
   60.7920   30.3420   47.6350 C   0  0  0  0  0  0  0  0  0  0  0  0
   57.8730   29.9660   46.0610 C   0  0  0  0  0  0  0  0  0  0  0  0
   58.6095   32.4136   47.2657 H   0  0  0  0  0  0  0  0  0  0  0  0
   59.6646   32.3920   45.8120 H   0  0  0  0  0  0  0  0  0  0  0  0
   58.1553   33.3661   45.8120 H   0  0  0  0  0  0  0  0  0  0  0  0
   54.5339   29.4721   43.8682 H   0  0  0  0  0  0  0  0  0  0  0  0
   55.2996   30.6617   42.7614 H   0  0  0  0  0  0  0  0  0  0  0  0
   55.8495   28.9516   42.7614 H   0  0  0  0  0  0  0  0  0  0  0  0
   56.1130   27.3670   44.9270 H   0  0  0  0  0  0  0  0  0  0  0  0
   58.5341   25.4334   45.1815 H   0  0  0  0  0  0  0  0  0  0  0  0
   57.9969   24.1476   46.2776 H   0  0  0  0  0  0  0  0  0  0  0  0
   56.3896   25.7026   44.2039 H   0  0  0  0  0  0  0  0  0  0  0  0
   56.6275   23.8977   44.3806 H   0  0  0  0  0  0  0  0  0  0  0  0
   54.4234   24.2460   45.0379 H   0  0  0  0  0  0  0  0  0  0  0  0
   55.3107   24.1324   46.5671 H   0  0  0  0  0  0  0  0  0  0  0  0
   55.1380   26.3390   46.8600 H   0  0  0  0  0  0  0  0  0  0  0  0
   58.1216   29.9084   49.6171 H   0  0  0  0  0  0  0  0  0  0  0  0
   59.6777   30.8746   51.2440 H   0  0  0  0  0  0  0  0  0  0  0  0
   61.9896   31.5294   50.6028 H   0  0  0  0  0  0  0  0  0  0  0  0
   62.6928   31.1669   48.2283 H   0  0  0  0  0  0  0  0  0  0  0  0
   61.1336   30.1959   46.5996 H   0  0  0  0  0  0  0  0  0  0  0  0
  1  2  1  0
  2  3  2  0
  3  4  1  0
  4  5  1  0
  4  6  1  0
  6  7  1  0
  7  8  1  0
  8  9  2  0
  9 10  1  0
 10 11  1  0
 11 12  1  0
 12 13  1  0
  8 14  1  0
 14 15  2  0
 15 16  1  0
 16 17  2  0
 17 18  1  0
 18 19  2  0
 19 20  1  0
 20 21  2  0
 15 22  1  0
 22  2  1  0
 22  6  2  0
 21 16  1  0
  1 23  1  0
  1 24  1  0
  1 25  1  0
  5 26  1  0
  5 27  1  0
  5 28  1  0
  7 29  1  0
 10 30  1  0
 10 31  1  0
 11 32  1  0
 11 33  1  0
 12 34  1  0
 12 35  1  0
 13 36  1  0
 17 37  1  0
 18 38  1  0
 19 39  1  0
 20 40  1  0
 21 41  1  0
M  END
>  <smiles>  (32) 
Cc1nn(C)c2[nH]c(=NCCCO)nc(-c3ccccc3)c12

>  <score_type>  (32) 
oracle

>  <origin>  (32) 
adg

>  <m_score__min__energy>  (32) 
-7.4800000000000004

>  <m_primary>  (32) 
energy

$$$$
32:0
     RDKit          3D

 55 58  0  0  0  0  0  0  0  0999 V2000
   58.1470   26.8000   44.5210 C   0  0  0  0  0  0  0  0  0  0  0  0
   57.0930   26.8810   45.6130 C   0  0  0  0  0  0  0  0  0  0  0  0
   56.2130   27.9690   45.3430 O   0  0  0  0  0  0  0  0  0  0  0  0
   56.6150   29.2000   44.8040 C   0  0  0  0  0  0  0  0  0  0  0  0
   56.2720   29.5980   43.4840 C   0  0  0  0  0  0  0  0  0  0  0  0
   56.6910   30.8410   42.9800 C   0  0  0  0  0  0  0  0  0  0  0  0
   57.4490   31.6620   43.8100 C   0  0  0  0  0  0  0  0  0  0  0  0
   57.9290   32.8810   43.5200 N   0  0  0  0  0  0  0  0  0  0  0  0
   58.5820   33.3040   44.6260 C   0  0  0  0  0  0  0  0  0  0  0  0
   59.2820   34.6260   44.6810 C   0  0  0  0  0  0  0  0  0  0  0  0
   58.5410   32.3210   45.6310 C   0  0  0  0  0  0  0  0  0  0  0  0
   59.1000   32.3640   47.0410 C   0  0  2  0  0  0  0  0  0  0  0  0
   58.9520   33.7670   47.6680 C   0  0  0  0  0  0  0  0  0  0  0  0
   59.9740   34.0140   48.7960 C   0  0  0  0  0  0  0  0  0  0  0  0
   60.3170   32.7540   49.4970 N   0  0  2  0  0  0  0  0  0  0  0  0
   61.1390   33.0170   50.7040 C   0  0  0  0  0  0  0  0  0  0  0  0
   62.5970   32.6760   50.4890 C   0  0  0  0  0  0  0  0  0  0  0  0
   63.1560   31.5400   51.1010 C   0  0  0  0  0  0  0  0  0  0  0  0
   64.4990   31.2150   50.8920 C   0  0  0  0  0  0  0  0  0  0  0  0
   65.2960   32.0180   50.0720 C   0  0  0  0  0  0  0  0  0  0  0  0
   64.7500   33.1500   49.4600 C   0  0  0  0  0  0  0  0  0  0  0  0
   63.4070   33.4810   49.6650 C   0  0  0  0  0  0  0  0  0  0  0  0
   62.8980   34.5870   49.0650 F   0  0  0  0  0  0  0  0  0  0  0  0
   61.0390   31.8150   48.5940 C   0  0  0  0  0  0  0  0  0  0  0  0
   60.5500   31.8660   47.1270 C   0  0  0  0  0  0  0  0  0  0  0  0
   57.7910   31.2870   45.0830 C   0  0  0  0  0  0  0  0  0  0  0  0
   57.3840   30.0590   45.6130 C   0  0  0  0  0  0  0  0  0  0  0  0
   59.1442   26.7234   44.9789 H   0  0  0  0  0  0  0  0  0  0  0  0
   57.9610   25.9135   43.8969 H   0  0  0  0  0  0  0  0  0  0  0  0
   58.0986   27.7045   43.8969 H   0  0  0  0  0  0  0  0  0  0  0  0
   56.5192   25.9429   45.6393 H   0  0  0  0  0  0  0  0  0  0  0  0
   57.5831   27.0379   46.5852 H   0  0  0  0  0  0  0  0  0  0  0  0
   55.6730   28.9270   42.8508 H   0  0  0  0  0  0  0  0  0  0  0  0
   56.4277   31.1560   41.9595 H   0  0  0  0  0  0  0  0  0  0  0  0
   57.8130   33.4000   42.6200 H   0  0  0  0  0  0  0  0  0  0  0  0
   59.4356   34.9161   45.7309 H   0  0  0  0  0  0  0  0  0  0  0  0
   60.2561   34.5464   44.1763 H   0  0  0  0  0  0  0  0  0  0  0  0
   58.6686   35.3870   44.1763 H   0  0  0  0  0  0  0  0  0  0  0  0
   58.4935   31.6613   47.6312 H   0  0  0  0  0  0  0  0  0  0  0  0
   59.1017   34.5230   46.8831 H   0  0  0  0  0  0  0  0  0  0  0  0
   57.9449   33.8361   48.1050 H   0  0  0  0  0  0  0  0  0  0  0  0
   60.8892   34.4436   48.3626 H   0  0  0  0  0  0  0  0  0  0  0  0
   59.5266   34.7061   49.5246 H   0  0  0  0  0  0  0  0  0  0  0  0
   59.4280   32.2900   49.8020 H   0  0  0  0  0  0  0  0  0  0  0  0
   61.0590   34.0835   50.9613 H   0  0  0  0  0  0  0  0  0  0  0  0
   60.7596   32.3792   51.5160 H   0  0  0  0  0  0  0  0  0  0  0  0
   62.5332   30.9042   51.7473 H   0  0  0  0  0  0  0  0  0  0  0  0
   64.9297   30.3250   51.3741 H   0  0  0  0  0  0  0  0  0  0  0  0
   66.3526   31.7595   49.9081 H   0  0  0  0  0  0  0  0  0  0  0  0
   65.3785   33.7821   48.8154 H   0  0  0  0  0  0  0  0  0  0  0  0
   62.1092   32.0686   48.6127 H   0  0  0  0  0  0  0  0  0  0  0  0
   60.8431   30.7977   48.9638 H   0  0  0  0  0  0  0  0  0  0  0  0
   61.1978   32.5479   46.5565 H   0  0  0  0  0  0  0  0  0  0  0  0
   60.5939   30.8490   46.7101 H   0  0  0  0  0  0  0  0  0  0  0  0
   57.6581   29.7703   46.6384 H   0  0  0  0  0  0  0  0  0  0  0  0
  1  2  1  0
  2  3  1  0
  3  4  1  0
  4  5  2  0
  5  6  1  0
  6  7  2  0
  7  8  1  0
  8  9  1  0
  9 10  1  0
  9 11  2  0
 11 12  1  0
 12 13  1  0
 13 14  1  0
 14 15  1  0
 15 16  1  0
 16 17  1  0
 17 18  2  0
 18 19  1  0
 19 20  2  0
 20 21  1  0
 21 22  2  0
 22 23  1  0
 15 24  1  0
 24 25  1  0
 11 26  1  0
 26 27  2  0
 27  4  1  0
 26  7  1  0
 25 12  1  0
 22 17  1  0
  1 28  1  0
  1 29  1  0
  1 30  1  0
  2 31  1  0
  2 32  1  0
  5 33  1  0
  6 34  1  0
  8 35  1  0
 10 36  1  0
 10 37  1  0
 10 38  1  0
 12 39  1  1
 13 40  1  0
 13 41  1  0
 14 42  1  0
 14 43  1  0
 15 44  1  1
 16 45  1  0
 16 46  1  0
 18 47  1  0
 19 48  1  0
 20 49  1  0
 21 50  1  0
 24 51  1  0
 24 52  1  0
 25 53  1  0
 25 54  1  0
 27 55  1  0
M  CHG  1  15   1
M  END
>  <UniqueID>  (33) 
31

>  <SMILES>  (33) 
CCOc1ccc2[nH]c(C)c(C3CC[NH+](Cc4ccccc4F)CC3)c2c1

>  <Energy>  (33) 
95.32277562537794

>  <Genealogy>  (33) 
CCOc1ccc2[nH]c(C)c(C3CC[NH+](Cc4ccccc4F)CC3)c2c1 (protonated)
CCOc1ccc2[nH]c(C)c(C3CC[NH+](Cc4ccccc4F)CC3)c2c1 (3D coordinates assigned)
CCOc1ccc2[nH]c(C)c(C3CC[NH+](Cc4ccccc4F)CC3)c2c1 (nonaromatic ring conformer: 95.32277562537794 kcal/mol)

>  <smiles>  (33) 
CCOc1ccc2[nH]c(C)c(C3CCN(Cc4ccccc4F)CC3)c2c1

>  <score_type>  (33) 
oracle

>  <origin>  (33) 
adg

>  <m_score__min__energy>  (33) 
-6.6299999999999999

>  <m_primary>  (33) 
energy

$$$$
33:0
     RDKit          3D

 46 49  0  0  0  0  0  0  0  0999 V2000
   56.8020   20.7230   43.0930 C   0  0  0  0  0  0  0  0  0  0  0  0
   55.9450   21.6200   43.7930 O   0  0  0  0  0  0  0  0  0  0  0  0
   56.3280   22.8910   44.2430 C   0  0  0  0  0  0  0  0  0  0  0  0
   56.0590   23.3440   45.5490 C   0  0  0  0  0  0  0  0  0  0  0  0
   56.4620   24.6200   45.9500 C   0  0  0  0  0  0  0  0  0  0  0  0
   57.1440   25.4650   45.0600 C   0  0  0  0  0  0  0  0  0  0  0  0
   57.5600   26.8250   45.4880 C   0  0  0  0  0  0  0  0  0  0  0  0
   57.0120   27.9440   44.8500 C   0  0  0  0  0  0  0  0  0  0  0  0
   57.4140   29.2240   45.2210 C   0  0  0  0  0  0  0  0  0  0  0  0
   56.9120   30.3630   44.5870 C   0  0  0  0  0  0  0  0  0  0  0  0
   57.3420   31.5930   44.9660 N   0  0  0  0  0  0  0  0  0  0  0  0
   58.2590   31.7490   45.9600 C   0  0  0  0  0  0  0  0  0  0  0  0
   58.7030   33.0670   46.3450 N   0  0  0  0  0  0  0  0  0  0  0  0
   58.6470   34.1680   45.3730 C   0  0  0  0  0  0  0  0  0  0  0  0
   59.6320   35.2750   45.7570 C   0  0  0  0  0  0  0  0  0  0  0  0
   59.4590   35.6550   47.1070 O   0  0  0  0  0  0  0  0  0  0  0  0
   59.8130   34.5770   47.9480 C   0  0  0  0  0  0  0  0  0  0  0  0
   58.8450   33.4040   47.7680 C   0  0  0  0  0  0  0  0  0  0  0  0
   58.7540   30.6460   46.5880 N   0  0  0  0  0  0  0  0  0  0  0  0
   58.3580   29.3860   46.2520 C   0  0  0  0  0  0  0  0  0  0  0  0
   58.8680   28.2910   46.9040 N   0  0  0  0  0  0  0  0  0  0  0  0
   59.8690   28.4820   47.9710 C   0  0  0  0  0  0  0  0  0  0  0  0
   58.4980   27.0210   46.5240 C   0  0  0  0  0  0  0  0  0  0  0  0
   58.9850   26.0170   47.1150 O   0  0  0  0  0  0  0  0  0  0  0  0
   57.4050   25.0140   43.7560 C   0  0  0  0  0  0  0  0  0  0  0  0
   57.0030   23.7370   43.3540 C   0  0  0  0  0  0  0  0  0  0  0  0
   57.3747   20.1236   43.8160 H   0  0  0  0  0  0  0  0  0  0  0  0
   56.1972   20.0559   42.4612 H   0  0  0  0  0  0  0  0  0  0  0  0
   57.4960   21.2968   42.4612 H   0  0  0  0  0  0  0  0  0  0  0  0
   55.5289   22.6898   46.2569 H   0  0  0  0  0  0  0  0  0  0  0  0
   56.2433   24.9655   46.9712 H   0  0  0  0  0  0  0  0  0  0  0  0
   56.2633   27.8118   44.0550 H   0  0  0  0  0  0  0  0  0  0  0  0
   56.1693   30.2630   43.7818 H   0  0  0  0  0  0  0  0  0  0  0  0
   58.9060   33.7834   44.3755 H   0  0  0  0  0  0  0  0  0  0  0  0
   57.6291   34.5849   45.3670 H   0  0  0  0  0  0  0  0  0  0  0  0
   60.6594   34.9089   45.6143 H   0  0  0  0  0  0  0  0  0  0  0  0
   59.4450   36.1504   45.1177 H   0  0  0  0  0  0  0  0  0  0  0  0
   60.8317   34.2450   47.6988 H   0  0  0  0  0  0  0  0  0  0  0  0
   59.7648   34.9158   48.9934 H   0  0  0  0  0  0  0  0  0  0  0  0
   59.2322   32.5288   48.3103 H   0  0  0  0  0  0  0  0  0  0  0  0
   57.8603   33.6915   48.1652 H   0  0  0  0  0  0  0  0  0  0  0  0
   59.3811   28.3889   48.9525 H   0  0  0  0  0  0  0  0  0  0  0  0
   60.6544   27.7175   47.8780 H   0  0  0  0  0  0  0  0  0  0  0  0
   60.3178   29.4820   47.8780 H   0  0  0  0  0  0  0  0  0  0  0  0
   57.9295   25.6702   43.0459 H   0  0  0  0  0  0  0  0  0  0  0  0
   57.2185   23.3938   42.3314 H   0  0  0  0  0  0  0  0  0  0  0  0
  1  2  1  0
  2  3  1  0
  3  4  2  0
  4  5  1  0
  5  6  2  0
  6  7  1  0
  7  8  2  0
  8  9  1  0
  9 10  2  0
 10 11  1  0
 11 12  2  0
 12 13  1  0
 13 14  1  0
 14 15  1  0
 15 16  1  0
 16 17  1  0
 17 18  1  0
 12 19  1  0
 19 20  2  0
 20 21  1  0
 21 22  1  0
 21 23  1  0
 23 24  2  0
  6 25  1  0
 25 26  2  0
 26  3  1  0
 23  7  1  0
 20  9  1  0
 18 13  1  0
  1 27  1  0
  1 28  1  0
  1 29  1  0
  4 30  1  0
  5 31  1  0
  8 32  1  0
 10 33  1  0
 14 34  1  0
 14 35  1  0
 15 36  1  0
 15 37  1  0
 17 38  1  0
 17 39  1  0
 18 40  1  0
 18 41  1  0
 22 42  1  0
 22 43  1  0
 22 44  1  0
 25 45  1  0
 26 46  1  0
M  END
>  <UniqueID>  (34) 
32

>  <SMILES>  (34) 
COc1ccc(-c2cc3cnc(N4CCOCC4)nc3n(C)c2=O)cc1

>  <Energy>  (34) 
64.991048328689

>  <Genealogy>  (34) 
COc1ccc(-c2cc3cnc(N4CCOCC4)nc3n(C)c2=O)cc1 (3D coordinates assigned)
COc1ccc(-c2cc3cnc(N4CCOCC4)nc3n(C)c2=O)cc1 (nonaromatic ring conformer: 64.991048328689 kcal/mol)

>  <smiles>  (34) 
COc1ccc(-c2cc3cnc(N4CCOCC4)nc3n(C)c2=O)cc1

>  <score_type>  (34) 
oracle

>  <origin>  (34) 
adg

>  <m_score__min__energy>  (34) 
-7.7000000000000002

>  <m_primary>  (34) 
energy

$$$$
34:0
     RDKit          3D

 42 45  0  0  0  0  0  0  0  0999 V2000
   56.3520   29.9340   43.1770 C   0  0  0  0  0  0  0  0  0  0  0  0
   56.3010   30.4780   44.4920 O   0  0  0  0  0  0  0  0  0  0  0  0
   57.3920   30.5280   45.3750 C   0  0  0  0  0  0  0  0  0  0  0  0
   58.0930   31.7200   45.6300 C   0  0  0  0  0  0  0  0  0  0  0  0
   59.1730   31.7300   46.5130 C   0  0  0  0  0  0  0  0  0  0  0  0
   59.5860   30.5490   47.1520 C   0  0  0  0  0  0  0  0  0  0  0  0
   60.7380   30.5450   48.1450 C   0  0  2  0  0  0  0  0  0  0  0  0
   60.2570   30.2880   49.5290 N   0  0  0  0  0  0  0  0  0  0  0  0
   59.7640   31.4650   50.2240 C   0  0  0  0  0  0  0  0  0  0  0  0
   58.7890   31.3370   51.2270 C   0  0  0  0  0  0  0  0  0  0  0  0
   58.3900   32.4520   51.9710 C   0  0  0  0  0  0  0  0  0  0  0  0
   58.9730   33.6990   51.7350 C   0  0  0  0  0  0  0  0  0  0  0  0
   59.9580   33.8400   50.7520 C   0  0  0  0  0  0  0  0  0  0  0  0
   60.3620   32.7250   50.0010 C   0  0  0  0  0  0  0  0  0  0  0  0
   61.3200   32.8270   48.9420 N   0  0  0  0  0  0  0  0  0  0  0  0
   62.1070   33.8550   48.5700 C   0  0  0  0  0  0  0  0  0  0  0  0
   62.8250   33.4950   47.4430 C   0  0  0  0  0  0  0  0  0  0  0  0
   62.4500   32.2010   47.1210 C   0  0  0  0  0  0  0  0  0  0  0  0
   61.5290   31.8270   48.0770 C   0  0  0  0  0  0  0  0  0  0  0  0
   58.8760   29.3630   46.9070 C   0  0  0  0  0  0  0  0  0  0  0  0
   57.7830   29.3440   46.0170 C   0  0  0  0  0  0  0  0  0  0  0  0
   57.0620   28.1700   45.7470 O   0  0  0  0  0  0  0  0  0  0  0  0
   57.5920   27.0320   45.0760 C   0  0  0  0  0  0  0  0  0  0  0  0
   56.4545   28.8404   43.2363 H   0  0  0  0  0  0  0  0  0  0  0  0
   55.4262   30.1869   42.6394 H   0  0  0  0  0  0  0  0  0  0  0  0
   57.2147   30.3545   42.6394 H   0  0  0  0  0  0  0  0  0  0  0  0
   57.7877   32.6509   45.1298 H   0  0  0  0  0  0  0  0  0  0  0  0
   59.7063   32.6715   46.7108 H   0  0  0  0  0  0  0  0  0  0  0  0
   61.4113   29.7218   47.8637 H   0  0  0  0  0  0  0  0  0  0  0  0
   61.0540   29.9080   50.0920 H   0  0  0  0  0  0  0  0  0  0  0  0
   59.5160   29.5470   49.5050 H   0  0  0  0  0  0  0  0  0  0  0  0
   58.3369   30.3546   51.4284 H   0  0  0  0  0  0  0  0  0  0  0  0
   57.6148   32.3465   52.7443 H   0  0  0  0  0  0  0  0  0  0  0  0
   58.6567   34.5726   52.3238 H   0  0  0  0  0  0  0  0  0  0  0  0
   60.4154   34.8233   50.5677 H   0  0  0  0  0  0  0  0  0  0  0  0
   62.1691   34.8270   49.0812 H   0  0  0  0  0  0  0  0  0  0  0  0
   63.5548   34.1180   46.9052 H   0  0  0  0  0  0  0  0  0  0  0  0
   62.8122   31.5962   46.2766 H   0  0  0  0  0  0  0  0  0  0  0  0
   59.1767   28.4357   47.4166 H   0  0  0  0  0  0  0  0  0  0  0  0
   57.9349   26.2957   45.8178 H   0  0  0  0  0  0  0  0  0  0  0  0
   56.8111   26.5813   44.4458 H   0  0  0  0  0  0  0  0  0  0  0  0
   58.4395   27.3396   44.4458 H   0  0  0  0  0  0  0  0  0  0  0  0
  1  2  1  0
  2  3  1  0
  3  4  2  0
  4  5  1  0
  5  6  2  0
  6  7  1  0
  7  8  1  0
  8  9  1  0
  9 10  2  0
 10 11  1  0
 11 12  2  0
 12 13  1  0
 13 14  2  0
 14 15  1  0
 15 16  1  0
 16 17  2  0
 17 18  1  0
 18 19  2  0
  6 20  1  0
 20 21  2  0
 21 22  1  0
 22 23  1  0
 21  3  1  0
 19  7  1  0
 14  9  1  0
 19 15  1  0
  1 24  1  0
  1 25  1  0
  1 26  1  0
  4 27  1  0
  5 28  1  0
  7 29  1  6
  8 30  1  0
  8 31  1  0
 10 32  1  0
 11 33  1  0
 12 34  1  0
 13 35  1  0
 16 36  1  0
 17 37  1  0
 18 38  1  0
 20 39  1  0
 23 40  1  0
 23 41  1  0
 23 42  1  0
M  CHG  1   8   1
M  END
>  <UniqueID>  (35) 
33

>  <SMILES>  (35) 
COc1ccc([C@@H]2[NH2+]c3ccccc3-n3cccc32)cc1OC

>  <Energy>  (35) 
81.46022917135082

>  <Genealogy>  (35) 
COc1ccc(C2[NH2+]c3ccccc3-n3cccc32)cc1OC (protonated)
COc1ccc([C@@H]2[NH2+]c3ccccc3-n3cccc32)cc1OC (chirality)
COc1ccc([C@@H]2[NH2+]c3ccccc3-n3cccc32)cc1OC (3D coordinates assigned)
COc1ccc([C@@H]2[NH2+]c3ccccc3-n3cccc32)cc1OC (nonaromatic ring conformer: 81.46022917135082 kcal/mol)

>  <smiles>  (35) 
COc1ccc(C2Nc3ccccc3-n3cccc32)cc1OC

>  <score_type>  (35) 
oracle

>  <origin>  (35) 
adg

>  <m_score__min__energy>  (35) 
-5.7300000000000004

>  <m_primary>  (35) 
energy

$$$$
35:0
     RDKit          3D

 39 41  0  0  0  0  0  0  0  0999 V2000
   56.6530   30.2050   43.8760 C   0  0  0  0  0  0  0  0  0  0  0  0
   56.9510   29.9260   45.2400 O   0  0  0  0  0  0  0  0  0  0  0  0
   57.5860   28.7580   45.6970 C   0  0  0  0  0  0  0  0  0  0  0  0
   56.9780   27.4920   45.5720 C   0  0  0  0  0  0  0  0  0  0  0  0
   57.6360   26.3430   46.0140 C   0  0  0  0  0  0  0  0  0  0  0  0
   58.9030   26.4400   46.5890 C   0  0  0  0  0  0  0  0  0  0  0  0
   59.5170   27.6860   46.7230 C   0  0  0  0  0  0  0  0  0  0  0  0
   58.8710   28.8550   46.2810 C   0  0  0  0  0  0  0  0  0  0  0  0
   59.5350   30.1710   46.4510 C   0  0  0  0  0  0  0  0  0  0  0  0
   60.8050   30.2230   46.9350 N   0  0  0  0  0  0  0  0  0  0  0  0
   61.4540   31.4020   47.0960 C   0  0  0  0  0  0  0  0  0  0  0  0
   62.7640   31.4170   47.5910 C   0  0  0  0  0  0  0  0  0  0  0  0
   63.4410   32.6310   47.7410 C   0  0  0  0  0  0  0  0  0  0  0  0
   62.8150   33.8310   47.3950 C   0  0  0  0  0  0  0  0  0  0  0  0
   61.5060   33.8270   46.9020 C   0  0  0  0  0  0  0  0  0  0  0  0
   60.8120   32.6110   46.7570 C   0  0  0  0  0  0  0  0  0  0  0  0
   59.4920   32.5430   46.2690 C   0  0  0  0  0  0  0  0  0  0  0  0
   58.7680   33.7370   45.9310 N   0  0  0  0  0  0  0  0  0  0  0  0
   59.2620   34.5840   44.8480 C   0  0  0  0  0  0  0  0  0  0  0  0
   57.3580   33.8350   46.3040 C   0  0  0  0  0  0  0  0  0  0  0  0
   58.8910   31.3290   46.1230 N   0  0  0  0  0  0  0  0  0  0  0  0
   55.8510   30.9559   43.8221 H   0  0  0  0  0  0  0  0  0  0  0  0
   57.5527   30.5930   43.3760 H   0  0  0  0  0  0  0  0  0  0  0  0
   56.3251   29.2817   43.3760 H   0  0  0  0  0  0  0  0  0  0  0  0
   55.9774   27.4091   45.1227 H   0  0  0  0  0  0  0  0  0  0  0  0
   57.1546   25.3596   45.9087 H   0  0  0  0  0  0  0  0  0  0  0  0
   59.4190   25.5331   46.9373 H   0  0  0  0  0  0  0  0  0  0  0  0
   60.5158   27.7548   47.1787 H   0  0  0  0  0  0  0  0  0  0  0  0
   63.2604   30.4735   47.8618 H   0  0  0  0  0  0  0  0  0  0  0  0
   64.4690   32.6413   48.1324 H   0  0  0  0  0  0  0  0  0  0  0  0
   63.3537   34.7830   47.5107 H   0  0  0  0  0  0  0  0  0  0  0  0
   61.0189   34.7743   46.6276 H   0  0  0  0  0  0  0  0  0  0  0  0
   59.7733   35.4607   45.2723 H   0  0  0  0  0  0  0  0  0  0  0  0
   59.9682   34.0120   44.2282 H   0  0  0  0  0  0  0  0  0  0  0  0
   58.4165   34.9170   44.2282 H   0  0  0  0  0  0  0  0  0  0  0  0
   57.2683   33.8412   47.4003 H   0  0  0  0  0  0  0  0  0  0  0  0
   56.9346   34.7647   45.8962 H   0  0  0  0  0  0  0  0  0  0  0  0
   56.8101   32.9728   45.8962 H   0  0  0  0  0  0  0  0  0  0  0  0
   57.9020   31.2960   45.7880 H   0  0  0  0  0  0  0  0  0  0  0  0
  1  2  1  0
  2  3  1  0
  3  4  2  0
  4  5  1  0
  5  6  2  0
  6  7  1  0
  7  8  2  0
  8  9  1  0
  9 10  2  0
 10 11  1  0
 11 12  2  0
 12 13  1  0
 13 14  2  0
 14 15  1  0
 15 16  2  0
 16 17  1  0
 17 18  1  0
 18 19  1  0
 18 20  1  0
 17 21  2  0
  8  3  1  0
 21  9  1  0
 16 11  1  0
  1 22  1  0
  1 23  1  0
  1 24  1  0
  4 25  1  0
  5 26  1  0
  6 27  1  0
  7 28  1  0
 12 29  1  0
 13 30  1  0
 14 31  1  0
 15 32  1  0
 19 33  1  0
 19 34  1  0
 19 35  1  0
 20 36  1  0
 20 37  1  0
 20 38  1  0
 21 39  1  0
M  CHG  1  21   1
M  END
>  <UniqueID>  (36) 
34

>  <SMILES>  (36) 
COc1ccccc1-c1nc2ccccc2c(N(C)C)[nH+]1

>  <Energy>  (36) 
52.77811990645877

>  <Genealogy>  (36) 
COc1ccccc1-c1nc2ccccc2c(N(C)C)[nH+]1 (protonated)
COc1ccccc1-c1nc2ccccc2c(N(C)C)[nH+]1 (3D coordinates assigned)
COc1ccccc1-c1nc2ccccc2c(N(C)C)[nH+]1 (optimized conformer: 52.77811990645877 kcal/mol)

>  <smiles>  (36) 
COc1ccccc1-c1nc(N(C)C)c2ccccc2n1

>  <score_type>  (36) 
oracle

>  <origin>  (36) 
adg

>  <m_score__min__energy>  (36) 
-5.2800000000000002

>  <m_primary>  (36) 
energy

$$$$
36:0
     RDKit          3D

 41 43  0  0  0  0  0  0  0  0999 V2000
   57.0126   28.4729   42.1385 H   0  0  0  0  0  0  0  0  0  0  0  0
   57.0230   29.1680   42.9910 C   0  0  0  0  0  0  0  0  0  0  0  0
   56.7890   30.8310   42.9110 S   0  0  0  0  0  0  0  0  0  0  0  0
   56.9790   31.0430   44.5730 C   0  0  0  0  0  0  0  0  0  0  0  0
   56.8670   32.1630   45.2240 N   0  0  0  0  0  0  0  0  0  0  0  0
   57.9320   33.0720   45.5500 C   0  0  0  0  0  0  0  0  0  0  0  0
   58.1360   34.2490   44.8080 C   0  0  0  0  0  0  0  0  0  0  0  0
   57.4527   34.5012   43.9837 H   0  0  0  0  0  0  0  0  0  0  0  0
   59.2020   35.1000   45.1120 C   0  0  0  0  0  0  0  0  0  0  0  0
   59.3465   36.0267   44.5372 H   0  0  0  0  0  0  0  0  0  0  0  0
   60.0840   34.7750   46.1450 C   0  0  0  0  0  0  0  0  0  0  0  0
   60.9168   35.4506   46.3898 H   0  0  0  0  0  0  0  0  0  0  0  0
   59.9090   33.5930   46.8670 C   0  0  0  0  0  0  0  0  0  0  0  0
   60.6088   33.3364   47.6760 H   0  0  0  0  0  0  0  0  0  0  0  0
   58.8450   32.7320   46.5650 C   0  0  0  0  0  0  0  0  0  0  0  0
   58.6500   31.2160   47.5130 S   0  0  0  0  0  0  0  0  0  0  0  0
   59.9570   30.3350   46.6020 C   0  0  0  0  0  0  0  0  0  0  0  0
   60.6506   29.8675   47.3164 H   0  0  0  0  0  0  0  0  0  0  0  0
   59.5031   29.5578   45.9696 H   0  0  0  0  0  0  0  0  0  0  0  0
   60.5071   31.0473   45.9696 H   0  0  0  0  0  0  0  0  0  0  0  0
   57.2010   29.8710   45.2010 N   0  0  0  0  0  0  0  0  0  0  0  0
   57.2330   28.8220   44.3290 C   0  0  0  0  0  0  0  0  0  0  0  0
   57.4540   27.4670   44.7780 N   0  0  0  0  0  0  0  0  0  0  0  0
   56.9330   27.0470   46.0910 C   0  0  0  0  0  0  0  0  0  0  0  0
   56.6200   27.9411   46.6502 H   0  0  0  0  0  0  0  0  0  0  0  0
   56.0864   26.3669   45.9161 H   0  0  0  0  0  0  0  0  0  0  0  0
   57.9860   26.2870   46.9200 C   0  0  0  0  0  0  0  0  0  0  0  0
   58.8448   26.9559   47.0785 H   0  0  0  0  0  0  0  0  0  0  0  0
   57.4888   25.9903   47.8553 H   0  0  0  0  0  0  0  0  0  0  0  0
   58.5020   24.9910   46.2740 C   0  0  0  0  0  0  0  0  0  0  0  0
   59.4554   25.2122   45.7720 H   0  0  0  0  0  0  0  0  0  0  0  0
   58.6064   24.2549   47.0847 H   0  0  0  0  0  0  0  0  0  0  0  0
   57.5440   24.3740   45.2390 C   0  0  0  0  0  0  0  0  0  0  0  0
   57.8674   23.3391   45.0535 H   0  0  0  0  0  0  0  0  0  0  0  0
   56.5376   24.4545   45.6756 H   0  0  0  0  0  0  0  0  0  0  0  0
   57.4730   25.1000   43.8790 C   0  0  0  0  0  0  0  0  0  0  0  0
   57.9920   24.4816   43.1318 H   0  0  0  0  0  0  0  0  0  0  0  0
   56.4054   25.2401   43.6543 H   0  0  0  0  0  0  0  0  0  0  0  0
   58.1110   26.5030   43.8700 C   0  0  0  0  0  0  0  0  0  0  0  0
   59.1644   26.4061   44.1716 H   0  0  0  0  0  0  0  0  0  0  0  0
   57.9977   26.8981   42.8497 H   0  0  0  0  0  0  0  0  0  0  0  0
  1  2  1  0
  2  3  1  0
  3  4  1  0
  4  5  2  0
  5  6  1  0
  6  7  2  0
  7  8  1  0
  7  9  1  0
  9 10  1  0
  9 11  2  0
 11 12  1  0
 11 13  1  0
 13 14  1  0
 13 15  2  0
 15 16  1  0
 16 17  1  0
 17 18  1  0
 17 19  1  0
 17 20  1  0
  4 21  1  0
 21 22  1  0
 22 23  1  0
 23 24  1  0
 24 25  1  0
 24 26  1  0
 24 27  1  0
 27 28  1  0
 27 29  1  0
 27 30  1  0
 30 31  1  0
 30 32  1  0
 30 33  1  0
 33 34  1  0
 33 35  1  0
 33 36  1  0
 36 37  1  0
 36 38  1  0
 36 39  1  0
 39 40  1  0
 39 41  1  0
 22  2  2  0
 39 23  1  0
 15  6  1  0
M  CHG  1  21  -1
M  END
>  <UniqueID>  (37) 
35

>  <SMILES>  (37) 
CSc1ccccc1/N=c1/[n-]c(N2CCCCCC2)cs1

>  <Energy>  (37) 
80.71219061154432

>  <Genealogy>  (37) 
CSc1ccccc1N=c1[n-]c(N2CCCCCC2)cs1 (protonated)
CSc1ccccc1/N=c1/[n-]c(N2CCCCCC2)cs1 (cis-trans isomerization)
CSc1ccccc1/N=c1/[n-]c(N2CCCCCC2)cs1 (3D coordinates assigned)
CSc1ccccc1/N=c1/[n-]c(N2CCCCCC2)cs1 (nonaromatic ring conformer: 80.71219061154432 kcal/mol)

>  <smiles>  (37) 
CSc1ccccc1N=c1[nH]c(N2CCCCCC2)cs1

>  <score_type>  (37) 
oracle

>  <origin>  (37) 
adg

>  <m_score__min__energy>  (37) 
-7.3399999999999999

>  <m_primary>  (37) 
energy

$$$$
37:0
     RDKit          3D

 45 46  0  0  0  0  0  0  0  0999 V2000
   57.2410   29.3140   45.2550 C   0  0  0  0  0  0  0  0  0  0  0  0
   56.3610   30.3440   44.8630 O   0  0  0  0  0  0  0  0  0  0  0  0
   56.9650   31.1050   43.8340 C   0  0  0  0  0  0  0  0  0  0  0  0
   58.1440   31.8920   44.4010 C   0  0  0  0  0  0  0  0  0  0  0  0
   57.7270   33.2880   44.6860 N   0  0  0  0  0  0  0  0  0  0  0  0
   57.0310   33.4360   45.9800 C   0  0  0  0  0  0  0  0  0  0  0  0
   57.9690   33.2170   47.1850 C   0  0  0  0  0  0  0  0  0  0  0  0
   59.4490   33.5660   46.8800 C   0  0  0  0  0  0  0  0  0  0  0  0
   60.2310   33.9310   48.1300 C   0  0  0  0  0  0  0  0  0  0  0  0
   59.9220   34.9710   48.7830 O   0  0  0  0  0  0  0  0  0  0  0  0
   61.4290   33.1690   48.5550 C   0  0  0  0  0  0  0  0  0  0  0  0
   62.5730   33.1420   47.7210 C   0  0  0  0  0  0  0  0  0  0  0  0
   62.5870   33.8530   46.3900 C   0  0  0  0  0  0  0  0  0  0  0  0
   63.7110   32.4330   48.1320 C   0  0  0  0  0  0  0  0  0  0  0  0
   63.7260   31.7640   49.3550 C   0  0  0  0  0  0  0  0  0  0  0  0
   62.6000   31.7730   50.1790 C   0  0  0  0  0  0  0  0  0  0  0  0
   62.6450   31.0990   51.3590 F   0  0  0  0  0  0  0  0  0  0  0  0
   61.4330   32.4560   49.7810 C   0  0  0  0  0  0  0  0  0  0  0  0
   60.2130   32.4200   50.6700 C   0  0  0  0  0  0  0  0  0  0  0  0
   59.5190   34.6860   45.8250 C   0  0  0  0  0  0  0  0  0  0  0  0
   58.8140   34.2860   44.5080 C   0  0  0  0  0  0  0  0  0  0  0  0
   57.2825   29.2654   46.3531 H   0  0  0  0  0  0  0  0  0  0  0  0
   56.8806   28.3532   44.8588 H   0  0  0  0  0  0  0  0  0  0  0  0
   58.2463   29.5200   44.8588 H   0  0  0  0  0  0  0  0  0  0  0  0
   57.3225   30.4305   43.0420 H   0  0  0  0  0  0  0  0  0  0  0  0
   56.2262   31.8052   43.4169 H   0  0  0  0  0  0  0  0  0  0  0  0
   58.4868   31.4162   45.3316 H   0  0  0  0  0  0  0  0  0  0  0  0
   58.9620   31.9005   43.6656 H   0  0  0  0  0  0  0  0  0  0  0  0
   56.6107   34.4508   46.0402 H   0  0  0  0  0  0  0  0  0  0  0  0
   56.2443   32.6685   46.0256 H   0  0  0  0  0  0  0  0  0  0  0  0
   57.6246   33.8507   48.0156 H   0  0  0  0  0  0  0  0  0  0  0  0
   57.9314   32.1471   47.4377 H   0  0  0  0  0  0  0  0  0  0  0  0
   59.9281   32.6633   46.4731 H   0  0  0  0  0  0  0  0  0  0  0  0
   62.6084   34.9403   46.5553 H   0  0  0  0  0  0  0  0  0  0  0  0
   63.4794   33.5508   45.8222 H   0  0  0  0  0  0  0  0  0  0  0  0
   61.6834   33.5862   45.8222 H   0  0  0  0  0  0  0  0  0  0  0  0
   64.5993   32.4045   47.4839 H   0  0  0  0  0  0  0  0  0  0  0  0
   64.6312   31.2256   49.6724 H   0  0  0  0  0  0  0  0  0  0  0  0
   60.5271   32.4293   51.7242 H   0  0  0  0  0  0  0  0  0  0  0  0
   59.5851   33.3000   50.4667 H   0  0  0  0  0  0  0  0  0  0  0  0
   59.6381   31.5045   50.4667 H   0  0  0  0  0  0  0  0  0  0  0  0
   59.0322   35.5857   46.2294 H   0  0  0  0  0  0  0  0  0  0  0  0
   60.5790   34.8745   45.5994 H   0  0  0  0  0  0  0  0  0  0  0  0
   58.3822   35.1918   44.0573 H   0  0  0  0  0  0  0  0  0  0  0  0
   59.5758   33.8177   43.8674 H   0  0  0  0  0  0  0  0  0  0  0  0
  1  2  1  0
  2  3  1  0
  3  4  1  0
  4  5  1  0
  5  6  1  0
  6  7  1  0
  7  8  1  0
  8  9  1  0
  9 10  2  0
  9 11  1  0
 11 12  2  0
 12 13  1  0
 12 14  1  0
 14 15  2  0
 15 16  1  0
 16 17  1  0
 16 18  2  0
 18 19  1  0
  8 20  1  0
 20 21  1  0
 21  5  1  0
 18 11  1  0
  1 22  1  0
  1 23  1  0
  1 24  1  0
  3 25  1  0
  3 26  1  0
  4 27  1  0
  4 28  1  0
  6 29  1  0
  6 30  1  0
  7 31  1  0
  7 32  1  0
  8 33  1  0
 13 34  1  0
 13 35  1  0
 13 36  1  0
 14 37  1  0
 15 38  1  0
 19 39  1  0
 19 40  1  0
 19 41  1  0
 20 42  1  0
 20 43  1  0
 21 44  1  0
 21 45  1  0
M  END
>  <UniqueID>  (38) 
36

>  <SMILES>  (38) 
COCCN1CCC(C(=O)c2c(C)ccc(F)c2C)CC1

>  <Energy>  (38) 
62.41680349487535

>  <Genealogy>  (38) 
COCCN1CCC(C(=O)c2c(C)ccc(F)c2C)CC1 (3D coordinates assigned)
COCCN1CCC(C(=O)c2c(C)ccc(F)c2C)CC1 (nonaromatic ring conformer: 62.41680349487535 kcal/mol)

>  <smiles>  (38) 
COCCN1CCC(C(=O)c2c(C)ccc(F)c2C)CC1

>  <score_type>  (38) 
oracle

>  <origin>  (38) 
adg

>  <m_score__min__energy>  (38) 
-7.4000000000000004

>  <m_primary>  (38) 
energy

$$$$
38:0
     RDKit          3D

 34 36  0  0  0  0  0  0  0  0999 V2000
   55.6510   24.6920   45.4010 C   0  0  0  0  0  0  0  0  0  0  0  0
   55.3570   26.0210   45.8150 O   0  0  0  0  0  0  0  0  0  0  0  0
   56.3450   26.9960   45.9850 C   0  0  0  0  0  0  0  0  0  0  0  0
   57.4280   26.7360   46.8260 C   0  0  0  0  0  0  0  0  0  0  0  0
   58.4150   27.7080   46.9950 C   0  0  0  0  0  0  0  0  0  0  0  0
   58.3240   28.9360   46.3190 C   0  0  0  0  0  0  0  0  0  0  0  0
   59.3700   29.9710   46.4970 C   0  0  0  0  0  0  0  0  0  0  0  0
   60.6980   29.7770   46.8890 C   0  0  0  0  0  0  0  0  0  0  0  0
   61.3360   30.9680   46.9220 N   0  0  0  0  0  0  0  0  0  0  0  0
   60.4750   31.9060   46.5630 N   0  0  0  0  0  0  0  0  0  0  0  0
   60.6930   33.2430   46.4330 C   0  0  0  0  0  0  0  0  0  0  0  0
   62.0360   33.8460   46.7280 C   0  0  0  0  0  0  0  0  0  0  0  0
   59.6180   34.0380   45.9970 C   0  0  0  0  0  0  0  0  0  0  0  0
   58.3780   33.4220   45.7190 C   0  0  0  0  0  0  0  0  0  0  0  0
   57.2250   34.2410   45.2350 C   0  0  0  0  0  0  0  0  0  0  0  0
   58.2350   32.0730   45.8680 N   0  0  0  0  0  0  0  0  0  0  0  0
   59.2890   31.3400   46.3020 C   0  0  0  0  0  0  0  0  0  0  0  0
   57.2120   29.1550   45.4870 C   0  0  0  0  0  0  0  0  0  0  0  0
   56.2630   28.1930   45.3420 N   0  0  0  0  0  0  0  0  0  0  0  0
   55.7920   24.0548   46.2865 H   0  0  0  0  0  0  0  0  0  0  0  0
   54.8172   24.3028   44.7982 H   0  0  0  0  0  0  0  0  0  0  0  0
   56.5711   24.6908   44.7982 H   0  0  0  0  0  0  0  0  0  0  0  0
   57.5030   25.7725   47.3515 H   0  0  0  0  0  0  0  0  0  0  0  0
   59.2683   27.5116   47.6608 H   0  0  0  0  0  0  0  0  0  0  0  0
   61.1530   28.8056   47.1328 H   0  0  0  0  0  0  0  0  0  0  0  0
   62.3360   31.1240   47.1780 H   0  0  0  0  0  0  0  0  0  0  0  0
   62.1781   33.9098   47.8169 H   0  0  0  0  0  0  0  0  0  0  0  0
   62.8248   33.2156   46.2916 H   0  0  0  0  0  0  0  0  0  0  0  0
   62.0890   34.8543   46.2916 H   0  0  0  0  0  0  0  0  0  0  0  0
   59.7413   35.1242   45.8743 H   0  0  0  0  0  0  0  0  0  0  0  0
   56.6684   34.6364   46.0975 H   0  0  0  0  0  0  0  0  0  0  0  0
   57.5992   35.0769   44.6257 H   0  0  0  0  0  0  0  0  0  0  0  0
   56.5589   33.6124   44.6257 H   0  0  0  0  0  0  0  0  0  0  0  0
   57.1096   30.1099   44.9506 H   0  0  0  0  0  0  0  0  0  0  0  0
  1  2  1  0
  2  3  1  0
  3  4  2  0
  4  5  1  0
  5  6  2  0
  6  7  1  0
  7  8  1  0
  8  9  2  0
  9 10  1  0
 10 11  1  0
 11 12  1  0
 11 13  2  0
 13 14  1  0
 14 15  1  0
 14 16  2  0
 16 17  1  0
  6 18  1  0
 18 19  2  0
 19  3  1  0
 17  7  2  0
 17 10  1  0
  1 20  1  0
  1 21  1  0
  1 22  1  0
  4 23  1  0
  5 24  1  0
  8 25  1  0
  9 26  1  0
 12 27  1  0
 12 28  1  0
 12 29  1  0
 13 30  1  0
 15 31  1  0
 15 32  1  0
 15 33  1  0
 18 34  1  0
M  CHG  1   9   1
M  END
>  <UniqueID>  (39) 
37

>  <SMILES>  (39) 
COc1ccc(-c2c[nH+]n3c(C)cc(C)nc23)cn1

>  <Energy>  (39) 
74.31329218590598

>  <Genealogy>  (39) 
COc1ccc(-c2c[nH+]n3c(C)cc(C)nc23)cn1 (protonated)
COc1ccc(-c2c[nH+]n3c(C)cc(C)nc23)cn1 (3D coordinates assigned)
COc1ccc(-c2c[nH+]n3c(C)cc(C)nc23)cn1 (optimized conformer: 74.31329218590598 kcal/mol)

>  <smiles>  (39) 
COc1ccc(-c2cnn3c(C)cc(C)nc23)cn1

>  <score_type>  (39) 
oracle

>  <origin>  (39) 
adg

>  <m_score__min__energy>  (39) 
-5.1500000000000004

>  <m_primary>  (39) 
energy

$$$$
39:0
     RDKit          3D

 48 50  0  0  0  0  0  0  0  0999 V2000
   57.6290   28.6130   44.2860 C   0  0  0  0  0  0  0  0  0  0  0  0
   56.2700   28.9750   44.8640 C   0  0  0  0  0  0  0  0  0  0  0  0
   55.9370   30.3490   44.5130 N   0  0  0  0  0  0  0  0  0  0  0  0
   56.9210   31.3120   44.1200 C   0  0  0  0  0  0  0  0  0  0  0  0
   57.1800   31.4750   42.8960 O   0  0  0  0  0  0  0  0  0  0  0  0
   57.6340   32.1110   45.1440 C   0  0  0  0  0  0  0  0  0  0  0  0
   57.6850   33.5080   45.0450 C   0  0  0  0  0  0  0  0  0  0  0  0
   58.3600   34.2610   46.0040 C   0  0  0  0  0  0  0  0  0  0  0  0
   59.0080   33.6420   47.0880 C   0  0  0  0  0  0  0  0  0  0  0  0
   59.7400   34.4590   48.0340 N   0  0  0  0  0  0  0  0  0  0  0  0
   61.1540   34.1650   47.9890 C   0  0  0  0  0  0  0  0  0  0  0  0
   61.9160   34.1290   49.1730 C   0  0  0  0  0  0  0  0  0  0  0  0
   63.2750   33.8040   49.1300 C   0  0  0  0  0  0  0  0  0  0  0  0
   63.8820   33.4900   47.9130 C   0  0  0  0  0  0  0  0  0  0  0  0
   63.1340   33.5040   46.7350 C   0  0  0  0  0  0  0  0  0  0  0  0
   61.7760   33.8390   46.7700 C   0  0  0  0  0  0  0  0  0  0  0  0
   58.9660   32.2280   47.1990 C   0  0  0  0  0  0  0  0  0  0  0  0
   59.6240   31.5540   48.2910 N   0  0  0  0  0  0  0  0  0  0  0  0
   58.9060   30.8920   49.3830 C   0  0  0  0  0  0  0  0  0  0  0  0
   58.6520   31.8570   50.5030 C   0  0  0  0  0  0  0  0  0  0  0  0
   57.5690   31.6740   51.3740 C   0  0  0  0  0  0  0  0  0  0  0  0
   57.3270   32.6190   52.3740 C   0  0  0  0  0  0  0  0  0  0  0  0
   58.1560   33.7350   52.4900 C   0  0  0  0  0  0  0  0  0  0  0  0
   59.2220   33.8880   51.6030 C   0  0  0  0  0  0  0  0  0  0  0  0
   59.4440   32.9570   50.6360 N   0  0  0  0  0  0  0  0  0  0  0  0
   58.2720   31.4830   46.2260 C   0  0  0  0  0  0  0  0  0  0  0  0
   58.3377   28.4242   45.1059 H   0  0  0  0  0  0  0  0  0  0  0  0
   57.5351   27.7086   43.6670 H   0  0  0  0  0  0  0  0  0  0  0  0
   57.9974   29.4443   43.6670 H   0  0  0  0  0  0  0  0  0  0  0  0
   55.5063   28.2976   44.4542 H   0  0  0  0  0  0  0  0  0  0  0  0
   56.3021   28.8765   45.9591 H   0  0  0  0  0  0  0  0  0  0  0  0
   57.1885   34.0141   44.2039 H   0  0  0  0  0  0  0  0  0  0  0  0
   58.3864   35.3568   45.9117 H   0  0  0  0  0  0  0  0  0  0  0  0
   59.3450   34.3180   48.9910 H   0  0  0  0  0  0  0  0  0  0  0  0
   59.6160   35.4760   47.8190 H   0  0  0  0  0  0  0  0  0  0  0  0
   61.4389   34.3580   50.1373 H   0  0  0  0  0  0  0  0  0  0  0  0
   63.8671   33.7957   50.0570 H   0  0  0  0  0  0  0  0  0  0  0  0
   64.9507   33.2313   47.8824 H   0  0  0  0  0  0  0  0  0  0  0  0
   63.6128   33.2513   45.7774 H   0  0  0  0  0  0  0  0  0  0  0  0
   61.1910   33.8475   45.8385 H   0  0  0  0  0  0  0  0  0  0  0  0
   60.6630   31.4660   48.2900 H   0  0  0  0  0  0  0  0  0  0  0  0
   57.9446   30.5123   49.0068 H   0  0  0  0  0  0  0  0  0  0  0  0
   59.5193   30.0606   49.7607 H   0  0  0  0  0  0  0  0  0  0  0  0
   56.9160   30.7948   51.2711 H   0  0  0  0  0  0  0  0  0  0  0  0
   56.4847   32.4834   53.0684 H   0  0  0  0  0  0  0  0  0  0  0  0
   57.9712   34.4861   53.2722 H   0  0  0  0  0  0  0  0  0  0  0  0
   59.8840   34.7626   51.6856 H   0  0  0  0  0  0  0  0  0  0  0  0
   58.2288   30.3875   46.3153 H   0  0  0  0  0  0  0  0  0  0  0  0
  1  2  1  0
  2  3  1  0
  3  4  1  0
  4  5  2  0
  4  6  1  0
  6  7  2  0
  7  8  1  0
  8  9  2  0
  9 10  1  0
 10 11  1  0
 11 12  2  0
 12 13  1  0
 13 14  2  0
 14 15  1  0
 15 16  2  0
  9 17  1  0
 17 18  1  0
 18 19  1  0
 19 20  1  0
 20 21  2  0
 21 22  1  0
 22 23  2  0
 23 24  1  0
 24 25  2  0
 17 26  2  0
 26  6  1  0
 16 11  1  0
 25 20  1  0
  1 27  1  0
  1 28  1  0
  1 29  1  0
  2 30  1  0
  2 31  1  0
  7 32  1  0
  8 33  1  0
 10 34  1  0
 10 35  1  0
 12 36  1  0
 13 37  1  0
 14 38  1  0
 15 39  1  0
 16 40  1  0
 18 41  1  0
 19 42  1  0
 19 43  1  0
 21 44  1  0
 22 45  1  0
 23 46  1  0
 24 47  1  0
 26 48  1  0
M  CHG  2   3  -1  10   1
M  END
>  <UniqueID>  (40) 
38

>  <SMILES>  (40) 
CC[N-]C(=O)c1ccc([NH2+]c2ccccc2)c(NCc2ccccn2)c1

>  <Energy>  (40) 
47.61003866077719

>  <Genealogy>  (40) 
CC[N-]C(=O)c1ccc([NH2+]c2ccccc2)c(NCc2ccccn2)c1 (protonated)
CC[N-]C(=O)c1ccc([NH2+]c2ccccc2)c(NCc2ccccn2)c1 (3D coordinates assigned)
CC[N-]C(=O)c1ccc([NH2+]c2ccccc2)c(NCc2ccccn2)c1 (optimized conformer: 47.61003866077719 kcal/mol)

>  <smiles>  (40) 
CCNC(=O)c1ccc(Nc2ccccc2)c(NCc2ccccn2)c1

>  <score_type>  (40) 
oracle

>  <origin>  (40) 
adg

>  <m_score__min__energy>  (40) 
-8.8200000000000003

>  <m_primary>  (40) 
energy

$$$$
40:0
     RDKit          3D

 68 71  0  0  0  0  0  0  0  0999 V2000
   67.9570   33.5310   50.4840 C   0  0  0  0  0  0  0  0  0  0  0  0
   66.6990   32.6730   50.4050 C   0  0  0  0  0  0  0  0  0  0  0  0
   65.6270   33.4010   49.8050 O   0  0  0  0  0  0  0  0  0  0  0  0
   64.4820   32.8370   49.2190 C   0  0  0  0  0  0  0  0  0  0  0  0
   64.1110   33.2750   47.9440 C   0  0  0  0  0  0  0  0  0  0  0  0
   62.9880   32.7440   47.3050 C   0  0  0  0  0  0  0  0  0  0  0  0
   62.2080   31.7590   47.9360 C   0  0  0  0  0  0  0  0  0  0  0  0
   61.0090   31.1980   47.2600 C   0  0  0  0  0  0  0  0  0  0  0  0
   59.9800   32.0410   46.8030 C   0  0  0  0  0  0  0  0  0  0  0  0
   58.8930   31.5230   46.1740 N   0  0  0  0  0  0  0  0  0  0  0  0
   58.7520   30.1860   45.9670 C   0  0  0  0  0  0  0  0  0  0  0  0
   57.6220   29.6760   45.3100 C   0  0  0  0  0  0  0  0  0  0  0  0
   56.6070   30.5950   44.8660 N   0  0  0  0  0  0  0  0  0  0  0  0
   55.5180   30.3150   43.9840 C   0  0  0  0  0  0  0  0  0  0  0  0
   54.7800   29.3200   44.2110 O   0  0  0  0  0  0  0  0  0  0  0  0
   57.5200   28.2860   45.1140 C   0  0  0  0  0  0  0  0  0  0  0  0
   58.5320   27.4280   45.5910 C   0  0  0  0  0  0  0  0  0  0  0  0
   58.4580   25.9530   45.4120 C   0  0  0  0  0  0  0  0  0  0  0  0
   57.4140   25.3900   44.6560 C   0  0  0  0  0  0  0  0  0  0  0  0
   57.3280   24.0070   44.4750 C   0  0  0  0  0  0  0  0  0  0  0  0
   58.2820   23.1500   45.0430 C   0  0  0  0  0  0  0  0  0  0  0  0
   58.1550   21.7270   44.8480 N   0  0  0  0  0  0  0  0  0  0  0  0
   56.8850   21.0000   44.8400 C   0  0  0  0  0  0  0  0  0  0  0  0
   56.1570   21.1680   46.1790 C   0  0  0  0  0  0  0  0  0  0  0  0
   57.1340   21.3270   47.2820 N   0  0  0  0  0  0  0  0  0  0  0  0
   56.6090   22.2070   48.3530 C   0  0  0  0  0  0  0  0  0  0  0  0
   56.2470   23.6010   47.8350 C   0  0  0  0  0  0  0  0  0  0  0  0
   57.6800   20.0280   47.7580 C   0  0  0  0  0  0  0  0  0  0  0  0
   56.7330   19.2250   48.6660 C   0  0  0  0  0  0  0  0  0  0  0  0
   59.3410   23.7090   45.7820 C   0  0  0  0  0  0  0  0  0  0  0  0
   59.4300   25.0930   45.9600 C   0  0  0  0  0  0  0  0  0  0  0  0
   59.6160   27.9670   46.2170 N   0  0  0  0  0  0  0  0  0  0  0  0
   59.7510   29.3030   46.4120 C   0  0  0  0  0  0  0  0  0  0  0  0
   60.8790   29.8130   47.0580 C   0  0  0  0  0  0  0  0  0  0  0  0
   62.5780   31.3210   49.2190 C   0  0  0  0  0  0  0  0  0  0  0  0
   63.7050   31.8510   49.8560 C   0  0  0  0  0  0  0  0  0  0  0  0
   68.2151   33.7070   51.5387 H   0  0  0  0  0  0  0  0  0  0  0  0
   68.7878   33.0105   49.9851 H   0  0  0  0  0  0  0  0  0  0  0  0
   67.7756   34.4945   49.9851 H   0  0  0  0  0  0  0  0  0  0  0  0
   66.9099   31.7781   49.8012 H   0  0  0  0  0  0  0  0  0  0  0  0
   66.4032   32.3852   51.4247 H   0  0  0  0  0  0  0  0  0  0  0  0
   64.7103   34.0465   47.4384 H   0  0  0  0  0  0  0  0  0  0  0  0
   62.7120   33.0990   46.3011 H   0  0  0  0  0  0  0  0  0  0  0  0
   60.0560   33.1277   46.9560 H   0  0  0  0  0  0  0  0  0  0  0  0
   55.3262   30.9621   43.1154 H   0  0  0  0  0  0  0  0  0  0  0  0
   56.6491   27.8683   44.5877 H   0  0  0  0  0  0  0  0  0  0  0  0
   56.6565   26.0459   44.2020 H   0  0  0  0  0  0  0  0  0  0  0  0
   56.5035   23.5861   43.8808 H   0  0  0  0  0  0  0  0  0  0  0  0
   59.0250   21.1670   44.6970 H   0  0  0  0  0  0  0  0  0  0  0  0
   56.2497   21.3915   44.0318 H   0  0  0  0  0  0  0  0  0  0  0  0
   57.0899   19.9312   44.6800 H   0  0  0  0  0  0  0  0  0  0  0  0
   55.5143   22.0595   46.1328 H   0  0  0  0  0  0  0  0  0  0  0  0
   55.5476   20.2721   46.3686 H   0  0  0  0  0  0  0  0  0  0  0  0
   55.7078   21.7438   48.7812 H   0  0  0  0  0  0  0  0  0  0  0  0
   57.3990   22.3241   49.1094 H   0  0  0  0  0  0  0  0  0  0  0  0
   56.0721   24.2747   48.6868 H   0  0  0  0  0  0  0  0  0  0  0  0
   57.0737   23.9908   47.2230 H   0  0  0  0  0  0  0  0  0  0  0  0
   55.3351   23.5393   47.2230 H   0  0  0  0  0  0  0  0  0  0  0  0
   57.9142   19.4118   46.8774 H   0  0  0  0  0  0  0  0  0  0  0  0
   58.5641   20.2678   48.3670 H   0  0  0  0  0  0  0  0  0  0  0  0
   56.9742   19.4295   49.7196 H   0  0  0  0  0  0  0  0  0  0  0  0
   55.6929   19.5206   48.4639 H   0  0  0  0  0  0  0  0  0  0  0  0
   56.8547   18.1506   48.4639 H   0  0  0  0  0  0  0  0  0  0  0  0
   60.1049   23.0519   46.2232 H   0  0  0  0  0  0  0  0  0  0  0  0
   60.2681   25.5149   46.5342 H   0  0  0  0  0  0  0  0  0  0  0  0
   61.6667   29.1302   47.4092 H   0  0  0  0  0  0  0  0  0  0  0  0
   61.9755   30.5538   49.7274 H   0  0  0  0  0  0  0  0  0  0  0  0
   63.9852   31.4959   50.8587 H   0  0  0  0  0  0  0  0  0  0  0  0
  1  2  1  0
  2  3  1  0
  3  4  1  0
  4  5  2  0
  5  6  1  0
  6  7  2  0
  7  8  1  0
  8  9  2  0
  9 10  1  0
 10 11  2  0
 11 12  1  0
 12 13  1  0
 13 14  1  0
 14 15  2  0
 12 16  2  0
 16 17  1  0
 17 18  1  0
 18 19  2  0
 19 20  1  0
 20 21  2  0
 21 22  1  0
 22 23  1  0
 23 24  1  0
 24 25  1  0
 25 26  1  0
 26 27  1  0
 25 28  1  0
 28 29  1  0
 21 30  1  0
 30 31  2  0
 17 32  2  0
 32 33  1  0
 33 34  2  0
  7 35  1  0
 35 36  2  0
 36  4  1  0
 34  8  1  0
 33 11  1  0
 31 18  1  0
  1 37  1  0
  1 38  1  0
  1 39  1  0
  2 40  1  0
  2 41  1  0
  5 42  1  0
  6 43  1  0
  9 44  1  0
 14 45  1  0
 16 46  1  0
 19 47  1  0
 20 48  1  0
 22 49  1  0
 23 50  1  0
 23 51  1  0
 24 52  1  0
 24 53  1  0
 26 54  1  0
 26 55  1  0
 27 56  1  0
 27 57  1  0
 27 58  1  0
 28 59  1  0
 28 60  1  0
 29 61  1  0
 29 62  1  0
 29 63  1  0
 30 64  1  0
 31 65  1  0
 34 66  1  0
 35 67  1  0
 36 68  1  0
M  CHG  1  13  -1
M  END
>  <UniqueID>  (41) 
39

>  <SMILES>  (41) 
CCOc1ccc(-c2cnc3c([N-]C=O)cc(-c4ccc(NCCN(CC)CC)cc4)nc3c2)cc1

>  <Energy>  (41) 
85.35800971184796

>  <Genealogy>  (41) 
CCOc1ccc(-c2cnc3c([N-]C=O)cc(-c4ccc(NCCN(CC)CC)cc4)nc3c2)cc1 (protonated)
CCOc1ccc(-c2cnc3c([N-]C=O)cc(-c4ccc(NCCN(CC)CC)cc4)nc3c2)cc1 (3D coordinates assigned)
CCOc1ccc(-c2cnc3c([N-]C=O)cc(-c4ccc(NCCN(CC)CC)cc4)nc3c2)cc1 (optimized conformer: 85.35800971184796 kcal/mol)

>  <smiles>  (41) 
CCOc1ccc(-c2cnc3c(NC=O)cc(-c4ccc(NCCN(CC)CC)cc4)nc3c2)cc1

>  <score_type>  (41) 
oracle

>  <origin>  (41) 
adg

>  <m_score__min__energy>  (41) 
-9.7400000000000002

>  <m_primary>  (41) 
energy

$$$$
41:0
     RDKit          3D

 23 24  0  0  0  0  0  0  0  0999 V2000
   58.9260   34.3170   47.2290 C   0  0  0  0  0  0  0  0  0  0  0  0
   58.1790   33.7970   46.4370 C   0  0  0  0  0  0  0  0  0  0  0  0
   57.2740   33.1660   45.4760 C   0  0  0  0  0  0  0  0  0  0  0  0
   58.1280   32.9810   43.8790 S   0  0  0  0  0  0  0  0  0  0  0  0
   57.7270   31.2330   43.7360 C   0  0  0  0  0  0  0  0  0  0  0  0
   56.8290   30.8590   42.7890 N   0  0  0  0  0  0  0  0  0  0  0  0
   56.4740   29.5600   42.6190 C   0  0  0  0  0  0  0  0  0  0  0  0
   57.0180   28.5930   43.4030 N   0  0  0  0  0  0  0  0  0  0  0  0
   57.9230   28.9080   44.3720 C   0  0  0  0  0  0  0  0  0  0  0  0
   58.4770   27.9000   45.1780 C   0  0  0  0  0  0  0  0  0  0  0  0
   59.4040   28.2240   46.1700 C   0  0  0  0  0  0  0  0  0  0  0  0
   59.7860   29.5530   46.3680 C   0  0  0  0  0  0  0  0  0  0  0  0
   59.2420   30.5670   45.5740 C   0  0  0  0  0  0  0  0  0  0  0  0
   58.3060   30.2550   44.5690 C   0  0  0  0  0  0  0  0  0  0  0  0
   59.6071   34.7911   47.9511 H   0  0  0  0  0  0  0  0  0  0  0  0
   56.9738   32.1758   45.8492 H   0  0  0  0  0  0  0  0  0  0  0  0
   56.3793   33.7925   45.3455 H   0  0  0  0  0  0  0  0  0  0  0  0
   55.7428   29.2891   41.8432 H   0  0  0  0  0  0  0  0  0  0  0  0
   56.7270   27.6010   43.2500 H   0  0  0  0  0  0  0  0  0  0  0  0
   58.1794   26.8518   45.0270 H   0  0  0  0  0  0  0  0  0  0  0  0
   59.8351   27.4303   46.7978 H   0  0  0  0  0  0  0  0  0  0  0  0
   60.5171   29.8025   47.1511 H   0  0  0  0  0  0  0  0  0  0  0  0
   59.5460   31.6119   45.7348 H   0  0  0  0  0  0  0  0  0  0  0  0
  1  2  3  0
  2  3  1  0
  3  4  1  0
  4  5  1  0
  5  6  2  0
  6  7  1  0
  7  8  2  0
  8  9  1  0
  9 10  2  0
 10 11  1  0
 11 12  2  0
 12 13  1  0
 13 14  2  0
 14  5  1  0
 14  9  1  0
  1 15  1  0
  3 16  1  0
  3 17  1  0
  7 18  1  0
  8 19  1  0
 10 20  1  0
 11 21  1  0
 12 22  1  0
 13 23  1  0
M  CHG  1   8   1
M  END
>  <UniqueID>  (42) 
40

>  <SMILES>  (42) 
C#CCSc1nc[nH+]c2ccccc12

>  <Energy>  (42) 
21.76446242421835

>  <Genealogy>  (42) 
C#CCSc1nc[nH+]c2ccccc12 (protonated)
C#CCSc1nc[nH+]c2ccccc12 (3D coordinates assigned)
C#CCSc1nc[nH+]c2ccccc12 (optimized conformer: 21.76446242421835 kcal/mol)

>  <smiles>  (42) 
C#CCSc1ncnc2ccccc12

>  <score_type>  (42) 
oracle

>  <origin>  (42) 
adg

>  <m_score__min__energy>  (42) 
-4.3399999999999999

>  <m_primary>  (42) 
energy

$$$$
42:0
     RDKit          3D

 48 51  0  0  0  0  0  0  0  0999 V2000
   57.7730   26.2900   42.9840 C   0  0  0  0  0  0  0  0  0  0  0  0
   57.7030   26.8940   44.2720 O   0  0  0  0  0  0  0  0  0  0  0  0
   57.9410   28.2530   44.5220 C   0  0  0  0  0  0  0  0  0  0  0  0
   59.1950   28.7370   44.9440 C   0  0  0  0  0  0  0  0  0  0  0  0
   59.3790   30.1020   45.1830 C   0  0  0  0  0  0  0  0  0  0  0  0
   58.3160   31.0000   45.0160 C   0  0  0  0  0  0  0  0  0  0  0  0
   58.5210   32.4410   45.2570 C   0  0  0  0  0  0  0  0  0  0  0  0
   58.4180   33.3840   44.2290 C   0  0  0  0  0  0  0  0  0  0  0  0
   58.6850   34.9300   44.8550 S   0  0  0  0  0  0  0  0  0  0  0  0
   58.9450   34.4020   46.4250 C   0  0  0  0  0  0  0  0  0  0  0  0
   59.2650   35.1660   47.4940 N   0  0  0  0  0  0  0  0  0  0  0  0
   59.4950   34.5630   48.6930 C   0  0  0  0  0  0  0  0  0  0  0  0
   59.4080   33.1980   48.8230 N   0  0  0  0  0  0  0  0  0  0  0  0
   59.7370   32.5910   50.1250 C   0  0  0  0  0  0  0  0  0  0  0  0
   61.2560   32.4620   50.2980 C   0  0  0  0  0  0  0  0  0  0  0  0
   61.9480   32.6610   49.0080 N   0  0  0  0  0  0  0  0  0  0  0  0
   62.6530   31.4410   48.5720 C   0  0  0  0  0  0  0  0  0  0  0  0
   63.2720   31.6680   47.1760 C   0  0  0  0  0  0  0  0  0  0  0  0
   63.2590   33.0330   46.7920 O   0  0  0  0  0  0  0  0  0  0  0  0
   63.7990   33.8300   47.8270 C   0  0  0  0  0  0  0  0  0  0  0  0
   62.8970   33.7890   49.0790 C   0  0  0  0  0  0  0  0  0  0  0  0
   59.0890   32.4160   47.7360 C   0  0  0  0  0  0  0  0  0  0  0  0
   59.0470   31.1600   47.8420 O   0  0  0  0  0  0  0  0  0  0  0  0
   58.8340   33.0310   46.5020 C   0  0  0  0  0  0  0  0  0  0  0  0
   57.0730   30.5220   44.5770 C   0  0  0  0  0  0  0  0  0  0  0  0
   56.8870   29.1580   44.3370 C   0  0  0  0  0  0  0  0  0  0  0  0
   57.8990   25.2029   43.0952 H   0  0  0  0  0  0  0  0  0  0  0  0
   56.8449   26.4969   42.4311 H   0  0  0  0  0  0  0  0  0  0  0  0
   58.6292   26.7037   42.4311 H   0  0  0  0  0  0  0  0  0  0  0  0
   60.0325   28.0381   45.0860 H   0  0  0  0  0  0  0  0  0  0  0  0
   60.3635   30.4733   45.5039 H   0  0  0  0  0  0  0  0  0  0  0  0
   58.1973   33.1544   43.1761 H   0  0  0  0  0  0  0  0  0  0  0  0
   59.3490   36.2030   47.4000 H   0  0  0  0  0  0  0  0  0  0  0  0
   59.7537   35.1765   49.5686 H   0  0  0  0  0  0  0  0  0  0  0  0
   59.3349   33.2239   50.9298 H   0  0  0  0  0  0  0  0  0  0  0  0
   59.2907   31.5865   50.1684 H   0  0  0  0  0  0  0  0  0  0  0  0
   61.6034   33.2207   51.0147 H   0  0  0  0  0  0  0  0  0  0  0  0
   61.4848   31.4523   50.6696 H   0  0  0  0  0  0  0  0  0  0  0  0
   63.4505   31.2029   49.2912 H   0  0  0  0  0  0  0  0  0  0  0  0
   61.9388   30.6059   48.5222 H   0  0  0  0  0  0  0  0  0  0  0  0
   64.3139   31.3155   47.1905 H   0  0  0  0  0  0  0  0  0  0  0  0
   62.6664   31.1097   46.4469 H   0  0  0  0  0  0  0  0  0  0  0  0
   64.7978   33.4514   48.0897 H   0  0  0  0  0  0  0  0  0  0  0  0
   63.8639   34.8697   47.4736 H   0  0  0  0  0  0  0  0  0  0  0  0
   63.5272   33.6737   49.9732 H   0  0  0  0  0  0  0  0  0  0  0  0
   62.3246   34.7269   49.1305 H   0  0  0  0  0  0  0  0  0  0  0  0
   56.2406   31.2239   44.4208 H   0  0  0  0  0  0  0  0  0  0  0  0
   55.9059   28.7918   44.0003 H   0  0  0  0  0  0  0  0  0  0  0  0
  1  2  1  0
  2  3  1  0
  3  4  2  0
  4  5  1  0
  5  6  2  0
  6  7  1  0
  7  8  2  0
  8  9  1  0
  9 10  1  0
 10 11  1  0
 11 12  2  0
 12 13  1  0
 13 14  1  0
 14 15  1  0
 15 16  1  0
 16 17  1  0
 17 18  1  0
 18 19  1  0
 19 20  1  0
 20 21  1  0
 13 22  1  0
 22 23  2  0
 22 24  1  0
  6 25  1  0
 25 26  2  0
 26  3  1  0
 24  7  1  0
 24 10  2  0
 21 16  1  0
  1 27  1  0
  1 28  1  0
  1 29  1  0
  4 30  1  0
  5 31  1  0
  8 32  1  0
 11 33  1  0
 12 34  1  0
 14 35  1  0
 14 36  1  0
 15 37  1  0
 15 38  1  0
 17 39  1  0
 17 40  1  0
 18 41  1  0
 18 42  1  0
 20 43  1  0
 20 44  1  0
 21 45  1  0
 21 46  1  0
 25 47  1  0
 26 48  1  0
M  CHG  1  11   1
M  END
>  <UniqueID>  (43) 
41

>  <SMILES>  (43) 
COc1ccc(-c2csc3[nH+]cn(CCN4CCOCC4)c(=O)c23)cc1

>  <Energy>  (43) 
98.80164671627456

>  <Genealogy>  (43) 
COc1ccc(-c2csc3[nH+]cn(CCN4CCOCC4)c(=O)c23)cc1 (protonated)
COc1ccc(-c2csc3[nH+]cn(CCN4CCOCC4)c(=O)c23)cc1 (3D coordinates assigned)
COc1ccc(-c2csc3[nH+]cn(CCN4CCOCC4)c(=O)c23)cc1 (nonaromatic ring conformer: 98.80164671627456 kcal/mol)

>  <smiles>  (43) 
COc1ccc(-c2csc3ncn(CCN4CCOCC4)c(=O)c23)cc1

>  <score_type>  (43) 
oracle

>  <origin>  (43) 
adg

>  <m_score__min__energy>  (43) 
-6.5300000000000002

>  <m_primary>  (43) 
energy

$$$$
43:0
     RDKit          3D

 43 46  0  0  0  0  0  0  0  0999 V2000
   57.3410   31.5440   42.2470 C   0  0  0  0  0  0  0  0  0  0  0  0
   56.5420   30.4330   42.9210 C   0  0  0  0  0  0  0  0  0  0  0  0
   56.3990   30.6880   44.3180 O   0  0  0  0  0  0  0  0  0  0  0  0
   57.4010   31.1850   45.1710 C   0  0  0  0  0  0  0  0  0  0  0  0
   57.6040   32.5610   45.3750 C   0  0  0  0  0  0  0  0  0  0  0  0
   58.6100   33.0140   46.2380 C   0  0  0  0  0  0  0  0  0  0  0  0
   59.4620   32.0950   46.8760 C   0  0  0  0  0  0  0  0  0  0  0  0
   59.2350   30.7160   46.6970 C   0  0  0  0  0  0  0  0  0  0  0  0
   58.2110   30.2600   45.8440 C   0  0  0  0  0  0  0  0  0  0  0  0
   57.9660   28.8920   45.6390 O   0  0  0  0  0  0  0  0  0  0  0  0
   58.5270   28.1180   44.5830 C   0  0  0  0  0  0  0  0  0  0  0  0
   60.5440   32.6260   47.7600 C   0  0  0  0  0  0  0  0  0  0  0  0
   61.6670   31.8430   48.0920 C   0  0  0  0  0  0  0  0  0  0  0  0
   62.6660   32.3680   48.9160 C   0  0  0  0  0  0  0  0  0  0  0  0
   63.7890   31.6010   49.2670 C   0  0  0  0  0  0  0  0  0  0  0  0
   64.7750   32.1400   50.0970 C   0  0  0  0  0  0  0  0  0  0  0  0
   64.6500   33.4460   50.5800 C   0  0  0  0  0  0  0  0  0  0  0  0
   63.5380   34.2190   50.2340 C   0  0  0  0  0  0  0  0  0  0  0  0
   62.5430   33.6860   49.4000 C   0  0  0  0  0  0  0  0  0  0  0  0
   61.4290   34.4460   49.0310 C   0  0  0  0  0  0  0  0  0  0  0  0
   60.4690   33.9270   48.2060 N   0  0  0  0  0  0  0  0  0  0  0  0
   59.3010   34.7600   47.8700 C   0  0  0  0  0  0  0  0  0  0  0  0
   58.8270   34.4890   46.4390 C   0  0  0  0  0  0  0  0  0  0  0  0
   57.8006   32.1831   43.0154 H   0  0  0  0  0  0  0  0  0  0  0  0
   58.1284   31.1007   41.6198 H   0  0  0  0  0  0  0  0  0  0  0  0
   56.6701   32.1494   41.6198 H   0  0  0  0  0  0  0  0  0  0  0  0
   55.5445   30.3759   42.4608 H   0  0  0  0  0  0  0  0  0  0  0  0
   57.0793   29.4822   42.7891 H   0  0  0  0  0  0  0  0  0  0  0  0
   56.9666   33.2890   44.8518 H   0  0  0  0  0  0  0  0  0  0  0  0
   59.8643   29.9875   47.2292 H   0  0  0  0  0  0  0  0  0  0  0  0
   59.1226   27.2962   45.0072 H   0  0  0  0  0  0  0  0  0  0  0  0
   57.7186   27.7029   43.9632 H   0  0  0  0  0  0  0  0  0  0  0  0
   59.1730   28.7571   43.9632 H   0  0  0  0  0  0  0  0  0  0  0  0
   61.7575   30.8182   47.7026 H   0  0  0  0  0  0  0  0  0  0  0  0
   63.8924   30.5737   48.8876 H   0  0  0  0  0  0  0  0  0  0  0  0
   65.6520   31.5353   50.3712 H   0  0  0  0  0  0  0  0  0  0  0  0
   65.4285   33.8662   51.2338 H   0  0  0  0  0  0  0  0  0  0  0  0
   63.4427   35.2462   50.6158 H   0  0  0  0  0  0  0  0  0  0  0  0
   61.3232   35.4737   49.4086 H   0  0  0  0  0  0  0  0  0  0  0  0
   58.4831   34.5315   48.5692 H   0  0  0  0  0  0  0  0  0  0  0  0
   59.5909   35.8182   47.9487 H   0  0  0  0  0  0  0  0  0  0  0  0
   57.8822   35.0235   46.2611 H   0  0  0  0  0  0  0  0  0  0  0  0
   59.5937   34.8401   45.7327 H   0  0  0  0  0  0  0  0  0  0  0  0
  1  2  1  0
  2  3  1  0
  3  4  1  0
  4  5  2  0
  5  6  1  0
  6  7  2  0
  7  8  1  0
  8  9  2  0
  9 10  1  0
 10 11  1  0
  7 12  1  0
 12 13  2  0
 13 14  1  0
 14 15  2  0
 15 16  1  0
 16 17  2  0
 17 18  1  0
 18 19  2  0
 19 20  1  0
 20 21  2  0
 21 22  1  0
 22 23  1  0
  9  4  1  0
 21 12  1  0
 23  6  1  0
 19 14  1  0
  1 24  1  0
  1 25  1  0
  1 26  1  0
  2 27  1  0
  2 28  1  0
  5 29  1  0
  8 30  1  0
 11 31  1  0
 11 32  1  0
 11 33  1  0
 13 34  1  0
 15 35  1  0
 16 36  1  0
 17 37  1  0
 18 38  1  0
 20 39  1  0
 22 40  1  0
 22 41  1  0
 23 42  1  0
 23 43  1  0
M  CHG  1  21   1
M  END
>  <UniqueID>  (44) 
42

>  <SMILES>  (44) 
CCOc1cc2c(cc1OC)-c1cc3ccccc3c[n+]1CC2

>  <Energy>  (44) 
54.2161919543542

>  <Genealogy>  (44) 
CCOc1cc2c(cc1OC)-c1cc3ccccc3c[n+]1CC2 (3D coordinates assigned)
CCOc1cc2c(cc1OC)-c1cc3ccccc3c[n+]1CC2 (nonaromatic ring conformer: 54.2161919543542 kcal/mol)

>  <smiles>  (44) 
CCOc1cc2c(cc1OC)-c1cc3ccccc3c[n+]1CC2

>  <score_type>  (44) 
oracle

>  <origin>  (44) 
adg

>  <m_score__min__energy>  (44) 
-5.9400000000000004

>  <m_primary>  (44) 
energy

$$$$
44:0
     RDKit          3D

 58 58  0  0  0  0  0  0  0  0999 V2000
   59.5461   34.0916   49.7266 H   0  0  0  0  0  0  0  0  0  0  0  0
   59.7320   34.4220   48.6940 C   0  0  0  0  0  0  0  0  0  0  0  0
   60.4486   35.2329   48.4965 H   0  0  0  0  0  0  0  0  0  0  0  0
   59.0870   33.8380   47.6790 C   0  0  0  0  0  0  0  0  0  0  0  0
   59.3310   34.2770   46.2800 C   0  0  0  0  0  0  0  0  0  0  0  0
   59.1870   33.3890   45.2760 C   0  0  0  0  0  0  0  0  0  0  0  0
   59.9995   32.6685   45.1003 H   0  0  0  0  0  0  0  0  0  0  0  0
   63.6320   33.6800   49.2860 C   0  0  0  0  0  0  0  0  0  0  0  0
   57.8759   32.5679   42.4508 H   0  0  0  0  0  0  0  0  0  0  0  0
   57.6430   30.5300   45.1380 C   0  0  0  0  0  0  0  0  0  0  0  0
   57.0341   30.9255   45.9643 H   0  0  0  0  0  0  0  0  0  0  0  0
   63.4060   33.9280   47.9780 C   0  0  0  0  0  0  0  0  0  0  0  0
   57.3780   30.9570   43.8900 C   0  0  0  0  0  0  0  0  0  0  0  0
   63.9137   34.7929   47.5262 H   0  0  0  0  0  0  0  0  0  0  0  0
   58.7120   29.5550   45.4580 C   0  0  0  0  0  0  0  0  0  0  0  0
   58.8335   28.6878   44.7922 H   0  0  0  0  0  0  0  0  0  0  0  0
   59.5450   29.6620   46.5120 C   0  0  0  0  0  0  0  0  0  0  0  0
   60.7880   30.4540   46.3640 C   0  0  0  0  0  0  0  0  0  0  0  0
   61.0999   30.7757   45.3594 H   0  0  0  0  0  0  0  0  0  0  0  0
   61.5460   30.7910   47.4220 C   0  0  0  0  0  0  0  0  0  0  0  0
   62.8050   31.6000   47.2060 C   0  0  0  0  0  0  0  0  0  0  0  0
   63.4839   31.4360   48.0559 H   0  0  0  0  0  0  0  0  0  0  0  0
   63.2657   31.2706   46.2630 H   0  0  0  0  0  0  0  0  0  0  0  0
   62.5050   33.1010   47.0920 C   0  0  0  0  0  0  0  0  0  0  0  0
   62.6503   33.4137   46.0474 H   0  0  0  0  0  0  0  0  0  0  0  0
   61.4668   33.2651   47.4163 H   0  0  0  0  0  0  0  0  0  0  0  0
   57.9960   33.3280   44.3950 C   0  0  0  0  0  0  0  0  0  0  0  0
   57.2585   34.1414   44.4625 H   0  0  0  0  0  0  0  0  0  0  0  0
   57.7670   32.3380   43.5210 C   0  0  0  0  0  0  0  0  0  0  0  0
   64.8520   32.8810   49.6650 C   0  0  0  0  0  0  0  0  0  0  0  0
   64.9306   32.8295   50.7610 H   0  0  0  0  0  0  0  0  0  0  0  0
   64.7659   31.8638   49.2554 H   0  0  0  0  0  0  0  0  0  0  0  0
   65.7501   33.3665   49.2554 H   0  0  0  0  0  0  0  0  0  0  0  0
   62.6920   34.1600   50.3670 C   0  0  0  0  0  0  0  0  0  0  0  0
   63.1247   33.9390   51.3539 H   0  0  0  0  0  0  0  0  0  0  0  0
   62.5419   35.2451   50.2671 H   0  0  0  0  0  0  0  0  0  0  0  0
   61.7250   33.6453   50.2671 H   0  0  0  0  0  0  0  0  0  0  0  0
   61.1120   30.4330   48.7990 C   0  0  0  0  0  0  0  0  0  0  0  0
   61.8620   30.6790   49.7830 O   0  0  0  0  0  0  0  0  0  0  0  0
   59.7540   29.8400   49.0510 C   0  0  0  0  0  0  0  0  0  0  0  0
   59.0374   30.6489   49.2563 H   0  0  0  0  0  0  0  0  0  0  0  0
   59.8149   29.1616   49.9148 H   0  0  0  0  0  0  0  0  0  0  0  0
   59.2920   29.0610   47.8490 C   0  0  0  0  0  0  0  0  0  0  0  0
   58.8200   27.8150   47.9930 C   0  0  0  0  0  0  0  0  0  0  0  0
   58.4834   27.2491   47.1118 H   0  0  0  0  0  0  0  0  0  0  0  0
   58.7692   27.3582   48.9924 H   0  0  0  0  0  0  0  0  0  0  0  0
   56.5910   30.1140   42.9140 C   0  0  0  0  0  0  0  0  0  0  0  0
   55.9428   29.4197   43.4688 H   0  0  0  0  0  0  0  0  0  0  0  0
   55.9721   30.7672   42.2813 H   0  0  0  0  0  0  0  0  0  0  0  0
   57.2851   29.5414   42.2813 H   0  0  0  0  0  0  0  0  0  0  0  0
   59.7480   35.7040   46.0150 C   0  0  0  0  0  0  0  0  0  0  0  0
   59.9003   36.2252   46.9717 H   0  0  0  0  0  0  0  0  0  0  0  0
   60.6858   35.7112   45.4402 H   0  0  0  0  0  0  0  0  0  0  0  0
   58.9616   36.2151   45.4402 H   0  0  0  0  0  0  0  0  0  0  0  0
   58.1810   32.6700   47.9590 C   0  0  0  0  0  0  0  0  0  0  0  0
   58.0785   32.5378   49.0462 H   0  0  0  0  0  0  0  0  0  0  0  0
   57.1914   32.8596   47.5178 H   0  0  0  0  0  0  0  0  0  0  0  0
   58.6107   31.7586   47.5178 H   0  0  0  0  0  0  0  0  0  0  0  0
  1  2  1  0
  2  3  1  0
  2  4  2  0
  4  5  1  0
  5  6  2  0
  6  7  1  0
  6  8  1  0
  8  9  1  0
  8 10  2  3
 10 11  1  0
 10 12  1  0
 12 13  2  3
 13 14  1  0
 13 15  1  0
 15 16  1  0
 15 17  2  3
 17 18  1  0
 18 19  1  0
 18 20  2  0
 20 21  1  0
 21 22  1  0
 21 23  1  0
 21 24  1  0
 24 25  1  0
 24 26  1  0
 24 27  1  0
 27 28  1  0
 27 29  2  3
 29 30  1  0
 30 31  1  0
 30 32  1  0
 30 33  1  0
 29 34  1  0
 34 35  1  0
 34 36  1  0
 34 37  1  0
 20 38  1  0
 38 39  2  0
 38 40  1  0
 40 41  1  0
 40 42  1  0
 40 43  1  0
 43 44  2  0
 44 45  1  0
 44 46  1  0
 12 47  1  0
 47 48  1  0
 47 49  1  0
 47 50  1  0
  5 51  1  0
 51 52  1  0
 51 53  1  0
 51 54  1  0
  4 55  1  0
 55 56  1  0
 55 57  1  0
 55 58  1  0
 43 17  1  0
M  END
>  <UniqueID>  (45) 
43

>  <SMILES>  (45) 
C=C1CC(=O)C(CCC=C(C)C)=CC1=CC=C(C)C=C/C=C(\C)C(=C)C

>  <Energy>  (45) 
62.986951333881294

>  <Genealogy>  (45) 
C=C1CC(=O)C(CCC=C(C)C)=CC1=CC=C(C)C=C/C=C(\C)C(=C)C (cis-trans isomerization)
C=C1CC(=O)C(CCC=C(C)C)=CC1=CC=C(C)C=C/C=C(\C)C(=C)C (3D coordinates assigned)
C=C1CC(=O)C(CCC=C(C)C)=CC1=CC=C(C)C=C/C=C(\C)C(=C)C (nonaromatic ring conformer: 62.986951333881294 kcal/mol)

>  <smiles>  (45) 
C=C(C)C(C)=CC=CC(C)=CC=C1C=C(CCC=C(C)C)C(=O)CC1=C

>  <score_type>  (45) 
oracle

>  <origin>  (45) 
adg

>  <m_score__min__energy>  (45) 
-9.0399999999999991

>  <m_primary>  (45) 
energy

$$$$
45:0
     RDKit          3D

 58 62  0  0  0  0  0  0  0  0999 V2000
   53.1580   23.4350   45.5340 C   0  0  0  0  0  0  0  0  0  0  0  0
   54.0610   23.8260   44.3670 C   0  0  0  0  0  0  0  0  0  0  0  0
   55.4530   24.0440   44.8360 N   0  0  0  0  0  0  0  0  0  0  0  0
   55.7160   25.1430   45.6330 C   0  0  0  0  0  0  0  0  0  0  0  0
   54.7960   25.9470   45.9570 O   0  0  0  0  0  0  0  0  0  0  0  0
   57.0140   25.3830   46.0900 C   0  0  0  0  0  0  0  0  0  0  0  0
   57.4350   26.4650   46.8780 C   0  0  0  0  0  0  0  0  0  0  0  0
   58.8060   26.4460   47.1180 C   0  0  0  0  0  0  0  0  0  0  0  0
   59.5760   27.4680   47.8380 C   0  0  0  0  0  0  0  0  0  0  0  0
   60.3230   27.0960   48.7880 O   0  0  0  0  0  0  0  0  0  0  0  0
   59.4940   28.8670   47.4620 N   0  0  0  0  0  0  0  0  0  0  0  0
   60.6990   29.2660   46.6830 C   0  0  0  0  0  0  0  0  0  0  0  0
   60.9960   30.7820   46.7420 C   0  0  0  0  0  0  0  0  0  0  0  0
   59.7920   31.5440   47.0910 N   0  0  0  0  0  0  0  0  0  0  0  0
   59.4840   32.7630   46.3980 C   0  0  0  0  0  0  0  0  0  0  0  0
   60.2960   33.8930   46.5790 C   0  0  0  0  0  0  0  0  0  0  0  0
   60.0070   35.0820   45.9040 C   0  0  0  0  0  0  0  0  0  0  0  0
   58.9010   35.1520   45.0530 C   0  0  0  0  0  0  0  0  0  0  0  0
   58.0820   34.0340   44.8730 C   0  0  0  0  0  0  0  0  0  0  0  0
   58.3650   32.8280   45.5470 C   0  0  0  0  0  0  0  0  0  0  0  0
   57.5550   31.6870   45.4090 O   0  0  0  0  0  0  0  0  0  0  0  0
   57.4210   30.9360   44.2070 C   0  0  0  0  0  0  0  0  0  0  0  0
   58.9860   31.1480   48.2510 C   0  0  0  0  0  0  0  0  0  0  0  0
   59.3130   29.7090   48.6660 C   0  0  0  0  0  0  0  0  0  0  0  0
   59.4830   25.0960   46.3790 S   0  0  0  0  0  0  0  0  0  0  0  0
   58.0360   24.5310   45.7330 C   0  0  0  0  0  0  0  0  0  0  0  0
   57.8170   23.4310   44.9070 C   0  0  0  0  0  0  0  0  0  0  0  0
   58.8720   22.5880   44.5130 C   0  0  0  0  0  0  0  0  0  0  0  0
   58.6280   21.5020   43.6740 C   0  0  0  0  0  0  0  0  0  0  0  0
   57.3370   21.2510   43.2150 C   0  0  0  0  0  0  0  0  0  0  0  0
   56.2770   22.0770   43.5990 C   0  0  0  0  0  0  0  0  0  0  0  0
   56.4890   23.1930   44.4480 C   0  0  0  0  0  0  0  0  0  0  0  0
   53.6687   23.6561   46.4828 H   0  0  0  0  0  0  0  0  0  0  0  0
   52.2204   24.0078   45.4800 H   0  0  0  0  0  0  0  0  0  0  0  0
   52.9342   22.3594   45.4800 H   0  0  0  0  0  0  0  0  0  0  0  0
   54.0535   23.0205   43.6180 H   0  0  0  0  0  0  0  0  0  0  0  0
   53.6848   24.7599   43.9239 H   0  0  0  0  0  0  0  0  0  0  0  0
   56.7575   27.2413   47.2630 H   0  0  0  0  0  0  0  0  0  0  0  0
   58.6460   28.9930   46.8520 H   0  0  0  0  0  0  0  0  0  0  0  0
   61.5684   28.7248   47.0846 H   0  0  0  0  0  0  0  0  0  0  0  0
   60.5020   29.0152   45.6303 H   0  0  0  0  0  0  0  0  0  0  0  0
   61.7705   30.9669   47.5010 H   0  0  0  0  0  0  0  0  0  0  0  0
   61.3404   31.1089   45.7498 H   0  0  0  0  0  0  0  0  0  0  0  0
   61.1628   33.8427   47.2544 H   0  0  0  0  0  0  0  0  0  0  0  0
   60.6505   35.9633   46.0427 H   0  0  0  0  0  0  0  0  0  0  0  0
   58.6744   36.0892   44.5235 H   0  0  0  0  0  0  0  0  0  0  0  0
   57.2123   34.0950   44.2023 H   0  0  0  0  0  0  0  0  0  0  0  0
   57.2327   29.8806   44.4531 H   0  0  0  0  0  0  0  0  0  0  0  0
   56.5792   31.3313   43.6196 H   0  0  0  0  0  0  0  0  0  0  0  0
   58.3476   31.0158   43.6196 H   0  0  0  0  0  0  0  0  0  0  0  0
   59.2028   31.8250   49.0905 H   0  0  0  0  0  0  0  0  0  0  0  0
   57.9212   31.2072   47.9812 H   0  0  0  0  0  0  0  0  0  0  0  0
   60.2395   29.7018   49.2589 H   0  0  0  0  0  0  0  0  0  0  0  0
   58.4839   29.3079   49.2675 H   0  0  0  0  0  0  0  0  0  0  0  0
   59.8938   22.7867   44.8685 H   0  0  0  0  0  0  0  0  0  0  0  0
   59.4557   20.8425   43.3741 H   0  0  0  0  0  0  0  0  0  0  0  0
   57.1507   20.3976   42.5464 H   0  0  0  0  0  0  0  0  0  0  0  0
   55.2617   21.8579   43.2368 H   0  0  0  0  0  0  0  0  0  0  0  0
  1  2  1  0
  2  3  1  0
  3  4  1  0
  4  5  2  0
  4  6  1  0
  6  7  1  0
  7  8  2  0
  8  9  1  0
  9 10  2  0
  9 11  1  0
 11 12  1  0
 12 13  1  0
 13 14  1  0
 14 15  1  0
 15 16  2  0
 16 17  1  0
 17 18  2  0
 18 19  1  0
 19 20  2  0
 20 21  1  0
 21 22  1  0
 14 23  1  0
 23 24  1  0
  8 25  1  0
 25 26  1  0
 26 27  1  0
 27 28  2  0
 28 29  1  0
 29 30  2  0
 30 31  1  0
 31 32  2  0
 32  3  1  0
 26  6  2  0
 32 27  1  0
 24 11  1  0
 20 15  1  0
  1 33  1  0
  1 34  1  0
  1 35  1  0
  2 36  1  0
  2 37  1  0
  7 38  1  0
 11 39  1  0
 12 40  1  0
 12 41  1  0
 13 42  1  0
 13 43  1  0
 16 44  1  0
 17 45  1  0
 18 46  1  0
 19 47  1  0
 22 48  1  0
 22 49  1  0
 22 50  1  0
 23 51  1  0
 23 52  1  0
 24 53  1  0
 24 54  1  0
 28 55  1  0
 29 56  1  0
 30 57  1  0
 31 58  1  0
M  CHG  1  11   1
M  END
>  <UniqueID>  (46) 
44

>  <SMILES>  (46) 
CCn1c(=O)c2cc(C(=O)[NH+]3CCN(c4ccccc4OC)CC3)sc2c2ccccc21

>  <Energy>  (46) 
120.18841797868322

>  <Genealogy>  (46) 
CCn1c(=O)c2cc(C(=O)[NH+]3CCN(c4ccccc4OC)CC3)sc2c2ccccc21 (protonated)
CCn1c(=O)c2cc(C(=O)[NH+]3CCN(c4ccccc4OC)CC3)sc2c2ccccc21 (3D coordinates assigned)
CCn1c(=O)c2cc(C(=O)[NH+]3CCN(c4ccccc4OC)CC3)sc2c2ccccc21 (nonaromatic ring conformer: 120.18841797868322 kcal/mol)

>  <smiles>  (46) 
CCn1c(=O)c2cc(C(=O)N3CCN(c4ccccc4OC)CC3)sc2c2ccccc21

>  <score_type>  (46) 
oracle

>  <origin>  (46) 
adg

>  <m_score__min__energy>  (46) 
-7.3700000000000001

>  <m_primary>  (46) 
energy

$$$$
46:0
     RDKit          3D

 46 50  0  0  0  0  0  0  0  0999 V2000
   56.5050   29.9390   43.3480 C   0  0  0  0  0  0  0  0  0  0  0  0
   56.2670   30.8890   44.3830 O   0  0  0  0  0  0  0  0  0  0  0  0
   57.2750   31.5060   45.1380 C   0  0  0  0  0  0  0  0  0  0  0  0
   57.3860   32.9030   45.2510 C   0  0  0  0  0  0  0  0  0  0  0  0
   58.4100   33.4700   46.0150 C   0  0  0  0  0  0  0  0  0  0  0  0
   59.3520   32.6600   46.6770 C   0  0  0  0  0  0  0  0  0  0  0  0
   60.4490   33.3400   47.4980 C   0  0  1  0  0  0  0  0  0  0  0  0
   60.2910   33.1530   48.9920 C   0  0  0  0  0  0  0  0  0  0  0  0
   59.5870   34.0910   49.7790 C   0  0  0  0  0  0  0  0  0  0  0  0
   59.4730   33.8370   51.1430 C   0  0  0  0  0  0  0  0  0  0  0  0
   60.0060   32.7280   51.7150 C   0  0  0  0  0  0  0  0  0  0  0  0
   60.6970   31.7730   50.9750 C   0  0  0  0  0  0  0  0  0  0  0  0
   60.8450   31.9980   49.5900 C   0  0  0  0  0  0  0  0  0  0  0  0
   61.4980   30.9850   48.7020 C   0  0  0  0  0  0  0  0  0  0  0  0
   62.3680   31.6620   47.6180 C   0  0  2  0  0  0  0  0  0  0  0  0
   63.7730   31.9740   48.1520 C   0  0  0  0  0  0  0  0  0  0  0  0
   64.1420   33.2900   47.5160 C   0  0  0  0  0  0  0  0  0  0  0  0
   62.8090   33.9800   47.3310 C   0  0  0  0  0  0  0  0  0  0  0  0
   61.8140   32.9280   47.0470 N   0  0  2  0  0  0  0  0  0  0  0  0
   59.7340   32.7340   53.0700 O   0  0  0  0  0  0  0  0  0  0  0  0
   58.9880   33.9230   53.3670 C   0  0  0  0  0  0  0  0  0  0  0  0
   58.8430   34.5970   52.1090 O   0  0  0  0  0  0  0  0  0  0  0  0
   59.2220   31.2590   46.5690 C   0  0  0  0  0  0  0  0  0  0  0  0
   58.1980   30.6950   45.8050 C   0  0  0  0  0  0  0  0  0  0  0  0
   56.7493   28.9638   43.7945 H   0  0  0  0  0  0  0  0  0  0  0  0
   55.6035   29.8416   42.7253 H   0  0  0  0  0  0  0  0  0  0  0  0
   57.3459   30.2782   42.7253 H   0  0  0  0  0  0  0  0  0  0  0  0
   56.6635   33.5529   44.7357 H   0  0  0  0  0  0  0  0  0  0  0  0
   58.4808   34.5644   46.1001 H   0  0  0  0  0  0  0  0  0  0  0  0
   60.3325   34.4172   47.3083 H   0  0  0  0  0  0  0  0  0  0  0  0
   59.1438   34.9918   49.3294 H   0  0  0  0  0  0  0  0  0  0  0  0
   61.1132   30.8741   51.4533 H   0  0  0  0  0  0  0  0  0  0  0  0
   62.1350   30.3299   49.3145 H   0  0  0  0  0  0  0  0  0  0  0  0
   60.7094   30.4049   48.2004 H   0  0  0  0  0  0  0  0  0  0  0  0
   62.3898   30.9185   46.8076 H   0  0  0  0  0  0  0  0  0  0  0  0
   63.7601   32.0633   49.2483 H   0  0  0  0  0  0  0  0  0  0  0  0
   64.4948   31.1794   47.9120 H   0  0  0  0  0  0  0  0  0  0  0  0
   64.7991   33.8750   48.1763 H   0  0  0  0  0  0  0  0  0  0  0  0
   64.6960   33.1694   46.5734 H   0  0  0  0  0  0  0  0  0  0  0  0
   62.5340   34.5224   48.2476 H   0  0  0  0  0  0  0  0  0  0  0  0
   62.8552   34.7088   46.5084 H   0  0  0  0  0  0  0  0  0  0  0  0
   61.8040   32.8200   46.0040 H   0  0  0  0  0  0  0  0  0  0  0  0
   58.0027   33.6668   53.7837 H   0  0  0  0  0  0  0  0  0  0  0  0
   59.4939   34.5509   54.1152 H   0  0  0  0  0  0  0  0  0  0  0  0
   59.9346   30.6043   47.0920 H   0  0  0  0  0  0  0  0  0  0  0  0
   58.1168   29.6008   45.7272 H   0  0  0  0  0  0  0  0  0  0  0  0
  1  2  1  0
  2  3  1  0
  3  4  2  0
  4  5  1  0
  5  6  2  0
  6  7  1  0
  7  8  1  0
  8  9  2  0
  9 10  1  0
 10 11  2  0
 11 12  1  0
 12 13  2  0
 13 14  1  0
 14 15  1  0
 15 16  1  0
 16 17  1  0
 17 18  1  0
 18 19  1  0
 11 20  1  0
 20 21  1  0
 21 22  1  0
  6 23  1  0
 23 24  2  0
 24  3  1  0
 19  7  1  0
 13  8  1  0
 19 15  1  0
 22 10  1  0
  1 25  1  0
  1 26  1  0
  1 27  1  0
  4 28  1  0
  5 29  1  0
  7 30  1  1
  9 31  1  0
 12 32  1  0
 14 33  1  0
 14 34  1  0
 15 35  1  6
 16 36  1  0
 16 37  1  0
 17 38  1  0
 17 39  1  0
 18 40  1  0
 18 41  1  0
 19 42  1  6
 21 43  1  0
 21 44  1  0
 23 45  1  0
 24 46  1  0
M  CHG  1  19   1
M  END
>  <UniqueID>  (47) 
45

>  <SMILES>  (47) 
COc1ccc([C@H]2c3cc4c(cc3C[C@@H]3CCC[NH+]32)OCO4)cc1

>  <Energy>  (47) 
93.53942489282203

>  <Genealogy>  (47) 
COc1ccc(C2c3cc4c(cc3CC3CCC[NH+]32)OCO4)cc1 (protonated)
COc1ccc([C@H]2c3cc4c(cc3C[C@@H]3CCC[NH+]32)OCO4)cc1 (chirality)
COc1ccc([C@H]2c3cc4c(cc3C[C@@H]3CCC[NH+]32)OCO4)cc1 (3D coordinates assigned)
COc1ccc([C@H]2c3cc4c(cc3C[C@@H]3CCC[NH+]32)OCO4)cc1 (nonaromatic ring conformer: 93.53942489282203 kcal/mol)

>  <smiles>  (47) 
COc1ccc(C2c3cc4c(cc3CC3CCCN32)OCO4)cc1

>  <score_type>  (47) 
oracle

>  <origin>  (47) 
adg

>  <m_score__min__energy>  (47) 
-5.8200000000000003

>  <m_primary>  (47) 
energy

$$$$
47:0
     RDKit          3D

 41 43  0  0  0  0  0  0  0  0999 V2000
   59.6980   33.6450   50.4970 C   0  0  0  0  0  0  0  0  0  0  0  0
   61.0270   33.5560   49.8080 C   0  0  0  0  0  0  0  0  0  0  0  0
   62.1080   33.1570   50.5260 N   0  0  0  0  0  0  0  0  0  0  0  0
   63.3250   33.0050   49.9470 C   0  0  0  0  0  0  0  0  0  0  0  0
   63.4810   33.2390   48.6200 N   0  0  0  0  0  0  0  0  0  0  0  0
   62.4380   33.6340   47.8450 C   0  0  0  0  0  0  0  0  0  0  0  0
   62.6760   33.8800   46.3840 C   0  0  0  0  0  0  0  0  0  0  0  0
   61.1650   33.8110   48.4280 C   0  0  0  0  0  0  0  0  0  0  0  0
   60.0130   34.2530   47.6150 C   0  0  0  0  0  0  0  0  0  0  0  0
   59.4410   35.3370   47.9120 O   0  0  0  0  0  0  0  0  0  0  0  0
   59.5440   33.4780   46.4920 N   0  0  0  0  0  0  0  0  0  0  0  0
   59.9520   32.0750   46.3190 C   0  0  0  0  0  0  0  0  0  0  0  0
   58.8400   31.2170   45.6740 C   0  0  0  0  0  0  0  0  0  0  0  0
   57.8540   31.9960   44.8760 N   0  0  0  0  0  0  0  0  0  0  0  0
   57.2350   31.1690   43.8220 C   0  0  0  0  0  0  0  0  0  0  0  0
   56.9330   29.7910   44.3270 C   0  0  0  0  0  0  0  0  0  0  0  0
   57.7860   28.7080   44.2970 C   0  0  0  0  0  0  0  0  0  0  0  0
   57.0600   27.7040   44.8990 C   0  0  0  0  0  0  0  0  0  0  0  0
   55.8880   28.1860   45.2480 O   0  0  0  0  0  0  0  0  0  0  0  0
   55.7770   29.4430   44.9230 N   0  0  0  0  0  0  0  0  0  0  0  0
   58.4600   33.2020   44.2910 C   0  0  0  0  0  0  0  0  0  0  0  0
   58.8200   34.1660   45.4180 C   0  0  0  0  0  0  0  0  0  0  0  0
   59.8485   33.6349   51.5866 H   0  0  0  0  0  0  0  0  0  0  0  0
   59.1954   34.5788   50.2049 H   0  0  0  0  0  0  0  0  0  0  0  0
   59.0753   32.7865   50.2049 H   0  0  0  0  0  0  0  0  0  0  0  0
   64.1868   32.6915   50.5544 H   0  0  0  0  0  0  0  0  0  0  0  0
   63.4363   34.6658   46.2636 H   0  0  0  0  0  0  0  0  0  0  0  0
   63.0286   32.9528   45.9087 H   0  0  0  0  0  0  0  0  0  0  0  0
   61.7376   34.2018   45.9087 H   0  0  0  0  0  0  0  0  0  0  0  0
   60.8429   32.0424   45.6746 H   0  0  0  0  0  0  0  0  0  0  0  0
   60.1624   31.6600   47.3157 H   0  0  0  0  0  0  0  0  0  0  0  0
   59.3147   30.4790   45.0106 H   0  0  0  0  0  0  0  0  0  0  0  0
   58.2814   30.7511   46.4992 H   0  0  0  0  0  0  0  0  0  0  0  0
   56.2989   31.6451   43.4948 H   0  0  0  0  0  0  0  0  0  0  0  0
   57.9405   31.0870   42.9820 H   0  0  0  0  0  0  0  0  0  0  0  0
   58.8061   28.6577   43.8885 H   0  0  0  0  0  0  0  0  0  0  0  0
   57.4036   26.6716   45.0606 H   0  0  0  0  0  0  0  0  0  0  0  0
   59.3685   32.9271   43.7350 H   0  0  0  0  0  0  0  0  0  0  0  0
   57.7495   33.6811   43.6013 H   0  0  0  0  0  0  0  0  0  0  0  0
   59.4543   34.9691   45.0146 H   0  0  0  0  0  0  0  0  0  0  0  0
   57.8894   34.5795   45.8339 H   0  0  0  0  0  0  0  0  0  0  0  0
  1  2  1  0
  2  3  2  0
  3  4  1  0
  4  5  2  0
  5  6  1  0
  6  7  1  0
  6  8  2  0
  8  9  1  0
  9 10  2  0
  9 11  1  0
 11 12  1  0
 12 13  1  0
 13 14  1  0
 14 15  1  0
 15 16  1  0
 16 17  1  0
 17 18  2  0
 18 19  1  0
 19 20  1  0
 14 21  1  0
 21 22  1  0
  8  2  1  0
 22 11  1  0
 20 16  2  0
  1 23  1  0
  1 24  1  0
  1 25  1  0
  4 26  1  0
  7 27  1  0
  7 28  1  0
  7 29  1  0
 12 30  1  0
 12 31  1  0
 13 32  1  0
 13 33  1  0
 15 34  1  0
 15 35  1  0
 17 36  1  0
 18 37  1  0
 21 38  1  0
 21 39  1  0
 22 40  1  0
 22 41  1  0
M  END
>  <UniqueID>  (48) 
46

>  <SMILES>  (48) 
Cc1ncnc(C)c1C(=O)N1CCN(Cc2ccon2)CC1

>  <Energy>  (48) 
84.8517009517035

>  <Genealogy>  (48) 
Cc1ncnc(C)c1C(=O)N1CCN(Cc2ccon2)CC1 (3D coordinates assigned)
Cc1ncnc(C)c1C(=O)N1CCN(Cc2ccon2)CC1 (nonaromatic ring conformer: 84.8517009517035 kcal/mol)

>  <smiles>  (48) 
Cc1ncnc(C)c1C(=O)N1CCN(Cc2ccon2)CC1

>  <score_type>  (48) 
oracle

>  <origin>  (48) 
adg

>  <m_score__min__energy>  (48) 
-7.7699999999999996

>  <m_primary>  (48) 
energy

$$$$
48:0
     RDKit          3D

 37 37  0  0  0  0  0  0  0  0999 V2000
   58.8750   34.5820   44.9500 C   0  0  0  0  0  0  0  0  0  0  0  0
   57.4310   34.0890   44.8930 C   0  0  0  0  0  0  0  0  0  0  0  0
   57.2580   32.8880   45.7370 N   0  0  0  0  0  0  0  0  0  0  0  0
   57.7320   33.0850   47.1290 C   0  0  0  0  0  0  0  0  0  0  0  0
   58.7870   32.0650   47.5900 C   0  0  0  0  0  0  0  0  0  0  0  0
   57.7900   31.6540   45.1120 C   0  0  0  0  0  0  0  0  0  0  0  0
   57.4300   31.5970   43.6250 C   0  0  0  0  0  0  0  0  0  0  0  0
   56.5830   30.4850   43.3410 O   0  0  0  0  0  0  0  0  0  0  0  0
   56.3420   29.4400   44.2420 C   0  0  0  0  0  0  0  0  0  0  0  0
   55.2500   29.3700   44.8700 O   0  0  0  0  0  0  0  0  0  0  0  0
   57.4210   28.4350   44.5220 C   0  0  2  0  0  0  0  0  0  0  0  0
   57.4350   28.0870   46.0190 C   0  0  0  0  0  0  0  0  0  0  0  0
   58.6570   27.2190   46.3320 C   0  0  0  0  0  0  0  0  0  0  0  0
   59.8860   27.8670   45.8730 N   0  0  0  0  0  0  0  0  0  0  0  0
   59.9260   28.6280   44.8220 C   0  0  0  0  0  0  0  0  0  0  0  0
   58.7260   28.9580   44.1100 N   0  0  0  0  0  0  0  0  0  0  0  0
   59.1851   34.6879   46.0001 H   0  0  0  0  0  0  0  0  0  0  0  0
   59.5303   33.8567   44.4455 H   0  0  0  0  0  0  0  0  0  0  0  0
   58.9499   35.5566   44.4455 H   0  0  0  0  0  0  0  0  0  0  0  0
   56.7628   34.8844   45.2547 H   0  0  0  0  0  0  0  0  0  0  0  0
   57.1854   33.8298   43.8526 H   0  0  0  0  0  0  0  0  0  0  0  0
   58.1700   34.0912   47.2044 H   0  0  0  0  0  0  0  0  0  0  0  0
   56.8569   32.9490   47.7814 H   0  0  0  0  0  0  0  0  0  0  0  0
   58.8150   32.0379   48.6893 H   0  0  0  0  0  0  0  0  0  0  0  0
   58.5259   31.0681   47.2052 H   0  0  0  0  0  0  0  0  0  0  0  0
   59.7745   32.3595   47.2052 H   0  0  0  0  0  0  0  0  0  0  0  0
   58.8847   31.6393   45.2185 H   0  0  0  0  0  0  0  0  0  0  0  0
   57.3437   30.7839   45.6157 H   0  0  0  0  0  0  0  0  0  0  0  0
   56.9093   32.5250   43.3462 H   0  0  0  0  0  0  0  0  0  0  0  0
   58.3585   31.4840   43.0462 H   0  0  0  0  0  0  0  0  0  0  0  0
   57.2145   27.5219   43.9444 H   0  0  0  0  0  0  0  0  0  0  0  0
   57.4828   29.0135   46.6100 H   0  0  0  0  0  0  0  0  0  0  0  0
   56.5188   27.5346   46.2747 H   0  0  0  0  0  0  0  0  0  0  0  0
   58.7175   27.0598   47.4187 H   0  0  0  0  0  0  0  0  0  0  0  0
   58.5493   26.2570   45.8095 H   0  0  0  0  0  0  0  0  0  0  0  0
   60.8913   29.0241   44.4738 H   0  0  0  0  0  0  0  0  0  0  0  0
   58.8140   29.4800   43.2080 H   0  0  0  0  0  0  0  0  0  0  0  0
  1  2  1  0
  2  3  1  0
  3  4  1  0
  4  5  1  0
  3  6  1  0
  6  7  1  0
  7  8  1  0
  8  9  1  0
  9 10  2  0
  9 11  1  0
 11 12  1  0
 12 13  1  0
 13 14  1  0
 14 15  2  0
 15 16  1  0
 16 11  1  0
  1 17  1  0
  1 18  1  0
  1 19  1  0
  2 20  1  0
  2 21  1  0
  4 22  1  0
  4 23  1  0
  5 24  1  0
  5 25  1  0
  5 26  1  0
  6 27  1  0
  6 28  1  0
  7 29  1  0
  7 30  1  0
 11 31  1  6
 12 32  1  0
 12 33  1  0
 13 34  1  0
 13 35  1  0
 15 36  1  0
 16 37  1  0
M  END
>  <UniqueID>  (49) 
47

>  <SMILES>  (49) 
CCN(CC)CCOC(=O)[C@@H]1CCN=CN1

>  <Energy>  (49) 
29.164116900058414

>  <Genealogy>  (49) 
CCN(CC)CCOC(=O)[C@@H]1CCN=CN1 (chirality)
CCN(CC)CCOC(=O)[C@@H]1CCN=CN1 (3D coordinates assigned)
CCN(CC)CCOC(=O)[C@@H]1CCN=CN1 (nonaromatic ring conformer: 29.164116900058414 kcal/mol)

>  <smiles>  (49) 
CCN(CC)CCOC(=O)C1CCN=CN1

>  <score_type>  (49) 
oracle

>  <origin>  (49) 
adg

>  <m_score__min__energy>  (49) 
-5.25

>  <m_primary>  (49) 
energy

$$$$
