0:0
     RDKit          3D

 46 49  0  0  0  0  0  0  0  0999 V2000
   59.1640   26.9040   47.9240 O   0  0  0  0  0  0  0  0  0  0  0  0
   59.7840   28.0030   47.9480 C   0  0  0  0  0  0  0  0  0  0  0  0
   60.1060   28.5740   49.1770 C   0  0  0  0  0  0  0  0  0  0  0  0
   60.8000   29.7750   49.2120 C   0  0  0  0  0  0  0  0  0  0  0  0
   61.1660   30.3910   48.0110 C   0  0  0  0  0  0  0  0  0  0  0  0
   61.9320   31.6620   48.0170 C   0  0  0  0  0  0  0  0  0  0  0  0
   61.5900   32.6940   48.9110 C   0  0  0  0  0  0  0  0  0  0  0  0
   62.3120   33.8910   48.9200 C   0  0  0  0  0  0  0  0  0  0  0  0
   63.3820   34.0700   48.0400 C   0  0  0  0  0  0  0  0  0  0  0  0
   63.7320   33.0530   47.1490 C   0  0  0  0  0  0  0  0  0  0  0  0
   63.0130   31.8540   47.1350 C   0  0  0  0  0  0  0  0  0  0  0  0
   60.8230   29.7950   46.8300 N   0  0  0  0  0  0  0  0  0  0  0  0
   60.1440   28.6390   46.7870 N   0  0  0  0  0  0  0  0  0  0  0  0
   59.8530   28.0420   45.4740 C   0  0  0  0  0  0  0  0  0  0  0  0
   58.7610   28.8200   44.7930 C   0  0  0  0  0  0  0  0  0  0  0  0
   58.0420   28.2540   43.7270 C   0  0  0  0  0  0  0  0  0  0  0  0
   56.9980   28.9640   43.1280 C   0  0  0  0  0  0  0  0  0  0  0  0
   56.6470   30.2290   43.6030 C   0  0  0  0  0  0  0  0  0  0  0  0
   57.3290   30.7920   44.6870 C   0  0  0  0  0  0  0  0  0  0  0  0
   56.9420   32.0610   45.1430 O   0  0  0  0  0  0  0  0  0  0  0  0
   57.8100   33.0310   45.6660 C   0  0  0  0  0  0  0  0  0  0  0  0
   58.0590   33.1430   47.0480 C   0  0  0  0  0  0  0  0  0  0  0  0
   58.9190   34.1340   47.5300 C   0  0  0  0  0  0  0  0  0  0  0  0
   59.5230   35.0300   46.6430 C   0  0  0  0  0  0  0  0  0  0  0  0
   59.2650   34.9350   45.2720 C   0  0  0  0  0  0  0  0  0  0  0  0
   58.4080   33.9430   44.7870 C   0  0  0  0  0  0  0  0  0  0  0  0
   58.4030   30.0930   45.2640 C   0  0  0  0  0  0  0  0  0  0  0  0
   59.8122   28.0764   50.1130 H   0  0  0  0  0  0  0  0  0  0  0  0
   61.0598   30.2382   50.1753 H   0  0  0  0  0  0  0  0  0  0  0  0
   60.7492   32.5577   49.6070 H   0  0  0  0  0  0  0  0  0  0  0  0
   62.0372   34.6930   49.6209 H   0  0  0  0  0  0  0  0  0  0  0  0
   63.9492   35.0124   48.0488 H   0  0  0  0  0  0  0  0  0  0  0  0
   64.5750   33.1956   46.4569 H   0  0  0  0  0  0  0  0  0  0  0  0
   63.2932   31.0563   46.4313 H   0  0  0  0  0  0  0  0  0  0  0  0
   61.0840   30.2660   45.9330 H   0  0  0  0  0  0  0  0  0  0  0  0
   60.7604   28.0655   44.8527 H   0  0  0  0  0  0  0  0  0  0  0  0
   59.5261   27.0008   45.6122 H   0  0  0  0  0  0  0  0  0  0  0  0
   58.3016   27.2490   43.3628 H   0  0  0  0  0  0  0  0  0  0  0  0
   56.4515   28.5251   42.2802 H   0  0  0  0  0  0  0  0  0  0  0  0
   55.8295   30.7862   43.1222 H   0  0  0  0  0  0  0  0  0  0  0  0
   57.5750   32.4483   47.7502 H   0  0  0  0  0  0  0  0  0  0  0  0
   59.1208   34.2089   48.6087 H   0  0  0  0  0  0  0  0  0  0  0  0
   60.2004   35.8088   47.0232 H   0  0  0  0  0  0  0  0  0  0  0  0
   59.7372   35.6420   44.5741 H   0  0  0  0  0  0  0  0  0  0  0  0
   58.2019   33.8781   43.7084 H   0  0  0  0  0  0  0  0  0  0  0  0
   58.9678   30.5472   46.0915 H   0  0  0  0  0  0  0  0  0  0  0  0
  1  2  2  0
  2  3  1  0
  3  4  2  0
  4  5  1  0
  5  6  1  0
  6  7  2  0
  7  8  1  0
  8  9  2  0
  9 10  1  0
 10 11  2  0
  5 12  2  0
 12 13  1  0
 13 14  1  0
 14 15  1  0
 15 16  2  0
 16 17  1  0
 17 18  2  0
 18 19  1  0
 19 20  1  0
 20 21  1  0
 21 22  2  0
 22 23  1  0
 23 24  2  0
 24 25  1  0
 25 26  2  0
 19 27  2  0
 13  2  1  0
 27 15  1  0
 11  6  1  0
 26 21  1  0
  3 28  1  0
  4 29  1  0
  7 30  1  0
  8 31  1  0
  9 32  1  0
 10 33  1  0
 11 34  1  0
 12 35  1  0
 14 36  1  0
 14 37  1  0
 16 38  1  0
 17 39  1  0
 18 40  1  0
 22 41  1  0
 23 42  1  0
 24 43  1  0
 25 44  1  0
 26 45  1  0
 27 46  1  0
M  CHG  1  12   1
M  END
>  <UniqueID>  (1) 
1

>  <SMILES>  (1) 
O=c1ccc(-c2ccccc2)[nH+]n1Cc1cccc(Oc2ccccc2)c1

>  <Energy>  (1) 
62.35191086812598

>  <Genealogy>  (1) 
O=c1ccc(-c2ccccc2)[nH+]n1Cc1cccc(Oc2ccccc2)c1 (protonated)
O=c1ccc(-c2ccccc2)[nH+]n1Cc1cccc(Oc2ccccc2)c1 (3D coordinates assigned)
O=c1ccc(-c2ccccc2)[nH+]n1Cc1cccc(Oc2ccccc2)c1 (optimized conformer: 62.35191086812598 kcal/mol)

>  <smiles>  (1) 
O=c1ccc(-c2ccccc2)nn1Cc1cccc(Oc2ccccc2)c1

>  <score_type>  (1) 
oracle

>  <origin>  (1) 
adg

>  <m_score__min__energy>  (1) 
-7.8799999999999999

>  <m_primary>  (1) 
energy

$$$$
1:0
     RDKit          3D

 43 45  0  0  0  0  0  0  0  0999 V2000
   56.8150   24.8130   45.0470 C   0  0  0  0  0  0  0  0  0  0  0  0
   56.2560   25.3100   46.3750 C   0  0  0  0  0  0  0  0  0  0  0  0
   55.8170   26.6970   46.2610 N   0  0  0  0  0  0  0  0  0  0  0  0
   56.5770   27.7170   45.6040 C   0  0  0  0  0  0  0  0  0  0  0  0
   57.8340   27.7360   45.7080 O   0  0  0  0  0  0  0  0  0  0  0  0
   55.8970   28.6920   44.8020 N   0  0  0  0  0  0  0  0  0  0  0  0
   56.5250   29.8580   44.2440 C   0  0  0  0  0  0  0  0  0  0  0  0
   56.4520   30.0830   42.8630 C   0  0  0  0  0  0  0  0  0  0  0  0
   57.0420   31.2170   42.3010 C   0  0  0  0  0  0  0  0  0  0  0  0
   57.6970   32.1450   43.1120 C   0  0  0  0  0  0  0  0  0  0  0  0
   57.7610   31.9530   44.5050 C   0  0  0  0  0  0  0  0  0  0  0  0
   58.4320   32.9320   45.3910 C   0  0  0  0  0  0  0  0  0  0  0  0
   58.8610   34.2070   45.0550 C   0  0  0  0  0  0  0  0  0  0  0  0
   59.4240   34.7330   46.1980 C   0  0  0  0  0  0  0  0  0  0  0  0
   59.3040   33.7500   47.1610 C   0  0  0  0  0  0  0  0  0  0  0  0
   59.7610   33.8440   48.5510 C   0  0  0  0  0  0  0  0  0  0  0  0
   59.7200   34.9570   49.1410 O   0  0  0  0  0  0  0  0  0  0  0  0
   60.2960   32.6870   49.2060 N   0  0  0  0  0  0  0  0  0  0  0  0
   60.0850   31.3160   48.8350 C   0  0  0  0  0  0  0  0  0  0  0  0
   59.0890   30.5220   49.4340 C   0  0  0  0  0  0  0  0  0  0  0  0
   58.9050   29.1970   49.0250 C   0  0  0  0  0  0  0  0  0  0  0  0
   59.7010   28.6610   48.0100 C   0  0  0  0  0  0  0  0  0  0  0  0
   60.6750   29.4500   47.3950 C   0  0  0  0  0  0  0  0  0  0  0  0
   60.8600   30.7760   47.8000 C   0  0  0  0  0  0  0  0  0  0  0  0
   58.7140   32.6930   46.6530 O   0  0  0  0  0  0  0  0  0  0  0  0
   57.1630   30.8090   45.0620 C   0  0  0  0  0  0  0  0  0  0  0  0
   57.6248   24.0930   45.2365 H   0  0  0  0  0  0  0  0  0  0  0  0
   56.0151   24.3224   44.4730 H   0  0  0  0  0  0  0  0  0  0  0  0
   57.2086   25.6649   44.4730 H   0  0  0  0  0  0  0  0  0  0  0  0
   55.4001   24.6826   46.6643 H   0  0  0  0  0  0  0  0  0  0  0  0
   57.0469   25.2500   47.1372 H   0  0  0  0  0  0  0  0  0  0  0  0
   54.9060   28.4870   44.5340 H   0  0  0  0  0  0  0  0  0  0  0  0
   55.9272   29.3627   42.2182 H   0  0  0  0  0  0  0  0  0  0  0  0
   56.9903   31.3796   41.2143 H   0  0  0  0  0  0  0  0  0  0  0  0
   58.1659   33.0315   42.6600 H   0  0  0  0  0  0  0  0  0  0  0  0
   58.7704   34.6989   44.0753 H   0  0  0  0  0  0  0  0  0  0  0  0
   59.8752   35.7290   46.3183 H   0  0  0  0  0  0  0  0  0  0  0  0
   58.4534   30.9447   50.2261 H   0  0  0  0  0  0  0  0  0  0  0  0
   58.1327   28.5766   49.5032 H   0  0  0  0  0  0  0  0  0  0  0  0
   59.5604   27.6165   47.6950 H   0  0  0  0  0  0  0  0  0  0  0  0
   61.2971   29.0286   46.5916 H   0  0  0  0  0  0  0  0  0  0  0  0
   61.6185   31.3986   47.3030 H   0  0  0  0  0  0  0  0  0  0  0  0
   57.1942   30.6553   46.1508 H   0  0  0  0  0  0  0  0  0  0  0  0
  1  2  1  0
  2  3  1  0
  3  4  1  0
  4  5  2  0
  4  6  1  0
  6  7  1  0
  7  8  2  0
  8  9  1  0
  9 10  2  0
 10 11  1  0
 11 12  1  0
 12 13  2  0
 13 14  1  0
 14 15  2  0
 15 16  1  0
 16 17  2  0
 16 18  1  0
 18 19  1  0
 19 20  2  0
 20 21  1  0
 21 22  2  0
 22 23  1  0
 23 24  2  0
 15 25  1  0
 11 26  2  0
 26  7  1  0
 25 12  1  0
 24 19  1  0
  1 27  1  0
  1 28  1  0
  1 29  1  0
  2 30  1  0
  2 31  1  0
  6 32  1  0
  8 33  1  0
  9 34  1  0
 10 35  1  0
 13 36  1  0
 14 37  1  0
 20 38  1  0
 21 39  1  0
 22 40  1  0
 23 41  1  0
 24 42  1  0
 26 43  1  0
M  CHG  2   3  -1  18  -1
M  END
>  <UniqueID>  (2) 
2

>  <SMILES>  (2) 
CC[N-]C(=O)Nc1cccc(-c2ccc(C(=O)[N-]c3ccccc3)o2)c1

>  <Energy>  (2) 
73.43551462311528

>  <Genealogy>  (2) 
CC[N-]C(=O)Nc1cccc(-c2ccc(C(=O)[N-]c3ccccc3)o2)c1 (protonated)
CC[N-]C(=O)Nc1cccc(-c2ccc(C(=O)[N-]c3ccccc3)o2)c1 (3D coordinates assigned)
CC[N-]C(=O)Nc1cccc(-c2ccc(C(=O)[N-]c3ccccc3)o2)c1 (optimized conformer: 73.43551462311528 kcal/mol)

>  <smiles>  (2) 
CCNC(=O)Nc1cccc(-c2ccc(C(=O)Nc3ccccc3)o2)c1

>  <score_type>  (2) 
oracle

>  <origin>  (2) 
adg

>  <m_score__min__energy>  (2) 
-11.42

>  <m_primary>  (2) 
energy

$$$$
2:0
     RDKit          3D

 42 45  0  0  0  0  0  0  0  0999 V2000
   59.1260   34.2539   43.6831 H   0  0  0  0  0  0  0  0  0  0  0  0
   58.5040   33.4430   44.0900 C   0  0  0  0  0  0  0  0  0  0  0  0
   57.7830   32.2110   43.2000 S   0  0  0  0  0  0  0  0  0  0  0  0
   57.0680   31.5230   44.5520 C   0  0  0  0  0  0  0  0  0  0  0  0
   56.2930   30.4820   44.5040 N   0  0  0  0  0  0  0  0  0  0  0  0
   56.7060   29.1290   44.8720 C   0  0  0  0  0  0  0  0  0  0  0  0
   56.0377   28.7502   45.6593 H   0  0  0  0  0  0  0  0  0  0  0  0
   56.6493   28.4893   43.9789 H   0  0  0  0  0  0  0  0  0  0  0  0
   58.1220   29.1190   45.3810 C   0  0  0  0  0  0  0  0  0  0  0  0
   58.3830   29.3570   46.7400 C   0  0  0  0  0  0  0  0  0  0  0  0
   57.5486   29.5220   47.4375 H   0  0  0  0  0  0  0  0  0  0  0  0
   59.7000   29.3850   47.2100 C   0  0  0  0  0  0  0  0  0  0  0  0
   59.8988   29.5696   48.2760 H   0  0  0  0  0  0  0  0  0  0  0  0
   60.7630   29.1790   46.3280 C   0  0  0  0  0  0  0  0  0  0  0  0
   61.7985   29.2095   46.6979 H   0  0  0  0  0  0  0  0  0  0  0  0
   60.5110   28.9340   44.9750 C   0  0  0  0  0  0  0  0  0  0  0  0
   61.3486   28.7685   44.2814 H   0  0  0  0  0  0  0  0  0  0  0  0
   59.1950   28.8990   44.5020 C   0  0  0  0  0  0  0  0  0  0  0  0
   59.0000   28.6985   43.4382 H   0  0  0  0  0  0  0  0  0  0  0  0
   57.3620   32.1960   45.6860 N   0  0  0  0  0  0  0  0  0  0  0  0
   58.1760   33.2580   45.4360 C   0  0  0  0  0  0  0  0  0  0  0  0
   58.6200   34.1780   46.5370 C   0  0  0  0  0  0  0  0  0  0  0  0
   58.0116   33.9825   47.4323 H   0  0  0  0  0  0  0  0  0  0  0  0
   58.4905   35.2143   46.1917 H   0  0  0  0  0  0  0  0  0  0  0  0
   60.0700   33.9750   46.8790 C   0  0  0  0  0  0  0  0  0  0  0  0
   61.0720   34.1580   45.9930 N   0  0  0  0  0  0  0  0  0  0  0  0
   62.1850   33.7930   46.6110 N   0  0  0  0  0  0  0  0  0  0  0  0
   63.1390   33.8210   46.1860 H   0  0  0  0  0  0  0  0  0  0  0  0
   61.8570   33.3830   47.8490 C   0  0  0  0  0  0  0  0  0  0  0  0
   62.9460   32.8560   48.9540 S   0  0  0  0  0  0  0  0  0  0  0  0
   60.5310   33.4910   48.0560 N   0  0  0  0  0  0  0  0  0  0  0  0
   59.7760   33.1180   49.2170 C   0  0  0  0  0  0  0  0  0  0  0  0
   58.9020   32.0220   49.1670 C   0  0  0  0  0  0  0  0  0  0  0  0
   58.7998   31.4424   48.2377 H   0  0  0  0  0  0  0  0  0  0  0  0
   58.1610   31.6660   50.2970 C   0  0  0  0  0  0  0  0  0  0  0  0
   57.4629   30.8172   50.2505 H   0  0  0  0  0  0  0  0  0  0  0  0
   58.3050   32.3860   51.4860 C   0  0  0  0  0  0  0  0  0  0  0  0
   57.7261   32.0986   52.3761 H   0  0  0  0  0  0  0  0  0  0  0  0
   59.1840   33.4710   51.5450 C   0  0  0  0  0  0  0  0  0  0  0  0
   59.3020   34.0331   52.4831 H   0  0  0  0  0  0  0  0  0  0  0  0
   59.9140   33.8420   50.4100 C   0  0  0  0  0  0  0  0  0  0  0  0
   60.5972   34.7030   50.4538 H   0  0  0  0  0  0  0  0  0  0  0  0
  1  2  1  0
  2  3  1  0
  3  4  1  0
  4  5  2  0
  5  6  1  0
  6  7  1  0
  6  8  1  0
  6  9  1  0
  9 10  2  0
 10 11  1  0
 10 12  1  0
 12 13  1  0
 12 14  2  0
 14 15  1  0
 14 16  1  0
 16 17  1  0
 16 18  2  0
 18 19  1  0
  4 20  1  0
 20 21  1  0
 21 22  1  0
 22 23  1  0
 22 24  1  0
 22 25  1  0
 25 26  2  0
 26 27  1  0
 27 28  1  0
 27 29  1  0
 29 30  2  0
 29 31  1  0
 31 32  1  0
 32 33  2  0
 33 34  1  0
 33 35  1  0
 35 36  1  0
 35 37  2  0
 37 38  1  0
 37 39  1  0
 39 40  1  0
 39 41  2  0
 41 42  1  0
 21  2  2  0
 31 25  1  0
 41 32  1  0
 18  9  1  0
M  CHG  1  20  -1
M  END
>  <UniqueID>  (3) 
3

>  <SMILES>  (3) 
S=c1[nH]nc(Cc2cs/c(=N/Cc3ccccc3)[n-]2)n1-c1ccccc1

>  <Energy>  (3) 
112.47319801797492

>  <Genealogy>  (3) 
S=c1[nH]nc(Cc2csc(=NCc3ccccc3)[n-]2)n1-c1ccccc1 (protonated)
S=c1[nH]nc(Cc2cs/c(=N/Cc3ccccc3)[n-]2)n1-c1ccccc1 (cis-trans isomerization)
S=c1[nH]nc(Cc2cs/c(=N/Cc3ccccc3)[n-]2)n1-c1ccccc1 (3D coordinates assigned)
S=c1[nH]nc(Cc2cs/c(=N/Cc3ccccc3)[n-]2)n1-c1ccccc1 (optimized conformer: 112.47319801797492 kcal/mol)

>  <smiles>  (3) 
S=c1[nH]nc(Cc2csc(=NCc3ccccc3)[nH]2)n1-c1ccccc1

>  <score_type>  (3) 
oracle

>  <origin>  (3) 
adg

>  <m_score__min__energy>  (3) 
-10.67

>  <m_primary>  (3) 
energy

$$$$
3:0
     RDKit          3D

 36 38  0  0  0  0  0  0  0  0999 V2000
   64.9516   32.0961   49.2572 H   0  0  0  0  0  0  0  0  0  0  0  0
   64.1300   32.6710   48.8050 C   0  0  0  0  0  0  0  0  0  0  0  0
   63.7680   32.7520   47.1610 S   0  0  0  0  0  0  0  0  0  0  0  0
   62.4630   33.7800   47.3950 C   0  0  0  0  0  0  0  0  0  0  0  0
   61.7200   34.2250   46.4260 N   0  0  0  0  0  0  0  0  0  0  0  0
   60.0380   34.6230   46.5770 S   0  0  0  0  0  0  0  0  0  0  0  0
   59.7470   34.9890   48.0060 O   0  0  0  0  0  0  0  0  0  0  0  0
   59.7330   35.8040   45.6990 O   0  0  0  0  0  0  0  0  0  0  0  0
   59.0430   33.2640   46.0680 C   0  0  0  0  0  0  0  0  0  0  0  0
   58.1310   33.4070   45.0140 C   0  0  0  0  0  0  0  0  0  0  0  0
   58.0398   34.3726   44.4951 H   0  0  0  0  0  0  0  0  0  0  0  0
   57.3370   32.3270   44.6200 C   0  0  0  0  0  0  0  0  0  0  0  0
   56.6136   32.4510   43.8007 H   0  0  0  0  0  0  0  0  0  0  0  0
   57.4560   31.0880   45.2610 C   0  0  0  0  0  0  0  0  0  0  0  0
   56.6350   30.0320   44.8390 O   0  0  0  0  0  0  0  0  0  0  0  0
   57.0510   28.7020   44.6750 C   0  0  0  0  0  0  0  0  0  0  0  0
   57.7650   28.2800   43.5410 C   0  0  0  0  0  0  0  0  0  0  0  0
   58.0231   29.0046   42.7546 H   0  0  0  0  0  0  0  0  0  0  0  0
   58.1480   26.9440   43.4090 C   0  0  0  0  0  0  0  0  0  0  0  0
   58.7167   26.6213   42.5245 H   0  0  0  0  0  0  0  0  0  0  0  0
   57.8110   26.0160   44.3970 C   0  0  0  0  0  0  0  0  0  0  0  0
   58.1182   24.9655   44.2871 H   0  0  0  0  0  0  0  0  0  0  0  0
   57.0820   26.4150   45.5310 C   0  0  0  0  0  0  0  0  0  0  0  0
   56.7290   25.4560   46.5440 N   0  0  0  0  0  0  0  0  0  0  0  0
   55.5410   25.1070   46.7050 O   0  0  0  0  0  0  0  0  0  0  0  0
   57.6970   24.9070   47.3540 O   0  0  0  0  0  0  0  0  0  0  0  0
   56.7000   27.7640   45.6550 C   0  0  0  0  0  0  0  0  0  0  0  0
   56.1189   28.0858   46.5318 H   0  0  0  0  0  0  0  0  0  0  0  0
   58.3580   30.9490   46.3320 C   0  0  0  0  0  0  0  0  0  0  0  0
   58.4390   29.7850   47.0240 F   0  0  0  0  0  0  0  0  0  0  0  0
   59.1520   32.0310   46.7250 C   0  0  0  0  0  0  0  0  0  0  0  0
   59.8656   31.9137   47.5539 H   0  0  0  0  0  0  0  0  0  0  0  0
   62.2870   34.0710   48.7050 N   0  0  0  0  0  0  0  0  0  0  0  0
   61.5410   34.6900   49.0920 H   0  0  0  0  0  0  0  0  0  0  0  0
   63.2100   33.4570   49.4910 C   0  0  0  0  0  0  0  0  0  0  0  0
   63.2282   33.5726   50.5848 H   0  0  0  0  0  0  0  0  0  0  0  0
  1  2  1  0
  2  3  1  0
  3  4  1  0
  4  5  2  0
  5  6  1  0
  6  7  2  0
  6  8  2  0
  6  9  1  0
  9 10  2  0
 10 11  1  0
 10 12  1  0
 12 13  1  0
 12 14  2  0
 14 15  1  0
 15 16  1  0
 16 17  2  0
 17 18  1  0
 17 19  1  0
 19 20  1  0
 19 21  2  0
 21 22  1  0
 21 23  1  0
 23 24  1  0
 24 25  2  0
 24 26  1  0
 23 27  2  0
 27 28  1  0
 14 29  1  0
 29 30  1  0
 29 31  2  0
 31 32  1  0
  4 33  1  0
 33 34  1  0
 33 35  1  0
 35 36  1  0
 35  2  2  0
 31  9  1  0
 27 16  1  0
M  CHG  2  24   1  26  -1
M  END
>  <UniqueID>  (4) 
4

>  <SMILES>  (4) 
O=[N+]([O-])c1cccc(Oc2ccc(S(=O)(=O)/N=c3\[nH]ccs3)cc2F)c1

>  <Energy>  (4) 
80.65605372940837

>  <Genealogy>  (4) 
O=[N+]([O-])c1cccc(Oc2ccc(S(=O)(=O)/N=c3\[nH]ccs3)cc2F)c1 (cis-trans isomerization)
O=[N+]([O-])c1cccc(Oc2ccc(S(=O)(=O)/N=c3\[nH]ccs3)cc2F)c1 (3D coordinates assigned)
O=[N+]([O-])c1cccc(Oc2ccc(S(=O)(=O)/N=c3\[nH]ccs3)cc2F)c1 (optimized conformer: 80.65605372940837 kcal/mol)

>  <smiles>  (4) 
O=[N+]([O-])c1cccc(Oc2ccc(S(=O)(=O)N=c3[nH]ccs3)cc2F)c1

>  <score_type>  (4) 
oracle

>  <origin>  (4) 
adg

>  <m_score__min__energy>  (4) 
-8.3800000000000008

>  <m_primary>  (4) 
energy

$$$$
4:0
     RDKit          3D

 41 42  0  0  0  0  0  0  0  0999 V2000
   57.0500   32.3500   40.7550 C   0  0  0  0  0  0  0  0  0  0  0  0
   58.0300   32.2580   41.9130 C   0  0  0  0  0  0  0  0  0  0  0  0
   57.6010   31.2480   42.8200 O   0  0  0  0  0  0  0  0  0  0  0  0
   57.1660   31.5320   44.1200 C   0  0  0  0  0  0  0  0  0  0  0  0
   56.0580   31.0850   44.5270 O   0  0  0  0  0  0  0  0  0  0  0  0
   58.0090   32.3570   45.0140 C   0  0  0  0  0  0  0  0  0  0  0  0
   58.1280   33.7400   44.8010 C   0  0  0  0  0  0  0  0  0  0  0  0
   58.9230   34.5220   45.6420 C   0  0  0  0  0  0  0  0  0  0  0  0
   59.6190   33.9330   46.7140 C   0  0  0  0  0  0  0  0  0  0  0  0
   60.4380   34.6700   47.5830 O   0  0  0  0  0  0  0  0  0  0  0  0
   61.0420   34.1670   48.7750 C   0  0  0  0  0  0  0  0  0  0  0  0
   62.0810   33.1280   48.4560 C   0  0  0  0  0  0  0  0  0  0  0  0
   63.0180   33.1520   47.4380 C   0  0  0  0  0  0  0  0  0  0  0  0
   63.1730   34.1980   46.3810 C   0  0  0  0  0  0  0  0  0  0  0  0
   63.7710   32.0400   47.5220 N   0  0  0  0  0  0  0  0  0  0  0  0
   63.3630   31.3490   48.5460 O   0  0  0  0  0  0  0  0  0  0  0  0
   62.3660   31.9600   49.1500 C   0  0  0  0  0  0  0  0  0  0  0  0
   61.6480   31.4310   50.3580 C   0  0  0  0  0  0  0  0  0  0  0  0
   60.4330   30.5940   49.9710 C   0  0  0  0  0  0  0  0  0  0  0  0
   59.4970   32.5560   46.9290 C   0  0  0  0  0  0  0  0  0  0  0  0
   58.7020   31.7720   46.0900 C   0  0  0  0  0  0  0  0  0  0  0  0
   56.0268   32.4461   41.1473 H   0  0  0  0  0  0  0  0  0  0  0  0
   57.2909   33.2295   40.1398 H   0  0  0  0  0  0  0  0  0  0  0  0
   57.1230   31.4411   40.1398 H   0  0  0  0  0  0  0  0  0  0  0  0
   59.0290   32.0049   41.5284 H   0  0  0  0  0  0  0  0  0  0  0  0
   58.0718   33.2253   42.4351 H   0  0  0  0  0  0  0  0  0  0  0  0
   57.5906   34.2113   43.9649 H   0  0  0  0  0  0  0  0  0  0  0  0
   59.0056   35.6046   45.4654 H   0  0  0  0  0  0  0  0  0  0  0  0
   61.5187   34.9983   49.3151 H   0  0  0  0  0  0  0  0  0  0  0  0
   60.2607   33.7024   49.3944 H   0  0  0  0  0  0  0  0  0  0  0  0
   63.3185   35.1798   46.8553 H   0  0  0  0  0  0  0  0  0  0  0  0
   64.0457   33.9602   45.7550 H   0  0  0  0  0  0  0  0  0  0  0  0
   62.2688   34.2235   45.7550 H   0  0  0  0  0  0  0  0  0  0  0  0
   64.5520   31.7600   46.8880 H   0  0  0  0  0  0  0  0  0  0  0  0
   62.3414   30.8053   50.9391 H   0  0  0  0  0  0  0  0  0  0  0  0
   61.2985   32.2885   50.9518 H   0  0  0  0  0  0  0  0  0  0  0  0
   59.9242   30.2435   50.8811 H   0  0  0  0  0  0  0  0  0  0  0  0
   59.7397   31.2071   49.3764 H   0  0  0  0  0  0  0  0  0  0  0  0
   60.7588   29.7278   49.3764 H   0  0  0  0  0  0  0  0  0  0  0  0
   60.0325   32.0861   47.7671 H   0  0  0  0  0  0  0  0  0  0  0  0
   58.6170   30.6904   46.2714 H   0  0  0  0  0  0  0  0  0  0  0  0
  1  2  1  0
  2  3  1  0
  3  4  1  0
  4  5  2  0
  4  6  1  0
  6  7  2  0
  7  8  1  0
  8  9  2  0
  9 10  1  0
 10 11  1  0
 11 12  1  0
 12 13  1  0
 13 14  1  0
 13 15  2  0
 15 16  1  0
 16 17  1  0
 17 18  1  0
 18 19  1  0
  9 20  1  0
 20 21  2  0
 21  6  1  0
 17 12  2  0
  1 22  1  0
  1 23  1  0
  1 24  1  0
  2 25  1  0
  2 26  1  0
  7 27  1  0
  8 28  1  0
 11 29  1  0
 11 30  1  0
 14 31  1  0
 14 32  1  0
 14 33  1  0
 15 34  1  0
 18 35  1  0
 18 36  1  0
 19 37  1  0
 19 38  1  0
 19 39  1  0
 20 40  1  0
 21 41  1  0
M  CHG  1  15   1
M  END
>  <UniqueID>  (5) 
5

>  <SMILES>  (5) 
CCOC(=O)c1ccc(OCc2c(C)[nH+]oc2CC)cc1

>  <Energy>  (5) 
61.97957386491218

>  <Genealogy>  (5) 
CCOC(=O)c1ccc(OCc2c(C)[nH+]oc2CC)cc1 (protonated)
CCOC(=O)c1ccc(OCc2c(C)[nH+]oc2CC)cc1 (3D coordinates assigned)
CCOC(=O)c1ccc(OCc2c(C)[nH+]oc2CC)cc1 (optimized conformer: 61.97957386491218 kcal/mol)

>  <smiles>  (5) 
CCOC(=O)c1ccc(OCc2c(C)noc2CC)cc1

>  <score_type>  (5) 
oracle

>  <origin>  (5) 
adg

>  <m_score__min__energy>  (5) 
-5.7800000000000002

>  <m_primary>  (5) 
energy

$$$$
5:0
     RDKit          3D

 38 41  0  0  0  0  0  0  0  0999 V2000
   59.6190   35.7240   46.6780 C   0  0  0  0  0  0  0  0  0  0  0  0
   59.2850   34.8230   45.6270 O   0  0  0  0  0  0  0  0  0  0  0  0
   59.1340   33.4360   45.7820 C   0  0  0  0  0  0  0  0  0  0  0  0
   58.0260   32.7490   45.2700 C   0  0  0  0  0  0  0  0  0  0  0  0
   57.8700   31.3820   45.4890 C   0  0  0  0  0  0  0  0  0  0  0  0
   56.8100   30.7790   44.9650 O   0  0  0  0  0  0  0  0  0  0  0  0
   56.5530   29.4910   45.1270 C   0  0  0  0  0  0  0  0  0  0  0  0
   55.5390   28.9950   44.5650 O   0  0  0  0  0  0  0  0  0  0  0  0
   57.3840   28.7040   45.9350 C   0  0  0  0  0  0  0  0  0  0  0  0
   57.1120   27.3540   46.1970 C   0  0  0  0  0  0  0  0  0  0  0  0
   57.8610   26.6260   47.0590 C   0  0  0  0  0  0  0  0  0  0  0  0
   58.9290   27.1760   47.7500 C   0  0  0  0  0  0  0  0  0  0  0  0
   59.2460   28.5250   47.5160 C   0  0  0  0  0  0  0  0  0  0  0  0
   58.5200   29.2990   46.5580 C   0  0  0  0  0  0  0  0  0  0  0  0
   58.8260   30.6580   46.2470 C   0  0  0  0  0  0  0  0  0  0  0  0
   60.0310   31.3260   46.6140 C   0  0  0  0  0  0  0  0  0  0  0  0
   61.1510   30.6080   47.0320 O   0  0  0  0  0  0  0  0  0  0  0  0
   61.7410   30.8310   48.3080 C   0  0  0  0  0  0  0  0  0  0  0  0
   60.1400   32.7320   46.4570 C   0  0  0  0  0  0  0  0  0  0  0  0
   61.2320   33.4840   46.9290 O   0  0  0  0  0  0  0  0  0  0  0  0
   62.5560   33.4670   46.4040 C   0  0  0  0  0  0  0  0  0  0  0  0
   57.3650   25.3390   47.1370 O   0  0  0  0  0  0  0  0  0  0  0  0
   56.2290   25.2490   46.2680 C   0  0  0  0  0  0  0  0  0  0  0  0
   56.1000   26.5560   45.6930 O   0  0  0  0  0  0  0  0  0  0  0  0
   59.4390   35.2383   47.6484 H   0  0  0  0  0  0  0  0  0  0  0  0
   60.6802   36.0026   46.5987 H   0  0  0  0  0  0  0  0  0  0  0  0
   58.9959   36.6270   46.5987 H   0  0  0  0  0  0  0  0  0  0  0  0
   57.2696   33.2956   44.6877 H   0  0  0  0  0  0  0  0  0  0  0  0
   59.5123   26.5735   48.4618 H   0  0  0  0  0  0  0  0  0  0  0  0
   60.0665   28.9932   48.0794 H   0  0  0  0  0  0  0  0  0  0  0  0
   61.0233   30.5597   49.0963 H   0  0  0  0  0  0  0  0  0  0  0  0
   62.6454   30.2127   48.4069 H   0  0  0  0  0  0  0  0  0  0  0  0
   62.0103   31.8929   48.4069 H   0  0  0  0  0  0  0  0  0  0  0  0
   63.2790   33.4577   47.2329 H   0  0  0  0  0  0  0  0  0  0  0  0
   62.6942   32.5670   45.7868 H   0  0  0  0  0  0  0  0  0  0  0  0
   62.7172   34.3631   45.7868 H   0  0  0  0  0  0  0  0  0  0  0  0
   56.4000   24.4965   45.4841 H   0  0  0  0  0  0  0  0  0  0  0  0
   55.3198   24.9414   46.8054 H   0  0  0  0  0  0  0  0  0  0  0  0
  1  2  1  0
  2  3  1  0
  3  4  2  0
  4  5  1  0
  5  6  1  0
  6  7  1  0
  7  8  2  0
  7  9  1  0
  9 10  2  0
 10 11  1  0
 11 12  2  0
 12 13  1  0
 13 14  2  0
 14 15  1  0
 15 16  1  0
 16 17  1  0
 17 18  1  0
 16 19  2  0
 19 20  1  0
 20 21  1  0
 11 22  1  0
 22 23  1  0
 23 24  1  0
 19  3  1  0
 15  5  2  0
 14  9  1  0
 24 10  1  0
  1 25  1  0
  1 26  1  0
  1 27  1  0
  4 28  1  0
 12 29  1  0
 13 30  1  0
 18 31  1  0
 18 32  1  0
 18 33  1  0
 21 34  1  0
 21 35  1  0
 21 36  1  0
 23 37  1  0
 23 38  1  0
M  END
>  <UniqueID>  (6) 
6

>  <SMILES>  (6) 
COc1cc2oc(=O)c3c4c(ccc3c2c(OC)c1OC)OCO4

>  <Energy>  (6) 
96.44843831862784

>  <Genealogy>  (6) 
COc1cc2oc(=O)c3c4c(ccc3c2c(OC)c1OC)OCO4 (3D coordinates assigned)
COc1cc2oc(=O)c3c4c(ccc3c2c(OC)c1OC)OCO4 (nonaromatic ring conformer: 96.44843831862784 kcal/mol)

>  <smiles>  (6) 
COc1cc2oc(=O)c3c4c(ccc3c2c(OC)c1OC)OCO4

>  <score_type>  (6) 
oracle

>  <origin>  (6) 
adg

>  <m_score__min__energy>  (6) 
-5.9000000000000004

>  <m_primary>  (6) 
energy

$$$$
6:0
     RDKit          3D

 31 32  0  0  1  0  0  0  0  0999 V2000
   60.3320   26.8930   46.7150 C   0  0  0  0  0  0  0  0  0  0  0  0
   59.3380   26.4900   45.7210 N   0  0  0  0  0  0  0  0  0  0  0  0
   58.2520   27.1860   45.6010 C   0  0  0  0  0  0  0  0  0  0  0  0
   56.9760   26.7080   45.5960 N   0  0  0  0  0  0  0  0  0  0  0  0
   56.1670   27.7540   45.4510 N   0  0  0  0  0  0  0  0  0  0  0  0
   56.9220   28.8810   45.3660 C   0  0  0  0  0  0  0  0  0  0  0  0
   56.4220   30.0620   45.2200 N   0  0  0  0  0  0  0  0  0  0  0  0
   57.0220   31.0190   44.3540 C   0  0  0  0  0  0  0  0  0  0  0  0
   57.6590   32.1570   44.8100 C   0  0  0  0  0  0  0  0  0  0  0  0
   57.7330   32.4160   46.2730 C   0  0  0  0  0  0  0  0  0  0  0  0
   58.2040   33.0140   43.8690 C   0  0  0  0  0  0  0  0  0  0  0  0
   58.1110   32.7320   42.5100 C   0  0  0  0  0  0  0  0  0  0  0  0
   57.4720   31.5900   42.0620 C   0  0  0  0  0  0  0  0  0  0  0  0
   56.9320   30.7420   42.9870 C   0  0  0  0  0  0  0  0  0  0  0  0
   56.2430   29.5110   42.4950 C   0  0  0  0  0  0  0  0  0  0  0  0
   58.2120   28.5430   45.4570 N   0  0  0  0  0  0  0  0  0  0  0  0
   59.9279   26.7292   47.7249 H   0  0  0  0  0  0  0  0  0  0  0  0
   61.2453   26.2941   46.5839 H   0  0  0  0  0  0  0  0  0  0  0  0
   60.5704   27.9588   46.5839 H   0  0  0  0  0  0  0  0  0  0  0  0
   56.7410   25.7010   45.6910 H   0  0  0  0  0  0  0  0  0  0  0  0
   55.1430   27.6640   45.4170 H   0  0  0  0  0  0  0  0  0  0  0  0
   57.4710   31.4991   46.8214 H   0  0  0  0  0  0  0  0  0  0  0  0
   58.7549   32.7234   46.5397 H   0  0  0  0  0  0  0  0  0  0  0  0
   57.0278   33.2169   46.5397 H   0  0  0  0  0  0  0  0  0  0  0  0
   58.7168   33.9291   44.2001 H   0  0  0  0  0  0  0  0  0  0  0  0
   58.5522   33.4275   41.7808 H   0  0  0  0  0  0  0  0  0  0  0  0
   57.4003   31.3699   40.9866 H   0  0  0  0  0  0  0  0  0  0  0  0
   55.9071   28.9109   43.3535 H   0  0  0  0  0  0  0  0  0  0  0  0
   55.3736   29.7966   41.8846 H   0  0  0  0  0  0  0  0  0  0  0  0
   56.9410   28.9192   41.8846 H   0  0  0  0  0  0  0  0  0  0  0  0
   59.0150   29.2030   45.4220 H   0  0  0  0  0  0  0  0  0  0  0  0
  1  2  1  0
  2  3  2  0
  3  4  1  0
  4  5  1  0
  5  6  1  0
  6  7  2  0
  7  8  1  0
  8  9  2  0
  9 10  1  0
  9 11  1  0
 11 12  2  0
 12 13  1  0
 13 14  2  0
 14 15  1  0
  6 16  1  0
 16  3  1  0
 14  8  1  0
  1 17  1  0
  1 18  1  0
  1 19  1  0
  4 20  1  0
  5 21  1  0
 10 22  1  0
 10 23  1  0
 10 24  1  0
 11 25  1  0
 12 26  1  0
 13 27  1  0
 15 28  1  0
 15 29  1  0
 15 30  1  0
 16 31  1  0
M  END
>  <smiles>  (7) 
CN=c1[nH][nH]c(=Nc2c(C)cccc2C)[nH]1

>  <score_type>  (7) 
oracle

>  <origin>  (7) 
adg

>  <m_score__min__energy>  (7) 
-5.7199999999999998

>  <m_primary>  (7) 
energy

$$$$
7:0
     RDKit          3D

 42 44  0  0  0  0  0  0  0  0999 V2000
   65.7310   32.8380   50.3990 N   0  0  0  0  0  0  0  0  0  0  0  0
   64.7850   32.9900   49.7490 C   0  0  0  0  0  0  0  0  0  0  0  0
   63.6050   33.1790   48.9390 C   0  0  0  0  0  0  0  0  0  0  0  0
   63.7400   33.1380   47.5460 C   0  0  0  0  0  0  0  0  0  0  0  0
   62.6280   33.3130   46.7220 C   0  0  0  0  0  0  0  0  0  0  0  0
   61.3630   33.5270   47.2810 C   0  0  0  0  0  0  0  0  0  0  0  0
   60.2220   33.7140   46.4260 N   0  0  0  0  0  0  0  0  0  0  0  0
   59.8310   35.0900   46.0920 C   0  0  0  0  0  0  0  0  0  0  0  0
   58.9110   35.1410   44.8720 C   0  0  0  0  0  0  0  0  0  0  0  0
   57.7300   34.1960   45.0700 C   0  0  0  0  0  0  0  0  0  0  0  0
   58.2040   32.7400   45.1460 C   0  0  2  0  0  0  0  0  0  0  0  0
   57.0550   31.8980   45.5310 N   0  0  0  0  0  0  0  0  0  0  0  0
   56.8420   30.5590   44.4400 S   0  0  0  0  0  0  0  0  0  0  0  0
   57.1010   31.0140   43.0320 O   0  0  0  0  0  0  0  0  0  0  0  0
   55.4380   30.0330   44.5400 O   0  0  0  0  0  0  0  0  0  0  0  0
   57.9760   29.2840   44.8480 C   0  0  0  0  0  0  0  0  0  0  0  0
   59.3310   29.2890   44.5580 C   0  0  0  0  0  0  0  0  0  0  0  0
   59.9900   28.1420   45.0170 C   0  0  0  0  0  0  0  0  0  0  0  0
   59.1530   27.2410   45.6650 C   0  0  0  0  0  0  0  0  0  0  0  0
   57.5920   27.8700   45.6680 S   0  0  0  0  0  0  0  0  0  0  0  0
   59.3690   32.5900   46.1070 C   0  0  0  0  0  0  0  0  0  0  0  0
   59.6580   31.4430   46.5450 O   0  0  0  0  0  0  0  0  0  0  0  0
   61.2210   33.5750   48.6760 C   0  0  0  0  0  0  0  0  0  0  0  0
   62.3340   33.4020   49.5220 C   0  0  0  0  0  0  0  0  0  0  0  0
   62.1660   33.4520   51.0280 C   0  0  0  0  0  0  0  0  0  0  0  0
   60.8730   33.7850   51.3930 F   0  0  0  0  0  0  0  0  0  0  0  0
   62.4660   32.2150   51.5690 F   0  0  0  0  0  0  0  0  0  0  0  0
   63.0240   34.3990   51.5580 F   0  0  0  0  0  0  0  0  0  0  0  0
   64.7300   32.9666   47.0981 H   0  0  0  0  0  0  0  0  0  0  0  0
   62.7459   33.2827   45.6288 H   0  0  0  0  0  0  0  0  0  0  0  0
   59.3051   35.5291   46.9526 H   0  0  0  0  0  0  0  0  0  0  0  0
   60.7440   35.6557   45.8544 H   0  0  0  0  0  0  0  0  0  0  0  0
   58.5382   36.1674   44.7394 H   0  0  0  0  0  0  0  0  0  0  0  0
   59.4759   34.8315   43.9803 H   0  0  0  0  0  0  0  0  0  0  0  0
   57.2130   34.4561   46.0054 H   0  0  0  0  0  0  0  0  0  0  0  0
   57.0478   34.3002   44.2134 H   0  0  0  0  0  0  0  0  0  0  0  0
   58.5765   32.4140   44.1636 H   0  0  0  0  0  0  0  0  0  0  0  0
   57.1620   31.5240   46.5020 H   0  0  0  0  0  0  0  0  0  0  0  0
   59.8356   30.1075   44.0237 H   0  0  0  0  0  0  0  0  0  0  0  0
   61.0676   27.9702   44.8780 H   0  0  0  0  0  0  0  0  0  0  0  0
   59.4593   26.2792   46.1021 H   0  0  0  0  0  0  0  0  0  0  0  0
   60.2276   33.7500   49.1148 H   0  0  0  0  0  0  0  0  0  0  0  0
  1  2  3  0
  2  3  1  0
  3  4  2  0
  4  5  1  0
  5  6  2  0
  6  7  1  0
  7  8  1  0
  8  9  1  0
  9 10  1  0
 10 11  1  0
 11 12  1  0
 12 13  1  0
 13 14  2  0
 13 15  2  0
 13 16  1  0
 16 17  2  0
 17 18  1  0
 18 19  2  0
 19 20  1  0
 11 21  1  0
 21 22  2  0
  6 23  1  0
 23 24  2  0
 24 25  1  0
 25 26  1  0
 25 27  1  0
 25 28  1  0
 24  3  1  0
 21  7  1  0
 20 16  1  0
  4 29  1  0
  5 30  1  0
  8 31  1  0
  8 32  1  0
  9 33  1  0
  9 34  1  0
 10 35  1  0
 10 36  1  0
 11 37  1  6
 12 38  1  0
 17 39  1  0
 18 40  1  0
 19 41  1  0
 23 42  1  0
M  END
>  <UniqueID>  (8) 
7

>  <SMILES>  (8) 
N#Cc1ccc(N2CCC[C@H](NS(=O)(=O)c3cccs3)C2=O)cc1C(F)(F)F

>  <Energy>  (8) 
76.70737727901735

>  <Genealogy>  (8) 
N#Cc1ccc(N2CCC[C@H](NS(=O)(=O)c3cccs3)C2=O)cc1C(F)(F)F (chirality)
N#Cc1ccc(N2CCC[C@H](NS(=O)(=O)c3cccs3)C2=O)cc1C(F)(F)F (3D coordinates assigned)
N#Cc1ccc(N2CCC[C@H](NS(=O)(=O)c3cccs3)C2=O)cc1C(F)(F)F (nonaromatic ring conformer: 76.70737727901735 kcal/mol)

>  <smiles>  (8) 
N#Cc1ccc(N2CCCC(NS(=O)(=O)c3cccs3)C2=O)cc1C(F)(F)F

>  <score_type>  (8) 
oracle

>  <origin>  (8) 
adg

>  <m_score__min__energy>  (8) 
-8.8399999999999999

>  <m_primary>  (8) 
energy

$$$$
8:0
     RDKit          3D

 49 52  0  0  0  0  0  0  0  0999 V2000
   55.8910   27.7550   44.7610 H   0  0  0  0  0  0  0  0  0  0  0  0
   56.4270   27.5290   45.6250 N   0  0  0  0  0  0  0  0  0  0  0  0
   57.4590   28.1910   46.0530 C   0  0  0  0  0  0  0  0  0  0  0  0
   58.3500   27.5430   46.8480 N   0  0  0  0  0  0  0  0  0  0  0  0
   59.4190   28.1650   47.4080 C   0  0  0  0  0  0  0  0  0  0  0  0
   60.1169   27.5925   48.0366 H   0  0  0  0  0  0  0  0  0  0  0  0
   59.6390   29.5330   47.1900 C   0  0  0  0  0  0  0  0  0  0  0  0
   60.8010   30.2220   47.8040 C   0  0  0  0  0  0  0  0  0  0  0  0
   61.3310   30.0270   49.0720 C   0  0  0  0  0  0  0  0  0  0  0  0
   60.9499   29.3133   49.8173 H   0  0  0  0  0  0  0  0  0  0  0  0
   62.3850   30.8480   49.2480 N   0  0  0  0  0  0  0  0  0  0  0  0
   62.5330   31.5520   48.1360 N   0  0  0  0  0  0  0  0  0  0  0  0
   63.6000   32.5210   47.9300 C   0  0  0  0  0  0  0  0  0  0  0  0
   63.9773   32.8637   48.9048 H   0  0  0  0  0  0  0  0  0  0  0  0
   64.4182   32.0508   47.3648 H   0  0  0  0  0  0  0  0  0  0  0  0
   63.2106   33.3806   47.3648 H   0  0  0  0  0  0  0  0  0  0  0  0
   61.5970   31.2000   47.2360 C   0  0  0  0  0  0  0  0  0  0  0  0
   61.4844   31.6174   46.2245 H   0  0  0  0  0  0  0  0  0  0  0  0
   58.7420   30.2240   46.3620 C   0  0  0  0  0  0  0  0  0  0  0  0
   58.8937   31.2975   46.1758 H   0  0  0  0  0  0  0  0  0  0  0  0
   57.6530   29.5660   45.7670 C   0  0  0  0  0  0  0  0  0  0  0  0
   56.7920   30.3330   44.8380 C   0  0  0  0  0  0  0  0  0  0  0  0
   55.7250   29.8160   44.4060 O   0  0  0  0  0  0  0  0  0  0  0  0
   57.1240   31.6830   44.4950 N   0  0  0  0  0  0  0  0  0  0  0  0
   56.6630   32.8450   45.2460 C   0  0  0  0  0  0  0  0  0  0  0  0
   56.2982   33.6092   44.5439 H   0  0  0  0  0  0  0  0  0  0  0  0
   55.8519   32.5352   45.9214 H   0  0  0  0  0  0  0  0  0  0  0  0
   57.7890   33.4200   46.0650 C   0  0  0  0  0  0  0  0  0  0  0  0
   58.6500   34.3700   45.4980 C   0  0  0  0  0  0  0  0  0  0  0  0
   58.4893   34.7061   44.4630 H   0  0  0  0  0  0  0  0  0  0  0  0
   59.7100   34.8910   46.2410 C   0  0  0  0  0  0  0  0  0  0  0  0
   60.3860   35.6309   45.7876 H   0  0  0  0  0  0  0  0  0  0  0  0
   59.9150   34.4760   47.5580 C   0  0  0  0  0  0  0  0  0  0  0  0
   60.7542   34.8899   48.1363 H   0  0  0  0  0  0  0  0  0  0  0  0
   59.0570   33.5330   48.1510 C   0  0  0  0  0  0  0  0  0  0  0  0
   59.2660   33.1060   49.5550 C   0  0  0  0  0  0  0  0  0  0  0  0
   59.5740   33.9620   50.4290 O   0  0  0  0  0  0  0  0  0  0  0  0
   59.1060   31.7230   49.9170 N   0  0  0  0  0  0  0  0  0  0  0  0
   58.1370   31.2220   50.6230 C   0  0  0  0  0  0  0  0  0  0  0  0
   57.0990   31.9280   51.1120 N   0  0  0  0  0  0  0  0  0  0  0  0
   56.4080   30.9570   51.7460 C   0  0  0  0  0  0  0  0  0  0  0  0
   55.0980   31.1840   52.4220 C   0  0  0  0  0  0  0  0  0  0  0  0
   55.2391   31.1595   53.5126 H   0  0  0  0  0  0  0  0  0  0  0  0
   54.6977   32.1649   52.1260 H   0  0  0  0  0  0  0  0  0  0  0  0
   54.3910   30.3950   52.1260 H   0  0  0  0  0  0  0  0  0  0  0  0
   56.9840   29.7440   51.6270 N   0  0  0  0  0  0  0  0  0  0  0  0
   58.0600   29.9540   50.9310 O   0  0  0  0  0  0  0  0  0  0  0  0
   57.9940   33.0070   47.3910 C   0  0  0  0  0  0  0  0  0  0  0  0
   57.3178   32.2652   47.8410 H   0  0  0  0  0  0  0  0  0  0  0  0
  1  2  1  0
  2  3  2  0
  3  4  1  0
  4  5  1  0
  5  6  1  0
  5  7  2  0
  7  8  1  0
  8  9  1  0
  9 10  1  0
  9 11  2  0
 11 12  1  0
 12 13  1  0
 13 14  1  0
 13 15  1  0
 13 16  1  0
 12 17  1  0
 17 18  1  0
  7 19  1  0
 19 20  1  0
 19 21  2  0
 21 22  1  0
 22 23  2  0
 22 24  1  0
 24 25  1  0
 25 26  1  0
 25 27  1  0
 25 28  1  0
 28 29  2  0
 29 30  1  0
 29 31  1  0
 31 32  1  0
 31 33  2  0
 33 34  1  0
 33 35  1  0
 35 36  1  0
 36 37  2  0
 36 38  1  0
 38 39  2  3
 39 40  1  0
 40 41  2  0
 41 42  1  0
 42 43  1  0
 42 44  1  0
 42 45  1  0
 41 46  1  0
 46 47  1  0
 35 48  2  0
 48 49  1  0
 21  3  1  0
 48 28  1  0
 17  8  2  0
 47 39  1  0
M  CHG  3   4  -1  24  -1  46  -1
M  END
>  <UniqueID>  (9) 
8

>  <SMILES>  (9) 
[H]/N=c1/[n-]cc(-c2cnn(C)c2)cc1C(=O)[N-]Cc1cccc(C(=O)N=c2nc(C)[n-]o2)c1

>  <Energy>  (9) 
125.13057100403078

>  <Genealogy>  (9) 
Cc1nc(=NC(=O)c2cccc(C[N-]C(=O)c3cc(-c4cnn(C)c4)c[n-]c3=N)c2)o[n-]1 (protonated)
[H]/N=c1/[n-]cc(-c2cnn(C)c2)cc1C(=O)[N-]Cc1cccc(C(=O)N=c2nc(C)[n-]o2)c1 (cis-trans isomerization)
[H]/N=c1/[n-]cc(-c2cnn(C)c2)cc1C(=O)[N-]Cc1cccc(C(=O)N=c2nc(C)[n-]o2)c1 (3D coordinates assigned)
[H]/N=c1/[n-]cc(-c2cnn(C)c2)cc1C(=O)[N-]Cc1cccc(C(=O)N=c2nc(C)[n-]o2)c1 (optimized conformer: 125.13057100403078 kcal/mol)

>  <smiles>  (9) 
Cc1nc(=NC(=O)c2cccc(CNC(=O)c3cc(-c4cnn(C)c4)c[nH]c3=N)c2)o[nH]1

>  <score_type>  (9) 
oracle

>  <origin>  (9) 
adg

>  <m_score__min__energy>  (9) 
-13.619999999999999

>  <m_primary>  (9) 
energy

$$$$
9:0
     RDKit          3D

 35 37  0  0  0  0  0  0  0  0999 V2000
   55.5870   30.8110   52.3480 C   0  0  0  0  0  0  0  0  0  0  0  0
   56.7300   30.1000   51.8890 O   0  0  0  0  0  0  0  0  0  0  0  0
   57.7220   30.6900   51.0990 C   0  0  0  0  0  0  0  0  0  0  0  0
   57.9900   32.0530   51.2380 C   0  0  0  0  0  0  0  0  0  0  0  0
   58.9810   32.6430   50.4520 C   0  0  0  0  0  0  0  0  0  0  0  0
   59.7080   31.8650   49.5380 C   0  0  0  0  0  0  0  0  0  0  0  0
   60.7260   32.4560   48.7100 N   0  0  0  0  0  0  0  0  0  0  0  0
   62.0140   32.6200   49.0610 C   0  0  0  0  0  0  0  0  0  0  0  0
   62.6950   33.0900   47.9610 C   0  0  0  0  0  0  0  0  0  0  0  0
   64.1410   33.4530   47.9200 C   0  0  0  0  0  0  0  0  0  0  0  0
   61.8480   33.2520   46.9260 N   0  0  0  0  0  0  0  0  0  0  0  0
   60.6520   32.8530   47.4140 C   0  0  0  0  0  0  0  0  0  0  0  0
   59.4130   32.9320   46.6100 C   0  0  0  0  0  0  0  0  0  0  0  0
   58.9000   31.7730   46.0050 C   0  0  0  0  0  0  0  0  0  0  0  0
   57.7380   31.8360   45.2300 C   0  0  0  0  0  0  0  0  0  0  0  0
   57.0870   33.0580   45.0400 C   0  0  0  0  0  0  0  0  0  0  0  0
   57.6030   34.2200   45.6190 C   0  0  0  0  0  0  0  0  0  0  0  0
   58.7660   34.1610   46.3940 C   0  0  0  0  0  0  0  0  0  0  0  0
   59.3960   30.5030   49.4190 C   0  0  0  0  0  0  0  0  0  0  0  0
   58.4270   29.9520   50.1960 N   0  0  0  0  0  0  0  0  0  0  0  0
   55.5765   30.8175   53.4479 H   0  0  0  0  0  0  0  0  0  0  0  0
   55.6246   31.8453   51.9755 H   0  0  0  0  0  0  0  0  0  0  0  0
   54.6758   30.3201   51.9755 H   0  0  0  0  0  0  0  0  0  0  0  0
   57.4241   32.6577   51.9619 H   0  0  0  0  0  0  0  0  0  0  0  0
   59.1922   33.7182   50.5490 H   0  0  0  0  0  0  0  0  0  0  0  0
   62.4464   32.4149   50.0514 H   0  0  0  0  0  0  0  0  0  0  0  0
   64.5241   33.5492   48.9466 H   0  0  0  0  0  0  0  0  0  0  0  0
   64.7014   32.6677   47.3916 H   0  0  0  0  0  0  0  0  0  0  0  0
   64.2640   34.4099   47.3916 H   0  0  0  0  0  0  0  0  0  0  0  0
   59.4151   30.8107   46.1416 H   0  0  0  0  0  0  0  0  0  0  0  0
   57.3354   30.9220   44.7689 H   0  0  0  0  0  0  0  0  0  0  0  0
   56.1694   33.1048   44.4352 H   0  0  0  0  0  0  0  0  0  0  0  0
   57.0939   35.1829   45.4652 H   0  0  0  0  0  0  0  0  0  0  0  0
   59.1762   35.0808   46.8365 H   0  0  0  0  0  0  0  0  0  0  0  0
   59.9379   29.8782   48.6937 H   0  0  0  0  0  0  0  0  0  0  0  0
  1  2  1  0
  2  3  1  0
  3  4  2  0
  4  5  1  0
  5  6  2  0
  6  7  1  0
  7  8  1  0
  8  9  2  0
  9 10  1  0
  9 11  1  0
 11 12  2  0
 12 13  1  0
 13 14  2  0
 14 15  1  0
 15 16  2  0
 16 17  1  0
 17 18  2  0
  6 19  1  0
 19 20  2  0
 20  3  1  0
 12  7  1  0
 18 13  1  0
  1 21  1  0
  1 22  1  0
  1 23  1  0
  4 24  1  0
  5 25  1  0
  8 26  1  0
 10 27  1  0
 10 28  1  0
 10 29  1  0
 14 30  1  0
 15 31  1  0
 16 32  1  0
 17 33  1  0
 18 34  1  0
 19 35  1  0
M  END
>  <UniqueID>  (10) 
9

>  <SMILES>  (10) 
COc1ccc(-n2cc(C)nc2-c2ccccc2)cn1

>  <Energy>  (10) 
73.06283598038364

>  <Genealogy>  (10) 
COc1ccc(-n2cc(C)nc2-c2ccccc2)cn1 (3D coordinates assigned)
COc1ccc(-n2cc(C)nc2-c2ccccc2)cn1 (optimized conformer: 73.06283598038364 kcal/mol)

>  <smiles>  (10) 
COc1ccc(-n2cc(C)nc2-c2ccccc2)cn1

>  <score_type>  (10) 
oracle

>  <origin>  (10) 
adg

>  <m_score__min__energy>  (10) 
-6.0800000000000001

>  <m_primary>  (10) 
energy

$$$$
10:0
     RDKit          3D

 22 24  0  0  0  0  0  0  0  0999 V2000
   59.4203   22.9697   45.9736 H   0  0  0  0  0  0  0  0  0  0  0  0
   58.6430   23.7470   45.9340 C   0  0  0  0  0  0  0  0  0  0  0  0
   58.8820   25.0040   45.4740 N   0  0  0  0  0  0  0  0  0  0  0  0
   57.6810   25.5930   45.5860 C   0  0  0  0  0  0  0  0  0  0  0  0
   57.2870   26.9080   45.3140 C   0  0  0  0  0  0  0  0  0  0  0  0
   58.0740   27.8280   44.8290 N   0  0  0  0  0  0  0  0  0  0  0  0
   57.9390   29.2500   44.9600 C   0  0  0  0  0  0  0  0  0  0  0  0
   57.1550   29.9540   44.0370 C   0  0  0  0  0  0  0  0  0  0  0  0
   56.6145   29.4093   43.2489 H   0  0  0  0  0  0  0  0  0  0  0  0
   57.0570   31.3470   44.1140 C   0  0  0  0  0  0  0  0  0  0  0  0
   56.4256   31.8939   43.3983 H   0  0  0  0  0  0  0  0  0  0  0  0
   57.7610   32.0450   45.1000 C   0  0  0  0  0  0  0  0  0  0  0  0
   57.6280   33.9480   45.2040 Br  0  0  0  0  0  0  0  0  0  0  0  0
   58.5730   31.3500   46.0030 C   0  0  0  0  0  0  0  0  0  0  0  0
   59.1330   31.8995   46.7740 H   0  0  0  0  0  0  0  0  0  0  0  0
   58.6730   29.9580   45.9260 C   0  0  0  0  0  0  0  0  0  0  0  0
   59.3281   29.4156   46.6236 H   0  0  0  0  0  0  0  0  0  0  0  0
   55.9980   27.2330   45.6210 N   0  0  0  0  0  0  0  0  0  0  0  0
   55.1460   26.3330   46.1370 N   0  0  0  0  0  0  0  0  0  0  0  0
   55.5240   25.0750   46.3870 N   0  0  0  0  0  0  0  0  0  0  0  0
   56.7970   24.7190   46.1060 C   0  0  0  0  0  0  0  0  0  0  0  0
   57.3640   23.5300   46.3410 N   0  0  0  0  0  0  0  0  0  0  0  0
  1  2  1  0
  2  3  2  0
  3  4  1  0
  4  5  1  0
  5  6  2  0
  6  7  1  0
  7  8  2  0
  8  9  1  0
  8 10  1  0
 10 11  1  0
 10 12  2  0
 12 13  1  0
 12 14  1  0
 14 15  1  0
 14 16  2  0
 16 17  1  0
  5 18  1  0
 18 19  1  0
 19 20  2  0
 20 21  1  0
 21 22  1  0
 22  2  1  0
 21  4  2  0
 16  7  1  0
M  CHG  2  18  -1  22  -1
M  END
>  <UniqueID>  (11) 
10

>  <SMILES>  (11) 
Brc1ccc(/N=c2/[n-]nnc3[n-]cnc23)cc1

>  <Energy>  (11) 
74.62972860456993

>  <Genealogy>  (11) 
Brc1ccc(N=c2[n-]nnc3[n-]cnc23)cc1 (protonated)
Brc1ccc(/N=c2/[n-]nnc3[n-]cnc23)cc1 (cis-trans isomerization)
Brc1ccc(/N=c2/[n-]nnc3[n-]cnc23)cc1 (3D coordinates assigned)
Brc1ccc(/N=c2/[n-]nnc3[n-]cnc23)cc1 (optimized conformer: 74.62972860456993 kcal/mol)

>  <smiles>  (11) 
Brc1ccc(N=c2[nH]nnc3[nH]cnc23)cc1

>  <score_type>  (11) 
oracle

>  <origin>  (11) 
adg

>  <m_score__min__energy>  (11) 
-9.3499999999999996

>  <m_primary>  (11) 
energy

$$$$
11:0
     RDKit          3D

 40 42  0  0  0  0  0  0  0  0999 V2000
   56.3020   29.7160   43.0010 C   0  0  0  0  0  0  0  0  0  0  0  0
   56.9340   30.9010   43.6500 C   0  0  0  0  0  0  0  0  0  0  0  0
   57.8740   31.7380   43.0920 C   0  0  0  0  0  0  0  0  0  0  0  0
   58.1610   32.7120   43.9740 N   0  0  0  0  0  0  0  0  0  0  0  0
   57.3690   32.4250   45.0300 C   0  0  0  0  0  0  0  0  0  0  0  0
   57.3320   33.2570   46.2710 C   0  0  0  0  0  0  0  0  0  0  0  0
   58.6880   33.4930   46.7660 N   0  0  0  0  0  0  0  0  0  0  0  0
   59.2710   34.8140   46.9520 C   0  0  0  0  0  0  0  0  0  0  0  0
   60.5920   34.5390   47.6900 C   0  0  0  0  0  0  0  0  0  0  0  0
   60.6030   33.0970   47.8960 N   0  0  0  0  0  0  0  0  0  0  0  0
   59.5600   32.5500   47.3730 C   0  0  0  0  0  0  0  0  0  0  0  0
   59.3070   31.0660   47.4440 C   0  0  0  0  0  0  0  0  0  0  0  0
   60.1200   30.3130   46.3840 C   0  0  0  0  0  0  0  0  0  0  0  0
   59.3210   29.1660   45.8220 C   0  0  0  0  0  0  0  0  0  0  0  0
   59.6450   28.6180   44.5710 C   0  0  0  0  0  0  0  0  0  0  0  0
   58.8730   27.5830   44.0340 C   0  0  0  0  0  0  0  0  0  0  0  0
   57.7680   27.0940   44.7390 C   0  0  0  0  0  0  0  0  0  0  0  0
   57.4400   27.6320   45.9850 C   0  0  0  0  0  0  0  0  0  0  0  0
   58.2110   28.6640   46.5270 C   0  0  0  0  0  0  0  0  0  0  0  0
   56.6390   31.3470   44.8470 O   0  0  0  0  0  0  0  0  0  0  0  0
   55.9343   29.0265   43.7752 H   0  0  0  0  0  0  0  0  0  0  0  0
   55.4603   30.0464   42.3746 H   0  0  0  0  0  0  0  0  0  0  0  0
   57.0453   29.2011   42.3746 H   0  0  0  0  0  0  0  0  0  0  0  0
   58.3168   31.6283   42.0910 H   0  0  0  0  0  0  0  0  0  0  0  0
   56.8548   34.2223   46.0463 H   0  0  0  0  0  0  0  0  0  0  0  0
   56.7580   32.7227   47.0424 H   0  0  0  0  0  0  0  0  0  0  0  0
   59.4587   35.2983   45.9823 H   0  0  0  0  0  0  0  0  0  0  0  0
   58.6092   35.4935   47.5090 H   0  0  0  0  0  0  0  0  0  0  0  0
   61.4512   34.8506   47.0779 H   0  0  0  0  0  0  0  0  0  0  0  0
   60.6662   35.0966   48.6353 H   0  0  0  0  0  0  0  0  0  0  0  0
   61.3540   32.5820   48.4080 H   0  0  0  0  0  0  0  0  0  0  0  0
   59.5926   30.7007   48.4415 H   0  0  0  0  0  0  0  0  0  0  0  0
   58.2383   30.8857   47.2560 H   0  0  0  0  0  0  0  0  0  0  0  0
   60.3819   31.0048   45.5699 H   0  0  0  0  0  0  0  0  0  0  0  0
   61.0324   29.9151   46.8521 H   0  0  0  0  0  0  0  0  0  0  0  0
   60.5094   29.0041   44.0109 H   0  0  0  0  0  0  0  0  0  0  0  0
   59.1349   27.1528   43.0561 H   0  0  0  0  0  0  0  0  0  0  0  0
   57.1572   26.2852   44.3115 H   0  0  0  0  0  0  0  0  0  0  0  0
   56.5739   27.2432   46.5406 H   0  0  0  0  0  0  0  0  0  0  0  0
   57.9493   29.0857   47.5087 H   0  0  0  0  0  0  0  0  0  0  0  0
  1  2  1  0
  2  3  2  0
  3  4  1  0
  4  5  2  0
  5  6  1  0
  6  7  1  0
  7  8  1  0
  8  9  1  0
  9 10  1  0
 10 11  2  0
 11 12  1  0
 12 13  1  0
 13 14  1  0
 14 15  2  0
 15 16  1  0
 16 17  2  0
 17 18  1  0
 18 19  2  0
  5 20  1  0
 20  2  1  0
 11  7  1  0
 19 14  1  0
  1 21  1  0
  1 22  1  0
  1 23  1  0
  3 24  1  0
  6 25  1  0
  6 26  1  0
  8 27  1  0
  8 28  1  0
  9 29  1  0
  9 30  1  0
 10 31  1  0
 12 32  1  0
 12 33  1  0
 13 34  1  0
 13 35  1  0
 15 36  1  0
 16 37  1  0
 17 38  1  0
 18 39  1  0
 19 40  1  0
M  CHG  1  10   1
M  END
>  <UniqueID>  (12) 
11

>  <SMILES>  (12) 
Cc1cnc(CN2CC[NH+]=C2CCc2ccccc2)o1

>  <Energy>  (12) 
73.91016433802906

>  <Genealogy>  (12) 
Cc1cnc(CN2CC[NH+]=C2CCc2ccccc2)o1 (protonated)
Cc1cnc(CN2CC[NH+]=C2CCc2ccccc2)o1 (3D coordinates assigned)
Cc1cnc(CN2CC[NH+]=C2CCc2ccccc2)o1 (nonaromatic ring conformer: 73.91016433802906 kcal/mol)

>  <smiles>  (12) 
Cc1cnc(CN2CCN=C2CCc2ccccc2)o1

>  <score_type>  (12) 
oracle

>  <origin>  (12) 
adg

>  <m_score__min__energy>  (12) 
-5.1100000000000003

>  <m_primary>  (12) 
energy

$$$$
12:0
     RDKit          3D

 51 54  0  0  0  0  0  0  0  0999 V2000
   55.8050   25.8130   45.9640 C   0  0  0  0  0  0  0  0  0  0  0  0
   55.8630   27.2000   45.6450 O   0  0  0  0  0  0  0  0  0  0  0  0
   57.0380   27.9750   45.6560 C   0  0  0  0  0  0  0  0  0  0  0  0
   58.0910   27.7070   46.5520 C   0  0  0  0  0  0  0  0  0  0  0  0
   59.2430   28.5080   46.5700 C   0  0  0  0  0  0  0  0  0  0  0  0
   60.3020   28.3030   47.6220 C   0  0  0  0  0  0  0  0  0  0  0  0
   59.8380   28.8390   48.9100 N   0  0  0  0  0  0  0  0  0  0  0  0
   60.8480   29.6900   49.5640 C   0  0  0  0  0  0  0  0  0  0  0  0
   61.1150   30.8960   48.7060 C   0  0  0  0  0  0  0  0  0  0  0  0
   62.4060   31.4290   48.6030 C   0  0  0  0  0  0  0  0  0  0  0  0
   62.6410   32.5480   47.8000 C   0  0  0  0  0  0  0  0  0  0  0  0
   61.5930   33.1330   47.0850 C   0  0  0  0  0  0  0  0  0  0  0  0
   60.2900   32.6030   47.1590 C   0  0  0  0  0  0  0  0  0  0  0  0
   59.2040   33.1920   46.4050 N   0  0  0  0  0  0  0  0  0  0  0  0
   59.3960   34.0150   45.2170 C   0  0  0  0  0  0  0  0  0  0  0  0
   58.0280   34.5830   44.8750 C   0  0  0  0  0  0  0  0  0  0  0  0
   57.0210   33.7190   45.6280 C   0  0  0  0  0  0  0  0  0  0  0  0
   57.7990   33.0670   46.7620 C   0  0  0  0  0  0  0  0  0  0  0  0
   60.0650   31.4820   47.9810 C   0  0  0  0  0  0  0  0  0  0  0  0
   59.3570   29.5770   45.6710 C   0  0  0  0  0  0  0  0  0  0  0  0
   58.3270   29.8530   44.7650 C   0  0  0  0  0  0  0  0  0  0  0  0
   58.4260   30.9330   43.8750 C   0  0  0  0  0  0  0  0  0  0  0  0
   57.4060   31.2110   43.0240 N   0  0  0  0  0  0  0  0  0  0  0  0
   56.2670   30.4700   43.0020 C   0  0  0  0  0  0  0  0  0  0  0  0
   56.1210   29.3800   43.8640 C   0  0  0  0  0  0  0  0  0  0  0  0
   57.1570   29.0570   44.7580 C   0  0  0  0  0  0  0  0  0  0  0  0
   55.7998   25.6880   47.0569 H   0  0  0  0  0  0  0  0  0  0  0  0
   54.8879   25.3775   45.5407 H   0  0  0  0  0  0  0  0  0  0  0  0
   56.6826   25.3024   45.5407 H   0  0  0  0  0  0  0  0  0  0  0  0
   58.0093   26.8583   47.2471 H   0  0  0  0  0  0  0  0  0  0  0  0
   60.5081   27.2276   47.7274 H   0  0  0  0  0  0  0  0  0  0  0  0
   61.2194   28.8295   47.3199 H   0  0  0  0  0  0  0  0  0  0  0  0
   58.9800   29.4160   48.7410 H   0  0  0  0  0  0  0  0  0  0  0  0
   60.4745   30.0139   50.5467 H   0  0  0  0  0  0  0  0  0  0  0  0
   61.7792   29.1197   49.6969 H   0  0  0  0  0  0  0  0  0  0  0  0
   63.2367   30.9657   49.1555 H   0  0  0  0  0  0  0  0  0  0  0  0
   63.6546   32.9698   47.7305 H   0  0  0  0  0  0  0  0  0  0  0  0
   61.7872   34.0159   46.4583 H   0  0  0  0  0  0  0  0  0  0  0  0
   60.1062   34.8285   45.4263 H   0  0  0  0  0  0  0  0  0  0  0  0
   59.8086   33.4284   44.3829 H   0  0  0  0  0  0  0  0  0  0  0  0
   57.9550   35.6305   45.2027 H   0  0  0  0  0  0  0  0  0  0  0  0
   57.8429   34.5698   43.7908 H   0  0  0  0  0  0  0  0  0  0  0  0
   56.2076   34.3411   46.0298 H   0  0  0  0  0  0  0  0  0  0  0  0
   56.5600   32.9680   44.9695 H   0  0  0  0  0  0  0  0  0  0  0  0
   57.5979   33.5850   47.7113 H   0  0  0  0  0  0  0  0  0  0  0  0
   57.5089   32.0147   46.8981 H   0  0  0  0  0  0  0  0  0  0  0  0
   59.0522   31.0594   48.0562 H   0  0  0  0  0  0  0  0  0  0  0  0
   60.2616   30.2028   45.6776 H   0  0  0  0  0  0  0  0  0  0  0  0
   59.3326   31.5560   43.8669 H   0  0  0  0  0  0  0  0  0  0  0  0
   55.4576   30.7291   42.3036 H   0  0  0  0  0  0  0  0  0  0  0  0
   55.2006   28.7779   43.8433 H   0  0  0  0  0  0  0  0  0  0  0  0
  1  2  1  0
  2  3  1  0
  3  4  2  0
  4  5  1  0
  5  6  1  0
  6  7  1  0
  7  8  1  0
  8  9  1  0
  9 10  2  0
 10 11  1  0
 11 12  2  0
 12 13  1  0
 13 14  1  0
 14 15  1  0
 15 16  1  0
 16 17  1  0
 17 18  1  0
 13 19  2  0
  5 20  2  0
 20 21  1  0
 21 22  2  0
 22 23  1  0
 23 24  2  0
 24 25  1  0
 25 26  2  0
 26  3  1  0
 19  9  1  0
 26 21  1  0
 18 14  1  0
  1 27  1  0
  1 28  1  0
  1 29  1  0
  4 30  1  0
  6 31  1  0
  6 32  1  0
  7 33  1  0
  8 34  1  0
  8 35  1  0
 10 36  1  0
 11 37  1  0
 12 38  1  0
 15 39  1  0
 15 40  1  0
 16 41  1  0
 16 42  1  0
 17 43  1  0
 17 44  1  0
 18 45  1  0
 18 46  1  0
 19 47  1  0
 20 48  1  0
 22 49  1  0
 24 50  1  0
 25 51  1  0
M  END
>  <UniqueID>  (13) 
12

>  <SMILES>  (13) 
COc1cc(CNCc2cccc(N3CCCC3)c2)cc2cnccc12

>  <Energy>  (13) 
54.81367700036509

>  <Genealogy>  (13) 
COc1cc(CNCc2cccc(N3CCCC3)c2)cc2cnccc12 (3D coordinates assigned)
COc1cc(CNCc2cccc(N3CCCC3)c2)cc2cnccc12 (nonaromatic ring conformer: 54.81367700036509 kcal/mol)

>  <smiles>  (13) 
COc1cc(CNCc2cccc(N3CCCC3)c2)cc2cnccc12

>  <score_type>  (13) 
oracle

>  <origin>  (13) 
adg

>  <m_score__min__energy>  (13) 
-8.8499999999999996

>  <m_primary>  (13) 
energy

$$$$
13:0
     RDKit          3D

 43 46  0  0  0  0  0  0  0  0999 V2000
   57.2880   25.0860   43.8820 C   0  0  0  0  0  0  0  0  0  0  0  0
   57.3080   25.7070   45.1640 O   0  0  0  0  0  0  0  0  0  0  0  0
   57.9480   26.9230   45.4450 C   0  0  0  0  0  0  0  0  0  0  0  0
   57.9150   27.4050   46.7570 C   0  0  0  0  0  0  0  0  0  0  0  0
   58.5390   28.6100   47.0890 C   0  0  0  0  0  0  0  0  0  0  0  0
   59.2130   29.3560   46.1080 C   0  0  0  0  0  0  0  0  0  0  0  0
   59.8610   30.6450   46.4710 C   0  0  0  0  0  0  0  0  0  0  0  0
   61.0740   30.6090   47.0660 C   0  0  0  0  0  0  0  0  0  0  0  0
   61.8650   31.7780   47.5050 C   0  0  0  0  0  0  0  0  0  0  0  0
   63.2630   31.7050   47.4380 C   0  0  0  0  0  0  0  0  0  0  0  0
   64.0480   32.7410   47.9410 C   0  0  0  0  0  0  0  0  0  0  0  0
   63.4280   33.8400   48.5320 C   0  0  0  0  0  0  0  0  0  0  0  0
   62.0720   33.8960   48.6160 N   0  0  0  0  0  0  0  0  0  0  0  0
   61.2780   32.9000   48.1230 C   0  0  0  0  0  0  0  0  0  0  0  0
   59.8530   33.0030   48.2290 N   0  0  0  0  0  0  0  0  0  0  0  0
   59.2410   33.4360   49.4860 C   0  0  0  0  0  0  0  0  0  0  0  0
   59.0940   33.0090   47.0140 C   0  0  0  0  0  0  0  0  0  0  0  0
   58.3250   34.1390   46.6800 C   0  0  0  0  0  0  0  0  0  0  0  0
   57.6280   34.1900   45.4730 C   0  0  0  0  0  0  0  0  0  0  0  0
   57.6930   33.1180   44.5850 C   0  0  0  0  0  0  0  0  0  0  0  0
   58.4460   31.9880   44.9070 C   0  0  0  0  0  0  0  0  0  0  0  0
   59.1520   31.9130   46.1250 C   0  0  0  0  0  0  0  0  0  0  0  0
   59.2430   28.8760   44.7860 C   0  0  0  0  0  0  0  0  0  0  0  0
   58.6180   27.6690   44.4570 C   0  0  0  0  0  0  0  0  0  0  0  0
   57.2528   23.9934   44.0044 H   0  0  0  0  0  0  0  0  0  0  0  0
   56.4002   25.4215   43.3259 H   0  0  0  0  0  0  0  0  0  0  0  0
   58.1956   25.3636   43.3259 H   0  0  0  0  0  0  0  0  0  0  0  0
   57.3925   26.8297   47.5355 H   0  0  0  0  0  0  0  0  0  0  0  0
   58.5023   28.9770   48.1253 H   0  0  0  0  0  0  0  0  0  0  0  0
   61.5142   29.6160   47.2400 H   0  0  0  0  0  0  0  0  0  0  0  0
   63.7435   30.8249   46.9858 H   0  0  0  0  0  0  0  0  0  0  0  0
   65.1447   32.6916   47.8722 H   0  0  0  0  0  0  0  0  0  0  0  0
   64.0370   34.6643   48.9316 H   0  0  0  0  0  0  0  0  0  0  0  0
   61.6380   34.7380   49.0580 H   0  0  0  0  0  0  0  0  0  0  0  0
   59.8148   33.0300   50.3321 H   0  0  0  0  0  0  0  0  0  0  0  0
   59.2429   34.5349   49.5353 H   0  0  0  0  0  0  0  0  0  0  0  0
   58.2054   33.0685   49.5353 H   0  0  0  0  0  0  0  0  0  0  0  0
   58.2731   34.9889   47.3764 H   0  0  0  0  0  0  0  0  0  0  0  0
   57.0270   35.0764   45.2220 H   0  0  0  0  0  0  0  0  0  0  0  0
   57.1502   33.1625   43.6293 H   0  0  0  0  0  0  0  0  0  0  0  0
   58.4892   31.1451   44.2015 H   0  0  0  0  0  0  0  0  0  0  0  0
   59.7612   29.4536   44.0063 H   0  0  0  0  0  0  0  0  0  0  0  0
   58.6501   27.3007   43.4210 H   0  0  0  0  0  0  0  0  0  0  0  0
  1  2  1  0
  2  3  1  0
  3  4  2  0
  4  5  1  0
  5  6  2  0
  6  7  1  0
  7  8  2  0
  8  9  1  0
  9 10  2  0
 10 11  1  0
 11 12  2  0
 12 13  1  0
 13 14  2  0
 14 15  1  0
 15 16  1  0
 15 17  1  0
 17 18  2  0
 18 19  1  0
 19 20  2  0
 20 21  1  0
 21 22  2  0
  6 23  1  0
 23 24  2  0
 24  3  1  0
 22  7  1  0
 14  9  1  0
 22 17  1  0
  1 25  1  0
  1 26  1  0
  1 27  1  0
  4 28  1  0
  5 29  1  0
  8 30  1  0
 10 31  1  0
 11 32  1  0
 12 33  1  0
 13 34  1  0
 16 35  1  0
 16 36  1  0
 16 37  1  0
 18 38  1  0
 19 39  1  0
 20 40  1  0
 21 41  1  0
 23 42  1  0
 24 43  1  0
M  CHG  1  13   1
M  END
>  <UniqueID>  (14) 
13

>  <SMILES>  (14) 
COc1ccc(C2=Cc3ccc[nH+]c3N(C)c3ccccc32)cc1

>  <Energy>  (14) 
74.25709321548278

>  <Genealogy>  (14) 
COc1ccc(C2=Cc3ccc[nH+]c3N(C)c3ccccc32)cc1 (protonated)
COc1ccc(C2=Cc3ccc[nH+]c3N(C)c3ccccc32)cc1 (3D coordinates assigned)
COc1ccc(C2=Cc3ccc[nH+]c3N(C)c3ccccc32)cc1 (nonaromatic ring conformer: 74.25709321548278 kcal/mol)

>  <smiles>  (14) 
COc1ccc(C2=Cc3cccnc3N(C)c3ccccc32)cc1

>  <score_type>  (14) 
oracle

>  <origin>  (14) 
adg

>  <m_score__min__energy>  (14) 
-4.7999999999999998

>  <m_primary>  (14) 
energy

$$$$
14:0
     RDKit          3D

 79 84  0  0  0  0  0  0  0  0999 V2000
   60.2135   35.5138   44.5573 H   0  0  0  0  0  0  0  0  0  0  0  0
   59.6490   34.8680   45.2460 C   0  0  0  0  0  0  0  0  0  0  0  0
   60.3360   34.4510   46.4850 C   0  0  0  0  0  0  0  0  0  0  0  0
   60.0180   34.9220   47.6100 O   0  0  0  0  0  0  0  0  0  0  0  0
   61.4050   33.5690   46.3980 O   0  0  0  0  0  0  0  0  0  0  0  0
   58.4010   34.5340   44.8800 C   0  0  0  0  0  0  0  0  0  0  0  0
   57.6521   35.3393   44.8564 H   0  0  0  0  0  0  0  0  0  0  0  0
   57.9460   33.1780   44.5060 C   0  0  0  0  0  0  0  0  0  0  0  0
   58.0970   32.7280   43.2300 N   0  0  0  0  0  0  0  0  0  0  0  0
   57.6580   31.5010   42.8460 C   0  0  0  0  0  0  0  0  0  0  0  0
   57.8060   31.1571   41.8117 H   0  0  0  0  0  0  0  0  0  0  0  0
   57.0120   30.6740   43.7840 C   0  0  0  0  0  0  0  0  0  0  0  0
   56.6090   29.4690   43.4980 N   0  0  0  0  0  0  0  0  0  0  0  0
   57.3950   28.2770   43.6270 C   0  0  0  0  0  0  0  0  0  0  0  0
   57.7710   27.6810   42.5800 O   0  0  0  0  0  0  0  0  0  0  0  0
   57.7110   27.6710   44.9880 C   0  0  0  0  0  0  0  0  0  0  0  0
   58.3150   28.6970   45.8580 N   0  0  0  0  0  0  0  0  0  0  0  0
   58.2110   29.6990   45.5850 H   0  0  0  0  0  0  0  0  0  0  0  0
   58.8360   28.4130   47.1710 C   0  0  0  0  0  0  0  0  0  0  0  0
   58.7060   27.2580   47.6580 O   0  0  0  0  0  0  0  0  0  0  0  0
   59.4990   29.4690   47.9780 C   0  0  0  0  0  0  0  0  0  0  0  0
   60.7750   29.9740   47.6150 C   0  0  0  0  0  0  0  0  0  0  0  0
   61.2868   29.5706   46.7288 H   0  0  0  0  0  0  0  0  0  0  0  0
   61.3920   30.9820   48.3730 C   0  0  0  0  0  0  0  0  0  0  0  0
   62.3741   31.3840   48.0834 H   0  0  0  0  0  0  0  0  0  0  0  0
   60.7280   31.4610   49.5030 C   0  0  0  0  0  0  0  0  0  0  0  0
   61.0980   32.4150   50.4430 C   0  0  0  0  0  0  0  0  0  0  0  0
   62.3940   33.2010   50.5090 C   0  0  0  0  0  0  0  0  0  0  0  0
   62.0973   34.1568   50.9655 H   0  0  0  0  0  0  0  0  0  0  0  0
   63.0090   33.4230   49.1290 C   0  0  0  0  0  0  0  0  0  0  0  0
   62.7391   32.6010   48.4497 H   0  0  0  0  0  0  0  0  0  0  0  0
   62.6479   34.3515   48.6627 H   0  0  0  0  0  0  0  0  0  0  0  0
   64.5090   33.4510   49.3610 C   0  0  0  0  0  0  0  0  0  0  0  0
   65.0423   33.0883   48.4699 H   0  0  0  0  0  0  0  0  0  0  0  0
   64.8714   34.4704   49.5596 H   0  0  0  0  0  0  0  0  0  0  0  0
   64.7570   32.5250   50.5420 C   0  0  0  0  0  0  0  0  0  0  0  0
   64.9788   31.5075   50.1876 H   0  0  0  0  0  0  0  0  0  0  0  0
   65.6171   32.8620   51.1392 H   0  0  0  0  0  0  0  0  0  0  0  0
   63.4740   32.5280   51.3690 C   0  0  0  0  0  0  0  0  0  0  0  0
   63.1772   31.4969   51.6114 H   0  0  0  0  0  0  0  0  0  0  0  0
   63.6166   33.0671   52.3172 H   0  0  0  0  0  0  0  0  0  0  0  0
   60.0340   32.4590   51.3550 C   0  0  0  0  0  0  0  0  0  0  0  0
   59.9640   33.3120   52.5590 C   0  0  0  0  0  0  0  0  0  0  0  0
   60.8420   33.1050   53.5790 N   0  0  0  0  0  0  0  0  0  0  0  0
   60.8080   33.8460   54.7180 C   0  0  0  0  0  0  0  0  0  0  0  0
   61.5359   33.6549   55.5202 H   0  0  0  0  0  0  0  0  0  0  0  0
   59.8490   34.8500   54.8700 C   0  0  0  0  0  0  0  0  0  0  0  0
   59.8177   35.4544   55.7885 H   0  0  0  0  0  0  0  0  0  0  0  0
   58.9310   35.0780   53.8440 C   0  0  0  0  0  0  0  0  0  0  0  0
   58.1696   35.8647   53.9504 H   0  0  0  0  0  0  0  0  0  0  0  0
   58.9810   34.3060   52.6830 C   0  0  0  0  0  0  0  0  0  0  0  0
   58.2568   34.4748   51.8724 H   0  0  0  0  0  0  0  0  0  0  0  0
   59.0620   31.5810   50.9950 N   0  0  0  0  0  0  0  0  0  0  0  0
   57.8090   31.3130   51.7040 C   0  0  0  0  0  0  0  0  0  0  0  0
   57.9863   31.3509   52.7890 H   0  0  0  0  0  0  0  0  0  0  0  0
   57.0619   32.0717   51.4278 H   0  0  0  0  0  0  0  0  0  0  0  0
   57.4376   30.3151   51.4278 H   0  0  0  0  0  0  0  0  0  0  0  0
   59.5010   30.9710   49.8740 C   0  0  0  0  0  0  0  0  0  0  0  0
   58.8620   29.9680   49.1370 C   0  0  0  0  0  0  0  0  0  0  0  0
   57.8841   29.5758   49.4530 H   0  0  0  0  0  0  0  0  0  0  0  0
   58.6520   26.4360   44.9270 C   0  0  0  0  0  0  0  0  0  0  0  0
   59.0500   26.3134   43.9089 H   0  0  0  0  0  0  0  0  0  0  0  0
   59.5064   26.5573   45.6091 H   0  0  0  0  0  0  0  0  0  0  0  0
   57.8160   25.2260   45.3110 C   0  0  0  0  0  0  0  0  0  0  0  0
   57.3850   24.7537   44.4159 H   0  0  0  0  0  0  0  0  0  0  0  0
   58.4139   24.4536   45.8169 H   0  0  0  0  0  0  0  0  0  0  0  0
   56.7230   25.7740   46.2020 C   0  0  0  0  0  0  0  0  0  0  0  0
   55.8376   25.1218   46.1755 H   0  0  0  0  0  0  0  0  0  0  0  0
   57.0355   25.8332   47.2550 H   0  0  0  0  0  0  0  0  0  0  0  0
   56.4000   27.1380   45.6220 C   0  0  0  0  0  0  0  0  0  0  0  0
   55.6165   27.0486   44.8552 H   0  0  0  0  0  0  0  0  0  0  0  0
   56.0284   27.8219   46.3993 H   0  0  0  0  0  0  0  0  0  0  0  0
   56.8310   31.1410   45.0460 N   0  0  0  0  0  0  0  0  0  0  0  0
   57.2730   32.3700   45.4330 C   0  0  0  0  0  0  0  0  0  0  0  0
   57.0760   32.8160   46.7440 O   0  0  0  0  0  0  0  0  0  0  0  0
   58.0930   32.7600   47.7380 C   0  0  0  0  0  0  0  0  0  0  0  0
   57.6318   32.7854   48.7363 H   0  0  0  0  0  0  0  0  0  0  0  0
   58.6673   31.8289   47.6230 H   0  0  0  0  0  0  0  0  0  0  0  0
   58.7660   33.6224   47.6230 H   0  0  0  0  0  0  0  0  0  0  0  0
  1  2  1  0
  2  3  1  0
  3  4  2  0
  3  5  1  0
  2  6  2  3
  6  7  1  0
  6  8  1  0
  8  9  1  0
  9 10  2  0
 10 11  1  0
 10 12  1  0
 12 13  2  0
 13 14  1  0
 14 15  2  0
 14 16  1  0
 16 17  1  0
 17 18  1  0
 17 19  1  0
 19 20  2  0
 19 21  1  0
 21 22  2  0
 22 23  1  0
 22 24  1  0
 24 25  1  0
 24 26  2  0
 26 27  1  0
 27 28  1  0
 28 29  1  0
 28 30  1  0
 30 31  1  0
 30 32  1  0
 30 33  1  0
 33 34  1  0
 33 35  1  0
 33 36  1  0
 36 37  1  0
 36 38  1  0
 36 39  1  0
 39 40  1  0
 39 41  1  0
 27 42  2  0
 42 43  1  0
 43 44  2  0
 44 45  1  0
 45 46  1  0
 45 47  2  0
 47 48  1  0
 47 49  1  0
 49 50  1  0
 49 51  2  0
 51 52  1  0
 42 53  1  0
 53 54  1  0
 54 55  1  0
 54 56  1  0
 54 57  1  0
 53 58  1  0
 58 59  2  0
 59 60  1  0
 16 61  1  0
 61 62  1  0
 61 63  1  0
 61 64  1  0
 64 65  1  0
 64 66  1  0
 64 67  1  0
 67 68  1  0
 67 69  1  0
 67 70  1  0
 70 71  1  0
 70 72  1  0
 12 73  1  0
 73 74  1  0
 74 75  1  0
 75 76  1  0
 76 77  1  0
 76 78  1  0
 76 79  1  0
 74  8  2  0
 70 16  1  0
 59 21  1  0
 58 26  1  0
 39 28  1  0
 51 43  1  0
M  CHG  2   5  -1  73  -1
M  END
>  <UniqueID>  (15) 
14

>  <SMILES>  (15) 
COc1[n-]/c(=N/C(=O)C2(NC(=O)c3ccc4c(C5CCCC5)c(-c5ccccn5)n(C)c4c3)CCCC2)cnc1C=CC(=O)[O-]

>  <Energy>  (15) 
148.8764706523783

>  <Genealogy>  (15) 
COc1[n-]c(=NC(=O)C2(NC(=O)c3ccc4c(C5CCCC5)c(-c5ccccn5)n(C)c4c3)CCCC2)cnc1C=CC(=O)[O-] (protonated)
COc1[n-]/c(=N/C(=O)C2(NC(=O)c3ccc4c(C5CCCC5)c(-c5ccccn5)n(C)c4c3)CCCC2)cnc1C=CC(=O)[O-] (cis-trans isomerization)
COc1[n-]/c(=N/C(=O)C2(NC(=O)c3ccc4c(C5CCCC5)c(-c5ccccn5)n(C)c4c3)CCCC2)cnc1C=CC(=O)[O-] (3D coordinates assigned)
COc1[n-]/c(=N/C(=O)C2(NC(=O)c3ccc4c(C5CCCC5)c(-c5ccccn5)n(C)c4c3)CCCC2)cnc1C=CC(=O)[O-] (nonaromatic ring conformer: 148.8764706523783 kcal/mol)

>  <smiles>  (15) 
COc1[nH]c(=NC(=O)C2(NC(=O)c3ccc4c(C5CCCC5)c(-c5ccccn5)n(C)c4c3)CCCC2)cnc1C=CC(=O)O

>  <score_type>  (15) 
oracle

>  <origin>  (15) 
adg

>  <m_score__min__energy>  (15) 
-13.99

>  <m_primary>  (15) 
energy

$$$$
15:0
     RDKit          3D

 22 23  0  0  0  0  0  0  0  0999 V2000
   59.8720   34.1520   48.9880 C   0  0  0  0  0  0  0  0  0  0  0  0
   59.4750   34.1390   47.5560 C   0  0  0  0  0  0  0  0  0  0  0  0
   60.2930   34.4910   46.5020 C   0  0  0  0  0  0  0  0  0  0  0  0
   59.5220   34.3320   45.3650 C   0  0  0  0  0  0  0  0  0  0  0  0
   58.2670   33.8890   45.7930 C   0  0  0  0  0  0  0  0  0  0  0  0
   57.1450   33.5990   44.8770 C   0  0  0  0  0  0  0  0  0  0  0  0
   57.5050   32.3200   43.6640 S   0  0  0  0  0  0  0  0  0  0  0  0
   56.9750   30.7590   44.3610 C   0  0  0  0  0  0  0  0  0  0  0  0
   57.6870   30.0570   45.2790 N   0  0  0  0  0  0  0  0  0  0  0  0
   56.9950   28.9220   45.5920 C   0  0  0  0  0  0  0  0  0  0  0  0
   55.8630   28.9510   44.8530 N   0  0  0  0  0  0  0  0  0  0  0  0
   55.8500   30.0620   44.1070 N   0  0  0  0  0  0  0  0  0  0  0  0
   58.3000   33.7950   47.0840 O   0  0  0  0  0  0  0  0  0  0  0  0
   58.9711   34.1225   49.6185 H   0  0  0  0  0  0  0  0  0  0  0  0
   60.4988   33.2739   49.2027 H   0  0  0  0  0  0  0  0  0  0  0  0
   60.4400   35.0692   49.2027 H   0  0  0  0  0  0  0  0  0  0  0  0
   61.3389   34.8275   46.5550 H   0  0  0  0  0  0  0  0  0  0  0  0
   59.8350   34.5178   44.3270 H   0  0  0  0  0  0  0  0  0  0  0  0
   56.2829   33.2736   45.4777 H   0  0  0  0  0  0  0  0  0  0  0  0
   56.9443   34.5235   44.3157 H   0  0  0  0  0  0  0  0  0  0  0  0
   57.2982   28.1399   46.3036 H   0  0  0  0  0  0  0  0  0  0  0  0
   55.1500   28.1940   44.9000 H   0  0  0  0  0  0  0  0  0  0  0  0
  1  2  1  0
  2  3  2  0
  3  4  1  0
  4  5  2  0
  5  6  1  0
  6  7  1  0
  7  8  1  0
  8  9  1  0
  9 10  2  0
 10 11  1  0
 11 12  1  0
  5 13  1  0
 13  2  1  0
 12  8  2  0
  1 14  1  0
  1 15  1  0
  1 16  1  0
  3 17  1  0
  4 18  1  0
  6 19  1  0
  6 20  1  0
 10 21  1  0
 11 22  1  0
M  END
>  <smiles>  (16) 
Cc1ccc(CSc2nc[nH]n2)o1

>  <score_type>  (16) 
oracle

>  <origin>  (16) 
adg

>  <m_score__min__energy>  (16) 
-5.8799999999999999

>  <m_primary>  (16) 
energy

$$$$
16:0
     RDKit          3D

 27 29  0  0  0  0  0  0  0  0999 V2000
   59.4140   29.0400   47.6080 C   0  0  0  0  0  0  0  0  0  0  0  0
   58.9180   30.1240   46.6900 C   0  0  0  0  0  0  0  0  0  0  0  0
   59.5390   31.3450   46.7250 N   0  0  0  0  0  0  0  0  0  0  0  0
   59.1000   32.3400   45.9190 C   0  0  0  0  0  0  0  0  0  0  0  0
   59.6220   33.5770   45.8430 N   0  0  0  0  0  0  0  0  0  0  0  0
   58.8240   34.1370   44.8960 C   0  0  0  0  0  0  0  0  0  0  0  0
   57.8780   33.2890   44.4270 N   0  0  0  0  0  0  0  0  0  0  0  0
   58.0750   32.1670   45.0900 N   0  0  0  0  0  0  0  0  0  0  0  0
   57.3930   30.9980   44.9870 C   0  0  0  0  0  0  0  0  0  0  0  0
   57.8220   29.9120   45.7920 C   0  0  0  0  0  0  0  0  0  0  0  0
   57.0940   28.6230   45.6510 C   0  0  0  0  0  0  0  0  0  0  0  0
   57.5520   27.5480   46.1180 O   0  0  0  0  0  0  0  0  0  0  0  0
   55.8680   28.5940   44.9180 N   0  0  0  0  0  0  0  0  0  0  0  0
   55.2240   29.8320   44.4910 C   0  0  0  0  0  0  0  0  0  0  0  0
   56.2690   30.8410   43.9810 C   0  0  2  0  0  0  0  0  0  0  0  0
   56.8360   30.4170   42.6210 C   0  0  0  0  0  0  0  0  0  0  0  0
   59.2716   29.3512   48.6534 H   0  0  0  0  0  0  0  0  0  0  0  0
   58.8498   28.1144   47.4209 H   0  0  0  0  0  0  0  0  0  0  0  0
   60.4832   28.8618   47.4209 H   0  0  0  0  0  0  0  0  0  0  0  0
   60.3480   31.5230   47.3630 H   0  0  0  0  0  0  0  0  0  0  0  0
   58.9353   35.1739   44.5460 H   0  0  0  0  0  0  0  0  0  0  0  0
   54.5128   29.6087   43.6821 H   0  0  0  0  0  0  0  0  0  0  0  0
   54.6979   30.2719   45.3510 H   0  0  0  0  0  0  0  0  0  0  0  0
   55.7636   31.8099   43.8552 H   0  0  0  0  0  0  0  0  0  0  0  0
   57.7083   29.7647   42.7747 H   0  0  0  0  0  0  0  0  0  0  0  0
   56.0654   29.8718   42.0563 H   0  0  0  0  0  0  0  0  0  0  0  0
   57.1411   31.3103   42.0563 H   0  0  0  0  0  0  0  0  0  0  0  0
  1  2  1  0
  2  3  2  0
  3  4  1  0
  4  5  2  0
  5  6  1  0
  6  7  2  0
  7  8  1  0
  8  9  1  0
  9 10  2  0
 10 11  1  0
 11 12  2  0
 11 13  1  0
 13 14  1  0
 14 15  1  0
 15 16  1  0
 10  2  1  0
  8  4  1  0
 15  9  1  0
  1 17  1  0
  1 18  1  0
  1 19  1  0
  3 20  1  0
  6 21  1  0
 14 22  1  0
 14 23  1  0
 15 24  1  6
 16 25  1  0
 16 26  1  0
 16 27  1  0
M  CHG  2   3   1  13  -1
M  END
>  <UniqueID>  (17) 
15

>  <SMILES>  (17) 
Cc1[nH+]c2ncnn2c2c1C(=O)[N-]C[C@@H]2C

>  <Energy>  (17) 
69.23185054602688

>  <Genealogy>  (17) 
Cc1[nH+]c2ncnn2c2c1C(=O)[N-]CC2C (protonated)
Cc1[nH+]c2ncnn2c2c1C(=O)[N-]C[C@@H]2C (chirality)
Cc1[nH+]c2ncnn2c2c1C(=O)[N-]C[C@@H]2C (3D coordinates assigned)
Cc1[nH+]c2ncnn2c2c1C(=O)[N-]C[C@@H]2C (nonaromatic ring conformer: 69.23185054602688 kcal/mol)

>  <smiles>  (17) 
Cc1nc2ncnn2c2c1C(=O)NCC2C

>  <score_type>  (17) 
oracle

>  <origin>  (17) 
adg

>  <m_score__min__energy>  (17) 
-6.7400000000000002

>  <m_primary>  (17) 
energy

$$$$
17:0
     RDKit          3D

 54 58  0  0  0  0  0  0  0  0999 V2000
   56.9002   31.8648   42.4356 H   0  0  0  0  0  0  0  0  0  0  0  0
   57.3030   31.2230   43.2330 C   0  0  0  0  0  0  0  0  0  0  0  0
   58.2480   31.7520   44.1440 C   0  0  0  0  0  0  0  0  0  0  0  0
   58.6240   33.1380   44.0360 N   0  0  0  0  0  0  0  0  0  0  0  0
   59.0920   33.4710   43.1610 H   0  0  0  0  0  0  0  0  0  0  0  0
   58.2150   34.3490   45.2170 S   0  0  0  0  0  0  0  0  0  0  0  0
   58.9170   35.6360   44.8810 O   0  0  0  0  0  0  0  0  0  0  0  0
   56.7320   34.5850   45.1940 O   0  0  0  0  0  0  0  0  0  0  0  0
   58.6570   33.8070   46.8290 C   0  0  0  0  0  0  0  0  0  0  0  0
   59.9630   34.4190   47.7180 S   0  0  0  0  0  0  0  0  0  0  0  0
   59.6640   33.4590   49.0640 C   0  0  0  0  0  0  0  0  0  0  0  0
   60.3500   33.4040   50.2720 C   0  0  0  0  0  0  0  0  0  0  0  0
   61.2298   34.0383   50.4553 H   0  0  0  0  0  0  0  0  0  0  0  0
   59.8830   32.5130   51.2490 C   0  0  0  0  0  0  0  0  0  0  0  0
   60.3935   32.4418   52.2208 H   0  0  0  0  0  0  0  0  0  0  0  0
   58.7540   31.7070   50.9800 C   0  0  0  0  0  0  0  0  0  0  0  0
   58.1640   30.5870   52.1930 Cl  0  0  0  0  0  0  0  0  0  0  0  0
   58.1070   31.7990   49.7790 N   0  0  0  0  0  0  0  0  0  0  0  0
   58.5550   32.6640   48.8320 C   0  0  0  0  0  0  0  0  0  0  0  0
   57.9750   32.8480   47.5770 C   0  0  0  0  0  0  0  0  0  0  0  0
   57.0882   32.3033   47.2209 H   0  0  0  0  0  0  0  0  0  0  0  0
   58.7880   30.9130   45.1440 C   0  0  0  0  0  0  0  0  0  0  0  0
   59.5543   31.2863   45.8393 H   0  0  0  0  0  0  0  0  0  0  0  0
   58.3270   29.6030   45.2280 C   0  0  0  0  0  0  0  0  0  0  0  0
   58.7330   28.4270   46.3510 S   0  0  0  0  0  0  0  0  0  0  0  0
   57.6680   27.3000   45.6600 C   0  0  0  0  0  0  0  0  0  0  0  0
   57.4590   26.0830   46.0750 N   0  0  0  0  0  0  0  0  0  0  0  0
   56.2720   25.5540   46.6830 C   0  0  0  0  0  0  0  0  0  0  0  0
   56.3650   25.0020   47.8130 O   0  0  0  0  0  0  0  0  0  0  0  0
   55.0120   25.5740   46.0010 N   0  0  0  0  0  0  0  0  0  0  0  0
   54.4880   24.4200   45.2790 C   0  0  0  0  0  0  0  0  0  0  0  0
   54.2831   23.6100   45.9945 H   0  0  0  0  0  0  0  0  0  0  0  0
   53.5640   24.7183   44.7620 H   0  0  0  0  0  0  0  0  0  0  0  0
   55.5000   23.9230   44.2310 C   0  0  0  0  0  0  0  0  0  0  0  0
   55.0538   24.0566   43.2345 H   0  0  0  0  0  0  0  0  0  0  0  0
   56.4153   24.5145   44.3803 H   0  0  0  0  0  0  0  0  0  0  0  0
   55.8950   22.5020   44.3720 N   0  0  0  0  0  0  0  0  0  0  0  0
   57.2730   22.1690   43.9610 C   0  0  0  0  0  0  0  0  0  0  0  0
   57.2373   21.3130   43.2711 H   0  0  0  0  0  0  0  0  0  0  0  0
   57.7012   23.0611   43.4805 H   0  0  0  0  0  0  0  0  0  0  0  0
   58.1760   21.8040   45.1520 C   0  0  0  0  0  0  0  0  0  0  0  0
   58.1827   20.7113   45.2779 H   0  0  0  0  0  0  0  0  0  0  0  0
   59.1926   22.1722   44.9497 H   0  0  0  0  0  0  0  0  0  0  0  0
   57.7060   22.4030   46.3380 O   0  0  0  0  0  0  0  0  0  0  0  0
   56.4890   21.7990   46.7190 C   0  0  0  0  0  0  0  0  0  0  0  0
   56.6879   20.7524   46.9929 H   0  0  0  0  0  0  0  0  0  0  0  0
   56.0864   22.3756   47.5648 H   0  0  0  0  0  0  0  0  0  0  0  0
   55.4250   21.8210   45.5960 C   0  0  0  0  0  0  0  0  0  0  0  0
   55.1618   20.7837   45.3415 H   0  0  0  0  0  0  0  0  0  0  0  0
   54.5578   22.3824   45.9738 H   0  0  0  0  0  0  0  0  0  0  0  0
   57.0270   27.8010   44.5770 N   0  0  0  0  0  0  0  0  0  0  0  0
   57.3900   29.0900   44.3510 C   0  0  0  0  0  0  0  0  0  0  0  0
   56.8720   29.8890   43.3330 C   0  0  0  0  0  0  0  0  0  0  0  0
   56.1389   29.4827   42.6206 H   0  0  0  0  0  0  0  0  0  0  0  0
  1  2  1  0
  2  3  2  0
  3  4  1  0
  4  5  1  0
  4  6  1  0
  6  7  2  0
  6  8  2  0
  6  9  1  0
  9 10  1  0
 10 11  1  0
 11 12  2  0
 12 13  1  0
 12 14  1  0
 14 15  1  0
 14 16  2  0
 16 17  1  0
 16 18  1  0
 18 19  2  0
 19 20  1  0
 20 21  1  0
  3 22  1  0
 22 23  1  0
 22 24  2  0
 24 25  1  0
 25 26  1  0
 26 27  2  0
 27 28  1  0
 28 29  2  0
 28 30  1  0
 30 31  1  0
 31 32  1  0
 31 33  1  0
 31 34  1  0
 34 35  1  0
 34 36  1  0
 34 37  1  0
 37 38  1  0
 38 39  1  0
 38 40  1  0
 38 41  1  0
 41 42  1  0
 41 43  1  0
 41 44  1  0
 44 45  1  0
 45 46  1  0
 45 47  1  0
 45 48  1  0
 48 49  1  0
 48 50  1  0
 26 51  1  0
 51 52  1  0
 52 53  2  0
 53 54  1  0
 53  2  1  0
 20  9  2  0
 52 24  1  0
 19 11  1  0
 48 37  1  0
M  CHG  2  30  -1  51  -1
M  END
>  <UniqueID>  (18) 
16

>  <SMILES>  (18) 
O=C(/N=c1/[n-]c2ccc(NS(=O)(=O)c3cc4nc(Cl)ccc4s3)cc2s1)[N-]CCN1CCOCC1

>  <Energy>  (18) 
141.81436800265558

>  <Genealogy>  (18) 
O=C(N=c1[n-]c2ccc(NS(=O)(=O)c3cc4nc(Cl)ccc4s3)cc2s1)[N-]CCN1CCOCC1 (protonated)
O=C(/N=c1/[n-]c2ccc(NS(=O)(=O)c3cc4nc(Cl)ccc4s3)cc2s1)[N-]CCN1CCOCC1 (cis-trans isomerization)
O=C(/N=c1/[n-]c2ccc(NS(=O)(=O)c3cc4nc(Cl)ccc4s3)cc2s1)[N-]CCN1CCOCC1 (3D coordinates assigned)
O=C(/N=c1/[n-]c2ccc(NS(=O)(=O)c3cc4nc(Cl)ccc4s3)cc2s1)[N-]CCN1CCOCC1 (nonaromatic ring conformer: 141.81436800265558 kcal/mol)

>  <smiles>  (18) 
O=C(N=c1[nH]c2ccc(NS(=O)(=O)c3cc4nc(Cl)ccc4s3)cc2s1)NCCN1CCOCC1

>  <score_type>  (18) 
oracle

>  <origin>  (18) 
adg

>  <m_score__min__energy>  (18) 
-12.98

>  <m_primary>  (18) 
energy

$$$$
18:0
     RDKit          3D

 29 31  0  0  0  0  0  0  0  0999 V2000
   59.3090   35.2450   46.7590 C   0  0  0  0  0  0  0  0  0  0  0  0
   59.6420   34.3090   45.6040 C   0  0  0  0  0  0  0  0  0  0  0  0
   59.4180   32.9130   45.9990 N   0  0  0  0  0  0  0  0  0  0  0  0
   60.2160   32.1060   46.7590 C   0  0  0  0  0  0  0  0  0  0  0  0
   61.4060   32.5540   47.5000 C   0  0  0  0  0  0  0  0  0  0  0  0
   62.6970   32.1570   47.1220 C   0  0  0  0  0  0  0  0  0  0  0  0
   63.7710   32.6220   47.8150 N   0  0  0  0  0  0  0  0  0  0  0  0
   63.6150   33.4800   48.8590 C   0  0  0  0  0  0  0  0  0  0  0  0
   62.3340   33.8990   49.2180 C   0  0  0  0  0  0  0  0  0  0  0  0
   61.2610   33.4330   48.5280 N   0  0  0  0  0  0  0  0  0  0  0  0
   59.8480   30.7960   46.7310 N   0  0  0  0  0  0  0  0  0  0  0  0
   58.7740   30.8100   45.9260 C   0  0  0  0  0  0  0  0  0  0  0  0
   58.0500   29.7330   45.5360 N   0  0  0  0  0  0  0  0  0  0  0  0
   57.0160   29.9130   44.6590 C   0  0  0  0  0  0  0  0  0  0  0  0
   56.7200   31.2000   44.1540 C   0  0  0  0  0  0  0  0  0  0  0  0
   57.4890   32.3040   44.5600 C   0  0  0  0  0  0  0  0  0  0  0  0
   58.5160   32.0650   45.4730 C   0  0  0  0  0  0  0  0  0  0  0  0
   59.4924   34.7295   47.7133 H   0  0  0  0  0  0  0  0  0  0  0  0
   59.9433   36.1417   46.6988 H   0  0  0  0  0  0  0  0  0  0  0  0
   58.2509   35.5396   46.6988 H   0  0  0  0  0  0  0  0  0  0  0  0
   58.9996   34.5505   44.7444 H   0  0  0  0  0  0  0  0  0  0  0  0
   60.6999   34.4386   45.3319 H   0  0  0  0  0  0  0  0  0  0  0  0
   62.8399   31.4745   46.2712 H   0  0  0  0  0  0  0  0  0  0  0  0
   64.7320   32.3220   47.5350 H   0  0  0  0  0  0  0  0  0  0  0  0
   64.4924   33.8406   49.4158 H   0  0  0  0  0  0  0  0  0  0  0  0
   62.1939   34.6011   50.0531 H   0  0  0  0  0  0  0  0  0  0  0  0
   56.4104   29.0503   44.3443 H   0  0  0  0  0  0  0  0  0  0  0  0
   55.8900   31.3368   43.4452 H   0  0  0  0  0  0  0  0  0  0  0  0
   57.2893   33.3145   44.1739 H   0  0  0  0  0  0  0  0  0  0  0  0
  1  2  1  0
  2  3  1  0
  3  4  1  0
  4  5  1  0
  5  6  2  0
  6  7  1  0
  7  8  2  0
  8  9  1  0
  9 10  2  0
  4 11  2  0
 11 12  1  0
 12 13  2  0
 13 14  1  0
 14 15  2  0
 15 16  1  0
 16 17  2  0
 17  3  1  0
 10  5  1  0
 17 12  1  0
  1 18  1  0
  1 19  1  0
  1 20  1  0
  2 21  1  0
  2 22  1  0
  6 23  1  0
  7 24  1  0
  8 25  1  0
  9 26  1  0
 14 27  1  0
 15 28  1  0
 16 29  1  0
M  CHG  1   7   1
M  END
>  <UniqueID>  (19) 
17

>  <SMILES>  (19) 
CCn1c(-c2c[nH+]ccn2)nc2ncccc21

>  <Energy>  (19) 
74.7429048488645

>  <Genealogy>  (19) 
CCn1c(-c2c[nH+]ccn2)nc2ncccc21 (protonated)
CCn1c(-c2c[nH+]ccn2)nc2ncccc21 (3D coordinates assigned)
CCn1c(-c2c[nH+]ccn2)nc2ncccc21 (optimized conformer: 74.7429048488645 kcal/mol)

>  <smiles>  (19) 
CCn1c(-c2cnccn2)nc2ncccc21

>  <score_type>  (19) 
oracle

>  <origin>  (19) 
adg

>  <m_score__min__energy>  (19) 
-4.29

>  <m_primary>  (19) 
energy

$$$$
19:0
     RDKit          3D

 40 42  0  0  0  0  0  0  0  0999 V2000
   59.4950   35.0910   45.8770 C   0  0  0  0  0  0  0  0  0  0  0  0
   58.3690   34.3560   46.3430 O   0  0  0  0  0  0  0  0  0  0  0  0
   58.1190   33.0030   46.0560 C   0  0  0  0  0  0  0  0  0  0  0  0
   57.4160   32.6170   44.9000 C   0  0  0  0  0  0  0  0  0  0  0  0
   57.1670   31.2710   44.6340 C   0  0  0  0  0  0  0  0  0  0  0  0
   57.6160   30.2790   45.5180 C   0  0  0  0  0  0  0  0  0  0  0  0
   57.3820   28.9120   45.2830 C   0  0  0  0  0  0  0  0  0  0  0  0
   56.7610   28.5380   44.2490 O   0  0  0  0  0  0  0  0  0  0  0  0
   57.8470   27.9630   46.2070 C   0  0  0  0  0  0  0  0  0  0  0  0
   57.6660   26.4820   45.9850 C   0  0  0  0  0  0  0  0  0  0  0  0
   56.3190   26.0520   46.4740 C   0  0  0  0  0  0  0  0  0  0  0  0
   55.1460   26.7040   45.9950 N   0  0  0  0  0  0  0  0  0  0  0  0
   56.2180   25.0840   47.2740 O   0  0  0  0  0  0  0  0  0  0  0  0
   58.5510   28.4180   47.3290 C   0  0  0  0  0  0  0  0  0  0  0  0
   58.7590   29.7150   47.5210 O   0  0  0  0  0  0  0  0  0  0  0  0
   58.3280   30.6520   46.6800 C   0  0  0  0  0  0  0  0  0  0  0  0
   58.5870   32.0140   46.9490 C   0  0  0  0  0  0  0  0  0  0  0  0
   59.3210   32.4100   48.2130 C   0  0  0  0  0  0  0  0  0  0  0  0
   60.8010   32.5270   47.9540 C   0  0  0  0  0  0  0  0  0  0  0  0
   61.5170   31.4400   47.4240 C   0  0  0  0  0  0  0  0  0  0  0  0
   62.8840   31.5590   47.1560 C   0  0  0  0  0  0  0  0  0  0  0  0
   63.5450   32.7650   47.4080 C   0  0  0  0  0  0  0  0  0  0  0  0
   62.8400   33.8510   47.9320 C   0  0  0  0  0  0  0  0  0  0  0  0
   61.4740   33.7360   48.2050 C   0  0  0  0  0  0  0  0  0  0  0  0
   60.0695   35.4660   46.7368 H   0  0  0  0  0  0  0  0  0  0  0  0
   60.1339   34.4355   45.2670 H   0  0  0  0  0  0  0  0  0  0  0  0
   59.1520   35.9397   45.2670 H   0  0  0  0  0  0  0  0  0  0  0  0
   57.0589   33.3853   44.1984 H   0  0  0  0  0  0  0  0  0  0  0  0
   56.6155   30.9857   43.7260 H   0  0  0  0  0  0  0  0  0  0  0  0
   57.7509   26.2617   44.9106 H   0  0  0  0  0  0  0  0  0  0  0  0
   58.4429   25.9361   46.5404 H   0  0  0  0  0  0  0  0  0  0  0  0
   55.1480   27.1990   45.0760 H   0  0  0  0  0  0  0  0  0  0  0  0
   58.9362   27.6919   48.0600 H   0  0  0  0  0  0  0  0  0  0  0  0
   58.9380   33.3794   48.5645 H   0  0  0  0  0  0  0  0  0  0  0  0
   59.1553   31.6353   48.9761 H   0  0  0  0  0  0  0  0  0  0  0  0
   60.9995   30.4912   47.2191 H   0  0  0  0  0  0  0  0  0  0  0  0
   63.4401   30.7029   46.7464 H   0  0  0  0  0  0  0  0  0  0  0  0
   64.6199   32.8585   47.1937 H   0  0  0  0  0  0  0  0  0  0  0  0
   63.3611   34.7992   48.1303 H   0  0  0  0  0  0  0  0  0  0  0  0
   60.9234   34.5943   48.6177 H   0  0  0  0  0  0  0  0  0  0  0  0
  1  2  1  0
  2  3  1  0
  3  4  2  0
  4  5  1  0
  5  6  2  0
  6  7  1  0
  7  8  2  0
  7  9  1  0
  9 10  1  0
 10 11  1  0
 11 12  1  0
 11 13  2  0
  9 14  2  0
 14 15  1  0
 15 16  1  0
 16 17  2  0
 17 18  1  0
 18 19  1  0
 19 20  2  0
 20 21  1  0
 21 22  2  0
 22 23  1  0
 23 24  2  0
 17  3  1  0
 24 19  1  0
 16  6  1  0
  1 25  1  0
  1 26  1  0
  1 27  1  0
  4 28  1  0
  5 29  1  0
 10 30  1  0
 10 31  1  0
 12 32  1  0
 14 33  1  0
 18 34  1  0
 18 35  1  0
 20 36  1  0
 21 37  1  0
 22 38  1  0
 23 39  1  0
 24 40  1  0
M  CHG  1  12  -1
M  END
>  <UniqueID>  (20) 
18

>  <SMILES>  (20) 
COc1ccc2c(=O)c(CC([NH-])=O)coc2c1Cc1ccccc1

>  <Energy>  (20) 
45.38465370349129

>  <Genealogy>  (20) 
COc1ccc2c(=O)c(CC([NH-])=O)coc2c1Cc1ccccc1 (protonated)
COc1ccc2c(=O)c(CC([NH-])=O)coc2c1Cc1ccccc1 (3D coordinates assigned)
COc1ccc2c(=O)c(CC([NH-])=O)coc2c1Cc1ccccc1 (optimized conformer: 45.38465370349129 kcal/mol)

>  <smiles>  (20) 
COc1ccc2c(=O)c(CC(N)=O)coc2c1Cc1ccccc1

>  <score_type>  (20) 
oracle

>  <origin>  (20) 
adg

>  <m_score__min__energy>  (20) 
-10.949999999999999

>  <m_primary>  (20) 
energy

$$$$
20:0
     RDKit          3D

 39 41  0  0  0  0  0  0  0  0999 V2000
   56.7390   30.5100   43.4200 C   0  0  0  0  0  0  0  0  0  0  0  0
   56.5440   31.1470   44.6790 O   0  0  0  0  0  0  0  0  0  0  0  0
   57.4630   32.0210   45.2790 C   0  0  0  0  0  0  0  0  0  0  0  0
   57.2400   33.4130   45.3360 C   0  0  0  0  0  0  0  0  0  0  0  0
   58.1900   34.2570   45.9190 C   0  0  0  0  0  0  0  0  0  0  0  0
   59.3670   33.7270   46.4500 C   0  0  0  0  0  0  0  0  0  0  0  0
   59.5960   32.3500   46.4040 C   0  0  0  0  0  0  0  0  0  0  0  0
   58.6470   31.4920   45.8280 C   0  0  0  0  0  0  0  0  0  0  0  0
   58.8970   30.0790   45.8010 N   0  0  0  0  0  0  0  0  0  0  0  0
   59.8650   29.5370   44.8360 C   0  0  0  0  0  0  0  0  0  0  0  0
   59.9100   28.0080   44.8940 C   0  0  0  0  0  0  0  0  0  0  0  0
   58.5440   27.4680   44.9170 N   0  0  0  0  0  0  0  0  0  0  0  0
   58.1280   26.5370   43.9040 C   0  0  0  0  0  0  0  0  0  0  0  0
   58.3980   26.7730   42.6960 O   0  0  0  0  0  0  0  0  0  0  0  0
   57.3890   25.3110   44.2480 C   0  0  0  0  0  0  0  0  0  0  0  0
   57.0170   24.2970   43.3710 C   0  0  0  0  0  0  0  0  0  0  0  0
   56.2760   23.2790   43.9870 C   0  0  0  0  0  0  0  0  0  0  0  0
   56.0540   23.4910   45.3410 C   0  0  0  0  0  0  0  0  0  0  0  0
   56.7750   24.9490   45.7710 S   0  0  0  0  0  0  0  0  0  0  0  0
   57.5420   28.0320   45.8360 C   0  0  0  0  0  0  0  0  0  0  0  0
   58.1230   29.1820   46.6660 C   0  0  0  0  0  0  0  0  0  0  0  0
   57.0575   29.4695   43.5810 H   0  0  0  0  0  0  0  0  0  0  0  0
   55.7962   30.5214   42.8534 H   0  0  0  0  0  0  0  0  0  0  0  0
   57.5138   31.0472   42.8534 H   0  0  0  0  0  0  0  0  0  0  0  0
   56.3140   33.8364   44.9196 H   0  0  0  0  0  0  0  0  0  0  0  0
   58.0094   35.3413   45.9593 H   0  0  0  0  0  0  0  0  0  0  0  0
   60.1143   34.3939   46.9048 H   0  0  0  0  0  0  0  0  0  0  0  0
   60.5255   31.9359   46.8217 H   0  0  0  0  0  0  0  0  0  0  0  0
   59.5735   29.8489   43.8222 H   0  0  0  0  0  0  0  0  0  0  0  0
   60.8629   29.9240   45.0899 H   0  0  0  0  0  0  0  0  0  0  0  0
   60.4388   27.6248   44.0088 H   0  0  0  0  0  0  0  0  0  0  0  0
   60.4383   27.6957   45.8069 H   0  0  0  0  0  0  0  0  0  0  0  0
   57.2780   24.2944   42.3024 H   0  0  0  0  0  0  0  0  0  0  0  0
   55.9051   22.3948   43.4480 H   0  0  0  0  0  0  0  0  0  0  0  0
   55.5018   22.8210   46.0164 H   0  0  0  0  0  0  0  0  0  0  0  0
   56.6915   28.4093   45.2492 H   0  0  0  0  0  0  0  0  0  0  0  0
   57.2212   27.2373   46.5256 H   0  0  0  0  0  0  0  0  0  0  0  0
   57.3022   29.7450   47.1344 H   0  0  0  0  0  0  0  0  0  0  0  0
   58.7824   28.7705   47.4444 H   0  0  0  0  0  0  0  0  0  0  0  0
  1  2  1  0
  2  3  1  0
  3  4  2  0
  4  5  1  0
  5  6  2  0
  6  7  1  0
  7  8  2  0
  8  9  1  0
  9 10  1  0
 10 11  1  0
 11 12  1  0
 12 13  1  0
 13 14  2  0
 13 15  1  0
 15 16  2  0
 16 17  1  0
 17 18  2  0
 18 19  1  0
 12 20  1  0
 20 21  1  0
  8  3  1  0
 21  9  1  0
 19 15  1  0
  1 22  1  0
  1 23  1  0
  1 24  1  0
  4 25  1  0
  5 26  1  0
  6 27  1  0
  7 28  1  0
 10 29  1  0
 10 30  1  0
 11 31  1  0
 11 32  1  0
 16 33  1  0
 17 34  1  0
 18 35  1  0
 20 36  1  0
 20 37  1  0
 21 38  1  0
 21 39  1  0
M  END
>  <UniqueID>  (21) 
19

>  <SMILES>  (21) 
COc1ccccc1N1CCN(C(=O)c2cccs2)CC1

>  <Energy>  (21) 
75.40459016375527

>  <Genealogy>  (21) 
COc1ccccc1N1CCN(C(=O)c2cccs2)CC1 (3D coordinates assigned)
COc1ccccc1N1CCN(C(=O)c2cccs2)CC1 (nonaromatic ring conformer: 75.40459016375527 kcal/mol)

>  <smiles>  (21) 
COc1ccccc1N1CCN(C(=O)c2cccs2)CC1

>  <score_type>  (21) 
oracle

>  <origin>  (21) 
adg

>  <m_score__min__energy>  (21) 
-6.7300000000000004

>  <m_primary>  (21) 
energy

$$$$
21:0
     RDKit          3D

 39 42  0  0  0  0  0  0  0  0999 V2000
   56.2830   29.6340   45.1680 O   0  0  0  0  0  0  0  0  0  0  0  0
   57.4200   29.1590   45.4310 C   0  0  0  0  0  0  0  0  0  0  0  0
   58.5760   30.0140   45.4120 N   0  0  0  0  0  0  0  0  0  0  0  0
   58.4840   31.4470   45.3370 C   0  0  0  0  0  0  0  0  0  0  0  0
   57.9150   32.0430   44.1970 C   0  0  0  0  0  0  0  0  0  0  0  0
   57.7630   33.4270   44.1180 C   0  0  0  0  0  0  0  0  0  0  0  0
   58.1670   34.2410   45.1740 C   0  0  0  0  0  0  0  0  0  0  0  0
   58.7350   33.6760   46.3240 C   0  0  0  0  0  0  0  0  0  0  0  0
   59.1450   34.4990   47.3840 C   0  0  0  0  0  0  0  0  0  0  0  0
   59.7250   33.9420   48.5250 C   0  0  0  0  0  0  0  0  0  0  0  0
   59.9070   32.5610   48.6150 C   0  0  0  0  0  0  0  0  0  0  0  0
   59.5030   31.7270   47.5700 C   0  0  0  0  0  0  0  0  0  0  0  0
   58.9010   32.2670   46.4150 C   0  0  0  0  0  0  0  0  0  0  0  0
   57.5410   27.7220   45.7270 C   0  0  0  0  0  0  0  0  0  0  0  0
   57.7920   27.1420   46.9590 C   0  0  0  0  0  0  0  0  0  0  0  0
   57.7920   25.7870   46.7080 C   0  0  0  0  0  0  0  0  0  0  0  0
   57.5530   25.5880   45.3940 N   0  0  0  0  0  0  0  0  0  0  0  0
   57.4570   24.3230   44.7060 C   0  0  0  0  0  0  0  0  0  0  0  0
   56.4870   24.1010   43.7070 C   0  0  0  0  0  0  0  0  0  0  0  0
   56.4090   22.8670   43.0550 C   0  0  0  0  0  0  0  0  0  0  0  0
   57.2930   21.8390   43.3900 C   0  0  0  0  0  0  0  0  0  0  0  0
   58.2550   22.0430   44.3810 C   0  0  0  0  0  0  0  0  0  0  0  0
   58.3370   23.2740   45.0380 C   0  0  0  0  0  0  0  0  0  0  0  0
   57.3950   26.7590   44.7960 N   0  0  0  0  0  0  0  0  0  0  0  0
   59.5260   29.5800   45.4280 H   0  0  0  0  0  0  0  0  0  0  0  0
   57.5865   31.4107   43.3590 H   0  0  0  0  0  0  0  0  0  0  0  0
   57.3218   33.8784   43.2171 H   0  0  0  0  0  0  0  0  0  0  0  0
   58.0397   35.3314   45.1049 H   0  0  0  0  0  0  0  0  0  0  0  0
   59.0087   35.5884   47.3155 H   0  0  0  0  0  0  0  0  0  0  0  0
   60.0391   34.5925   49.3546 H   0  0  0  0  0  0  0  0  0  0  0  0
   60.3708   32.1274   49.5133 H   0  0  0  0  0  0  0  0  0  0  0  0
   59.6557   30.6405   47.6487 H   0  0  0  0  0  0  0  0  0  0  0  0
   57.9548   27.6488   47.9216 H   0  0  0  0  0  0  0  0  0  0  0  0
   57.9592   24.9973   47.4553 H   0  0  0  0  0  0  0  0  0  0  0  0
   55.7861   24.9052   43.4386 H   0  0  0  0  0  0  0  0  0  0  0  0
   55.6494   22.7052   42.2760 H   0  0  0  0  0  0  0  0  0  0  0  0
   57.2314   20.8697   42.8736 H   0  0  0  0  0  0  0  0  0  0  0  0
   58.9503   21.2327   44.6455 H   0  0  0  0  0  0  0  0  0  0  0  0
   59.0949   23.4250   45.8208 H   0  0  0  0  0  0  0  0  0  0  0  0
  1  2  2  0
  2  3  1  0
  3  4  1  0
  4  5  2  0
  5  6  1  0
  6  7  2  0
  7  8  1  0
  8  9  2  0
  9 10  1  0
 10 11  2  0
 11 12  1  0
 12 13  2  0
  2 14  1  0
 14 15  1  0
 15 16  2  0
 16 17  1  0
 17 18  1  0
 18 19  2  0
 19 20  1  0
 20 21  2  0
 21 22  1  0
 22 23  2  0
 17 24  1  0
 13  4  1  0
 24 14  2  0
 13  8  1  0
 23 18  1  0
  3 25  1  0
  5 26  1  0
  6 27  1  0
  7 28  1  0
  9 29  1  0
 10 30  1  0
 11 31  1  0
 12 32  1  0
 15 33  1  0
 16 34  1  0
 19 35  1  0
 20 36  1  0
 21 37  1  0
 22 38  1  0
 23 39  1  0
M  END
>  <UniqueID>  (22) 
20

>  <SMILES>  (22) 
O=C(Nc1cccc2ccccc12)c1ccn(-c2ccccc2)n1

>  <Energy>  (22) 
84.68403743607125

>  <Genealogy>  (22) 
O=C(Nc1cccc2ccccc12)c1ccn(-c2ccccc2)n1 (3D coordinates assigned)
O=C(Nc1cccc2ccccc12)c1ccn(-c2ccccc2)n1 (optimized conformer: 84.68403743607125 kcal/mol)

>  <smiles>  (22) 
O=C(Nc1cccc2ccccc12)c1ccn(-c2ccccc2)n1

>  <score_type>  (22) 
oracle

>  <origin>  (22) 
adg

>  <m_score__min__energy>  (22) 
-8.1300000000000008

>  <m_primary>  (22) 
energy

$$$$
22:0
     RDKit          3D

 45 48  0  0  0  0  0  0  0  0999 V2000
   60.4000   27.1100   46.3380 C   0  0  0  0  0  0  0  0  0  0  0  0
   58.9220   26.8760   46.2360 C   0  0  0  0  0  0  0  0  0  0  0  0
   58.3810   25.6250   46.5660 C   0  0  0  0  0  0  0  0  0  0  0  0
   57.0070   25.4000   46.4480 C   0  0  0  0  0  0  0  0  0  0  0  0
   56.1660   26.4170   45.9900 C   0  0  0  0  0  0  0  0  0  0  0  0
   56.6970   27.6730   45.6490 C   0  0  0  0  0  0  0  0  0  0  0  0
   55.8590   28.7330   45.1680 N   0  0  0  0  0  0  0  0  0  0  0  0
   56.2480   29.7250   44.2070 C   0  0  0  0  0  0  0  0  0  0  0  0
   56.6520   29.3560   43.0750 O   0  0  0  0  0  0  0  0  0  0  0  0
   56.1880   31.1250   44.5050 N   0  0  0  0  0  0  0  0  0  0  0  0
   57.2530   31.8890   45.0890 C   0  0  0  0  0  0  0  0  0  0  0  0
   58.1760   31.3040   45.9710 C   0  0  0  0  0  0  0  0  0  0  0  0
   59.1860   32.0770   46.5490 C   0  0  0  0  0  0  0  0  0  0  0  0
   59.2910   33.4400   46.2530 C   0  0  0  0  0  0  0  0  0  0  0  0
   60.2940   34.1860   46.8890 O   0  0  0  0  0  0  0  0  0  0  0  0
   60.6890   33.9780   48.2110 C   0  0  0  0  0  0  0  0  0  0  0  0
   59.7620   34.0200   49.2120 N   0  0  0  0  0  0  0  0  0  0  0  0
   60.1100   33.8020   50.5200 C   0  0  0  0  0  0  0  0  0  0  0  0
   61.4060   33.5350   50.8570 N   0  0  0  0  0  0  0  0  0  0  0  0
   62.3320   33.4980   49.8690 C   0  0  0  0  0  0  0  0  0  0  0  0
   63.6830   33.2630   49.9620 C   0  0  0  0  0  0  0  0  0  0  0  0
   64.1470   33.3600   48.6530 C   0  0  0  0  0  0  0  0  0  0  0  0
   63.1320   33.6510   47.8020 N   0  0  0  0  0  0  0  0  0  0  0  0
   63.2550   33.8140   46.3560 C   0  0  0  0  0  0  0  0  0  0  0  0
   62.0170   33.7190   48.5620 C   0  0  0  0  0  0  0  0  0  0  0  0
   58.3880   34.0180   45.3410 C   0  0  0  0  0  0  0  0  0  0  0  0
   57.3830   33.2420   44.7570 C   0  0  0  0  0  0  0  0  0  0  0  0
   58.0780   27.8880   45.7500 C   0  0  0  0  0  0  0  0  0  0  0  0
   60.6917   27.1562   47.3976 H   0  0  0  0  0  0  0  0  0  0  0  0
   60.9366   26.2856   45.8456 H   0  0  0  0  0  0  0  0  0  0  0  0
   60.6557   28.0598   45.8456 H   0  0  0  0  0  0  0  0  0  0  0  0
   59.0404   24.8183   46.9189 H   0  0  0  0  0  0  0  0  0  0  0  0
   56.5865   24.4196   46.7164 H   0  0  0  0  0  0  0  0  0  0  0  0
   55.0853   26.2345   45.8960 H   0  0  0  0  0  0  0  0  0  0  0  0
   58.1034   30.2323   46.2078 H   0  0  0  0  0  0  0  0  0  0  0  0
   59.9029   31.6110   47.2410 H   0  0  0  0  0  0  0  0  0  0  0  0
   59.3394   33.8425   51.3039 H   0  0  0  0  0  0  0  0  0  0  0  0
   64.2673   33.0466   50.8685 H   0  0  0  0  0  0  0  0  0  0  0  0
   65.1951   33.2196   48.3500 H   0  0  0  0  0  0  0  0  0  0  0  0
   63.9044   34.6746   46.1380 H   0  0  0  0  0  0  0  0  0  0  0  0
   63.6935   32.9041   45.9204 H   0  0  0  0  0  0  0  0  0  0  0  0
   62.2597   33.9861   45.9204 H   0  0  0  0  0  0  0  0  0  0  0  0
   58.4737   35.0848   45.0869 H   0  0  0  0  0  0  0  0  0  0  0  0
   56.6910   33.6970   44.0330 H   0  0  0  0  0  0  0  0  0  0  0  0
   58.5039   28.8558   45.4466 H   0  0  0  0  0  0  0  0  0  0  0  0
  1  2  1  0
  2  3  2  0
  3  4  1  0
  4  5  2  0
  5  6  1  0
  6  7  1  0
  7  8  1  0
  8  9  2  0
  8 10  1  0
 10 11  1  0
 11 12  2  0
 12 13  1  0
 13 14  2  0
 14 15  1  0
 15 16  1  0
 16 17  2  0
 17 18  1  0
 18 19  2  0
 19 20  1  0
 20 21  1  0
 21 22  2  0
 22 23  1  0
 23 24  1  0
 23 25  1  0
 14 26  1  0
 26 27  2  0
  6 28  2  0
 28  2  1  0
 27 11  1  0
 25 16  1  0
 25 20  2  0
  1 29  1  0
  1 30  1  0
  1 31  1  0
  3 32  1  0
  4 33  1  0
  5 34  1  0
 12 35  1  0
 13 36  1  0
 18 37  1  0
 21 38  1  0
 22 39  1  0
 24 40  1  0
 24 41  1  0
 24 42  1  0
 26 43  1  0
 27 44  1  0
 28 45  1  0
M  CHG  2   7  -1  10  -1
M  END
>  <UniqueID>  (23) 
21

>  <SMILES>  (23) 
Cc1cccc([N-]C(=O)[N-]c2ccc(Oc3ncnc4ccn(C)c34)cc2)c1

>  <Energy>  (23) 
99.61881862462377

>  <Genealogy>  (23) 
Cc1cccc([N-]C(=O)[N-]c2ccc(Oc3ncnc4ccn(C)c34)cc2)c1 (protonated)
Cc1cccc([N-]C(=O)[N-]c2ccc(Oc3ncnc4ccn(C)c34)cc2)c1 (3D coordinates assigned)
Cc1cccc([N-]C(=O)[N-]c2ccc(Oc3ncnc4ccn(C)c34)cc2)c1 (optimized conformer: 99.61881862462377 kcal/mol)

>  <smiles>  (23) 
Cc1cccc(NC(=O)Nc2ccc(Oc3ncnc4ccn(C)c34)cc2)c1

>  <score_type>  (23) 
oracle

>  <origin>  (23) 
adg

>  <m_score__min__energy>  (23) 
-11.550000000000001

>  <m_primary>  (23) 
energy

$$$$
23:0
     RDKit          3D

 27 29  0  0  0  0  0  0  0  0999 V2000
   57.1550   34.2350   45.3820 O   0  0  0  0  0  0  0  0  0  0  0  0
   58.0500   33.3980   45.6810 C   0  0  0  0  0  0  0  0  0  0  0  0
   59.1420   33.8040   46.4510 C   0  0  0  0  0  0  0  0  0  0  0  0
   60.1420   32.8680   46.7860 C   0  0  0  0  0  0  0  0  0  0  0  0
   61.3430   33.2190   47.6050 C   0  0  0  0  0  0  0  0  0  0  0  0
   61.2580   33.9170   48.8320 C   0  0  0  0  0  0  0  0  0  0  0  0
   62.4140   34.2200   49.5610 C   0  0  0  0  0  0  0  0  0  0  0  0
   63.6670   33.8370   49.0840 C   0  0  0  0  0  0  0  0  0  0  0  0
   63.7710   33.1480   47.8770 C   0  0  0  0  0  0  0  0  0  0  0  0
   62.6220   32.8410   47.1430 C   0  0  0  0  0  0  0  0  0  0  0  0
   60.0190   31.6100   46.3570 O   0  0  0  0  0  0  0  0  0  0  0  0
   58.9980   31.1810   45.6240 C   0  0  0  0  0  0  0  0  0  0  0  0
   58.9520   29.8430   45.2170 C   0  0  0  0  0  0  0  0  0  0  0  0
   57.8820   29.3770   44.4450 C   0  0  0  0  0  0  0  0  0  0  0  0
   57.8400   27.6950   43.9430 Cl  0  0  0  0  0  0  0  0  0  0  0  0
   56.8530   30.2530   44.0750 C   0  0  0  0  0  0  0  0  0  0  0  0
   55.8140   29.8080   43.3250 F   0  0  0  0  0  0  0  0  0  0  0  0
   56.8920   31.5920   44.4760 C   0  0  0  0  0  0  0  0  0  0  0  0
   57.9640   32.0650   45.2530 C   0  0  0  0  0  0  0  0  0  0  0  0
   59.2215   34.8462   46.7936 H   0  0  0  0  0  0  0  0  0  0  0  0
   60.2746   34.2246   49.2170 H   0  0  0  0  0  0  0  0  0  0  0  0
   62.3335   34.7627   50.5144 H   0  0  0  0  0  0  0  0  0  0  0  0
   64.5726   34.0785   49.6598 H   0  0  0  0  0  0  0  0  0  0  0  0
   64.7595   32.8452   47.5013 H   0  0  0  0  0  0  0  0  0  0  0  0
   62.7158   32.2970   46.1916 H   0  0  0  0  0  0  0  0  0  0  0  0
   59.7602   29.1547   45.5051 H   0  0  0  0  0  0  0  0  0  0  0  0
   56.0824   32.2766   44.1830 H   0  0  0  0  0  0  0  0  0  0  0  0
  1  2  2  0
  2  3  1  0
  3  4  2  0
  4  5  1  0
  5  6  2  0
  6  7  1  0
  7  8  2  0
  8  9  1  0
  9 10  2  0
  4 11  1  0
 11 12  1  0
 12 13  2  0
 13 14  1  0
 14 15  1  0
 14 16  2  0
 16 17  1  0
 16 18  1  0
 18 19  2  0
 19  2  1  0
 10  5  1  0
 19 12  1  0
  3 20  1  0
  6 21  1  0
  7 22  1  0
  8 23  1  0
  9 24  1  0
 10 25  1  0
 13 26  1  0
 18 27  1  0
M  END
>  <UniqueID>  (24) 
22

>  <SMILES>  (24) 
O=c1cc(-c2ccccc2)oc2cc(Cl)c(F)cc12

>  <Energy>  (24) 
39.622721940430445

>  <Genealogy>  (24) 
O=c1cc(-c2ccccc2)oc2cc(Cl)c(F)cc12 (3D coordinates assigned)
O=c1cc(-c2ccccc2)oc2cc(Cl)c(F)cc12 (optimized conformer: 39.622721940430445 kcal/mol)

>  <smiles>  (24) 
O=c1cc(-c2ccccc2)oc2cc(Cl)c(F)cc12

>  <score_type>  (24) 
oracle

>  <origin>  (24) 
adg

>  <m_score__min__energy>  (24) 
-6.7599999999999998

>  <m_primary>  (24) 
energy

$$$$
24:0
     RDKit          3D

 46 50  0  0  0  0  0  0  0  0999 V2000
   56.6350   30.8990   44.1080 C   0  0  0  0  0  0  0  0  0  0  0  0
   57.8940   30.9280   44.8610 N   0  0  0  0  0  0  0  0  0  0  0  0
   58.5690   29.7130   45.2380 C   0  0  0  0  0  0  0  0  0  0  0  0
   58.3810   28.5090   44.5320 C   0  0  0  0  0  0  0  0  0  0  0  0
   59.0720   27.3560   44.9090 C   0  0  0  0  0  0  0  0  0  0  0  0
   59.9560   27.3910   45.9880 C   0  0  0  0  0  0  0  0  0  0  0  0
   60.1600   28.5810   46.6880 C   0  0  0  0  0  0  0  0  0  0  0  0
   59.4880   29.7570   46.3060 C   0  0  0  0  0  0  0  0  0  0  0  0
   59.6500   30.9670   47.0820 N   0  0  0  0  0  0  0  0  0  0  0  0
   59.4620   32.1720   46.2940 C   0  0  0  0  0  0  0  0  0  0  0  0
   60.0750   33.3970   46.6710 C   0  0  0  0  0  0  0  0  0  0  0  0
   61.0400   33.4800   47.7840 C   0  0  0  0  0  0  0  0  0  0  0  0
   61.1180   34.4820   48.6590 C   0  0  0  0  0  0  0  0  0  0  0  0
   62.2480   34.2050   49.5440 C   0  0  0  0  0  0  0  0  0  0  0  0
   62.6360   34.9620   50.4710 O   0  0  0  0  0  0  0  0  0  0  0  0
   62.8930   32.9870   49.1780 N   0  0  0  0  0  0  0  0  0  0  0  0
   64.0390   32.3650   49.7860 C   0  0  0  0  0  0  0  0  0  0  0  0
   63.8840   31.2310   50.6030 C   0  0  0  0  0  0  0  0  0  0  0  0
   64.9990   30.6280   51.1940 C   0  0  0  0  0  0  0  0  0  0  0  0
   66.2750   31.1510   50.9760 C   0  0  0  0  0  0  0  0  0  0  0  0
   66.4400   32.2780   50.1660 C   0  0  0  0  0  0  0  0  0  0  0  0
   65.3280   32.8820   49.5730 C   0  0  0  0  0  0  0  0  0  0  0  0
   62.1310   32.5440   48.0590 C   0  0  0  0  0  0  0  0  0  0  0  0
   62.3600   31.4840   47.4170 O   0  0  0  0  0  0  0  0  0  0  0  0
   59.7630   34.5750   45.9800 C   0  0  0  0  0  0  0  0  0  0  0  0
   58.8640   34.5560   44.9160 C   0  0  0  0  0  0  0  0  0  0  0  0
   58.2500   33.3650   44.5400 C   0  0  0  0  0  0  0  0  0  0  0  0
   58.5200   32.1730   45.2360 C   0  0  0  0  0  0  0  0  0  0  0  0
   55.7883   30.8795   44.8099 H   0  0  0  0  0  0  0  0  0  0  0  0
   56.5657   31.7958   43.4748 H   0  0  0  0  0  0  0  0  0  0  0  0
   56.6071   30.0000   43.4748 H   0  0  0  0  0  0  0  0  0  0  0  0
   57.6865   28.4769   43.6796 H   0  0  0  0  0  0  0  0  0  0  0  0
   58.9193   26.4183   44.3545 H   0  0  0  0  0  0  0  0  0  0  0  0
   60.4931   26.4789   46.2875 H   0  0  0  0  0  0  0  0  0  0  0  0
   60.8506   28.5999   47.5440 H   0  0  0  0  0  0  0  0  0  0  0  0
   60.6010   30.9560   47.5120 H   0  0  0  0  0  0  0  0  0  0  0  0
   58.9390   30.9630   47.8500 H   0  0  0  0  0  0  0  0  0  0  0  0
   60.4536   35.3574   48.7066 H   0  0  0  0  0  0  0  0  0  0  0  0
   62.8805   30.8160   50.7782 H   0  0  0  0  0  0  0  0  0  0  0  0
   64.8705   29.7407   51.8313 H   0  0  0  0  0  0  0  0  0  0  0  0
   67.1509   30.6759   51.4419 H   0  0  0  0  0  0  0  0  0  0  0  0
   67.4456   32.6898   49.9952 H   0  0  0  0  0  0  0  0  0  0  0  0
   65.4628   33.7681   48.9352 H   0  0  0  0  0  0  0  0  0  0  0  0
   60.2321   35.5236   46.2803 H   0  0  0  0  0  0  0  0  0  0  0  0
   58.6388   35.4849   44.3715 H   0  0  0  0  0  0  0  0  0  0  0  0
   57.5487   33.3558   43.6926 H   0  0  0  0  0  0  0  0  0  0  0  0
  1  2  1  0
  2  3  1  0
  3  4  2  0
  4  5  1  0
  5  6  2  0
  6  7  1  0
  7  8  2  0
  8  9  1  0
  9 10  1  0
 10 11  2  0
 11 12  1  0
 12 13  2  0
 13 14  1  0
 14 15  2  0
 14 16  1  0
 16 17  1  0
 17 18  2  0
 18 19  1  0
 19 20  2  0
 20 21  1  0
 21 22  2  0
 16 23  1  0
 23 24  2  0
 11 25  1  0
 25 26  2  0
 26 27  1  0
 27 28  2  0
 28  2  1  0
  8  3  1  0
 28 10  1  0
 23 12  1  0
 22 17  1  0
  1 29  1  0
  1 30  1  0
  1 31  1  0
  4 32  1  0
  5 33  1  0
  6 34  1  0
  7 35  1  0
  9 36  1  0
  9 37  1  0
 13 38  1  0
 18 39  1  0
 19 40  1  0
 20 41  1  0
 21 42  1  0
 22 43  1  0
 25 44  1  0
 26 45  1  0
 27 46  1  0
M  CHG  1   9   1
M  END
>  <UniqueID>  (25) 
23

>  <SMILES>  (25) 
CN1c2ccccc2[NH2+]c2c(C3=CC(=O)N(c4ccccc4)C3=O)cccc21

>  <Energy>  (25) 
103.64130081620503

>  <Genealogy>  (25) 
CN1c2ccccc2[NH2+]c2c(C3=CC(=O)N(c4ccccc4)C3=O)cccc21 (protonated)
CN1c2ccccc2[NH2+]c2c(C3=CC(=O)N(c4ccccc4)C3=O)cccc21 (3D coordinates assigned)
CN1c2ccccc2[NH2+]c2c(C3=CC(=O)N(c4ccccc4)C3=O)cccc21 (nonaromatic ring conformer: 103.64130081620503 kcal/mol)

>  <smiles>  (25) 
CN1c2ccccc2Nc2c(C3=CC(=O)N(c4ccccc4)C3=O)cccc21

>  <score_type>  (25) 
oracle

>  <origin>  (25) 
adg

>  <m_score__min__energy>  (25) 
-7.0499999999999998

>  <m_primary>  (25) 
energy

$$$$
25:0
     RDKit          3D

 57 58  0  0  0  0  0  0  0  0999 V2000
   60.1150   30.2570   48.7650 C   0  0  0  0  0  0  0  0  0  0  0  0
   60.2500   31.5590   49.3250 O   0  0  0  0  0  0  0  0  0  0  0  0
   59.5310   32.0280   50.4370 C   0  0  0  0  0  0  0  0  0  0  0  0
   58.1370   31.8540   50.5450 C   0  0  0  0  0  0  0  0  0  0  0  0
   57.4490   32.3280   51.6640 C   0  0  0  0  0  0  0  0  0  0  0  0
   58.1390   32.9820   52.6850 C   0  0  0  0  0  0  0  0  0  0  0  0
   59.5190   33.1640   52.5900 C   0  0  0  0  0  0  0  0  0  0  0  0
   60.2260   32.6910   51.4710 C   0  0  0  0  0  0  0  0  0  0  0  0
   61.7280   32.8560   51.4120 C   0  0  0  0  0  0  0  0  0  0  0  0
   62.3720   31.8270   50.5750 N   0  0  0  0  0  0  0  0  0  0  0  0
   63.8120   31.6480   50.8720 C   0  0  0  0  0  0  0  0  0  0  0  0
   64.7030   32.0930   49.6980 C   0  0  0  0  0  0  0  0  0  0  0  0
   64.2230   33.4300   49.1150 C   0  0  0  0  0  0  0  0  0  0  0  0
   63.7990   33.3200   47.6390 C   0  0  0  0  0  0  0  0  0  0  0  0
   62.3270   33.6790   47.3540 C   0  0  0  0  0  0  0  0  0  0  0  0
   61.5460   34.2130   48.5650 C   0  0  0  0  0  0  0  0  0  0  0  0
   60.1200   34.3670   48.2460 N   0  0  0  0  0  0  0  0  0  0  0  0
   59.9510   34.7740   46.8470 C   0  0  0  0  0  0  0  0  0  0  0  0
   59.1310   33.7480   46.1140 C   0  0  0  0  0  0  0  0  0  0  0  0
   58.1780   34.1490   45.1670 C   0  0  0  0  0  0  0  0  0  0  0  0
   57.3900   33.2000   44.5120 C   0  0  0  0  0  0  0  0  0  0  0  0
   57.5320   31.8300   44.8010 C   0  0  0  0  0  0  0  0  0  0  0  0
   56.7220   30.8490   44.1290 N   0  0  0  0  0  0  0  0  0  0  0  0
   56.7990   30.6990   42.8920 O   0  0  0  0  0  0  0  0  0  0  0  0
   55.8500   30.0560   44.8400 O   0  0  0  0  0  0  0  0  0  0  0  0
   58.4780   31.4350   45.7640 C   0  0  0  0  0  0  0  0  0  0  0  0
   59.2660   32.3860   46.4180 C   0  0  0  0  0  0  0  0  0  0  0  0
   60.0382   29.5159   49.5743 H   0  0  0  0  0  0  0  0  0  0  0  0
   59.2079   30.2172   48.1440 H   0  0  0  0  0  0  0  0  0  0  0  0
   60.9946   30.0319   48.1440 H   0  0  0  0  0  0  0  0  0  0  0  0
   57.5868   31.3412   49.7423 H   0  0  0  0  0  0  0  0  0  0  0  0
   56.3610   32.1854   51.7405 H   0  0  0  0  0  0  0  0  0  0  0  0
   57.5947   33.3544   53.5654 H   0  0  0  0  0  0  0  0  0  0  0  0
   60.0580   33.6817   53.3971 H   0  0  0  0  0  0  0  0  0  0  0  0
   61.9588   33.8470   50.9942 H   0  0  0  0  0  0  0  0  0  0  0  0
   62.1184   32.7502   52.4349 H   0  0  0  0  0  0  0  0  0  0  0  0
   62.2830   32.1390   49.5800 H   0  0  0  0  0  0  0  0  0  0  0  0
   61.8520   30.9220   50.6520 H   0  0  0  0  0  0  0  0  0  0  0  0
   64.0686   32.2458   51.7590 H   0  0  0  0  0  0  0  0  0  0  0  0
   63.9919   30.5772   51.0480 H   0  0  0  0  0  0  0  0  0  0  0  0
   65.7371   32.2075   50.0552 H   0  0  0  0  0  0  0  0  0  0  0  0
   64.6487   31.3284   48.9090 H   0  0  0  0  0  0  0  0  0  0  0  0
   63.3618   33.7806   49.7027 H   0  0  0  0  0  0  0  0  0  0  0  0
   65.0660   34.1348   49.1655 H   0  0  0  0  0  0  0  0  0  0  0  0
   64.4353   33.9970   47.0501 H   0  0  0  0  0  0  0  0  0  0  0  0
   63.9152   32.2612   47.3645 H   0  0  0  0  0  0  0  0  0  0  0  0
   62.3088   34.4492   46.5688 H   0  0  0  0  0  0  0  0  0  0  0  0
   61.8327   32.7425   47.0562 H   0  0  0  0  0  0  0  0  0  0  0  0
   61.6532   33.5071   49.4018 H   0  0  0  0  0  0  0  0  0  0  0  0
   61.9525   35.1982   48.8373 H   0  0  0  0  0  0  0  0  0  0  0  0
   59.6650   33.4290   48.3530 H   0  0  0  0  0  0  0  0  0  0  0  0
   59.4383   35.7465   46.8089 H   0  0  0  0  0  0  0  0  0  0  0  0
   60.9391   34.8573   46.3708 H   0  0  0  0  0  0  0  0  0  0  0  0
   58.0502   35.2174   44.9386 H   0  0  0  0  0  0  0  0  0  0  0  0
   56.6523   33.5261   43.7640 H   0  0  0  0  0  0  0  0  0  0  0  0
   58.5986   30.3684   46.0044 H   0  0  0  0  0  0  0  0  0  0  0  0
   59.9960   32.0642   47.1753 H   0  0  0  0  0  0  0  0  0  0  0  0
  1  2  1  0
  2  3  1  0
  3  4  2  0
  4  5  1  0
  5  6  2  0
  6  7  1  0
  7  8  2  0
  8  9  1  0
  9 10  1  0
 10 11  1  0
 11 12  1  0
 12 13  1  0
 13 14  1  0
 14 15  1  0
 15 16  1  0
 16 17  1  0
 17 18  1  0
 18 19  1  0
 19 20  2  0
 20 21  1  0
 21 22  2  0
 22 23  1  0
 23 24  2  0
 23 25  1  0
 22 26  1  0
 26 27  2  0
  8  3  1  0
 27 19  1  0
  1 28  1  0
  1 29  1  0
  1 30  1  0
  4 31  1  0
  5 32  1  0
  6 33  1  0
  7 34  1  0
  9 35  1  0
  9 36  1  0
 10 37  1  0
 10 38  1  0
 11 39  1  0
 11 40  1  0
 12 41  1  0
 12 42  1  0
 13 43  1  0
 13 44  1  0
 14 45  1  0
 14 46  1  0
 15 47  1  0
 15 48  1  0
 16 49  1  0
 16 50  1  0
 17 51  1  0
 18 52  1  0
 18 53  1  0
 20 54  1  0
 21 55  1  0
 26 56  1  0
 27 57  1  0
M  CHG  3  10   1  23   1  25  -1
M  END
>  <UniqueID>  (26) 
24

>  <SMILES>  (26) 
COc1ccccc1C[NH2+]CCCCCCNCc1ccc([N+](=O)[O-])cc1

>  <Energy>  (26) 
49.38634705045206

>  <Genealogy>  (26) 
COc1ccccc1C[NH2+]CCCCCCNCc1ccc([N+](=O)[O-])cc1 (protonated)
COc1ccccc1C[NH2+]CCCCCCNCc1ccc([N+](=O)[O-])cc1 (3D coordinates assigned)
COc1ccccc1C[NH2+]CCCCCCNCc1ccc([N+](=O)[O-])cc1 (optimized conformer: 49.38634705045206 kcal/mol)

>  <smiles>  (26) 
COc1ccccc1CNCCCCCCNCc1ccc([N+](=O)[O-])cc1

>  <score_type>  (26) 
oracle

>  <origin>  (26) 
adg

>  <m_score__min__energy>  (26) 
-5.4800000000000004

>  <m_primary>  (26) 
energy

$$$$
26:0
     RDKit          3D

 20 20  0  0  0  0  0  0  0  0999 V2000
   57.7440   31.9650   42.3290 C   0  0  0  0  0  0  0  0  0  0  0  0
   57.8060   31.5690   43.7880 C   0  0  0  0  0  0  0  0  0  0  0  0
   57.5700   30.2890   44.1640 C   0  0  0  0  0  0  0  0  0  0  0  0
   58.6410   29.3680   44.4630 C   0  0  0  0  0  0  0  0  0  0  0  0
   59.4990   28.6280   44.7030 N   0  0  0  0  0  0  0  0  0  0  0  0
   56.2270   29.7890   44.3420 C   0  0  0  0  0  0  0  0  0  0  0  0
   55.1510   29.3890   44.4840 N   0  0  0  0  0  0  0  0  0  0  0  0
   58.0870   32.6350   44.7870 C   0  0  0  0  0  0  0  0  0  0  0  0
   58.8830   33.7430   44.4510 C   0  0  0  0  0  0  0  0  0  0  0  0
   59.1420   34.7200   45.4150 C   0  0  0  0  0  0  0  0  0  0  0  0
   58.6150   34.5870   46.7000 C   0  0  0  0  0  0  0  0  0  0  0  0
   57.8320   33.4720   47.0030 C   0  0  0  0  0  0  0  0  0  0  0  0
   57.5900   32.5310   46.0520 N   0  0  0  0  0  0  0  0  0  0  0  0
   57.5743   33.0490   42.2502 H   0  0  0  0  0  0  0  0  0  0  0  0
   58.6937   31.7059   41.8381 H   0  0  0  0  0  0  0  0  0  0  0  0
   56.9190   31.4280   41.8381 H   0  0  0  0  0  0  0  0  0  0  0  0
   59.2987   33.8402   43.4372 H   0  0  0  0  0  0  0  0  0  0  0  0
   59.7608   35.5934   45.1614 H   0  0  0  0  0  0  0  0  0  0  0  0
   58.8142   35.3517   47.4652 H   0  0  0  0  0  0  0  0  0  0  0  0
   57.4103   33.3545   48.0121 H   0  0  0  0  0  0  0  0  0  0  0  0
  1  2  1  0
  2  3  2  3
  3  4  1  0
  4  5  3  0
  3  6  1  0
  6  7  3  0
  2  8  1  0
  8  9  2  0
  9 10  1  0
 10 11  2  0
 11 12  1  0
 12 13  2  0
 13  8  1  0
  1 14  1  0
  1 15  1  0
  1 16  1  0
  9 17  1  0
 10 18  1  0
 11 19  1  0
 12 20  1  0
M  END
>  <UniqueID>  (27) 
25

>  <SMILES>  (27) 
CC(=C(C#N)C#N)c1ccccn1

>  <Energy>  (27) 
24.19956209333923

>  <Genealogy>  (27) 
CC(=C(C#N)C#N)c1ccccn1 (3D coordinates assigned)
CC(=C(C#N)C#N)c1ccccn1 (optimized conformer: 24.19956209333923 kcal/mol)

>  <smiles>  (27) 
CC(=C(C#N)C#N)c1ccccn1

>  <score_type>  (27) 
oracle

>  <origin>  (27) 
adg

>  <m_score__min__energy>  (27) 
-5.3499999999999996

>  <m_primary>  (27) 
energy

$$$$
27:0
     RDKit          3D

 20 20  0  0  0  0  0  0  0  0999 V2000
   58.0462   35.2998   44.9989 H   0  0  0  0  0  0  0  0  0  0  0  0
   58.2570   34.2270   45.1200 C   0  0  0  0  0  0  0  0  0  0  0  0
   57.7770   33.3130   44.1790 C   0  0  0  0  0  0  0  0  0  0  0  0
   57.1795   33.6698   43.3271 H   0  0  0  0  0  0  0  0  0  0  0  0
   58.0510   31.9440   44.3120 C   0  0  0  0  0  0  0  0  0  0  0  0
   57.5260   31.0220   43.3420 N   0  0  0  0  0  0  0  0  0  0  0  0
   57.9480   31.0240   42.3860 H   0  0  0  0  0  0  0  0  0  0  0  0
   56.5290   30.0250   43.6240 C   0  0  0  0  0  0  0  0  0  0  0  0
   56.2600   29.7080   44.8580 N   0  0  0  0  0  0  0  0  0  0  0  0
   56.9940   28.7810   45.6160 C   0  0  0  0  0  0  0  0  0  0  0  0
   57.5980   28.0180   46.2400 N   0  0  0  0  0  0  0  0  0  0  0  0
   55.8930   29.3540   42.5270 N   0  0  0  0  0  0  0  0  0  0  0  0
   56.1340   29.6150   41.5450 H   0  0  0  0  0  0  0  0  0  0  0  0
   55.1780   28.6060   42.6680 H   0  0  0  0  0  0  0  0  0  0  0  0
   58.7820   31.4980   45.4290 C   0  0  0  0  0  0  0  0  0  0  0  0
   58.9761   30.4233   45.5606 H   0  0  0  0  0  0  0  0  0  0  0  0
   59.2640   32.4120   46.3740 C   0  0  0  0  0  0  0  0  0  0  0  0
   60.1780   31.8100   47.7500 Cl  0  0  0  0  0  0  0  0  0  0  0  0
   59.0050   33.7830   46.2160 C   0  0  0  0  0  0  0  0  0  0  0  0
   59.5920   34.9630   47.3800 Cl  0  0  0  0  0  0  0  0  0  0  0  0
  1  2  1  0
  2  3  2  0
  3  4  1  0
  3  5  1  0
  5  6  1  0
  6  7  1  0
  6  8  1  0
  8  9  2  0
  9 10  1  0
 10 11  3  0
  8 12  1  0
 12 13  1  0
 12 14  1  0
  5 15  2  0
 15 16  1  0
 15 17  1  0
 17 18  1  0
 17 19  2  0
 19 20  1  0
 19  2  1  0
M  END
>  <UniqueID>  (28) 
26

>  <SMILES>  (28) 
N#C/N=C(\N)Nc1ccc(Cl)c(Cl)c1

>  <Energy>  (28) 
22.60457913338241

>  <Genealogy>  (28) 
N#C/N=C(\N)Nc1ccc(Cl)c(Cl)c1 (cis-trans isomerization)
N#C/N=C(\N)Nc1ccc(Cl)c(Cl)c1 (3D coordinates assigned)
N#C/N=C(\N)Nc1ccc(Cl)c(Cl)c1 (optimized conformer: 22.60457913338241 kcal/mol)

>  <smiles>  (28) 
N#CN=C(N)Nc1ccc(Cl)c(Cl)c1

>  <score_type>  (28) 
oracle

>  <origin>  (28) 
adg

>  <m_score__min__energy>  (28) 
-5.9100000000000001

>  <m_primary>  (28) 
energy

$$$$
28:0
     RDKit          3D

 32 33  0  0  0  0  0  0  0  0999 V2000
   62.3570   33.8260   46.7200 C   0  0  0  0  0  0  0  0  0  0  0  0
   60.8870   33.6100   46.9160 C   0  0  0  0  0  0  0  0  0  0  0  0
   60.3850   33.2720   48.1820 C   0  0  0  0  0  0  0  0  0  0  0  0
   59.0110   33.1000   48.3720 C   0  0  0  0  0  0  0  0  0  0  0  0
   58.1270   33.2780   47.3040 C   0  0  0  0  0  0  0  0  0  0  0  0
   58.6120   33.6440   46.0380 C   0  0  0  0  0  0  0  0  0  0  0  0
   57.6620   33.8150   44.8810 C   0  0  0  0  0  0  0  0  0  0  0  0
   57.4030   32.4850   44.1660 C   0  0  0  0  0  0  0  0  0  0  0  0
   56.3550   31.7160   44.8430 N   0  0  0  0  0  0  0  0  0  0  0  0
   56.3640   30.0510   44.3410 S   0  0  0  0  0  0  0  0  0  0  0  0
   56.3470   29.9610   42.8410 O   0  0  0  0  0  0  0  0  0  0  0  0
   55.1420   29.3640   44.8800 O   0  0  0  0  0  0  0  0  0  0  0  0
   57.7910   29.2440   44.9670 C   0  0  0  0  0  0  0  0  0  0  0  0
   59.0940   29.4370   44.5280 C   0  0  0  0  0  0  0  0  0  0  0  0
   60.0260   28.6710   45.2350 C   0  0  0  0  0  0  0  0  0  0  0  0
   59.4510   27.8860   46.2240 C   0  0  0  0  0  0  0  0  0  0  0  0
   60.3850   26.7120   47.4010 Br  0  0  0  0  0  0  0  0  0  0  0  0
   57.7880   28.1360   46.2310 S   0  0  0  0  0  0  0  0  0  0  0  0
   59.9940   33.8070   45.8500 C   0  0  0  0  0  0  0  0  0  0  0  0
   62.8508   33.8986   47.7002 H   0  0  0  0  0  0  0  0  0  0  0  0
   62.7801   32.9804   46.1580 H   0  0  0  0  0  0  0  0  0  0  0  0
   62.5190   34.7576   46.1580 H   0  0  0  0  0  0  0  0  0  0  0  0
   61.0756   33.1419   49.0283 H   0  0  0  0  0  0  0  0  0  0  0  0
   58.6245   32.8240   49.3642 H   0  0  0  0  0  0  0  0  0  0  0  0
   57.0475   33.1308   47.4558 H   0  0  0  0  0  0  0  0  0  0  0  0
   56.7071   34.2101   45.2579 H   0  0  0  0  0  0  0  0  0  0  0  0
   58.1168   34.5111   44.1609 H   0  0  0  0  0  0  0  0  0  0  0  0
   57.0877   32.6887   43.1320 H   0  0  0  0  0  0  0  0  0  0  0  0
   58.3316   31.8955   44.1787 H   0  0  0  0  0  0  0  0  0  0  0  0
   59.3647   30.1207   43.7099 H   0  0  0  0  0  0  0  0  0  0  0  0
   61.1062   28.6890   45.0279 H   0  0  0  0  0  0  0  0  0  0  0  0
   60.3802   34.0912   44.8600 H   0  0  0  0  0  0  0  0  0  0  0  0
  1  2  1  0
  2  3  2  0
  3  4  1  0
  4  5  2  0
  5  6  1  0
  6  7  1  0
  7  8  1  0
  8  9  1  0
  9 10  1  0
 10 11  2  0
 10 12  2  0
 10 13  1  0
 13 14  2  0
 14 15  1  0
 15 16  2  0
 16 17  1  0
 16 18  1  0
  6 19  2  0
 19  2  1  0
 18 13  1  0
  1 20  1  0
  1 21  1  0
  1 22  1  0
  3 23  1  0
  4 24  1  0
  5 25  1  0
  7 26  1  0
  7 27  1  0
  8 28  1  0
  8 29  1  0
 14 30  1  0
 15 31  1  0
 19 32  1  0
M  CHG  1   9  -1
M  END
>  <UniqueID>  (29) 
27

>  <SMILES>  (29) 
Cc1cccc(CC[N-]S(=O)(=O)c2ccc(Br)s2)c1

>  <Energy>  (29) 
54.956431689451165

>  <Genealogy>  (29) 
Cc1cccc(CC[N-]S(=O)(=O)c2ccc(Br)s2)c1 (protonated)
Cc1cccc(CC[N-]S(=O)(=O)c2ccc(Br)s2)c1 (3D coordinates assigned)
Cc1cccc(CC[N-]S(=O)(=O)c2ccc(Br)s2)c1 (optimized conformer: 54.956431689451165 kcal/mol)

>  <smiles>  (29) 
Cc1cccc(CCNS(=O)(=O)c2ccc(Br)s2)c1

>  <score_type>  (29) 
oracle

>  <origin>  (29) 
adg

>  <m_score__min__energy>  (29) 
-9.4100000000000001

>  <m_primary>  (29) 
energy

$$$$
29:0
     RDKit          3D

 39 41  0  0  0  0  0  0  0  0999 V2000
   54.7670   29.3970   45.2870 H   0  0  0  0  0  0  0  0  0  0  0  0
   55.8010   29.2500   45.2480 N   0  0  0  0  0  0  0  0  0  0  0  0
   56.3310   28.1060   45.5300 C   0  0  0  0  0  0  0  0  0  0  0  0
   55.5220   27.0090   45.7050 N   0  0  0  0  0  0  0  0  0  0  0  0
   56.0440   25.7820   46.0020 C   0  0  0  0  0  0  0  0  0  0  0  0
   55.2920   24.7850   46.1580 O   0  0  0  0  0  0  0  0  0  0  0  0
   57.4220   25.6750   46.1230 C   0  0  0  0  0  0  0  0  0  0  0  0
   58.1770   24.5940   46.3960 N   0  0  0  0  0  0  0  0  0  0  0  0
   59.4420   25.1000   46.3740 C   0  0  0  0  0  0  0  0  0  0  0  0
   60.3396   24.4915   46.5583 H   0  0  0  0  0  0  0  0  0  0  0  0
   59.4850   26.4300   46.1020 N   0  0  0  0  0  0  0  0  0  0  0  0
   60.6700   27.2790   45.9760 C   0  0  0  0  0  0  0  0  0  0  0  0
   61.0156   27.5647   46.9804 H   0  0  0  0  0  0  0  0  0  0  0  0
   61.4499   26.7136   45.4449 H   0  0  0  0  0  0  0  0  0  0  0  0
   60.3570   28.5500   45.1730 C   0  0  0  0  0  0  0  0  0  0  0  0
   61.2598   28.8455   44.6184 H   0  0  0  0  0  0  0  0  0  0  0  0
   59.5196   28.3158   44.4992 H   0  0  0  0  0  0  0  0  0  0  0  0
   59.9150   29.7380   46.0670 C   0  0  0  0  0  0  0  0  0  0  0  0
   59.7072   29.3578   47.0781 H   0  0  0  0  0  0  0  0  0  0  0  0
   60.7329   30.4736   46.0657 H   0  0  0  0  0  0  0  0  0  0  0  0
   58.7000   30.4230   45.5600 N   0  0  0  0  0  0  0  0  0  0  0  0
   57.8650   29.8460   45.8230 H   0  0  0  0  0  0  0  0  0  0  0  0
   58.5650   31.7500   46.2180 C   0  0  0  0  0  0  0  0  0  0  0  0
   58.1855   31.5952   47.2388 H   0  0  0  0  0  0  0  0  0  0  0  0
   59.5605   32.2178   46.2087 H   0  0  0  0  0  0  0  0  0  0  0  0
   57.6050   32.7110   45.4800 C   0  0  0  0  0  0  0  0  0  0  0  0
   57.0219   33.2727   46.2246 H   0  0  0  0  0  0  0  0  0  0  0  0
   58.2101   33.3876   44.8586 H   0  0  0  0  0  0  0  0  0  0  0  0
   56.6420   31.9590   44.5630 C   0  0  0  0  0  0  0  0  0  0  0  0
   56.0089   31.2966   45.1716 H   0  0  0  0  0  0  0  0  0  0  0  0
   56.0249   32.6933   44.0244 H   0  0  0  0  0  0  0  0  0  0  0  0
   57.4090   31.1150   43.5340 C   0  0  0  0  0  0  0  0  0  0  0  0
   56.7782   30.2646   43.2359 H   0  0  0  0  0  0  0  0  0  0  0  0
   57.6443   31.7661   42.6792 H   0  0  0  0  0  0  0  0  0  0  0  0
   58.7440   30.5700   44.0870 C   0  0  0  0  0  0  0  0  0  0  0  0
   58.9437   29.5871   43.6352 H   0  0  0  0  0  0  0  0  0  0  0  0
   59.5406   31.2853   43.8345 H   0  0  0  0  0  0  0  0  0  0  0  0
   58.1980   26.7670   45.9470 C   0  0  0  0  0  0  0  0  0  0  0  0
   57.6900   27.9880   45.6520 N   0  0  0  0  0  0  0  0  0  0  0  0
  1  2  1  0
  2  3  2  0
  3  4  1  0
  4  5  1  0
  5  6  2  0
  5  7  1  0
  7  8  1  0
  8  9  2  0
  9 10  1  0
  9 11  1  0
 11 12  1  0
 12 13  1  0
 12 14  1  0
 12 15  1  0
 15 16  1  0
 15 17  1  0
 15 18  1  0
 18 19  1  0
 18 20  1  0
 18 21  1  0
 21 22  1  0
 21 23  1  0
 23 24  1  0
 23 25  1  0
 23 26  1  0
 26 27  1  0
 26 28  1  0
 26 29  1  0
 29 30  1  0
 29 31  1  0
 29 32  1  0
 32 33  1  0
 32 34  1  0
 32 35  1  0
 35 36  1  0
 35 37  1  0
 11 38  1  0
 38 39  1  0
 39  3  1  0
 38  7  2  0
 35 21  1  0
M  CHG  3   4  -1  21   1  39  -1
M  END
>  <UniqueID>  (30) 
28

>  <SMILES>  (30) 
[H]/N=c1/[n-]c(=O)c2ncn(CCC[NH+]3CCCCC3)c2[n-]1

>  <Energy>  (30) 
86.1015309706653

>  <Genealogy>  (30) 
N=c1[n-]c(=O)c2ncn(CCC[NH+]3CCCCC3)c2[n-]1 (protonated)
[H]/N=c1/[n-]c(=O)c2ncn(CCC[NH+]3CCCCC3)c2[n-]1 (cis-trans isomerization)
[H]/N=c1/[n-]c(=O)c2ncn(CCC[NH+]3CCCCC3)c2[n-]1 (3D coordinates assigned)
[H]/N=c1/[n-]c(=O)c2ncn(CCC[NH+]3CCCCC3)c2[n-]1 (nonaromatic ring conformer: 86.1015309706653 kcal/mol)

>  <smiles>  (30) 
N=c1[nH]c(=O)c2ncn(CCCN3CCCCC3)c2[nH]1

>  <score_type>  (30) 
oracle

>  <origin>  (30) 
adg

>  <m_score__min__energy>  (30) 
-8.1799999999999997

>  <m_primary>  (30) 
energy

$$$$
30:0
     RDKit          3D

 31 33  0  0  0  0  0  0  0  0999 V2000
   58.5990   32.0820   48.0390 C   0  0  0  0  0  0  0  0  0  0  0  0
   58.8110   33.1790   47.0320 C   0  0  0  0  0  0  0  0  0  0  0  0
   59.3630   34.3980   47.4650 C   0  0  0  0  0  0  0  0  0  0  0  0
   59.6190   35.4250   46.5550 C   0  0  0  0  0  0  0  0  0  0  0  0
   59.3270   35.2500   45.2030 C   0  0  0  0  0  0  0  0  0  0  0  0
   58.7610   34.0540   44.7590 C   0  0  0  0  0  0  0  0  0  0  0  0
   58.4750   33.0180   45.6630 C   0  0  0  0  0  0  0  0  0  0  0  0
   57.8640   31.8160   45.1660 N   0  0  0  0  0  0  0  0  0  0  0  0
   58.4360   30.6070   45.0250 C   0  0  0  0  0  0  0  0  0  0  0  0
   57.4360   29.7530   44.5980 C   0  0  0  0  0  0  0  0  0  0  0  0
   57.5410   28.3060   44.3000 C   0  0  0  0  0  0  0  0  0  0  0  0
   57.3930   27.3450   45.3180 C   0  0  0  0  0  0  0  0  0  0  0  0
   57.4980   25.9880   45.0050 C   0  0  0  0  0  0  0  0  0  0  0  0
   57.7490   25.5950   43.6930 C   0  0  0  0  0  0  0  0  0  0  0  0
   57.8920   26.5690   42.7040 C   0  0  0  0  0  0  0  0  0  0  0  0
   57.7870   27.8900   43.0210 N   0  0  0  0  0  0  0  0  0  0  0  0
   56.2920   30.4640   44.5100 N   0  0  0  0  0  0  0  0  0  0  0  0
   56.5800   31.7070   44.8670 N   0  0  0  0  0  0  0  0  0  0  0  0
   58.6791   32.4963   49.0549 H   0  0  0  0  0  0  0  0  0  0  0  0
   57.5996   31.6441   47.8993 H   0  0  0  0  0  0  0  0  0  0  0  0
   59.3633   31.3033   47.8993 H   0  0  0  0  0  0  0  0  0  0  0  0
   59.5951   34.5434   48.5304 H   0  0  0  0  0  0  0  0  0  0  0  0
   60.0517   36.3738   46.9051 H   0  0  0  0  0  0  0  0  0  0  0  0
   59.5429   36.0554   44.4855 H   0  0  0  0  0  0  0  0  0  0  0  0
   58.5367   33.9215   43.6903 H   0  0  0  0  0  0  0  0  0  0  0  0
   59.4889   30.3492   45.2120 H   0  0  0  0  0  0  0  0  0  0  0  0
   57.1960   27.6608   46.3531 H   0  0  0  0  0  0  0  0  0  0  0  0
   57.3825   25.2304   45.7941 H   0  0  0  0  0  0  0  0  0  0  0  0
   57.8337   24.5281   43.4388 H   0  0  0  0  0  0  0  0  0  0  0  0
   58.0903   26.2692   41.6644 H   0  0  0  0  0  0  0  0  0  0  0  0
   57.9000   28.5890   42.2530 H   0  0  0  0  0  0  0  0  0  0  0  0
  1  2  1  0
  2  3  2  0
  3  4  1  0
  4  5  2  0
  5  6  1  0
  6  7  2  0
  7  8  1  0
  8  9  1  0
  9 10  2  0
 10 11  1  0
 11 12  2  0
 12 13  1  0
 13 14  2  0
 14 15  1  0
 15 16  2  0
 10 17  1  0
 17 18  2  0
  7  2  1  0
 18  8  1  0
 16 11  1  0
  1 19  1  0
  1 20  1  0
  1 21  1  0
  3 22  1  0
  4 23  1  0
  5 24  1  0
  6 25  1  0
  9 26  1  0
 12 27  1  0
 13 28  1  0
 14 29  1  0
 15 30  1  0
 16 31  1  0
M  CHG  1  16   1
M  END
>  <UniqueID>  (31) 
29

>  <SMILES>  (31) 
Cc1ccccc1-n1cc(-c2cccc[nH+]2)nn1

>  <Energy>  (31) 
75.61356739544091

>  <Genealogy>  (31) 
Cc1ccccc1-n1cc(-c2cccc[nH+]2)nn1 (protonated)
Cc1ccccc1-n1cc(-c2cccc[nH+]2)nn1 (3D coordinates assigned)
Cc1ccccc1-n1cc(-c2cccc[nH+]2)nn1 (optimized conformer: 75.61356739544091 kcal/mol)

>  <smiles>  (31) 
Cc1ccccc1-n1cc(-c2ccccn2)nn1

>  <score_type>  (31) 
oracle

>  <origin>  (31) 
adg

>  <m_score__min__energy>  (31) 
-6.4199999999999999

>  <m_primary>  (31) 
energy

$$$$
31:0
     RDKit          3D

 27 29  0  0  0  0  0  0  0  0999 V2000
   57.3920   34.2600   45.1540 O   0  0  0  0  0  0  0  0  0  0  0  0
   58.1940   33.3610   45.5260 C   0  0  0  0  0  0  0  0  0  0  0  0
   59.3350   33.7130   46.2500 C   0  0  0  0  0  0  0  0  0  0  0  0
   60.2320   32.7080   46.6660 C   0  0  0  0  0  0  0  0  0  0  0  0
   61.4750   32.9970   47.4450 C   0  0  0  0  0  0  0  0  0  0  0  0
   61.4030   33.8480   48.5650 C   0  0  0  0  0  0  0  0  0  0  0  0
   62.5440   34.1370   49.3120 C   0  0  0  0  0  0  0  0  0  0  0  0
   63.7640   33.5760   48.9430 C   0  0  0  0  0  0  0  0  0  0  0  0
   63.8360   32.7550   47.8630 N   0  0  0  0  0  0  0  0  0  0  0  0
   62.7370   32.4560   47.1160 C   0  0  0  0  0  0  0  0  0  0  0  0
   59.9680   31.4370   46.3550 O   0  0  0  0  0  0  0  0  0  0  0  0
   58.8960   31.0570   45.6680 C   0  0  0  0  0  0  0  0  0  0  0  0
   58.6980   29.7010   45.3860 C   0  0  0  0  0  0  0  0  0  0  0  0
   57.5750   29.2900   44.6640 C   0  0  0  0  0  0  0  0  0  0  0  0
   56.6420   30.2320   44.2200 C   0  0  0  0  0  0  0  0  0  0  0  0
   55.5540   29.8270   43.5200 F   0  0  0  0  0  0  0  0  0  0  0  0
   56.8300   31.5910   44.4960 C   0  0  0  0  0  0  0  0  0  0  0  0
   57.9580   32.0130   45.2210 C   0  0  0  0  0  0  0  0  0  0  0  0
   59.5326   34.7672   46.4941 H   0  0  0  0  0  0  0  0  0  0  0  0
   60.4372   34.2888   48.8530 H   0  0  0  0  0  0  0  0  0  0  0  0
   62.4812   34.8026   50.1855 H   0  0  0  0  0  0  0  0  0  0  0  0
   64.6699   33.7977   49.5263 H   0  0  0  0  0  0  0  0  0  0  0  0
   64.7590   32.3430   47.6000 H   0  0  0  0  0  0  0  0  0  0  0  0
   62.8335   31.7868   46.2483 H   0  0  0  0  0  0  0  0  0  0  0  0
   59.4289   28.9562   45.7339 H   0  0  0  0  0  0  0  0  0  0  0  0
   57.4243   28.2228   44.4442 H   0  0  0  0  0  0  0  0  0  0  0  0
   56.0943   32.3298   44.1453 H   0  0  0  0  0  0  0  0  0  0  0  0
  1  2  2  0
  2  3  1  0
  3  4  2  0
  4  5  1  0
  5  6  2  0
  6  7  1  0
  7  8  2  0
  8  9  1  0
  9 10  2  0
  4 11  1  0
 11 12  1  0
 12 13  2  0
 13 14  1  0
 14 15  2  0
 15 16  1  0
 15 17  1  0
 17 18  2  0
 18  2  1  0
 10  5  1  0
 18 12  1  0
  3 19  1  0
  6 20  1  0
  7 21  1  0
  8 22  1  0
  9 23  1  0
 10 24  1  0
 13 25  1  0
 14 26  1  0
 17 27  1  0
M  CHG  1   9   1
M  END
>  <UniqueID>  (32) 
30

>  <SMILES>  (32) 
O=c1cc(-c2ccc[nH+]c2)oc2ccc(F)cc12

>  <Energy>  (32) 
39.26093403572925

>  <Genealogy>  (32) 
O=c1cc(-c2ccc[nH+]c2)oc2ccc(F)cc12 (protonated)
O=c1cc(-c2ccc[nH+]c2)oc2ccc(F)cc12 (3D coordinates assigned)
O=c1cc(-c2ccc[nH+]c2)oc2ccc(F)cc12 (optimized conformer: 39.26093403572925 kcal/mol)

>  <smiles>  (32) 
O=c1cc(-c2cccnc2)oc2ccc(F)cc12

>  <score_type>  (32) 
oracle

>  <origin>  (32) 
adg

>  <m_score__min__energy>  (32) 
-5.2199999999999998

>  <m_primary>  (32) 
energy

$$$$
32:0
     RDKit          3D

 30 31  0  0  0  0  0  0  0  0999 V2000
   60.7590   28.9590   45.2370 C   0  0  0  0  0  0  0  0  0  0  0  0
   59.4240   29.6970   45.2070 C   0  0  0  0  0  0  0  0  0  0  0  0
   59.2830   30.6370   46.4070 C   0  0  0  0  0  0  0  0  0  0  0  0
   58.9520   31.9940   45.9600 N   0  0  0  0  0  0  0  0  0  0  0  0
   57.8230   32.2810   45.1450 C   0  0  0  0  0  0  0  0  0  0  0  0
   56.9470   31.4120   44.8870 O   0  0  0  0  0  0  0  0  0  0  0  0
   57.7360   33.6550   44.6060 C   0  0  0  0  0  0  0  0  0  0  0  0
   59.1080   34.6020   45.3450 S   0  0  0  0  0  0  0  0  0  0  0  0
   59.8850   33.1100   46.0730 C   0  0  1  0  0  0  0  0  0  0  0  0
   60.2910   33.3700   47.5150 C   0  0  0  0  0  0  0  0  0  0  0  0
   59.3030   33.3440   48.5250 C   0  0  0  0  0  0  0  0  0  0  0  0
   58.0040   33.0910   48.2240 F   0  0  0  0  0  0  0  0  0  0  0  0
   59.6450   33.5800   49.8590 C   0  0  0  0  0  0  0  0  0  0  0  0
   60.9680   33.8420   50.2100 C   0  0  0  0  0  0  0  0  0  0  0  0
   61.9590   33.8660   49.2290 C   0  0  0  0  0  0  0  0  0  0  0  0
   61.6360   33.6320   47.8870 C   0  0  0  0  0  0  0  0  0  0  0  0
   62.9550   33.6760   46.7210 Cl  0  0  0  0  0  0  0  0  0  0  0  0
   61.0620   28.7915   46.2811 H   0  0  0  0  0  0  0  0  0  0  0  0
   60.6542   27.9907   44.7258 H   0  0  0  0  0  0  0  0  0  0  0  0
   61.5233   29.5627   44.7258 H   0  0  0  0  0  0  0  0  0  0  0  0
   59.3608   30.2864   44.2804 H   0  0  0  0  0  0  0  0  0  0  0  0
   58.6144   28.9536   45.2504 H   0  0  0  0  0  0  0  0  0  0  0  0
   58.4825   30.2671   47.0646 H   0  0  0  0  0  0  0  0  0  0  0  0
   60.2384   30.6648   46.9515 H   0  0  0  0  0  0  0  0  0  0  0  0
   57.8347   33.6385   43.5106 H   0  0  0  0  0  0  0  0  0  0  0  0
   56.7658   34.1126   44.8494 H   0  0  0  0  0  0  0  0  0  0  0  0
   60.8048   32.8558   45.5258 H   0  0  0  0  0  0  0  0  0  0  0  0
   58.8664   33.5589   50.6358 H   0  0  0  0  0  0  0  0  0  0  0  0
   61.2308   34.0300   51.2615 H   0  0  0  0  0  0  0  0  0  0  0  0
   63.0022   34.0703   49.5118 H   0  0  0  0  0  0  0  0  0  0  0  0
  1  2  1  0
  2  3  1  0
  3  4  1  0
  4  5  1  0
  5  6  2  0
  5  7  1  0
  7  8  1  0
  8  9  1  0
  9 10  1  0
 10 11  2  0
 11 12  1  0
 11 13  1  0
 13 14  2  0
 14 15  1  0
 15 16  2  0
 16 17  1  0
  9  4  1  0
 16 10  1  0
  1 18  1  0
  1 19  1  0
  1 20  1  0
  2 21  1  0
  2 22  1  0
  3 23  1  0
  3 24  1  0
  7 25  1  0
  7 26  1  0
  9 27  1  6
 13 28  1  0
 14 29  1  0
 15 30  1  0
M  END
>  <UniqueID>  (33) 
31

>  <SMILES>  (33) 
CCCN1C(=O)CS[C@H]1c1c(F)cccc1Cl

>  <Energy>  (33) 
24.249051261019947

>  <Genealogy>  (33) 
CCCN1C(=O)CS[C@H]1c1c(F)cccc1Cl (chirality)
CCCN1C(=O)CS[C@H]1c1c(F)cccc1Cl (3D coordinates assigned)
CCCN1C(=O)CS[C@H]1c1c(F)cccc1Cl (nonaromatic ring conformer: 24.249051261019947 kcal/mol)

>  <smiles>  (33) 
CCCN1C(=O)CSC1c1c(F)cccc1Cl

>  <score_type>  (33) 
oracle

>  <origin>  (33) 
adg

>  <m_score__min__energy>  (33) 
-6.1500000000000004

>  <m_primary>  (33) 
energy

$$$$
33:0
     RDKit          3D

 57 61  0  0  0  0  0  0  0  0999 V2000
   68.4800   32.1580   52.7180 C   0  0  0  0  0  0  0  0  0  0  0  0
   67.5020   33.1900   52.6660 O   0  0  0  0  0  0  0  0  0  0  0  0
   66.4300   33.2250   51.7600 C   0  0  0  0  0  0  0  0  0  0  0  0
   66.3720   32.3790   50.6360 C   0  0  0  0  0  0  0  0  0  0  0  0
   65.2890   32.4430   49.7570 C   0  0  0  0  0  0  0  0  0  0  0  0
   64.2390   33.3480   49.9840 C   0  0  0  0  0  0  0  0  0  0  0  0
   63.0910   33.4140   49.0480 C   0  0  0  0  0  0  0  0  0  0  0  0
   61.7780   33.4500   49.5490 C   0  0  0  0  0  0  0  0  0  0  0  0
   60.6750   33.5120   48.6760 C   0  0  0  0  0  0  0  0  0  0  0  0
   59.3510   33.5470   49.1430 O   0  0  0  0  0  0  0  0  0  0  0  0
   58.9180   32.9930   50.3800 C   0  0  0  0  0  0  0  0  0  0  0  0
   60.8970   33.5390   47.2890 C   0  0  0  0  0  0  0  0  0  0  0  0
   59.7830   33.6000   46.3760 N   0  0  0  0  0  0  0  0  0  0  0  0
   59.4080   34.8280   45.8850 C   0  0  0  0  0  0  0  0  0  0  0  0
   60.0290   35.8720   46.2250 O   0  0  0  0  0  0  0  0  0  0  0  0
   58.3310   34.9410   45.0060 C   0  0  0  0  0  0  0  0  0  0  0  0
   57.6270   33.8050   44.6230 C   0  0  0  0  0  0  0  0  0  0  0  0
   58.0030   32.5540   45.1160 C   0  0  0  0  0  0  0  0  0  0  0  0
   57.3000   31.4020   44.7310 C   0  0  0  0  0  0  0  0  0  0  0  0
   57.6740   30.1470   45.2230 C   0  0  0  0  0  0  0  0  0  0  0  0
   56.8010   28.7030   44.7230 S   0  0  0  0  0  0  0  0  0  0  0  0
   55.3490   29.0380   44.5260 O   0  0  0  0  0  0  0  0  0  0  0  0
   57.3710   28.1940   43.4280 O   0  0  0  0  0  0  0  0  0  0  0  0
   56.9670   27.4940   45.9560 N   0  0  0  0  0  0  0  0  0  0  0  0
   56.3360   26.3600   45.9560 C   0  0  0  0  0  0  0  0  0  0  0  0
   56.8930   25.0920   45.9290 C   0  0  0  0  0  0  0  0  0  0  0  0
   55.7920   24.2590   45.9450 C   0  0  0  0  0  0  0  0  0  0  0  0
   54.6770   25.0140   45.9780 N   0  0  0  0  0  0  0  0  0  0  0  0
   55.0290   26.2650   45.9840 O   0  0  0  0  0  0  0  0  0  0  0  0
   58.7650   30.0410   46.0910 C   0  0  0  0  0  0  0  0  0  0  0  0
   59.4740   31.1800   46.4810 C   0  0  0  0  0  0  0  0  0  0  0  0
   59.1030   32.4590   46.0060 C   0  0  0  0  0  0  0  0  0  0  0  0
   62.2040   33.5100   46.7880 C   0  0  0  0  0  0  0  0  0  0  0  0
   63.2950   33.4480   47.6560 C   0  0  0  0  0  0  0  0  0  0  0  0
   64.5490   33.4610   47.1370 F   0  0  0  0  0  0  0  0  0  0  0  0
   64.3000   34.1960   51.1030 C   0  0  0  0  0  0  0  0  0  0  0  0
   65.3850   34.1350   51.9830 C   0  0  0  0  0  0  0  0  0  0  0  0
   65.4250   35.2130   53.3710 Cl  0  0  0  0  0  0  0  0  0  0  0  0
   68.7060   31.9196   53.7678 H   0  0  0  0  0  0  0  0  0  0  0  0
   68.0932   31.2605   52.2132 H   0  0  0  0  0  0  0  0  0  0  0  0
   69.3970   32.4961   52.2132 H   0  0  0  0  0  0  0  0  0  0  0  0
   67.1856   31.6626   50.4490 H   0  0  0  0  0  0  0  0  0  0  0  0
   65.2578   31.7797   48.8801 H   0  0  0  0  0  0  0  0  0  0  0  0
   61.6103   33.4295   50.6359 H   0  0  0  0  0  0  0  0  0  0  0  0
   59.3616   33.5606   51.2113 H   0  0  0  0  0  0  0  0  0  0  0  0
   57.8212   33.0481   50.4425 H   0  0  0  0  0  0  0  0  0  0  0  0
   59.2364   31.9420   50.4425 H   0  0  0  0  0  0  0  0  0  0  0  0
   58.0391   35.9274   44.6164 H   0  0  0  0  0  0  0  0  0  0  0  0
   56.7750   33.8916   43.9326 H   0  0  0  0  0  0  0  0  0  0  0  0
   56.4498   31.4864   44.0382 H   0  0  0  0  0  0  0  0  0  0  0  0
   57.9572   24.8151   45.9014 H   0  0  0  0  0  0  0  0  0  0  0  0
   55.8207   23.1594   45.9328 H   0  0  0  0  0  0  0  0  0  0  0  0
   53.6930   24.6690   45.9970 H   0  0  0  0  0  0  0  0  0  0  0  0
   59.0674   29.0535   46.4697 H   0  0  0  0  0  0  0  0  0  0  0  0
   60.3299   31.0806   47.1648 H   0  0  0  0  0  0  0  0  0  0  0  0
   62.3723   33.5363   45.7013 H   0  0  0  0  0  0  0  0  0  0  0  0
   63.4873   34.9138   51.2882 H   0  0  0  0  0  0  0  0  0  0  0  0
  1  2  1  0
  2  3  1  0
  3  4  2  0
  4  5  1  0
  5  6  2  0
  6  7  1  0
  7  8  2  0
  8  9  1  0
  9 10  1  0
 10 11  1  0
  9 12  2  0
 12 13  1  0
 13 14  1  0
 14 15  2  0
 14 16  1  0
 16 17  2  0
 17 18  1  0
 18 19  2  0
 19 20  1  0
 20 21  1  0
 21 22  2  0
 21 23  2  0
 21 24  1  0
 24 25  2  3
 25 26  1  0
 26 27  2  0
 27 28  1  0
 28 29  1  0
 20 30  2  0
 30 31  1  0
 31 32  2  0
 12 33  1  0
 33 34  2  0
 34 35  1  0
  6 36  1  0
 36 37  2  0
 37 38  1  0
 37  3  1  0
 34  7  1  0
 32 13  1  0
 32 18  1  0
 29 25  1  0
  1 39  1  0
  1 40  1  0
  1 41  1  0
  4 42  1  0
  5 43  1  0
  8 44  1  0
 11 45  1  0
 11 46  1  0
 11 47  1  0
 16 48  1  0
 17 49  1  0
 19 50  1  0
 26 51  1  0
 27 52  1  0
 28 53  1  0
 30 54  1  0
 31 55  1  0
 33 56  1  0
 36 57  1  0
M  END
>  <UniqueID>  (34) 
32

>  <SMILES>  (34) 
COc1ccc(-c2cc(OC)c(-n3c(=O)ccc4cc(S(=O)(=O)N=c5cc[nH]o5)ccc43)cc2F)cc1Cl

>  <Energy>  (34) 
119.84923225488986

>  <Genealogy>  (34) 
COc1ccc(-c2cc(OC)c(-n3c(=O)ccc4cc(S(=O)(=O)N=c5cc[nH]o5)ccc43)cc2F)cc1Cl (3D coordinates assigned)
COc1ccc(-c2cc(OC)c(-n3c(=O)ccc4cc(S(=O)(=O)N=c5cc[nH]o5)ccc43)cc2F)cc1Cl (optimized conformer: 119.84923225488986 kcal/mol)

>  <smiles>  (34) 
COc1ccc(-c2cc(OC)c(-n3c(=O)ccc4cc(S(=O)(=O)N=c5cc[nH]o5)ccc43)cc2F)cc1Cl

>  <score_type>  (34) 
oracle

>  <origin>  (34) 
adg

>  <m_score__min__energy>  (34) 
-10.550000000000001

>  <m_primary>  (34) 
energy

$$$$
34:0
     RDKit          3D

 37 39  0  0  0  0  0  0  0  0999 V2000
   57.7740   30.7330   43.4150 C   0  0  0  0  0  0  0  0  0  0  0  0
   56.9150   30.8530   44.6030 N   0  0  0  0  0  0  0  0  0  0  0  0
   55.6630   30.1080   44.3800 C   0  0  0  0  0  0  0  0  0  0  0  0
   56.6380   32.2770   44.8840 C   0  0  0  0  0  0  0  0  0  0  0  0
   57.8640   32.9580   45.4370 C   0  0  0  0  0  0  0  0  0  0  0  0
   58.1020   34.3250   45.1780 C   0  0  0  0  0  0  0  0  0  0  0  0
   59.2490   34.9680   45.6910 C   0  0  0  0  0  0  0  0  0  0  0  0
   60.1880   34.2550   46.4550 C   0  0  0  0  0  0  0  0  0  0  0  0
   59.9550   32.8950   46.6710 C   0  0  0  0  0  0  0  0  0  0  0  0
   58.8260   32.2750   46.1950 C   0  0  0  0  0  0  0  0  0  0  0  0
   58.9050   30.9660   46.6380 C   0  0  0  0  0  0  0  0  0  0  0  0
   60.0440   30.8420   47.3550 N   0  0  0  0  0  0  0  0  0  0  0  0
   60.6880   32.0030   47.3720 N   0  0  0  0  0  0  0  0  0  0  0  0
   61.9480   32.2140   48.0310 C   0  0  0  0  0  0  0  0  0  0  0  0
   62.9240   33.0510   47.4650 C   0  0  0  0  0  0  0  0  0  0  0  0
   64.1540   33.2330   48.1030 C   0  0  0  0  0  0  0  0  0  0  0  0
   64.4250   32.5720   49.3050 C   0  0  0  0  0  0  0  0  0  0  0  0
   65.9700   32.8000   50.1050 Cl  0  0  0  0  0  0  0  0  0  0  0  0
   63.4650   31.7240   49.8660 C   0  0  0  0  0  0  0  0  0  0  0  0
   62.2340   31.5390   49.2290 C   0  0  0  0  0  0  0  0  0  0  0  0
   58.8177   30.5872   43.7304 H   0  0  0  0  0  0  0  0  0  0  0  0
   57.4491   29.8715   42.8131 H   0  0  0  0  0  0  0  0  0  0  0  0
   57.6976   31.6505   42.8131 H   0  0  0  0  0  0  0  0  0  0  0  0
   55.2167   29.8424   45.3497 H   0  0  0  0  0  0  0  0  0  0  0  0
   54.9597   30.7346   43.8119 H   0  0  0  0  0  0  0  0  0  0  0  0
   55.8782   29.1909   43.8119 H   0  0  0  0  0  0  0  0  0  0  0  0
   56.3363   32.7772   43.9519 H   0  0  0  0  0  0  0  0  0  0  0  0
   55.8311   32.3406   45.6289 H   0  0  0  0  0  0  0  0  0  0  0  0
   57.3853   34.8958   44.5693 H   0  0  0  0  0  0  0  0  0  0  0  0
   59.4092   36.0377   45.4907 H   0  0  0  0  0  0  0  0  0  0  0  0
   61.0777   34.7517   46.8695 H   0  0  0  0  0  0  0  0  0  0  0  0
   58.1722   30.1695   46.4417 H   0  0  0  0  0  0  0  0  0  0  0  0
   60.3820   29.9630   47.8100 H   0  0  0  0  0  0  0  0  0  0  0  0
   62.7190   33.5658   46.5147 H   0  0  0  0  0  0  0  0  0  0  0  0
   64.9100   33.8972   47.6589 H   0  0  0  0  0  0  0  0  0  0  0  0
   63.6786   31.2015   50.8101 H   0  0  0  0  0  0  0  0  0  0  0  0
   61.4865   30.8619   49.6680 H   0  0  0  0  0  0  0  0  0  0  0  0
  1  2  1  0
  2  3  1  0
  2  4  1  0
  4  5  1  0
  5  6  2  0
  6  7  1  0
  7  8  2  0
  8  9  1  0
  9 10  2  0
 10 11  1  0
 11 12  2  0
 12 13  1  0
 13 14  1  0
 14 15  2  0
 15 16  1  0
 16 17  2  0
 17 18  1  0
 17 19  1  0
 19 20  2  0
 10  5  1  0
 20 14  1  0
 13  9  1  0
  1 21  1  0
  1 22  1  0
  1 23  1  0
  3 24  1  0
  3 25  1  0
  3 26  1  0
  4 27  1  0
  4 28  1  0
  6 29  1  0
  7 30  1  0
  8 31  1  0
 11 32  1  0
 12 33  1  0
 15 34  1  0
 16 35  1  0
 19 36  1  0
 20 37  1  0
M  CHG  1  12   1
M  END
>  <UniqueID>  (35) 
33

>  <SMILES>  (35) 
CN(C)Cc1cccc2c1c[nH+]n2-c1ccc(Cl)cc1

>  <Energy>  (35) 
83.26274285675882

>  <Genealogy>  (35) 
CN(C)Cc1cccc2c1c[nH+]n2-c1ccc(Cl)cc1 (protonated)
CN(C)Cc1cccc2c1c[nH+]n2-c1ccc(Cl)cc1 (3D coordinates assigned)
CN(C)Cc1cccc2c1c[nH+]n2-c1ccc(Cl)cc1 (optimized conformer: 83.26274285675882 kcal/mol)

>  <smiles>  (35) 
CN(C)Cc1cccc2c1cnn2-c1ccc(Cl)cc1

>  <score_type>  (35) 
oracle

>  <origin>  (35) 
adg

>  <m_score__min__energy>  (35) 
-5.8099999999999996

>  <m_primary>  (35) 
energy

$$$$
35:0
     RDKit          3D

 36 38  0  0  0  0  0  0  0  0999 V2000
   55.2290   29.1900   44.9040 O   0  0  0  0  0  0  0  0  0  0  0  0
   56.4700   29.3740   44.7780 C   0  0  0  0  0  0  0  0  0  0  0  0
   56.9550   30.4480   43.8760 C   0  0  0  0  0  0  0  0  0  0  0  0
   57.7100   31.5280   44.3670 C   0  0  0  0  0  0  0  0  0  0  0  0
   58.1500   32.5280   43.5000 C   0  0  0  0  0  0  0  0  0  0  0  0
   57.8260   32.4500   42.1460 C   0  0  0  0  0  0  0  0  0  0  0  0
   57.0830   31.4100   41.6820 N   0  0  0  0  0  0  0  0  0  0  0  0
   56.6430   30.4220   42.5070 C   0  0  0  0  0  0  0  0  0  0  0  0
   57.3970   28.5200   45.5600 C   0  0  0  0  0  0  0  0  0  0  0  0
   58.6400   29.0470   45.9470 C   0  0  0  0  0  0  0  0  0  0  0  0
   59.5410   28.2730   46.6810 C   0  0  0  0  0  0  0  0  0  0  0  0
   60.7440   28.7890   47.0380 F   0  0  0  0  0  0  0  0  0  0  0  0
   59.2070   26.9690   47.0430 C   0  0  0  0  0  0  0  0  0  0  0  0
   57.9680   26.4370   46.6840 C   0  0  0  0  0  0  0  0  0  0  0  0
   57.0450   27.2060   45.9500 C   0  0  0  0  0  0  0  0  0  0  0  0
   55.7420   26.6980   45.6230 N   0  0  0  0  0  0  0  0  0  0  0  0
   55.1810   25.0850   45.9190 S   0  0  0  0  0  0  0  0  0  0  0  0
   53.6870   25.0420   45.7510 O   0  0  0  0  0  0  0  0  0  0  0  0
   55.5250   24.6950   47.3280 O   0  0  0  0  0  0  0  0  0  0  0  0
   55.9520   23.9660   44.8100 C   0  0  0  0  0  0  0  0  0  0  0  0
   57.2280   23.4610   45.0880 C   0  0  0  0  0  0  0  0  0  0  0  0
   57.8260   22.5810   44.1840 C   0  0  0  0  0  0  0  0  0  0  0  0
   57.1480   22.2160   43.0190 C   0  0  0  0  0  0  0  0  0  0  0  0
   55.8750   22.7380   42.7760 C   0  0  0  0  0  0  0  0  0  0  0  0
   55.3100   23.5950   43.6680 N   0  0  0  0  0  0  0  0  0  0  0  0
   57.9543   31.5843   45.4381 H   0  0  0  0  0  0  0  0  0  0  0  0
   58.7468   33.3700   43.8806 H   0  0  0  0  0  0  0  0  0  0  0  0
   58.1718   33.2307   41.4525 H   0  0  0  0  0  0  0  0  0  0  0  0
   56.0392   29.5978   42.0994 H   0  0  0  0  0  0  0  0  0  0  0  0
   58.9058   30.0777   45.6696 H   0  0  0  0  0  0  0  0  0  0  0  0
   59.9220   26.3577   47.6132 H   0  0  0  0  0  0  0  0  0  0  0  0
   57.7104   25.4085   46.9768 H   0  0  0  0  0  0  0  0  0  0  0  0
   57.7536   23.7544   46.0087 H   0  0  0  0  0  0  0  0  0  0  0  0
   58.8282   22.1764   44.3888 H   0  0  0  0  0  0  0  0  0  0  0  0
   57.6115   21.5245   42.2999 H   0  0  0  0  0  0  0  0  0  0  0  0
   55.3298   22.4558   41.8632 H   0  0  0  0  0  0  0  0  0  0  0  0
  1  2  2  0
  2  3  1  0
  3  4  2  0
  4  5  1  0
  5  6  2  0
  6  7  1  0
  7  8  2  0
  2  9  1  0
  9 10  2  0
 10 11  1  0
 11 12  1  0
 11 13  2  0
 13 14  1  0
 14 15  2  0
 15 16  1  0
 16 17  1  0
 17 18  2  0
 17 19  2  0
 17 20  1  0
 20 21  2  0
 21 22  1  0
 22 23  2  0
 23 24  1  0
 24 25  2  0
  8  3  1  0
 15  9  1  0
 25 20  1  0
  4 26  1  0
  5 27  1  0
  6 28  1  0
  8 29  1  0
 10 30  1  0
 13 31  1  0
 14 32  1  0
 21 33  1  0
 22 34  1  0
 23 35  1  0
 24 36  1  0
M  CHG  1  16  -1
M  END
>  <UniqueID>  (36) 
34

>  <SMILES>  (36) 
O=C(c1cccnc1)c1cc(F)ccc1[N-]S(=O)(=O)c1ccccn1

>  <Energy>  (36) 
50.997086328020075

>  <Genealogy>  (36) 
O=C(c1cccnc1)c1cc(F)ccc1[N-]S(=O)(=O)c1ccccn1 (protonated)
O=C(c1cccnc1)c1cc(F)ccc1[N-]S(=O)(=O)c1ccccn1 (3D coordinates assigned)
O=C(c1cccnc1)c1cc(F)ccc1[N-]S(=O)(=O)c1ccccn1 (optimized conformer: 50.997086328020075 kcal/mol)

>  <smiles>  (36) 
O=C(c1cccnc1)c1cc(F)ccc1NS(=O)(=O)c1ccccn1

>  <score_type>  (36) 
oracle

>  <origin>  (36) 
adg

>  <m_score__min__energy>  (36) 
-10.98

>  <m_primary>  (36) 
energy

$$$$
36:0
     RDKit          3D

 49 53  0  0  0  0  0  0  0  0999 V2000
   58.2000   34.5910   46.1670 C   0  0  0  0  0  0  0  0  0  0  0  0
   59.3740   35.1600   46.7110 C   0  0  0  0  0  0  0  0  0  0  0  0
   60.3670   34.3400   47.2760 C   0  0  0  0  0  0  0  0  0  0  0  0
   60.1530   32.9580   47.2660 C   0  0  0  0  0  0  0  0  0  0  0  0
   59.0100   32.4140   46.7560 C   0  0  0  0  0  0  0  0  0  0  0  0
   58.0070   33.1970   46.1910 C   0  0  0  0  0  0  0  0  0  0  0  0
   59.0210   31.0770   46.8940 N   0  0  0  0  0  0  0  0  0  0  0  0
   60.2120   30.8350   47.5040 C   0  0  0  0  0  0  0  0  0  0  0  0
   60.6950   29.4280   47.7770 C   0  0  0  0  0  0  0  0  0  0  0  0
   60.2240   28.4420   46.7790 N   0  0  0  0  0  0  0  0  0  0  0  0
   60.2960   28.9410   45.3900 C   0  0  0  0  0  0  0  0  0  0  0  0
   59.4170   28.1120   44.4460 C   0  0  0  0  0  0  0  0  0  0  0  0
   57.9900   28.1380   44.8470 N   0  0  0  0  0  0  0  0  0  0  0  0
   57.1740   28.9980   43.9450 C   0  0  0  0  0  0  0  0  0  0  0  0
   57.5110   30.4770   43.9320 C   0  0  0  0  0  0  0  0  0  0  0  0
   56.2570   30.8330   44.4650 O   0  0  0  0  0  0  0  0  0  0  0  0
   55.8500   29.4840   44.5000 C   0  0  0  0  0  0  0  0  0  0  0  0
   57.7630   28.2820   46.3090 C   0  0  0  0  0  0  0  0  0  0  0  0
   58.9540   27.7680   47.1360 C   0  0  0  0  0  0  0  0  0  0  0  0
   60.9280   31.9710   47.7490 N   0  0  0  0  0  0  0  0  0  0  0  0
   62.2010   32.1010   48.4020 C   0  0  0  0  0  0  0  0  0  0  0  0
   63.3090   32.6220   47.7170 C   0  0  0  0  0  0  0  0  0  0  0  0
   64.5050   32.7270   48.3570 N   0  0  0  0  0  0  0  0  0  0  0  0
   64.6440   32.3350   49.6510 C   0  0  0  0  0  0  0  0  0  0  0  0
   63.5440   31.8150   50.3340 C   0  0  0  0  0  0  0  0  0  0  0  0
   62.3500   31.7100   49.6960 N   0  0  0  0  0  0  0  0  0  0  0  0
   57.4326   35.2416   45.7222 H   0  0  0  0  0  0  0  0  0  0  0  0
   59.5118   36.2512   46.6923 H   0  0  0  0  0  0  0  0  0  0  0  0
   61.2809   34.7709   47.7110 H   0  0  0  0  0  0  0  0  0  0  0  0
   57.0950   32.7418   45.7775 H   0  0  0  0  0  0  0  0  0  0  0  0
   61.7950   29.4299   47.7733 H   0  0  0  0  0  0  0  0  0  0  0  0
   60.2835   29.1263   48.7515 H   0  0  0  0  0  0  0  0  0  0  0  0
   59.9556   29.9868   45.3683 H   0  0  0  0  0  0  0  0  0  0  0  0
   61.3387   28.8600   45.0490 H   0  0  0  0  0  0  0  0  0  0  0  0
   59.5070   28.5194   43.4282 H   0  0  0  0  0  0  0  0  0  0  0  0
   59.7625   27.0686   44.4900 H   0  0  0  0  0  0  0  0  0  0  0  0
   57.2685   28.3428   43.0665 H   0  0  0  0  0  0  0  0  0  0  0  0
   58.3561   30.7402   44.5851 H   0  0  0  0  0  0  0  0  0  0  0  0
   57.8415   30.9405   42.9907 H   0  0  0  0  0  0  0  0  0  0  0  0
   55.6380   29.1159   45.5147 H   0  0  0  0  0  0  0  0  0  0  0  0
   54.9194   29.1944   43.9900 H   0  0  0  0  0  0  0  0  0  0  0  0
   57.6045   29.3458   46.5397 H   0  0  0  0  0  0  0  0  0  0  0  0
   56.8823   27.6789   46.5748 H   0  0  0  0  0  0  0  0  0  0  0  0
   58.7471   27.9464   48.2015 H   0  0  0  0  0  0  0  0  0  0  0  0
   59.0724   26.6956   46.9217 H   0  0  0  0  0  0  0  0  0  0  0  0
   63.2114   32.9434   46.6695 H   0  0  0  0  0  0  0  0  0  0  0  0
   65.3300   33.1110   47.8440 H   0  0  0  0  0  0  0  0  0  0  0  0
   65.6168   32.4270   50.1562 H   0  0  0  0  0  0  0  0  0  0  0  0
   63.6433   31.4927   51.3810 H   0  0  0  0  0  0  0  0  0  0  0  0
  1  2  2  0
  2  3  1  0
  3  4  2  0
  4  5  1  0
  5  6  2  0
  5  7  1  0
  7  8  2  0
  8  9  1  0
  9 10  1  0
 10 11  1  0
 11 12  1  0
 12 13  1  0
 13 14  1  0
 14 15  1  0
 15 16  1  0
 16 17  1  0
 13 18  1  0
 18 19  1  0
  8 20  1  0
 20 21  1  0
 21 22  2  0
 22 23  1  0
 23 24  2  0
 24 25  1  0
 25 26  2  0
  6  1  1  0
 19 10  1  0
 26 21  1  0
 20  4  1  0
 17 14  1  0
  1 27  1  0
  2 28  1  0
  3 29  1  0
  6 30  1  0
  9 31  1  0
  9 32  1  0
 11 33  1  0
 11 34  1  0
 12 35  1  0
 12 36  1  0
 14 37  1  0
 15 38  1  0
 15 39  1  0
 17 40  1  0
 17 41  1  0
 18 42  1  0
 18 43  1  0
 19 44  1  0
 19 45  1  0
 22 46  1  0
 23 47  1  0
 24 48  1  0
 25 49  1  0
M  CHG  1  23   1
M  END
>  <UniqueID>  (37) 
35

>  <SMILES>  (37) 
c1ccc2c(c1)nc(CN1CCN(C3COC3)CC1)n2-c1c[nH+]ccn1

>  <Energy>  (37) 
181.46454249795448

>  <Genealogy>  (37) 
c1ccc2c(c1)nc(CN1CCN(C3COC3)CC1)n2-c1c[nH+]ccn1 (protonated)
c1ccc2c(c1)nc(CN1CCN(C3COC3)CC1)n2-c1c[nH+]ccn1 (3D coordinates assigned)
c1ccc2c(c1)nc(CN1CCN(C3COC3)CC1)n2-c1c[nH+]ccn1 (nonaromatic ring conformer: 181.46454249795448 kcal/mol)

>  <smiles>  (37) 
c1ccc2c(c1)nc(CN1CCN(C3COC3)CC1)n2-c1cnccn1

>  <score_type>  (37) 
oracle

>  <origin>  (37) 
adg

>  <m_score__min__energy>  (37) 
-7.0899999999999999

>  <m_primary>  (37) 
energy

$$$$
37:0
     RDKit          3D

 24 26  0  0  0  0  0  0  0  0999 V2000
   58.0450   34.7110   44.4940 F   0  0  0  0  0  0  0  0  0  0  0  0
   58.0920   33.4350   44.9520 C   0  0  0  0  0  0  0  0  0  0  0  0
   57.4130   32.4240   44.2530 C   0  0  0  0  0  0  0  0  0  0  0  0
   57.4780   31.1240   44.7460 C   0  0  0  0  0  0  0  0  0  0  0  0
   56.7740   29.7370   44.1260 S   0  0  0  0  0  0  0  0  0  0  0  0
   57.3700   28.6930   45.3250 C   0  0  0  0  0  0  0  0  0  0  0  0
   57.1130   27.2290   45.3890 C   0  0  0  0  0  0  0  0  0  0  0  0
   57.7710   26.3270   44.5320 C   0  0  0  0  0  0  0  0  0  0  0  0
   57.5100   24.9590   44.6130 C   0  0  0  0  0  0  0  0  0  0  0  0
   56.5910   24.4910   45.5510 C   0  0  0  0  0  0  0  0  0  0  0  0
   55.9580   25.3650   46.3750 N   0  0  0  0  0  0  0  0  0  0  0  0
   56.1930   26.7030   46.3170 C   0  0  0  0  0  0  0  0  0  0  0  0
   58.1350   29.4480   46.2280 C   0  0  0  0  0  0  0  0  0  0  0  0
   58.1880   30.8060   45.8920 C   0  0  0  0  0  0  0  0  0  0  0  0
   58.8690   31.8020   46.5970 C   0  0  0  0  0  0  0  0  0  0  0  0
   58.8200   33.1250   46.1220 C   0  0  0  0  0  0  0  0  0  0  0  0
   59.6690   34.3900   46.9940 Cl  0  0  0  0  0  0  0  0  0  0  0  0
   56.8446   32.6534   43.3396 H   0  0  0  0  0  0  0  0  0  0  0  0
   58.4951   26.7029   43.7942 H   0  0  0  0  0  0  0  0  0  0  0  0
   58.0250   24.2555   43.9423 H   0  0  0  0  0  0  0  0  0  0  0  0
   56.3788   23.4141   45.6235 H   0  0  0  0  0  0  0  0  0  0  0  0
   55.6602   27.3804   47.0005 H   0  0  0  0  0  0  0  0  0  0  0  0
   58.6392   29.0183   47.1062 H   0  0  0  0  0  0  0  0  0  0  0  0
   59.4339   31.5555   47.5081 H   0  0  0  0  0  0  0  0  0  0  0  0
  1  2  1  0
  2  3  2  0
  3  4  1  0
  4  5  1  0
  5  6  1  0
  6  7  1  0
  7  8  2  0
  8  9  1  0
  9 10  2  0
 10 11  1  0
 11 12  2  0
  6 13  2  0
 13 14  1  0
 14 15  1  0
 15 16  2  0
 16 17  1  0
 16  2  1  0
 14  4  2  0
 12  7  1  0
  3 18  1  0
  8 19  1  0
  9 20  1  0
 10 21  1  0
 12 22  1  0
 13 23  1  0
 15 24  1  0
M  END
>  <UniqueID>  (38) 
36

>  <SMILES>  (38) 
Fc1cc2sc(-c3cccnc3)cc2cc1Cl

>  <Energy>  (38) 
61.049495042580055

>  <Genealogy>  (38) 
Fc1cc2sc(-c3cccnc3)cc2cc1Cl (3D coordinates assigned)
Fc1cc2sc(-c3cccnc3)cc2cc1Cl (optimized conformer: 61.049495042580055 kcal/mol)

>  <smiles>  (38) 
Fc1cc2sc(-c3cccnc3)cc2cc1Cl

>  <score_type>  (38) 
oracle

>  <origin>  (38) 
adg

>  <m_score__min__energy>  (38) 
-6.4299999999999997

>  <m_primary>  (38) 
energy

$$$$
38:0
     RDKit          3D

 39 39  0  0  0  0  0  0  0  0999 V2000
   64.6350   33.1020   49.3930 C   0  0  0  0  0  0  0  0  0  0  0  0
   63.9930   32.9960   48.0720 N   0  0  0  0  0  0  0  0  0  0  0  0
   63.3600   31.6670   47.8820 C   0  0  0  0  0  0  0  0  0  0  0  0
   62.3040   31.2930   48.9470 C   0  0  0  0  0  0  0  0  0  0  0  0
   60.8680   31.7700   48.6370 C   0  0  0  0  0  0  0  0  0  0  0  0
   60.8240   33.1780   48.2070 N   0  0  0  0  0  0  0  0  0  0  0  0
   59.8320   33.6240   47.2580 C   0  0  0  0  0  0  0  0  0  0  0  0
   60.0860   35.0010   46.3900 S   0  0  0  0  0  0  0  0  0  0  0  0
   58.5900   32.9030   47.1280 N   0  0  0  0  0  0  0  0  0  0  0  0
   57.4810   33.3770   46.2980 C   0  0  0  0  0  0  0  0  0  0  0  0
   57.1960   32.4220   45.2210 C   0  0  0  0  0  0  0  0  0  0  0  0
   56.9620   31.6370   44.3360 C   0  0  0  0  0  0  0  0  0  0  0  0
   56.6770   30.6830   43.2610 C   0  0  0  0  0  0  0  0  0  0  0  0
   56.5590   29.2650   43.8210 C   0  0  0  0  0  0  0  0  0  0  0  0
   55.4810   29.2020   44.8040 N   0  0  0  0  0  0  0  0  0  0  0  0
   61.8330   34.1410   48.6880 C   0  0  0  0  0  0  0  0  0  0  0  0
   63.1150   34.1640   47.8340 C   0  0  0  0  0  0  0  0  0  0  0  0
   63.8769   32.9768   50.1802 H   0  0  0  0  0  0  0  0  0  0  0  0
   65.4001   32.3180   49.4928 H   0  0  0  0  0  0  0  0  0  0  0  0
   65.1075   34.0903   49.4928 H   0  0  0  0  0  0  0  0  0  0  0  0
   62.8702   31.6591   46.8971 H   0  0  0  0  0  0  0  0  0  0  0  0
   64.1666   30.9245   47.9720 H   0  0  0  0  0  0  0  0  0  0  0  0
   62.2869   30.1971   49.0407 H   0  0  0  0  0  0  0  0  0  0  0  0
   62.6054   31.8054   49.8725 H   0  0  0  0  0  0  0  0  0  0  0  0
   60.4530   31.1425   47.8345 H   0  0  0  0  0  0  0  0  0  0  0  0
   60.2791   31.6835   49.5621 H   0  0  0  0  0  0  0  0  0  0  0  0
   58.4900   31.9960   47.6370 H   0  0  0  0  0  0  0  0  0  0  0  0
   56.5845   33.4930   46.9247 H   0  0  0  0  0  0  0  0  0  0  0  0
   57.7606   34.3423   45.8507 H   0  0  0  0  0  0  0  0  0  0  0  0
   55.7307   30.9595   42.7731 H   0  0  0  0  0  0  0  0  0  0  0  0
   57.5011   30.7106   42.5330 H   0  0  0  0  0  0  0  0  0  0  0  0
   56.3435   28.5661   42.9994 H   0  0  0  0  0  0  0  0  0  0  0  0
   57.5065   28.9899   44.3074 H   0  0  0  0  0  0  0  0  0  0  0  0
   55.8790   29.4440   45.7410 H   0  0  0  0  0  0  0  0  0  0  0  0
   55.1630   28.2080   44.8640 H   0  0  0  0  0  0  0  0  0  0  0  0
   61.3882   35.1470   48.6758 H   0  0  0  0  0  0  0  0  0  0  0  0
   62.1241   33.8265   49.7011 H   0  0  0  0  0  0  0  0  0  0  0  0
   62.8280   34.1755   46.7722 H   0  0  0  0  0  0  0  0  0  0  0  0
   63.6816   35.0632   48.1176 H   0  0  0  0  0  0  0  0  0  0  0  0
  1  2  1  0
  2  3  1  0
  3  4  1  0
  4  5  1  0
  5  6  1  0
  6  7  1  0
  7  8  2  0
  7  9  1  0
  9 10  1  0
 10 11  1  0
 11 12  3  0
 12 13  1  0
 13 14  1  0
 14 15  1  0
  6 16  1  0
 16 17  1  0
 17  2  1  0
  1 18  1  0
  1 19  1  0
  1 20  1  0
  3 21  1  0
  3 22  1  0
  4 23  1  0
  4 24  1  0
  5 25  1  0
  5 26  1  0
  9 27  1  0
 10 28  1  0
 10 29  1  0
 13 30  1  0
 13 31  1  0
 14 32  1  0
 14 33  1  0
 15 34  1  0
 15 35  1  0
 16 36  1  0
 16 37  1  0
 17 38  1  0
 17 39  1  0
M  END
>  <UniqueID>  (39) 
37

>  <SMILES>  (39) 
CN1CCCN(C(=S)NCC#CCCN)CC1

>  <Energy>  (39) 
39.33976598554528

>  <Genealogy>  (39) 
CN1CCCN(C(=S)NCC#CCCN)CC1 (3D coordinates assigned)
CN1CCCN(C(=S)NCC#CCCN)CC1 (nonaromatic ring conformer: 39.33976598554528 kcal/mol)

>  <smiles>  (39) 
CN1CCCN(C(=S)NCC#CCCN)CC1

>  <score_type>  (39) 
oracle

>  <origin>  (39) 
adg

>  <m_score__min__energy>  (39) 
-4.2300000000000004

>  <m_primary>  (39) 
energy

$$$$
39:0
     RDKit          3D

 44 45  0  0  0  0  0  0  0  0999 V2000
   60.3930   28.0760   49.3490 C   0  0  0  0  0  0  0  0  0  0  0  0
   59.7610   28.7420   48.2050 N   0  0  0  0  0  0  0  0  0  0  0  0
   59.7030   30.2170   48.1650 C   0  0  0  0  0  0  0  0  0  0  0  0
   59.4500   30.7070   46.7990 N   0  0  0  0  0  0  0  0  0  0  0  0
   59.4640   32.1520   46.7310 C   0  0  0  0  0  0  0  0  0  0  0  0
   60.5530   32.8590   47.2750 C   0  0  0  0  0  0  0  0  0  0  0  0
   60.6110   34.2500   47.1950 C   0  0  0  0  0  0  0  0  0  0  0  0
   59.5820   34.9560   46.5780 C   0  0  0  0  0  0  0  0  0  0  0  0
   58.4840   34.2760   46.0470 C   0  0  0  0  0  0  0  0  0  0  0  0
   58.4070   32.8710   46.1230 C   0  0  0  0  0  0  0  0  0  0  0  0
   57.3120   32.1640   45.6030 O   0  0  0  0  0  0  0  0  0  0  0  0
   57.4210   30.7440   44.6510 S   0  0  0  0  0  0  0  0  0  0  0  0
   56.8180   29.5870   45.3970 O   0  0  0  0  0  0  0  0  0  0  0  0
   58.8660   30.4430   44.3640 O   0  0  0  0  0  0  0  0  0  0  0  0
   56.5690   30.9720   43.1480 N   0  0  0  0  0  0  0  0  0  0  0  0
   57.4130   31.7490   42.2330 C   0  0  0  0  0  0  0  0  0  0  0  0
   56.2700   29.6600   42.5610 C   0  0  0  0  0  0  0  0  0  0  0  0
   59.1910   27.9170   47.1640 C   0  0  0  0  0  0  0  0  0  0  0  0
   58.4710   26.7430   47.4550 C   0  0  0  0  0  0  0  0  0  0  0  0
   57.9740   25.9620   46.4100 C   0  0  0  0  0  0  0  0  0  0  0  0
   58.1760   26.3570   45.0880 C   0  0  0  0  0  0  0  0  0  0  0  0
   58.8640   27.5420   44.8300 C   0  0  0  0  0  0  0  0  0  0  0  0
   59.3510   28.2840   45.8600 N   0  0  0  0  0  0  0  0  0  0  0  0
   59.9942   28.4962   50.2841 H   0  0  0  0  0  0  0  0  0  0  0  0
   60.1779   26.9979   49.3104 H   0  0  0  0  0  0  0  0  0  0  0  0
   61.4809   28.2344   49.3104 H   0  0  0  0  0  0  0  0  0  0  0  0
   58.8931   30.5616   48.8248 H   0  0  0  0  0  0  0  0  0  0  0  0
   60.6735   30.6113   48.5006 H   0  0  0  0  0  0  0  0  0  0  0  0
   60.1390   30.2790   46.1390 H   0  0  0  0  0  0  0  0  0  0  0  0
   58.5040   30.3750   46.4980 H   0  0  0  0  0  0  0  0  0  0  0  0
   61.3672   32.3081   47.7686 H   0  0  0  0  0  0  0  0  0  0  0  0
   61.4703   34.7897   47.6197 H   0  0  0  0  0  0  0  0  0  0  0  0
   59.6340   36.0526   46.5086 H   0  0  0  0  0  0  0  0  0  0  0  0
   57.6727   34.8416   45.5655 H   0  0  0  0  0  0  0  0  0  0  0  0
   58.0997   32.3811   42.8152 H   0  0  0  0  0  0  0  0  0  0  0  0
   57.9943   31.0634   41.5990 H   0  0  0  0  0  0  0  0  0  0  0  0
   56.7777   32.3849   41.5990 H   0  0  0  0  0  0  0  0  0  0  0  0
   56.1032   28.9280   43.3650 H   0  0  0  0  0  0  0  0  0  0  0  0
   55.3657   29.7340   41.9391 H   0  0  0  0  0  0  0  0  0  0  0  0
   57.1171   29.3349   41.9391 H   0  0  0  0  0  0  0  0  0  0  0  0
   58.3010   26.4427   48.4995 H   0  0  0  0  0  0  0  0  0  0  0  0
   57.4233   25.0354   46.6294 H   0  0  0  0  0  0  0  0  0  0  0  0
   57.7972   25.7413   44.2589 H   0  0  0  0  0  0  0  0  0  0  0  0
   59.0128   27.8767   43.7928 H   0  0  0  0  0  0  0  0  0  0  0  0
  1  2  1  0
  2  3  1  0
  3  4  1  0
  4  5  1  0
  5  6  2  0
  6  7  1  0
  7  8  2  0
  8  9  1  0
  9 10  2  0
 10 11  1  0
 11 12  1  0
 12 13  2  0
 12 14  2  0
 12 15  1  0
 15 16  1  0
 15 17  1  0
  2 18  1  0
 18 19  2  0
 19 20  1  0
 20 21  2  0
 21 22  1  0
 22 23  2  0
 10  5  1  0
 23 18  1  0
  1 24  1  0
  1 25  1  0
  1 26  1  0
  3 27  1  0
  3 28  1  0
  4 29  1  0
  4 30  1  0
  6 31  1  0
  7 32  1  0
  8 33  1  0
  9 34  1  0
 16 35  1  0
 16 36  1  0
 16 37  1  0
 17 38  1  0
 17 39  1  0
 17 40  1  0
 19 41  1  0
 20 42  1  0
 21 43  1  0
 22 44  1  0
M  CHG  1   4   1
M  END
>  <UniqueID>  (40) 
38

>  <SMILES>  (40) 
CN(C[NH2+]c1ccccc1OS(=O)(=O)N(C)C)c1ccccn1

>  <Energy>  (40) 
39.69340774960345

>  <Genealogy>  (40) 
CN(C[NH2+]c1ccccc1OS(=O)(=O)N(C)C)c1ccccn1 (protonated)
CN(C[NH2+]c1ccccc1OS(=O)(=O)N(C)C)c1ccccn1 (3D coordinates assigned)
CN(C[NH2+]c1ccccc1OS(=O)(=O)N(C)C)c1ccccn1 (optimized conformer: 39.69340774960345 kcal/mol)

>  <smiles>  (40) 
CN(CNc1ccccc1OS(=O)(=O)N(C)C)c1ccccn1

>  <score_type>  (40) 
oracle

>  <origin>  (40) 
adg

>  <m_score__min__energy>  (40) 
-5.46

>  <m_primary>  (40) 
energy

$$$$
40:0
     RDKit          3D

 36 38  0  0  0  0  0  0  0  0999 V2000
   58.5600   31.3580   49.7090 O   0  0  0  0  0  0  0  0  0  0  0  0
   59.2650   31.1100   48.6940 C   0  0  0  0  0  0  0  0  0  0  0  0
   58.7600   30.3830   47.5740 N   0  0  0  0  0  0  0  0  0  0  0  0
   59.7480   30.2900   46.7510 C   0  0  0  0  0  0  0  0  0  0  0  0
   59.6730   29.5510   45.4540 C   0  0  0  0  0  0  0  0  0  0  0  0
   58.3610   29.8160   44.7900 C   0  0  0  0  0  0  0  0  0  0  0  0
   58.1260   30.7650   43.8040 C   0  0  0  0  0  0  0  0  0  0  0  0
   56.7810   30.8420   43.4240 C   0  0  0  0  0  0  0  0  0  0  0  0
   55.9550   29.9660   44.1170 C   0  0  0  0  0  0  0  0  0  0  0  0
   56.8980   29.0970   45.2060 S   0  0  0  0  0  0  0  0  0  0  0  0
   60.9330   30.9210   47.3130 C   0  0  0  0  0  0  0  0  0  0  0  0
   62.0730   30.9350   46.7750 O   0  0  0  0  0  0  0  0  0  0  0  0
   60.6490   31.4840   48.5950 N   0  0  1  0  0  0  0  0  0  0  0  0
   60.8750   32.9470   48.6680 C   0  0  0  0  0  0  0  0  0  0  0  0
   59.6060   33.8380   48.6010 C   0  0  0  0  0  0  0  0  0  0  0  0
   59.0020   33.9260   47.2210 C   0  0  0  0  0  0  0  0  0  0  0  0
   59.7320   34.4880   46.1600 C   0  0  0  0  0  0  0  0  0  0  0  0
   59.1720   34.5620   44.8810 C   0  0  0  0  0  0  0  0  0  0  0  0
   57.8770   34.0870   44.6530 C   0  0  0  0  0  0  0  0  0  0  0  0
   57.1390   33.5420   45.7070 C   0  0  0  0  0  0  0  0  0  0  0  0
   57.6950   33.4650   46.9880 C   0  0  0  0  0  0  0  0  0  0  0  0
   60.4885   29.8861   44.7961 H   0  0  0  0  0  0  0  0  0  0  0  0
   59.7687   28.4723   45.6470 H   0  0  0  0  0  0  0  0  0  0  0  0
   58.9163   31.3924   43.3661 H   0  0  0  0  0  0  0  0  0  0  0  0
   56.4128   31.5311   42.6497 H   0  0  0  0  0  0  0  0  0  0  0  0
   54.8692   29.8588   43.9774 H   0  0  0  0  0  0  0  0  0  0  0  0
   61.1990   30.9830   49.3300 H   0  0  0  0  0  0  0  0  0  0  0  0
   61.3862   33.1611   49.6182 H   0  0  0  0  0  0  0  0  0  0  0  0
   61.4616   33.2004   47.7726 H   0  0  0  0  0  0  0  0  0  0  0  0
   58.8519   33.4212   49.2848 H   0  0  0  0  0  0  0  0  0  0  0  0
   59.9111   34.8559   48.8852 H   0  0  0  0  0  0  0  0  0  0  0  0
   60.7479   34.8712   46.3363 H   0  0  0  0  0  0  0  0  0  0  0  0
   59.7516   34.9949   44.0523 H   0  0  0  0  0  0  0  0  0  0  0  0
   57.4396   34.1422   43.6452 H   0  0  0  0  0  0  0  0  0  0  0  0
   56.1183   33.1727   45.5288 H   0  0  0  0  0  0  0  0  0  0  0  0
   57.1072   33.0421   47.8161 H   0  0  0  0  0  0  0  0  0  0  0  0
  1  2  2  0
  2  3  1  0
  3  4  2  0
  4  5  1  0
  5  6  1  0
  6  7  2  0
  7  8  1  0
  8  9  2  0
  9 10  1  0
  4 11  1  0
 11 12  2  0
 11 13  1  0
 13 14  1  0
 14 15  1  0
 15 16  1  0
 16 17  2  0
 17 18  1  0
 18 19  2  0
 19 20  1  0
 20 21  2  0
 13  2  1  0
 21 16  1  0
 10  6  1  0
  5 22  1  0
  5 23  1  0
  7 24  1  0
  8 25  1  0
  9 26  1  0
 13 27  1  1
 14 28  1  0
 14 29  1  0
 15 30  1  0
 15 31  1  0
 17 32  1  0
 18 33  1  0
 19 34  1  0
 20 35  1  0
 21 36  1  0
M  CHG  1  13   1
M  END
>  <UniqueID>  (41) 
39

>  <SMILES>  (41) 
O=C1N=C(Cc2cccs2)C(=O)[N@H+]1CCc1ccccc1

>  <Energy>  (41) 
83.05394347891445

>  <Genealogy>  (41) 
O=C1N=C(Cc2cccs2)C(=O)[NH+]1CCc1ccccc1 (protonated)
O=C1N=C(Cc2cccs2)C(=O)[N@H+]1CCc1ccccc1 (chirality)
O=C1N=C(Cc2cccs2)C(=O)[N@H+]1CCc1ccccc1 (3D coordinates assigned)
O=C1N=C(Cc2cccs2)C(=O)[N@H+]1CCc1ccccc1 (nonaromatic ring conformer: 83.05394347891445 kcal/mol)

>  <smiles>  (41) 
O=C1N=C(Cc2cccs2)C(=O)N1CCc1ccccc1

>  <score_type>  (41) 
oracle

>  <origin>  (41) 
adg

>  <m_score__min__energy>  (41) 
-6.1600000000000001

>  <m_primary>  (41) 
energy

$$$$
41:0
     RDKit          3D

 48 50  0  0  0  0  0  0  0  0999 V2000
   56.8270   22.2220   43.2870 C   0  0  0  0  0  0  0  0  0  0  0  0
   57.3690   22.0120   44.6920 C   0  0  0  0  0  0  0  0  0  0  0  0
   56.3470   22.2900   45.6440 O   0  0  0  0  0  0  0  0  0  0  0  0
   56.6260   22.6510   46.9640 C   0  0  0  0  0  0  0  0  0  0  0  0
   57.2870   21.8840   47.7180 O   0  0  0  0  0  0  0  0  0  0  0  0
   56.0920   23.9400   47.5010 C   0  0  0  0  0  0  0  0  0  0  0  0
   56.6040   25.0850   46.6840 C   0  0  0  0  0  0  0  0  0  0  0  0
   57.8780   25.1050   46.1180 C   0  0  0  0  0  0  0  0  0  0  0  0
   58.0320   26.5330   45.2430 S   0  0  0  0  0  0  0  0  0  0  0  0
   56.4700   27.0560   45.6170 C   0  0  0  0  0  0  0  0  0  0  0  0
   55.9140   28.1710   45.2430 N   0  0  0  0  0  0  0  0  0  0  0  0
   56.5700   29.4080   44.9200 C   0  0  0  0  0  0  0  0  0  0  0  0
   55.9230   30.4080   44.5070 O   0  0  0  0  0  0  0  0  0  0  0  0
   58.0630   29.5020   45.0560 C   0  0  0  0  0  0  0  0  0  0  0  0
   58.5670   30.0450   46.3940 C   0  0  0  0  0  0  0  0  0  0  0  0
   58.8030   29.1490   47.4580 C   0  0  0  0  0  0  0  0  0  0  0  0
   59.3140   29.5870   48.6670 C   0  0  0  0  0  0  0  0  0  0  0  0
   59.5940   30.9280   48.8640 C   0  0  0  0  0  0  0  0  0  0  0  0
   59.3450   31.8870   47.8560 C   0  0  0  0  0  0  0  0  0  0  0  0
   58.8020   31.4490   46.6120 C   0  0  0  0  0  0  0  0  0  0  0  0
   58.5090   32.4480   45.6480 C   0  0  0  0  0  0  0  0  0  0  0  0
   57.9320   32.1490   44.5680 O   0  0  0  0  0  0  0  0  0  0  0  0
   58.8230   33.7590   45.8840 N   0  0  0  0  0  0  0  0  0  0  0  0
   58.5200   34.7750   44.8580 C   0  0  0  0  0  0  0  0  0  0  0  0
   59.3350   34.1470   47.0920 C   0  0  0  0  0  0  0  0  0  0  0  0
   59.5510   35.3730   47.3050 O   0  0  0  0  0  0  0  0  0  0  0  0
   59.6050   33.2240   48.0720 N   0  0  0  0  0  0  0  0  0  0  0  0
   60.1710   33.6820   49.3600 C   0  0  0  0  0  0  0  0  0  0  0  0
   55.8250   26.1650   46.4000 N   0  0  0  0  0  0  0  0  0  0  0  0
   55.8027   22.6189   43.3447 H   0  0  0  0  0  0  0  0  0  0  0  0
   57.4676   22.9370   42.7499 H   0  0  0  0  0  0  0  0  0  0  0  0
   56.8186   21.2620   42.7499 H   0  0  0  0  0  0  0  0  0  0  0  0
   57.7005   20.9692   44.8046 H   0  0  0  0  0  0  0  0  0  0  0  0
   58.2197   22.6887   44.8607 H   0  0  0  0  0  0  0  0  0  0  0  0
   54.9929   23.9249   47.4589 H   0  0  0  0  0  0  0  0  0  0  0  0
   56.4233   24.0626   48.5428 H   0  0  0  0  0  0  0  0  0  0  0  0
   58.6463   24.3250   46.2248 H   0  0  0  0  0  0  0  0  0  0  0  0
   58.4803   28.4933   44.9203 H   0  0  0  0  0  0  0  0  0  0  0  0
   58.3920   30.2229   44.2931 H   0  0  0  0  0  0  0  0  0  0  0  0
   58.5763   28.0810   47.3238 H   0  0  0  0  0  0  0  0  0  0  0  0
   59.4988   28.8652   49.4762 H   0  0  0  0  0  0  0  0  0  0  0  0
   60.0190   31.2541   49.8247 H   0  0  0  0  0  0  0  0  0  0  0  0
   58.2386   35.7186   45.3483 H   0  0  0  0  0  0  0  0  0  0  0  0
   59.4084   34.9386   44.2304 H   0  0  0  0  0  0  0  0  0  0  0  0
   57.6871   34.4253   44.2304 H   0  0  0  0  0  0  0  0  0  0  0  0
   59.6094   33.2276   50.1896 H   0  0  0  0  0  0  0  0  0  0  0  0
   61.2272   33.3813   49.4240 H   0  0  0  0  0  0  0  0  0  0  0  0
   60.0972   34.7777   49.4240 H   0  0  0  0  0  0  0  0  0  0  0  0
  1  2  1  0
  2  3  1  0
  3  4  1  0
  4  5  2  0
  4  6  1  0
  6  7  1  0
  7  8  2  0
  8  9  1  0
  9 10  1  0
 10 11  2  3
 11 12  1  0
 12 13  2  0
 12 14  1  0
 14 15  1  0
 15 16  2  0
 16 17  1  0
 17 18  2  0
 18 19  1  0
 19 20  2  0
 20 21  1  0
 21 22  2  0
 21 23  1  0
 23 24  1  0
 23 25  1  0
 25 26  2  0
 25 27  1  0
 27 28  1  0
 10 29  1  0
 29  7  1  0
 20 15  1  0
 27 19  1  0
  1 30  1  0
  1 31  1  0
  1 32  1  0
  2 33  1  0
  2 34  1  0
  6 35  1  0
  6 36  1  0
  8 37  1  0
 14 38  1  0
 14 39  1  0
 16 40  1  0
 17 41  1  0
 18 42  1  0
 24 43  1  0
 24 44  1  0
 24 45  1  0
 28 46  1  0
 28 47  1  0
 28 48  1  0
M  CHG  1  29  -1
M  END
>  <UniqueID>  (42) 
40

>  <SMILES>  (42) 
CCOC(=O)Cc1csc(=NC(=O)Cc2cccc3c2c(=O)n(C)c(=O)n3C)[n-]1

>  <Energy>  (42) 
99.58277864102446

>  <Genealogy>  (42) 
CCOC(=O)Cc1csc(=NC(=O)Cc2cccc3c2c(=O)n(C)c(=O)n3C)[n-]1 (protonated)
CCOC(=O)Cc1csc(=NC(=O)Cc2cccc3c2c(=O)n(C)c(=O)n3C)[n-]1 (3D coordinates assigned)
CCOC(=O)Cc1csc(=NC(=O)Cc2cccc3c2c(=O)n(C)c(=O)n3C)[n-]1 (optimized conformer: 99.58277864102446 kcal/mol)

>  <smiles>  (42) 
CCOC(=O)Cc1csc(=NC(=O)Cc2cccc3c2c(=O)n(C)c(=O)n3C)[nH]1

>  <score_type>  (42) 
oracle

>  <origin>  (42) 
adg

>  <m_score__min__energy>  (42) 
-10.6

>  <m_primary>  (42) 
energy

$$$$
42:0
     RDKit          3D

 64 68  0  0  0  0  0  0  0  0999 V2000
   51.3790   24.1300   44.2490 C   0  0  0  0  0  0  0  0  0  0  0  0
   52.0070   22.9270   44.6770 O   0  0  0  0  0  0  0  0  0  0  0  0
   52.5300   22.7200   45.9620 C   0  0  0  0  0  0  0  0  0  0  0  0
   51.7040   22.4230   47.0810 C   0  0  0  0  0  0  0  0  0  0  0  0
   52.2680   22.2050   48.3510 C   0  0  0  0  0  0  0  0  0  0  0  0
   53.6530   22.2900   48.4750 C   0  0  0  0  0  0  0  0  0  0  0  0
   54.3870   22.0820   49.5830 N   0  0  0  0  0  0  0  0  0  0  0  0
   55.6780   22.2370   49.2100 C   0  0  0  0  0  0  0  0  0  0  0  0
   55.7580   22.5570   47.8580 C   0  0  0  0  0  0  0  0  0  0  0  0
   57.0110   22.7400   47.0560 C   0  0  0  0  0  0  0  0  0  0  0  0
   57.1130   21.6820   45.9600 C   0  0  0  0  0  0  0  0  0  0  0  0
   57.3560   22.3310   44.6760 N   0  0  0  0  0  0  0  0  0  0  0  0
   56.5820   23.4090   44.1310 C   0  0  0  0  0  0  0  0  0  0  0  0
   55.6510   23.1370   43.3260 O   0  0  0  0  0  0  0  0  0  0  0  0
   56.8750   24.8260   44.4330 C   0  0  0  0  0  0  0  0  0  0  0  0
   57.6880   25.5670   43.5630 C   0  0  0  0  0  0  0  0  0  0  0  0
   57.9730   26.9080   43.8300 C   0  0  0  0  0  0  0  0  0  0  0  0
   57.4290   27.5390   44.9590 C   0  0  0  0  0  0  0  0  0  0  0  0
   57.7670   28.9530   45.2300 C   0  0  0  0  0  0  0  0  0  0  0  0
   56.9810   29.9530   44.8660 O   0  0  0  0  0  0  0  0  0  0  0  0
   57.5510   31.0730   45.2390 C   0  0  0  0  0  0  0  0  0  0  0  0
   57.0730   32.3660   45.0550 C   0  0  0  0  0  0  0  0  0  0  0  0
   57.8540   33.4320   45.5380 C   0  0  0  0  0  0  0  0  0  0  0  0
   59.0900   33.1900   46.1930 C   0  0  0  0  0  0  0  0  0  0  0  0
   59.9160   34.3560   46.7000 C   0  0  0  0  0  0  0  0  0  0  0  0
   59.6520   34.6120   48.1900 C   0  0  0  0  0  0  0  0  0  0  0  0
   59.6590   35.6200   45.8660 C   0  0  0  0  0  0  0  0  0  0  0  0
   59.5370   31.8570   46.3640 C   0  0  0  0  0  0  0  0  0  0  0  0
   58.7390   30.8250   45.8690 C   0  0  0  0  0  0  0  0  0  0  0  0
   58.8960   29.4540   45.8920 C   0  0  0  0  0  0  0  0  0  0  0  0
   60.0260   28.6940   46.5180 C   0  0  0  0  0  0  0  0  0  0  0  0
   56.6140   26.7980   45.8300 C   0  0  0  0  0  0  0  0  0  0  0  0
   56.3300   25.4560   45.5620 C   0  0  0  0  0  0  0  0  0  0  0  0
   54.4540   22.5810   47.4030 C   0  0  0  0  0  0  0  0  0  0  0  0
   53.9260   22.8060   46.1310 C   0  0  0  0  0  0  0  0  0  0  0  0
   51.0728   24.7165   45.1278 H   0  0  0  0  0  0  0  0  0  0  0  0
   52.0855   24.7174   43.6442 H   0  0  0  0  0  0  0  0  0  0  0  0
   50.4932   23.8861   43.6442 H   0  0  0  0  0  0  0  0  0  0  0  0
   50.6132   22.3632   46.9520 H   0  0  0  0  0  0  0  0  0  0  0  0
   51.6345   21.9743   49.2202 H   0  0  0  0  0  0  0  0  0  0  0  0
   54.0380   21.8320   50.5340 H   0  0  0  0  0  0  0  0  0  0  0  0
   56.5427   22.1258   49.8808 H   0  0  0  0  0  0  0  0  0  0  0  0
   57.0007   23.7381   46.5938 H   0  0  0  0  0  0  0  0  0  0  0  0
   57.8768   22.6373   47.7266 H   0  0  0  0  0  0  0  0  0  0  0  0
   57.9436   20.9977   46.1876 H   0  0  0  0  0  0  0  0  0  0  0  0
   56.1721   21.1144   45.9107 H   0  0  0  0  0  0  0  0  0  0  0  0
   58.1041   25.0887   42.6641 H   0  0  0  0  0  0  0  0  0  0  0  0
   58.6282   27.4731   43.1508 H   0  0  0  0  0  0  0  0  0  0  0  0
   56.1144   32.5495   44.5477 H   0  0  0  0  0  0  0  0  0  0  0  0
   57.5024   34.4660   45.4064 H   0  0  0  0  0  0  0  0  0  0  0  0
   60.9777   34.0910   46.5877 H   0  0  0  0  0  0  0  0  0  0  0  0
   60.3118   33.9722   48.7945 H   0  0  0  0  0  0  0  0  0  0  0  0
   59.8527   35.6684   48.4217 H   0  0  0  0  0  0  0  0  0  0  0  0
   58.6023   34.3789   48.4217 H   0  0  0  0  0  0  0  0  0  0  0  0
   59.4855   36.4735   46.5378 H   0  0  0  0  0  0  0  0  0  0  0  0
   60.5339   35.8248   45.2315 H   0  0  0  0  0  0  0  0  0  0  0  0
   58.7736   35.4669   45.2315 H   0  0  0  0  0  0  0  0  0  0  0  0
   60.4878   31.6411   46.8734 H   0  0  0  0  0  0  0  0  0  0  0  0
   59.9430   28.7498   47.6134 H   0  0  0  0  0  0  0  0  0  0  0  0
   59.9809   27.6419   46.2000 H   0  0  0  0  0  0  0  0  0  0  0  0
   60.9834   29.1325   46.2000 H   0  0  0  0  0  0  0  0  0  0  0  0
   56.1967   27.2765   46.7283 H   0  0  0  0  0  0  0  0  0  0  0  0
   55.6749   24.8900   46.2406 H   0  0  0  0  0  0  0  0  0  0  0  0
   54.5832   23.0445   45.2817 H   0  0  0  0  0  0  0  0  0  0  0  0
  1  2  1  0
  2  3  1  0
  3  4  2  0
  4  5  1  0
  5  6  2  0
  6  7  1  0
  7  8  1  0
  8  9  2  0
  9 10  1  0
 10 11  1  0
 11 12  1  0
 12 13  1  0
 13 14  2  0
 13 15  1  0
 15 16  2  0
 16 17  1  0
 17 18  2  0
 18 19  1  0
 19 20  1  0
 20 21  1  0
 21 22  2  0
 22 23  1  0
 23 24  2  0
 24 25  1  0
 25 26  1  0
 25 27  1  0
 24 28  1  0
 28 29  2  0
 29 30  1  0
 30 31  1  0
 18 32  1  0
 32 33  2  0
  9 34  1  0
 34 35  2  0
 35  3  1  0
 34  6  1  0
 33 15  1  0
 30 19  2  0
 29 21  1  0
  1 36  1  0
  1 37  1  0
  1 38  1  0
  4 39  1  0
  5 40  1  0
  7 41  1  0
  8 42  1  0
 10 43  1  0
 10 44  1  0
 11 45  1  0
 11 46  1  0
 16 47  1  0
 17 48  1  0
 22 49  1  0
 23 50  1  0
 25 51  1  0
 26 52  1  0
 26 53  1  0
 26 54  1  0
 27 55  1  0
 27 56  1  0
 27 57  1  0
 28 58  1  0
 31 59  1  0
 31 60  1  0
 31 61  1  0
 32 62  1  0
 33 63  1  0
 35 64  1  0
M  CHG  1  12  -1
M  END
>  <UniqueID>  (43) 
41

>  <SMILES>  (43) 
COc1ccc2[nH]cc(CC[N-]C(=O)c3ccc(-c4oc5ccc(C(C)C)cc5c4C)cc3)c2c1

>  <Energy>  (43) 
136.2226743641884

>  <Genealogy>  (43) 
COc1ccc2[nH]cc(CC[N-]C(=O)c3ccc(-c4oc5ccc(C(C)C)cc5c4C)cc3)c2c1 (protonated)
COc1ccc2[nH]cc(CC[N-]C(=O)c3ccc(-c4oc5ccc(C(C)C)cc5c4C)cc3)c2c1 (3D coordinates assigned)
COc1ccc2[nH]cc(CC[N-]C(=O)c3ccc(-c4oc5ccc(C(C)C)cc5c4C)cc3)c2c1 (optimized conformer: 136.2226743641884 kcal/mol)

>  <smiles>  (43) 
COc1ccc2[nH]cc(CCNC(=O)c3ccc(-c4oc5ccc(C(C)C)cc5c4C)cc3)c2c1

>  <score_type>  (43) 
oracle

>  <origin>  (43) 
adg

>  <m_score__min__energy>  (43) 
-11.460000000000001

>  <m_primary>  (43) 
energy

$$$$
43:0
     RDKit          3D

 42 44  0  0  0  0  0  0  0  0999 V2000
   63.1660   33.8310   47.1230 Br  0  0  0  0  0  0  0  0  0  0  0  0
   61.2900   33.6070   47.3960 C   0  0  0  0  0  0  0  0  0  0  0  0
   60.7650   33.6140   48.6920 C   0  0  0  0  0  0  0  0  0  0  0  0
   59.3950   33.4340   48.8920 C   0  0  0  0  0  0  0  0  0  0  0  0
   58.5430   33.2600   47.7970 C   0  0  0  0  0  0  0  0  0  0  0  0
   59.0530   33.2820   46.4860 C   0  0  0  0  0  0  0  0  0  0  0  0
   58.1340   33.0890   45.2940 C   0  0  0  0  0  0  0  0  0  0  0  0
   58.3160   31.8030   44.5710 N   0  0  0  0  0  0  0  0  0  0  0  0
   57.0300   31.2200   44.1100 C   0  0  0  0  0  0  0  0  0  0  0  0
   57.2010   29.7420   43.7450 C   0  0  0  0  0  0  0  0  0  0  0  0
   57.5640   28.9370   44.9360 N   0  0  0  0  0  0  0  0  0  0  0  0
   58.2080   27.6710   44.5340 C   0  0  0  0  0  0  0  0  0  0  0  0
   57.3610   26.4960   44.9470 C   0  0  0  0  0  0  0  0  0  0  0  0
   57.4920   25.2520   44.3130 C   0  0  0  0  0  0  0  0  0  0  0  0
   56.7030   24.1750   44.7180 C   0  0  0  0  0  0  0  0  0  0  0  0
   55.7870   24.3510   45.7570 C   0  0  0  0  0  0  0  0  0  0  0  0
   55.6700   25.5620   46.3640 N   0  0  0  0  0  0  0  0  0  0  0  0
   56.4280   26.6260   45.9870 C   0  0  0  0  0  0  0  0  0  0  0  0
   58.3710   29.6870   45.9350 C   0  0  0  0  0  0  0  0  0  0  0  0
   59.1810   30.8310   45.2970 C   0  0  0  0  0  0  0  0  0  0  0  0
   60.4400   33.4300   46.2990 C   0  0  0  0  0  0  0  0  0  0  0  0
   61.4317   33.7614   49.5544 H   0  0  0  0  0  0  0  0  0  0  0  0
   58.9851   33.4291   49.9128 H   0  0  0  0  0  0  0  0  0  0  0  0
   57.4665   33.1048   47.9618 H   0  0  0  0  0  0  0  0  0  0  0  0
   57.0948   33.1371   45.6513 H   0  0  0  0  0  0  0  0  0  0  0  0
   58.3828   33.8859   44.5777 H   0  0  0  0  0  0  0  0  0  0  0  0
   58.8420   32.0560   43.7000 H   0  0  0  0  0  0  0  0  0  0  0  0
   56.2851   31.3087   44.9146 H   0  0  0  0  0  0  0  0  0  0  0  0
   56.6959   31.7670   43.2160 H   0  0  0  0  0  0  0  0  0  0  0  0
   56.2557   29.3628   43.3295 H   0  0  0  0  0  0  0  0  0  0  0  0
   58.0104   29.6561   43.0051 H   0  0  0  0  0  0  0  0  0  0  0  0
   58.3348   27.6600   43.4414 H   0  0  0  0  0  0  0  0  0  0  0  0
   59.1873   27.5962   45.0293 H   0  0  0  0  0  0  0  0  0  0  0  0
   58.2174   25.1253   43.4958 H   0  0  0  0  0  0  0  0  0  0  0  0
   56.8016   23.1972   44.2238 H   0  0  0  0  0  0  0  0  0  0  0  0
   55.1594   23.5091   46.0848 H   0  0  0  0  0  0  0  0  0  0  0  0
   56.3094   27.5922   46.4992 H   0  0  0  0  0  0  0  0  0  0  0  0
   57.6927   30.1125   46.6892 H   0  0  0  0  0  0  0  0  0  0  0  0
   59.0849   28.9822   46.3863 H   0  0  0  0  0  0  0  0  0  0  0  0
   59.7235   31.3652   46.0909 H   0  0  0  0  0  0  0  0  0  0  0  0
   59.8720   30.3857   44.5661 H   0  0  0  0  0  0  0  0  0  0  0  0
   60.8591   33.4063   45.2822 H   0  0  0  0  0  0  0  0  0  0  0  0
  1  2  1  0
  2  3  2  0
  3  4  1  0
  4  5  2  0
  5  6  1  0
  6  7  1  0
  7  8  1  0
  8  9  1  0
  9 10  1  0
 10 11  1  0
 11 12  1  0
 12 13  1  0
 13 14  2  0
 14 15  1  0
 15 16  2  0
 16 17  1  0
 17 18  2  0
 11 19  1  0
 19 20  1  0
  6 21  2  0
 21  2  1  0
 20  8  1  0
 18 13  1  0
  3 22  1  0
  4 23  1  0
  5 24  1  0
  7 25  1  0
  7 26  1  0
  8 27  1  0
  9 28  1  0
  9 29  1  0
 10 30  1  0
 10 31  1  0
 12 32  1  0
 12 33  1  0
 14 34  1  0
 15 35  1  0
 16 36  1  0
 18 37  1  0
 19 38  1  0
 19 39  1  0
 20 40  1  0
 20 41  1  0
 21 42  1  0
M  CHG  1   8   1
M  END
>  <UniqueID>  (44) 
42

>  <SMILES>  (44) 
Brc1cccc(C[NH+]2CCN(Cc3cccnc3)CC2)c1

>  <Energy>  (44) 
60.21486556143404

>  <Genealogy>  (44) 
Brc1cccc(C[NH+]2CCN(Cc3cccnc3)CC2)c1 (protonated)
Brc1cccc(C[NH+]2CCN(Cc3cccnc3)CC2)c1 (3D coordinates assigned)
Brc1cccc(C[NH+]2CCN(Cc3cccnc3)CC2)c1 (nonaromatic ring conformer: 60.21486556143404 kcal/mol)

>  <smiles>  (44) 
Brc1cccc(CN2CCN(Cc3cccnc3)CC2)c1

>  <score_type>  (44) 
oracle

>  <origin>  (44) 
adg

>  <m_score__min__energy>  (44) 
-6.1100000000000003

>  <m_primary>  (44) 
energy

$$$$
44:0
     RDKit          3D

 35 38  0  0  0  0  0  0  0  0999 V2000
   63.9540   33.4580   48.2590 Cl  0  0  0  0  0  0  0  0  0  0  0  0
   62.2840   33.6670   47.7660 C   0  0  0  0  0  0  0  0  0  0  0  0
   61.9690   33.8280   46.4120 C   0  0  0  0  0  0  0  0  0  0  0  0
   60.6380   33.9930   46.0170 C   0  0  0  0  0  0  0  0  0  0  0  0
   59.6160   33.9940   46.9760 C   0  0  0  0  0  0  0  0  0  0  0  0
   57.9090   34.1970   46.4670 S   0  0  0  0  0  0  0  0  0  0  0  0
   58.0110   32.8600   45.2750 C   0  0  0  0  0  0  0  0  0  0  0  0
   57.6410   33.0830   43.9810 N   0  0  0  0  0  0  0  0  0  0  0  0
   57.7160   32.0990   43.0350 C   0  0  0  0  0  0  0  0  0  0  0  0
   58.1710   30.8580   43.3680 N   0  0  0  0  0  0  0  0  0  0  0  0
   58.5400   30.6210   44.6500 C   0  0  0  0  0  0  0  0  0  0  0  0
   59.1200   29.1870   45.2930 S   0  0  0  0  0  0  0  0  0  0  0  0
   59.2990   29.7950   46.8700 C   0  0  0  0  0  0  0  0  0  0  0  0
   59.8040   29.0180   48.0300 C   0  0  0  0  0  0  0  0  0  0  0  0
   60.0270   27.6320   47.9160 C   0  0  0  0  0  0  0  0  0  0  0  0
   60.5040   26.8960   49.0050 C   0  0  0  0  0  0  0  0  0  0  0  0
   60.7670   27.5320   50.2190 C   0  0  0  0  0  0  0  0  0  0  0  0
   60.5560   28.9060   50.3470 C   0  0  0  0  0  0  0  0  0  0  0  0
   60.0790   29.6470   49.2610 C   0  0  0  0  0  0  0  0  0  0  0  0
   58.8910   31.1370   46.8860 C   0  0  0  0  0  0  0  0  0  0  0  0
   58.4720   31.5880   45.6270 C   0  0  0  0  0  0  0  0  0  0  0  0
   59.9340   33.8390   48.3320 C   0  0  0  0  0  0  0  0  0  0  0  0
   61.2650   33.6740   48.7250 C   0  0  0  0  0  0  0  0  0  0  0  0
   62.7695   33.8247   45.6576 H   0  0  0  0  0  0  0  0  0  0  0  0
   60.3927   34.1222   44.9525 H   0  0  0  0  0  0  0  0  0  0  0  0
   57.4077   32.3097   42.0003 H   0  0  0  0  0  0  0  0  0  0  0  0
   58.2310   30.1040   42.6460 H   0  0  0  0  0  0  0  0  0  0  0  0
   59.8241   27.1240   46.9617 H   0  0  0  0  0  0  0  0  0  0  0  0
   60.6723   25.8136   48.9046 H   0  0  0  0  0  0  0  0  0  0  0  0
   61.1405   26.9507   51.0749 H   0  0  0  0  0  0  0  0  0  0  0  0
   60.7653   29.4068   51.3038 H   0  0  0  0  0  0  0  0  0  0  0  0
   59.9171   30.7297   49.3685 H   0  0  0  0  0  0  0  0  0  0  0  0
   58.8990   31.7665   47.7880 H   0  0  0  0  0  0  0  0  0  0  0  0
   59.1350   33.8472   49.0880 H   0  0  0  0  0  0  0  0  0  0  0  0
   61.5119   33.5495   49.7897 H   0  0  0  0  0  0  0  0  0  0  0  0
  1  2  1  0
  2  3  2  0
  3  4  1  0
  4  5  2  0
  5  6  1  0
  6  7  1  0
  7  8  2  0
  8  9  1  0
  9 10  2  0
 10 11  1  0
 11 12  1  0
 12 13  1  0
 13 14  1  0
 14 15  2  0
 15 16  1  0
 16 17  2  0
 17 18  1  0
 18 19  2  0
 13 20  2  0
 20 21  1  0
  5 22  1  0
 22 23  2  0
 23  2  1  0
 21  7  1  0
 21 11  2  0
 19 14  1  0
  3 24  1  0
  4 25  1  0
  9 26  1  0
 10 27  1  0
 15 28  1  0
 16 29  1  0
 17 30  1  0
 18 31  1  0
 19 32  1  0
 20 33  1  0
 22 34  1  0
 23 35  1  0
M  CHG  1  10   1
M  END
>  <UniqueID>  (45) 
43

>  <SMILES>  (45) 
Clc1ccc(Sc2nc[nH+]c3sc(-c4ccccc4)cc23)cc1

>  <Energy>  (45) 
70.39470911902312

>  <Genealogy>  (45) 
Clc1ccc(Sc2nc[nH+]c3sc(-c4ccccc4)cc23)cc1 (protonated)
Clc1ccc(Sc2nc[nH+]c3sc(-c4ccccc4)cc23)cc1 (3D coordinates assigned)
Clc1ccc(Sc2nc[nH+]c3sc(-c4ccccc4)cc23)cc1 (optimized conformer: 70.39470911902312 kcal/mol)

>  <smiles>  (45) 
Clc1ccc(Sc2ncnc3sc(-c4ccccc4)cc23)cc1

>  <score_type>  (45) 
oracle

>  <origin>  (45) 
adg

>  <m_score__min__energy>  (45) 
-6.8200000000000003

>  <m_primary>  (45) 
energy

$$$$
45:0
     RDKit          3D

 37 38  0  0  0  0  0  0  0  0999 V2000
   57.4770   31.9550   51.3740 C   0  0  0  0  0  0  0  0  0  0  0  0
   58.5480   32.2130   50.6080 C   0  0  0  0  0  0  0  0  0  0  0  0
   58.9190   31.2510   49.5110 C   0  0  0  0  0  0  0  0  0  0  0  0
   59.3870   33.4410   50.8740 C   0  0  0  0  0  0  0  0  0  0  0  0
   59.5820   34.1960   49.6770 O   0  0  0  0  0  0  0  0  0  0  0  0
   60.6350   34.0220   48.7600 C   0  0  0  0  0  0  0  0  0  0  0  0
   61.9340   33.6620   49.1740 C   0  0  0  0  0  0  0  0  0  0  0  0
   62.9520   33.4800   48.2360 C   0  0  0  0  0  0  0  0  0  0  0  0
   62.6910   33.6550   46.8760 C   0  0  0  0  0  0  0  0  0  0  0  0
   63.6800   33.4700   45.9680 F   0  0  0  0  0  0  0  0  0  0  0  0
   61.4120   34.0210   46.4530 C   0  0  0  0  0  0  0  0  0  0  0  0
   60.3800   34.2180   47.3860 C   0  0  0  0  0  0  0  0  0  0  0  0
   59.0010   34.5930   46.9010 C   0  0  0  0  0  0  0  0  0  0  0  0
   58.4900   33.5760   45.9150 C   0  0  0  0  0  0  0  0  0  0  0  0
   58.6130   33.7780   44.5360 C   0  0  0  0  0  0  0  0  0  0  0  0
   58.1250   32.8560   43.6670 N   0  0  0  0  0  0  0  0  0  0  0  0
   57.5030   31.7330   44.1140 C   0  0  0  0  0  0  0  0  0  0  0  0
   57.0060   30.7180   43.1400 C   0  0  0  0  0  0  0  0  0  0  0  0
   57.3850   31.5090   45.4490 N   0  0  0  0  0  0  0  0  0  0  0  0
   57.8590   32.4050   46.3530 C   0  0  0  0  0  0  0  0  0  0  0  0
   57.1959   32.6504   52.1786 H   0  0  0  0  0  0  0  0  0  0  0  0
   56.8801   31.0481   51.1973 H   0  0  0  0  0  0  0  0  0  0  0  0
   59.2813   30.3116   49.9541 H   0  0  0  0  0  0  0  0  0  0  0  0
   58.0354   31.0461   48.8887 H   0  0  0  0  0  0  0  0  0  0  0  0
   59.7114   31.6924   48.8887 H   0  0  0  0  0  0  0  0  0  0  0  0
   58.8772   34.0710   51.6178 H   0  0  0  0  0  0  0  0  0  0  0  0
   60.3695   33.1198   51.2502 H   0  0  0  0  0  0  0  0  0  0  0  0
   62.1469   33.5235   50.2443 H   0  0  0  0  0  0  0  0  0  0  0  0
   63.9617   33.1982   48.5694 H   0  0  0  0  0  0  0  0  0  0  0  0
   61.2104   34.1563   45.3801 H   0  0  0  0  0  0  0  0  0  0  0  0
   58.3159   34.6391   47.7604 H   0  0  0  0  0  0  0  0  0  0  0  0
   59.0548   35.5726   46.4036 H   0  0  0  0  0  0  0  0  0  0  0  0
   59.1057   34.6849   44.1554 H   0  0  0  0  0  0  0  0  0  0  0  0
   56.5861   29.8605   43.6862 H   0  0  0  0  0  0  0  0  0  0  0  0
   56.2261   31.1676   42.5078 H   0  0  0  0  0  0  0  0  0  0  0  0
   57.8394   30.3776   42.5078 H   0  0  0  0  0  0  0  0  0  0  0  0
   57.7472   32.2107   47.4299 H   0  0  0  0  0  0  0  0  0  0  0  0
  1  2  2  0
  2  3  1  0
  2  4  1  0
  4  5  1  0
  5  6  1  0
  6  7  2  0
  7  8  1  0
  8  9  2  0
  9 10  1  0
  9 11  1  0
 11 12  2  0
 12 13  1  0
 13 14  1  0
 14 15  2  0
 15 16  1  0
 16 17  2  0
 17 18  1  0
 17 19  1  0
 19 20  2  0
 12  6  1  0
 20 14  1  0
  1 21  1  0
  1 22  1  0
  3 23  1  0
  3 24  1  0
  3 25  1  0
  4 26  1  0
  4 27  1  0
  7 28  1  0
  8 29  1  0
 11 30  1  0
 13 31  1  0
 13 32  1  0
 15 33  1  0
 18 34  1  0
 18 35  1  0
 18 36  1  0
 20 37  1  0
M  END
>  <UniqueID>  (46) 
44

>  <SMILES>  (46) 
C=C(C)COc1ccc(F)cc1Cc1cnc(C)nc1

>  <Energy>  (46) 
30.613376932636726

>  <Genealogy>  (46) 
C=C(C)COc1ccc(F)cc1Cc1cnc(C)nc1 (3D coordinates assigned)
C=C(C)COc1ccc(F)cc1Cc1cnc(C)nc1 (optimized conformer: 30.613376932636726 kcal/mol)

>  <smiles>  (46) 
C=C(C)COc1ccc(F)cc1Cc1cnc(C)nc1

>  <score_type>  (46) 
oracle

>  <origin>  (46) 
adg

>  <m_score__min__energy>  (46) 
-6.2599999999999998

>  <m_primary>  (46) 
energy

$$$$
46:0
     RDKit          3D

 51 54  0  0  0  0  0  0  0  0999 V2000
   62.9450   33.9730   46.3910 C   0  0  0  0  0  0  0  0  0  0  0  0
   62.7350   33.2410   47.6780 C   0  0  0  0  0  0  0  0  0  0  0  0
   63.6490   32.4080   48.2240 N   0  0  0  0  0  0  0  0  0  0  0  0
   63.1200   32.0490   49.4090 C   0  0  0  0  0  0  0  0  0  0  0  0
   63.7080   31.2040   50.3480 C   0  0  0  0  0  0  0  0  0  0  0  0
   63.0070   30.9670   51.5400 C   0  0  0  0  0  0  0  0  0  0  0  0
   61.7570   31.5750   51.7630 C   0  0  0  0  0  0  0  0  0  0  0  0
   61.2140   32.4200   50.7840 C   0  0  0  0  0  0  0  0  0  0  0  0
   61.9230   32.6220   49.6390 N   0  0  0  0  0  0  0  0  0  0  0  0
   61.6590   33.3810   48.5540 C   0  0  0  0  0  0  0  0  0  0  0  0
   60.4750   34.2970   48.3890 C   0  0  0  0  0  0  0  0  0  0  0  0
   59.7390   33.9780   47.1160 C   0  0  0  0  0  0  0  0  0  0  0  0
   59.6710   34.9240   46.0810 C   0  0  0  0  0  0  0  0  0  0  0  0
   59.0230   34.6140   44.8830 C   0  0  0  0  0  0  0  0  0  0  0  0
   58.4520   33.3520   44.6980 C   0  0  0  0  0  0  0  0  0  0  0  0
   57.7930   33.0870   43.5410 F   0  0  0  0  0  0  0  0  0  0  0  0
   58.5290   32.3870   45.7180 C   0  0  0  0  0  0  0  0  0  0  0  0
   57.9450   31.0430   45.5360 C   0  0  0  0  0  0  0  0  0  0  0  0
   56.8250   30.9370   44.9640 O   0  0  0  0  0  0  0  0  0  0  0  0
   58.6110   29.8630   46.0300 N   0  0  0  0  0  0  0  0  0  0  0  0
   60.0770   29.8690   46.1640 C   0  0  0  0  0  0  0  0  0  0  0  0
   60.7500   28.7510   45.3390 C   0  0  0  0  0  0  0  0  0  0  0  0
   60.7540   27.3640   46.0070 C   0  0  0  0  0  0  0  0  0  0  0  0
   59.4480   26.6820   45.9530 N   0  0  0  0  0  0  0  0  0  0  0  0
   58.3500   27.4490   45.3340 C   0  0  0  0  0  0  0  0  0  0  0  0
   57.8340   28.6190   46.1980 C   0  0  0  0  0  0  0  0  0  0  0  0
   59.1570   32.7130   46.9300 C   0  0  0  0  0  0  0  0  0  0  0  0
   63.2426   35.0104   46.6036 H   0  0  0  0  0  0  0  0  0  0  0  0
   63.7367   33.4758   45.8114 H   0  0  0  0  0  0  0  0  0  0  0  0
   62.0101   33.9712   45.8114 H   0  0  0  0  0  0  0  0  0  0  0  0
   64.5720   32.1250   47.8270 H   0  0  0  0  0  0  0  0  0  0  0  0
   64.6873   30.7391   50.1613 H   0  0  0  0  0  0  0  0  0  0  0  0
   63.4364   30.3026   52.3044 H   0  0  0  0  0  0  0  0  0  0  0  0
   61.2098   31.3886   52.6988 H   0  0  0  0  0  0  0  0  0  0  0  0
   60.2398   32.9073   50.9373 H   0  0  0  0  0  0  0  0  0  0  0  0
   59.7945   34.1673   49.2434 H   0  0  0  0  0  0  0  0  0  0  0  0
   60.8315   35.3367   48.3444 H   0  0  0  0  0  0  0  0  0  0  0  0
   60.1304   35.9146   46.2141 H   0  0  0  0  0  0  0  0  0  0  0  0
   58.9620   35.3659   44.0824 H   0  0  0  0  0  0  0  0  0  0  0  0
   60.4589   30.8410   45.8187 H   0  0  0  0  0  0  0  0  0  0  0  0
   60.3168   29.6937   47.2231 H   0  0  0  0  0  0  0  0  0  0  0  0
   60.2178   28.6667   44.3800 H   0  0  0  0  0  0  0  0  0  0  0  0
   61.8048   29.0425   45.2280 H   0  0  0  0  0  0  0  0  0  0  0  0
   61.4973   26.7338   45.4967 H   0  0  0  0  0  0  0  0  0  0  0  0
   60.9957   27.5169   47.0692 H   0  0  0  0  0  0  0  0  0  0  0  0
   59.5780   25.8000   45.4050 H   0  0  0  0  0  0  0  0  0  0  0  0
   58.7100   27.8578   44.3783 H   0  0  0  0  0  0  0  0  0  0  0  0
   57.5081   26.7524   45.2077 H   0  0  0  0  0  0  0  0  0  0  0  0
   56.7888   28.8214   45.9214 H   0  0  0  0  0  0  0  0  0  0  0  0
   57.9358   28.3137   47.2499 H   0  0  0  0  0  0  0  0  0  0  0  0
   59.1938   31.9714   47.7416 H   0  0  0  0  0  0  0  0  0  0  0  0
  1  2  1  0
  2  3  1  0
  3  4  2  0
  4  5  1  0
  5  6  2  0
  6  7  1  0
  7  8  2  0
  8  9  1  0
  9 10  1  0
 10 11  1  0
 11 12  1  0
 12 13  2  0
 13 14  1  0
 14 15  2  0
 15 16  1  0
 15 17  1  0
 17 18  1  0
 18 19  2  0
 18 20  1  0
 20 21  1  0
 21 22  1  0
 22 23  1  0
 23 24  1  0
 24 25  1  0
 25 26  1  0
 17 27  2  0
 10  2  2  0
 27 12  1  0
  9  4  1  0
 26 20  1  0
  1 28  1  0
  1 29  1  0
  1 30  1  0
  3 31  1  0
  5 32  1  0
  6 33  1  0
  7 34  1  0
  8 35  1  0
 11 36  1  0
 11 37  1  0
 13 38  1  0
 14 39  1  0
 21 40  1  0
 21 41  1  0
 22 42  1  0
 22 43  1  0
 23 44  1  0
 23 45  1  0
 24 46  1  0
 25 47  1  0
 25 48  1  0
 26 49  1  0
 26 50  1  0
 27 51  1  0
M  CHG  1   3   1
M  END
>  <UniqueID>  (47) 
45

>  <SMILES>  (47) 
Cc1[nH+]c2ccccn2c1Cc1ccc(F)c(C(=O)N2CCCNCC2)c1

>  <Energy>  (47) 
102.63296429709568

>  <Genealogy>  (47) 
Cc1[nH+]c2ccccn2c1Cc1ccc(F)c(C(=O)N2CCCNCC2)c1 (protonated)
Cc1[nH+]c2ccccn2c1Cc1ccc(F)c(C(=O)N2CCCNCC2)c1 (3D coordinates assigned)
Cc1[nH+]c2ccccn2c1Cc1ccc(F)c(C(=O)N2CCCNCC2)c1 (nonaromatic ring conformer: 102.63296429709568 kcal/mol)

>  <smiles>  (47) 
Cc1nc2ccccn2c1Cc1ccc(F)c(C(=O)N2CCCNCC2)c1

>  <score_type>  (47) 
oracle

>  <origin>  (47) 
adg

>  <m_score__min__energy>  (47) 
-5.7199999999999998

>  <m_primary>  (47) 
energy

$$$$
47:0
     RDKit          3D

 27 29  0  0  0  0  0  0  0  0999 V2000
   55.5100   28.9840   44.8660 O   0  0  0  0  0  0  0  0  0  0  0  0
   56.7060   29.2180   45.1880 C   0  0  0  0  0  0  0  0  0  0  0  0
   57.1180   30.4790   45.2670 O   0  0  0  0  0  0  0  0  0  0  0  0
   58.3600   30.8370   45.5980 C   0  0  0  0  0  0  0  0  0  0  0  0
   58.6830   32.2970   45.6470 C   0  0  0  0  0  0  0  0  0  0  0  0
   58.0760   33.2480   44.7940 C   0  0  0  0  0  0  0  0  0  0  0  0
   58.4150   34.6020   44.8810 C   0  0  0  0  0  0  0  0  0  0  0  0
   59.3590   35.0330   45.8120 C   0  0  0  0  0  0  0  0  0  0  0  0
   59.9690   34.1120   46.6610 C   0  0  0  0  0  0  0  0  0  0  0  0
   59.6360   32.7560   46.5810 C   0  0  0  0  0  0  0  0  0  0  0  0
   59.3060   29.8330   45.8850 C   0  0  0  0  0  0  0  0  0  0  0  0
   58.9210   28.4900   45.8170 C   0  0  0  0  0  0  0  0  0  0  0  0
   59.8380   27.4640   46.0960 C   0  0  0  0  0  0  0  0  0  0  0  0
   59.4380   26.1260   46.0240 C   0  0  0  0  0  0  0  0  0  0  0  0
   58.1260   25.8040   45.6720 C   0  0  0  0  0  0  0  0  0  0  0  0
   57.2040   26.8160   45.3910 C   0  0  0  0  0  0  0  0  0  0  0  0
   57.5950   28.1660   45.4610 C   0  0  0  0  0  0  0  0  0  0  0  0
   57.3302   32.9195   44.0552 H   0  0  0  0  0  0  0  0  0  0  0  0
   57.9344   35.3306   44.2115 H   0  0  0  0  0  0  0  0  0  0  0  0
   59.6220   36.0992   45.8762 H   0  0  0  0  0  0  0  0  0  0  0  0
   60.7139   34.4520   47.3956 H   0  0  0  0  0  0  0  0  0  0  0  0
   60.1239   32.0371   47.2557 H   0  0  0  0  0  0  0  0  0  0  0  0
   60.3365   30.1025   46.1597 H   0  0  0  0  0  0  0  0  0  0  0  0
   60.8733   27.7132   46.3718 H   0  0  0  0  0  0  0  0  0  0  0  0
   60.1589   25.3252   46.2453 H   0  0  0  0  0  0  0  0  0  0  0  0
   57.8168   24.7499   45.6156 H   0  0  0  0  0  0  0  0  0  0  0  0
   56.1713   26.5569   45.1147 H   0  0  0  0  0  0  0  0  0  0  0  0
  1  2  2  0
  2  3  1  0
  3  4  1  0
  4  5  1  0
  5  6  2  0
  6  7  1  0
  7  8  2  0
  8  9  1  0
  9 10  2  0
  4 11  2  0
 11 12  1  0
 12 13  2  0
 13 14  1  0
 14 15  2  0
 15 16  1  0
 16 17  2  0
 17  2  1  0
 10  5  1  0
 17 12  1  0
  6 18  1  0
  7 19  1  0
  8 20  1  0
  9 21  1  0
 10 22  1  0
 11 23  1  0
 13 24  1  0
 14 25  1  0
 15 26  1  0
 16 27  1  0
M  END
>  <UniqueID>  (48) 
46

>  <SMILES>  (48) 
O=c1oc(-c2ccccc2)cc2ccccc12

>  <Energy>  (48) 
40.03682165938729

>  <Genealogy>  (48) 
O=c1oc(-c2ccccc2)cc2ccccc12 (3D coordinates assigned)
O=c1oc(-c2ccccc2)cc2ccccc12 (optimized conformer: 40.03682165938729 kcal/mol)

>  <smiles>  (48) 
O=c1oc(-c2ccccc2)cc2ccccc12

>  <score_type>  (48) 
oracle

>  <origin>  (48) 
adg

>  <m_score__min__energy>  (48) 
-7.2300000000000004

>  <m_primary>  (48) 
energy

$$$$
48:0
     RDKit          3D

 27 28  0  0  0  0  0  0  0  0999 V2000
   60.2340   34.2900   46.6390 C   0  0  0  0  0  0  0  0  0  0  0  0
   60.4550   32.8470   46.7710 N   0  0  0  0  0  0  0  0  0  0  0  0
   61.6330   32.2740   47.1530 C   0  0  0  0  0  0  0  0  0  0  0  0
   63.1990   33.2280   47.7090 Br  0  0  0  0  0  0  0  0  0  0  0  0
   61.6120   30.9260   47.0730 N   0  0  0  0  0  0  0  0  0  0  0  0
   60.3870   30.6380   46.6150 C   0  0  0  0  0  0  0  0  0  0  0  0
   59.8750   29.3870   46.3270 C   0  0  0  0  0  0  0  0  0  0  0  0
   58.5700   29.3250   45.8290 C   0  0  0  0  0  0  0  0  0  0  0  0
   57.9990   28.0370   45.5150 C   0  0  0  0  0  0  0  0  0  0  0  0
   57.5420   27.0040   45.2620 N   0  0  0  0  0  0  0  0  0  0  0  0
   57.8250   30.5180   45.6460 C   0  0  0  0  0  0  0  0  0  0  0  0
   56.6440   30.4290   45.2070 O   0  0  0  0  0  0  0  0  0  0  0  0
   58.3710   31.7560   45.9460 N   0  0  0  0  0  0  0  0  0  0  0  0
   57.5200   32.9590   45.8250 C   0  0  0  0  0  0  0  0  0  0  0  0
   57.7700   33.6830   44.4940 C   0  0  0  0  0  0  0  0  0  0  0  0
   57.9390   32.7290   43.3910 C   0  0  0  0  0  0  0  0  0  0  0  0
   58.0730   31.9770   42.5230 N   0  0  0  0  0  0  0  0  0  0  0  0
   59.6670   31.7870   46.4250 C   0  0  0  0  0  0  0  0  0  0  0  0
   60.1646   34.7433   47.6389 H   0  0  0  0  0  0  0  0  0  0  0  0
   61.0736   34.7408   46.0895 H   0  0  0  0  0  0  0  0  0  0  0  0
   59.2980   34.4688   46.0895 H   0  0  0  0  0  0  0  0  0  0  0  0
   62.3870   30.2620   47.2960 H   0  0  0  0  0  0  0  0  0  0  0  0
   60.4709   28.4757   46.4835 H   0  0  0  0  0  0  0  0  0  0  0  0
   56.4633   32.6580   45.8770 H   0  0  0  0  0  0  0  0  0  0  0  0
   57.7679   33.6459   46.6477 H   0  0  0  0  0  0  0  0  0  0  0  0
   56.9123   34.3359   44.2747 H   0  0  0  0  0  0  0  0  0  0  0  0
   58.6940   34.2724   44.5877 H   0  0  0  0  0  0  0  0  0  0  0  0
  1  2  1  0
  2  3  1  0
  3  4  1  0
  3  5  2  0
  5  6  1  0
  6  7  1  0
  7  8  2  0
  8  9  1  0
  9 10  3  0
  8 11  1  0
 11 12  2  0
 11 13  1  0
 13 14  1  0
 14 15  1  0
 15 16  1  0
 16 17  3  0
 13 18  1  0
 18  2  1  0
 18  6  2  0
  1 19  1  0
  1 20  1  0
  1 21  1  0
  5 22  1  0
  7 23  1  0
 14 24  1  0
 14 25  1  0
 15 26  1  0
 15 27  1  0
M  CHG  1   5   1
M  END
>  <UniqueID>  (49) 
47

>  <SMILES>  (49) 
Cn1c(Br)[nH+]c2cc(C#N)c(=O)n(CCC#N)c21

>  <Energy>  (49) 
74.26572238011997

>  <Genealogy>  (49) 
Cn1c(Br)[nH+]c2cc(C#N)c(=O)n(CCC#N)c21 (protonated)
Cn1c(Br)[nH+]c2cc(C#N)c(=O)n(CCC#N)c21 (3D coordinates assigned)
Cn1c(Br)[nH+]c2cc(C#N)c(=O)n(CCC#N)c21 (optimized conformer: 74.26572238011997 kcal/mol)

>  <smiles>  (49) 
Cn1c(Br)nc2cc(C#N)c(=O)n(CCC#N)c21

>  <score_type>  (49) 
oracle

>  <origin>  (49) 
adg

>  <m_score__min__energy>  (49) 
-4.4900000000000002

>  <m_primary>  (49) 
energy

$$$$
