0:0
     RDKit          3D

 43 46  0  0  0  0  0  0  0  0999 V2000
   56.5960   24.9810   45.1450 C   0  0  0  0  0  0  0  0  0  0  0  0
   56.3100   26.2300   45.7650 O   0  0  0  0  0  0  0  0  0  0  0  0
   57.2820   27.1680   46.1530 C   0  0  0  0  0  0  0  0  0  0  0  0
   58.4820   26.7830   46.7780 C   0  0  0  0  0  0  0  0  0  0  0  0
   59.4250   27.7430   47.1500 C   0  0  0  0  0  0  0  0  0  0  0  0
   59.1950   29.1040   46.8990 C   0  0  0  0  0  0  0  0  0  0  0  0
   60.2090   30.1040   47.3050 C   0  0  0  0  0  0  0  0  0  0  0  0
   61.2100   29.8790   48.1970 N   0  0  0  0  0  0  0  0  0  0  0  0
   61.8650   31.0470   48.2350 C   0  0  0  0  0  0  0  0  0  0  0  0
   62.9820   31.3900   48.9930 C   0  0  0  0  0  0  0  0  0  0  0  0
   63.4820   32.7020   48.8610 C   0  0  0  0  0  0  0  0  0  0  0  0
   64.6280   33.1100   49.6290 C   0  0  0  0  0  0  0  0  0  0  0  0
   65.5510   33.4380   50.2460 N   0  0  0  0  0  0  0  0  0  0  0  0
   62.8550   33.6210   47.9830 C   0  0  0  0  0  0  0  0  0  0  0  0
   61.7340   33.2330   47.2170 C   0  0  0  0  0  0  0  0  0  0  0  0
   61.0310   34.2010   46.3140 C   0  0  0  0  0  0  0  0  0  0  0  0
   61.2650   31.9290   47.3890 C   0  0  0  0  0  0  0  0  0  0  0  0
   60.2440   31.3370   46.8180 O   0  0  0  0  0  0  0  0  0  0  0  0
   58.0030   29.4870   46.2610 C   0  0  0  0  0  0  0  0  0  0  0  0
   57.0350   28.5270   45.9130 C   0  0  0  0  0  0  0  0  0  0  0  0
   55.8170   28.9100   45.2580 N   0  0  0  0  0  0  0  0  0  0  0  0
   55.7030   29.8040   44.1420 C   0  0  0  0  0  0  0  0  0  0  0  0
   54.7320   29.6660   43.3520 O   0  0  0  0  0  0  0  0  0  0  0  0
   56.6520   30.9140   43.9320 C   0  0  0  0  0  0  0  0  0  0  0  0
   57.3300   31.1840   42.7480 C   0  0  0  0  0  0  0  0  0  0  0  0
   58.1350   32.3260   42.8180 C   0  0  0  0  0  0  0  0  0  0  0  0
   58.0880   32.9700   44.0480 C   0  0  0  0  0  0  0  0  0  0  0  0
   57.0410   32.1150   45.0470 S   0  0  0  0  0  0  0  0  0  0  0  0
   56.7705   24.2190   45.9188 H   0  0  0  0  0  0  0  0  0  0  0  0
   55.7438   24.6790   44.5185 H   0  0  0  0  0  0  0  0  0  0  0  0
   57.4947   25.0799   44.5185 H   0  0  0  0  0  0  0  0  0  0  0  0
   58.6786   25.7188   46.9749 H   0  0  0  0  0  0  0  0  0  0  0  0
   60.3564   27.4295   47.6442 H   0  0  0  0  0  0  0  0  0  0  0  0
   61.4430   29.0090   48.7260 H   0  0  0  0  0  0  0  0  0  0  0  0
   63.4567   30.6642   49.6697 H   0  0  0  0  0  0  0  0  0  0  0  0
   63.2452   34.6459   47.8975 H   0  0  0  0  0  0  0  0  0  0  0  0
   60.4919   34.9433   46.9209 H   0  0  0  0  0  0  0  0  0  0  0  0
   61.7693   34.7128   45.6792 H   0  0  0  0  0  0  0  0  0  0  0  0
   60.3159   33.6573   45.6792 H   0  0  0  0  0  0  0  0  0  0  0  0
   57.8249   30.5479   46.0313 H   0  0  0  0  0  0  0  0  0  0  0  0
   57.2420   30.5611   41.8457 H   0  0  0  0  0  0  0  0  0  0  0  0
   58.7485   32.6812   41.9769 H   0  0  0  0  0  0  0  0  0  0  0  0
   58.6402   33.8814   44.3208 H   0  0  0  0  0  0  0  0  0  0  0  0
  1  2  1  0
  2  3  1  0
  3  4  2  0
  4  5  1  0
  5  6  2  0
  6  7  1  0
  7  8  2  0
  8  9  1  0
  9 10  2  0
 10 11  1  0
 11 12  1  0
 12 13  3  0
 11 14  2  0
 14 15  1  0
 15 16  1  0
 15 17  2  0
 17 18  1  0
  6 19  1  0
 19 20  2  0
 20 21  1  0
 21 22  1  0
 22 23  2  0
 22 24  1  0
 24 25  2  0
 25 26  1  0
 26 27  2  0
 27 28  1  0
 20  3  1  0
 28 24  1  0
 18  7  1  0
 17  9  1  0
  1 29  1  0
  1 30  1  0
  1 31  1  0
  4 32  1  0
  5 33  1  0
  8 34  1  0
 10 35  1  0
 14 36  1  0
 16 37  1  0
 16 38  1  0
 16 39  1  0
 19 40  1  0
 25 41  1  0
 26 42  1  0
 27 43  1  0
M  CHG  2   8   1  21  -1
M  END
>  <UniqueID>  (1) 
1

>  <SMILES>  (1) 
COc1ccc(-c2[nH+]c3cc(C#N)cc(C)c3o2)cc1[N-]C(=O)c1cccs1

>  <Energy>  (1) 
116.12079418977669

>  <Genealogy>  (1) 
COc1ccc(-c2[nH+]c3cc(C#N)cc(C)c3o2)cc1[N-]C(=O)c1cccs1 (protonated)
COc1ccc(-c2[nH+]c3cc(C#N)cc(C)c3o2)cc1[N-]C(=O)c1cccs1 (3D coordinates assigned)
COc1ccc(-c2[nH+]c3cc(C#N)cc(C)c3o2)cc1[N-]C(=O)c1cccs1 (optimized conformer: 116.12079418977669 kcal/mol)

>  <smiles>  (1) 
COc1ccc(-c2nc3cc(C#N)cc(C)c3o2)cc1NC(=O)c1cccs1

>  <score_type>  (1) 
oracle

>  <origin>  (1) 
adg

>  <m_score__min__energy>  (1) 
-8.9000000000000004

>  <m_primary>  (1) 
energy

$$$$
1:0
     RDKit          3D

 52 55  0  0  0  0  0  0  0  0999 V2000
   56.6370   30.1980   43.8370 C   0  0  0  0  0  0  0  0  0  0  0  0
   56.8240   30.4800   45.2210 O   0  0  0  0  0  0  0  0  0  0  0  0
   57.9780   31.0670   45.7640 C   0  0  0  0  0  0  0  0  0  0  0  0
   58.9020   30.3300   46.5290 C   0  0  0  0  0  0  0  0  0  0  0  0
   60.0340   30.9560   47.0610 C   0  0  0  0  0  0  0  0  0  0  0  0
   60.2550   32.3180   46.8440 C   0  0  0  0  0  0  0  0  0  0  0  0
   59.3500   33.0530   46.0670 C   0  0  0  0  0  0  0  0  0  0  0  0
   58.2040   32.4340   45.5300 C   0  0  0  0  0  0  0  0  0  0  0  0
   57.2680   33.1410   44.7600 O   0  0  0  0  0  0  0  0  0  0  0  0
   57.0220   34.5390   44.8710 C   0  0  0  0  0  0  0  0  0  0  0  0
   61.5260   32.9450   47.3710 C   0  0  0  0  0  0  0  0  0  0  0  0
   61.9820   32.3970   48.6940 N   0  0  1  0  0  0  0  0  0  0  0  0
   61.9700   33.4290   49.7500 C   0  0  0  0  0  0  0  0  0  0  0  0
   60.5430   33.8420   50.1110 C   0  0  0  0  0  0  0  0  0  0  0  0
   59.7170   32.6420   50.4630 C   0  0  0  0  0  0  0  0  0  0  0  0
   58.5550   32.8220   51.2250 C   0  0  0  0  0  0  0  0  0  0  0  0
   57.7730   31.7210   51.6160 C   0  0  0  0  0  0  0  0  0  0  0  0
   56.6030   31.8690   52.3770 O   0  0  0  0  0  0  0  0  0  0  0  0
   55.3520   31.2650   52.0610 C   0  0  0  0  0  0  0  0  0  0  0  0
   58.1700   30.4290   51.2510 C   0  0  0  0  0  0  0  0  0  0  0  0
   57.3830   29.3470   51.6770 O   0  0  0  0  0  0  0  0  0  0  0  0
   57.3060   28.8820   53.0210 C   0  0  0  0  0  0  0  0  0  0  0  0
   59.3300   30.2500   50.4750 C   0  0  0  0  0  0  0  0  0  0  0  0
   60.0840   31.3510   50.0260 C   0  0  0  0  0  0  0  0  0  0  0  0
   61.3270   31.1250   49.1510 C   0  0  1  0  0  0  0  0  0  0  0  0
   61.0060   30.2270   47.9350 C   0  0  0  0  0  0  0  0  0  0  0  0
   56.0321   29.2858   43.7271 H   0  0  0  0  0  0  0  0  0  0  0  0
   56.1187   31.0416   43.3577 H   0  0  0  0  0  0  0  0  0  0  0  0
   57.6158   30.0489   43.3577 H   0  0  0  0  0  0  0  0  0  0  0  0
   58.7331   29.2580   46.7089 H   0  0  0  0  0  0  0  0  0  0  0  0
   59.5354   34.1201   45.8750 H   0  0  0  0  0  0  0  0  0  0  0  0
   56.9727   34.8194   45.9335 H   0  0  0  0  0  0  0  0  0  0  0  0
   57.8362   35.0945   44.3826 H   0  0  0  0  0  0  0  0  0  0  0  0
   56.0671   34.7832   44.3826 H   0  0  0  0  0  0  0  0  0  0  0  0
   62.3250   32.7761   46.6341 H   0  0  0  0  0  0  0  0  0  0  0  0
   61.3096   34.0119   47.5290 H   0  0  0  0  0  0  0  0  0  0  0  0
   62.9960   32.1590   48.5640 H   0  0  0  0  0  0  0  0  0  0  0  0
   62.4644   33.0285   50.6473 H   0  0  0  0  0  0  0  0  0  0  0  0
   62.5019   34.3153   49.3736 H   0  0  0  0  0  0  0  0  0  0  0  0
   60.5719   34.5257   50.9723 H   0  0  0  0  0  0  0  0  0  0  0  0
   60.0890   34.3413   49.2423 H   0  0  0  0  0  0  0  0  0  0  0  0
   58.2510   33.8369   51.5208 H   0  0  0  0  0  0  0  0  0  0  0  0
   54.8229   31.0095   52.9909 H   0  0  0  0  0  0  0  0  0  0  0  0
   54.7431   31.9684   51.4740 H   0  0  0  0  0  0  0  0  0  0  0  0
   55.5241   30.3507   51.4740 H   0  0  0  0  0  0  0  0  0  0  0  0
   57.4461   29.7278   53.7102 H   0  0  0  0  0  0  0  0  0  0  0  0
   56.3202   28.4263   53.1954 H   0  0  0  0  0  0  0  0  0  0  0  0
   58.0923   28.1328   53.1954 H   0  0  0  0  0  0  0  0  0  0  0  0
   59.6536   29.2315   50.2144 H   0  0  0  0  0  0  0  0  0  0  0  0
   62.0501   30.6107   49.8010 H   0  0  0  0  0  0  0  0  0  0  0  0
   61.9280   30.0173   47.3729 H   0  0  0  0  0  0  0  0  0  0  0  0
   60.5746   29.2722   48.2702 H   0  0  0  0  0  0  0  0  0  0  0  0
  1  2  1  0
  2  3  1  0
  3  4  2  0
  4  5  1  0
  5  6  2  0
  6  7  1  0
  7  8  2  0
  8  9  1  0
  9 10  1  0
  6 11  1  0
 11 12  1  0
 12 13  1  0
 13 14  1  0
 14 15  1  0
 15 16  2  0
 16 17  1  0
 17 18  1  0
 18 19  1  0
 17 20  2  0
 20 21  1  0
 21 22  1  0
 20 23  1  0
 23 24  2  0
 24 25  1  0
 25 26  1  0
  8  3  1  0
 25 12  1  0
 26  5  1  0
 24 15  1  0
  1 27  1  0
  1 28  1  0
  1 29  1  0
  4 30  1  0
  7 31  1  0
 10 32  1  0
 10 33  1  0
 10 34  1  0
 11 35  1  0
 11 36  1  0
 12 37  1  6
 13 38  1  0
 13 39  1  0
 14 40  1  0
 14 41  1  0
 16 42  1  0
 19 43  1  0
 19 44  1  0
 19 45  1  0
 22 46  1  0
 22 47  1  0
 22 48  1  0
 23 49  1  0
 25 50  1  1
 26 51  1  0
 26 52  1  0
M  CHG  1  12   1
M  END
>  <UniqueID>  (2) 
2

>  <SMILES>  (2) 
COc1cc2c(cc1OC)C[N@H+]1CCc3cc(OC)c(OC)cc3[C@H]1C2

>  <Energy>  (2) 
71.1234597041004

>  <Genealogy>  (2) 
COc1cc2c(cc1OC)C[NH+]1CCc3cc(OC)c(OC)cc3C1C2 (protonated)
COc1cc2c(cc1OC)C[N@H+]1CCc3cc(OC)c(OC)cc3[C@H]1C2 (chirality)
COc1cc2c(cc1OC)C[N@H+]1CCc3cc(OC)c(OC)cc3[C@H]1C2 (3D coordinates assigned)
COc1cc2c(cc1OC)C[N@H+]1CCc3cc(OC)c(OC)cc3[C@H]1C2 (nonaromatic ring conformer: 71.1234597041004 kcal/mol)

>  <smiles>  (2) 
COc1cc2c(cc1OC)CN1CCc3cc(OC)c(OC)cc3C1C2

>  <score_type>  (2) 
oracle

>  <origin>  (2) 
adg

>  <m_score__min__energy>  (2) 
-5.3399999999999999

>  <m_primary>  (2) 
energy

$$$$
2:0
     RDKit          3D

 50 52  0  0  0  0  0  0  0  0999 V2000
   60.7270   28.5860   44.8610 C   0  0  0  0  0  0  0  0  0  0  0  0
   59.3150   28.1660   45.1500 C   0  0  0  0  0  0  0  0  0  0  0  0
   58.3050   28.9760   44.7360 N   0  0  0  0  0  0  0  0  0  0  0  0
   57.0070   28.6620   44.9640 C   0  0  0  0  0  0  0  0  0  0  0  0
   55.7060   29.7800   44.4520 S   0  0  0  0  0  0  0  0  0  0  0  0
   56.7950   30.8260   43.4150 C   0  0  0  0  0  0  0  0  0  0  0  0
   57.5640   31.8150   44.2510 C   0  0  0  0  0  0  0  0  0  0  0  0
   58.1610   32.9360   43.6550 C   0  0  0  0  0  0  0  0  0  0  0  0
   58.9490   33.8050   44.4140 C   0  0  0  0  0  0  0  0  0  0  0  0
   59.1490   33.5710   45.7850 C   0  0  0  0  0  0  0  0  0  0  0  0
   60.0030   34.4800   46.5850 C   0  0  0  0  0  0  0  0  0  0  0  0
   59.6820   35.6890   46.7340 O   0  0  0  0  0  0  0  0  0  0  0  0
   61.2060   34.0030   47.1940 N   0  0  0  0  0  0  0  0  0  0  0  0
   61.1790   33.5300   48.5810 C   0  0  0  0  0  0  0  0  0  0  0  0
   62.0340   32.2650   48.7360 C   0  0  0  0  0  0  0  0  0  0  0  0
   63.3570   32.3030   47.9370 C   0  0  0  0  0  0  0  0  0  0  0  0
   63.6570   33.6750   47.3230 C   0  0  0  0  0  0  0  0  0  0  0  0
   62.4740   34.1520   46.4740 C   0  0  0  0  0  0  0  0  0  0  0  0
   58.5350   32.4550   46.3820 C   0  0  0  0  0  0  0  0  0  0  0  0
   57.7520   31.5840   45.6210 C   0  0  0  0  0  0  0  0  0  0  0  0
   56.6910   27.5210   45.6230 N   0  0  0  0  0  0  0  0  0  0  0  0
   57.6500   26.6700   46.0730 C   0  0  0  0  0  0  0  0  0  0  0  0
   57.2090   25.4540   46.8360 C   0  0  0  0  0  0  0  0  0  0  0  0
   59.0130   26.9580   45.8240 C   0  0  0  0  0  0  0  0  0  0  0  0
   60.1200   26.0570   46.3230 C   0  0  0  0  0  0  0  0  0  0  0  0
   61.2632   28.7455   45.8081 H   0  0  0  0  0  0  0  0  0  0  0  0
   61.2323   27.7993   44.2816 H   0  0  0  0  0  0  0  0  0  0  0  0
   60.7201   29.5210   44.2816 H   0  0  0  0  0  0  0  0  0  0  0  0
   57.5065   30.1808   42.8788 H   0  0  0  0  0  0  0  0  0  0  0  0
   56.1662   31.3857   42.7070 H   0  0  0  0  0  0  0  0  0  0  0  0
   58.0078   33.1320   42.5835 H   0  0  0  0  0  0  0  0  0  0  0  0
   59.4160   34.6782   43.9350 H   0  0  0  0  0  0  0  0  0  0  0  0
   61.5751   34.3172   49.2394 H   0  0  0  0  0  0  0  0  0  0  0  0
   60.1405   33.2924   48.8549 H   0  0  0  0  0  0  0  0  0  0  0  0
   62.2761   32.1387   49.8016 H   0  0  0  0  0  0  0  0  0  0  0  0
   61.4426   31.4282   48.3360 H   0  0  0  0  0  0  0  0  0  0  0  0
   64.1815   32.0362   48.6145 H   0  0  0  0  0  0  0  0  0  0  0  0
   63.2553   31.5899   47.1056 H   0  0  0  0  0  0  0  0  0  0  0  0
   63.8400   34.4005   48.1293 H   0  0  0  0  0  0  0  0  0  0  0  0
   64.5458   33.5910   46.6803 H   0  0  0  0  0  0  0  0  0  0  0  0
   62.6195   35.2125   46.2207 H   0  0  0  0  0  0  0  0  0  0  0  0
   62.4301   33.5363   45.5635 H   0  0  0  0  0  0  0  0  0  0  0  0
   58.6727   32.2667   47.4570 H   0  0  0  0  0  0  0  0  0  0  0  0
   57.2806   30.7126   46.0989 H   0  0  0  0  0  0  0  0  0  0  0  0
   57.2810   25.6525   47.9156 H   0  0  0  0  0  0  0  0  0  0  0  0
   56.1672   25.2156   46.5757 H   0  0  0  0  0  0  0  0  0  0  0  0
   57.8558   24.6032   46.5757 H   0  0  0  0  0  0  0  0  0  0  0  0
   60.1230   26.0546   47.4230 H   0  0  0  0  0  0  0  0  0  0  0  0
   59.9542   25.0339   45.9545 H   0  0  0  0  0  0  0  0  0  0  0  0
   61.0881   26.4271   45.9545 H   0  0  0  0  0  0  0  0  0  0  0  0
  1  2  1  0
  2  3  2  0
  3  4  1  0
  4  5  1  0
  5  6  1  0
  6  7  1  0
  7  8  2  0
  8  9  1  0
  9 10  2  0
 10 11  1  0
 11 12  2  0
 11 13  1  0
 13 14  1  0
 14 15  1  0
 15 16  1  0
 16 17  1  0
 17 18  1  0
 10 19  1  0
 19 20  2  0
  4 21  2  0
 21 22  1  0
 22 23  1  0
 22 24  2  0
 24 25  1  0
 24  2  1  0
 20  7  1  0
 18 13  1  0
  1 26  1  0
  1 27  1  0
  1 28  1  0
  6 29  1  0
  6 30  1  0
  8 31  1  0
  9 32  1  0
 14 33  1  0
 14 34  1  0
 15 35  1  0
 15 36  1  0
 16 37  1  0
 16 38  1  0
 17 39  1  0
 17 40  1  0
 18 41  1  0
 18 42  1  0
 19 43  1  0
 20 44  1  0
 23 45  1  0
 23 46  1  0
 23 47  1  0
 25 48  1  0
 25 49  1  0
 25 50  1  0
M  END
>  <UniqueID>  (3) 
3

>  <SMILES>  (3) 
Cc1nc(SCc2ccc(C(=O)N3CCCCC3)cc2)nc(C)c1C

>  <Energy>  (3) 
52.932632075918136

>  <Genealogy>  (3) 
Cc1nc(SCc2ccc(C(=O)N3CCCCC3)cc2)nc(C)c1C (3D coordinates assigned)
Cc1nc(SCc2ccc(C(=O)N3CCCCC3)cc2)nc(C)c1C (nonaromatic ring conformer: 52.932632075918136 kcal/mol)

>  <smiles>  (3) 
Cc1nc(SCc2ccc(C(=O)N3CCCCC3)cc2)nc(C)c1C

>  <score_type>  (3) 
oracle

>  <origin>  (3) 
adg

>  <m_score__min__energy>  (3) 
-9.0999999999999996

>  <m_primary>  (3) 
energy

$$$$
3:0
     RDKit          3D

 51 55  0  0  0  0  0  0  0  0999 V2000
   59.8289   35.8818   46.7332 H   0  0  0  0  0  0  0  0  0  0  0  0
   59.9870   34.7950   46.6710 C   0  0  0  0  0  0  0  0  0  0  0  0
   59.1490   34.0770   45.9110 C   0  0  0  0  0  0  0  0  0  0  0  0
   58.9050   32.6610   46.0560 C   0  0  0  0  0  0  0  0  0  0  0  0
   59.5650   31.8090   46.8800 N   0  0  0  0  0  0  0  0  0  0  0  0
   59.2150   30.4940   46.9100 C   0  0  0  0  0  0  0  0  0  0  0  0
   59.8930   29.6100   47.7570 C   0  0  0  0  0  0  0  0  0  0  0  0
   60.7081   29.9830   48.3946 H   0  0  0  0  0  0  0  0  0  0  0  0
   59.5430   28.2550   47.8000 C   0  0  0  0  0  0  0  0  0  0  0  0
   60.2560   27.4120   48.6670 O   0  0  0  0  0  0  0  0  0  0  0  0
   60.7550   27.8060   49.9400 C   0  0  0  0  0  0  0  0  0  0  0  0
   60.1554   27.3326   50.7314 H   0  0  0  0  0  0  0  0  0  0  0  0
   61.8043   27.4901   50.0363 H   0  0  0  0  0  0  0  0  0  0  0  0
   60.6911   28.8999   50.0363 H   0  0  0  0  0  0  0  0  0  0  0  0
   58.4980   27.7840   46.9800 C   0  0  0  0  0  0  0  0  0  0  0  0
   58.2180   26.7206   47.0093 H   0  0  0  0  0  0  0  0  0  0  0  0
   57.8150   28.6580   46.1300 C   0  0  0  0  0  0  0  0  0  0  0  0
   57.0018   28.2801   45.4930 H   0  0  0  0  0  0  0  0  0  0  0  0
   58.1640   30.0170   46.0870 C   0  0  0  0  0  0  0  0  0  0  0  0
   57.5050   30.9400   45.2490 C   0  0  0  0  0  0  0  0  0  0  0  0
   56.5590   30.5760   44.4960 O   0  0  0  0  0  0  0  0  0  0  0  0
   57.9060   32.2400   45.2650 N   0  0  0  0  0  0  0  0  0  0  0  0
   57.3460   33.3430   44.4910 C   0  0  0  0  0  0  0  0  0  0  0  0
   56.2882   33.4967   44.7509 H   0  0  0  0  0  0  0  0  0  0  0  0
   57.3851   33.1437   43.4099 H   0  0  0  0  0  0  0  0  0  0  0  0
   58.1840   34.5870   44.8760 C   0  0  0  0  0  0  0  0  0  0  0  0
   57.5418   35.3750   45.2963 H   0  0  0  0  0  0  0  0  0  0  0  0
   58.6933   35.0358   44.0105 H   0  0  0  0  0  0  0  0  0  0  0  0
   61.1110   34.2100   47.4300 C   0  0  0  0  0  0  0  0  0  0  0  0
   62.2630   33.7360   46.7850 C   0  0  0  0  0  0  0  0  0  0  0  0
   62.3493   33.8148   45.6912 H   0  0  0  0  0  0  0  0  0  0  0  0
   63.3020   33.1640   47.5250 C   0  0  0  0  0  0  0  0  0  0  0  0
   64.2059   32.8090   47.0083 H   0  0  0  0  0  0  0  0  0  0  0  0
   63.2050   33.0370   48.9240 C   0  0  0  0  0  0  0  0  0  0  0  0
   64.2810   32.4480   49.6910 N   0  0  0  0  0  0  0  0  0  0  0  0
   65.6330   32.9840   49.7400 C   0  0  0  0  0  0  0  0  0  0  0  0
   66.0309   33.1120   48.7225 H   0  0  0  0  0  0  0  0  0  0  0  0
   65.6587   33.9706   50.2259 H   0  0  0  0  0  0  0  0  0  0  0  0
   66.4600   31.9620   50.5070 C   0  0  0  0  0  0  0  0  0  0  0  0
   67.0565   31.3524   49.8123 H   0  0  0  0  0  0  0  0  0  0  0  0
   67.1647   32.4473   51.1983 H   0  0  0  0  0  0  0  0  0  0  0  0
   65.4550   31.0900   51.2500 C   0  0  0  0  0  0  0  0  0  0  0  0
   65.7794   30.0390   51.2413 H   0  0  0  0  0  0  0  0  0  0  0  0
   65.3590   31.3902   52.3039 H   0  0  0  0  0  0  0  0  0  0  0  0
   64.1400   31.2450   50.5010 C   0  0  0  0  0  0  0  0  0  0  0  0
   63.9601   30.3703   49.8588 H   0  0  0  0  0  0  0  0  0  0  0  0
   63.2880   31.3214   51.1925 H   0  0  0  0  0  0  0  0  0  0  0  0
   62.0310   33.4880   49.5590 C   0  0  0  0  0  0  0  0  0  0  0  0
   61.9305   33.3909   50.6501 H   0  0  0  0  0  0  0  0  0  0  0  0
   60.9920   34.0580   48.8160 C   0  0  0  0  0  0  0  0  0  0  0  0
   60.0747   34.3892   49.3249 H   0  0  0  0  0  0  0  0  0  0  0  0
  1  2  1  0
  2  3  2  0
  3  4  1  0
  4  5  2  0
  5  6  1  0
  6  7  2  0
  7  8  1  0
  7  9  1  0
  9 10  1  0
 10 11  1  0
 11 12  1  0
 11 13  1  0
 11 14  1  0
  9 15  2  0
 15 16  1  0
 15 17  1  0
 17 18  1  0
 17 19  2  0
 19 20  1  0
 20 21  2  0
 20 22  1  0
 22 23  1  0
 23 24  1  0
 23 25  1  0
 23 26  1  0
 26 27  1  0
 26 28  1  0
  2 29  1  0
 29 30  2  0
 30 31  1  0
 30 32  1  0
 32 33  1  0
 32 34  2  0
 34 35  1  0
 35 36  1  0
 36 37  1  0
 36 38  1  0
 36 39  1  0
 39 40  1  0
 39 41  1  0
 39 42  1  0
 42 43  1  0
 42 44  1  0
 42 45  1  0
 45 46  1  0
 45 47  1  0
 34 48  1  0
 48 49  1  0
 48 50  2  0
 50 51  1  0
 26  3  1  0
 50 29  1  0
 22  4  1  0
 45 35  1  0
 19  6  1  0
M  END
>  <UniqueID>  (4) 
4

>  <SMILES>  (4) 
COc1ccc2c(=O)n3c(nc2c1)/C(=C/c1ccc(N2CCCC2)cc1)CC3

>  <Energy>  (4) 
80.25796052941604

>  <Genealogy>  (4) 
COc1ccc2c(=O)n3c(nc2c1)/C(=C/c1ccc(N2CCCC2)cc1)CC3 (cis-trans isomerization)
COc1ccc2c(=O)n3c(nc2c1)/C(=C/c1ccc(N2CCCC2)cc1)CC3 (3D coordinates assigned)
COc1ccc2c(=O)n3c(nc2c1)/C(=C/c1ccc(N2CCCC2)cc1)CC3 (nonaromatic ring conformer: 80.25796052941604 kcal/mol)

>  <smiles>  (4) 
COc1ccc2c(=O)n3c(nc2c1)C(=Cc1ccc(N2CCCC2)cc1)CC3

>  <score_type>  (4) 
oracle

>  <origin>  (4) 
adg

>  <m_score__min__energy>  (4) 
-8.8499999999999996

>  <m_primary>  (4) 
energy

$$$$
4:0
     RDKit          3D

 52 54  0  0  0  0  0  0  0  0999 V2000
   56.6100   30.9960   51.9700 C   0  0  0  0  0  0  0  0  0  0  0  0
   57.6230   32.0440   51.6320 C   0  0  0  0  0  0  0  0  0  0  0  0
   57.7530   33.2060   52.2990 N   0  0  0  0  0  0  0  0  0  0  0  0
   58.7750   33.8480   51.8070 O   0  0  0  0  0  0  0  0  0  0  0  0
   59.3320   33.1610   50.8360 C   0  0  0  0  0  0  0  0  0  0  0  0
   60.5610   33.6080   50.1070 C   0  0  0  0  0  0  0  0  0  0  0  0
   58.6250   31.9730   50.6750 C   0  0  0  0  0  0  0  0  0  0  0  0
   58.9210   30.8290   49.7370 C   0  0  0  0  0  0  0  0  0  0  0  0
   59.1930   31.3070   48.3630 N   0  0  0  0  0  0  0  0  0  0  0  0
   59.4220   30.1670   47.4440 C   0  0  0  0  0  0  0  0  0  0  0  0
   58.1550   29.6130   46.7500 C   0  0  0  0  0  0  0  0  0  0  0  0
   57.4930   30.5710   45.8360 N   0  0  0  0  0  0  0  0  0  0  0  0
   56.8400   29.7260   44.4510 S   0  0  0  0  0  0  0  0  0  0  0  0
   57.7800   28.2600   44.0670 C   0  0  0  0  0  0  0  0  0  0  0  0
   56.8760   30.6400   43.2640 O   0  0  0  0  0  0  0  0  0  0  0  0
   55.4150   29.3390   44.7180 O   0  0  0  0  0  0  0  0  0  0  0  0
   58.3760   31.6800   45.4220 C   0  0  0  0  0  0  0  0  0  0  0  0
   58.3320   32.8580   46.4680 C   0  0  0  0  0  0  0  0  0  0  0  0
   57.0670   33.7270   46.1880 C   0  0  0  0  0  0  0  0  0  0  0  0
   57.1790   34.5400   44.8760 C   0  0  0  0  0  0  0  0  0  0  0  0
   58.5080   34.6560   44.3930 O   0  0  0  0  0  0  0  0  0  0  0  0
   59.3820   34.9900   45.4480 C   0  0  0  0  0  0  0  0  0  0  0  0
   59.5980   33.7780   46.3690 C   0  0  0  0  0  0  0  0  0  0  0  0
   58.1830   32.3090   47.9300 C   0  0  0  0  0  0  0  0  0  0  0  0
   56.5246   30.9076   53.0631 H   0  0  0  0  0  0  0  0  0  0  0  0
   55.6346   31.2792   51.5477 H   0  0  0  0  0  0  0  0  0  0  0  0
   56.9261   30.0307   51.5477 H   0  0  0  0  0  0  0  0  0  0  0  0
   57.1610   33.5420   53.0930 H   0  0  0  0  0  0  0  0  0  0  0  0
   61.3365   33.8901   50.8343 H   0  0  0  0  0  0  0  0  0  0  0  0
   60.9317   32.7871   49.4755 H   0  0  0  0  0  0  0  0  0  0  0  0
   60.3177   34.4752   49.4755 H   0  0  0  0  0  0  0  0  0  0  0  0
   59.8021   30.2836   50.1061 H   0  0  0  0  0  0  0  0  0  0  0  0
   58.0382   30.1736   49.7046 H   0  0  0  0  0  0  0  0  0  0  0  0
   60.1217   30.4963   46.6617 H   0  0  0  0  0  0  0  0  0  0  0  0
   59.8110   29.3477   48.0664 H   0  0  0  0  0  0  0  0  0  0  0  0
   58.4413   28.7240   46.1688 H   0  0  0  0  0  0  0  0  0  0  0  0
   57.4319   29.3875   47.5477 H   0  0  0  0  0  0  0  0  0  0  0  0
   58.0938   27.7706   45.0008 H   0  0  0  0  0  0  0  0  0  0  0  0
   57.1569   27.5678   43.4817 H   0  0  0  0  0  0  0  0  0  0  0  0
   58.6691   28.5374   43.4817 H   0  0  0  0  0  0  0  0  0  0  0  0
   59.4080   31.3077   45.3428 H   0  0  0  0  0  0  0  0  0  0  0  0
   58.0280   32.0609   44.4505 H   0  0  0  0  0  0  0  0  0  0  0  0
   56.1928   33.0632   46.1170 H   0  0  0  0  0  0  0  0  0  0  0  0
   56.9671   34.4445   47.0158 H   0  0  0  0  0  0  0  0  0  0  0  0
   56.5709   34.0432   44.1057 H   0  0  0  0  0  0  0  0  0  0  0  0
   56.8248   35.5580   45.0953 H   0  0  0  0  0  0  0  0  0  0  0  0
   60.3498   35.3053   45.0309 H   0  0  0  0  0  0  0  0  0  0  0  0
   58.9381   35.8086   46.0336 H   0  0  0  0  0  0  0  0  0  0  0  0
   60.4354   33.1827   45.9762 H   0  0  0  0  0  0  0  0  0  0  0  0
   59.8088   34.1617   47.3781 H   0  0  0  0  0  0  0  0  0  0  0  0
   58.2442   33.1654   48.6176 H   0  0  0  0  0  0  0  0  0  0  0  0
   57.2185   31.7804   47.9482 H   0  0  0  0  0  0  0  0  0  0  0  0
  1  2  1  0
  2  3  2  0
  3  4  1  0
  4  5  1  0
  5  6  1  0
  5  7  2  0
  7  8  1  0
  8  9  1  0
  9 10  1  0
 10 11  1  0
 11 12  1  0
 12 13  1  0
 13 14  1  0
 13 15  2  0
 13 16  2  0
 12 17  1  0
 17 18  1  0
 18 19  1  0
 19 20  1  0
 20 21  1  0
 21 22  1  0
 22 23  1  0
 18 24  1  0
  7  2  1  0
 24  9  1  0
 23 18  1  0
  1 25  1  0
  1 26  1  0
  1 27  1  0
  3 28  1  0
  6 29  1  0
  6 30  1  0
  6 31  1  0
  8 32  1  0
  8 33  1  0
 10 34  1  0
 10 35  1  0
 11 36  1  0
 11 37  1  0
 14 38  1  0
 14 39  1  0
 14 40  1  0
 17 41  1  0
 17 42  1  0
 19 43  1  0
 19 44  1  0
 20 45  1  0
 20 46  1  0
 22 47  1  0
 22 48  1  0
 23 49  1  0
 23 50  1  0
 24 51  1  0
 24 52  1  0
M  CHG  1   3   1
M  END
>  <UniqueID>  (5) 
5

>  <SMILES>  (5) 
Cc1[nH+]oc(C)c1CN1CCN(S(C)(=O)=O)CC2(CCOCC2)C1

>  <Energy>  (5) 
105.94348796535452

>  <Genealogy>  (5) 
Cc1[nH+]oc(C)c1CN1CCN(S(C)(=O)=O)CC2(CCOCC2)C1 (protonated)
Cc1[nH+]oc(C)c1CN1CCN(S(C)(=O)=O)CC2(CCOCC2)C1 (3D coordinates assigned)
Cc1[nH+]oc(C)c1CN1CCN(S(C)(=O)=O)CC2(CCOCC2)C1 (nonaromatic ring conformer: 105.94348796535452 kcal/mol)

>  <smiles>  (5) 
Cc1noc(C)c1CN1CCN(S(C)(=O)=O)CC2(CCOCC2)C1

>  <score_type>  (5) 
oracle

>  <origin>  (5) 
adg

>  <m_score__min__energy>  (5) 
-5.2599999999999998

>  <m_primary>  (5) 
energy

$$$$
5:0
     RDKit          3D

 57 60  0  0  0  0  0  0  0  0999 V2000
   62.8730   33.8480   46.5150 C   0  0  0  0  0  0  0  0  0  0  0  0
   63.5490   32.8600   47.4620 C   0  0  0  0  0  0  0  0  0  0  0  0
   62.7570   32.6860   48.7010 N   0  0  0  0  0  0  0  0  0  0  0  0
   63.5770   32.6320   49.9300 C   0  0  0  0  0  0  0  0  0  0  0  0
   65.0440   32.8270   49.5720 C   0  0  0  0  0  0  0  0  0  0  0  0
   61.6530   31.6920   48.6290 C   0  0  0  0  0  0  0  0  0  0  0  0
   60.7610   31.5790   49.8690 C   0  0  0  0  0  0  0  0  0  0  0  0
   60.3100   32.7410   50.5310 C   0  0  0  0  0  0  0  0  0  0  0  0
   59.5330   32.6580   51.6880 C   0  0  0  0  0  0  0  0  0  0  0  0
   59.1510   31.4170   52.1870 C   0  0  0  0  0  0  0  0  0  0  0  0
   59.5050   30.2570   51.5060 C   0  0  0  0  0  0  0  0  0  0  0  0
   60.2720   30.3170   50.3250 C   0  0  0  0  0  0  0  0  0  0  0  0
   60.5600   29.0110   49.6240 C   0  0  0  0  0  0  0  0  0  0  0  0
   60.1250   29.0880   48.2340 N   0  0  0  0  0  0  0  0  0  0  0  0
   59.3720   28.0540   47.5830 C   0  0  0  0  0  0  0  0  0  0  0  0
   59.2360   26.9320   48.1400 O   0  0  0  0  0  0  0  0  0  0  0  0
   58.7720   28.2750   46.2450 C   0  0  0  0  0  0  0  0  0  0  0  0
   58.3860   27.1620   45.4850 C   0  0  0  0  0  0  0  0  0  0  0  0
   57.8080   27.3260   44.2300 C   0  0  0  0  0  0  0  0  0  0  0  0
   57.5800   28.6020   43.7120 C   0  0  0  0  0  0  0  0  0  0  0  0
   57.0070   28.7070   42.4870 F   0  0  0  0  0  0  0  0  0  0  0  0
   57.9360   29.7450   44.4600 C   0  0  0  0  0  0  0  0  0  0  0  0
   57.6900   31.0570   43.9890 C   0  0  0  0  0  0  0  0  0  0  0  0
   57.1580   31.2430   42.8600 O   0  0  0  0  0  0  0  0  0  0  0  0
   58.0390   32.1650   44.7880 C   0  0  0  0  0  0  0  0  0  0  0  0
   57.7950   33.4900   44.3750 C   0  0  0  0  0  0  0  0  0  0  0  0
   58.1420   34.5610   45.2040 C   0  0  0  0  0  0  0  0  0  0  0  0
   58.7380   34.3230   46.4440 C   0  0  0  0  0  0  0  0  0  0  0  0
   58.9920   33.0160   46.8660 C   0  0  0  0  0  0  0  0  0  0  0  0
   58.6410   31.9380   46.0450 C   0  0  0  0  0  0  0  0  0  0  0  0
   58.8690   30.6710   46.4690 N   0  0  0  0  0  0  0  0  0  0  0  0
   58.5440   29.5750   45.7300 C   0  0  0  0  0  0  0  0  0  0  0  0
   62.3473   34.6164   47.1009 H   0  0  0  0  0  0  0  0  0  0  0  0
   63.6335   34.3270   45.8808 H   0  0  0  0  0  0  0  0  0  0  0  0
   62.1510   33.3127   45.8808 H   0  0  0  0  0  0  0  0  0  0  0  0
   63.6462   31.8873   46.9576 H   0  0  0  0  0  0  0  0  0  0  0  0
   64.5396   33.2549   47.7318 H   0  0  0  0  0  0  0  0  0  0  0  0
   63.2587   33.4289   50.6182 H   0  0  0  0  0  0  0  0  0  0  0  0
   63.4455   31.6535   50.4151 H   0  0  0  0  0  0  0  0  0  0  0  0
   65.6390   32.9061   50.4938 H   0  0  0  0  0  0  0  0  0  0  0  0
   65.3948   31.9676   48.9818 H   0  0  0  0  0  0  0  0  0  0  0  0
   65.1581   33.7482   48.9818 H   0  0  0  0  0  0  0  0  0  0  0  0
   61.0114   31.9645   47.7781 H   0  0  0  0  0  0  0  0  0  0  0  0
   62.1450   30.7131   48.5309 H   0  0  0  0  0  0  0  0  0  0  0  0
   60.5754   33.7296   50.1282 H   0  0  0  0  0  0  0  0  0  0  0  0
   59.2219   33.5768   52.2066 H   0  0  0  0  0  0  0  0  0  0  0  0
   58.5698   31.3531   53.1188 H   0  0  0  0  0  0  0  0  0  0  0  0
   59.1821   29.2798   51.8943 H   0  0  0  0  0  0  0  0  0  0  0  0
   61.6409   28.8096   49.6574 H   0  0  0  0  0  0  0  0  0  0  0  0
   60.0152   28.2003   50.1299 H   0  0  0  0  0  0  0  0  0  0  0  0
   60.4760   29.8930   47.6660 H   0  0  0  0  0  0  0  0  0  0  0  0
   58.5416   26.1491   45.8848 H   0  0  0  0  0  0  0  0  0  0  0  0
   57.5278   26.4410   43.6399 H   0  0  0  0  0  0  0  0  0  0  0  0
   57.3299   33.6823   43.3969 H   0  0  0  0  0  0  0  0  0  0  0  0
   57.9451   35.5932   44.8787 H   0  0  0  0  0  0  0  0  0  0  0  0
   59.0090   35.1695   47.0921 H   0  0  0  0  0  0  0  0  0  0  0  0
   59.4669   32.8342   47.8414 H   0  0  0  0  0  0  0  0  0  0  0  0
  1  2  1  0
  2  3  1  0
  3  4  1  0
  4  5  1  0
  3  6  1  0
  6  7  1  0
  7  8  2  0
  8  9  1  0
  9 10  2  0
 10 11  1  0
 11 12  2  0
 12 13  1  0
 13 14  1  0
 14 15  1  0
 15 16  2  0
 15 17  1  0
 17 18  2  0
 18 19  1  0
 19 20  2  0
 20 21  1  0
 20 22  1  0
 22 23  1  0
 23 24  2  0
 23 25  1  0
 25 26  2  0
 26 27  1  0
 27 28  2  0
 28 29  1  0
 29 30  2  0
 30 31  1  0
 31 32  1  0
 12  7  1  0
 32 17  1  0
 32 22  2  0
 30 25  1  0
  1 33  1  0
  1 34  1  0
  1 35  1  0
  2 36  1  0
  2 37  1  0
  4 38  1  0
  4 39  1  0
  5 40  1  0
  5 41  1  0
  5 42  1  0
  6 43  1  0
  6 44  1  0
  8 45  1  0
  9 46  1  0
 10 47  1  0
 11 48  1  0
 13 49  1  0
 13 50  1  0
 14 51  1  0
 18 52  1  0
 19 53  1  0
 26 54  1  0
 27 55  1  0
 28 56  1  0
 29 57  1  0
M  CHG  1  31  -1
M  END
>  <UniqueID>  (6) 
6

>  <SMILES>  (6) 
CCN(CC)Cc1ccccc1CNC(=O)c1ccc(F)c2c(=O)c3ccccc3[n-]c12

>  <Energy>  (6) 
79.60300252973761

>  <Genealogy>  (6) 
CCN(CC)Cc1ccccc1CNC(=O)c1ccc(F)c2c(=O)c3ccccc3[n-]c12 (protonated)
CCN(CC)Cc1ccccc1CNC(=O)c1ccc(F)c2c(=O)c3ccccc3[n-]c12 (3D coordinates assigned)
CCN(CC)Cc1ccccc1CNC(=O)c1ccc(F)c2c(=O)c3ccccc3[n-]c12 (optimized conformer: 79.60300252973761 kcal/mol)

>  <smiles>  (6) 
CCN(CC)Cc1ccccc1CNC(=O)c1ccc(F)c2c(=O)c3ccccc3[nH]c12

>  <score_type>  (6) 
oracle

>  <origin>  (6) 
adg

>  <m_score__min__energy>  (6) 
-9.6099999999999994

>  <m_primary>  (6) 
energy

$$$$
6:0
     RDKit          3D

 37 42  0  0  0  0  0  0  0  0999 V2000
   60.3840   35.1000   46.0270 C   0  0  0  0  0  0  0  0  0  0  0  0
   59.1670   35.1060   45.3710 C   0  0  0  0  0  0  0  0  0  0  0  0
   58.6730   33.8230   45.4410 C   0  0  0  0  0  0  0  0  0  0  0  0
   57.4850   33.3380   44.9310 C   0  0  0  0  0  0  0  0  0  0  0  0
   57.1930   31.9880   45.1260 C   0  0  0  0  0  0  0  0  0  0  0  0
   58.0710   31.1230   45.8220 C   0  0  0  0  0  0  0  0  0  0  0  0
   57.6330   29.8480   45.9200 N   0  0  0  0  0  0  0  0  0  0  0  0
   58.1630   28.7520   46.4910 C   0  0  0  0  0  0  0  0  0  0  0  0
   59.3590   28.6310   47.1650 C   0  0  0  0  0  0  0  0  0  0  0  0
   60.3030   29.6120   47.4140 C   0  0  0  0  0  0  0  0  0  0  0  0
   60.2480   30.9160   47.0450 N   0  0  0  0  0  0  0  0  0  0  0  0
   59.3070   31.6360   46.3520 C   0  0  0  0  0  0  0  0  0  0  0  0
   59.5550   33.0180   46.1240 C   0  0  0  0  0  0  0  0  0  0  0  0
   60.6310   33.8170   46.4930 C   0  0  0  0  0  0  0  0  0  0  0  0
   59.5550   27.2090   47.6410 C   0  0  0  0  0  0  0  0  0  0  0  0
   58.3140   26.5480   47.1460 C   0  0  0  0  0  0  0  0  0  0  0  0
   57.9310   25.2050   47.2920 C   0  0  0  0  0  0  0  0  0  0  0  0
   56.7020   24.8470   46.7260 C   0  0  0  0  0  0  0  0  0  0  0  0
   55.9120   25.7480   46.0670 C   0  0  0  0  0  0  0  0  0  0  0  0
   56.2780   27.0890   45.9130 C   0  0  0  0  0  0  0  0  0  0  0  0
   57.5100   27.4600   46.4770 C   0  0  0  0  0  0  0  0  0  0  0  0
   54.7700   25.1120   45.6200 O   0  0  0  0  0  0  0  0  0  0  0  0
   54.8420   23.7350   46.0180 C   0  0  0  0  0  0  0  0  0  0  0  0
   56.0880   23.6090   46.7200 O   0  0  0  0  0  0  0  0  0  0  0  0
   61.0464   35.9684   46.1577 H   0  0  0  0  0  0  0  0  0  0  0  0
   58.6865   35.9689   44.8868 H   0  0  0  0  0  0  0  0  0  0  0  0
   56.7905   33.9958   44.3878 H   0  0  0  0  0  0  0  0  0  0  0  0
   56.2514   31.5832   44.7266 H   0  0  0  0  0  0  0  0  0  0  0  0
   61.1972   29.2994   47.9733 H   0  0  0  0  0  0  0  0  0  0  0  0
   61.0960   31.4280   47.3660 H   0  0  0  0  0  0  0  0  0  0  0  0
   61.5191   33.4904   47.0539 H   0  0  0  0  0  0  0  0  0  0  0  0
   60.4540   26.7579   47.1957 H   0  0  0  0  0  0  0  0  0  0  0  0
   59.7046   27.1194   48.7271 H   0  0  0  0  0  0  0  0  0  0  0  0
   58.5614   24.4754   47.8214 H   0  0  0  0  0  0  0  0  0  0  0  0
   55.6393   27.8102   45.3820 H   0  0  0  0  0  0  0  0  0  0  0  0
   54.0000   23.4801   46.6784 H   0  0  0  0  0  0  0  0  0  0  0  0
   54.7864   23.0550   45.1552 H   0  0  0  0  0  0  0  0  0  0  0  0
  1  2  2  0
  2  3  1  0
  3  4  2  0
  4  5  1  0
  5  6  2  0
  6  7  1  0
  7  8  2  0
  8  9  1  0
  9 10  2  0
 10 11  1  0
 11 12  2  0
 12 13  1  0
 13 14  2  0
  9 15  1  0
 15 16  1  0
 16 17  2  0
 17 18  1  0
 18 19  2  0
 19 20  1  0
 20 21  2  0
 19 22  1  0
 22 23  1  0
 23 24  1  0
 14  1  1  0
 21 16  1  0
 13  3  1  0
 24 18  1  0
 12  6  1  0
 21  8  1  0
  1 25  1  0
  2 26  1  0
  4 27  1  0
  5 28  1  0
 10 29  1  0
 11 30  1  0
 14 31  1  0
 15 32  1  0
 15 33  1  0
 17 34  1  0
 20 35  1  0
 23 36  1  0
 23 37  1  0
M  CHG  1  11   1
M  END
>  <UniqueID>  (7) 
7

>  <SMILES>  (7) 
c1cc2ccc3nc4c(c[nH+]c3c2c1)Cc1cc2c(cc1-4)OCO2

>  <Energy>  (7) 
143.20854557203847

>  <Genealogy>  (7) 
c1cc2ccc3nc4c(c[nH+]c3c2c1)Cc1cc2c(cc1-4)OCO2 (protonated)
c1cc2ccc3nc4c(c[nH+]c3c2c1)Cc1cc2c(cc1-4)OCO2 (3D coordinates assigned)
c1cc2ccc3nc4c(c[nH+]c3c2c1)Cc1cc2c(cc1-4)OCO2 (nonaromatic ring conformer: 143.20854557203847 kcal/mol)

>  <smiles>  (7) 
c1cc2ccc3nc4c(cnc3c2c1)Cc1cc2c(cc1-4)OCO2

>  <score_type>  (7) 
oracle

>  <origin>  (7) 
adg

>  <m_score__min__energy>  (7) 
-6.29

>  <m_primary>  (7) 
energy

$$$$
7:0
     RDKit          3D

 46 48  0  0  0  0  0  0  0  0999 V2000
   59.6490   34.5030   49.5220 C   0  0  0  0  0  0  0  0  0  0  0  0
   60.2900   34.4240   48.2540 O   0  0  0  0  0  0  0  0  0  0  0  0
   59.6730   33.9960   47.0650 C   0  0  0  0  0  0  0  0  0  0  0  0
   59.3680   34.9050   46.0380 C   0  0  0  0  0  0  0  0  0  0  0  0
   58.7490   34.4770   44.8700 C   0  0  0  0  0  0  0  0  0  0  0  0
   58.4180   33.1300   44.6940 C   0  0  0  0  0  0  0  0  0  0  0  0
   57.7910   32.7180   43.5080 C   0  0  0  0  0  0  0  0  0  0  0  0
   57.4550   31.3790   43.3180 C   0  0  0  0  0  0  0  0  0  0  0  0
   57.7390   30.4410   44.3070 C   0  0  0  0  0  0  0  0  0  0  0  0
   58.3620   30.8330   45.4940 C   0  0  0  0  0  0  0  0  0  0  0  0
   58.7140   32.1860   45.7140 C   0  0  0  0  0  0  0  0  0  0  0  0
   59.3520   32.6250   46.9110 C   0  0  0  0  0  0  0  0  0  0  0  0
   59.6790   31.6640   48.0490 C   0  0  0  0  0  0  0  0  0  0  0  0
   60.9910   31.9360   48.6660 N   0  0  0  0  0  0  0  0  0  0  0  0
   62.0230   30.9400   48.3320 C   0  0  0  0  0  0  0  0  0  0  0  0
   63.3840   31.5960   47.9880 C   0  0  0  0  0  0  0  0  0  0  0  0
   64.1230   32.0950   49.2450 C   0  0  0  0  0  0  0  0  0  0  0  0
   63.4480   33.3330   49.8750 C   0  0  0  0  0  0  0  0  0  0  0  0
   62.8030   34.2290   48.8890 N   0  0  0  0  0  0  0  0  0  0  0  0
   63.4060   34.1410   47.5530 C   0  0  0  0  0  0  0  0  0  0  0  0
   63.2160   32.7380   46.9490 C   0  0  0  0  0  0  0  0  0  0  0  0
   60.4010   34.4103   50.3194 H   0  0  0  0  0  0  0  0  0  0  0  0
   59.1351   35.4713   49.6134 H   0  0  0  0  0  0  0  0  0  0  0  0
   58.9154   33.6885   49.6134 H   0  0  0  0  0  0  0  0  0  0  0  0
   59.6223   35.9682   46.1601 H   0  0  0  0  0  0  0  0  0  0  0  0
   58.5175   35.2038   44.0774 H   0  0  0  0  0  0  0  0  0  0  0  0
   57.5636   33.4557   42.7244 H   0  0  0  0  0  0  0  0  0  0  0  0
   56.9648   31.0627   42.3855 H   0  0  0  0  0  0  0  0  0  0  0  0
   57.4712   29.3853   44.1526 H   0  0  0  0  0  0  0  0  0  0  0  0
   58.5816   30.0815   46.2667 H   0  0  0  0  0  0  0  0  0  0  0  0
   58.9013   31.7560   48.8214 H   0  0  0  0  0  0  0  0  0  0  0  0
   59.7152   30.6492   47.6262 H   0  0  0  0  0  0  0  0  0  0  0  0
   61.3300   32.8740   48.3500 H   0  0  0  0  0  0  0  0  0  0  0  0
   62.1608   30.2707   49.1940 H   0  0  0  0  0  0  0  0  0  0  0  0
   61.6821   30.3869   47.4443 H   0  0  0  0  0  0  0  0  0  0  0  0
   64.0087   30.8127   47.5338 H   0  0  0  0  0  0  0  0  0  0  0  0
   64.1397   31.2852   49.9893 H   0  0  0  0  0  0  0  0  0  0  0  0
   65.1395   32.3863   48.9418 H   0  0  0  0  0  0  0  0  0  0  0  0
   62.6805   32.9868   50.5829 H   0  0  0  0  0  0  0  0  0  0  0  0
   64.2417   33.9154   50.3657 H   0  0  0  0  0  0  0  0  0  0  0  0
   61.7830   34.0090   48.8210 H   0  0  0  0  0  0  0  0  0  0  0  0
   62.8850   35.2160   49.2270 H   0  0  0  0  0  0  0  0  0  0  0  0
   62.9300   34.8827   46.8947 H   0  0  0  0  0  0  0  0  0  0  0  0
   64.4843   34.3387   47.6433 H   0  0  0  0  0  0  0  0  0  0  0  0
   62.2044   32.6756   46.5216 H   0  0  0  0  0  0  0  0  0  0  0  0
   63.9965   32.6026   46.1858 H   0  0  0  0  0  0  0  0  0  0  0  0
  1  2  1  0
  2  3  1  0
  3  4  2  0
  4  5  1  0
  5  6  2  0
  6  7  1  0
  7  8  2  0
  8  9  1  0
  9 10  2  0
 10 11  1  0
 11 12  2  0
 12 13  1  0
 13 14  1  0
 14 15  1  0
 15 16  1  0
 16 17  1  0
 17 18  1  0
 18 19  1  0
 19 20  1  0
 20 21  1  0
 12  3  1  0
 21 16  1  0
 11  6  1  0
  1 22  1  0
  1 23  1  0
  1 24  1  0
  4 25  1  0
  5 26  1  0
  7 27  1  0
  8 28  1  0
  9 29  1  0
 10 30  1  0
 13 31  1  0
 13 32  1  0
 14 33  1  0
 15 34  1  0
 15 35  1  0
 16 36  1  0
 17 37  1  0
 17 38  1  0
 18 39  1  0
 18 40  1  0
 19 41  1  0
 19 42  1  0
 20 43  1  0
 20 44  1  0
 21 45  1  0
 21 46  1  0
M  CHG  1  19   1
M  END
>  <UniqueID>  (8) 
8

>  <SMILES>  (8) 
COc1ccc2ccccc2c1CNCC1CC[NH2+]CC1

>  <Energy>  (8) 
59.1805993283733

>  <Genealogy>  (8) 
COc1ccc2ccccc2c1CNCC1CC[NH2+]CC1 (protonated)
COc1ccc2ccccc2c1CNCC1CC[NH2+]CC1 (3D coordinates assigned)
COc1ccc2ccccc2c1CNCC1CC[NH2+]CC1 (nonaromatic ring conformer: 59.1805993283733 kcal/mol)

>  <smiles>  (8) 
COc1ccc2ccccc2c1CNCC1CCNCC1

>  <score_type>  (8) 
oracle

>  <origin>  (8) 
adg

>  <m_score__min__energy>  (8) 
-5.1900000000000004

>  <m_primary>  (8) 
energy

$$$$
8:0
     RDKit          3D

 52 54  0  0  0  0  0  0  0  0999 V2000
   60.4010   29.8680   46.0220 C   0  0  0  0  0  0  0  0  0  0  0  0
   58.8860   30.0310   46.0270 C   0  0  0  0  0  0  0  0  0  0  0  0
   58.4730   30.9980   45.0070 N   0  0  0  0  0  0  0  0  0  0  0  0
   58.2770   30.6830   43.7360 N   0  0  0  0  0  0  0  0  0  0  0  0
   57.8660   31.7790   43.0720 C   0  0  0  0  0  0  0  0  0  0  0  0
   57.7890   32.8370   43.9580 C   0  0  0  0  0  0  0  0  0  0  0  0
   58.1700   32.3050   45.1770 C   0  0  0  0  0  0  0  0  0  0  0  0
   58.2500   33.0730   46.4670 C   0  0  0  0  0  0  0  0  0  0  0  0
   59.4050   33.9990   46.4570 N   0  0  0  0  0  0  0  0  0  0  0  0
   59.3710   34.9470   47.5900 C   0  0  0  0  0  0  0  0  0  0  0  0
   59.6430   34.2600   48.9450 C   0  0  0  0  0  0  0  0  0  0  0  0
   60.2050   32.9090   48.7610 N   0  0  0  0  0  0  0  0  0  0  0  0
   60.5260   32.2380   50.0360 C   0  0  0  0  0  0  0  0  0  0  0  0
   59.2500   31.9280   50.7640 C   0  0  0  0  0  0  0  0  0  0  0  0
   58.6780   32.8570   51.6450 C   0  0  0  0  0  0  0  0  0  0  0  0
   57.4670   32.5650   52.2760 C   0  0  0  0  0  0  0  0  0  0  0  0
   56.8340   31.3480   52.0120 C   0  0  0  0  0  0  0  0  0  0  0  0
   57.3940   30.4610   51.1470 N   0  0  0  0  0  0  0  0  0  0  0  0
   58.5740   30.7220   50.5230 C   0  0  0  0  0  0  0  0  0  0  0  0
   61.2830   32.8610   47.7500 C   0  0  2  0  0  0  0  0  0  0  0  0
   62.5310   33.6900   48.1770 C   0  0  0  0  0  0  0  0  0  0  0  0
   63.7020   33.5610   47.1930 C   0  0  0  0  0  0  0  0  0  0  0  0
   63.8480   32.2390   46.7480 O   0  0  0  0  0  0  0  0  0  0  0  0
   60.7190   33.3160   46.3700 C   0  0  0  0  0  0  0  0  0  0  0  0
   60.7689   29.8284   47.0579 H   0  0  0  0  0  0  0  0  0  0  0  0
   60.6678   28.9360   45.5023 H   0  0  0  0  0  0  0  0  0  0  0  0
   60.8599   30.7219   45.5023 H   0  0  0  0  0  0  0  0  0  0  0  0
   58.4162   29.0590   45.8162 H   0  0  0  0  0  0  0  0  0  0  0  0
   58.5698   30.3974   47.0148 H   0  0  0  0  0  0  0  0  0  0  0  0
   58.4160   29.7320   43.3250 H   0  0  0  0  0  0  0  0  0  0  0  0
   57.6298   31.8253   41.9987 H   0  0  0  0  0  0  0  0  0  0  0  0
   57.4906   33.8734   43.7417 H   0  0  0  0  0  0  0  0  0  0  0  0
   57.3244   33.6524   46.5997 H   0  0  0  0  0  0  0  0  0  0  0  0
   58.3773   32.3597   47.2946 H   0  0  0  0  0  0  0  0  0  0  0  0
   60.1367   35.7196   47.4264 H   0  0  0  0  0  0  0  0  0  0  0  0
   58.3609   35.3806   47.6323 H   0  0  0  0  0  0  0  0  0  0  0  0
   60.3571   34.8695   49.5182 H   0  0  0  0  0  0  0  0  0  0  0  0
   58.6883   34.1670   49.4834 H   0  0  0  0  0  0  0  0  0  0  0  0
   61.0706   31.3040   49.8336 H   0  0  0  0  0  0  0  0  0  0  0  0
   61.1537   32.8973   50.6535 H   0  0  0  0  0  0  0  0  0  0  0  0
   59.1828   33.8149   51.8389 H   0  0  0  0  0  0  0  0  0  0  0  0
   57.0161   33.2859   52.9738 H   0  0  0  0  0  0  0  0  0  0  0  0
   55.8806   31.1069   52.5049 H   0  0  0  0  0  0  0  0  0  0  0  0
   59.0002   29.9848   49.8266 H   0  0  0  0  0  0  0  0  0  0  0  0
   61.6344   31.8224   47.6621 H   0  0  0  0  0  0  0  0  0  0  0  0
   62.2426   34.7495   48.2417 H   0  0  0  0  0  0  0  0  0  0  0  0
   62.8711   33.2971   49.1465 H   0  0  0  0  0  0  0  0  0  0  0  0
   63.5159   34.2126   46.3266 H   0  0  0  0  0  0  0  0  0  0  0  0
   64.6260   33.8580   47.7107 H   0  0  0  0  0  0  0  0  0  0  0  0
   64.8210   32.0510   46.7190 H   0  0  0  0  0  0  0  0  0  0  0  0
   61.4403   34.0085   45.9116 H   0  0  0  0  0  0  0  0  0  0  0  0
   60.5688   32.4068   45.7693 H   0  0  0  0  0  0  0  0  0  0  0  0
  1  2  1  0
  2  3  1  0
  3  4  1  0
  4  5  2  0
  5  6  1  0
  6  7  2  0
  7  8  1  0
  8  9  1  0
  9 10  1  0
 10 11  1  0
 11 12  1  0
 12 13  1  0
 13 14  1  0
 14 15  2  0
 15 16  1  0
 16 17  2  0
 17 18  1  0
 18 19  2  0
 12 20  1  0
 20 21  1  0
 21 22  1  0
 22 23  1  0
 20 24  1  0
  7  3  1  0
 24  9  1  0
 19 14  1  0
  1 25  1  0
  1 26  1  0
  1 27  1  0
  2 28  1  0
  2 29  1  0
  4 30  1  0
  5 31  1  0
  6 32  1  0
  8 33  1  0
  8 34  1  0
 10 35  1  0
 10 36  1  0
 11 37  1  0
 11 38  1  0
 13 39  1  0
 13 40  1  0
 15 41  1  0
 16 42  1  0
 17 43  1  0
 19 44  1  0
 20 45  1  6
 21 46  1  0
 21 47  1  0
 22 48  1  0
 22 49  1  0
 23 50  1  0
 24 51  1  0
 24 52  1  0
M  CHG  1   4   1
M  END
>  <UniqueID>  (9) 
9

>  <SMILES>  (9) 
CCn1[nH+]ccc1CN1CCN(Cc2cccnc2)[C@H](CCO)C1

>  <Energy>  (9) 
92.35324838972092

>  <Genealogy>  (9) 
CCn1[nH+]ccc1CN1CCN(Cc2cccnc2)C(CCO)C1 (protonated)
CCn1[nH+]ccc1CN1CCN(Cc2cccnc2)[C@H](CCO)C1 (chirality)
CCn1[nH+]ccc1CN1CCN(Cc2cccnc2)[C@H](CCO)C1 (3D coordinates assigned)
CCn1[nH+]ccc1CN1CCN(Cc2cccnc2)[C@H](CCO)C1 (nonaromatic ring conformer: 92.35324838972092 kcal/mol)

>  <smiles>  (9) 
CCn1nccc1CN1CCN(Cc2cccnc2)C(CCO)C1

>  <score_type>  (9) 
oracle

>  <origin>  (9) 
adg

>  <m_score__min__energy>  (9) 
-5.9500000000000002

>  <m_primary>  (9) 
energy

$$$$
9:0
     RDKit          3D

 32 34  0  0  0  0  0  0  0  0999 V2000
   55.0920   24.4730   45.3420 C   0  0  0  0  0  0  0  0  0  0  0  0
   55.3880   25.7040   45.9930 O   0  0  0  0  0  0  0  0  0  0  0  0
   56.6030   26.3970   45.8670 C   0  0  0  0  0  0  0  0  0  0  0  0
   57.7860   25.6570   45.8440 C   0  0  0  0  0  0  0  0  0  0  0  0
   59.0170   26.2990   45.7220 C   0  0  0  0  0  0  0  0  0  0  0  0
   59.0910   27.6910   45.6070 C   0  0  0  0  0  0  0  0  0  0  0  0
   57.9020   28.4650   45.6380 C   0  0  0  0  0  0  0  0  0  0  0  0
   56.6670   27.7990   45.7760 C   0  0  0  0  0  0  0  0  0  0  0  0
   57.8920   29.9840   45.7460 C   0  0  2  0  0  0  0  0  0  0  0  0
   56.8830   30.5110   44.8870 O   0  0  0  0  0  0  0  0  0  0  0  0
   56.9920   31.9110   44.6340 C   0  0  0  0  0  0  0  0  0  0  0  0
   57.7560   32.7070   45.7080 C   0  0  0  0  0  0  0  0  0  0  0  0
   59.1740   32.1460   45.9150 C   0  0  0  0  0  0  0  0  0  0  0  0
   59.2610   30.6630   45.5000 C   0  0  1  0  0  0  0  0  0  0  0  0
   60.3900   29.9400   46.2360 C   0  0  0  0  0  0  0  0  0  0  0  0
   60.7280   28.3980   45.3470 S   0  0  0  0  0  0  0  0  0  0  0  0
   54.9049   23.6949   46.0966 H   0  0  0  0  0  0  0  0  0  0  0  0
   54.1979   24.5965   44.7132 H   0  0  0  0  0  0  0  0  0  0  0  0
   55.9445   24.1765   44.7132 H   0  0  0  0  0  0  0  0  0  0  0  0
   57.7466   24.5605   45.9226 H   0  0  0  0  0  0  0  0  0  0  0  0
   59.9419   25.7036   45.7161 H   0  0  0  0  0  0  0  0  0  0  0  0
   55.7375   28.3861   45.8131 H   0  0  0  0  0  0  0  0  0  0  0  0
   57.6608   30.2224   46.7947 H   0  0  0  0  0  0  0  0  0  0  0  0
   57.5128   32.0452   43.6744 H   0  0  0  0  0  0  0  0  0  0  0  0
   55.9648   32.3046   44.6311 H   0  0  0  0  0  0  0  0  0  0  0  0
   57.8289   33.7579   45.3913 H   0  0  0  0  0  0  0  0  0  0  0  0
   57.2074   32.6246   46.6578 H   0  0  0  0  0  0  0  0  0  0  0  0
   59.8815   32.7294   45.3074 H   0  0  0  0  0  0  0  0  0  0  0  0
   59.4221   32.2205   46.9841 H   0  0  0  0  0  0  0  0  0  0  0  0
   59.5000   30.6040   44.4279 H   0  0  0  0  0  0  0  0  0  0  0  0
   61.2917   30.5698   46.2500 H   0  0  0  0  0  0  0  0  0  0  0  0
   60.0993   29.7295   47.2758 H   0  0  0  0  0  0  0  0  0  0  0  0
  1  2  1  0
  2  3  1  0
  3  4  2  0
  4  5  1  0
  5  6  2  0
  6  7  1  0
  7  8  2  0
  7  9  1  0
  9 10  1  0
 10 11  1  0
 11 12  1  0
 12 13  1  0
 13 14  1  0
 14 15  1  0
 15 16  1  0
  8  3  1  0
 14  9  1  0
 16  6  1  0
  1 17  1  0
  1 18  1  0
  1 19  1  0
  4 20  1  0
  5 21  1  0
  8 22  1  0
  9 23  1  1
 11 24  1  0
 11 25  1  0
 12 26  1  0
 12 27  1  0
 13 28  1  0
 13 29  1  0
 14 30  1  6
 15 31  1  0
 15 32  1  0
M  END
>  <UniqueID>  (10) 
10

>  <SMILES>  (10) 
COc1ccc2c(c1)[C@@H]1OCCC[C@H]1CS2

>  <Energy>  (10) 
52.541884951392795

>  <Genealogy>  (10) 
COc1ccc2c(c1)[C@@H]1OCCC[C@H]1CS2 (chirality)
COc1ccc2c(c1)[C@@H]1OCCC[C@H]1CS2 (3D coordinates assigned)
COc1ccc2c(c1)[C@@H]1OCCC[C@H]1CS2 (nonaromatic ring conformer: 52.541884951392795 kcal/mol)

>  <smiles>  (10) 
COc1ccc2c(c1)C1OCCCC1CS2

>  <score_type>  (10) 
oracle

>  <origin>  (10) 
adg

>  <m_score__min__energy>  (10) 
-6.4699999999999998

>  <m_primary>  (10) 
energy

$$$$
10:0
     RDKit          3D

 40 42  0  0  0  0  0  0  0  0999 V2000
   59.2890   34.5490   44.5160 C   0  0  0  0  0  0  0  0  0  0  0  0
   59.1760   34.1360   45.9590 C   0  0  0  0  0  0  0  0  0  0  0  0
   59.7060   34.9650   46.9600 C   0  0  0  0  0  0  0  0  0  0  0  0
   59.6190   34.5960   48.3010 C   0  0  0  0  0  0  0  0  0  0  0  0
   58.9990   33.3950   48.6380 C   0  0  0  0  0  0  0  0  0  0  0  0
   58.4750   32.6050   47.6650 N   0  0  0  0  0  0  0  0  0  0  0  0
   58.5200   32.9420   46.3460 C   0  0  0  0  0  0  0  0  0  0  0  0
   57.9470   31.9830   45.3300 C   0  0  0  0  0  0  0  0  0  0  0  0
   57.4070   30.7950   45.9820 N   0  0  0  0  0  0  0  0  0  0  0  0
   57.3970   29.4960   45.3820 C   0  0  0  0  0  0  0  0  0  0  0  0
   57.1090   29.3670   44.1620 O   0  0  0  0  0  0  0  0  0  0  0  0
   57.7510   28.3040   46.1780 C   0  0  0  0  0  0  0  0  0  0  0  0
   57.0460   27.1160   46.1960 C   0  0  0  0  0  0  0  0  0  0  0  0
   57.7630   26.3080   47.0560 C   0  0  0  0  0  0  0  0  0  0  0  0
   57.3260   24.5120   47.5210 Br  0  0  0  0  0  0  0  0  0  0  0  0
   58.8330   26.9710   47.5350 N   0  0  0  0  0  0  0  0  0  0  0  0
   58.8200   28.1800   46.9980 N   0  0  0  0  0  0  0  0  0  0  0  0
   59.7800   29.1900   47.3270 C   0  0  0  0  0  0  0  0  0  0  0  0
   60.7640   29.5600   46.3970 C   0  0  0  0  0  0  0  0  0  0  0  0
   60.8560   28.7770   44.8240 Cl  0  0  0  0  0  0  0  0  0  0  0  0
   61.6760   30.5740   46.7070 C   0  0  0  0  0  0  0  0  0  0  0  0
   61.6110   31.2400   47.9410 C   0  0  0  0  0  0  0  0  0  0  0  0
   62.6250   32.3060   48.2730 C   0  0  0  0  0  0  0  0  0  0  0  0
   63.0010   32.9820   47.1250 F   0  0  0  0  0  0  0  0  0  0  0  0
   63.7420   31.7160   48.8340 F   0  0  0  0  0  0  0  0  0  0  0  0
   62.1070   33.2290   49.1670 F   0  0  0  0  0  0  0  0  0  0  0  0
   60.6480   30.8410   48.8830 C   0  0  0  0  0  0  0  0  0  0  0  0
   59.7340   29.8270   48.5800 C   0  0  0  0  0  0  0  0  0  0  0  0
   58.5460   29.3560   49.7870 Cl  0  0  0  0  0  0  0  0  0  0  0  0
   59.5789   35.6086   44.4595 H   0  0  0  0  0  0  0  0  0  0  0  0
   60.0516   33.9331   44.0170 H   0  0  0  0  0  0  0  0  0  0  0  0
   58.3190   34.4071   44.0170 H   0  0  0  0  0  0  0  0  0  0  0  0
   60.1931   35.9119   46.6842 H   0  0  0  0  0  0  0  0  0  0  0  0
   60.0353   35.2460   49.0847 H   0  0  0  0  0  0  0  0  0  0  0  0
   58.9337   33.0864   49.6918 H   0  0  0  0  0  0  0  0  0  0  0  0
   57.1421   32.4859   44.7740 H   0  0  0  0  0  0  0  0  0  0  0  0
   58.7512   31.6737   44.6462 H   0  0  0  0  0  0  0  0  0  0  0  0
   56.1236   26.8699   45.6496 H   0  0  0  0  0  0  0  0  0  0  0  0
   62.4509   30.8520   45.9775 H   0  0  0  0  0  0  0  0  0  0  0  0
   60.6127   31.3305   49.8674 H   0  0  0  0  0  0  0  0  0  0  0  0
  1  2  1  0
  2  3  2  0
  3  4  1  0
  4  5  2  0
  5  6  1  0
  6  7  2  0
  7  8  1  0
  8  9  1  0
  9 10  1  0
 10 11  2  0
 10 12  1  0
 12 13  2  0
 13 14  1  0
 14 15  1  0
 14 16  2  0
 16 17  1  0
 17 18  1  0
 18 19  2  0
 19 20  1  0
 19 21  1  0
 21 22  2  0
 22 23  1  0
 23 24  1  0
 23 25  1  0
 23 26  1  0
 22 27  1  0
 27 28  2  0
 28 29  1  0
  7  2  1  0
 17 12  1  0
 28 18  1  0
  1 30  1  0
  1 31  1  0
  1 32  1  0
  3 33  1  0
  4 34  1  0
  5 35  1  0
  8 36  1  0
  8 37  1  0
 13 38  1  0
 21 39  1  0
 27 40  1  0
M  CHG  1   9  -1
M  END
>  <UniqueID>  (11) 
11

>  <SMILES>  (11) 
Cc1cccnc1C[N-]C(=O)c1cc(Br)nn1-c1c(Cl)cc(C(F)(F)F)cc1Cl

>  <Energy>  (11) 
79.10629134887412

>  <Genealogy>  (11) 
Cc1cccnc1C[N-]C(=O)c1cc(Br)nn1-c1c(Cl)cc(C(F)(F)F)cc1Cl (protonated)
Cc1cccnc1C[N-]C(=O)c1cc(Br)nn1-c1c(Cl)cc(C(F)(F)F)cc1Cl (3D coordinates assigned)
Cc1cccnc1C[N-]C(=O)c1cc(Br)nn1-c1c(Cl)cc(C(F)(F)F)cc1Cl (optimized conformer: 79.10629134887412 kcal/mol)

>  <smiles>  (11) 
Cc1cccnc1CNC(=O)c1cc(Br)nn1-c1c(Cl)cc(C(F)(F)F)cc1Cl

>  <score_type>  (11) 
oracle

>  <origin>  (11) 
adg

>  <m_score__min__energy>  (11) 
-10.039999999999999

>  <m_primary>  (11) 
energy

$$$$
11:0
     RDKit          3D

 50 53  0  0  0  0  0  0  0  0999 V2000
   60.6480   26.7900   46.8380 C   0  0  0  0  0  0  0  0  0  0  0  0
   60.3200   28.2440   46.9150 C   0  0  0  0  0  0  0  0  0  0  0  0
   60.8150   29.2330   46.0790 C   0  0  0  0  0  0  0  0  0  0  0  0
   60.3320   30.5120   46.3860 C   0  0  0  0  0  0  0  0  0  0  0  0
   59.4400   30.5450   47.4610 C   0  0  0  0  0  0  0  0  0  0  0  0
   58.7780   31.8330   47.9450 C   0  0  1  0  0  0  0  0  0  0  0  0
   59.5590   33.0970   48.1380 C   0  0  1  0  0  0  0  0  0  0  0  0
   61.0290   33.1070   47.7620 C   0  0  0  0  0  0  0  0  0  0  0  0
   61.9260   32.3870   48.5730 C   0  0  0  0  0  0  0  0  0  0  0  0
   63.2860   32.3370   48.2560 C   0  0  0  0  0  0  0  0  0  0  0  0
   63.7690   33.0030   47.1280 C   0  0  0  0  0  0  0  0  0  0  0  0
   62.8980   33.7550   46.3370 C   0  0  0  0  0  0  0  0  0  0  0  0
   61.5380   33.8240   46.6590 C   0  0  0  0  0  0  0  0  0  0  0  0
   58.5970   33.8230   47.1820 C   0  0  0  0  0  0  0  0  0  0  0  0
   58.4520   34.9650   46.7700 O   0  0  0  0  0  0  0  0  0  0  0  0
   57.8710   32.5520   47.0520 N   0  0  1  0  0  0  0  0  0  0  0  0
   57.6120   32.1700   45.6270 C   0  0  0  0  0  0  0  0  0  0  0  0
   57.4870   30.6320   45.4400 C   0  0  0  0  0  0  0  0  0  0  0  0
   56.4290   30.1490   44.4070 C   0  0  0  0  0  0  0  0  0  0  0  0
   56.5680   30.6500   42.9560 C   0  0  0  0  0  0  0  0  0  0  0  0
   57.8910   31.3680   42.5960 C   0  0  0  0  0  0  0  0  0  0  0  0
   58.0400   32.8040   43.1310 C   0  0  0  0  0  0  0  0  0  0  0  0
   58.5320   32.8690   44.5830 C   0  0  0  0  0  0  0  0  0  0  0  0
   59.2670   28.9520   48.0130 S   0  0  0  0  0  0  0  0  0  0  0  0
   60.7404   26.3806   47.8548 H   0  0  0  0  0  0  0  0  0  0  0  0
   59.8466   26.2613   46.3012 H   0  0  0  0  0  0  0  0  0  0  0  0
   61.5988   26.6565   46.3012 H   0  0  0  0  0  0  0  0  0  0  0  0
   61.5173   29.0334   45.2562 H   0  0  0  0  0  0  0  0  0  0  0  0
   60.6294   31.4125   45.8287 H   0  0  0  0  0  0  0  0  0  0  0  0
   58.4088   31.2898   48.8274 H   0  0  0  0  0  0  0  0  0  0  0  0
   59.7405   33.4697   49.1569 H   0  0  0  0  0  0  0  0  0  0  0  0
   61.5535   31.8594   49.4635 H   0  0  0  0  0  0  0  0  0  0  0  0
   63.9781   31.7713   48.8971 H   0  0  0  0  0  0  0  0  0  0  0  0
   64.8344   32.9354   46.8627 H   0  0  0  0  0  0  0  0  0  0  0  0
   63.2819   34.2945   45.4586 H   0  0  0  0  0  0  0  0  0  0  0  0
   60.8620   34.4408   46.0486 H   0  0  0  0  0  0  0  0  0  0  0  0
   56.9440   32.6750   47.5320 H   0  0  0  0  0  0  0  0  0  0  0  0
   56.6201   32.5845   45.3938 H   0  0  0  0  0  0  0  0  0  0  0  0
   58.4679   30.2523   45.1181 H   0  0  0  0  0  0  0  0  0  0  0  0
   57.1477   30.2441   46.4118 H   0  0  0  0  0  0  0  0  0  0  0  0
   56.4719   29.0501   44.3813 H   0  0  0  0  0  0  0  0  0  0  0  0
   55.4786   30.5758   44.7601 H   0  0  0  0  0  0  0  0  0  0  0  0
   56.4689   29.7793   42.2911 H   0  0  0  0  0  0  0  0  0  0  0  0
   55.7823   31.4102   42.8345 H   0  0  0  0  0  0  0  0  0  0  0  0
   58.7208   30.7694   42.9998 H   0  0  0  0  0  0  0  0  0  0  0  0
   57.8952   31.4553   41.4995 H   0  0  0  0  0  0  0  0  0  0  0  0
   58.7605   33.3393   42.4951 H   0  0  0  0  0  0  0  0  0  0  0  0
   57.0406   33.2630   43.1075 H   0  0  0  0  0  0  0  0  0  0  0  0
   59.5221   32.3918   44.6285 H   0  0  0  0  0  0  0  0  0  0  0  0
   58.5451   33.9352   44.8533 H   0  0  0  0  0  0  0  0  0  0  0  0
  1  2  1  0
  2  3  2  0
  3  4  1  0
  4  5  2  0
  5  6  1  0
  6  7  1  0
  7  8  1  0
  8  9  2  0
  9 10  1  0
 10 11  2  0
 11 12  1  0
 12 13  2  0
  7 14  1  0
 14 15  2  0
 14 16  1  0
 16 17  1  0
 17 18  1  0
 18 19  1  0
 19 20  1  0
 20 21  1  0
 21 22  1  0
 22 23  1  0
  5 24  1  0
 24  2  1  0
 16  6  1  0
 23 17  1  0
 13  8  1  0
  1 25  1  0
  1 26  1  0
  1 27  1  0
  3 28  1  0
  4 29  1  0
  6 30  1  1
  7 31  1  1
  9 32  1  0
 10 33  1  0
 11 34  1  0
 12 35  1  0
 13 36  1  0
 16 37  1  1
 17 38  1  0
 18 39  1  0
 18 40  1  0
 19 41  1  0
 19 42  1  0
 20 43  1  0
 20 44  1  0
 21 45  1  0
 21 46  1  0
 22 47  1  0
 22 48  1  0
 23 49  1  0
 23 50  1  0
M  CHG  1  16   1
M  END
>  <UniqueID>  (12) 
12

>  <SMILES>  (12) 
Cc1ccc([C@H]2[C@@H](c3ccccc3)C(=O)[NH+]2C2CCCCCC2)s1

>  <Energy>  (12) 
162.54955176430934

>  <Genealogy>  (12) 
Cc1ccc(C2C(c3ccccc3)C(=O)[NH+]2C2CCCCCC2)s1 (protonated)
Cc1ccc([C@H]2[C@@H](c3ccccc3)C(=O)[NH+]2C2CCCCCC2)s1 (chirality)
Cc1ccc([C@H]2[C@@H](c3ccccc3)C(=O)[NH+]2C2CCCCCC2)s1 (3D coordinates assigned)
Cc1ccc([C@H]2[C@@H](c3ccccc3)C(=O)[NH+]2C2CCCCCC2)s1 (nonaromatic ring conformer: 162.54955176430934 kcal/mol)

>  <smiles>  (12) 
Cc1ccc(C2C(c3ccccc3)C(=O)N2C2CCCCCC2)s1

>  <score_type>  (12) 
oracle

>  <origin>  (12) 
adg

>  <m_score__min__energy>  (12) 
-5.3499999999999996

>  <m_primary>  (12) 
energy

$$$$
12:0
     RDKit          3D

 42 44  0  0  0  0  0  0  0  0999 V2000
   56.2932   31.9049   43.0749 H   0  0  0  0  0  0  0  0  0  0  0  0
   56.7690   31.1160   43.6760 C   0  0  0  0  0  0  0  0  0  0  0  0
   58.1200   31.2250   44.0250 C   0  0  0  0  0  0  0  0  0  0  0  0
   58.7009   32.0997   43.6972 H   0  0  0  0  0  0  0  0  0  0  0  0
   58.7350   30.2280   44.7880 C   0  0  0  0  0  0  0  0  0  0  0  0
   59.7972   30.3180   45.0592 H   0  0  0  0  0  0  0  0  0  0  0  0
   57.9930   29.1100   45.2080 C   0  0  0  0  0  0  0  0  0  0  0  0
   56.6250   29.0040   44.8520 C   0  0  0  0  0  0  0  0  0  0  0  0
   55.9030   27.9190   45.2570 N   0  0  0  0  0  0  0  0  0  0  0  0
   56.4610   26.9200   46.0000 C   0  0  0  0  0  0  0  0  0  0  0  0
   55.7650   25.8870   46.3780 N   0  0  0  0  0  0  0  0  0  0  0  0
   55.2920   24.8230   45.4920 C   0  0  0  0  0  0  0  0  0  0  0  0
   54.3871   25.1668   44.9696 H   0  0  0  0  0  0  0  0  0  0  0  0
   55.0737   23.9336   46.1013 H   0  0  0  0  0  0  0  0  0  0  0  0
   56.3580   24.4510   44.4540 C   0  0  0  0  0  0  0  0  0  0  0  0
   57.0638   25.2881   44.3487 H   0  0  0  0  0  0  0  0  0  0  0  0
   55.8558   24.2446   43.4974 H   0  0  0  0  0  0  0  0  0  0  0  0
   57.1030   23.2400   44.8630 N   0  0  0  0  0  0  0  0  0  0  0  0
   56.9940   22.1210   43.8970 C   0  0  0  0  0  0  0  0  0  0  0  0
   56.4298   21.2951   44.3548 H   0  0  0  0  0  0  0  0  0  0  0  0
   58.0011   21.7712   43.6260 H   0  0  0  0  0  0  0  0  0  0  0  0
   56.2690   22.5990   42.6460 C   0  0  0  0  0  0  0  0  0  0  0  0
   55.3832   23.1830   42.9362 H   0  0  0  0  0  0  0  0  0  0  0  0
   56.9445   23.2295   42.0491 H   0  0  0  0  0  0  0  0  0  0  0  0
   55.9557   21.7298   42.0491 H   0  0  0  0  0  0  0  0  0  0  0  0
   58.5000   23.5310   45.2580 C   0  0  0  0  0  0  0  0  0  0  0  0
   58.8142   24.4616   44.7628 H   0  0  0  0  0  0  0  0  0  0  0  0
   58.5133   23.6140   46.3548 H   0  0  0  0  0  0  0  0  0  0  0  0
   59.4920   22.4220   44.8800 C   0  0  0  0  0  0  0  0  0  0  0  0
   59.8992   21.9668   45.7949 H   0  0  0  0  0  0  0  0  0  0  0  0
   58.9744   21.6535   44.2871 H   0  0  0  0  0  0  0  0  0  0  0  0
   60.3132   22.8511   44.2871 H   0  0  0  0  0  0  0  0  0  0  0  0
   57.8090   27.0340   46.3480 C   0  0  0  0  0  0  0  0  0  0  0  0
   58.5900   26.1620   47.0820 C   0  0  0  0  0  0  0  0  0  0  0  0
   58.2772   25.2089   47.5334 H   0  0  0  0  0  0  0  0  0  0  0  0
   59.8490   26.7380   47.1310 C   0  0  0  0  0  0  0  0  0  0  0  0
   60.7359   26.3258   47.6346 H   0  0  0  0  0  0  0  0  0  0  0  0
   59.7830   27.9310   46.4270 C   0  0  0  0  0  0  0  0  0  0  0  0
   60.6196   28.6295   46.2782 H   0  0  0  0  0  0  0  0  0  0  0  0
   58.5300   28.1000   45.9530 N   0  0  0  0  0  0  0  0  0  0  0  0
   56.0220   30.0090   44.0880 C   0  0  0  0  0  0  0  0  0  0  0  0
   54.9604   29.9279   43.8117 H   0  0  0  0  0  0  0  0  0  0  0  0
  1  2  1  0
  2  3  2  0
  3  4  1  0
  3  5  1  0
  5  6  1  0
  5  7  2  0
  7  8  1  0
  8  9  1  0
  9 10  1  0
 10 11  2  0
 11 12  1  0
 12 13  1  0
 12 14  1  0
 12 15  1  0
 15 16  1  0
 15 17  1  0
 15 18  1  0
 18 19  1  0
 19 20  1  0
 19 21  1  0
 19 22  1  0
 22 23  1  0
 22 24  1  0
 22 25  1  0
 18 26  1  0
 26 27  1  0
 26 28  1  0
 26 29  1  0
 29 30  1  0
 29 31  1  0
 29 32  1  0
 10 33  1  0
 33 34  2  0
 34 35  1  0
 34 36  1  0
 36 37  1  0
 36 38  2  0
 38 39  1  0
 38 40  1  0
  8 41  2  0
 41 42  1  0
 41  2  1  0
 40  7  1  0
 40 33  1  0
M  CHG  1   9  -1
M  END
>  <UniqueID>  (13) 
13

>  <SMILES>  (13) 
CCN(CC)CC/N=c1\[n-]c2ccccc2n2cccc12

>  <Energy>  (13) 
79.0678132054634

>  <Genealogy>  (13) 
CCN(CC)CCN=c1[n-]c2ccccc2n2cccc12 (protonated)
CCN(CC)CC/N=c1\[n-]c2ccccc2n2cccc12 (cis-trans isomerization)
CCN(CC)CC/N=c1\[n-]c2ccccc2n2cccc12 (3D coordinates assigned)
CCN(CC)CC/N=c1\[n-]c2ccccc2n2cccc12 (optimized conformer: 79.0678132054634 kcal/mol)

>  <smiles>  (13) 
CCN(CC)CCN=c1[nH]c2ccccc2n2cccc12

>  <score_type>  (13) 
oracle

>  <origin>  (13) 
adg

>  <m_score__min__energy>  (13) 
-8.3900000000000006

>  <m_primary>  (13) 
energy

$$$$
13:0
     RDKit          3D

 28 29  0  0  0  0  0  0  0  0999 V2000
   53.9680   23.7480   44.4800 C   0  0  0  0  0  0  0  0  0  0  0  0
   54.9330   23.6120   45.6550 C   0  0  0  0  0  0  0  0  0  0  0  0
   56.1220   24.4600   45.4540 N   0  0  0  0  0  0  0  0  0  0  0  0
   57.3420   24.0810   44.9360 C   0  0  0  0  0  0  0  0  0  0  0  0
   57.7310   22.8490   44.5140 C   0  0  0  0  0  0  0  0  0  0  0  0
   59.0060   22.3100   44.9220 C   0  0  0  0  0  0  0  0  0  0  0  0
   60.0290   21.8770   45.2490 N   0  0  0  0  0  0  0  0  0  0  0  0
   56.9430   21.9780   43.6840 C   0  0  0  0  0  0  0  0  0  0  0  0
   56.3110   21.2630   43.0270 N   0  0  0  0  0  0  0  0  0  0  0  0
   58.3770   25.4180   44.9030 S   0  0  0  0  0  0  0  0  0  0  0  0
   57.2880   26.4950   45.5840 C   0  0  0  0  0  0  0  0  0  0  0  0
   57.4720   27.8050   45.8260 C   0  0  0  0  0  0  0  0  0  0  0  0
   56.9550   28.9100   44.9940 C   0  0  0  0  0  0  0  0  0  0  0  0
   57.6770   29.8320   44.2550 C   0  0  0  0  0  0  0  0  0  0  0  0
   56.7440   30.6750   43.6920 C   0  0  0  0  0  0  0  0  0  0  0  0
   55.5140   30.2260   44.1240 C   0  0  0  0  0  0  0  0  0  0  0  0
   55.6730   29.1790   44.9000 O   0  0  0  0  0  0  0  0  0  0  0  0
   56.1090   25.7860   45.8160 C   0  0  0  0  0  0  0  0  0  0  0  0
   55.0930   26.3290   46.3320 O   0  0  0  0  0  0  0  0  0  0  0  0
   52.9458   23.8921   44.8598 H   0  0  0  0  0  0  0  0  0  0  0  0
   54.2568   24.6143   43.8667 H   0  0  0  0  0  0  0  0  0  0  0  0
   54.0061   22.8356   43.8667 H   0  0  0  0  0  0  0  0  0  0  0  0
   54.4221   23.9198   46.5793 H   0  0  0  0  0  0  0  0  0  0  0  0
   55.2553   22.5628   45.7281 H   0  0  0  0  0  0  0  0  0  0  0  0
   58.0562   28.0759   46.7178 H   0  0  0  0  0  0  0  0  0  0  0  0
   58.7700   29.8812   44.1410 H   0  0  0  0  0  0  0  0  0  0  0  0
   56.9405   31.5325   43.0317 H   0  0  0  0  0  0  0  0  0  0  0  0
   54.5463   30.6767   43.8587 H   0  0  0  0  0  0  0  0  0  0  0  0
  1  2  1  0
  2  3  1  0
  3  4  1  0
  4  5  2  3
  5  6  1  0
  6  7  3  0
  5  8  1  0
  8  9  3  0
  4 10  1  0
 10 11  1  0
 11 12  2  3
 12 13  1  0
 13 14  2  0
 14 15  1  0
 15 16  2  0
 16 17  1  0
 11 18  1  0
 18 19  2  0
 18  3  1  0
 17 13  1  0
  1 20  1  0
  1 21  1  0
  1 22  1  0
  2 23  1  0
  2 24  1  0
 12 25  1  0
 14 26  1  0
 15 27  1  0
 16 28  1  0
M  END
>  <UniqueID>  (14) 
14

>  <SMILES>  (14) 
CCn1c(=C(C#N)C#N)sc(=Cc2ccco2)c1=O

>  <Energy>  (14) 
95.25479968418166

>  <Genealogy>  (14) 
CCn1c(=C(C#N)C#N)sc(=Cc2ccco2)c1=O (3D coordinates assigned)
CCn1c(=C(C#N)C#N)sc(=Cc2ccco2)c1=O (optimized conformer: 95.25479968418166 kcal/mol)

>  <smiles>  (14) 
CCn1c(=C(C#N)C#N)sc(=Cc2ccco2)c1=O

>  <score_type>  (14) 
oracle

>  <origin>  (14) 
adg

>  <m_score__min__energy>  (14) 
-7.21

>  <m_primary>  (14) 
energy

$$$$
14:0
     RDKit          3D

 55 57  0  0  0  0  0  0  0  0999 V2000
   56.1340   24.8300   45.2670 C   0  0  0  0  0  0  0  0  0  0  0  0
   55.8740   26.0270   45.9910 O   0  0  0  0  0  0  0  0  0  0  0  0
   56.8010   27.0660   46.1690 C   0  0  0  0  0  0  0  0  0  0  0  0
   57.9110   26.8300   46.9800 C   0  0  0  0  0  0  0  0  0  0  0  0
   58.8630   27.8280   47.1880 C   0  0  0  0  0  0  0  0  0  0  0  0
   58.7300   29.0810   46.5760 C   0  0  0  0  0  0  0  0  0  0  0  0
   59.7330   30.0820   46.8270 N   0  0  0  0  0  0  0  0  0  0  0  0
   60.5160   30.1370   48.0310 C   0  0  0  0  0  0  0  0  0  0  0  0
   60.2590   29.3510   48.9830 O   0  0  0  0  0  0  0  0  0  0  0  0
   61.5580   31.1790   48.2150 C   0  0  0  0  0  0  0  0  0  0  0  0
   62.4170   31.4740   47.1380 C   0  0  0  0  0  0  0  0  0  0  0  0
   63.4340   32.4200   47.2740 C   0  0  0  0  0  0  0  0  0  0  0  0
   63.6100   33.0890   48.4830 C   0  0  0  0  0  0  0  0  0  0  0  0
   62.7590   32.8260   49.5560 C   0  0  0  0  0  0  0  0  0  0  0  0
   61.7260   31.8830   49.4350 C   0  0  0  0  0  0  0  0  0  0  0  0
   60.7850   31.7470   50.5090 N   0  0  0  0  0  0  0  0  0  0  0  0
   61.2670   31.4560   51.8570 C   0  0  0  0  0  0  0  0  0  0  0  0
   59.2040   32.4420   50.3230 S   0  0  0  0  0  0  0  0  0  0  0  0
   58.9800   33.4840   51.3840 O   0  0  0  0  0  0  0  0  0  0  0  0
   58.1610   31.3720   50.4710 O   0  0  0  0  0  0  0  0  0  0  0  0
   59.0660   33.2040   48.7400 C   0  0  0  0  0  0  0  0  0  0  0  0
   59.8820   34.2950   48.4110 C   0  0  0  0  0  0  0  0  0  0  0  0
   59.8170   34.8640   47.1350 C   0  0  0  0  0  0  0  0  0  0  0  0
   58.9470   34.3350   46.1690 C   0  0  0  0  0  0  0  0  0  0  0  0
   58.8510   34.9640   44.8110 C   0  0  0  0  0  0  0  0  0  0  0  0
   58.1230   33.2490   46.5040 C   0  0  0  0  0  0  0  0  0  0  0  0
   58.1900   32.6830   47.7800 C   0  0  0  0  0  0  0  0  0  0  0  0
   57.5980   29.3480   45.7740 C   0  0  0  0  0  0  0  0  0  0  0  0
   57.4360   30.6280   45.2190 O   0  0  0  0  0  0  0  0  0  0  0  0
   57.4180   30.9090   43.8230 C   0  0  0  0  0  0  0  0  0  0  0  0
   56.6450   28.3280   45.5660 C   0  0  0  0  0  0  0  0  0  0  0  0
   56.3130   24.0059   45.9732 H   0  0  0  0  0  0  0  0  0  0  0  0
   55.2673   24.5887   44.6340 H   0  0  0  0  0  0  0  0  0  0  0  0
   57.0227   24.9700   44.6340 H   0  0  0  0  0  0  0  0  0  0  0  0
   58.0367   25.8482   47.4598 H   0  0  0  0  0  0  0  0  0  0  0  0
   59.7269   27.6291   47.8392 H   0  0  0  0  0  0  0  0  0  0  0  0
   59.7080   30.9390   46.2310 H   0  0  0  0  0  0  0  0  0  0  0  0
   62.2845   30.9525   46.1786 H   0  0  0  0  0  0  0  0  0  0  0  0
   64.0981   32.6378   46.4245 H   0  0  0  0  0  0  0  0  0  0  0  0
   64.4204   33.8249   48.5914 H   0  0  0  0  0  0  0  0  0  0  0  0
   62.8984   33.3625   50.5061 H   0  0  0  0  0  0  0  0  0  0  0  0
   60.5687   31.8776   52.5950 H   0  0  0  0  0  0  0  0  0  0  0  0
   61.3334   30.3668   51.9955 H   0  0  0  0  0  0  0  0  0  0  0  0
   62.2618   31.9045   51.9955 H   0  0  0  0  0  0  0  0  0  0  0  0
   60.5762   34.7053   49.1592 H   0  0  0  0  0  0  0  0  0  0  0  0
   60.4499   35.7290   46.8877 H   0  0  0  0  0  0  0  0  0  0  0  0
   58.6858   36.0462   44.9190 H   0  0  0  0  0  0  0  0  0  0  0  0
   59.7862   34.7891   44.2590 H   0  0  0  0  0  0  0  0  0  0  0  0
   58.0105   34.5181   44.2590 H   0  0  0  0  0  0  0  0  0  0  0  0
   57.4224   32.8423   45.7599 H   0  0  0  0  0  0  0  0  0  0  0  0
   57.5511   31.8236   48.0315 H   0  0  0  0  0  0  0  0  0  0  0  0
   57.3484   31.9959   43.6686 H   0  0  0  0  0  0  0  0  0  0  0  0
   58.3422   30.5315   43.3610 H   0  0  0  0  0  0  0  0  0  0  0  0
   56.5496   30.4167   43.3610 H   0  0  0  0  0  0  0  0  0  0  0  0
   55.7714   28.5214   44.9261 H   0  0  0  0  0  0  0  0  0  0  0  0
  1  2  1  0
  2  3  1  0
  3  4  2  0
  4  5  1  0
  5  6  2  0
  6  7  1  0
  7  8  1  0
  8  9  2  0
  8 10  1  0
 10 11  2  0
 11 12  1  0
 12 13  2  0
 13 14  1  0
 14 15  2  0
 15 16  1  0
 16 17  1  0
 16 18  1  0
 18 19  2  0
 18 20  2  0
 18 21  1  0
 21 22  2  0
 22 23  1  0
 23 24  2  0
 24 25  1  0
 24 26  1  0
 26 27  2  0
  6 28  1  0
 28 29  1  0
 29 30  1  0
 28 31  2  0
 31  3  1  0
 15 10  1  0
 27 21  1  0
  1 32  1  0
  1 33  1  0
  1 34  1  0
  4 35  1  0
  5 36  1  0
  7 37  1  0
 11 38  1  0
 12 39  1  0
 13 40  1  0
 14 41  1  0
 17 42  1  0
 17 43  1  0
 17 44  1  0
 22 45  1  0
 23 46  1  0
 25 47  1  0
 25 48  1  0
 25 49  1  0
 26 50  1  0
 27 51  1  0
 30 52  1  0
 30 53  1  0
 30 54  1  0
 31 55  1  0
M  END
>  <UniqueID>  (15) 
15

>  <SMILES>  (15) 
COc1ccc(NC(=O)c2ccccc2N(C)S(=O)(=O)c2ccc(C)cc2)c(OC)c1

>  <Energy>  (15) 
67.1107110943205

>  <Genealogy>  (15) 
COc1ccc(NC(=O)c2ccccc2N(C)S(=O)(=O)c2ccc(C)cc2)c(OC)c1 (3D coordinates assigned)
COc1ccc(NC(=O)c2ccccc2N(C)S(=O)(=O)c2ccc(C)cc2)c(OC)c1 (optimized conformer: 67.1107110943205 kcal/mol)

>  <smiles>  (15) 
COc1ccc(NC(=O)c2ccccc2N(C)S(=O)(=O)c2ccc(C)cc2)c(OC)c1

>  <score_type>  (15) 
oracle

>  <origin>  (15) 
adg

>  <m_score__min__energy>  (15) 
-9.6400000000000006

>  <m_primary>  (15) 
energy

$$$$
15:0
     RDKit          3D

 24 25  0  0  0  0  0  0  0  0999 V2000
   55.3970   31.5990   51.9920 N   0  0  0  0  0  0  0  0  0  0  0  0
   55.5590   30.3510   52.7400 C   0  0  0  0  0  0  0  0  0  0  0  0
   54.2500   29.5510   52.8120 C   0  0  0  0  0  0  0  0  0  0  0  0
   53.1070   30.3890   53.3280 C   0  0  0  0  0  0  0  0  0  0  0  0
   52.8100   30.4230   54.7080 C   0  0  0  0  0  0  0  0  0  0  0  0
   51.7590   31.2240   55.2000 C   0  0  0  0  0  0  0  0  0  0  0  0
   50.9900   32.0100   54.3250 C   0  0  0  0  0  0  0  0  0  0  0  0
   51.3000   31.9710   52.9680 C   0  0  0  0  0  0  0  0  0  0  0  0
   50.6840   32.6610   51.9900 N   0  0  0  0  0  0  0  0  0  0  0  0
   51.3470   32.2960   50.8690 C   0  0  0  0  0  0  0  0  0  0  0  0
   51.0290   32.7840   49.6100 O   0  0  0  0  0  0  0  0  0  0  0  0
   52.3660   31.3910   51.1200 C   0  0  0  0  0  0  0  0  0  0  0  0
   52.3220   31.1910   52.4830 C   0  0  0  0  0  0  0  0  0  0  0  0
   55.5470   31.4320   50.9710 H   0  0  0  0  0  0  0  0  0  0  0  0
   54.4440   31.9980   52.1540 H   0  0  0  0  0  0  0  0  0  0  0  0
   56.1070   32.2900   52.3280 H   0  0  0  0  0  0  0  0  0  0  0  0
   56.3245   29.7362   52.2440 H   0  0  0  0  0  0  0  0  0  0  0  0
   55.8588   30.6062   53.7671 H   0  0  0  0  0  0  0  0  0  0  0  0
   53.9987   29.1885   51.8043 H   0  0  0  0  0  0  0  0  0  0  0  0
   54.4002   28.7130   53.5085 H   0  0  0  0  0  0  0  0  0  0  0  0
   53.4054   29.8176   55.4073 H   0  0  0  0  0  0  0  0  0  0  0  0
   51.5392   31.2337   56.2778 H   0  0  0  0  0  0  0  0  0  0  0  0
   50.1680   32.6371   54.7007 H   0  0  0  0  0  0  0  0  0  0  0  0
   53.0553   30.9347   50.3943 H   0  0  0  0  0  0  0  0  0  0  0  0
  1  2  1  0
  2  3  1  0
  3  4  1  0
  4  5  2  0
  5  6  1  0
  6  7  2  0
  7  8  1  0
  8  9  1  0
  9 10  1  0
 10 11  1  0
 10 12  2  0
 12 13  1  0
 13  4  1  0
 13  8  2  0
  1 14  1  0
  1 15  1  0
  1 16  1  0
  2 17  1  0
  2 18  1  0
  3 19  1  0
  3 20  1  0
  5 21  1  0
  6 22  1  0
  7 23  1  0
 12 24  1  0
M  CHG  3   1   1   9  -1  11  -1
M  END
>  <UniqueID>  (16) 
16

>  <SMILES>  (16) 
[NH3+]CCc1cccc2[n-]c([O-])cc12

>  <Energy>  (16) 
52.8170180650723

>  <Genealogy>  (16) 
[NH3+]CCc1cccc2[n-]c([O-])cc12 (protonated)
[NH3+]CCc1cccc2[n-]c([O-])cc12 (3D coordinates assigned)
[NH3+]CCc1cccc2[n-]c([O-])cc12 (optimized conformer: 52.8170180650723 kcal/mol)

>  <smiles>  (16) 
NCCc1cccc2[nH]c(O)cc12

>  <score_type>  (16) 
oracle

>  <origin>  (16) 
adg

>  <m_score__min__energy>  (16) 
-11.130000000000001

>  <m_primary>  (16) 
energy

$$$$
16:0
     RDKit          3D

 40 40  0  0  0  0  0  0  0  0999 V2000
   56.3100   30.4760   44.1270 C   0  0  0  0  0  0  0  0  0  0  0  0
   57.0640   31.0400   42.9230 C   0  0  0  0  0  0  0  0  0  0  0  0
   58.0240   32.1920   43.2970 C   0  0  0  0  0  0  0  0  0  0  0  0
   57.5920   32.9760   44.5490 C   0  0  0  0  0  0  0  0  0  0  0  0
   58.5370   32.8130   45.7550 C   0  0  0  0  0  0  0  0  0  0  0  0
   59.0790   31.4450   45.8880 N   0  0  0  0  0  0  0  0  0  0  0  0
   60.2940   31.4030   46.7100 C   0  0  0  0  0  0  0  0  0  0  0  0
   61.0410   30.0790   46.4770 C   0  0  0  0  0  0  0  0  0  0  0  0
   60.5570   29.3710   45.2790 N   0  0  0  0  0  0  0  0  0  0  0  0
   59.4160   28.5370   45.5750 C   0  0  0  0  0  0  0  0  0  0  0  0
   58.6070   28.0450   44.5380 C   0  0  0  0  0  0  0  0  0  0  0  0
   57.5130   27.2210   44.8210 C   0  0  0  0  0  0  0  0  0  0  0  0
   57.2090   26.8700   46.1490 C   0  0  0  0  0  0  0  0  0  0  0  0
   56.0860   26.0210   46.4450 N   0  0  0  0  0  0  0  0  0  0  0  0
   56.2340   24.9830   47.1240 O   0  0  0  0  0  0  0  0  0  0  0  0
   54.8280   26.3370   45.9850 O   0  0  0  0  0  0  0  0  0  0  0  0
   58.0220   27.3610   47.1850 C   0  0  0  0  0  0  0  0  0  0  0  0
   59.1140   28.1860   46.9020 C   0  0  0  0  0  0  0  0  0  0  0  0
   56.7833   30.8300   45.0547 H   0  0  0  0  0  0  0  0  0  0  0  0
   55.2641   30.8152   44.0964 H   0  0  0  0  0  0  0  0  0  0  0  0
   56.3400   29.3768   44.0964 H   0  0  0  0  0  0  0  0  0  0  0  0
   57.6505   30.2295   42.4657 H   0  0  0  0  0  0  0  0  0  0  0  0
   56.3155   31.4481   42.2278 H   0  0  0  0  0  0  0  0  0  0  0  0
   59.0217   31.7668   43.4807 H   0  0  0  0  0  0  0  0  0  0  0  0
   58.0181   32.9010   42.4560 H   0  0  0  0  0  0  0  0  0  0  0  0
   57.5465   34.0437   44.2885 H   0  0  0  0  0  0  0  0  0  0  0  0
   56.6168   32.5694   44.8550 H   0  0  0  0  0  0  0  0  0  0  0  0
   59.3778   33.5125   45.6375 H   0  0  0  0  0  0  0  0  0  0  0  0
   57.9498   33.0219   46.6614 H   0  0  0  0  0  0  0  0  0  0  0  0
   58.3690   30.7970   46.3030 H   0  0  0  0  0  0  0  0  0  0  0  0
   60.9484   32.2436   46.4360 H   0  0  0  0  0  0  0  0  0  0  0  0
   60.0148   31.4782   47.7713 H   0  0  0  0  0  0  0  0  0  0  0  0
   62.1127   30.2938   46.3529 H   0  0  0  0  0  0  0  0  0  0  0  0
   60.8611   29.4316   47.3479 H   0  0  0  0  0  0  0  0  0  0  0  0
   60.3280   30.0610   44.5260 H   0  0  0  0  0  0  0  0  0  0  0  0
   61.3300   28.7670   44.9140 H   0  0  0  0  0  0  0  0  0  0  0  0
   58.8355   28.3097   43.4951 H   0  0  0  0  0  0  0  0  0  0  0  0
   56.8858   26.8447   43.9994 H   0  0  0  0  0  0  0  0  0  0  0  0
   57.7968   27.0935   48.2279 H   0  0  0  0  0  0  0  0  0  0  0  0
   59.7412   28.5631   47.7232 H   0  0  0  0  0  0  0  0  0  0  0  0
  1  2  1  0
  2  3  1  0
  3  4  1  0
  4  5  1  0
  5  6  1  0
  6  7  1  0
  7  8  1  0
  8  9  1  0
  9 10  1  0
 10 11  2  0
 11 12  1  0
 12 13  2  0
 13 14  1  0
 14 15  2  0
 14 16  1  0
 13 17  1  0
 17 18  2  0
 18 10  1  0
  1 19  1  0
  1 20  1  0
  1 21  1  0
  2 22  1  0
  2 23  1  0
  3 24  1  0
  3 25  1  0
  4 26  1  0
  4 27  1  0
  5 28  1  0
  5 29  1  0
  6 30  1  0
  7 31  1  0
  7 32  1  0
  8 33  1  0
  8 34  1  0
  9 35  1  0
  9 36  1  0
 11 37  1  0
 12 38  1  0
 17 39  1  0
 18 40  1  0
M  CHG  3   9   1  14   1  16  -1
M  END
>  <UniqueID>  (17) 
17

>  <SMILES>  (17) 
CCCCCNCC[NH2+]c1ccc([N+](=O)[O-])cc1

>  <Energy>  (17) 
35.94811744601152

>  <Genealogy>  (17) 
CCCCCNCC[NH2+]c1ccc([N+](=O)[O-])cc1 (protonated)
CCCCCNCC[NH2+]c1ccc([N+](=O)[O-])cc1 (3D coordinates assigned)
CCCCCNCC[NH2+]c1ccc([N+](=O)[O-])cc1 (optimized conformer: 35.94811744601152 kcal/mol)

>  <smiles>  (17) 
CCCCCNCCNc1ccc([N+](=O)[O-])cc1

>  <score_type>  (17) 
oracle

>  <origin>  (17) 
adg

>  <m_score__min__energy>  (17) 
-4.04

>  <m_primary>  (17) 
energy

$$$$
17:0
     RDKit          3D

 50 52  0  0  0  0  0  0  0  0999 V2000
   55.2310   29.4900   44.8410 O   0  0  0  0  0  0  0  0  0  0  0  0
   56.2360   28.8390   45.2350 C   0  0  0  0  0  0  0  0  0  0  0  0
   56.0970   27.4680   45.6200 N   0  0  0  0  0  0  0  0  0  0  0  0
   57.0830   26.4370   45.3110 C   0  0  0  0  0  0  0  0  0  0  0  0
   57.8440   26.0270   46.5750 C   0  0  0  0  0  0  0  0  0  0  0  0
   59.3260   26.4190   46.4810 C   0  0  0  0  0  0  0  0  0  0  0  0
   59.5310   27.8320   46.8670 N   0  0  0  0  0  0  0  0  0  0  0  0
   60.3710   28.5540   45.8750 C   0  0  0  0  0  0  0  0  0  0  0  0
   61.1340   29.7630   46.4610 C   0  0  0  0  0  0  0  0  0  0  0  0
   60.4640   30.2920   47.6540 N   0  0  0  0  0  0  0  0  0  0  0  0
   60.5270   31.7000   47.9420 C   0  0  0  0  0  0  0  0  0  0  0  0
   61.5170   32.4990   47.3440 C   0  0  0  0  0  0  0  0  0  0  0  0
   61.5870   33.8660   47.6250 C   0  0  0  0  0  0  0  0  0  0  0  0
   60.6680   34.4470   48.5040 C   0  0  0  0  0  0  0  0  0  0  0  0
   59.6770   33.6630   49.0990 C   0  0  0  0  0  0  0  0  0  0  0  0
   59.6020   32.2930   48.8210 C   0  0  0  0  0  0  0  0  0  0  0  0
   58.6080   31.5580   49.3780 F   0  0  0  0  0  0  0  0  0  0  0  0
   60.0180   29.3690   48.7040 C   0  0  0  0  0  0  0  0  0  0  0  0
   60.0960   27.9190   48.2250 C   0  0  0  0  0  0  0  0  0  0  0  0
   57.5340   29.4480   45.2680 N   0  0  0  0  0  0  0  0  0  0  0  0
   57.7750   30.8520   45.0690 C   0  0  0  0  0  0  0  0  0  0  0  0
   57.9170   31.3990   43.7800 C   0  0  0  0  0  0  0  0  0  0  0  0
   58.1270   32.7710   43.6150 C   0  0  0  0  0  0  0  0  0  0  0  0
   58.1840   33.6110   44.7310 C   0  0  0  0  0  0  0  0  0  0  0  0
   58.3860   34.9420   44.5690 F   0  0  0  0  0  0  0  0  0  0  0  0
   58.0210   33.0800   46.0120 C   0  0  0  0  0  0  0  0  0  0  0  0
   57.8090   31.7080   46.1820 C   0  0  0  0  0  0  0  0  0  0  0  0
   56.5691   25.5572   44.8964 H   0  0  0  0  0  0  0  0  0  0  0  0
   57.7993   26.8377   44.5786 H   0  0  0  0  0  0  0  0  0  0  0  0
   57.3941   26.5296   47.4439 H   0  0  0  0  0  0  0  0  0  0  0  0
   57.7783   24.9343   46.6829 H   0  0  0  0  0  0  0  0  0  0  0  0
   59.9109   25.7747   47.1539 H   0  0  0  0  0  0  0  0  0  0  0  0
   59.6547   26.2913   45.4390 H   0  0  0  0  0  0  0  0  0  0  0  0
   61.1064   27.8467   45.4641 H   0  0  0  0  0  0  0  0  0  0  0  0
   59.6893   28.9489   45.1073 H   0  0  0  0  0  0  0  0  0  0  0  0
   62.1517   29.4462   46.7330 H   0  0  0  0  0  0  0  0  0  0  0  0
   61.1624   30.5564   45.6996 H   0  0  0  0  0  0  0  0  0  0  0  0
   62.2408   32.0455   46.6508 H   0  0  0  0  0  0  0  0  0  0  0  0
   62.3652   34.4850   47.1546 H   0  0  0  0  0  0  0  0  0  0  0  0
   60.7255   35.5226   48.7272 H   0  0  0  0  0  0  0  0  0  0  0  0
   58.9535   34.1233   49.7879 H   0  0  0  0  0  0  0  0  0  0  0  0
   60.6611   29.4913   49.5880 H   0  0  0  0  0  0  0  0  0  0  0  0
   58.9723   29.6006   48.9546 H   0  0  0  0  0  0  0  0  0  0  0  0
   61.1460   27.5916   48.2094 H   0  0  0  0  0  0  0  0  0  0  0  0
   59.5262   27.2709   48.9071 H   0  0  0  0  0  0  0  0  0  0  0  0
   58.3590   28.8120   45.3500 H   0  0  0  0  0  0  0  0  0  0  0  0
   57.8625   30.7437   42.8982 H   0  0  0  0  0  0  0  0  0  0  0  0
   58.2476   33.1905   42.6053 H   0  0  0  0  0  0  0  0  0  0  0  0
   58.0594   33.7422   46.8895 H   0  0  0  0  0  0  0  0  0  0  0  0
   57.6682   31.2972   47.1927 H   0  0  0  0  0  0  0  0  0  0  0  0
  1  2  2  0
  2  3  1  0
  3  4  1  0
  4  5  1  0
  5  6  1  0
  6  7  1  0
  7  8  1  0
  8  9  1  0
  9 10  1  0
 10 11  1  0
 11 12  2  0
 12 13  1  0
 13 14  2  0
 14 15  1  0
 15 16  2  0
 16 17  1  0
 10 18  1  0
 18 19  1  0
  2 20  1  0
 20 21  1  0
 21 22  2  0
 22 23  1  0
 23 24  2  0
 24 25  1  0
 24 26  1  0
 26 27  2  0
 19  7  1  0
 27 21  1  0
 16 11  1  0
  4 28  1  0
  4 29  1  0
  5 30  1  0
  5 31  1  0
  6 32  1  0
  6 33  1  0
  8 34  1  0
  8 35  1  0
  9 36  1  0
  9 37  1  0
 12 38  1  0
 13 39  1  0
 14 40  1  0
 15 41  1  0
 18 42  1  0
 18 43  1  0
 19 44  1  0
 19 45  1  0
 20 46  1  0
 22 47  1  0
 23 48  1  0
 26 49  1  0
 27 50  1  0
M  CHG  1   3  -1
M  END
>  <UniqueID>  (18) 
18

>  <SMILES>  (18) 
O=C([N-]CCCN1CCN(c2ccccc2F)CC1)Nc1ccc(F)cc1

>  <Energy>  (18) 
60.09888679920965

>  <Genealogy>  (18) 
O=C([N-]CCCN1CCN(c2ccccc2F)CC1)Nc1ccc(F)cc1 (protonated)
O=C([N-]CCCN1CCN(c2ccccc2F)CC1)Nc1ccc(F)cc1 (3D coordinates assigned)
O=C([N-]CCCN1CCN(c2ccccc2F)CC1)Nc1ccc(F)cc1 (nonaromatic ring conformer: 60.09888679920965 kcal/mol)

>  <smiles>  (18) 
O=C(NCCCN1CCN(c2ccccc2F)CC1)Nc1ccc(F)cc1

>  <score_type>  (18) 
oracle

>  <origin>  (18) 
adg

>  <m_score__min__energy>  (18) 
-9.2699999999999996

>  <m_primary>  (18) 
energy

$$$$
18:0
     RDKit          3D

 54 56  0  0  0  0  0  0  0  0999 V2000
   59.3730   30.7090   49.7960 C   0  0  0  0  0  0  0  0  0  0  0  0
   59.6000   30.3390   48.3600 C   0  0  0  0  0  0  0  0  0  0  0  0
   60.8350   30.5880   47.7420 C   0  0  0  0  0  0  0  0  0  0  0  0
   61.0340   30.2330   46.4060 C   0  0  0  0  0  0  0  0  0  0  0  0
   60.0070   29.6250   45.6810 C   0  0  0  0  0  0  0  0  0  0  0  0
   58.7610   29.3640   46.2850 C   0  0  0  0  0  0  0  0  0  0  0  0
   57.6810   28.7310   45.5670 N   0  0  0  0  0  0  0  0  0  0  0  0
   57.3120   29.0500   44.1870 C   0  0  0  0  0  0  0  0  0  0  0  0
   56.4530   30.3250   44.1360 C   0  0  0  0  0  0  0  0  0  0  0  0
   57.1930   31.4830   43.4520 C   0  0  0  0  0  0  0  0  0  0  0  0
   57.9240   32.2770   44.4610 N   0  0  0  0  0  0  0  0  0  0  0  0
   58.6180   33.4340   43.8550 C   0  0  0  0  0  0  0  0  0  0  0  0
   59.2760   34.3390   44.9260 C   0  0  0  0  0  0  0  0  0  0  0  0
   59.3190   33.6450   46.2990 C   0  0  0  0  0  0  0  0  0  0  0  0
   60.0160   34.5270   47.3520 C   0  0  0  0  0  0  0  0  0  0  0  0
   61.3730   33.9780   47.7150 C   0  0  0  0  0  0  0  0  0  0  0  0
   62.2810   33.5990   46.7120 C   0  0  0  0  0  0  0  0  0  0  0  0
   63.5590   33.1480   47.0530 C   0  0  0  0  0  0  0  0  0  0  0  0
   63.9430   33.0760   48.3940 C   0  0  0  0  0  0  0  0  0  0  0  0
   63.0480   33.4540   49.3980 C   0  0  0  0  0  0  0  0  0  0  0  0
   61.7680   33.9060   49.0620 C   0  0  0  0  0  0  0  0  0  0  0  0
   57.8860   33.2520   46.7350 C   0  0  0  0  0  0  0  0  0  0  0  0
   57.0430   32.7240   45.5580 C   0  0  0  0  0  0  0  0  0  0  0  0
   58.5710   29.7260   47.6290 C   0  0  0  0  0  0  0  0  0  0  0  0
   59.8367   29.9533   50.4471 H   0  0  0  0  0  0  0  0  0  0  0  0
   59.8235   31.6922   49.9969 H   0  0  0  0  0  0  0  0  0  0  0  0
   58.2924   30.7528   49.9969 H   0  0  0  0  0  0  0  0  0  0  0  0
   61.6477   31.0635   48.3107 H   0  0  0  0  0  0  0  0  0  0  0  0
   62.0022   30.4328   45.9236 H   0  0  0  0  0  0  0  0  0  0  0  0
   60.1721   29.3475   44.6295 H   0  0  0  0  0  0  0  0  0  0  0  0
   57.1600   27.9540   46.0330 H   0  0  0  0  0  0  0  0  0  0  0  0
   58.2262   29.2063   43.5955 H   0  0  0  0  0  0  0  0  0  0  0  0
   56.7292   28.2136   43.7739 H   0  0  0  0  0  0  0  0  0  0  0  0
   55.5309   30.1111   43.5757 H   0  0  0  0  0  0  0  0  0  0  0  0
   56.2263   30.6265   45.1693 H   0  0  0  0  0  0  0  0  0  0  0  0
   57.9066   31.0780   42.7194 H   0  0  0  0  0  0  0  0  0  0  0  0
   56.4632   32.1287   42.9417 H   0  0  0  0  0  0  0  0  0  0  0  0
   59.3986   33.0637   43.1741 H   0  0  0  0  0  0  0  0  0  0  0  0
   57.8715   34.0339   43.3139 H   0  0  0  0  0  0  0  0  0  0  0  0
   60.3035   34.5755   44.6123 H   0  0  0  0  0  0  0  0  0  0  0  0
   58.6756   35.2558   45.0205 H   0  0  0  0  0  0  0  0  0  0  0  0
   59.9170   32.7259   46.2118 H   0  0  0  0  0  0  0  0  0  0  0  0
   60.1370   35.5421   46.9458 H   0  0  0  0  0  0  0  0  0  0  0  0
   59.3937   34.5424   48.2589 H   0  0  0  0  0  0  0  0  0  0  0  0
   61.9848   33.6575   45.6543 H   0  0  0  0  0  0  0  0  0  0  0  0
   64.2642   32.8490   46.2635 H   0  0  0  0  0  0  0  0  0  0  0  0
   64.9500   32.7217   48.6596 H   0  0  0  0  0  0  0  0  0  0  0  0
   63.3505   33.3960   50.4540 H   0  0  0  0  0  0  0  0  0  0  0  0
   61.0674   34.2064   49.8551 H   0  0  0  0  0  0  0  0  0  0  0  0
   57.9522   32.4675   47.5032 H   0  0  0  0  0  0  0  0  0  0  0  0
   57.3927   34.1543   47.1254 H   0  0  0  0  0  0  0  0  0  0  0  0
   56.4307   31.8768   45.9007 H   0  0  0  0  0  0  0  0  0  0  0  0
   56.3933   33.5320   45.1905 H   0  0  0  0  0  0  0  0  0  0  0  0
   57.6041   29.5265   48.1141 H   0  0  0  0  0  0  0  0  0  0  0  0
  1  2  1  0
  2  3  2  0
  3  4  1  0
  4  5  2  0
  5  6  1  0
  6  7  1  0
  7  8  1  0
  8  9  1  0
  9 10  1  0
 10 11  1  0
 11 12  1  0
 12 13  1  0
 13 14  1  0
 14 15  1  0
 15 16  1  0
 16 17  2  0
 17 18  1  0
 18 19  2  0
 19 20  1  0
 20 21  2  0
 14 22  1  0
 22 23  1  0
  6 24  2  0
 24  2  1  0
 23 11  1  0
 21 16  1  0
  1 25  1  0
  1 26  1  0
  1 27  1  0
  3 28  1  0
  4 29  1  0
  5 30  1  0
  7 31  1  0
  8 32  1  0
  8 33  1  0
  9 34  1  0
  9 35  1  0
 10 36  1  0
 10 37  1  0
 12 38  1  0
 12 39  1  0
 13 40  1  0
 13 41  1  0
 14 42  1  0
 15 43  1  0
 15 44  1  0
 17 45  1  0
 18 46  1  0
 19 47  1  0
 20 48  1  0
 21 49  1  0
 22 50  1  0
 22 51  1  0
 23 52  1  0
 23 53  1  0
 24 54  1  0
M  END
>  <UniqueID>  (19) 
19

>  <SMILES>  (19) 
Cc1cccc(NCCCN2CCC(Cc3ccccc3)CC2)c1

>  <Energy>  (19) 
51.73375308758544

>  <Genealogy>  (19) 
Cc1cccc(NCCCN2CCC(Cc3ccccc3)CC2)c1 (3D coordinates assigned)
Cc1cccc(NCCCN2CCC(Cc3ccccc3)CC2)c1 (nonaromatic ring conformer: 51.73375308758544 kcal/mol)

>  <smiles>  (19) 
Cc1cccc(NCCCN2CCC(Cc3ccccc3)CC2)c1

>  <score_type>  (19) 
oracle

>  <origin>  (19) 
adg

>  <m_score__min__energy>  (19) 
-8.4700000000000006

>  <m_primary>  (19) 
energy

$$$$
19:0
     RDKit          3D

 59 62  0  0  0  0  0  0  0  0999 V2000
   56.5190   29.7090   52.8380 C   0  0  0  0  0  0  0  0  0  0  0  0
   57.2620   29.8150   51.6300 O   0  0  0  0  0  0  0  0  0  0  0  0
   58.2400   30.7910   51.3780 C   0  0  0  0  0  0  0  0  0  0  0  0
   57.9730   32.1680   51.5020 C   0  0  0  0  0  0  0  0  0  0  0  0
   58.9720   33.1070   51.2350 C   0  0  0  0  0  0  0  0  0  0  0  0
   60.2420   32.6840   50.8430 C   0  0  0  0  0  0  0  0  0  0  0  0
   60.5190   31.3210   50.7160 C   0  0  0  0  0  0  0  0  0  0  0  0
   59.5190   30.3660   50.9840 C   0  0  0  0  0  0  0  0  0  0  0  0
   59.7540   28.9880   50.8640 O   0  0  0  0  0  0  0  0  0  0  0  0
   60.7510   28.4030   50.0340 C   0  0  0  0  0  0  0  0  0  0  0  0
   60.1080   27.8730   48.7900 C   0  0  0  0  0  0  0  0  0  0  0  0
   59.8390   26.5640   48.6250 N   0  0  0  0  0  0  0  0  0  0  0  0
   59.4120   26.4080   47.3830 N   0  0  0  0  0  0  0  0  0  0  0  0
   59.4050   27.6260   46.8120 C   0  0  0  0  0  0  0  0  0  0  0  0
   59.1710   27.8550   45.0450 S   0  0  0  0  0  0  0  0  0  0  0  0
   57.7340   26.7380   44.9000 C   0  0  0  0  0  0  0  0  0  0  0  0
   56.5300   27.2820   45.6140 C   0  0  0  0  0  0  0  0  0  0  0  0
   56.0650   26.6430   46.5920 O   0  0  0  0  0  0  0  0  0  0  0  0
   55.9070   28.5170   45.2340 N   0  0  0  0  0  0  0  0  0  0  0  0
   56.5230   29.5810   44.5000 C   0  0  0  0  0  0  0  0  0  0  0  0
   56.2230   29.8030   43.1460 C   0  0  0  0  0  0  0  0  0  0  0  0
   56.8250   30.8610   42.4580 C   0  0  0  0  0  0  0  0  0  0  0  0
   57.7160   31.7110   43.1190 C   0  0  0  0  0  0  0  0  0  0  0  0
   57.9960   31.5110   44.4740 C   0  0  0  0  0  0  0  0  0  0  0  0
   57.3930   30.4560   45.1650 C   0  0  0  0  0  0  0  0  0  0  0  0
   59.8050   28.5880   47.6770 N   0  0  0  0  0  0  0  0  0  0  0  0
   60.1560   29.9800   47.3490 C   0  0  0  0  0  0  0  0  0  0  0  0
   59.1180   31.0070   47.8350 C   0  0  0  0  0  0  0  0  0  0  0  0
   59.3430   32.3920   47.2840 C   0  0  0  0  0  0  0  0  0  0  0  0
   58.2760   33.2970   47.1700 C   0  0  0  0  0  0  0  0  0  0  0  0
   58.5040   34.6080   46.7390 C   0  0  0  0  0  0  0  0  0  0  0  0
   59.7950   35.0170   46.3980 C   0  0  0  0  0  0  0  0  0  0  0  0
   60.8610   34.1200   46.4930 C   0  0  0  0  0  0  0  0  0  0  0  0
   60.6390   32.8120   46.9370 C   0  0  0  0  0  0  0  0  0  0  0  0
   57.1995   29.8061   53.6968 H   0  0  0  0  0  0  0  0  0  0  0  0
   55.7645   30.5086   52.8758 H   0  0  0  0  0  0  0  0  0  0  0  0
   56.0182   28.7303   52.8758 H   0  0  0  0  0  0  0  0  0  0  0  0
   56.9727   32.5059   51.8107 H   0  0  0  0  0  0  0  0  0  0  0  0
   58.7569   34.1812   51.3340 H   0  0  0  0  0  0  0  0  0  0  0  0
   61.0271   33.4255   50.6334 H   0  0  0  0  0  0  0  0  0  0  0  0
   61.5217   30.9922   50.4056 H   0  0  0  0  0  0  0  0  0  0  0  0
   61.4991   29.1636   49.7660 H   0  0  0  0  0  0  0  0  0  0  0  0
   61.2449   27.5813   50.5733 H   0  0  0  0  0  0  0  0  0  0  0  0
   57.4888   26.6098   43.8354 H   0  0  0  0  0  0  0  0  0  0  0  0
   58.0005   25.7765   45.3631 H   0  0  0  0  0  0  0  0  0  0  0  0
   55.5130   29.1432   42.6258 H   0  0  0  0  0  0  0  0  0  0  0  0
   56.5969   31.0246   41.3944 H   0  0  0  0  0  0  0  0  0  0  0  0
   58.1965   32.5366   42.5736 H   0  0  0  0  0  0  0  0  0  0  0  0
   58.6913   32.1843   44.9968 H   0  0  0  0  0  0  0  0  0  0  0  0
   57.6022   30.3119   46.2353 H   0  0  0  0  0  0  0  0  0  0  0  0
   61.1232   30.2146   47.8174 H   0  0  0  0  0  0  0  0  0  0  0  0
   60.1941   30.0536   46.2521 H   0  0  0  0  0  0  0  0  0  0  0  0
   58.1190   30.6665   47.5251 H   0  0  0  0  0  0  0  0  0  0  0  0
   59.2139   31.0730   48.9288 H   0  0  0  0  0  0  0  0  0  0  0  0
   57.2551   32.9734   47.4210 H   0  0  0  0  0  0  0  0  0  0  0  0
   57.6661   35.3171   46.6686 H   0  0  0  0  0  0  0  0  0  0  0  0
   59.9723   36.0467   46.0542 H   0  0  0  0  0  0  0  0  0  0  0  0
   61.8763   34.4422   46.2185 H   0  0  0  0  0  0  0  0  0  0  0  0
   61.4818   32.1094   47.0149 H   0  0  0  0  0  0  0  0  0  0  0  0
  1  2  1  0
  2  3  1  0
  3  4  2  0
  4  5  1  0
  5  6  2  0
  6  7  1  0
  7  8  2  0
  8  9  1  0
  9 10  1  0
 10 11  1  0
 11 12  2  0
 12 13  1  0
 13 14  2  0
 14 15  1  0
 15 16  1  0
 16 17  1  0
 17 18  2  0
 17 19  1  0
 19 20  1  0
 20 21  2  0
 21 22  1  0
 22 23  2  0
 23 24  1  0
 24 25  2  0
 14 26  1  0
 26 27  1  0
 27 28  1  0
 28 29  1  0
 29 30  2  0
 30 31  1  0
 31 32  2  0
 32 33  1  0
 33 34  2  0
  8  3  1  0
 26 11  1  0
 34 29  1  0
 25 20  1  0
  1 35  1  0
  1 36  1  0
  1 37  1  0
  4 38  1  0
  5 39  1  0
  6 40  1  0
  7 41  1  0
 10 42  1  0
 10 43  1  0
 16 44  1  0
 16 45  1  0
 21 46  1  0
 22 47  1  0
 23 48  1  0
 24 49  1  0
 25 50  1  0
 27 51  1  0
 27 52  1  0
 28 53  1  0
 28 54  1  0
 30 55  1  0
 31 56  1  0
 32 57  1  0
 33 58  1  0
 34 59  1  0
M  CHG  1  19  -1
M  END
>  <UniqueID>  (20) 
20

>  <SMILES>  (20) 
COc1ccccc1OCc1nnc(SCC(=O)[N-]c2ccccc2)n1CCc1ccccc1

>  <Energy>  (20) 
93.74516863467204

>  <Genealogy>  (20) 
COc1ccccc1OCc1nnc(SCC(=O)[N-]c2ccccc2)n1CCc1ccccc1 (protonated)
COc1ccccc1OCc1nnc(SCC(=O)[N-]c2ccccc2)n1CCc1ccccc1 (3D coordinates assigned)
COc1ccccc1OCc1nnc(SCC(=O)[N-]c2ccccc2)n1CCc1ccccc1 (optimized conformer: 93.74516863467204 kcal/mol)

>  <smiles>  (20) 
COc1ccccc1OCc1nnc(SCC(=O)Nc2ccccc2)n1CCc1ccccc1

>  <score_type>  (20) 
oracle

>  <origin>  (20) 
adg

>  <m_score__min__energy>  (20) 
-10.74

>  <m_primary>  (20) 
energy

$$$$
20:0
     RDKit          3D

 33 34  0  0  0  0  0  0  0  0999 V2000
   59.2580   34.8800   45.0420 C   0  0  0  0  0  0  0  0  0  0  0  0
   58.3600   33.6990   44.8730 C   0  0  0  0  0  0  0  0  0  0  0  0
   57.6080   33.0740   45.8470 C   0  0  0  0  0  0  0  0  0  0  0  0
   57.0180   31.9840   45.3170 N   0  0  0  0  0  0  0  0  0  0  0  0
   57.3790   31.9130   44.0430 N   0  0  0  0  0  0  0  0  0  0  0  0
   57.0170   30.8090   43.1580 C   0  0  0  0  0  0  0  0  0  0  0  0
   55.7490   30.1240   43.6600 C   0  0  0  0  0  0  0  0  0  0  0  0
   56.0400   29.3890   44.9010 N   0  0  0  0  0  0  0  0  0  0  0  0
   57.1830   28.4820   44.7490 C   0  0  0  0  0  0  0  0  0  0  0  0
   58.2460   28.8170   45.7640 C   0  0  0  0  0  0  0  0  0  0  0  0
   59.2060   29.8060   45.4880 C   0  0  0  0  0  0  0  0  0  0  0  0
   60.2170   30.0850   46.4110 C   0  0  0  0  0  0  0  0  0  0  0  0
   60.2800   29.3810   47.6160 C   0  0  0  0  0  0  0  0  0  0  0  0
   59.3310   28.3960   47.9000 C   0  0  0  0  0  0  0  0  0  0  0  0
   58.3190   28.1080   46.9770 C   0  0  0  0  0  0  0  0  0  0  0  0
   57.4190   27.1340   47.2630 F   0  0  0  0  0  0  0  0  0  0  0  0
   58.2110   32.9280   43.7420 C   0  0  0  0  0  0  0  0  0  0  0  0
   59.4075   35.0766   46.1139 H   0  0  0  0  0  0  0  0  0  0  0  0
   60.2290   34.6731   44.5683 H   0  0  0  0  0  0  0  0  0  0  0  0
   58.7991   35.7603   44.5683 H   0  0  0  0  0  0  0  0  0  0  0  0
   57.5064   33.4114   46.8890 H   0  0  0  0  0  0  0  0  0  0  0  0
   56.8424   31.1985   42.1442 H   0  0  0  0  0  0  0  0  0  0  0  0
   57.8381   30.0772   43.1433 H   0  0  0  0  0  0  0  0  0  0  0  0
   54.9771   30.8826   43.8568 H   0  0  0  0  0  0  0  0  0  0  0  0
   55.3886   29.4197   42.8957 H   0  0  0  0  0  0  0  0  0  0  0  0
   56.2710   30.0860   45.6470 H   0  0  0  0  0  0  0  0  0  0  0  0
   56.8480   27.4453   44.9010 H   0  0  0  0  0  0  0  0  0  0  0  0
   57.6012   28.5946   43.7378 H   0  0  0  0  0  0  0  0  0  0  0  0
   59.1610   30.3631   44.5405 H   0  0  0  0  0  0  0  0  0  0  0  0
   60.9648   30.8604   46.1885 H   0  0  0  0  0  0  0  0  0  0  0  0
   61.0769   29.6023   48.3412 H   0  0  0  0  0  0  0  0  0  0  0  0
   59.3792   27.8455   48.8511 H   0  0  0  0  0  0  0  0  0  0  0  0
   58.6867   33.1089   42.7668 H   0  0  0  0  0  0  0  0  0  0  0  0
  1  2  1  0
  2  3  1  0
  3  4  2  0
  4  5  1  0
  5  6  1  0
  6  7  1  0
  7  8  1  0
  8  9  1  0
  9 10  1  0
 10 11  2  0
 11 12  1  0
 12 13  2  0
 13 14  1  0
 14 15  2  0
 15 16  1  0
  5 17  1  0
 17  2  2  0
 15 10  1  0
  1 18  1  0
  1 19  1  0
  1 20  1  0
  3 21  1  0
  6 22  1  0
  6 23  1  0
  7 24  1  0
  7 25  1  0
  8 26  1  0
  9 27  1  0
  9 28  1  0
 11 29  1  0
 12 30  1  0
 13 31  1  0
 14 32  1  0
 17 33  1  0
M  END
>  <UniqueID>  (21) 
21

>  <SMILES>  (21) 
Cc1cnn(CCNCc2ccccc2F)c1

>  <Energy>  (21) 
55.00523282515428

>  <Genealogy>  (21) 
Cc1cnn(CCNCc2ccccc2F)c1 (3D coordinates assigned)
Cc1cnn(CCNCc2ccccc2F)c1 (optimized conformer: 55.00523282515428 kcal/mol)

>  <smiles>  (21) 
Cc1cnn(CCNCc2ccccc2F)c1

>  <score_type>  (21) 
oracle

>  <origin>  (21) 
adg

>  <m_score__min__energy>  (21) 
-6.0099999999999998

>  <m_primary>  (21) 
energy

$$$$
21:0
     RDKit          3D

 47 50  0  0  0  0  0  0  0  0999 V2000
   55.1030   29.8500   44.3750 O   0  0  0  0  0  0  0  0  0  0  0  0
   56.5630   29.5110   44.2830 S   0  0  0  0  0  0  0  0  0  0  0  0
   56.9020   29.2290   42.8450 O   0  0  0  0  0  0  0  0  0  0  0  0
   56.8980   28.1360   45.3000 N   0  0  0  0  0  0  0  0  0  0  0  0
   57.7800   27.1470   44.6640 C   0  0  0  0  0  0  0  0  0  0  0  0
   58.3370   26.1960   45.7520 C   0  0  0  0  0  0  0  0  0  0  0  0
   59.8240   26.4430   46.0890 C   0  0  0  0  0  0  0  0  0  0  0  0
   60.1720   27.8800   46.1220 N   0  0  0  0  0  0  0  0  0  0  0  0
   59.6720   28.5450   47.3450 C   0  0  0  0  0  0  0  0  0  0  0  0
   60.6030   29.6560   47.7740 C   0  0  0  0  0  0  0  0  0  0  0  0
   61.3670   30.3310   46.8060 C   0  0  0  0  0  0  0  0  0  0  0  0
   62.2520   31.3460   47.1800 C   0  0  0  0  0  0  0  0  0  0  0  0
   62.3820   31.6990   48.5220 C   0  0  0  0  0  0  0  0  0  0  0  0
   61.6220   31.0450   49.4940 C   0  0  0  0  0  0  0  0  0  0  0  0
   60.7300   30.0280   49.1310 C   0  0  0  0  0  0  0  0  0  0  0  0
   59.7830   29.2500   50.3950 Cl  0  0  0  0  0  0  0  0  0  0  0  0
   59.8340   28.6160   44.8720 C   0  0  0  0  0  0  0  0  0  0  0  0
   58.9350   27.8250   43.9070 C   0  0  0  0  0  0  0  0  0  0  0  0
   57.4990   30.8740   44.8660 C   0  0  0  0  0  0  0  0  0  0  0  0
   58.0530   30.9960   46.1370 C   0  0  0  0  0  0  0  0  0  0  0  0
   58.6400   32.2490   46.3370 C   0  0  0  0  0  0  0  0  0  0  0  0
   59.2560   32.6950   47.5090 C   0  0  0  0  0  0  0  0  0  0  0  0
   59.7770   34.0010   47.5470 C   0  0  0  0  0  0  0  0  0  0  0  0
   60.5500   34.5900   49.0070 Cl  0  0  0  0  0  0  0  0  0  0  0  0
   59.6730   34.8420   46.4210 C   0  0  0  0  0  0  0  0  0  0  0  0
   59.0510   34.3850   45.2480 C   0  0  0  0  0  0  0  0  0  0  0  0
   58.5470   33.0870   45.2360 C   0  0  0  0  0  0  0  0  0  0  0  0
   57.7370   32.3000   43.9930 S   0  0  0  0  0  0  0  0  0  0  0  0
   57.1958   26.5753   43.9279 H   0  0  0  0  0  0  0  0  0  0  0  0
   57.7454   26.3330   46.6692 H   0  0  0  0  0  0  0  0  0  0  0  0
   58.2627   25.1732   45.3542 H   0  0  0  0  0  0  0  0  0  0  0  0
   60.0381   26.0066   47.0757 H   0  0  0  0  0  0  0  0  0  0  0  0
   60.4260   25.9741   45.2967 H   0  0  0  0  0  0  0  0  0  0  0  0
   58.6763   28.9670   47.1440 H   0  0  0  0  0  0  0  0  0  0  0  0
   59.6178   27.8003   48.1528 H   0  0  0  0  0  0  0  0  0  0  0  0
   61.2674   30.0579   45.7451 H   0  0  0  0  0  0  0  0  0  0  0  0
   62.8463   31.8666   46.4147 H   0  0  0  0  0  0  0  0  0  0  0  0
   63.0838   32.4934   48.8158 H   0  0  0  0  0  0  0  0  0  0  0  0
   61.7245   31.3304   50.5514 H   0  0  0  0  0  0  0  0  0  0  0  0
   59.3136   29.5452   45.1471 H   0  0  0  0  0  0  0  0  0  0  0  0
   60.7814   28.8027   44.3452 H   0  0  0  0  0  0  0  0  0  0  0  0
   58.5189   28.5132   43.1566 H   0  0  0  0  0  0  0  0  0  0  0  0
   59.5410   27.0467   43.4203 H   0  0  0  0  0  0  0  0  0  0  0  0
   58.0315   30.1996   46.8955 H   0  0  0  0  0  0  0  0  0  0  0  0
   59.3322   32.0363   48.3867 H   0  0  0  0  0  0  0  0  0  0  0  0
   60.0815   35.8625   46.4612 H   0  0  0  0  0  0  0  0  0  0  0  0
   58.9644   35.0338   44.3639 H   0  0  0  0  0  0  0  0  0  0  0  0
  1  2  2  0
  2  3  2  0
  2  4  1  0
  4  5  1  0
  5  6  1  0
  6  7  1  0
  7  8  1  0
  8  9  1  0
  9 10  1  0
 10 11  2  0
 11 12  1  0
 12 13  2  0
 13 14  1  0
 14 15  2  0
 15 16  1  0
  8 17  1  0
 17 18  1  0
  2 19  1  0
 19 20  2  0
 20 21  1  0
 21 22  2  0
 22 23  1  0
 23 24  1  0
 23 25  2  0
 25 26  1  0
 26 27  2  0
 27 28  1  0
 18  5  1  0
 28 19  1  0
 15 10  1  0
 27 21  1  0
  5 29  1  0
  6 30  1  0
  6 31  1  0
  7 32  1  0
  7 33  1  0
  9 34  1  0
  9 35  1  0
 11 36  1  0
 12 37  1  0
 13 38  1  0
 14 39  1  0
 17 40  1  0
 17 41  1  0
 18 42  1  0
 18 43  1  0
 20 44  1  0
 22 45  1  0
 25 46  1  0
 26 47  1  0
M  CHG  1   4  -1
M  END
>  <UniqueID>  (22) 
22

>  <SMILES>  (22) 
O=S(=O)([N-]C1CCN(Cc2ccccc2Cl)CC1)c1cc2cc(Cl)ccc2s1

>  <Energy>  (22) 
89.57139777044189

>  <Genealogy>  (22) 
O=S(=O)([N-]C1CCN(Cc2ccccc2Cl)CC1)c1cc2cc(Cl)ccc2s1 (protonated)
O=S(=O)([N-]C1CCN(Cc2ccccc2Cl)CC1)c1cc2cc(Cl)ccc2s1 (3D coordinates assigned)
O=S(=O)([N-]C1CCN(Cc2ccccc2Cl)CC1)c1cc2cc(Cl)ccc2s1 (nonaromatic ring conformer: 89.57139777044189 kcal/mol)

>  <smiles>  (22) 
O=S(=O)(NC1CCN(Cc2ccccc2Cl)CC1)c1cc2cc(Cl)ccc2s1

>  <score_type>  (22) 
oracle

>  <origin>  (22) 
adg

>  <m_score__min__energy>  (22) 
-10.9

>  <m_primary>  (22) 
energy

$$$$
22:0
     RDKit          3D

 49 52  0  0  0  0  0  0  0  0999 V2000
   56.2550   29.7300   42.5690 C   0  0  0  0  0  0  0  0  0  0  0  0
   55.8080   29.9110   44.0150 C   0  0  0  0  0  0  0  0  0  0  0  0
   56.9710   29.9240   44.9070 N   0  0  0  0  0  0  0  0  0  0  0  0
   57.7680   30.9840   45.2030 C   0  0  0  0  0  0  0  0  0  0  0  0
   58.7680   30.6190   46.0820 C   0  0  0  0  0  0  0  0  0  0  0  0
   58.5990   29.2710   46.3120 C   0  0  0  0  0  0  0  0  0  0  0  0
   59.3110   28.3840   47.1180 C   0  0  0  0  0  0  0  0  0  0  0  0
   58.8870   27.0440   47.1500 C   0  0  0  0  0  0  0  0  0  0  0  0
   57.7740   26.6260   46.3880 C   0  0  0  0  0  0  0  0  0  0  0  0
   57.0670   27.5460   45.5900 C   0  0  0  0  0  0  0  0  0  0  0  0
   57.5050   28.8750   45.5760 C   0  0  0  0  0  0  0  0  0  0  0  0
   59.7670   31.5640   46.6700 C   0  0  0  0  0  0  0  0  0  0  0  0
   59.5620   32.9440   46.1750 N   0  0  0  0  0  0  0  0  0  0  0  0
   60.3120   34.0240   46.7780 C   0  0  0  0  0  0  0  0  0  0  0  0
   59.9050   35.2150   46.6710 O   0  0  0  0  0  0  0  0  0  0  0  0
   61.5590   33.7710   47.5260 C   0  0  0  0  0  0  0  0  0  0  0  0
   62.7720   33.7540   46.8150 C   0  0  0  0  0  0  0  0  0  0  0  0
   63.9790   33.5030   47.4750 C   0  0  0  0  0  0  0  0  0  0  0  0
   63.9840   33.2590   48.8490 C   0  0  0  0  0  0  0  0  0  0  0  0
   62.7850   33.2680   49.5680 C   0  0  0  0  0  0  0  0  0  0  0  0
   61.5640   33.5300   48.9230 C   0  0  0  0  0  0  0  0  0  0  0  0
   60.0820   33.5640   49.8980 S   0  0  0  0  0  0  0  0  0  0  0  0
   60.4990   33.4780   51.6260 C   0  0  0  0  0  0  0  0  0  0  0  0
   59.3370   34.8460   49.6430 O   0  0  0  0  0  0  0  0  0  0  0  0
   59.1850   32.4140   49.5340 O   0  0  0  0  0  0  0  0  0  0  0  0
   58.8950   33.1700   44.8720 C   0  0  0  0  0  0  0  0  0  0  0  0
   57.5670   32.4010   44.7700 C   0  0  0  0  0  0  0  0  0  0  0  0
   57.2744   29.3172   42.5493 H   0  0  0  0  0  0  0  0  0  0  0  0
   55.5695   29.0386   42.0571 H   0  0  0  0  0  0  0  0  0  0  0  0
   56.2437   30.7036   42.0571 H   0  0  0  0  0  0  0  0  0  0  0  0
   55.2658   30.8633   44.1111 H   0  0  0  0  0  0  0  0  0  0  0  0
   55.1508   29.0744   44.2947 H   0  0  0  0  0  0  0  0  0  0  0  0
   60.1753   28.7212   47.7090 H   0  0  0  0  0  0  0  0  0  0  0  0
   59.4263   26.3156   47.7733 H   0  0  0  0  0  0  0  0  0  0  0  0
   57.4567   25.5732   46.4180 H   0  0  0  0  0  0  0  0  0  0  0  0
   56.1970   27.2296   44.9958 H   0  0  0  0  0  0  0  0  0  0  0  0
   59.6641   31.5577   47.7652 H   0  0  0  0  0  0  0  0  0  0  0  0
   60.7729   31.2347   46.3704 H   0  0  0  0  0  0  0  0  0  0  0  0
   62.7715   33.9397   45.7308 H   0  0  0  0  0  0  0  0  0  0  0  0
   64.9237   33.4979   46.9116 H   0  0  0  0  0  0  0  0  0  0  0  0
   64.9333   33.0592   49.3675 H   0  0  0  0  0  0  0  0  0  0  0  0
   62.7973   33.0680   50.6496 H   0  0  0  0  0  0  0  0  0  0  0  0
   59.5987   33.6637   52.2301 H   0  0  0  0  0  0  0  0  0  0  0  0
   60.8966   32.4790   51.8580 H   0  0  0  0  0  0  0  0  0  0  0  0
   61.2594   34.2382   51.8580 H   0  0  0  0  0  0  0  0  0  0  0  0
   58.6937   34.2453   44.7567 H   0  0  0  0  0  0  0  0  0  0  0  0
   59.5632   32.8058   44.0778 H   0  0  0  0  0  0  0  0  0  0  0  0
   56.8178   32.8783   45.4187 H   0  0  0  0  0  0  0  0  0  0  0  0
   57.2176   32.4161   43.7271 H   0  0  0  0  0  0  0  0  0  0  0  0
  1  2  1  0
  2  3  1  0
  3  4  1  0
  4  5  2  0
  5  6  1  0
  6  7  2  0
  7  8  1  0
  8  9  2  0
  9 10  1  0
 10 11  2  0
  5 12  1  0
 12 13  1  0
 13 14  1  0
 14 15  2  0
 14 16  1  0
 16 17  2  0
 17 18  1  0
 18 19  2  0
 19 20  1  0
 20 21  2  0
 21 22  1  0
 22 23  1  0
 22 24  2  0
 22 25  2  0
 13 26  1  0
 26 27  1  0
 11  3  1  0
 21 16  1  0
 27  4  1  0
 11  6  1  0
  1 28  1  0
  1 29  1  0
  1 30  1  0
  2 31  1  0
  2 32  1  0
  7 33  1  0
  8 34  1  0
  9 35  1  0
 10 36  1  0
 12 37  1  0
 12 38  1  0
 17 39  1  0
 18 40  1  0
 19 41  1  0
 20 42  1  0
 23 43  1  0
 23 44  1  0
 23 45  1  0
 26 46  1  0
 26 47  1  0
 27 48  1  0
 27 49  1  0
M  END
>  <UniqueID>  (23) 
23

>  <SMILES>  (23) 
CCn1c2c(c3ccccc31)CN(C(=O)c1ccccc1S(C)(=O)=O)CC2

>  <Energy>  (23) 
91.70384709090708

>  <Genealogy>  (23) 
CCn1c2c(c3ccccc31)CN(C(=O)c1ccccc1S(C)(=O)=O)CC2 (3D coordinates assigned)
CCn1c2c(c3ccccc31)CN(C(=O)c1ccccc1S(C)(=O)=O)CC2 (nonaromatic ring conformer: 91.70384709090708 kcal/mol)

>  <smiles>  (23) 
CCn1c2c(c3ccccc31)CN(C(=O)c1ccccc1S(C)(=O)=O)CC2

>  <score_type>  (23) 
oracle

>  <origin>  (23) 
adg

>  <m_score__min__energy>  (23) 
-8.7300000000000004

>  <m_primary>  (23) 
energy

$$$$
23:0
     RDKit          3D

 31 33  0  0  1  0  0  0  0  0999 V2000
   60.0990   26.4900   46.0810 C   0  0  0  0  0  0  0  0  0  0  0  0
   59.2070   27.5820   45.6120 C   0  0  0  0  0  0  0  0  0  0  0  0
   59.0540   28.8610   46.1840 C   0  0  0  0  0  0  0  0  0  0  0  0
   58.1330   29.4740   45.3930 C   0  0  0  0  0  0  0  0  0  0  0  0
   57.5850   30.7130   45.4460 C   0  0  0  0  0  0  0  0  0  0  0  0
   57.8570   31.5900   46.3100 N   0  0  0  0  0  0  0  0  0  0  0  0
   59.1250   32.0990   46.5410 C   0  0  0  0  0  0  0  0  0  0  0  0
   59.5240   33.2840   45.9080 C   0  0  0  0  0  0  0  0  0  0  0  0
   60.7710   33.7990   46.1960 C   0  0  0  0  0  0  0  0  0  0  0  0
   61.6270   33.1750   47.0880 C   0  0  0  0  0  0  0  0  0  0  0  0
   62.9770   33.7890   47.3590 C   0  0  0  0  0  0  0  0  0  0  0  0
   63.9060   32.8070   47.5190 F   0  0  0  0  0  0  0  0  0  0  0  0
   63.3500   34.5800   46.2920 F   0  0  0  0  0  0  0  0  0  0  0  0
   62.8790   34.5220   48.5380 F   0  0  0  0  0  0  0  0  0  0  0  0
   61.2230   32.0120   47.7030 C   0  0  0  0  0  0  0  0  0  0  0  0
   59.9780   31.4520   47.4480 C   0  0  0  0  0  0  0  0  0  0  0  0
   56.6600   31.0750   44.5000 N   0  0  0  0  0  0  0  0  0  0  0  0
   56.3230   30.1980   43.5540 C   0  0  0  0  0  0  0  0  0  0  0  0
   56.8530   28.9690   43.4850 N   0  0  0  0  0  0  0  0  0  0  0  0
   57.7400   28.6480   44.4080 N   0  0  0  0  0  0  0  0  0  0  0  0
   58.3940   27.4920   44.5380 N   0  0  0  0  0  0  0  0  0  0  0  0
   60.1120   26.4741   47.1808 H   0  0  0  0  0  0  0  0  0  0  0  0
   59.7271   25.5256   45.7047 H   0  0  0  0  0  0  0  0  0  0  0  0
   61.1182   26.6620   45.7047 H   0  0  0  0  0  0  0  0  0  0  0  0
   59.5635   29.2703   47.0688 H   0  0  0  0  0  0  0  0  0  0  0  0
   58.8569   33.7927   45.1965 H   0  0  0  0  0  0  0  0  0  0  0  0
   61.0935   34.7288   45.7047 H   0  0  0  0  0  0  0  0  0  0  0  0
   61.9012   31.5150   48.4122 H   0  0  0  0  0  0  0  0  0  0  0  0
   59.6674   30.5217   47.9461 H   0  0  0  0  0  0  0  0  0  0  0  0
   55.5798   30.4953   42.7995 H   0  0  0  0  0  0  0  0  0  0  0  0
   56.5630   28.2990   42.7220 H   0  0  0  0  0  0  0  0  0  0  0  0
  1  2  1  0
  2  3  1  0
  3  4  2  0
  4  5  1  0
  5  6  2  0
  6  7  1  0
  7  8  2  0
  8  9  1  0
  9 10  2  0
 10 11  1  0
 11 12  1  0
 11 13  1  0
 11 14  1  0
 10 15  1  0
 15 16  2  0
  5 17  1  0
 17 18  2  0
 18 19  1  0
 19 20  1  0
 20 21  1  0
 21  2  2  0
 20  4  1  0
 16  7  1  0
  1 22  1  0
  1 23  1  0
  1 24  1  0
  3 25  1  0
  8 26  1  0
  9 27  1  0
 15 28  1  0
 16 29  1  0
 18 30  1  0
 19 31  1  0
M  END
>  <smiles>  (24) 
Cc1cc2c(=Nc3ccc(C(F)(F)F)cc3)nc[nH]n2n1

>  <score_type>  (24) 
oracle

>  <origin>  (24) 
adg

>  <m_score__min__energy>  (24) 
-6.6100000000000003

>  <m_primary>  (24) 
energy

$$$$
24:0
     RDKit          3D

 58 61  0  0  0  0  0  0  0  0999 V2000
   63.0230   34.2720   50.6160 C   0  0  0  0  0  0  0  0  0  0  0  0
   61.9380   34.0920   49.7120 O   0  0  0  0  0  0  0  0  0  0  0  0
   61.5290   32.8550   49.1850 C   0  0  0  0  0  0  0  0  0  0  0  0
   61.4540   31.7040   49.9930 C   0  0  0  0  0  0  0  0  0  0  0  0
   61.0730   30.4720   49.4480 C   0  0  0  0  0  0  0  0  0  0  0  0
   60.9660   29.3320   50.2600 C   0  0  0  0  0  0  0  0  0  0  0  0
   60.5890   28.1070   49.7040 C   0  0  0  0  0  0  0  0  0  0  0  0
   60.3250   28.0090   48.3360 C   0  0  0  0  0  0  0  0  0  0  0  0
   60.4320   29.1360   47.5160 C   0  0  0  0  0  0  0  0  0  0  0  0
   60.8000   30.3740   48.0660 C   0  0  0  0  0  0  0  0  0  0  0  0
   60.8820   31.5150   47.2590 C   0  0  0  0  0  0  0  0  0  0  0  0
   61.1900   32.7690   47.8140 C   0  0  0  0  0  0  0  0  0  0  0  0
   61.1410   34.0120   46.9380 C   0  0  0  0  0  0  0  0  0  0  0  0
   59.7680   34.4940   46.6450 N   0  0  0  0  0  0  0  0  0  0  0  0
   58.6780   33.7840   47.3470 C   0  0  0  0  0  0  0  0  0  0  0  0
   58.0410   32.6980   46.4630 C   0  0  0  0  0  0  0  0  0  0  0  0
   57.5560   33.2110   45.1530 N   0  0  0  0  0  0  0  0  0  0  0  0
   57.8480   32.2710   44.0470 C   0  0  0  0  0  0  0  0  0  0  0  0
   57.6030   30.8430   44.4640 C   0  0  0  0  0  0  0  0  0  0  0  0
   56.2960   30.3300   44.5150 C   0  0  0  0  0  0  0  0  0  0  0  0
   56.0730   29.0000   44.8750 C   0  0  0  0  0  0  0  0  0  0  0  0
   57.1530   28.1650   45.1930 C   0  0  0  0  0  0  0  0  0  0  0  0
   56.8880   26.4810   45.6340 S   0  0  0  0  0  0  0  0  0  0  0  0
   57.9890   26.0360   46.9580 C   0  0  0  0  0  0  0  0  0  0  0  0
   57.1510   25.5890   44.4530 O   0  0  0  0  0  0  0  0  0  0  0  0
   55.4630   26.2960   46.0730 O   0  0  0  0  0  0  0  0  0  0  0  0
   58.4590   28.6730   45.1420 C   0  0  0  0  0  0  0  0  0  0  0  0
   58.6820   30.0040   44.7800 C   0  0  0  0  0  0  0  0  0  0  0  0
   58.0330   34.5770   44.8360 C   0  0  0  0  0  0  0  0  0  0  0  0
   59.5110   34.7700   45.2130 C   0  0  0  0  0  0  0  0  0  0  0  0
   62.6528   34.2106   51.6500 H   0  0  0  0  0  0  0  0  0  0  0  0
   63.7743   33.4862   50.4482 H   0  0  0  0  0  0  0  0  0  0  0  0
   63.4803   35.2583   50.4482 H   0  0  0  0  0  0  0  0  0  0  0  0
   61.6973   31.7737   51.0635 H   0  0  0  0  0  0  0  0  0  0  0  0
   61.1795   29.4033   51.3367 H   0  0  0  0  0  0  0  0  0  0  0  0
   60.4999   27.2176   50.3451 H   0  0  0  0  0  0  0  0  0  0  0  0
   60.0318   27.0415   47.9023 H   0  0  0  0  0  0  0  0  0  0  0  0
   60.2276   29.0527   46.4384 H   0  0  0  0  0  0  0  0  0  0  0  0
   60.7031   31.4290   46.1770 H   0  0  0  0  0  0  0  0  0  0  0  0
   61.6877   34.8173   47.4504 H   0  0  0  0  0  0  0  0  0  0  0  0
   61.5932   33.7379   45.9734 H   0  0  0  0  0  0  0  0  0  0  0  0
   59.0862   33.3117   48.2527 H   0  0  0  0  0  0  0  0  0  0  0  0
   57.8994   34.5185   47.6006 H   0  0  0  0  0  0  0  0  0  0  0  0
   58.7921   31.9167   46.2749 H   0  0  0  0  0  0  0  0  0  0  0  0
   57.1651   32.3113   47.0045 H   0  0  0  0  0  0  0  0  0  0  0  0
   57.1992   32.5111   43.1917 H   0  0  0  0  0  0  0  0  0  0  0  0
   58.9080   32.3759   43.7723 H   0  0  0  0  0  0  0  0  0  0  0  0
   55.4434   30.9804   44.2698 H   0  0  0  0  0  0  0  0  0  0  0  0
   55.0466   28.6059   44.9093 H   0  0  0  0  0  0  0  0  0  0  0  0
   57.5002   26.2336   47.9234 H   0  0  0  0  0  0  0  0  0  0  0  0
   58.2373   24.9669   46.8847 H   0  0  0  0  0  0  0  0  0  0  0  0
   58.9104   26.6323   46.8847 H   0  0  0  0  0  0  0  0  0  0  0  0
   59.3106   28.0216   45.3878 H   0  0  0  0  0  0  0  0  0  0  0  0
   59.7091   30.3961   44.7426 H   0  0  0  0  0  0  0  0  0  0  0  0
   57.9154   34.7532   43.7566 H   0  0  0  0  0  0  0  0  0  0  0  0
   57.4357   35.2912   45.4218 H   0  0  0  0  0  0  0  0  0  0  0  0
   60.1228   34.0864   44.6060 H   0  0  0  0  0  0  0  0  0  0  0  0
   59.7719   35.8213   45.0215 H   0  0  0  0  0  0  0  0  0  0  0  0
  1  2  1  0
  2  3  1  0
  3  4  2  0
  4  5  1  0
  5  6  2  0
  6  7  1  0
  7  8  2  0
  8  9  1  0
  9 10  2  0
 10 11  1  0
 11 12  2  0
 12 13  1  0
 13 14  1  0
 14 15  1  0
 15 16  1  0
 16 17  1  0
 17 18  1  0
 18 19  1  0
 19 20  2  0
 20 21  1  0
 21 22  2  0
 22 23  1  0
 23 24  1  0
 23 25  2  0
 23 26  2  0
 22 27  1  0
 27 28  2  0
 17 29  1  0
 29 30  1  0
 12  3  1  0
 30 14  1  0
 10  5  1  0
 28 19  1  0
  1 31  1  0
  1 32  1  0
  1 33  1  0
  4 34  1  0
  6 35  1  0
  7 36  1  0
  8 37  1  0
  9 38  1  0
 11 39  1  0
 13 40  1  0
 13 41  1  0
 15 42  1  0
 15 43  1  0
 16 44  1  0
 16 45  1  0
 18 46  1  0
 18 47  1  0
 20 48  1  0
 21 49  1  0
 24 50  1  0
 24 51  1  0
 24 52  1  0
 27 53  1  0
 28 54  1  0
 29 55  1  0
 29 56  1  0
 30 57  1  0
 30 58  1  0
M  END
>  <UniqueID>  (25) 
24

>  <SMILES>  (25) 
COc1cc2ccccc2cc1CN1CCN(Cc2ccc(S(C)(=O)=O)cc2)CC1

>  <Energy>  (25) 
76.03636918901088

>  <Genealogy>  (25) 
COc1cc2ccccc2cc1CN1CCN(Cc2ccc(S(C)(=O)=O)cc2)CC1 (3D coordinates assigned)
COc1cc2ccccc2cc1CN1CCN(Cc2ccc(S(C)(=O)=O)cc2)CC1 (nonaromatic ring conformer: 76.03636918901088 kcal/mol)

>  <smiles>  (25) 
COc1cc2ccccc2cc1CN1CCN(Cc2ccc(S(C)(=O)=O)cc2)CC1

>  <score_type>  (25) 
oracle

>  <origin>  (25) 
adg

>  <m_score__min__energy>  (25) 
-9.1899999999999995

>  <m_primary>  (25) 
energy

$$$$
25:0
     RDKit          3D

 32 34  0  0  0  0  0  0  0  0999 V2000
   56.8750   22.1000   43.0920 C   0  0  0  0  0  0  0  0  0  0  0  0
   56.4860   23.5630   43.2770 C   0  0  0  0  0  0  0  0  0  0  0  0
   57.2610   24.1650   44.3140 O   0  0  0  0  0  0  0  0  0  0  0  0
   57.4430   25.5450   44.5020 C   0  0  0  0  0  0  0  0  0  0  0  0
   57.9390   26.3950   43.4950 C   0  0  0  0  0  0  0  0  0  0  0  0
   58.1000   27.7620   43.7400 C   0  0  0  0  0  0  0  0  0  0  0  0
   57.7750   28.3090   44.9940 C   0  0  0  0  0  0  0  0  0  0  0  0
   57.9530   29.7620   45.2360 C   0  0  0  0  0  0  0  0  0  0  0  0
   59.0520   30.3820   45.8250 C   0  0  0  0  0  0  0  0  0  0  0  0
   58.7960   31.6960   45.8460 N   0  0  0  0  0  0  0  0  0  0  0  0
   59.5480   32.7240   46.3130 C   0  0  0  0  0  0  0  0  0  0  0  0
   59.0300   34.0240   46.2080 C   0  0  0  0  0  0  0  0  0  0  0  0
   57.7620   34.2180   45.6260 C   0  0  0  0  0  0  0  0  0  0  0  0
   57.0200   33.1220   45.1550 C   0  0  0  0  0  0  0  0  0  0  0  0
   57.5860   31.8550   45.2880 C   0  0  0  0  0  0  0  0  0  0  0  0
   57.0250   30.6940   44.8950 N   0  0  0  0  0  0  0  0  0  0  0  0
   57.2840   27.4540   45.9980 C   0  0  0  0  0  0  0  0  0  0  0  0
   57.1230   26.0880   45.7500 C   0  0  0  0  0  0  0  0  0  0  0  0
   57.0009   21.6267   44.0770 H   0  0  0  0  0  0  0  0  0  0  0  0
   56.0844   21.5783   42.5328 H   0  0  0  0  0  0  0  0  0  0  0  0
   57.8203   22.0398   42.5328 H   0  0  0  0  0  0  0  0  0  0  0  0
   56.6602   24.1046   42.3355 H   0  0  0  0  0  0  0  0  0  0  0  0
   55.4231   23.6133   43.5558 H   0  0  0  0  0  0  0  0  0  0  0  0
   58.2013   25.9812   42.5101 H   0  0  0  0  0  0  0  0  0  0  0  0
   58.4848   28.4162   42.9438 H   0  0  0  0  0  0  0  0  0  0  0  0
   59.9587   29.8861   46.2017 H   0  0  0  0  0  0  0  0  0  0  0  0
   60.5361   32.5436   46.7614 H   0  0  0  0  0  0  0  0  0  0  0  0
   59.6088   34.8836   46.5768 H   0  0  0  0  0  0  0  0  0  0  0  0
   57.3501   35.2343   45.5397 H   0  0  0  0  0  0  0  0  0  0  0  0
   56.0288   33.2586   44.6980 H   0  0  0  0  0  0  0  0  0  0  0  0
   57.0250   27.8638   46.9854 H   0  0  0  0  0  0  0  0  0  0  0  0
   56.7400   25.4325   46.5460 H   0  0  0  0  0  0  0  0  0  0  0  0
  1  2  1  0
  2  3  1  0
  3  4  1  0
  4  5  2  0
  5  6  1  0
  6  7  2  0
  7  8  1  0
  8  9  2  0
  9 10  1  0
 10 11  1  0
 11 12  2  0
 12 13  1  0
 13 14  2  0
 14 15  1  0
 15 16  2  0
  7 17  1  0
 17 18  2  0
 18  4  1  0
 16  8  1  0
 15 10  1  0
  1 19  1  0
  1 20  1  0
  1 21  1  0
  2 22  1  0
  2 23  1  0
  5 24  1  0
  6 25  1  0
  9 26  1  0
 11 27  1  0
 12 28  1  0
 13 29  1  0
 14 30  1  0
 17 31  1  0
 18 32  1  0
M  END
>  <UniqueID>  (26) 
25

>  <SMILES>  (26) 
CCOc1ccc(-c2cn3ccccc3n2)cc1

>  <Energy>  (26) 
68.39863787388887

>  <Genealogy>  (26) 
CCOc1ccc(-c2cn3ccccc3n2)cc1 (3D coordinates assigned)
CCOc1ccc(-c2cn3ccccc3n2)cc1 (optimized conformer: 68.39863787388887 kcal/mol)

>  <smiles>  (26) 
CCOc1ccc(-c2cn3ccccc3n2)cc1

>  <score_type>  (26) 
oracle

>  <origin>  (26) 
adg

>  <m_score__min__energy>  (26) 
-5.9800000000000004

>  <m_primary>  (26) 
energy

$$$$
26:0
     RDKit          3D

 29 30  0  0  0  0  0  0  0  0999 V2000
   55.9818   28.5905   43.5252 H   0  0  0  0  0  0  0  0  0  0  0  0
   56.4000   28.9680   44.4700 C   0  0  0  0  0  0  0  0  0  0  0  0
   56.1160   30.3170   44.8630 N   0  0  0  0  0  0  0  0  0  0  0  0
   56.8220   31.3440   44.4970 C   0  0  0  0  0  0  0  0  0  0  0  0
   57.0180   32.4440   45.2510 N   0  0  0  0  0  0  0  0  0  0  0  0
   57.7980   33.2480   44.5470 N   0  0  0  0  0  0  0  0  0  0  0  0
   58.2920   34.5310   45.0340 C   0  0  0  0  0  0  0  0  0  0  0  0
   57.5588   34.9612   45.7321 H   0  0  0  0  0  0  0  0  0  0  0  0
   58.4383   35.2070   44.1786 H   0  0  0  0  0  0  0  0  0  0  0  0
   59.6220   34.3450   45.7530 C   0  0  0  0  0  0  0  0  0  0  0  0
   59.4573   34.3680   46.8404 H   0  0  0  0  0  0  0  0  0  0  0  0
   60.0601   33.3768   45.4689 H   0  0  0  0  0  0  0  0  0  0  0  0
   60.3089   35.1558   45.4689 H   0  0  0  0  0  0  0  0  0  0  0  0
   58.1210   32.6710   43.3710 C   0  0  0  0  0  0  0  0  0  0  0  0
   58.7677   33.1096   42.5968 H   0  0  0  0  0  0  0  0  0  0  0  0
   57.5040   31.4380   43.3020 C   0  0  0  0  0  0  0  0  0  0  0  0
   57.5464   30.7026   42.4851 H   0  0  0  0  0  0  0  0  0  0  0  0
   57.1580   28.1510   45.2150 C   0  0  0  0  0  0  0  0  0  0  0  0
   56.6510   27.0440   45.9960 C   0  0  0  0  0  0  0  0  0  0  0  0
   55.4460   26.6740   46.0110 O   0  0  0  0  0  0  0  0  0  0  0  0
   57.7250   26.3790   46.7640 C   0  0  0  0  0  0  0  0  0  0  0  0
   57.9167   25.3693   46.3720 H   0  0  0  0  0  0  0  0  0  0  0  0
   57.4662   26.2522   47.8256 H   0  0  0  0  0  0  0  0  0  0  0  0
   58.9520   27.2840   46.5620 C   0  0  0  0  0  0  0  0  0  0  0  0
   59.8263   26.6736   46.2916 H   0  0  0  0  0  0  0  0  0  0  0  0
   59.1823   27.8301   47.4887 H   0  0  0  0  0  0  0  0  0  0  0  0
   58.6300   28.2700   45.4240 C   0  0  0  0  0  0  0  0  0  0  0  0
   59.1740   27.9947   44.5084 H   0  0  0  0  0  0  0  0  0  0  0  0
   58.9303   29.2989   45.6715 H   0  0  0  0  0  0  0  0  0  0  0  0
  1  2  1  0
  2  3  1  0
  3  4  2  0
  4  5  1  0
  5  6  1  0
  6  7  1  0
  7  8  1  0
  7  9  1  0
  7 10  1  0
 10 11  1  0
 10 12  1  0
 10 13  1  0
  6 14  1  0
 14 15  1  0
 14 16  2  0
 16 17  1  0
  2 18  2  0
 18 19  1  0
 19 20  2  0
 19 21  1  0
 21 22  1  0
 21 23  1  0
 21 24  1  0
 24 25  1  0
 24 26  1  0
 24 27  1  0
 27 28  1  0
 27 29  1  0
 16  4  1  0
 27 18  1  0
M  CHG  1   5  -1
M  END
>  <UniqueID>  (27) 
26

>  <SMILES>  (27) 
CCn1cc/c(=N/C=C2\CCCC2=O)[n-]1

>  <Energy>  (27) 
67.90374221169823

>  <Genealogy>  (27) 
CCn1ccc(=NC=C2CCCC2=O)[n-]1 (protonated)
CCn1cc/c(=N/C=C2\CCCC2=O)[n-]1 (cis-trans isomerization)
CCn1cc/c(=N/C=C2\CCCC2=O)[n-]1 (3D coordinates assigned)
CCn1cc/c(=N/C=C2\CCCC2=O)[n-]1 (nonaromatic ring conformer: 67.90374221169823 kcal/mol)

>  <smiles>  (27) 
CCn1ccc(=NC=C2CCCC2=O)[nH]1

>  <score_type>  (27) 
oracle

>  <origin>  (27) 
adg

>  <m_score__min__energy>  (27) 
-8.1999999999999993

>  <m_primary>  (27) 
energy

$$$$
27:0
     RDKit          3D

 22 24  0  0  0  0  0  0  0  0999 V2000
   59.2730   34.3070   47.8610 C   0  0  0  0  0  0  0  0  0  0  0  0
   59.4710   34.9200   46.6210 C   0  0  0  0  0  0  0  0  0  0  0  0
   59.0140   34.3020   45.4540 C   0  0  0  0  0  0  0  0  0  0  0  0
   58.3570   33.0590   45.5140 C   0  0  0  0  0  0  0  0  0  0  0  0
   57.8710   32.4070   44.2740 C   0  0  0  0  0  0  0  0  0  0  0  0
   58.1410   32.8680   42.9710 C   0  0  0  0  0  0  0  0  0  0  0  0
   57.4120   31.8140   41.8330 S   0  0  0  0  0  0  0  0  0  0  0  0
   56.8000   30.8420   43.0520 C   0  0  0  0  0  0  0  0  0  0  0  0
   56.0960   29.6710   43.1450 C   0  0  0  0  0  0  0  0  0  0  0  0
   56.0450   29.4660   44.5310 C   0  0  0  0  0  0  0  0  0  0  0  0
   56.6910   30.4630   45.1920 N   0  0  0  0  0  0  0  0  0  0  0  0
   57.1200   31.2790   44.2490 N   0  0  0  0  0  0  0  0  0  0  0  0
   58.1570   32.4560   46.7690 C   0  0  0  0  0  0  0  0  0  0  0  0
   58.6150   33.0780   47.9350 C   0  0  0  0  0  0  0  0  0  0  0  0
   59.6356   34.7929   48.7789 H   0  0  0  0  0  0  0  0  0  0  0  0
   59.9870   35.8898   46.5635 H   0  0  0  0  0  0  0  0  0  0  0  0
   59.1690   34.7909   44.4809 H   0  0  0  0  0  0  0  0  0  0  0  0
   58.7280   33.7645   42.7225 H   0  0  0  0  0  0  0  0  0  0  0  0
   55.6777   29.0503   42.3389 H   0  0  0  0  0  0  0  0  0  0  0  0
   55.5491   28.6134   45.0180 H   0  0  0  0  0  0  0  0  0  0  0  0
   57.6370   31.4889   46.8338 H   0  0  0  0  0  0  0  0  0  0  0  0
   58.4565   32.5980   48.9120 H   0  0  0  0  0  0  0  0  0  0  0  0
  1  2  2  0
  2  3  1  0
  3  4  2  0
  4  5  1  0
  5  6  2  0
  6  7  1  0
  7  8  1  0
  8  9  2  0
  9 10  1  0
 10 11  2  0
 11 12  1  0
  4 13  1  0
 13 14  2  0
 14  1  1  0
 12  5  1  0
 12  8  1  0
  1 15  1  0
  2 16  1  0
  3 17  1  0
  6 18  1  0
  9 19  1  0
 10 20  1  0
 13 21  1  0
 14 22  1  0
M  END
>  <UniqueID>  (28) 
27

>  <SMILES>  (28) 
c1ccc(-c2csc3ccnn23)cc1

>  <Energy>  (28) 
106.94908792453803

>  <Genealogy>  (28) 
c1ccc(-c2csc3ccnn23)cc1 (3D coordinates assigned)
c1ccc(-c2csc3ccnn23)cc1 (optimized conformer: 106.94908792453803 kcal/mol)

>  <smiles>  (28) 
c1ccc(-c2csc3ccnn23)cc1

>  <score_type>  (28) 
oracle

>  <origin>  (28) 
adg

>  <m_score__min__energy>  (28) 
-6.5199999999999996

>  <m_primary>  (28) 
energy

$$$$
28:0
     RDKit          3D

 37 39  0  0  0  0  0  0  0  0999 V2000
   61.8190   33.6500   46.8050 Cl  0  0  0  0  0  0  0  0  0  0  0  0
   60.0960   33.5680   46.4400 C   0  0  0  0  0  0  0  0  0  0  0  0
   59.5880   34.4210   45.4500 C   0  0  0  0  0  0  0  0  0  0  0  0
   58.2240   34.4170   45.1460 C   0  0  0  0  0  0  0  0  0  0  0  0
   57.3570   33.5640   45.8300 C   0  0  0  0  0  0  0  0  0  0  0  0
   57.8530   32.7010   46.8120 C   0  0  0  0  0  0  0  0  0  0  0  0
   59.2280   32.6800   47.1160 C   0  0  0  0  0  0  0  0  0  0  0  0
   59.7260   31.7590   48.2020 C   0  0  0  0  0  0  0  0  0  0  0  0
   60.2890   30.5430   47.6010 N   0  0  0  0  0  0  0  0  0  0  0  0
   59.4990   29.3450   47.9300 C   0  0  0  0  0  0  0  0  0  0  0  0
   59.5020   28.3120   46.7920 C   0  0  0  0  0  0  0  0  0  0  0  0
   58.2250   28.3900   46.0120 C   0  0  0  0  0  0  0  0  0  0  0  0
   57.0970   27.5890   46.1790 C   0  0  0  0  0  0  0  0  0  0  0  0
   56.1070   27.9880   45.3470 N   0  0  0  0  0  0  0  0  0  0  0  0
   56.5960   29.0400   44.6650 C   0  0  0  0  0  0  0  0  0  0  0  0
   55.9380   29.8020   43.6980 C   0  0  0  0  0  0  0  0  0  0  0  0
   56.6370   30.8790   43.1200 C   0  0  0  0  0  0  0  0  0  0  0  0
   57.9590   31.1730   43.5220 C   0  0  0  0  0  0  0  0  0  0  0  0
   58.5980   30.3880   44.5000 C   0  0  0  0  0  0  0  0  0  0  0  0
   57.8830   29.3210   45.0470 C   0  0  0  0  0  0  0  0  0  0  0  0
   60.2668   35.0971   44.9096 H   0  0  0  0  0  0  0  0  0  0  0  0
   57.8332   35.0873   44.3663 H   0  0  0  0  0  0  0  0  0  0  0  0
   56.2821   33.5705   45.5964 H   0  0  0  0  0  0  0  0  0  0  0  0
   57.1643   32.0337   47.3510 H   0  0  0  0  0  0  0  0  0  0  0  0
   60.5037   32.2712   48.7875 H   0  0  0  0  0  0  0  0  0  0  0  0
   58.8880   31.4855   48.8599 H   0  0  0  0  0  0  0  0  0  0  0  0
   60.3350   30.6580   46.5600 H   0  0  0  0  0  0  0  0  0  0  0  0
   59.9227   28.8788   48.8317 H   0  0  0  0  0  0  0  0  0  0  0  0
   58.4585   29.6629   48.0924 H   0  0  0  0  0  0  0  0  0  0  0  0
   60.3496   28.5147   46.1208 H   0  0  0  0  0  0  0  0  0  0  0  0
   59.5947   27.3049   47.2247 H   0  0  0  0  0  0  0  0  0  0  0  0
   57.0219   26.7507   46.8872 H   0  0  0  0  0  0  0  0  0  0  0  0
   55.1550   27.5680   45.2630 H   0  0  0  0  0  0  0  0  0  0  0  0
   54.9061   29.5685   43.3971 H   0  0  0  0  0  0  0  0  0  0  0  0
   56.1503   31.4957   42.3501 H   0  0  0  0  0  0  0  0  0  0  0  0
   58.4925   32.0210   43.0677 H   0  0  0  0  0  0  0  0  0  0  0  0
   59.6264   30.6079   44.8226 H   0  0  0  0  0  0  0  0  0  0  0  0
  1  2  1  0
  2  3  2  0
  3  4  1  0
  4  5  2  0
  5  6  1  0
  6  7  2  0
  7  8  1  0
  8  9  1  0
  9 10  1  0
 10 11  1  0
 11 12  1  0
 12 13  2  0
 13 14  1  0
 14 15  1  0
 15 16  2  0
 16 17  1  0
 17 18  2  0
 18 19  1  0
 19 20  2  0
  7  2  1  0
 20 12  1  0
 20 15  1  0
  3 21  1  0
  4 22  1  0
  5 23  1  0
  6 24  1  0
  8 25  1  0
  8 26  1  0
  9 27  1  0
 10 28  1  0
 10 29  1  0
 11 30  1  0
 11 31  1  0
 13 32  1  0
 14 33  1  0
 16 34  1  0
 17 35  1  0
 18 36  1  0
 19 37  1  0
M  END
>  <UniqueID>  (29) 
28

>  <SMILES>  (29) 
Clc1ccccc1CNCCc1c[nH]c2ccccc12

>  <Energy>  (29) 
70.4016737688551

>  <Genealogy>  (29) 
Clc1ccccc1CNCCc1c[nH]c2ccccc12 (3D coordinates assigned)
Clc1ccccc1CNCCc1c[nH]c2ccccc12 (optimized conformer: 70.4016737688551 kcal/mol)

>  <smiles>  (29) 
Clc1ccccc1CNCCc1c[nH]c2ccccc12

>  <score_type>  (29) 
oracle

>  <origin>  (29) 
adg

>  <m_score__min__energy>  (29) 
-7.6699999999999999

>  <m_primary>  (29) 
energy

$$$$
29:0
     RDKit          3D

 30 30  0  0  0  0  0  0  0  0999 V2000
   57.7370   31.9450   42.6160 C   0  0  0  0  0  0  0  0  0  0  0  0
   57.8770   32.2820   44.0960 C   0  0  0  0  0  0  0  0  0  0  0  0
   56.9450   31.5340   44.8740 O   0  0  0  0  0  0  0  0  0  0  0  0
   56.8210   30.1420   44.7980 C   0  0  0  0  0  0  0  0  0  0  0  0
   55.6820   29.6010   44.7990 O   0  0  0  0  0  0  0  0  0  0  0  0
   58.0480   29.3240   44.7730 C   0  0  0  0  0  0  0  0  0  0  0  0
   58.0920   27.9840   44.7030 C   0  0  0  0  0  0  0  0  0  0  0  0
   57.6530   27.0520   45.7630 C   0  0  0  0  0  0  0  0  0  0  0  0
   57.9230   27.3470   46.9580 O   0  0  0  0  0  0  0  0  0  0  0  0
   56.9580   25.7700   45.4760 C   0  0  0  0  0  0  0  0  0  0  0  0
   57.7130   24.6730   45.0260 C   0  0  0  0  0  0  0  0  0  0  0  0
   57.0990   23.4450   44.7700 C   0  0  0  0  0  0  0  0  0  0  0  0
   58.1450   21.9620   44.1760 Br  0  0  0  0  0  0  0  0  0  0  0  0
   55.7230   23.2970   44.9540 C   0  0  0  0  0  0  0  0  0  0  0  0
   54.9470   24.3820   45.3890 C   0  0  0  0  0  0  0  0  0  0  0  0
   53.4620   24.2250   45.5570 C   0  0  0  0  0  0  0  0  0  0  0  0
   55.5620   25.6260   45.6310 C   0  0  0  0  0  0  0  0  0  0  0  0
   54.7760   26.7140   46.0020 O   0  0  0  0  0  0  0  0  0  0  0  0
   57.3170   30.9341   42.5083 H   0  0  0  0  0  0  0  0  0  0  0  0
   57.0671   32.6734   42.1359 H   0  0  0  0  0  0  0  0  0  0  0  0
   58.7259   31.9843   42.1359 H   0  0  0  0  0  0  0  0  0  0  0  0
   58.8983   32.0411   44.4261 H   0  0  0  0  0  0  0  0  0  0  0  0
   57.6736   33.3540   44.2352 H   0  0  0  0  0  0  0  0  0  0  0  0
   59.0091   29.8574   44.8153 H   0  0  0  0  0  0  0  0  0  0  0  0
   58.4888   27.5417   43.7773 H   0  0  0  0  0  0  0  0  0  0  0  0
   58.7969   24.7827   44.8742 H   0  0  0  0  0  0  0  0  0  0  0  0
   55.2453   22.3259   44.7571 H   0  0  0  0  0  0  0  0  0  0  0  0
   53.2150   24.1989   46.6286 H   0  0  0  0  0  0  0  0  0  0  0  0
   52.9476   25.0738   45.0827 H   0  0  0  0  0  0  0  0  0  0  0  0
   53.1364   23.2874   45.0827 H   0  0  0  0  0  0  0  0  0  0  0  0
  1  2  1  0
  2  3  1  0
  3  4  1  0
  4  5  2  0
  4  6  1  0
  6  7  2  3
  7  8  1  0
  8  9  2  0
  8 10  1  0
 10 11  2  0
 11 12  1  0
 12 13  1  0
 12 14  2  0
 14 15  1  0
 15 16  1  0
 15 17  2  0
 17 18  1  0
 17 10  1  0
  1 19  1  0
  1 20  1  0
  1 21  1  0
  2 22  1  0
  2 23  1  0
  6 24  1  0
  7 25  1  0
 11 26  1  0
 14 27  1  0
 16 28  1  0
 16 29  1  0
 16 30  1  0
M  CHG  1  18  -1
M  END
>  <UniqueID>  (30) 
29

>  <SMILES>  (30) 
CCOC(=O)C=CC(=O)c1cc(Br)cc(C)c1[O-]

>  <Energy>  (30) 
34.30820893342875

>  <Genealogy>  (30) 
CCOC(=O)C=CC(=O)c1cc(Br)cc(C)c1[O-] (protonated)
CCOC(=O)C=CC(=O)c1cc(Br)cc(C)c1[O-] (3D coordinates assigned)
CCOC(=O)C=CC(=O)c1cc(Br)cc(C)c1[O-] (optimized conformer: 34.30820893342875 kcal/mol)

>  <smiles>  (30) 
CCOC(=O)C=CC(=O)c1cc(Br)cc(C)c1O

>  <score_type>  (30) 
oracle

>  <origin>  (30) 
adg

>  <m_score__min__energy>  (30) 
-10.970000000000001

>  <m_primary>  (30) 
energy

$$$$
30:0
     RDKit          3D

 33 34  0  0  0  0  0  0  0  0999 V2000
   59.2880   30.8870   48.4440 C   0  0  0  0  0  0  0  0  0  0  0  0
   58.4960   31.1850   47.3000 O   0  0  0  0  0  0  0  0  0  0  0  0
   58.6530   32.3250   46.4920 C   0  0  0  0  0  0  0  0  0  0  0  0
   59.1080   33.5490   47.0260 C   0  0  0  0  0  0  0  0  0  0  0  0
   59.2090   34.6810   46.2160 C   0  0  0  0  0  0  0  0  0  0  0  0
   59.6420   35.8540   46.7420 F   0  0  0  0  0  0  0  0  0  0  0  0
   58.8570   34.6110   44.8690 C   0  0  0  0  0  0  0  0  0  0  0  0
   58.4130   33.4060   44.3240 C   0  0  0  0  0  0  0  0  0  0  0  0
   58.3230   32.2500   45.1190 C   0  0  0  0  0  0  0  0  0  0  0  0
   57.8570   30.9890   44.4960 C   0  0  0  0  0  0  0  0  0  0  0  0
   56.8560   30.9810   43.5190 C   0  0  0  0  0  0  0  0  0  0  0  0
   56.4510   29.7590   42.9880 C   0  0  0  0  0  0  0  0  0  0  0  0
   57.0150   28.6010   43.4240 N   0  0  0  0  0  0  0  0  0  0  0  0
   57.9820   28.6130   44.3920 C   0  0  0  0  0  0  0  0  0  0  0  0
   58.5810   27.3880   44.8730 N   0  0  0  0  0  0  0  0  0  0  0  0
   57.9710   26.0830   44.5940 C   0  0  0  0  0  0  0  0  0  0  0  0
   59.8220   27.4600   45.6530 C   0  0  0  0  0  0  0  0  0  0  0  0
   58.3830   29.8060   44.9130 N   0  0  0  0  0  0  0  0  0  0  0  0
   58.7117   31.1038   49.3555 H   0  0  0  0  0  0  0  0  0  0  0  0
   59.5660   29.8228   48.4304 H   0  0  0  0  0  0  0  0  0  0  0  0
   60.1986   31.5040   48.4304 H   0  0  0  0  0  0  0  0  0  0  0  0
   59.3852   33.6116   48.0887 H   0  0  0  0  0  0  0  0  0  0  0  0
   58.9294   35.5070   44.2350 H   0  0  0  0  0  0  0  0  0  0  0  0
   58.1306   33.3599   43.2619 H   0  0  0  0  0  0  0  0  0  0  0  0
   56.3980   31.9209   43.1771 H   0  0  0  0  0  0  0  0  0  0  0  0
   55.6714   29.7303   42.2125 H   0  0  0  0  0  0  0  0  0  0  0  0
   56.6800   27.7100   43.0010 H   0  0  0  0  0  0  0  0  0  0  0  0
   57.7351   25.5782   45.5425 H   0  0  0  0  0  0  0  0  0  0  0  0
   57.0467   26.2265   44.0152 H   0  0  0  0  0  0  0  0  0  0  0  0
   58.6740   25.4659   44.0152 H   0  0  0  0  0  0  0  0  0  0  0  0
   59.5818   27.4461   46.7264 H   0  0  0  0  0  0  0  0  0  0  0  0
   60.4592   26.5973   45.4086 H   0  0  0  0  0  0  0  0  0  0  0  0
   60.3552   28.3906   45.4086 H   0  0  0  0  0  0  0  0  0  0  0  0
  1  2  1  0
  2  3  1  0
  3  4  2  0
  4  5  1  0
  5  6  1  0
  5  7  2  0
  7  8  1  0
  8  9  2  0
  9 10  1  0
 10 11  2  0
 11 12  1  0
 12 13  2  0
 13 14  1  0
 14 15  1  0
 15 16  1  0
 15 17  1  0
 14 18  2  0
  9  3  1  0
 18 10  1  0
  1 19  1  0
  1 20  1  0
  1 21  1  0
  4 22  1  0
  7 23  1  0
  8 24  1  0
 11 25  1  0
 12 26  1  0
 13 27  1  0
 16 28  1  0
 16 29  1  0
 16 30  1  0
 17 31  1  0
 17 32  1  0
 17 33  1  0
M  CHG  1  13   1
M  END
>  <UniqueID>  (31) 
30

>  <SMILES>  (31) 
COc1cc(F)ccc1-c1cc[nH+]c(N(C)C)n1

>  <Energy>  (31) 
37.176650816503276

>  <Genealogy>  (31) 
COc1cc(F)ccc1-c1cc[nH+]c(N(C)C)n1 (protonated)
COc1cc(F)ccc1-c1cc[nH+]c(N(C)C)n1 (3D coordinates assigned)
COc1cc(F)ccc1-c1cc[nH+]c(N(C)C)n1 (optimized conformer: 37.176650816503276 kcal/mol)

>  <smiles>  (31) 
COc1cc(F)ccc1-c1ccnc(N(C)C)n1

>  <score_type>  (31) 
oracle

>  <origin>  (31) 
adg

>  <m_score__min__energy>  (31) 
-4.3799999999999999

>  <m_primary>  (31) 
energy

$$$$
31:0
     RDKit          3D

 42 44  0  0  0  0  0  0  0  0999 V2000
   59.6430   35.3150   46.2180 C   0  0  0  0  0  0  0  0  0  0  0  0
   59.1510   34.7890   44.8700 C   0  0  0  0  0  0  0  0  0  0  0  0
   57.7120   34.2450   44.9230 C   0  0  0  0  0  0  0  0  0  0  0  0
   57.3820   33.4810   46.2170 C   0  0  0  0  0  0  0  0  0  0  0  0
   57.9470   32.0820   46.2230 C   0  0  0  0  0  0  0  0  0  0  0  0
   57.6100   31.2680   45.1830 N   0  0  0  0  0  0  0  0  0  0  0  0
   58.0550   29.9910   45.0780 C   0  0  0  0  0  0  0  0  0  0  0  0
   57.6720   29.2020   43.9870 C   0  0  0  0  0  0  0  0  0  0  0  0
   58.1330   27.8850   43.8790 C   0  0  0  0  0  0  0  0  0  0  0  0
   57.7600   27.1220   42.8220 F   0  0  0  0  0  0  0  0  0  0  0  0
   58.9770   27.3550   44.8610 C   0  0  0  0  0  0  0  0  0  0  0  0
   59.3640   28.1380   45.9530 C   0  0  0  0  0  0  0  0  0  0  0  0
   58.9040   29.4590   46.0660 C   0  0  0  0  0  0  0  0  0  0  0  0
   59.2720   30.2670   47.1460 C   0  0  0  0  0  0  0  0  0  0  0  0
   58.8010   31.5870   47.2460 C   0  0  0  0  0  0  0  0  0  0  0  0
   59.2410   32.4230   48.4300 C   0  0  0  0  0  0  0  0  0  0  0  0
   60.6500   32.9350   48.2570 C   0  0  0  0  0  0  0  0  0  0  0  0
   61.4120   32.5610   47.1350 C   0  0  0  0  0  0  0  0  0  0  0  0
   62.7230   33.0220   46.9860 C   0  0  0  0  0  0  0  0  0  0  0  0
   63.2900   33.8470   47.9590 C   0  0  0  0  0  0  0  0  0  0  0  0
   62.5500   34.2090   49.0870 C   0  0  0  0  0  0  0  0  0  0  0  0
   61.2380   33.7500   49.2410 C   0  0  0  0  0  0  0  0  0  0  0  0
   59.1362   34.7732   47.0301 H   0  0  0  0  0  0  0  0  0  0  0  0
   60.7294   35.1617   46.2970 H   0  0  0  0  0  0  0  0  0  0  0  0
   59.4175   36.3887   46.2970 H   0  0  0  0  0  0  0  0  0  0  0  0
   59.1881   35.6102   44.1391 H   0  0  0  0  0  0  0  0  0  0  0  0
   59.8072   33.9536   44.5845 H   0  0  0  0  0  0  0  0  0  0  0  0
   57.0175   35.0934   44.8349 H   0  0  0  0  0  0  0  0  0  0  0  0
   57.6106   33.5287   44.0944 H   0  0  0  0  0  0  0  0  0  0  0  0
   57.8016   34.0344   47.0700 H   0  0  0  0  0  0  0  0  0  0  0  0
   56.2872   33.3993   46.2865 H   0  0  0  0  0  0  0  0  0  0  0  0
   57.0084   29.6173   43.2142 H   0  0  0  0  0  0  0  0  0  0  0  0
   59.3372   26.3193   44.7738 H   0  0  0  0  0  0  0  0  0  0  0  0
   60.0285   27.7188   46.7229 H   0  0  0  0  0  0  0  0  0  0  0  0
   59.9367   29.8654   47.9250 H   0  0  0  0  0  0  0  0  0  0  0  0
   58.5600   33.2806   48.5339 H   0  0  0  0  0  0  0  0  0  0  0  0
   59.2140   31.7881   49.3279 H   0  0  0  0  0  0  0  0  0  0  0  0
   60.9736   31.9022   46.3709 H   0  0  0  0  0  0  0  0  0  0  0  0
   63.3090   32.7343   46.1006 H   0  0  0  0  0  0  0  0  0  0  0  0
   64.3204   34.2123   47.8373 H   0  0  0  0  0  0  0  0  0  0  0  0
   62.9996   34.8557   49.8549 H   0  0  0  0  0  0  0  0  0  0  0  0
   60.6628   34.0279   50.1365 H   0  0  0  0  0  0  0  0  0  0  0  0
  1  2  1  0
  2  3  1  0
  3  4  1  0
  4  5  1  0
  5  6  2  0
  6  7  1  0
  7  8  2  0
  8  9  1  0
  9 10  1  0
  9 11  2  0
 11 12  1  0
 12 13  2  0
 13 14  1  0
 14 15  2  0
 15 16  1  0
 16 17  1  0
 17 18  2  0
 18 19  1  0
 19 20  2  0
 20 21  1  0
 21 22  2  0
 15  5  1  0
 22 17  1  0
 13  7  1  0
  1 23  1  0
  1 24  1  0
  1 25  1  0
  2 26  1  0
  2 27  1  0
  3 28  1  0
  3 29  1  0
  4 30  1  0
  4 31  1  0
  8 32  1  0
 11 33  1  0
 12 34  1  0
 14 35  1  0
 16 36  1  0
 16 37  1  0
 18 38  1  0
 19 39  1  0
 20 40  1  0
 21 41  1  0
 22 42  1  0
M  END
>  <UniqueID>  (32) 
31

>  <SMILES>  (32) 
CCCCc1nc2cc(F)ccc2cc1Cc1ccccc1

>  <Energy>  (32) 
43.278221779281324

>  <Genealogy>  (32) 
CCCCc1nc2cc(F)ccc2cc1Cc1ccccc1 (3D coordinates assigned)
CCCCc1nc2cc(F)ccc2cc1Cc1ccccc1 (optimized conformer: 43.278221779281324 kcal/mol)

>  <smiles>  (32) 
CCCCc1nc2cc(F)ccc2cc1Cc1ccccc1

>  <score_type>  (32) 
oracle

>  <origin>  (32) 
adg

>  <m_score__min__energy>  (32) 
-7.75

>  <m_primary>  (32) 
energy

$$$$
32:0
     RDKit          3D

 44 46  0  0  0  0  0  0  0  0999 V2000
   64.1200   32.7570   48.9180 C   0  0  0  0  0  0  0  0  0  0  0  0
   63.6060   32.7000   47.6860 C   0  0  0  0  0  0  0  0  0  0  0  0
   62.8190   33.8410   47.1060 C   0  0  0  0  0  0  0  0  0  0  0  0
   61.4040   33.4160   46.8110 C   0  0  0  0  0  0  0  0  0  0  0  0
   60.5180   34.2970   46.1830 C   0  0  0  0  0  0  0  0  0  0  0  0
   59.2170   33.8910   45.8860 C   0  0  0  0  0  0  0  0  0  0  0  0
   58.7730   32.6010   46.2000 C   0  0  0  0  0  0  0  0  0  0  0  0
   57.4440   32.2930   45.8580 O   0  0  0  0  0  0  0  0  0  0  0  0
   56.9550   31.9780   44.5580 C   0  0  0  0  0  0  0  0  0  0  0  0
   57.0000   30.4990   44.3660 C   0  0  0  0  0  0  0  0  0  0  0  0
   57.2610   29.5520   45.3340 C   0  0  0  0  0  0  0  0  0  0  0  0
   57.2630   28.3620   44.7060 N   0  0  0  0  0  0  0  0  0  0  0  0
   57.4660   27.0630   45.2920 C   0  0  0  0  0  0  0  0  0  0  0  0
   58.7430   26.4740   45.2670 C   0  0  0  0  0  0  0  0  0  0  0  0
   58.9530   25.2120   45.8290 C   0  0  0  0  0  0  0  0  0  0  0  0
   57.8940   24.5250   46.4260 C   0  0  0  0  0  0  0  0  0  0  0  0
   58.1000   23.3020   46.9730 F   0  0  0  0  0  0  0  0  0  0  0  0
   56.6220   25.1020   46.4630 C   0  0  0  0  0  0  0  0  0  0  0  0
   56.4030   26.3640   45.9020 C   0  0  0  0  0  0  0  0  0  0  0  0
   55.1680   26.9170   45.9920 F   0  0  0  0  0  0  0  0  0  0  0  0
   57.0200   28.5860   43.4220 N   0  0  0  0  0  0  0  0  0  0  0  0
   56.8660   29.8780   43.1780 N   0  0  0  0  0  0  0  0  0  0  0  0
   59.6640   31.6940   46.8300 C   0  0  0  0  0  0  0  0  0  0  0  0
   59.2360   30.3960   47.1500 O   0  0  0  0  0  0  0  0  0  0  0  0
   60.0400   29.4010   47.7740 C   0  0  0  0  0  0  0  0  0  0  0  0
   60.9780   32.1170   47.1240 C   0  0  0  0  0  0  0  0  0  0  0  0
   64.6918   31.9054   49.3153 H   0  0  0  0  0  0  0  0  0  0  0  0
   63.9714   33.6555   49.5349 H   0  0  0  0  0  0  0  0  0  0  0  0
   63.7630   31.7948   47.0810 H   0  0  0  0  0  0  0  0  0  0  0  0
   62.8037   34.6722   47.8263 H   0  0  0  0  0  0  0  0  0  0  0  0
   63.2960   34.1586   46.1671 H   0  0  0  0  0  0  0  0  0  0  0  0
   60.8481   35.3134   45.9224 H   0  0  0  0  0  0  0  0  0  0  0  0
   58.5286   34.5960   45.3970 H   0  0  0  0  0  0  0  0  0  0  0  0
   55.9180   32.3312   44.4587 H   0  0  0  0  0  0  0  0  0  0  0  0
   57.5790   32.4701   43.7974 H   0  0  0  0  0  0  0  0  0  0  0  0
   57.4331   29.7332   46.4052 H   0  0  0  0  0  0  0  0  0  0  0  0
   59.5827   27.0109   44.8015 H   0  0  0  0  0  0  0  0  0  0  0  0
   59.9549   24.7587   45.8011 H   0  0  0  0  0  0  0  0  0  0  0  0
   55.7890   24.5610   46.9356 H   0  0  0  0  0  0  0  0  0  0  0  0
   56.9790   27.8480   42.6830 H   0  0  0  0  0  0  0  0  0  0  0  0
   59.9614   29.4983   48.8669 H   0  0  0  0  0  0  0  0  0  0  0  0
   59.6914   28.4034   47.4687 H   0  0  0  0  0  0  0  0  0  0  0  0
   61.0886   29.5323   47.4687 H   0  0  0  0  0  0  0  0  0  0  0  0
   61.6778   31.4180   47.6054 H   0  0  0  0  0  0  0  0  0  0  0  0
  1  2  2  0
  2  3  1  0
  3  4  1  0
  4  5  2  0
  5  6  1  0
  6  7  2  0
  7  8  1  0
  8  9  1  0
  9 10  1  0
 10 11  2  0
 11 12  1  0
 12 13  1  0
 13 14  2  0
 14 15  1  0
 15 16  2  0
 16 17  1  0
 16 18  1  0
 18 19  2  0
 19 20  1  0
 12 21  1  0
 21 22  2  0
  7 23  1  0
 23 24  1  0
 24 25  1  0
 23 26  2  0
 26  4  1  0
 22 10  1  0
 19 13  1  0
  1 27  1  0
  1 28  1  0
  2 29  1  0
  3 30  1  0
  3 31  1  0
  5 32  1  0
  6 33  1  0
  9 34  1  0
  9 35  1  0
 11 36  1  0
 14 37  1  0
 15 38  1  0
 18 39  1  0
 21 40  1  0
 25 41  1  0
 25 42  1  0
 25 43  1  0
 26 44  1  0
M  CHG  1  21   1
M  END
>  <UniqueID>  (33) 
32

>  <SMILES>  (33) 
C=CCc1ccc(OCc2cn(-c3ccc(F)cc3F)[nH+]n2)c(OC)c1

>  <Energy>  (33) 
83.29805427148933

>  <Genealogy>  (33) 
C=CCc1ccc(OCc2cn(-c3ccc(F)cc3F)[nH+]n2)c(OC)c1 (protonated)
C=CCc1ccc(OCc2cn(-c3ccc(F)cc3F)[nH+]n2)c(OC)c1 (3D coordinates assigned)
C=CCc1ccc(OCc2cn(-c3ccc(F)cc3F)[nH+]n2)c(OC)c1 (optimized conformer: 83.29805427148933 kcal/mol)

>  <smiles>  (33) 
C=CCc1ccc(OCc2cn(-c3ccc(F)cc3F)nn2)c(OC)c1

>  <score_type>  (33) 
oracle

>  <origin>  (33) 
adg

>  <m_score__min__energy>  (33) 
-6.46

>  <m_primary>  (33) 
energy

$$$$
33:0
     RDKit          3D

 34 36  0  0  1  0  0  0  0  0999 V2000
   57.9170   27.8860   44.2750 C   0  0  0  0  0  0  0  0  0  0  0  0
   59.1250   28.2490   45.1230 C   0  0  0  0  0  0  0  0  0  0  0  0
   58.8770   29.5790   45.6560 N   0  0  0  0  0  0  0  0  0  0  0  0
   58.9890   29.9350   46.9530 C   0  0  0  0  0  0  0  0  0  0  0  0
   58.6790   31.2590   47.0770 N   0  0  0  0  0  0  0  0  0  0  0  0
   58.3750   31.7230   45.8600 C   0  0  0  0  0  0  0  0  0  0  0  0
   57.9930   32.9760   45.4140 C   0  0  0  0  0  0  0  0  0  0  0  0
   57.8710   33.9740   46.2250 N   0  0  0  0  0  0  0  0  0  0  0  0
   58.9150   34.9650   46.2840 C   0  0  0  0  0  0  0  0  0  0  0  0
   60.0890   34.3700   47.0260 C   0  0  0  0  0  0  0  0  0  0  0  0
   60.1810   34.1220   48.3890 C   0  0  0  0  0  0  0  0  0  0  0  0
   61.3440   33.5820   48.8050 C   0  0  0  0  0  0  0  0  0  0  0  0
   62.2970   33.3300   47.9100 C   0  0  0  0  0  0  0  0  0  0  0  0
   63.6600   32.7360   48.1430 C   0  0  0  0  0  0  0  0  0  0  0  0
   61.6170   33.8450   46.3710 S   0  0  0  0  0  0  0  0  0  0  0  0
   57.7420   33.1680   44.1030 N   0  0  0  0  0  0  0  0  0  0  0  0
   57.8680   32.1280   43.2470 C   0  0  0  0  0  0  0  0  0  0  0  0
   57.5480   32.3410   41.5220 Cl  0  0  0  0  0  0  0  0  0  0  0  0
   58.2360   30.8970   43.6430 N   0  0  0  0  0  0  0  0  0  0  0  0
   58.4920   30.6780   44.9440 C   0  0  0  0  0  0  0  0  0  0  0  0
   57.0714   27.6319   44.9311 H   0  0  0  0  0  0  0  0  0  0  0  0
   57.6442   28.7418   43.6401 H   0  0  0  0  0  0  0  0  0  0  0  0
   58.1611   27.0215   43.6401 H   0  0  0  0  0  0  0  0  0  0  0  0
   59.2421   27.5271   45.9447 H   0  0  0  0  0  0  0  0  0  0  0  0
   60.0484   28.2280   44.5257 H   0  0  0  0  0  0  0  0  0  0  0  0
   59.2823   29.2671   47.7764 H   0  0  0  0  0  0  0  0  0  0  0  0
   59.2213   35.2444   45.2651 H   0  0  0  0  0  0  0  0  0  0  0  0
   58.5549   35.8660   46.8023 H   0  0  0  0  0  0  0  0  0  0  0  0
   59.3592   34.3510   49.0835 H   0  0  0  0  0  0  0  0  0  0  0  0
   61.5034   33.3528   49.8690 H   0  0  0  0  0  0  0  0  0  0  0  0
   63.8449   32.6554   49.2244 H   0  0  0  0  0  0  0  0  0  0  0  0
   63.7069   31.7358   47.6875 H   0  0  0  0  0  0  0  0  0  0  0  0
   64.4245   33.3826   47.6875 H   0  0  0  0  0  0  0  0  0  0  0  0
   57.4530   34.0770   43.6950 H   0  0  0  0  0  0  0  0  0  0  0  0
  1  2  1  0
  2  3  1  0
  3  4  1  0
  4  5  2  0
  5  6  1  0
  6  7  1  0
  7  8  2  0
  8  9  1  0
  9 10  1  0
 10 11  2  0
 11 12  1  0
 12 13  2  0
 13 14  1  0
 13 15  1  0
  7 16  1  0
 16 17  1  0
 17 18  1  0
 17 19  2  0
 19 20  1  0
 20  3  1  0
 20  6  2  0
 15 10  1  0
  1 21  1  0
  1 22  1  0
  1 23  1  0
  2 24  1  0
  2 25  1  0
  4 26  1  0
  9 27  1  0
  9 28  1  0
 11 29  1  0
 12 30  1  0
 14 31  1  0
 14 32  1  0
 14 33  1  0
 16 34  1  0
M  END
>  <smiles>  (34) 
CCn1cnc2c(=NCc3ccc(C)s3)[nH]c(Cl)nc21

>  <score_type>  (34) 
oracle

>  <origin>  (34) 
adg

>  <m_score__min__energy>  (34) 
-7.0700000000000003

>  <m_primary>  (34) 
energy

$$$$
35:0
     RDKit          3D

 38 40  0  0  0  0  0  0  0  0999 V2000
   58.0780   32.4700   41.1250 C   0  0  0  0  0  0  0  0  0  0  0  0
   57.0340   31.9080   41.9120 O   0  0  0  0  0  0  0  0  0  0  0  0
   57.1940   31.3680   43.1990 C   0  0  0  0  0  0  0  0  0  0  0  0
   56.6060   30.1360   43.5410 C   0  0  0  0  0  0  0  0  0  0  0  0
   56.7820   29.5800   44.8150 C   0  0  0  0  0  0  0  0  0  0  0  0
   56.1730   28.3270   45.1730 N   0  0  0  0  0  0  0  0  0  0  0  0
   56.8880   27.2060   45.7160 C   0  0  0  0  0  0  0  0  0  0  0  0
   58.2910   27.2560   45.8540 C   0  0  0  0  0  0  0  0  0  0  0  0
   59.0010   26.1520   46.3690 C   0  0  0  0  0  0  0  0  0  0  0  0
   58.3060   24.9870   46.7280 C   0  0  0  0  0  0  0  0  0  0  0  0
   56.9610   24.9750   46.5550 N   0  0  0  0  0  0  0  0  0  0  0  0
   56.0350   24.0280   46.7530 C   0  0  0  0  0  0  0  0  0  0  0  0
   56.2770   22.8770   47.2050 O   0  0  0  0  0  0  0  0  0  0  0  0
   54.8050   24.4560   46.4000 N   0  0  0  0  0  0  0  0  0  0  0  0
   54.9440   25.7060   45.9640 N   0  0  0  0  0  0  0  0  0  0  0  0
   56.2570   26.0070   46.0720 C   0  0  0  0  0  0  0  0  0  0  0  0
   57.5150   30.2840   45.7720 C   0  0  0  0  0  0  0  0  0  0  0  0
   58.1070   31.5190   45.4580 C   0  0  0  0  0  0  0  0  0  0  0  0
   58.8610   32.2400   46.4000 O   0  0  0  0  0  0  0  0  0  0  0  0
   58.3560   32.7300   47.6370 C   0  0  0  0  0  0  0  0  0  0  0  0
   57.9560   32.0640   44.1720 C   0  0  0  0  0  0  0  0  0  0  0  0
   58.5860   33.3020   43.9320 O   0  0  0  0  0  0  0  0  0  0  0  0
   58.5240   34.4610   44.7550 C   0  0  0  0  0  0  0  0  0  0  0  0
   58.8520   32.8867   41.7863 H   0  0  0  0  0  0  0  0  0  0  0  0
   58.5202   31.6880   40.4902 H   0  0  0  0  0  0  0  0  0  0  0  0
   57.6688   33.2697   40.4902 H   0  0  0  0  0  0  0  0  0  0  0  0
   55.9985   29.6010   42.7962 H   0  0  0  0  0  0  0  0  0  0  0  0
   55.1500   28.2070   44.9870 H   0  0  0  0  0  0  0  0  0  0  0  0
   58.8359   28.1643   45.5572 H   0  0  0  0  0  0  0  0  0  0  0  0
   60.0933   26.2037   46.4886 H   0  0  0  0  0  0  0  0  0  0  0  0
   58.8345   24.1128   47.1361 H   0  0  0  0  0  0  0  0  0  0  0  0
   57.6304   29.8672   46.7834 H   0  0  0  0  0  0  0  0  0  0  0  0
   58.8728   32.2285   48.4685 H   0  0  0  0  0  0  0  0  0  0  0  0
   58.5278   33.8147   47.6993 H   0  0  0  0  0  0  0  0  0  0  0  0
   57.2770   32.5255   47.6993 H   0  0  0  0  0  0  0  0  0  0  0  0
   58.5401   34.1606   45.8131 H   0  0  0  0  0  0  0  0  0  0  0  0
   59.3889   35.1072   44.5441 H   0  0  0  0  0  0  0  0  0  0  0  0
   57.5951   35.0112   44.5441 H   0  0  0  0  0  0  0  0  0  0  0  0
  1  2  1  0
  2  3  1  0
  3  4  2  0
  4  5  1  0
  5  6  1  0
  6  7  1  0
  7  8  2  0
  8  9  1  0
  9 10  2  0
 10 11  1  0
 11 12  1  0
 12 13  2  0
 12 14  1  0
 14 15  1  0
 15 16  2  0
  5 17  2  0
 17 18  1  0
 18 19  1  0
 19 20  1  0
 18 21  2  0
 21 22  1  0
 22 23  1  0
 21  3  1  0
 16  7  1  0
 16 11  1  0
  1 24  1  0
  1 25  1  0
  1 26  1  0
  4 27  1  0
  6 28  1  0
  8 29  1  0
  9 30  1  0
 10 31  1  0
 17 32  1  0
 20 33  1  0
 20 34  1  0
 20 35  1  0
 23 36  1  0
 23 37  1  0
 23 38  1  0
M  CHG  1  14  -1
M  END
>  <UniqueID>  (35) 
33

>  <SMILES>  (35) 
COc1cc(Nc2cccn3c(=O)[n-]nc23)cc(OC)c1OC

>  <Energy>  (35) 
90.03939704936857

>  <Genealogy>  (35) 
COc1cc(Nc2cccn3c(=O)[n-]nc23)cc(OC)c1OC (protonated)
COc1cc(Nc2cccn3c(=O)[n-]nc23)cc(OC)c1OC (3D coordinates assigned)
COc1cc(Nc2cccn3c(=O)[n-]nc23)cc(OC)c1OC (optimized conformer: 90.03939704936857 kcal/mol)

>  <smiles>  (35) 
COc1cc(Nc2cccn3c(=O)[nH]nc23)cc(OC)c1OC

>  <score_type>  (35) 
oracle

>  <origin>  (35) 
adg

>  <m_score__min__energy>  (35) 
-8.3699999999999992

>  <m_primary>  (35) 
energy

$$$$
36:0
     RDKit          3D

 51 53  0  0  0  0  0  0  0  0999 V2000
   55.4760   29.7110   43.3970 C   0  0  0  0  0  0  0  0  0  0  0  0
   55.4830   29.0540   44.6600 O   0  0  0  0  0  0  0  0  0  0  0  0
   56.6440   28.7180   45.3730 C   0  0  0  0  0  0  0  0  0  0  0  0
   57.7480   29.5860   45.4550 C   0  0  0  0  0  0  0  0  0  0  0  0
   58.8910   29.2130   46.1640 C   0  0  0  0  0  0  0  0  0  0  0  0
   58.9550   27.9620   46.7930 C   0  0  0  0  0  0  0  0  0  0  0  0
   60.1810   27.5620   47.5720 C   0  0  0  0  0  0  0  0  0  0  0  0
   60.3280   28.3920   48.8480 C   0  0  0  0  0  0  0  0  0  0  0  0
   59.0280   28.8990   49.2760 N   0  0  0  0  0  0  0  0  0  0  0  0
   58.8340   30.0320   50.1310 C   0  0  0  0  0  0  0  0  0  0  0  0
   57.7770   30.0960   50.8140 O   0  0  0  0  0  0  0  0  0  0  0  0
   59.8150   31.1750   50.1750 C   0  0  0  0  0  0  0  0  0  0  0  0
   59.1740   32.4890   49.7090 C   0  0  0  0  0  0  0  0  0  0  0  0
   59.8510   32.9910   48.5000 N   0  0  0  0  0  0  0  0  0  0  0  0
   61.2590   33.2950   48.5550 C   0  0  0  0  0  0  0  0  0  0  0  0
   61.8700   33.3380   49.6590 O   0  0  0  0  0  0  0  0  0  0  0  0
   62.0220   33.5100   47.2830 C   0  0  0  0  0  0  0  0  0  0  0  0
   61.2010   34.1280   46.2970 O   0  0  0  0  0  0  0  0  0  0  0  0
   59.8290   33.8780   46.1960 C   0  0  0  0  0  0  0  0  0  0  0  0
   59.1530   34.2420   45.0270 C   0  0  0  0  0  0  0  0  0  0  0  0
   57.7830   33.9960   44.9020 C   0  0  0  0  0  0  0  0  0  0  0  0
   57.0820   33.3970   45.9500 C   0  0  0  0  0  0  0  0  0  0  0  0
   57.7450   33.0490   47.1310 C   0  0  0  0  0  0  0  0  0  0  0  0
   59.1310   33.2860   47.2730 C   0  0  0  0  0  0  0  0  0  0  0  0
   57.8490   27.1000   46.7280 C   0  0  0  0  0  0  0  0  0  0  0  0
   56.6910   27.4720   46.0190 C   0  0  0  0  0  0  0  0  0  0  0  0
   55.5670   26.6340   45.9350 O   0  0  0  0  0  0  0  0  0  0  0  0
   55.6250   25.2240   45.7500 C   0  0  0  0  0  0  0  0  0  0  0  0
   55.4644   30.8002   43.5503 H   0  0  0  0  0  0  0  0  0  0  0  0
   56.3772   29.4298   42.8324 H   0  0  0  0  0  0  0  0  0  0  0  0
   54.5810   29.4106   42.8324 H   0  0  0  0  0  0  0  0  0  0  0  0
   57.7102   30.5659   44.9567 H   0  0  0  0  0  0  0  0  0  0  0  0
   59.7448   29.9034   46.2294 H   0  0  0  0  0  0  0  0  0  0  0  0
   60.1011   26.4991   47.8439 H   0  0  0  0  0  0  0  0  0  0  0  0
   61.0645   27.7386   46.9409 H   0  0  0  0  0  0  0  0  0  0  0  0
   60.7515   27.7617   49.6439 H   0  0  0  0  0  0  0  0  0  0  0  0
   60.9948   29.2432   48.6459 H   0  0  0  0  0  0  0  0  0  0  0  0
   60.1723   31.2990   51.2079 H   0  0  0  0  0  0  0  0  0  0  0  0
   60.6479   30.9393   49.4963 H   0  0  0  0  0  0  0  0  0  0  0  0
   58.1118   32.3139   49.4832 H   0  0  0  0  0  0  0  0  0  0  0  0
   59.2722   33.2372   50.5094 H   0  0  0  0  0  0  0  0  0  0  0  0
   62.8882   34.1565   47.4873 H   0  0  0  0  0  0  0  0  0  0  0  0
   62.3537   32.5327   46.9023 H   0  0  0  0  0  0  0  0  0  0  0  0
   59.7012   34.7233   44.2037 H   0  0  0  0  0  0  0  0  0  0  0  0
   57.2567   34.2746   43.9771 H   0  0  0  0  0  0  0  0  0  0  0  0
   56.0051   33.1982   45.8466 H   0  0  0  0  0  0  0  0  0  0  0  0
   57.1832   32.5870   47.9562 H   0  0  0  0  0  0  0  0  0  0  0  0
   57.8875   26.1249   47.2357 H   0  0  0  0  0  0  0  0  0  0  0  0
   55.6455   24.7261   46.7306 H   0  0  0  0  0  0  0  0  0  0  0  0
   54.7398   24.8912   45.1882 H   0  0  0  0  0  0  0  0  0  0  0  0
   56.5346   24.9650   45.1882 H   0  0  0  0  0  0  0  0  0  0  0  0
  1  2  1  0
  2  3  1  0
  3  4  2  0
  4  5  1  0
  5  6  2  0
  6  7  1  0
  7  8  1  0
  8  9  1  0
  9 10  1  0
 10 11  2  0
 10 12  1  0
 12 13  1  0
 13 14  1  0
 14 15  1  0
 15 16  2  0
 15 17  1  0
 17 18  1  0
 18 19  1  0
 19 20  2  0
 20 21  1  0
 21 22  2  0
 22 23  1  0
 23 24  2  0
  6 25  1  0
 25 26  2  0
 26 27  1  0
 27 28  1  0
 26  3  1  0
 24 14  1  0
 24 19  1  0
  1 29  1  0
  1 30  1  0
  1 31  1  0
  4 32  1  0
  5 33  1  0
  7 34  1  0
  7 35  1  0
  8 36  1  0
  8 37  1  0
 12 38  1  0
 12 39  1  0
 13 40  1  0
 13 41  1  0
 17 42  1  0
 17 43  1  0
 20 44  1  0
 21 45  1  0
 22 46  1  0
 23 47  1  0
 25 48  1  0
 28 49  1  0
 28 50  1  0
 28 51  1  0
M  CHG  1   9  -1
M  END
>  <UniqueID>  (36) 
34

>  <SMILES>  (36) 
COc1ccc(CC[N-]C(=O)CCN2C(=O)COc3ccccc32)cc1OC

>  <Energy>  (36) 
49.78927145514067

>  <Genealogy>  (36) 
COc1ccc(CC[N-]C(=O)CCN2C(=O)COc3ccccc32)cc1OC (protonated)
COc1ccc(CC[N-]C(=O)CCN2C(=O)COc3ccccc32)cc1OC (3D coordinates assigned)
COc1ccc(CC[N-]C(=O)CCN2C(=O)COc3ccccc32)cc1OC (nonaromatic ring conformer: 49.78927145514067 kcal/mol)

>  <smiles>  (36) 
COc1ccc(CCNC(=O)CCN2C(=O)COc3ccccc32)cc1OC

>  <score_type>  (36) 
oracle

>  <origin>  (36) 
adg

>  <m_score__min__energy>  (36) 
-9.3900000000000006

>  <m_primary>  (36) 
energy

$$$$
37:0
     RDKit          3D

 33 35  0  0  0  0  0  0  0  0999 V2000
   56.6410   24.0120   43.3730 C   0  0  0  0  0  0  0  0  0  0  0  0
   57.5560   23.8880   44.9400 S   0  0  0  0  0  0  0  0  0  0  0  0
   57.7740   25.6630   45.0920 C   0  0  0  0  0  0  0  0  0  0  0  0
   57.6410   26.2810   46.3390 C   0  0  0  0  0  0  0  0  0  0  0  0
   57.8080   27.6640   46.4590 C   0  0  0  0  0  0  0  0  0  0  0  0
   58.1070   28.4440   45.3280 C   0  0  0  0  0  0  0  0  0  0  0  0
   58.2800   29.8670   45.4500 N   0  0  0  0  0  0  0  0  0  0  0  0
   57.3840   30.8970   45.0210 C   0  0  0  0  0  0  0  0  0  0  0  0
   56.2580   30.6900   44.4950 O   0  0  0  0  0  0  0  0  0  0  0  0
   57.9400   32.2060   45.3370 C   0  0  0  0  0  0  0  0  0  0  0  0
   57.4260   33.4810   45.1110 C   0  0  0  0  0  0  0  0  0  0  0  0
   58.1880   34.5850   45.5270 C   0  0  0  0  0  0  0  0  0  0  0  0
   59.4360   34.3970   46.1560 C   0  0  0  0  0  0  0  0  0  0  0  0
   59.9420   33.0980   46.3810 C   0  0  0  0  0  0  0  0  0  0  0  0
   61.2700   32.8900   47.0490 C   0  0  0  0  0  0  0  0  0  0  0  0
   59.1610   32.0140   45.9550 C   0  0  0  0  0  0  0  0  0  0  0  0
   59.3860   30.5690   46.0290 C   0  0  0  0  0  0  0  0  0  0  0  0
   60.4180   30.0110   46.4870 O   0  0  0  0  0  0  0  0  0  0  0  0
   58.2340   27.8160   44.0780 C   0  0  0  0  0  0  0  0  0  0  0  0
   58.0680   26.4320   43.9610 C   0  0  0  0  0  0  0  0  0  0  0  0
   55.5711   24.1570   43.5836 H   0  0  0  0  0  0  0  0  0  0  0  0
   57.0199   24.8670   42.7938 H   0  0  0  0  0  0  0  0  0  0  0  0
   56.7786   23.0870   42.7938 H   0  0  0  0  0  0  0  0  0  0  0  0
   57.4044   25.6777   47.2279 H   0  0  0  0  0  0  0  0  0  0  0  0
   57.7049   28.1443   47.4432 H   0  0  0  0  0  0  0  0  0  0  0  0
   56.4511   33.6191   44.6207 H   0  0  0  0  0  0  0  0  0  0  0  0
   57.8084   35.6040   45.3609 H   0  0  0  0  0  0  0  0  0  0  0  0
   60.0217   35.2718   46.4749 H   0  0  0  0  0  0  0  0  0  0  0  0
   61.1384   32.9106   48.1409 H   0  0  0  0  0  0  0  0  0  0  0  0
   61.6834   31.9162   46.7478 H   0  0  0  0  0  0  0  0  0  0  0  0
   61.9614   33.6908   46.7478 H   0  0  0  0  0  0  0  0  0  0  0  0
   58.4654   28.4162   43.1857 H   0  0  0  0  0  0  0  0  0  0  0  0
   58.1688   25.9478   42.9785 H   0  0  0  0  0  0  0  0  0  0  0  0
  1  2  1  0
  2  3  1  0
  3  4  2  0
  4  5  1  0
  5  6  2  0
  6  7  1  0
  7  8  1  0
  8  9  2  0
  8 10  1  0
 10 11  2  0
 11 12  1  0
 12 13  2  0
 13 14  1  0
 14 15  1  0
 14 16  2  0
 16 17  1  0
 17 18  2  0
  6 19  1  0
 19 20  2  0
 20  3  1  0
 17  7  1  0
 16 10  1  0
  1 21  1  0
  1 22  1  0
  1 23  1  0
  4 24  1  0
  5 25  1  0
 11 26  1  0
 12 27  1  0
 13 28  1  0
 15 29  1  0
 15 30  1  0
 15 31  1  0
 19 32  1  0
 20 33  1  0
M  END
>  <UniqueID>  (37) 
35

>  <SMILES>  (37) 
CSc1ccc(N2C(=O)c3cccc(C)c3C2=O)cc1

>  <Energy>  (37) 
67.64171824053011

>  <Genealogy>  (37) 
CSc1ccc(N2C(=O)c3cccc(C)c3C2=O)cc1 (3D coordinates assigned)
CSc1ccc(N2C(=O)c3cccc(C)c3C2=O)cc1 (nonaromatic ring conformer: 67.64171824053011 kcal/mol)

>  <smiles>  (37) 
CSc1ccc(N2C(=O)c3cccc(C)c3C2=O)cc1

>  <score_type>  (37) 
oracle

>  <origin>  (37) 
adg

>  <m_score__min__energy>  (37) 
-7.4199999999999999

>  <m_primary>  (37) 
energy

$$$$
38:0
     RDKit          3D

 33 33  0  0  0  0  0  0  0  0999 V2000
   56.2770   29.7530   42.6380 C   0  0  0  0  0  0  0  0  0  0  0  0
   56.1660   30.2790   44.0690 C   0  0  0  0  0  0  0  0  0  0  0  0
   57.4810   30.9000   44.5730 C   0  0  0  0  0  0  0  0  0  0  0  0
   57.7630   32.3040   43.9920 C   0  0  0  0  0  0  0  0  0  0  0  0
   57.4780   33.4530   44.9810 C   0  0  0  0  0  0  0  0  0  0  0  0
   58.5150   34.5840   44.9550 C   0  0  0  0  0  0  0  0  0  0  0  0
   59.6410   34.3070   45.8540 C   0  0  0  0  0  0  0  0  0  0  0  0
   60.5670   34.1010   46.5970 C   0  0  0  0  0  0  0  0  0  0  0  0
   61.6590   33.8440   47.4920 C   0  0  0  0  0  0  0  0  0  0  0  0
   61.5510   33.8670   48.8400 N   0  0  0  0  0  0  0  0  0  0  0  0
   62.7280   33.5910   49.4590 C   0  0  0  0  0  0  0  0  0  0  0  0
   63.7820   33.3470   48.5890 C   0  0  0  0  0  0  0  0  0  0  0  0
   65.0850   33.0430   48.9910 O   0  0  0  0  0  0  0  0  0  0  0  0
   65.3680   32.2940   50.1670 C   0  0  0  0  0  0  0  0  0  0  0  0
   63.2270   33.4800   47.0000 S   0  0  0  0  0  0  0  0  0  0  0  0
   56.5041   28.6769   42.6595 H   0  0  0  0  0  0  0  0  0  0  0  0
   55.3246   29.9163   42.1124 H   0  0  0  0  0  0  0  0  0  0  0  0
   57.0822   30.2872   42.1124 H   0  0  0  0  0  0  0  0  0  0  0  0
   55.3782   31.0459   44.1027 H   0  0  0  0  0  0  0  0  0  0  0  0
   55.9282   29.4256   44.7210 H   0  0  0  0  0  0  0  0  0  0  0  0
   57.4303   30.9806   45.6689 H   0  0  0  0  0  0  0  0  0  0  0  0
   58.2975   30.2424   44.2400 H   0  0  0  0  0  0  0  0  0  0  0  0
   58.8222   32.3524   43.6993 H   0  0  0  0  0  0  0  0  0  0  0  0
   57.0847   32.4402   43.1368 H   0  0  0  0  0  0  0  0  0  0  0  0
   56.4951   33.8818   44.7361 H   0  0  0  0  0  0  0  0  0  0  0  0
   57.5159   33.0156   45.9896 H   0  0  0  0  0  0  0  0  0  0  0  0
   58.8964   34.6947   43.9292 H   0  0  0  0  0  0  0  0  0  0  0  0
   58.0240   35.5080   45.2942 H   0  0  0  0  0  0  0  0  0  0  0  0
   60.6640   34.0730   49.3510 H   0  0  0  0  0  0  0  0  0  0  0  0
   62.8366   33.5632   50.5533 H   0  0  0  0  0  0  0  0  0  0  0  0
   65.1379   32.9029   51.0537 H   0  0  0  0  0  0  0  0  0  0  0  0
   64.7523   31.3826   50.1783 H   0  0  0  0  0  0  0  0  0  0  0  0
   66.4326   32.0174   50.1783 H   0  0  0  0  0  0  0  0  0  0  0  0
  1  2  1  0
  2  3  1  0
  3  4  1  0
  4  5  1  0
  5  6  1  0
  6  7  1  0
  7  8  3  0
  8  9  1  0
  9 10  2  0
 10 11  1  0
 11 12  2  0
 12 13  1  0
 13 14  1  0
 12 15  1  0
 15  9  1  0
  1 16  1  0
  1 17  1  0
  1 18  1  0
  2 19  1  0
  2 20  1  0
  3 21  1  0
  3 22  1  0
  4 23  1  0
  4 24  1  0
  5 25  1  0
  5 26  1  0
  6 27  1  0
  6 28  1  0
 10 29  1  0
 11 30  1  0
 14 31  1  0
 14 32  1  0
 14 33  1  0
M  CHG  1  10   1
M  END
>  <UniqueID>  (38) 
36

>  <SMILES>  (38) 
CCCCCCC#Cc1[nH+]cc(OC)s1

>  <Energy>  (38) 
47.411075942659956

>  <Genealogy>  (38) 
CCCCCCC#Cc1[nH+]cc(OC)s1 (protonated)
CCCCCCC#Cc1[nH+]cc(OC)s1 (3D coordinates assigned)
CCCCCCC#Cc1[nH+]cc(OC)s1 (optimized conformer: 47.411075942659956 kcal/mol)

>  <smiles>  (38) 
CCCCCCC#Cc1ncc(OC)s1

>  <score_type>  (38) 
oracle

>  <origin>  (38) 
adg

>  <m_score__min__energy>  (38) 
-3.5499999999999998

>  <m_primary>  (38) 
energy

$$$$
39:0
     RDKit          3D

 38 41  0  0  1  0  0  0  0  0999 V2000
   58.9610   25.6390   45.6160 C   0  0  0  0  0  0  0  0  0  0  0  0
   58.2790   26.9090   45.4580 C   0  0  0  0  0  0  0  0  0  0  0  0
   57.6550   27.7930   46.3360 C   0  0  0  0  0  0  0  0  0  0  0  0
   57.1520   28.8560   45.7610 N   0  0  0  0  0  0  0  0  0  0  0  0
   57.1330   29.2000   44.6410 C   0  0  0  0  0  0  0  0  0  0  0  0
   56.6400   30.3110   43.7940 C   0  0  0  0  0  0  0  0  0  0  0  0
   56.5300   31.5410   44.5030 N   0  0  0  0  0  0  0  0  0  0  0  0
   57.4780   32.2410   44.9980 C   0  0  0  0  0  0  0  0  0  0  0  0
   57.5950   33.5590   44.6260 C   0  0  0  0  0  0  0  0  0  0  0  0
   58.6210   34.2850   45.1750 C   0  0  0  0  0  0  0  0  0  0  0  0
   59.4970   33.7240   46.0560 N   0  0  0  0  0  0  0  0  0  0  0  0
   60.5360   34.1530   46.7180 N   0  0  0  0  0  0  0  0  0  0  0  0
   61.0810   33.1890   47.4820 C   0  0  0  0  0  0  0  0  0  0  0  0
   62.2370   33.2420   48.3690 C   0  0  0  0  0  0  0  0  0  0  0  0
   63.3190   32.4020   48.2300 C   0  0  0  0  0  0  0  0  0  0  0  0
   64.4180   32.4320   49.0510 C   0  0  0  0  0  0  0  0  0  0  0  0
   64.4440   33.3700   50.0870 C   0  0  0  0  0  0  0  0  0  0  0  0
   63.3640   34.2160   50.2310 C   0  0  0  0  0  0  0  0  0  0  0  0
   63.3820   35.1350   51.2420 F   0  0  0  0  0  0  0  0  0  0  0  0
   62.2600   34.1810   49.4030 C   0  0  0  0  0  0  0  0  0  0  0  0
   60.3210   32.0430   47.2910 C   0  0  0  0  0  0  0  0  0  0  0  0
   59.3410   32.4170   46.3940 C   0  0  0  0  0  0  0  0  0  0  0  0
   58.3320   31.6760   45.8650 N   0  0  0  0  0  0  0  0  0  0  0  0
   58.0570   27.7690   43.7990 S   0  0  0  0  0  0  0  0  0  0  0  0
   59.0800   25.4174   46.6869 H   0  0  0  0  0  0  0  0  0  0  0  0
   58.3689   24.8432   45.1405 H   0  0  0  0  0  0  0  0  0  0  0  0
   59.9514   25.6930   45.1405 H   0  0  0  0  0  0  0  0  0  0  0  0
   57.5906   27.6130   47.4193 H   0  0  0  0  0  0  0  0  0  0  0  0
   57.3386   30.4502   42.9558 H   0  0  0  0  0  0  0  0  0  0  0  0
   55.6325   30.0391   43.4460 H   0  0  0  0  0  0  0  0  0  0  0  0
   56.8914   34.0149   43.9139 H   0  0  0  0  0  0  0  0  0  0  0  0
   58.7396   35.3430   44.8984 H   0  0  0  0  0  0  0  0  0  0  0  0
   63.3014   31.6646   47.4140 H   0  0  0  0  0  0  0  0  0  0  0  0
   65.2563   31.7364   48.8980 H   0  0  0  0  0  0  0  0  0  0  0  0
   65.3039   33.4320   50.7702 H   0  0  0  0  0  0  0  0  0  0  0  0
   61.4198   34.8748   49.5536 H   0  0  0  0  0  0  0  0  0  0  0  0
   60.4675   31.0553   47.7525 H   0  0  0  0  0  0  0  0  0  0  0  0
   58.2480   30.6740   46.1500 H   0  0  0  0  0  0  0  0  0  0  0  0
  1  2  1  0
  2  3  2  0
  3  4  1  0
  4  5  2  0
  5  6  1  0
  6  7  1  0
  7  8  2  0
  8  9  1  0
  9 10  2  0
 10 11  1  0
 11 12  1  0
 12 13  2  0
 13 14  1  0
 14 15  2  0
 15 16  1  0
 16 17  2  0
 17 18  1  0
 18 19  1  0
 18 20  2  0
 13 21  1  0
 21 22  2  0
 22 23  1  0
  5 24  1  0
 24  2  1  0
 23  8  1  0
 22 11  1  0
 20 14  1  0
  1 25  1  0
  1 26  1  0
  1 27  1  0
  3 28  1  0
  6 29  1  0
  6 30  1  0
  9 31  1  0
 10 32  1  0
 15 33  1  0
 16 34  1  0
 17 35  1  0
 20 36  1  0
 21 37  1  0
 23 38  1  0
M  END
>  <smiles>  (39) 
Cc1cnc(CN=c2ccn3nc(-c4cccc(F)c4)cc3[nH]2)s1

>  <score_type>  (39) 
oracle

>  <origin>  (39) 
adg

>  <m_score__min__energy>  (39) 
-7.4400000000000004

>  <m_primary>  (39) 
energy

$$$$
40:0
     RDKit          3D

 27 27  0  0  0  0  0  0  0  0999 V2000
   58.8224   32.3124   47.3117 H   0  0  0  0  0  0  0  0  0  0  0  0
   58.6120   32.4350   46.2390 C   0  0  0  0  0  0  0  0  0  0  0  0
   58.0570   31.3780   45.5110 C   0  0  0  0  0  0  0  0  0  0  0  0
   57.8300   30.4264   46.0139 H   0  0  0  0  0  0  0  0  0  0  0  0
   57.7880   31.5260   44.1400 C   0  0  0  0  0  0  0  0  0  0  0  0
   57.1790   30.3870   43.3610 C   0  0  0  0  0  0  0  0  0  0  0  0
   57.9662   29.8962   42.7699 H   0  0  0  0  0  0  0  0  0  0  0  0
   56.3962   30.7951   42.7048 H   0  0  0  0  0  0  0  0  0  0  0  0
   56.5440   29.3640   44.2840 C   0  0  0  0  0  0  0  0  0  0  0  0
   55.2350   29.6360   44.8050 N   0  0  0  0  0  0  0  0  0  0  0  0
   54.7190   30.5040   44.5390 H   0  0  0  0  0  0  0  0  0  0  0  0
   54.7590   28.9600   45.4430 H   0  0  0  0  0  0  0  0  0  0  0  0
   57.0950   28.2030   44.5440 N   0  0  0  0  0  0  0  0  0  0  0  0
   56.7520   27.3650   44.0220 H   0  0  0  0  0  0  0  0  0  0  0  0
   58.1950   27.9620   45.4830 C   0  0  0  0  0  0  0  0  0  0  0  0
   58.1815   26.9060   45.7907 H   0  0  0  0  0  0  0  0  0  0  0  0
   58.0626   28.6173   46.3565 H   0  0  0  0  0  0  0  0  0  0  0  0
   59.5400   28.2770   44.8350 C   0  0  0  0  0  0  0  0  0  0  0  0
   60.2920   28.4531   45.6182 H   0  0  0  0  0  0  0  0  0  0  0  0
   59.8536   27.4280   44.2098 H   0  0  0  0  0  0  0  0  0  0  0  0
   59.4440   29.1770   44.2098 H   0  0  0  0  0  0  0  0  0  0  0  0
   58.0780   32.7490   43.5100 C   0  0  0  0  0  0  0  0  0  0  0  0
   57.8675   32.8765   42.4379 H   0  0  0  0  0  0  0  0  0  0  0  0
   58.6330   33.8040   44.2410 C   0  0  0  0  0  0  0  0  0  0  0  0
   58.8599   34.7580   43.7425 H   0  0  0  0  0  0  0  0  0  0  0  0
   58.9000   33.6480   45.6050 C   0  0  0  0  0  0  0  0  0  0  0  0
   59.5950   34.9730   46.5200 Cl  0  0  0  0  0  0  0  0  0  0  0  0
  1  2  1  0
  2  3  2  0
  3  4  1  0
  3  5  1  0
  5  6  1  0
  6  7  1  0
  6  8  1  0
  6  9  1  0
  9 10  1  0
 10 11  1  0
 10 12  1  0
  9 13  2  0
 13 14  1  0
 13 15  1  0
 15 16  1  0
 15 17  1  0
 15 18  1  0
 18 19  1  0
 18 20  1  0
 18 21  1  0
  5 22  2  0
 22 23  1  0
 22 24  1  0
 24 25  1  0
 24 26  2  0
 26 27  1  0
 26  2  1  0
M  CHG  1  13   1
M  END
>  <UniqueID>  (40) 
37

>  <SMILES>  (40) 
CC/[NH+]=C(/N)Cc1ccc(Cl)cc1

>  <Energy>  (40) 
22.58194970079865

>  <Genealogy>  (40) 
CC[NH+]=C(N)Cc1ccc(Cl)cc1 (protonated)
CC/[NH+]=C(/N)Cc1ccc(Cl)cc1 (cis-trans isomerization)
CC/[NH+]=C(/N)Cc1ccc(Cl)cc1 (3D coordinates assigned)
CC/[NH+]=C(/N)Cc1ccc(Cl)cc1 (optimized conformer: 22.58194970079865 kcal/mol)

>  <smiles>  (40) 
CCN=C(N)Cc1ccc(Cl)cc1

>  <score_type>  (40) 
oracle

>  <origin>  (40) 
adg

>  <m_score__min__energy>  (40) 
-4.8399999999999999

>  <m_primary>  (40) 
energy

$$$$
41:0
     RDKit          3D

 35 38  0  0  0  0  0  0  0  0999 V2000
   59.3050   24.3730   45.9950 C   0  0  0  0  0  0  0  0  0  0  0  0
   58.8300   25.7760   45.7510 C   0  0  0  0  0  0  0  0  0  0  0  0
   57.4820   26.0180   45.4360 C   0  0  0  0  0  0  0  0  0  0  0  0
   57.0220   27.3250   45.2430 C   0  0  0  0  0  0  0  0  0  0  0  0
   57.9080   28.4020   45.3760 C   0  0  0  0  0  0  0  0  0  0  0  0
   59.2630   28.1680   45.7100 C   0  0  0  0  0  0  0  0  0  0  0  0
   60.1290   29.2800   45.8450 C   0  0  0  0  0  0  0  0  0  0  0  0
   59.6610   30.5490   45.6540 N   0  0  0  0  0  0  0  0  0  0  0  0
   58.3550   30.7160   45.3340 C   0  0  0  0  0  0  0  0  0  0  0  0
   57.6440   31.8620   45.1000 C   0  0  0  0  0  0  0  0  0  0  0  0
   58.2300   33.5130   45.1520 S   0  0  0  0  0  0  0  0  0  0  0  0
   58.9110   33.8440   43.8540 O   0  0  0  0  0  0  0  0  0  0  0  0
   57.0740   34.4530   45.3430 O   0  0  0  0  0  0  0  0  0  0  0  0
   59.3490   33.6910   46.4990 C   0  0  0  0  0  0  0  0  0  0  0  0
   58.8670   33.8770   47.8040 C   0  0  0  0  0  0  0  0  0  0  0  0
   59.7610   34.0430   48.8660 C   0  0  0  0  0  0  0  0  0  0  0  0
   61.1390   34.0250   48.6300 C   0  0  0  0  0  0  0  0  0  0  0  0
   61.6240   33.8460   47.3310 C   0  0  0  0  0  0  0  0  0  0  0  0
   60.7320   33.6810   46.2670 C   0  0  0  0  0  0  0  0  0  0  0  0
   56.3690   31.4930   44.8270 N   0  0  0  0  0  0  0  0  0  0  0  0
   56.3190   30.1630   44.8950 N   0  0  0  0  0  0  0  0  0  0  0  0
   57.5180   29.6900   45.2010 N   0  0  0  0  0  0  0  0  0  0  0  0
   59.7160   26.8560   45.9020 C   0  0  0  0  0  0  0  0  0  0  0  0
   59.3670   24.1900   47.0779 H   0  0  0  0  0  0  0  0  0  0  0  0
   58.5973   23.6625   45.5429 H   0  0  0  0  0  0  0  0  0  0  0  0
   60.2988   24.2385   45.5429 H   0  0  0  0  0  0  0  0  0  0  0  0
   56.7835   25.1736   45.3405 H   0  0  0  0  0  0  0  0  0  0  0  0
   55.9676   27.5065   44.9875 H   0  0  0  0  0  0  0  0  0  0  0  0
   61.1858   29.1209   46.1055 H   0  0  0  0  0  0  0  0  0  0  0  0
   57.7832   33.8922   47.9916 H   0  0  0  0  0  0  0  0  0  0  0  0
   59.3801   34.1878   49.8877 H   0  0  0  0  0  0  0  0  0  0  0  0
   61.8418   34.1517   49.4667 H   0  0  0  0  0  0  0  0  0  0  0  0
   62.7083   33.8350   47.1459 H   0  0  0  0  0  0  0  0  0  0  0  0
   61.1160   33.5430   45.2455 H   0  0  0  0  0  0  0  0  0  0  0  0
   60.7664   26.6713   46.1712 H   0  0  0  0  0  0  0  0  0  0  0  0
  1  2  1  0
  2  3  2  0
  3  4  1  0
  4  5  2  0
  5  6  1  0
  6  7  1  0
  7  8  2  0
  8  9  1  0
  9 10  2  0
 10 11  1  0
 11 12  2  0
 11 13  2  0
 11 14  1  0
 14 15  2  0
 15 16  1  0
 16 17  2  0
 17 18  1  0
 18 19  2  0
 10 20  1  0
 20 21  2  0
 21 22  1  0
  6 23  2  0
 23  2  1  0
 22  5  1  0
 22  9  1  0
 19 14  1  0
  1 24  1  0
  1 25  1  0
  1 26  1  0
  3 27  1  0
  4 28  1  0
  7 29  1  0
 15 30  1  0
 16 31  1  0
 17 32  1  0
 18 33  1  0
 19 34  1  0
 23 35  1  0
M  END
>  <UniqueID>  (41) 
38

>  <SMILES>  (41) 
Cc1ccc2c(cnc3c(S(=O)(=O)c4ccccc4)nnn32)c1

>  <Energy>  (41) 
88.47630336050693

>  <Genealogy>  (41) 
Cc1ccc2c(cnc3c(S(=O)(=O)c4ccccc4)nnn32)c1 (3D coordinates assigned)
Cc1ccc2c(cnc3c(S(=O)(=O)c4ccccc4)nnn32)c1 (optimized conformer: 88.47630336050693 kcal/mol)

>  <smiles>  (41) 
Cc1ccc2c(cnc3c(S(=O)(=O)c4ccccc4)nnn32)c1

>  <score_type>  (41) 
oracle

>  <origin>  (41) 
adg

>  <m_score__min__energy>  (41) 
-8.6400000000000006

>  <m_primary>  (41) 
energy

$$$$
42:0
     RDKit          3D

 55 59  0  0  0  0  0  0  0  0999 V2000
   56.9610   21.0470   42.9930 C   0  0  0  0  0  0  0  0  0  0  0  0
   56.0270   22.0510   43.3770 O   0  0  0  0  0  0  0  0  0  0  0  0
   56.3710   23.2560   44.0070 C   0  0  0  0  0  0  0  0  0  0  0  0
   56.0100   23.4290   45.3480 C   0  0  0  0  0  0  0  0  0  0  0  0
   56.3260   24.6090   46.0250 C   0  0  0  0  0  0  0  0  0  0  0  0
   57.0100   25.6400   45.3650 C   0  0  0  0  0  0  0  0  0  0  0  0
   57.3320   26.8290   46.0390 C   0  0  0  0  0  0  0  0  0  0  0  0
   58.0120   27.8630   45.3720 C   0  0  0  0  0  0  0  0  0  0  0  0
   58.3650   29.1110   46.0790 C   0  0  0  0  0  0  0  0  0  0  0  0
   58.9300   29.2000   47.3470 C   0  0  0  0  0  0  0  0  0  0  0  0
   59.1010   30.4950   47.7020 N   0  0  0  0  0  0  0  0  0  0  0  0
   59.6600   30.9600   48.9770 C   0  0  0  0  0  0  0  0  0  0  0  0
   61.0030   31.6920   48.7930 C   0  0  1  0  0  0  0  0  0  0  0  0
   61.7930   31.2230   47.5740 C   0  0  0  0  0  0  0  0  0  0  0  0
   62.5410   32.4560   47.1400 C   0  0  0  0  0  0  0  0  0  0  0  0
   61.6330   33.6000   47.5540 C   0  0  0  0  0  0  0  0  0  0  0  0
   60.7980   33.1390   48.6650 N   0  0  0  0  0  0  0  0  0  0  0  0
   58.6650   31.2340   46.6570 C   0  0  0  0  0  0  0  0  0  0  0  0
   58.6570   32.6270   46.5270 C   0  0  0  0  0  0  0  0  0  0  0  0
   58.1780   33.1870   45.3180 C   0  0  0  0  0  0  0  0  0  0  0  0
   58.1260   34.5730   45.1050 O   0  0  0  0  0  0  0  0  0  0  0  0
   59.2690   35.4170   45.0250 C   0  0  0  0  0  0  0  0  0  0  0  0
   57.7370   32.3370   44.2810 C   0  0  0  0  0  0  0  0  0  0  0  0
   57.7570   30.9410   44.4350 C   0  0  0  0  0  0  0  0  0  0  0  0
   58.2110   30.4200   45.6470 C   0  0  0  0  0  0  0  0  0  0  0  0
   58.3930   27.6830   44.0330 C   0  0  0  0  0  0  0  0  0  0  0  0
   58.0770   26.5030   43.3550 C   0  0  0  0  0  0  0  0  0  0  0  0
   57.3830   25.4770   44.0120 C   0  0  0  0  0  0  0  0  0  0  0  0
   57.0610   24.2880   43.3380 C   0  0  0  0  0  0  0  0  0  0  0  0
   57.3920   20.5837   43.8928 H   0  0  0  0  0  0  0  0  0  0  0  0
   56.4487   20.2791   42.3948 H   0  0  0  0  0  0  0  0  0  0  0  0
   57.7638   21.5026   42.3948 H   0  0  0  0  0  0  0  0  0  0  0  0
   55.4716   22.6271   45.8744 H   0  0  0  0  0  0  0  0  0  0  0  0
   56.0374   24.7300   47.0795 H   0  0  0  0  0  0  0  0  0  0  0  0
   57.0505   26.9521   47.0952 H   0  0  0  0  0  0  0  0  0  0  0  0
   59.2003   28.3377   47.9742 H   0  0  0  0  0  0  0  0  0  0  0  0
   58.9430   31.6488   49.4476 H   0  0  0  0  0  0  0  0  0  0  0  0
   59.8411   30.0771   49.6076 H   0  0  0  0  0  0  0  0  0  0  0  0
   61.5845   31.4519   49.6953 H   0  0  0  0  0  0  0  0  0  0  0  0
   62.4898   30.4159   47.8444 H   0  0  0  0  0  0  0  0  0  0  0  0
   61.1508   30.8118   46.7812 H   0  0  0  0  0  0  0  0  0  0  0  0
   63.5131   32.5237   47.6504 H   0  0  0  0  0  0  0  0  0  0  0  0
   62.7629   32.4597   46.0626 H   0  0  0  0  0  0  0  0  0  0  0  0
   62.2393   34.4598   47.8751 H   0  0  0  0  0  0  0  0  0  0  0  0
   61.0031   33.9119   46.7078 H   0  0  0  0  0  0  0  0  0  0  0  0
   61.1200   33.6060   49.5470 H   0  0  0  0  0  0  0  0  0  0  0  0
   59.0141   33.2713   47.3439 H   0  0  0  0  0  0  0  0  0  0  0  0
   59.6104   35.6691   46.0398 H   0  0  0  0  0  0  0  0  0  0  0  0
   60.0736   34.8946   44.4867 H   0  0  0  0  0  0  0  0  0  0  0  0
   59.0065   36.3397   44.4867 H   0  0  0  0  0  0  0  0  0  0  0  0
   57.3727   32.7738   43.3394 H   0  0  0  0  0  0  0  0  0  0  0  0
   57.4242   30.2775   43.6232 H   0  0  0  0  0  0  0  0  0  0  0  0
   58.9458   28.4789   43.5124 H   0  0  0  0  0  0  0  0  0  0  0  0
   58.3734   26.3785   42.3030 H   0  0  0  0  0  0  0  0  0  0  0  0
   57.3482   24.1610   42.2838 H   0  0  0  0  0  0  0  0  0  0  0  0
  1  2  1  0
  2  3  1  0
  3  4  2  0
  4  5  1  0
  5  6  2  0
  6  7  1  0
  7  8  2  0
  8  9  1  0
  9 10  2  0
 10 11  1  0
 11 12  1  0
 12 13  1  0
 13 14  1  0
 14 15  1  0
 15 16  1  0
 16 17  1  0
 11 18  1  0
 18 19  2  0
 19 20  1  0
 20 21  1  0
 21 22  1  0
 20 23  2  0
 23 24  1  0
 24 25  2  0
  8 26  1  0
 26 27  2  0
 27 28  1  0
 28 29  2  0
 29  3  1  0
 28  6  1  0
 25  9  1  0
 17 13  1  0
 25 18  1  0
  1 30  1  0
  1 31  1  0
  1 32  1  0
  4 33  1  0
  5 34  1  0
  7 35  1  0
 10 36  1  0
 12 37  1  0
 12 38  1  0
 13 39  1  1
 14 40  1  0
 14 41  1  0
 15 42  1  0
 15 43  1  0
 16 44  1  0
 16 45  1  0
 17 46  1  0
 19 47  1  0
 22 48  1  0
 22 49  1  0
 22 50  1  0
 23 51  1  0
 24 52  1  0
 26 53  1  0
 27 54  1  0
 29 55  1  0
M  END
>  <UniqueID>  (42) 
39

>  <SMILES>  (42) 
COc1ccc2cc(-c3cn(C[C@H]4CCCN4)c4cc(OC)ccc34)ccc2c1

>  <Energy>  (42) 
97.7316593529607

>  <Genealogy>  (42) 
COc1ccc2cc(-c3cn(C[C@H]4CCCN4)c4cc(OC)ccc34)ccc2c1 (chirality)
COc1ccc2cc(-c3cn(C[C@H]4CCCN4)c4cc(OC)ccc34)ccc2c1 (3D coordinates assigned)
COc1ccc2cc(-c3cn(C[C@H]4CCCN4)c4cc(OC)ccc34)ccc2c1 (nonaromatic ring conformer: 97.7316593529607 kcal/mol)

>  <smiles>  (42) 
COc1ccc2cc(-c3cn(CC4CCCN4)c4cc(OC)ccc34)ccc2c1

>  <score_type>  (42) 
oracle

>  <origin>  (42) 
adg

>  <m_score__min__energy>  (42) 
-8.9900000000000002

>  <m_primary>  (42) 
energy

$$$$
43:0
     RDKit          3D

 24 25  0  0  0  0  0  0  0  0999 V2000
   55.5220   29.7070   43.6550 C   0  0  0  0  0  0  0  0  0  0  0  0
   56.8480   30.0970   43.0170 C   0  0  0  0  0  0  0  0  0  0  0  0
   57.5220   31.1080   43.8300 N   0  0  0  0  0  0  0  0  0  0  0  0
   57.7140   31.1200   45.1690 C   0  0  0  0  0  0  0  0  0  0  0  0
   57.3660   30.1920   45.9480 O   0  0  0  0  0  0  0  0  0  0  0  0
   58.3250   32.2530   45.5640 N   0  0  0  0  0  0  0  0  0  0  0  0
   58.5210   32.9920   44.4870 N   0  0  0  0  0  0  0  0  0  0  0  0
   58.0430   32.2930   43.4370 C   0  0  0  0  0  0  0  0  0  0  0  0
   58.0860   32.6900   42.2420 O   0  0  0  0  0  0  0  0  0  0  0  0
   59.2930   34.2320   44.5000 C   0  0  0  0  0  0  0  0  0  0  0  0
   59.2080   34.8890   45.8950 C   0  0  0  0  0  0  0  0  0  0  0  0
   59.2610   33.8800   47.0220 C   0  0  0  0  0  0  0  0  0  0  0  0
   58.7630   32.6500   46.8630 C   0  0  0  0  0  0  0  0  0  0  0  0
   55.6196   29.7357   44.7503 H   0  0  0  0  0  0  0  0  0  0  0  0
   54.7407   30.4134   43.3379 H   0  0  0  0  0  0  0  0  0  0  0  0
   55.2475   28.6901   43.3379 H   0  0  0  0  0  0  0  0  0  0  0  0
   57.4894   29.2068   42.9391 H   0  0  0  0  0  0  0  0  0  0  0  0
   56.6565   30.5109   42.0160 H   0  0  0  0  0  0  0  0  0  0  0  0
   60.3443   34.0097   44.2649 H   0  0  0  0  0  0  0  0  0  0  0  0
   58.8822   34.9225   43.7487 H   0  0  0  0  0  0  0  0  0  0  0  0
   60.0514   35.5861   46.0073 H   0  0  0  0  0  0  0  0  0  0  0  0
   58.2397   35.4069   45.9590 H   0  0  0  0  0  0  0  0  0  0  0  0
   59.7148   34.1625   47.9834 H   0  0  0  0  0  0  0  0  0  0  0  0
   58.6922   31.9582   47.7153 H   0  0  0  0  0  0  0  0  0  0  0  0
  1  2  1  0
  2  3  1  0
  3  4  1  0
  4  5  2  0
  4  6  1  0
  6  7  1  0
  7  8  1  0
  8  9  2  0
  7 10  1  0
 10 11  1  0
 11 12  1  0
 12 13  2  0
  8  3  1  0
 13  6  1  0
  1 14  1  0
  1 15  1  0
  1 16  1  0
  2 17  1  0
  2 18  1  0
 10 19  1  0
 10 20  1  0
 11 21  1  0
 11 22  1  0
 12 23  1  0
 13 24  1  0
M  END
>  <UniqueID>  (43) 
40

>  <SMILES>  (43) 
CCn1c(=O)n2n(c1=O)CCC=C2

>  <Energy>  (43) 
62.81949964580072

>  <Genealogy>  (43) 
CCn1c(=O)n2n(c1=O)CCC=C2 (3D coordinates assigned)
CCn1c(=O)n2n(c1=O)CCC=C2 (nonaromatic ring conformer: 62.81949964580072 kcal/mol)

>  <smiles>  (43) 
CCn1c(=O)n2n(c1=O)CCC=C2

>  <score_type>  (43) 
oracle

>  <origin>  (43) 
adg

>  <m_score__min__energy>  (43) 
-5.1399999999999997

>  <m_primary>  (43) 
energy

$$$$
44:0
     RDKit          3D

 41 42  0  0  0  0  0  0  0  0999 V2000
   57.4290   34.1110   45.5560 C   0  0  0  0  0  0  0  0  0  0  0  0
   58.4400   33.5260   44.5700 C   0  0  0  0  0  0  0  0  0  0  0  0
   57.7750   32.6540   43.4960 C   0  0  0  0  0  0  0  0  0  0  0  0
   57.2720   31.3630   44.0720 C   0  0  0  0  0  0  0  0  0  0  0  0
   56.2680   31.3760   44.8350 O   0  0  0  0  0  0  0  0  0  0  0  0
   57.9360   30.1280   43.7600 N   0  0  0  0  0  0  0  0  0  0  0  0
   57.8870   28.9560   44.5910 C   0  0  0  0  0  0  0  0  0  0  0  0
   59.0710   28.4690   45.1620 C   0  0  0  0  0  0  0  0  0  0  0  0
   59.0460   27.3470   45.9940 C   0  0  0  0  0  0  0  0  0  0  0  0
   57.8330   26.7180   46.2860 C   0  0  0  0  0  0  0  0  0  0  0  0
   56.6350   27.2160   45.7630 C   0  0  0  0  0  0  0  0  0  0  0  0
   55.4060   26.5530   46.1000 N   0  0  0  0  0  0  0  0  0  0  0  0
   54.9580   25.2780   45.6180 C   0  0  0  0  0  0  0  0  0  0  0  0
   53.7220   25.0380   45.6060 O   0  0  0  0  0  0  0  0  0  0  0  0
   55.8930   24.2450   45.1170 C   0  0  0  0  0  0  0  0  0  0  0  0
   55.8940   23.9600   43.7410 C   0  0  0  0  0  0  0  0  0  0  0  0
   56.7240   22.9680   43.2190 C   0  0  0  0  0  0  0  0  0  0  0  0
   57.5730   22.2540   44.0620 C   0  0  0  0  0  0  0  0  0  0  0  0
   57.6020   22.5350   45.4290 C   0  0  0  0  0  0  0  0  0  0  0  0
   56.7860   23.5440   45.9700 C   0  0  0  0  0  0  0  0  0  0  0  0
   56.8880   23.8340   47.4440 C   0  0  0  0  0  0  0  0  0  0  0  0
   56.6670   28.3250   44.9000 C   0  0  0  0  0  0  0  0  0  0  0  0
   57.7655   33.9163   46.5850 H   0  0  0  0  0  0  0  0  0  0  0  0
   57.3468   35.1962   45.3963 H   0  0  0  0  0  0  0  0  0  0  0  0
   56.4472   33.6415   45.3963 H   0  0  0  0  0  0  0  0  0  0  0  0
   58.9695   34.3533   44.0749 H   0  0  0  0  0  0  0  0  0  0  0  0
   59.1314   32.8871   45.1390 H   0  0  0  0  0  0  0  0  0  0  0  0
   56.9285   33.2056   43.0611 H   0  0  0  0  0  0  0  0  0  0  0  0
   58.5257   32.4202   42.7267 H   0  0  0  0  0  0  0  0  0  0  0  0
   58.4910   30.0830   42.8760 H   0  0  0  0  0  0  0  0  0  0  0  0
   60.0260   28.9736   44.9536 H   0  0  0  0  0  0  0  0  0  0  0  0
   59.9827   26.9582   46.4199 H   0  0  0  0  0  0  0  0  0  0  0  0
   57.8200   25.8266   46.9304 H   0  0  0  0  0  0  0  0  0  0  0  0
   55.2328   24.5256   43.0680 H   0  0  0  0  0  0  0  0  0  0  0  0
   56.7083   22.7492   42.1411 H   0  0  0  0  0  0  0  0  0  0  0  0
   58.2217   21.4673   43.6495 H   0  0  0  0  0  0  0  0  0  0  0  0
   58.2695   21.9617   46.0891 H   0  0  0  0  0  0  0  0  0  0  0  0
   56.5760   22.9469   48.0147 H   0  0  0  0  0  0  0  0  0  0  0  0
   57.9285   24.0855   47.6971 H   0  0  0  0  0  0  0  0  0  0  0  0
   56.2340   24.6815   47.6971 H   0  0  0  0  0  0  0  0  0  0  0  0
   55.7312   28.7030   44.4625 H   0  0  0  0  0  0  0  0  0  0  0  0
  1  2  1  0
  2  3  1  0
  3  4  1  0
  4  5  2  0
  4  6  1  0
  6  7  1  0
  7  8  2  0
  8  9  1  0
  9 10  2  0
 10 11  1  0
 11 12  1  0
 12 13  1  0
 13 14  2  0
 13 15  1  0
 15 16  2  0
 16 17  1  0
 17 18  2  0
 18 19  1  0
 19 20  2  0
 20 21  1  0
 11 22  2  0
 22  7  1  0
 20 15  1  0
  1 23  1  0
  1 24  1  0
  1 25  1  0
  2 26  1  0
  2 27  1  0
  3 28  1  0
  3 29  1  0
  6 30  1  0
  8 31  1  0
  9 32  1  0
 10 33  1  0
 16 34  1  0
 17 35  1  0
 18 36  1  0
 19 37  1  0
 21 38  1  0
 21 39  1  0
 21 40  1  0
 22 41  1  0
M  CHG  1  12  -1
M  END
>  <UniqueID>  (44) 
41

>  <SMILES>  (44) 
CCCC(=O)Nc1cccc([N-]C(=O)c2ccccc2C)c1

>  <Energy>  (44) 
45.440065457205165

>  <Genealogy>  (44) 
CCCC(=O)Nc1cccc([N-]C(=O)c2ccccc2C)c1 (protonated)
CCCC(=O)Nc1cccc([N-]C(=O)c2ccccc2C)c1 (3D coordinates assigned)
CCCC(=O)Nc1cccc([N-]C(=O)c2ccccc2C)c1 (optimized conformer: 45.440065457205165 kcal/mol)

>  <smiles>  (44) 
CCCC(=O)Nc1cccc(NC(=O)c2ccccc2C)c1

>  <score_type>  (44) 
oracle

>  <origin>  (44) 
adg

>  <m_score__min__energy>  (44) 
-10.44

>  <m_primary>  (44) 
energy

$$$$
45:0
     RDKit          3D

 46 48  0  0  0  0  0  0  0  0999 V2000
   66.3230   32.2910   50.4870 C   0  0  0  0  0  0  0  0  0  0  0  0
   64.9360   31.9680   50.4790 O   0  0  0  0  0  0  0  0  0  0  0  0
   64.0410   32.3460   49.4670 C   0  0  0  0  0  0  0  0  0  0  0  0
   62.8800   31.5860   49.2880 C   0  0  0  0  0  0  0  0  0  0  0  0
   61.9580   31.9210   48.2930 C   0  0  0  0  0  0  0  0  0  0  0  0
   62.1830   33.0290   47.4630 C   0  0  0  0  0  0  0  0  0  0  0  0
   61.1960   33.3720   46.3780 C   0  0  0  0  0  0  0  0  0  0  0  0
   60.2970   34.4680   46.8090 N   0  0  0  0  0  0  0  0  0  0  0  0
   59.3000   34.0370   47.8140 C   0  0  0  0  0  0  0  0  0  0  0  0
   58.2230   33.1010   47.2230 C   0  0  0  0  0  0  0  0  0  0  0  0
   58.1640   33.2000   45.7520 N   0  0  0  0  0  0  0  0  0  0  0  0
   57.0250   32.4650   45.1580 C   0  0  0  0  0  0  0  0  0  0  0  0
   57.3570   31.0480   44.7350 C   0  0  0  0  0  0  0  0  0  0  0  0
   58.3710   30.3280   45.3900 C   0  0  0  0  0  0  0  0  0  0  0  0
   58.6730   29.0200   45.0000 C   0  0  0  0  0  0  0  0  0  0  0  0
   57.9600   28.4160   43.9610 C   0  0  0  0  0  0  0  0  0  0  0  0
   56.9400   29.1190   43.3130 C   0  0  0  0  0  0  0  0  0  0  0  0
   56.6360   30.4280   43.7000 C   0  0  0  0  0  0  0  0  0  0  0  0
   58.2700   34.5950   45.2990 C   0  0  0  0  0  0  0  0  0  0  0  0
   59.6560   35.1650   45.6670 C   0  0  0  0  0  0  0  0  0  0  0  0
   63.3490   33.7910   47.6350 C   0  0  0  0  0  0  0  0  0  0  0  0
   64.2720   33.4550   48.6300 C   0  0  0  0  0  0  0  0  0  0  0  0
   66.6744   32.3728   51.5261 H   0  0  0  0  0  0  0  0  0  0  0  0
   66.8866   31.5001   49.9705 H   0  0  0  0  0  0  0  0  0  0  0  0
   66.4792   33.2496   49.9705 H   0  0  0  0  0  0  0  0  0  0  0  0
   62.6915   30.7174   49.9361 H   0  0  0  0  0  0  0  0  0  0  0  0
   61.0512   31.3127   48.1600 H   0  0  0  0  0  0  0  0  0  0  0  0
   61.7448   33.6887   45.4788 H   0  0  0  0  0  0  0  0  0  0  0  0
   60.5869   32.4818   46.1624 H   0  0  0  0  0  0  0  0  0  0  0  0
   59.8229   33.5052   48.6226 H   0  0  0  0  0  0  0  0  0  0  0  0
   58.7896   34.9388   48.1831 H   0  0  0  0  0  0  0  0  0  0  0  0
   58.4601   32.0636   47.5016 H   0  0  0  0  0  0  0  0  0  0  0  0
   57.2457   33.4033   47.6273 H   0  0  0  0  0  0  0  0  0  0  0  0
   56.2153   32.4230   45.9014 H   0  0  0  0  0  0  0  0  0  0  0  0
   56.7365   33.0091   44.2466 H   0  0  0  0  0  0  0  0  0  0  0  0
   58.9298   30.7962   46.2137 H   0  0  0  0  0  0  0  0  0  0  0  0
   59.4732   28.4653   45.5118 H   0  0  0  0  0  0  0  0  0  0  0  0
   58.2012   27.3879   43.6531 H   0  0  0  0  0  0  0  0  0  0  0  0
   56.3760   28.6420   42.4979 H   0  0  0  0  0  0  0  0  0  0  0  0
   55.8284   30.9752   43.1917 H   0  0  0  0  0  0  0  0  0  0  0  0
   58.1377   34.6348   44.2077 H   0  0  0  0  0  0  0  0  0  0  0  0
   57.4903   35.1949   45.7912 H   0  0  0  0  0  0  0  0  0  0  0  0
   60.3139   35.0747   44.7900 H   0  0  0  0  0  0  0  0  0  0  0  0
   59.5060   36.2120   45.9692 H   0  0  0  0  0  0  0  0  0  0  0  0
   63.5377   34.6571   46.9836 H   0  0  0  0  0  0  0  0  0  0  0  0
   65.1821   34.0591   48.7596 H   0  0  0  0  0  0  0  0  0  0  0  0
  1  2  1  0
  2  3  1  0
  3  4  2  0
  4  5  1  0
  5  6  2  0
  6  7  1  0
  7  8  1  0
  8  9  1  0
  9 10  1  0
 10 11  1  0
 11 12  1  0
 12 13  1  0
 13 14  2  0
 14 15  1  0
 15 16  2  0
 16 17  1  0
 17 18  2  0
 11 19  1  0
 19 20  1  0
  6 21  1  0
 21 22  2  0
 22  3  1  0
 20  8  1  0
 18 13  1  0
  1 23  1  0
  1 24  1  0
  1 25  1  0
  4 26  1  0
  5 27  1  0
  7 28  1  0
  7 29  1  0
  9 30  1  0
  9 31  1  0
 10 32  1  0
 10 33  1  0
 12 34  1  0
 12 35  1  0
 14 36  1  0
 15 37  1  0
 16 38  1  0
 17 39  1  0
 18 40  1  0
 19 41  1  0
 19 42  1  0
 20 43  1  0
 20 44  1  0
 21 45  1  0
 22 46  1  0
M  END
>  <UniqueID>  (45) 
42

>  <SMILES>  (45) 
COc1ccc(CN2CCN(Cc3ccccc3)CC2)cc1

>  <Energy>  (45) 
60.723513801888735

>  <Genealogy>  (45) 
COc1ccc(CN2CCN(Cc3ccccc3)CC2)cc1 (3D coordinates assigned)
COc1ccc(CN2CCN(Cc3ccccc3)CC2)cc1 (nonaromatic ring conformer: 60.723513801888735 kcal/mol)

>  <smiles>  (45) 
COc1ccc(CN2CCN(Cc3ccccc3)CC2)cc1

>  <score_type>  (45) 
oracle

>  <origin>  (45) 
adg

>  <m_score__min__energy>  (45) 
-7.9900000000000002

>  <m_primary>  (45) 
energy

$$$$
46:0
     RDKit          3D

 57 59  0  0  0  0  0  0  0  0999 V2000
   56.7460   26.0370   46.2060 C   0  0  0  0  0  0  0  0  0  0  0  0
   57.7810   25.4150   47.1370 C   0  0  0  0  0  0  0  0  0  0  0  0
   59.1930   25.9230   46.8250 C   0  0  0  0  0  0  0  0  0  0  0  0
   59.7730   26.7340   47.9960 C   0  0  0  0  0  0  0  0  0  0  0  0
   59.8680   28.1740   47.6450 N   0  0  0  0  0  0  0  0  0  0  0  0
   60.9080   28.8390   48.4720 C   0  0  0  0  0  0  0  0  0  0  0  0
   60.7960   30.3610   48.3390 C   0  0  0  0  0  0  0  0  0  0  0  0
   61.5580   30.8770   47.1150 C   0  0  0  0  0  0  0  0  0  0  0  0
   62.3790   32.1140   47.4690 C   0  0  0  0  0  0  0  0  0  0  0  0
   58.5590   28.8690   47.7690 C   0  0  0  0  0  0  0  0  0  0  0  0
   57.8920   29.1760   46.3930 C   0  0  2  0  0  0  0  0  0  0  0  0
   58.5590   28.4340   45.4050 O   0  0  0  0  0  0  0  0  0  0  0  0
   57.8700   30.6700   46.0310 C   0  0  0  0  0  0  0  0  0  0  0  0
   58.2030   31.5940   47.0270 C   0  0  0  0  0  0  0  0  0  0  0  0
   58.6600   32.8710   46.7030 C   0  0  0  0  0  0  0  0  0  0  0  0
   59.1110   33.7200   47.7290 C   0  0  0  0  0  0  0  0  0  0  0  0
   59.6580   34.9660   47.4230 C   0  0  0  0  0  0  0  0  0  0  0  0
   59.7420   35.3810   46.0990 C   0  0  0  0  0  0  0  0  0  0  0  0
   59.2780   34.5600   45.0680 C   0  0  0  0  0  0  0  0  0  0  0  0
   58.7200   33.2850   45.3480 C   0  0  0  0  0  0  0  0  0  0  0  0
   58.1690   32.4330   44.3430 C   0  0  0  0  0  0  0  0  0  0  0  0
   58.1150   32.8090   42.9790 C   0  0  0  0  0  0  0  0  0  0  0  0
   57.4360   32.0270   42.0470 C   0  0  0  0  0  0  0  0  0  0  0  0
   57.3550   32.5360   40.3670 Cl  0  0  0  0  0  0  0  0  0  0  0  0
   56.7350   30.9010   42.4600 C   0  0  0  0  0  0  0  0  0  0  0  0
   56.7770   30.4910   43.7910 C   0  0  0  0  0  0  0  0  0  0  0  0
   55.5260   29.3460   44.2860 Cl  0  0  0  0  0  0  0  0  0  0  0  0
   57.6120   31.1690   44.7230 C   0  0  0  0  0  0  0  0  0  0  0  0
   55.9543   26.5128   46.8034 H   0  0  0  0  0  0  0  0  0  0  0  0
   57.2311   26.7933   45.5715 H   0  0  0  0  0  0  0  0  0  0  0  0
   56.3058   25.2537   45.5715 H   0  0  0  0  0  0  0  0  0  0  0  0
   57.5291   25.6742   48.1759 H   0  0  0  0  0  0  0  0  0  0  0  0
   57.7659   24.3248   46.9913 H   0  0  0  0  0  0  0  0  0  0  0  0
   59.8475   25.0610   46.6286 H   0  0  0  0  0  0  0  0  0  0  0  0
   59.1361   26.5806   45.9451 H   0  0  0  0  0  0  0  0  0  0  0  0
   59.1191   26.6191   48.8730 H   0  0  0  0  0  0  0  0  0  0  0  0
   60.7825   26.3583   48.2189 H   0  0  0  0  0  0  0  0  0  0  0  0
   60.7706   28.5552   49.5258 H   0  0  0  0  0  0  0  0  0  0  0  0
   61.9016   28.5203   48.1238 H   0  0  0  0  0  0  0  0  0  0  0  0
   59.7349   30.6337   48.2401 H   0  0  0  0  0  0  0  0  0  0  0  0
   61.2369   30.8184   49.2370 H   0  0  0  0  0  0  0  0  0  0  0  0
   62.2330   30.0881   46.7516 H   0  0  0  0  0  0  0  0  0  0  0  0
   60.8307   31.1480   46.3355 H   0  0  0  0  0  0  0  0  0  0  0  0
   62.4432   32.2108   48.5629 H   0  0  0  0  0  0  0  0  0  0  0  0
   63.3911   32.0147   47.0496 H   0  0  0  0  0  0  0  0  0  0  0  0
   61.8944   33.0080   47.0496 H   0  0  0  0  0  0  0  0  0  0  0  0
   57.8787   28.2312   48.3524 H   0  0  0  0  0  0  0  0  0  0  0  0
   58.7473   29.8337   48.2628 H   0  0  0  0  0  0  0  0  0  0  0  0
   56.8341   28.8825   46.4607 H   0  0  0  0  0  0  0  0  0  0  0  0
   59.4570   28.2110   45.7670 H   0  0  0  0  0  0  0  0  0  0  0  0
   58.1026   31.3082   48.0845 H   0  0  0  0  0  0  0  0  0  0  0  0
   59.0320   33.3999   48.7784 H   0  0  0  0  0  0  0  0  0  0  0  0
   60.0227   35.6199   48.2289 H   0  0  0  0  0  0  0  0  0  0  0  0
   60.1770   36.3630   45.8612 H   0  0  0  0  0  0  0  0  0  0  0  0
   59.3459   34.9060   44.0260 H   0  0  0  0  0  0  0  0  0  0  0  0
   58.6162   33.7315   42.6505 H   0  0  0  0  0  0  0  0  0  0  0  0
   56.1424   30.3289   41.7309 H   0  0  0  0  0  0  0  0  0  0  0  0
  1  2  1  0
  2  3  1  0
  3  4  1  0
  4  5  1  0
  5  6  1  0
  6  7  1  0
  7  8  1  0
  8  9  1  0
  5 10  1  0
 10 11  1  0
 11 12  1  0
 11 13  1  0
 13 14  2  0
 14 15  1  0
 15 16  2  0
 16 17  1  0
 17 18  2  0
 18 19  1  0
 19 20  2  0
 20 21  1  0
 21 22  2  0
 22 23  1  0
 23 24  1  0
 23 25  2  0
 25 26  1  0
 26 27  1  0
 26 28  2  0
 28 13  1  0
 20 15  1  0
 28 21  1  0
  1 29  1  0
  1 30  1  0
  1 31  1  0
  2 32  1  0
  2 33  1  0
  3 34  1  0
  3 35  1  0
  4 36  1  0
  4 37  1  0
  6 38  1  0
  6 39  1  0
  7 40  1  0
  7 41  1  0
  8 42  1  0
  8 43  1  0
  9 44  1  0
  9 45  1  0
  9 46  1  0
 10 47  1  0
 10 48  1  0
 11 49  1  1
 12 50  1  0
 14 51  1  0
 16 52  1  0
 17 53  1  0
 18 54  1  0
 19 55  1  0
 22 56  1  0
 25 57  1  0
M  END
>  <UniqueID>  (46) 
43

>  <SMILES>  (46) 
CCCCN(CCCC)C[C@H](O)c1cc2ccccc2c2cc(Cl)cc(Cl)c12

>  <Energy>  (46) 
78.73104381390985

>  <Genealogy>  (46) 
CCCCN(CCCC)C[C@H](O)c1cc2ccccc2c2cc(Cl)cc(Cl)c12 (chirality)
CCCCN(CCCC)C[C@H](O)c1cc2ccccc2c2cc(Cl)cc(Cl)c12 (3D coordinates assigned)
CCCCN(CCCC)C[C@H](O)c1cc2ccccc2c2cc(Cl)cc(Cl)c12 (optimized conformer: 78.73104381390985 kcal/mol)

>  <smiles>  (46) 
CCCCN(CCCC)CC(O)c1cc2ccccc2c2cc(Cl)cc(Cl)c12

>  <score_type>  (46) 
oracle

>  <origin>  (46) 
adg

>  <m_score__min__energy>  (46) 
-7.8399999999999999

>  <m_primary>  (46) 
energy

$$$$
47:0
     RDKit          3D

 33 35  0  0  0  0  0  0  0  0999 V2000
   60.2950   26.9900   45.7080 C   0  0  0  0  0  0  0  0  0  0  0  0
   58.7920   27.0320   45.8320 C   0  0  0  0  0  0  0  0  0  0  0  0
   58.1500   25.9450   46.4420 C   0  0  0  0  0  0  0  0  0  0  0  0
   56.7620   25.9510   46.5750 C   0  0  0  0  0  0  0  0  0  0  0  0
   56.1790   24.9790   47.1210 O   0  0  0  0  0  0  0  0  0  0  0  0
   56.0500   26.9750   46.1270 O   0  0  0  0  0  0  0  0  0  0  0  0
   56.5990   28.0330   45.5400 C   0  0  0  0  0  0  0  0  0  0  0  0
   55.7970   29.0400   45.1140 N   0  0  0  0  0  0  0  0  0  0  0  0
   56.3070   30.1410   44.5100 C   0  0  0  0  0  0  0  0  0  0  0  0
   57.6500   30.2640   44.3050 N   0  0  0  0  0  0  0  0  0  0  0  0
   58.1620   31.4930   43.6730 C   0  0  0  0  0  0  0  0  0  0  0  0
   58.2970   32.5890   44.6970 C   0  0  0  0  0  0  0  0  0  0  0  0
   58.9050   33.8110   44.3580 C   0  0  0  0  0  0  0  0  0  0  0  0
   59.0570   34.8130   45.3220 C   0  0  0  0  0  0  0  0  0  0  0  0
   58.6100   34.6010   46.6290 C   0  0  0  0  0  0  0  0  0  0  0  0
   58.0110   33.3860   46.9760 C   0  0  0  0  0  0  0  0  0  0  0  0
   57.8570   32.3820   46.0150 C   0  0  0  0  0  0  0  0  0  0  0  0
   58.5070   29.2770   44.7260 C   0  0  0  0  0  0  0  0  0  0  0  0
   59.7470   29.4130   44.5400 O   0  0  0  0  0  0  0  0  0  0  0  0
   57.9990   28.1160   45.3610 C   0  0  0  0  0  0  0  0  0  0  0  0
   60.7455   26.9774   46.7114 H   0  0  0  0  0  0  0  0  0  0  0  0
   60.5926   26.0832   45.1611 H   0  0  0  0  0  0  0  0  0  0  0  0
   60.6428   27.8788   45.1611 H   0  0  0  0  0  0  0  0  0  0  0  0
   58.7378   25.0926   46.8134 H   0  0  0  0  0  0  0  0  0  0  0  0
   54.7640   28.9720   45.2540 H   0  0  0  0  0  0  0  0  0  0  0  0
   55.6307   30.9440   44.1816 H   0  0  0  0  0  0  0  0  0  0  0  0
   59.1469   31.2890   43.2276 H   0  0  0  0  0  0  0  0  0  0  0  0
   57.4560   31.8159   42.8937 H   0  0  0  0  0  0  0  0  0  0  0  0
   59.2622   33.9793   43.3313 H   0  0  0  0  0  0  0  0  0  0  0  0
   59.5289   35.7690   45.0510 H   0  0  0  0  0  0  0  0  0  0  0  0
   58.7295   35.3906   47.3855 H   0  0  0  0  0  0  0  0  0  0  0  0
   57.6608   33.2200   48.0055 H   0  0  0  0  0  0  0  0  0  0  0  0
   57.3892   31.4258   46.2923 H   0  0  0  0  0  0  0  0  0  0  0  0
  1  2  1  0
  2  3  2  0
  3  4  1  0
  4  5  2  0
  4  6  1  0
  6  7  1  0
  7  8  1  0
  8  9  2  0
  9 10  1  0
 10 11  1  0
 11 12  1  0
 12 13  2  0
 13 14  1  0
 14 15  2  0
 15 16  1  0
 16 17  2  0
 10 18  1  0
 18 19  2  0
 18 20  1  0
 20  2  1  0
 20  7  2  0
 17 12  1  0
  1 21  1  0
  1 22  1  0
  1 23  1  0
  3 24  1  0
  8 25  1  0
  9 26  1  0
 11 27  1  0
 11 28  1  0
 13 29  1  0
 14 30  1  0
 15 31  1  0
 16 32  1  0
 17 33  1  0
M  CHG  1   8   1
M  END
>  <UniqueID>  (47) 
44

>  <SMILES>  (47) 
Cc1cc(=O)oc2[nH+]cn(Cc3ccccc3)c(=O)c12

>  <Energy>  (47) 
45.53103564407406

>  <Genealogy>  (47) 
Cc1cc(=O)oc2[nH+]cn(Cc3ccccc3)c(=O)c12 (protonated)
Cc1cc(=O)oc2[nH+]cn(Cc3ccccc3)c(=O)c12 (3D coordinates assigned)
Cc1cc(=O)oc2[nH+]cn(Cc3ccccc3)c(=O)c12 (optimized conformer: 45.53103564407406 kcal/mol)

>  <smiles>  (47) 
Cc1cc(=O)oc2ncn(Cc3ccccc3)c(=O)c12

>  <score_type>  (47) 
oracle

>  <origin>  (47) 
adg

>  <m_score__min__energy>  (47) 
-6.4299999999999997

>  <m_primary>  (47) 
energy

$$$$
