0:0
     RDKit          3D

 57 58  0  0  0  0  0  0  0  0999 V2000
   56.3460   25.6450   46.1910 C   0  0  0  0  0  0  0  0  0  0  0  0
   57.4370   26.3000   47.0330 C   0  0  0  0  0  0  0  0  0  0  0  0
   58.3570   27.0610   46.1810 N   0  0  0  0  0  0  0  0  0  0  0  0
   59.5650   26.4420   45.6220 C   0  0  0  0  0  0  0  0  0  0  0  0
   60.6570   26.3340   46.6810 C   0  0  0  0  0  0  0  0  0  0  0  0
   58.0020   28.3960   45.7860 C   0  0  0  0  0  0  0  0  0  0  0  0
   57.0580   28.5850   44.8230 N   0  0  0  0  0  0  0  0  0  0  0  0
   56.6880   29.8390   44.4410 C   0  0  0  0  0  0  0  0  0  0  0  0
   55.6520   30.0290   43.3800 C   0  0  0  0  0  0  0  0  0  0  0  0
   57.2790   30.9220   45.0080 N   0  0  0  0  0  0  0  0  0  0  0  0
   58.2370   30.7860   45.9630 C   0  0  0  0  0  0  0  0  0  0  0  0
   58.8300   31.9570   46.5390 N   0  0  0  0  0  0  0  0  0  0  0  0
   59.3620   32.9890   45.6330 C   0  0  0  0  0  0  0  0  0  0  0  0
   60.3230   33.9560   46.3480 C   0  0  0  0  0  0  0  0  0  0  0  0
   60.8450   33.3600   47.6630 C   0  0  0  0  0  0  0  0  0  0  0  0
   61.9400   34.2140   48.2200 N   0  0  0  0  0  0  0  0  0  0  0  0
   62.0970   34.3010   49.6940 C   0  0  0  0  0  0  0  0  0  0  0  0
   62.7270   33.0330   50.2680 C   0  0  0  0  0  0  0  0  0  0  0  0
   63.2350   34.0410   47.5190 C   0  0  0  0  0  0  0  0  0  0  0  0
   63.4970   32.5940   47.0860 C   0  0  0  0  0  0  0  0  0  0  0  0
   59.6520   33.1010   48.6130 C   0  0  0  0  0  0  0  0  0  0  0  0
   58.5370   32.2650   47.9440 C   0  0  0  0  0  0  0  0  0  0  0  0
   58.6190   29.5040   46.3850 C   0  0  0  0  0  0  0  0  0  0  0  0
   59.8040   29.2890   47.6730 Cl  0  0  0  0  0  0  0  0  0  0  0  0
   55.5932   25.1930   46.8536 H   0  0  0  0  0  0  0  0  0  0  0  0
   55.8669   26.4049   45.5562 H   0  0  0  0  0  0  0  0  0  0  0  0
   56.7915   24.8649   45.5562 H   0  0  0  0  0  0  0  0  0  0  0  0
   56.9722   26.9803   47.7618 H   0  0  0  0  0  0  0  0  0  0  0  0
   58.0032   25.5144   47.5547 H   0  0  0  0  0  0  0  0  0  0  0  0
   59.3175   25.4350   45.2550 H   0  0  0  0  0  0  0  0  0  0  0  0
   59.9339   27.0698   44.7975 H   0  0  0  0  0  0  0  0  0  0  0  0
   60.2029   26.3789   47.6819 H   0  0  0  0  0  0  0  0  0  0  0  0
   61.1895   25.3788   46.5625 H   0  0  0  0  0  0  0  0  0  0  0  0
   61.3663   27.1664   46.5625 H   0  0  0  0  0  0  0  0  0  0  0  0
   56.6040   27.7540   44.3780 H   0  0  0  0  0  0  0  0  0  0  0  0
   54.6740   30.2084   43.8504 H   0  0  0  0  0  0  0  0  0  0  0  0
   55.9219   30.8926   42.7545 H   0  0  0  0  0  0  0  0  0  0  0  0
   55.5979   29.1258   42.7545 H   0  0  0  0  0  0  0  0  0  0  0  0
   59.9032   32.4946   44.8129 H   0  0  0  0  0  0  0  0  0  0  0  0
   58.5118   33.5769   45.2568 H   0  0  0  0  0  0  0  0  0  0  0  0
   61.1767   34.1657   45.6868 H   0  0  0  0  0  0  0  0  0  0  0  0
   59.7730   34.8795   46.5818 H   0  0  0  0  0  0  0  0  0  0  0  0
   61.3153   32.3787   47.5020 H   0  0  0  0  0  0  0  0  0  0  0  0
   62.7408   35.1599   49.9344 H   0  0  0  0  0  0  0  0  0  0  0  0
   61.0987   34.4216   50.1399 H   0  0  0  0  0  0  0  0  0  0  0  0
   62.7048   33.0776   51.3669 H   0  0  0  0  0  0  0  0  0  0  0  0
   62.1605   32.1546   49.9252 H   0  0  0  0  0  0  0  0  0  0  0  0
   63.7692   32.9538   49.9252 H   0  0  0  0  0  0  0  0  0  0  0  0
   63.2362   34.6799   46.6235 H   0  0  0  0  0  0  0  0  0  0  0  0
   64.0300   34.3204   48.2260 H   0  0  0  0  0  0  0  0  0  0  0  0
   63.6119   31.9596   47.9773 H   0  0  0  0  0  0  0  0  0  0  0  0
   62.6498   32.2320   46.4850 H   0  0  0  0  0  0  0  0  0  0  0  0
   64.4173   32.5520   46.4850 H   0  0  0  0  0  0  0  0  0  0  0  0
   60.0165   32.5596   49.4984 H   0  0  0  0  0  0  0  0  0  0  0  0
   59.2224   34.0762   48.8856 H   0  0  0  0  0  0  0  0  0  0  0  0
   58.4253   31.3202   48.4962 H   0  0  0  0  0  0  0  0  0  0  0  0
   57.6126   32.8606   47.9693 H   0  0  0  0  0  0  0  0  0  0  0  0
  1  2  1  0
  2  3  1  0
  3  4  1  0
  4  5  1  0
  3  6  1  0
  6  7  2  0
  7  8  1  0
  8  9  1  0
  8 10  2  0
 10 11  1  0
 11 12  1  0
 12 13  1  0
 13 14  1  0
 14 15  1  0
 15 16  1  0
 16 17  1  0
 17 18  1  0
 16 19  1  0
 19 20  1  0
 15 21  1  0
 21 22  1  0
 11 23  2  0
 23 24  1  0
 23  6  1  0
 22 12  1  0
  1 25  1  0
  1 26  1  0
  1 27  1  0
  2 28  1  0
  2 29  1  0
  4 30  1  0
  4 31  1  0
  5 32  1  0
  5 33  1  0
  5 34  1  0
  7 35  1  0
  9 36  1  0
  9 37  1  0
  9 38  1  0
 13 39  1  0
 13 40  1  0
 14 41  1  0
 14 42  1  0
 15 43  1  0
 17 44  1  0
 17 45  1  0
 18 46  1  0
 18 47  1  0
 18 48  1  0
 19 49  1  0
 19 50  1  0
 20 51  1  0
 20 52  1  0
 20 53  1  0
 21 54  1  0
 21 55  1  0
 22 56  1  0
 22 57  1  0
M  CHG  1   7   1
M  END
>  <UniqueID>  (1) 
1

>  <SMILES>  (1) 
CCN(CC)c1[nH+]c(C)nc(N2CCC(N(CC)CC)CC2)c1Cl

>  <Energy>  (1) 
70.06654589306739

>  <Genealogy>  (1) 
CCN(CC)c1[nH+]c(C)nc(N2CCC(N(CC)CC)CC2)c1Cl (protonated)
CCN(CC)c1[nH+]c(C)nc(N2CCC(N(CC)CC)CC2)c1Cl (3D coordinates assigned)
CCN(CC)c1[nH+]c(C)nc(N2CCC(N(CC)CC)CC2)c1Cl (nonaromatic ring conformer: 70.06654589306739 kcal/mol)

>  <smiles>  (1) 
CCN(CC)c1nc(C)nc(N2CCC(N(CC)CC)CC2)c1Cl

>  <score_type>  (1) 
oracle

>  <origin>  (1) 
adg

>  <m_score__min__energy>  (1) 
-5.29

>  <m_primary>  (1) 
energy

$$$$
1:0
     RDKit          3D

 33 34  0  0  0  0  0  0  0  0999 V2000
   59.1900   33.2930   48.2480 C   0  0  0  0  0  0  0  0  0  0  0  0
   58.6590   33.1480   46.8510 C   0  0  0  0  0  0  0  0  0  0  0  0
   58.1550   31.9130   46.4100 C   0  0  0  0  0  0  0  0  0  0  0  0
   57.7020   31.7610   45.0920 C   0  0  0  0  0  0  0  0  0  0  0  0
   57.0700   30.2070   44.5450 S   0  0  0  0  0  0  0  0  0  0  0  0
   55.6040   30.1270   44.8730 O   0  0  0  0  0  0  0  0  0  0  0  0
   57.2100   30.1240   43.0500 O   0  0  0  0  0  0  0  0  0  0  0  0
   57.8990   28.8490   45.2770 N   0  0  0  0  0  0  0  0  0  0  0  0
   56.9900   27.7350   45.6310 C   0  0  0  0  0  0  0  0  0  0  0  0
   57.3960   26.4000   44.9930 C   0  0  0  0  0  0  0  0  0  0  0  0
   57.7200   26.5970   43.5790 N   0  0  0  0  0  0  0  0  0  0  0  0
   58.8900   27.4760   43.3910 C   0  0  0  0  0  0  0  0  0  0  0  0
   59.1280   28.4650   44.5570 C   0  0  0  0  0  0  0  0  0  0  0  0
   57.7360   32.8560   44.2190 C   0  0  0  0  0  0  0  0  0  0  0  0
   58.2470   34.0820   44.6490 C   0  0  0  0  0  0  0  0  0  0  0  0
   58.7150   34.2300   45.9570 C   0  0  0  0  0  0  0  0  0  0  0  0
   59.2230   35.4250   46.3500 F   0  0  0  0  0  0  0  0  0  0  0  0
   58.3889   33.0742   48.9693 H   0  0  0  0  0  0  0  0  0  0  0  0
   60.0217   32.5891   48.3991 H   0  0  0  0  0  0  0  0  0  0  0  0
   59.5485   34.3219   48.3991 H   0  0  0  0  0  0  0  0  0  0  0  0
   58.1156   31.0599   47.1033 H   0  0  0  0  0  0  0  0  0  0  0  0
   56.9924   27.6154   46.7245 H   0  0  0  0  0  0  0  0  0  0  0  0
   55.9919   27.9918   45.2466 H   0  0  0  0  0  0  0  0  0  0  0  0
   58.2771   25.9997   45.5160 H   0  0  0  0  0  0  0  0  0  0  0  0
   56.5585   25.6917   45.0755 H   0  0  0  0  0  0  0  0  0  0  0  0
   56.8900   27.0000   43.0850 H   0  0  0  0  0  0  0  0  0  0  0  0
   57.9200   25.6640   43.1470 H   0  0  0  0  0  0  0  0  0  0  0  0
   59.7841   26.8440   43.2856 H   0  0  0  0  0  0  0  0  0  0  0  0
   58.6918   28.0823   42.4948 H   0  0  0  0  0  0  0  0  0  0  0  0
   59.8168   27.9950   45.2743 H   0  0  0  0  0  0  0  0  0  0  0  0
   59.5395   29.3848   44.1158 H   0  0  0  0  0  0  0  0  0  0  0  0
   57.3588   32.7495   43.1912 H   0  0  0  0  0  0  0  0  0  0  0  0
   58.2813   34.9349   43.9551 H   0  0  0  0  0  0  0  0  0  0  0  0
  1  2  1  0
  2  3  2  0
  3  4  1  0
  4  5  1  0
  5  6  2  0
  5  7  2  0
  5  8  1  0
  8  9  1  0
  9 10  1  0
 10 11  1  0
 11 12  1  0
 12 13  1  0
  4 14  2  0
 14 15  1  0
 15 16  2  0
 16 17  1  0
 16  2  1  0
 13  8  1  0
  1 18  1  0
  1 19  1  0
  1 20  1  0
  3 21  1  0
  9 22  1  0
  9 23  1  0
 10 24  1  0
 10 25  1  0
 11 26  1  0
 11 27  1  0
 12 28  1  0
 12 29  1  0
 13 30  1  0
 13 31  1  0
 14 32  1  0
 15 33  1  0
M  CHG  1  11   1
M  END
>  <UniqueID>  (2) 
2

>  <SMILES>  (2) 
Cc1cc(S(=O)(=O)N2CC[NH2+]CC2)ccc1F

>  <Energy>  (2) 
41.55470117132604

>  <Genealogy>  (2) 
Cc1cc(S(=O)(=O)N2CC[NH2+]CC2)ccc1F (protonated)
Cc1cc(S(=O)(=O)N2CC[NH2+]CC2)ccc1F (3D coordinates assigned)
Cc1cc(S(=O)(=O)N2CC[NH2+]CC2)ccc1F (nonaromatic ring conformer: 41.55470117132604 kcal/mol)

>  <smiles>  (2) 
Cc1cc(S(=O)(=O)N2CCNCC2)ccc1F

>  <score_type>  (2) 
oracle

>  <origin>  (2) 
adg

>  <m_score__min__energy>  (2) 
-5.5

>  <m_primary>  (2) 
energy

$$$$
2:0
     RDKit          3D

 71 75  0  0  0  0  0  0  0  0999 V2000
   59.3060   26.5640   48.3180 O   0  0  0  0  0  0  0  0  0  0  0  0
   59.6720   27.6980   47.8990 C   0  0  0  0  0  0  0  0  0  0  0  0
   59.2820   28.1060   46.6130 C   0  0  0  0  0  0  0  0  0  0  0  0
   58.4080   27.2500   45.7360 C   0  0  0  0  0  0  0  0  0  0  0  0
   58.8360   27.3030   44.2580 C   0  0  0  0  0  0  0  0  0  0  0  0
   57.7770   27.9120   43.3240 C   0  0  0  0  0  0  0  0  0  0  0  0
   57.1410   29.1330   43.9160 C   0  0  0  0  0  0  0  0  0  0  0  0
   55.8140   29.3340   44.0150 N   0  0  0  0  0  0  0  0  0  0  0  0
   55.6920   30.5400   44.5550 N   0  0  0  0  0  0  0  0  0  0  0  0
   56.8910   31.0590   44.7770 N   0  0  0  0  0  0  0  0  0  0  0  0
   57.8110   30.1950   44.3900 N   0  0  0  0  0  0  0  0  0  0  0  0
   59.6730   29.3180   46.1580 N   0  0  0  0  0  0  0  0  0  0  0  0
   60.4380   30.1470   46.9030 C   0  0  0  0  0  0  0  0  0  0  0  0
   60.8130   31.3840   46.3730 C   0  0  0  0  0  0  0  0  0  0  0  0
   61.6140   32.2500   47.1110 C   0  0  0  0  0  0  0  0  0  0  0  0
   62.0550   31.8950   48.3860 C   0  0  0  0  0  0  0  0  0  0  0  0
   62.8880   32.7960   49.0710 O   0  0  0  0  0  0  0  0  0  0  0  0
   62.4640   33.7020   50.0900 C   0  0  0  0  0  0  0  0  0  0  0  0
   61.7810   32.9480   51.2410 C   0  0  0  0  0  0  0  0  0  0  0  0
   60.3080   33.3480   51.4260 C   0  0  0  0  0  0  0  0  0  0  0  0
   59.7500   34.1680   50.2520 C   0  0  0  0  0  0  0  0  0  0  0  0
   59.2880   33.3260   49.1940 O   0  0  0  0  0  0  0  0  0  0  0  0
   59.0350   33.7360   47.8750 C   0  0  0  0  0  0  0  0  0  0  0  0
   59.8470   34.7390   47.3290 C   0  0  0  0  0  0  0  0  0  0  0  0
   59.6500   35.1760   46.0140 C   0  0  0  0  0  0  0  0  0  0  0  0
   58.6340   34.6150   45.2360 C   0  0  0  0  0  0  0  0  0  0  0  0
   57.8140   33.6200   45.7710 C   0  0  0  0  0  0  0  0  0  0  0  0
   58.0120   33.1760   47.0820 C   0  0  0  0  0  0  0  0  0  0  0  0
   61.6610   30.6570   48.9330 C   0  0  0  0  0  0  0  0  0  0  0  0
   60.8480   29.7550   48.2010 C   0  0  0  0  0  0  0  0  0  0  0  0
   60.4430   28.5210   48.6930 N   0  0  0  0  0  0  0  0  0  0  0  0
   60.8220   28.0250   50.0380 C   0  0  0  0  0  0  0  0  0  0  0  0
   60.1580   28.8420   51.1240 C   0  0  0  0  0  0  0  0  0  0  0  0
   60.6100   28.7480   52.4500 C   0  0  0  0  0  0  0  0  0  0  0  0
   60.0130   29.5120   53.4550 C   0  0  0  0  0  0  0  0  0  0  0  0
   58.9590   30.3760   53.1480 C   0  0  0  0  0  0  0  0  0  0  0  0
   58.4830   30.4770   51.8320 C   0  0  0  0  0  0  0  0  0  0  0  0
   57.3770   31.4520   51.5130 C   0  0  0  0  0  0  0  0  0  0  0  0
   57.5360   31.9430   50.2300 F   0  0  0  0  0  0  0  0  0  0  0  0
   56.1590   30.8030   51.6000 F   0  0  0  0  0  0  0  0  0  0  0  0
   57.3750   32.5210   52.3920 F   0  0  0  0  0  0  0  0  0  0  0  0
   59.0990   29.7160   50.8210 C   0  0  0  0  0  0  0  0  0  0  0  0
   58.4681   26.2085   46.0849 H   0  0  0  0  0  0  0  0  0  0  0  0
   57.3804   27.6367   45.8037 H   0  0  0  0  0  0  0  0  0  0  0  0
   59.7518   27.9078   44.1841 H   0  0  0  0  0  0  0  0  0  0  0  0
   58.9889   26.2635   43.9324 H   0  0  0  0  0  0  0  0  0  0  0  0
   58.2579   28.1875   42.3738 H   0  0  0  0  0  0  0  0  0  0  0  0
   56.9891   27.1604   43.1683 H   0  0  0  0  0  0  0  0  0  0  0  0
   58.8440   30.3390   44.4460 H   0  0  0  0  0  0  0  0  0  0  0  0
   60.4736   31.6747   45.3679 H   0  0  0  0  0  0  0  0  0  0  0  0
   61.9019   33.2227   46.6855 H   0  0  0  0  0  0  0  0  0  0  0  0
   63.3399   34.2403   50.4812 H   0  0  0  0  0  0  0  0  0  0  0  0
   61.7426   34.4093   49.6549 H   0  0  0  0  0  0  0  0  0  0  0  0
   61.8283   31.8692   51.0311 H   0  0  0  0  0  0  0  0  0  0  0  0
   62.3130   33.2078   52.1681 H   0  0  0  0  0  0  0  0  0  0  0  0
   59.7076   32.4321   51.5290 H   0  0  0  0  0  0  0  0  0  0  0  0
   60.2523   33.9825   52.3229 H   0  0  0  0  0  0  0  0  0  0  0  0
   58.9110   34.7814   50.6121 H   0  0  0  0  0  0  0  0  0  0  0  0
   60.5595   34.8007   49.8592 H   0  0  0  0  0  0  0  0  0  0  0  0
   60.6457   35.1865   47.9388 H   0  0  0  0  0  0  0  0  0  0  0  0
   60.2951   35.9612   45.5930 H   0  0  0  0  0  0  0  0  0  0  0  0
   58.4803   34.9574   44.2020 H   0  0  0  0  0  0  0  0  0  0  0  0
   57.0101   33.1841   45.1597 H   0  0  0  0  0  0  0  0  0  0  0  0
   57.3674   32.3869   47.4964 H   0  0  0  0  0  0  0  0  0  0  0  0
   61.9905   30.3856   49.9468 H   0  0  0  0  0  0  0  0  0  0  0  0
   60.5090   26.9750   50.1355 H   0  0  0  0  0  0  0  0  0  0  0  0
   61.9127   28.1140   50.1498 H   0  0  0  0  0  0  0  0  0  0  0  0
   61.4389   28.0689   52.6985 H   0  0  0  0  0  0  0  0  0  0  0  0
   60.3736   29.4333   54.4912 H   0  0  0  0  0  0  0  0  0  0  0  0
   58.4992   30.9811   53.9433 H   0  0  0  0  0  0  0  0  0  0  0  0
   58.7481   29.8059   49.7823 H   0  0  0  0  0  0  0  0  0  0  0  0
  1  2  2  0
  2  3  1  0
  3  4  1  0
  4  5  1  0
  5  6  1  0
  6  7  1  0
  7  8  2  0
  8  9  1  0
  9 10  1  0
 10 11  2  0
  3 12  2  0
 12 13  1  0
 13 14  2  0
 14 15  1  0
 15 16  2  0
 16 17  1  0
 17 18  1  0
 18 19  1  0
 19 20  1  0
 20 21  1  0
 21 22  1  0
 22 23  1  0
 23 24  2  0
 24 25  1  0
 25 26  2  0
 26 27  1  0
 27 28  2  0
 16 29  1  0
 29 30  2  0
 30 31  1  0
 31 32  1  0
 32 33  1  0
 33 34  2  0
 34 35  1  0
 35 36  2  0
 36 37  1  0
 37 38  1  0
 38 39  1  0
 38 40  1  0
 38 41  1  0
 37 42  2  0
 31  2  1  0
 42 33  1  0
 11  7  1  0
 30 13  1  0
 28 23  1  0
  4 43  1  0
  4 44  1  0
  5 45  1  0
  5 46  1  0
  6 47  1  0
  6 48  1  0
 11 49  1  0
 14 50  1  0
 15 51  1  0
 18 52  1  0
 18 53  1  0
 19 54  1  0
 19 55  1  0
 20 56  1  0
 20 57  1  0
 21 58  1  0
 21 59  1  0
 24 60  1  0
 25 61  1  0
 26 62  1  0
 27 63  1  0
 28 64  1  0
 29 65  1  0
 32 66  1  0
 32 67  1  0
 34 68  1  0
 35 69  1  0
 36 70  1  0
 42 71  1  0
M  CHG  2   9  -1  11   1
M  END
>  <UniqueID>  (3) 
3

>  <SMILES>  (3) 
O=c1c(CCCc2n[n-]n[nH+]2)nc2ccc(OCCCCOc3ccccc3)cc2n1Cc1cccc(C(F)(F)F)c1

>  <Energy>  (3) 
117.12490682468098

>  <Genealogy>  (3) 
O=c1c(CCCc2n[n-]n[nH+]2)nc2ccc(OCCCCOc3ccccc3)cc2n1Cc1cccc(C(F)(F)F)c1 (protonated)
O=c1c(CCCc2n[n-]n[nH+]2)nc2ccc(OCCCCOc3ccccc3)cc2n1Cc1cccc(C(F)(F)F)c1 (3D coordinates assigned)
O=c1c(CCCc2n[n-]n[nH+]2)nc2ccc(OCCCCOc3ccccc3)cc2n1Cc1cccc(C(F)(F)F)c1 (optimized conformer: 117.12490682468098 kcal/mol)

>  <smiles>  (3) 
O=c1c(CCCc2nn[nH]n2)nc2ccc(OCCCCOc3ccccc3)cc2n1Cc1cccc(C(F)(F)F)c1

>  <score_type>  (3) 
oracle

>  <origin>  (3) 
adg

>  <m_score__min__energy>  (3) 
-10.300000000000001

>  <m_primary>  (3) 
energy

$$$$
3:0
     RDKit          3D

 65 70  0  0  0  0  0  0  0  0999 V2000
   54.6830   30.5870   52.0200 C   0  0  0  0  0  0  0  0  0  0  0  0
   55.9860   30.0210   52.1190 O   0  0  0  0  0  0  0  0  0  0  0  0
   57.1630   30.6670   51.7130 C   0  0  0  0  0  0  0  0  0  0  0  0
   58.1850   30.0040   51.0080 C   0  0  0  0  0  0  0  0  0  0  0  0
   59.3370   30.6950   50.6200 C   0  0  0  0  0  0  0  0  0  0  0  0
   59.4780   32.0600   50.9170 C   0  0  0  0  0  0  0  0  0  0  0  0
   60.7000   32.7910   50.5290 C   0  0  0  0  0  0  0  0  0  0  0  0
   61.7540   32.9530   51.3530 N   0  0  0  0  0  0  0  0  0  0  0  0
   62.7530   33.4810   50.6610 N   0  0  0  0  0  0  0  0  0  0  0  0
   62.2840   33.6350   49.4090 C   0  0  0  0  0  0  0  0  0  0  0  0
   61.0040   33.2450   49.2930 N   0  0  0  0  0  0  0  0  0  0  0  0
   60.2630   33.3750   48.0660 C   0  0  0  0  0  0  0  0  0  0  0  0
   58.8610   33.4130   48.0310 C   0  0  0  0  0  0  0  0  0  0  0  0
   58.1940   33.5710   46.8150 C   0  0  0  0  0  0  0  0  0  0  0  0
   58.9090   33.7130   45.6210 C   0  0  0  0  0  0  0  0  0  0  0  0
   58.1840   33.8350   44.4240 O   0  0  0  0  0  0  0  0  0  0  0  0
   58.1270   32.8480   43.3940 C   0  0  0  0  0  0  0  0  0  0  0  0
   57.7760   31.4970   43.9620 C   0  0  0  0  0  0  0  0  0  0  0  0
   56.5850   30.8590   43.5890 C   0  0  0  0  0  0  0  0  0  0  0  0
   56.2500   29.6220   44.1390 C   0  0  0  0  0  0  0  0  0  0  0  0
   57.1000   29.0100   45.0620 C   0  0  0  0  0  0  0  0  0  0  0  0
   58.3090   29.6230   45.4480 C   0  0  0  0  0  0  0  0  0  0  0  0
   59.2190   28.9560   46.4870 C   0  0  2  0  0  0  0  0  0  0  0  0
   60.0430   30.0170   47.2420 C   0  0  0  0  0  0  0  0  0  0  0  0
   60.1400   27.9350   45.8050 C   0  0  0  0  0  0  0  0  0  0  0  0
   59.4230   26.6390   46.0140 C   0  0  0  0  0  0  0  0  0  0  0  0
   58.6670   26.8850   47.3010 C   0  0  0  0  0  0  0  0  0  0  0  0
   58.4360   28.2680   47.4480 O   0  0  0  0  0  0  0  0  0  0  0  0
   58.6210   30.8880   44.9040 C   0  0  0  0  0  0  0  0  0  0  0  0
   60.3160   33.7350   45.6610 C   0  0  0  0  0  0  0  0  0  0  0  0
   60.9930   33.6010   46.8810 C   0  0  0  0  0  0  0  0  0  0  0  0
   62.5100   33.6290   46.9290 C   0  0  0  0  0  0  0  0  0  0  0  0
   63.0470   34.2090   48.2560 C   0  0  0  0  0  0  0  0  0  0  0  0
   58.4720   32.7130   51.6410 C   0  0  0  0  0  0  0  0  0  0  0  0
   57.3190   32.0220   52.0270 C   0  0  0  0  0  0  0  0  0  0  0  0
   54.2814   30.7615   53.0291 H   0  0  0  0  0  0  0  0  0  0  0  0
   54.7384   31.5422   51.4772 H   0  0  0  0  0  0  0  0  0  0  0  0
   54.0227   29.8946   51.4772 H   0  0  0  0  0  0  0  0  0  0  0  0
   58.0770   28.9375   50.7612 H   0  0  0  0  0  0  0  0  0  0  0  0
   60.1364   30.1668   50.0796 H   0  0  0  0  0  0  0  0  0  0  0  0
   61.8170   32.6690   52.3570 H   0  0  0  0  0  0  0  0  0  0  0  0
   58.2860   33.3181   48.9640 H   0  0  0  0  0  0  0  0  0  0  0  0
   57.0943   33.5840   46.7954 H   0  0  0  0  0  0  0  0  0  0  0  0
   57.3626   33.1390   42.6584 H   0  0  0  0  0  0  0  0  0  0  0  0
   59.1154   32.7819   42.9157 H   0  0  0  0  0  0  0  0  0  0  0  0
   55.9126   31.3354   42.8603 H   0  0  0  0  0  0  0  0  0  0  0  0
   55.3129   29.1269   43.8446 H   0  0  0  0  0  0  0  0  0  0  0  0
   56.8226   28.0369   45.4935 H   0  0  0  0  0  0  0  0  0  0  0  0
   59.9274   29.8681   48.3257 H   0  0  0  0  0  0  0  0  0  0  0  0
   61.1042   29.9192   46.9696 H   0  0  0  0  0  0  0  0  0  0  0  0
   59.6855   31.0210   46.9696 H   0  0  0  0  0  0  0  0  0  0  0  0
   60.2505   28.1569   44.7333 H   0  0  0  0  0  0  0  0  0  0  0  0
   61.1618   27.9345   46.2123 H   0  0  0  0  0  0  0  0  0  0  0  0
   58.7342   26.4276   45.1829 H   0  0  0  0  0  0  0  0  0  0  0  0
   60.0950   25.7693   46.0603 H   0  0  0  0  0  0  0  0  0  0  0  0
   57.7048   26.3529   47.2695 H   0  0  0  0  0  0  0  0  0  0  0  0
   59.2588   26.5175   48.1523 H   0  0  0  0  0  0  0  0  0  0  0  0
   59.5389   31.4038   45.2225 H   0  0  0  0  0  0  0  0  0  0  0  0
   60.8876   33.8581   44.7292 H   0  0  0  0  0  0  0  0  0  0  0  0
   62.8860   32.6016   46.8148 H   0  0  0  0  0  0  0  0  0  0  0  0
   62.8592   34.2792   46.1134 H   0  0  0  0  0  0  0  0  0  0  0  0
   64.1121   33.9546   48.3607 H   0  0  0  0  0  0  0  0  0  0  0  0
   62.9246   35.3021   48.2491 H   0  0  0  0  0  0  0  0  0  0  0  0
   58.5895   33.7739   51.9070 H   0  0  0  0  0  0  0  0  0  0  0  0
   56.5281   32.5478   52.5820 H   0  0  0  0  0  0  0  0  0  0  0  0
  1  2  1  0
  2  3  1  0
  3  4  2  0
  4  5  1  0
  5  6  2  0
  6  7  1  0
  7  8  2  0
  8  9  1  0
  9 10  2  0
 10 11  1  0
 11 12  1  0
 12 13  2  0
 13 14  1  0
 14 15  2  0
 15 16  1  0
 16 17  1  0
 17 18  1  0
 18 19  2  0
 19 20  1  0
 20 21  2  0
 21 22  1  0
 22 23  1  0
 23 24  1  1
 23 25  1  0
 25 26  1  0
 26 27  1  0
 27 28  1  0
 22 29  2  0
 15 30  1  0
 30 31  2  0
 31 32  1  0
 32 33  1  0
  6 34  1  0
 34 35  2  0
 35  3  1  0
 11  7  1  0
 31 12  1  0
 33 10  1  0
 29 18  1  0
 28 23  1  0
  1 36  1  0
  1 37  1  0
  1 38  1  0
  4 39  1  0
  5 40  1  0
  8 41  1  0
 13 42  1  0
 14 43  1  0
 17 44  1  0
 17 45  1  0
 19 46  1  0
 20 47  1  0
 21 48  1  0
 24 49  1  0
 24 50  1  0
 24 51  1  0
 25 52  1  0
 25 53  1  0
 26 54  1  0
 26 55  1  0
 27 56  1  0
 27 57  1  0
 29 58  1  0
 30 59  1  0
 32 60  1  0
 32 61  1  0
 33 62  1  0
 33 63  1  0
 34 64  1  0
 35 65  1  0
M  CHG  1   8   1
M  END
>  <UniqueID>  (4) 
4

>  <SMILES>  (4) 
COc1ccc(-c2[nH+]nc3n2-c2ccc(OCc4cccc([C@]5(C)CCCO5)c4)cc2CC3)cc1

>  <Energy>  (4) 
119.95609725388866

>  <Genealogy>  (4) 
COc1ccc(-c2[nH+]nc3n2-c2ccc(OCc4cccc(C5(C)CCCO5)c4)cc2CC3)cc1 (protonated)
COc1ccc(-c2[nH+]nc3n2-c2ccc(OCc4cccc([C@]5(C)CCCO5)c4)cc2CC3)cc1 (chirality)
COc1ccc(-c2[nH+]nc3n2-c2ccc(OCc4cccc([C@]5(C)CCCO5)c4)cc2CC3)cc1 (3D coordinates assigned)
COc1ccc(-c2[nH+]nc3n2-c2ccc(OCc4cccc([C@]5(C)CCCO5)c4)cc2CC3)cc1 (nonaromatic ring conformer: 119.95609725388866 kcal/mol)

>  <smiles>  (4) 
COc1ccc(-c2nnc3n2-c2ccc(OCc4cccc(C5(C)CCCO5)c4)cc2CC3)cc1

>  <score_type>  (4) 
oracle

>  <origin>  (4) 
adg

>  <m_score__min__energy>  (4) 
-9.1300000000000008

>  <m_primary>  (4) 
energy

$$$$
4:0
     RDKit          3D

 35 37  0  0  0  0  0  0  0  0999 V2000
   59.2970   32.9110   50.4970 C   0  0  0  0  0  0  0  0  0  0  0  0
   59.6290   34.2050   49.7560 C   0  0  0  0  0  0  0  0  0  0  0  0
   60.5700   33.9520   48.6550 N   0  0  0  0  0  0  0  0  0  0  0  0
   60.3770   33.8790   47.2960 C   0  0  0  0  0  0  0  0  0  0  0  0
   59.1110   34.1870   46.5170 C   0  0  0  0  0  0  0  0  0  0  0  0
   58.0420   33.1420   46.5660 C   0  0  0  0  0  0  0  0  0  0  0  0
   58.0570   32.8470   45.1210 N   0  0  0  0  0  0  0  0  0  0  0  0
   57.3940   31.9600   44.2210 C   0  0  0  0  0  0  0  0  0  0  0  0
   57.7630   31.9500   42.7750 C   0  0  0  0  0  0  0  0  0  0  0  0
   56.5190   31.1670   44.6570 O   0  0  0  0  0  0  0  0  0  0  0  0
   59.1060   33.8830   45.0530 C   0  0  0  0  0  0  0  0  0  0  0  0
   61.5150   33.5710   46.6150 N   0  0  0  0  0  0  0  0  0  0  0  0
   62.4370   33.4440   47.5810 C   0  0  0  0  0  0  0  0  0  0  0  0
   63.7870   33.1440   47.4480 C   0  0  0  0  0  0  0  0  0  0  0  0
   64.5550   33.0910   48.6240 C   0  0  0  0  0  0  0  0  0  0  0  0
   63.9440   33.3460   49.8730 C   0  0  0  0  0  0  0  0  0  0  0  0
   62.6090   33.6400   49.9450 N   0  0  0  0  0  0  0  0  0  0  0  0
   61.8810   33.6750   48.7960 C   0  0  0  0  0  0  0  0  0  0  0  0
   59.3423   33.0877   51.5818 H   0  0  0  0  0  0  0  0  0  0  0  0
   58.2848   32.5800   50.2214 H   0  0  0  0  0  0  0  0  0  0  0  0
   60.0248   32.1336   50.2214 H   0  0  0  0  0  0  0  0  0  0  0  0
   58.7023   34.6336   49.3466 H   0  0  0  0  0  0  0  0  0  0  0  0
   60.0961   34.9056   50.4638 H   0  0  0  0  0  0  0  0  0  0  0  0
   59.0041   35.2063   46.9166 H   0  0  0  0  0  0  0  0  0  0  0  0
   58.3226   32.2741   47.1808 H   0  0  0  0  0  0  0  0  0  0  0  0
   57.0780   33.4276   47.0122 H   0  0  0  0  0  0  0  0  0  0  0  0
   58.8582   31.9203   42.6763 H   0  0  0  0  0  0  0  0  0  0  0  0
   57.3271   31.0633   42.2915 H   0  0  0  0  0  0  0  0  0  0  0  0
   57.3757   32.8590   42.2915 H   0  0  0  0  0  0  0  0  0  0  0  0
   60.0697   33.4907   44.6960 H   0  0  0  0  0  0  0  0  0  0  0  0
   58.9401   34.7242   44.3639 H   0  0  0  0  0  0  0  0  0  0  0  0
   64.2367   32.9555   46.4620 H   0  0  0  0  0  0  0  0  0  0  0  0
   65.6275   32.8520   48.5726 H   0  0  0  0  0  0  0  0  0  0  0  0
   64.5454   33.3079   50.7933 H   0  0  0  0  0  0  0  0  0  0  0  0
   62.1750   33.8420   50.8730 H   0  0  0  0  0  0  0  0  0  0  0  0
  1  2  1  0
  2  3  1  0
  3  4  1  0
  4  5  1  0
  5  6  1  0
  6  7  1  0
  7  8  1  0
  8  9  1  0
  8 10  2  0
  7 11  1  0
  4 12  2  0
 12 13  1  0
 13 14  2  0
 14 15  1  0
 15 16  2  0
 16 17  1  0
 17 18  2  0
 18  3  1  0
 11  5  1  0
 18 13  1  0
  1 19  1  0
  1 20  1  0
  1 21  1  0
  2 22  1  0
  2 23  1  0
  5 24  1  0
  6 25  1  0
  6 26  1  0
  9 27  1  0
  9 28  1  0
  9 29  1  0
 11 30  1  0
 11 31  1  0
 14 32  1  0
 15 33  1  0
 16 34  1  0
 17 35  1  0
M  CHG  1  17   1
M  END
>  <UniqueID>  (5) 
5

>  <SMILES>  (5) 
CCn1c(C2CN(C(C)=O)C2)nc2ccc[nH+]c21

>  <Energy>  (5) 
119.37940636379611

>  <Genealogy>  (5) 
CCn1c(C2CN(C(C)=O)C2)nc2ccc[nH+]c21 (protonated)
CCn1c(C2CN(C(C)=O)C2)nc2ccc[nH+]c21 (3D coordinates assigned)
CCn1c(C2CN(C(C)=O)C2)nc2ccc[nH+]c21 (nonaromatic ring conformer: 119.37940636379611 kcal/mol)

>  <smiles>  (5) 
CCn1c(C2CN(C(C)=O)C2)nc2cccnc21

>  <score_type>  (5) 
oracle

>  <origin>  (5) 
adg

>  <m_score__min__energy>  (5) 
-5.6500000000000004

>  <m_primary>  (5) 
energy

$$$$
5:0
     RDKit          3D

 49 52  0  0  0  0  0  0  0  0999 V2000
   60.4270   28.5010   44.5210 F   0  0  0  0  0  0  0  0  0  0  0  0
   59.5090   27.8140   45.2480 C   0  0  0  0  0  0  0  0  0  0  0  0
   59.9520   26.8810   46.1910 C   0  0  0  0  0  0  0  0  0  0  0  0
   59.0280   26.1580   46.9500 C   0  0  0  0  0  0  0  0  0  0  0  0
   57.6590   26.3690   46.7710 C   0  0  0  0  0  0  0  0  0  0  0  0
   57.2060   27.3000   45.8320 C   0  0  0  0  0  0  0  0  0  0  0  0
   55.8710   27.4770   45.6690 F   0  0  0  0  0  0  0  0  0  0  0  0
   58.1290   28.0270   45.0530 C   0  0  0  0  0  0  0  0  0  0  0  0
   57.6430   29.0540   44.0590 C   0  0  0  0  0  0  0  0  0  0  0  0
   57.7650   30.4070   44.6170 N   0  0  0  0  0  0  0  0  0  0  0  0
   58.0010   30.5770   45.9540 C   0  0  0  0  0  0  0  0  0  0  0  0
   58.1380   31.8550   46.4970 C   0  0  0  0  0  0  0  0  0  0  0  0
   58.0390   32.9820   45.6600 C   0  0  0  0  0  0  0  0  0  0  0  0
   58.1520   34.2040   46.1050 N   0  0  0  0  0  0  0  0  0  0  0  0
   59.3620   35.0280   46.1330 C   0  0  0  0  0  0  0  0  0  0  0  0
   60.4290   34.3840   46.9790 C   0  0  0  0  0  0  0  0  0  0  0  0
   61.5720   33.8400   46.3740 C   0  0  0  0  0  0  0  0  0  0  0  0
   62.5750   33.2570   47.1540 C   0  0  0  0  0  0  0  0  0  0  0  0
   62.4560   33.2120   48.5540 C   0  0  0  0  0  0  0  0  0  0  0  0
   63.5230   32.5960   49.3850 C   0  0  0  0  0  0  0  0  0  0  0  0
   64.8360   33.1020   49.3520 C   0  0  0  0  0  0  0  0  0  0  0  0
   65.8390   32.5200   50.1350 C   0  0  0  0  0  0  0  0  0  0  0  0
   65.5430   31.4300   50.9560 C   0  0  0  0  0  0  0  0  0  0  0  0
   64.2430   30.9190   50.9960 C   0  0  0  0  0  0  0  0  0  0  0  0
   63.2370   31.4970   50.2180 C   0  0  0  0  0  0  0  0  0  0  0  0
   61.3130   33.7680   49.1570 C   0  0  0  0  0  0  0  0  0  0  0  0
   60.3120   34.3530   48.3770 C   0  0  0  0  0  0  0  0  0  0  0  0
   57.8030   32.7860   44.2960 C   0  0  0  0  0  0  0  0  0  0  0  0
   57.6720   31.4920   43.7900 C   0  0  0  0  0  0  0  0  0  0  0  0
   61.0299   26.7160   46.3355 H   0  0  0  0  0  0  0  0  0  0  0  0
   59.3789   25.4224   47.6887 H   0  0  0  0  0  0  0  0  0  0  0  0
   56.9341   25.8000   47.3716 H   0  0  0  0  0  0  0  0  0  0  0  0
   58.2468   28.9846   43.1422 H   0  0  0  0  0  0  0  0  0  0  0  0
   56.5850   28.8567   43.8317 H   0  0  0  0  0  0  0  0  0  0  0  0
   58.0836   29.6964   46.6080 H   0  0  0  0  0  0  0  0  0  0  0  0
   58.3225   31.9810   47.5741 H   0  0  0  0  0  0  0  0  0  0  0  0
   59.7396   35.1490   45.1070 H   0  0  0  0  0  0  0  0  0  0  0  0
   59.1115   36.0072   46.5671 H   0  0  0  0  0  0  0  0  0  0  0  0
   61.6795   33.8724   45.2797 H   0  0  0  0  0  0  0  0  0  0  0  0
   63.4647   32.8299   46.6682 H   0  0  0  0  0  0  0  0  0  0  0  0
   65.0751   33.9602   48.7067 H   0  0  0  0  0  0  0  0  0  0  0  0
   66.8625   32.9218   50.1037 H   0  0  0  0  0  0  0  0  0  0  0  0
   66.3327   30.9738   51.5710 H   0  0  0  0  0  0  0  0  0  0  0  0
   64.0112   30.0593   51.6419 H   0  0  0  0  0  0  0  0  0  0  0  0
   62.2153   31.0913   50.2562 H   0  0  0  0  0  0  0  0  0  0  0  0
   61.2064   33.7420   50.2515 H   0  0  0  0  0  0  0  0  0  0  0  0
   59.4273   34.7917   48.8616 H   0  0  0  0  0  0  0  0  0  0  0  0
   57.7206   33.6514   43.6219 H   0  0  0  0  0  0  0  0  0  0  0  0
   57.4921   31.3434   42.7150 H   0  0  0  0  0  0  0  0  0  0  0  0
  1  2  1  0
  2  3  2  0
  3  4  1  0
  4  5  2  0
  5  6  1  0
  6  7  1  0
  6  8  2  0
  8  9  1  0
  9 10  1  0
 10 11  1  0
 11 12  2  0
 12 13  1  0
 13 14  2  3
 14 15  1  0
 15 16  1  0
 16 17  2  0
 17 18  1  0
 18 19  2  0
 19 20  1  0
 20 21  2  0
 21 22  1  0
 22 23  2  0
 23 24  1  0
 24 25  2  0
 19 26  1  0
 26 27  2  0
 13 28  1  0
 28 29  2  0
  8  2  1  0
 29 10  1  0
 27 16  1  0
 25 20  1  0
  3 30  1  0
  4 31  1  0
  5 32  1  0
  9 33  1  0
  9 34  1  0
 11 35  1  0
 12 36  1  0
 15 37  1  0
 15 38  1  0
 17 39  1  0
 18 40  1  0
 21 41  1  0
 22 42  1  0
 23 43  1  0
 24 44  1  0
 25 45  1  0
 26 46  1  0
 27 47  1  0
 28 48  1  0
 29 49  1  0
M  END
>  <UniqueID>  (6) 
6

>  <SMILES>  (6) 
Fc1cccc(F)c1Cn1ccc(=NCc2ccc(-c3ccccc3)cc2)cc1

>  <Energy>  (6) 
61.56944124086345

>  <Genealogy>  (6) 
Fc1cccc(F)c1Cn1ccc(=NCc2ccc(-c3ccccc3)cc2)cc1 (3D coordinates assigned)
Fc1cccc(F)c1Cn1ccc(=NCc2ccc(-c3ccccc3)cc2)cc1 (optimized conformer: 61.56944124086345 kcal/mol)

>  <smiles>  (6) 
Fc1cccc(F)c1Cn1ccc(=NCc2ccc(-c3ccccc3)cc2)cc1

>  <score_type>  (6) 
oracle

>  <origin>  (6) 
adg

>  <m_score__min__energy>  (6) 
-8.6799999999999997

>  <m_primary>  (6) 
energy

$$$$
6:0
     RDKit          3D

 40 43  0  0  0  0  0  0  0  0999 V2000
   65.9670   32.6840   49.7500 O   0  0  0  0  0  0  0  0  0  0  0  0
   64.9510   33.4290   49.7470 C   0  0  0  0  0  0  0  0  0  0  0  0
   63.6900   32.9930   49.1200 C   0  0  0  0  0  0  0  0  0  0  0  0
   63.6820   32.0300   48.0960 C   0  0  0  0  0  0  0  0  0  0  0  0
   62.4760   31.6290   47.5140 C   0  0  0  0  0  0  0  0  0  0  0  0
   61.2630   32.1850   47.9460 C   0  0  0  0  0  0  0  0  0  0  0  0
   60.0220   31.7620   47.3570 N   0  0  0  0  0  0  0  0  0  0  0  0
   59.4420   30.5310   47.4110 C   0  0  0  0  0  0  0  0  0  0  0  0
   59.8920   29.4120   48.2710 C   0  0  0  0  0  0  0  0  0  0  0  0
   59.9550   28.1010   47.7730 C   0  0  0  0  0  0  0  0  0  0  0  0
   60.3950   27.0700   48.6040 C   0  0  0  0  0  0  0  0  0  0  0  0
   60.7780   27.3510   49.9140 C   0  0  0  0  0  0  0  0  0  0  0  0
   60.7250   28.6670   50.3740 C   0  0  0  0  0  0  0  0  0  0  0  0
   60.2940   29.6640   49.5520 N   0  0  0  0  0  0  0  0  0  0  0  0
   58.3870   30.4090   46.5700 N   0  0  0  0  0  0  0  0  0  0  0  0
   58.3120   31.6180   45.9840 C   0  0  0  0  0  0  0  0  0  0  0  0
   59.2860   32.4470   46.4630 C   0  0  0  0  0  0  0  0  0  0  0  0
   59.5890   33.7860   45.8490 C   0  0  0  0  0  0  0  0  0  0  0  0
   58.3210   34.3580   45.1770 C   0  0  0  0  0  0  0  0  0  0  0  0
   57.6370   33.3430   44.2300 C   0  0  0  0  0  0  0  0  0  0  0  0
   57.4060   32.0150   44.9060 C   0  0  0  0  0  0  0  0  0  0  0  0
   56.5000   31.2370   44.5070 O   0  0  0  0  0  0  0  0  0  0  0  0
   61.2680   33.1440   48.9680 C   0  0  0  0  0  0  0  0  0  0  0  0
   62.4730   33.5470   49.5500 C   0  0  0  0  0  0  0  0  0  0  0  0
   65.0057   34.4207   50.2198 H   0  0  0  0  0  0  0  0  0  0  0  0
   64.6293   31.5899   47.7511 H   0  0  0  0  0  0  0  0  0  0  0  0
   62.4783   30.8742   46.7138 H   0  0  0  0  0  0  0  0  0  0  0  0
   59.6596   27.8880   46.7350 H   0  0  0  0  0  0  0  0  0  0  0  0
   60.4394   26.0380   48.2259 H   0  0  0  0  0  0  0  0  0  0  0  0
   61.1187   26.5434   50.5786 H   0  0  0  0  0  0  0  0  0  0  0  0
   61.0323   28.9003   51.4041 H   0  0  0  0  0  0  0  0  0  0  0  0
   60.2620   30.6380   49.9290 H   0  0  0  0  0  0  0  0  0  0  0  0
   59.9292   34.4779   46.6335 H   0  0  0  0  0  0  0  0  0  0  0  0
   60.3766   33.6656   45.0906 H   0  0  0  0  0  0  0  0  0  0  0  0
   57.6055   34.6443   45.9619 H   0  0  0  0  0  0  0  0  0  0  0  0
   58.6279   35.2231   44.5708 H   0  0  0  0  0  0  0  0  0  0  0  0
   56.6679   33.7526   43.9090 H   0  0  0  0  0  0  0  0  0  0  0  0
   58.3009   33.1776   43.3687 H   0  0  0  0  0  0  0  0  0  0  0  0
   60.3196   33.5813   49.3135 H   0  0  0  0  0  0  0  0  0  0  0  0
   62.4683   34.3025   50.3495 H   0  0  0  0  0  0  0  0  0  0  0  0
  1  2  2  0
  2  3  1  0
  3  4  2  0
  4  5  1  0
  5  6  2  0
  6  7  1  0
  7  8  1  0
  8  9  1  0
  9 10  2  0
 10 11  1  0
 11 12  2  0
 12 13  1  0
 13 14  2  0
  8 15  2  0
 15 16  1  0
 16 17  2  0
 17 18  1  0
 18 19  1  0
 19 20  1  0
 20 21  1  0
 21 22  2  0
  6 23  1  0
 23 24  2  0
 24  3  1  0
 17  7  1  0
 14  9  1  0
 21 16  1  0
  2 25  1  0
  4 26  1  0
  5 27  1  0
 10 28  1  0
 11 29  1  0
 12 30  1  0
 13 31  1  0
 14 32  1  0
 18 33  1  0
 18 34  1  0
 19 35  1  0
 19 36  1  0
 20 37  1  0
 20 38  1  0
 23 39  1  0
 24 40  1  0
M  CHG  1  14   1
M  END
>  <UniqueID>  (7) 
7

>  <SMILES>  (7) 
O=Cc1ccc(-n2c(-c3cccc[nH+]3)nc3c2CCCC3=O)cc1

>  <Energy>  (7) 
84.4249272535717

>  <Genealogy>  (7) 
O=Cc1ccc(-n2c(-c3cccc[nH+]3)nc3c2CCCC3=O)cc1 (protonated)
O=Cc1ccc(-n2c(-c3cccc[nH+]3)nc3c2CCCC3=O)cc1 (3D coordinates assigned)
O=Cc1ccc(-n2c(-c3cccc[nH+]3)nc3c2CCCC3=O)cc1 (nonaromatic ring conformer: 84.4249272535717 kcal/mol)

>  <smiles>  (7) 
O=Cc1ccc(-n2c(-c3ccccn3)nc3c2CCCC3=O)cc1

>  <score_type>  (7) 
oracle

>  <origin>  (7) 
adg

>  <m_score__min__energy>  (7) 
-6.0700000000000003

>  <m_primary>  (7) 
energy

$$$$
7:0
     RDKit          3D

 47 47  0  0  0  0  0  0  0  0999 V2000
   56.9766   30.6768   42.5742 H   0  0  0  0  0  0  0  0  0  0  0  0
   56.9700   31.0740   43.6000 C   0  0  0  0  0  0  0  0  0  0  0  0
   56.3050   30.4650   44.5180 N   0  0  0  0  0  0  0  0  0  0  0  0
   56.6760   29.1500   44.9870 C   0  0  0  0  0  0  0  0  0  0  0  0
   55.7994   28.4871   44.9407 H   0  0  0  0  0  0  0  0  0  0  0  0
   57.0346   29.2270   46.0240 H   0  0  0  0  0  0  0  0  0  0  0  0
   57.7920   28.5730   44.1150 C   0  0  0  0  0  0  0  0  0  0  0  0
   57.8468   29.1511   43.1808 H   0  0  0  0  0  0  0  0  0  0  0  0
   57.5558   27.5169   43.9179 H   0  0  0  0  0  0  0  0  0  0  0  0
   59.1510   28.6290   44.8090 C   0  0  0  0  0  0  0  0  0  0  0  0
   59.0064   28.6230   45.8994 H   0  0  0  0  0  0  0  0  0  0  0  0
   59.7498   27.7548   44.5138 H   0  0  0  0  0  0  0  0  0  0  0  0
   59.6758   29.5495   44.5138 H   0  0  0  0  0  0  0  0  0  0  0  0
   57.7370   32.3240   43.9220 C   0  0  0  0  0  0  0  0  0  0  0  0
   58.8042   32.1443   43.7251 H   0  0  0  0  0  0  0  0  0  0  0  0
   57.3412   33.1326   43.2900 H   0  0  0  0  0  0  0  0  0  0  0  0
   57.5700   32.7540   45.3970 C   0  0  2  0  0  0  0  0  0  0  0  0
   56.5022   32.6857   45.6521 H   0  0  0  0  0  0  0  0  0  0  0  0
   57.9690   34.2360   45.6230 C   0  0  0  0  0  0  0  0  0  0  0  0
   57.7367   34.8079   44.7125 H   0  0  0  0  0  0  0  0  0  0  0  0
   57.4008   34.6098   46.4875 H   0  0  0  0  0  0  0  0  0  0  0  0
   59.4670   34.3950   45.9390 C   0  0  0  0  0  0  0  0  0  0  0  0
   60.0409   34.1334   45.0378 H   0  0  0  0  0  0  0  0  0  0  0  0
   59.6195   35.4397   46.2477 H   0  0  0  0  0  0  0  0  0  0  0  0
   59.9420   33.5350   47.0660 N   0  0  1  0  0  0  0  0  0  0  0  0
   60.7360   32.9730   46.6740 H   0  0  0  0  0  0  0  0  0  0  0  0
   60.5580   34.3040   48.1830 C   0  0  0  0  0  0  0  0  0  0  0  0
   60.4766   35.3737   47.9399 H   0  0  0  0  0  0  0  0  0  0  0  0
   60.0083   34.0043   49.0874 H   0  0  0  0  0  0  0  0  0  0  0  0
   62.0450   33.9980   48.4790 C   0  0  0  0  0  0  0  0  0  0  0  0
   62.6074   34.9433   48.4834 H   0  0  0  0  0  0  0  0  0  0  0  0
   62.0991   33.4963   49.4564 H   0  0  0  0  0  0  0  0  0  0  0  0
   62.6390   33.0950   47.4710 N   0  0  0  0  0  0  0  0  0  0  0  0
   63.3610   33.8660   46.4470 C   0  0  0  0  0  0  0  0  0  0  0  0
   64.0344   34.5851   46.9364 H   0  0  0  0  0  0  0  0  0  0  0  0
   63.9498   33.1808   45.8195 H   0  0  0  0  0  0  0  0  0  0  0  0
   62.6387   34.4086   45.8195 H   0  0  0  0  0  0  0  0  0  0  0  0
   63.5580   32.1310   48.1010 C   0  0  0  0  0  0  0  0  0  0  0  0
   63.4807   32.2121   49.1953 H   0  0  0  0  0  0  0  0  0  0  0  0
   63.2896   31.1109   47.7890 H   0  0  0  0  0  0  0  0  0  0  0  0
   64.5898   32.3503   47.7890 H   0  0  0  0  0  0  0  0  0  0  0  0
   58.9520   32.5320   47.5270 C   0  0  0  0  0  0  0  0  0  0  0  0
   59.4504   31.8074   48.1877 H   0  0  0  0  0  0  0  0  0  0  0  0
   58.1475   33.0478   48.0717 H   0  0  0  0  0  0  0  0  0  0  0  0
   58.3470   31.7910   46.3290 C   0  0  0  0  0  0  0  0  0  0  0  0
   59.1574   31.3162   45.7564 H   0  0  0  0  0  0  0  0  0  0  0  0
   57.6422   31.0374   46.7103 H   0  0  0  0  0  0  0  0  0  0  0  0
  1  2  1  0
  2  3  2  0
  3  4  1  0
  4  5  1  0
  4  6  1  0
  4  7  1  0
  7  8  1  0
  7  9  1  0
  7 10  1  0
 10 11  1  0
 10 12  1  0
 10 13  1  0
  2 14  1  0
 14 15  1  0
 14 16  1  0
 14 17  1  0
 17 18  1  1
 17 19  1  0
 19 20  1  0
 19 21  1  0
 19 22  1  0
 22 23  1  0
 22 24  1  0
 22 25  1  0
 25 26  1  6
 25 27  1  0
 27 28  1  0
 27 29  1  0
 27 30  1  0
 30 31  1  0
 30 32  1  0
 30 33  1  0
 33 34  1  0
 34 35  1  0
 34 36  1  0
 34 37  1  0
 33 38  1  0
 38 39  1  0
 38 40  1  0
 38 41  1  0
 25 42  1  0
 42 43  1  0
 42 44  1  0
 42 45  1  0
 45 46  1  0
 45 47  1  0
 45 17  1  0
M  CHG  1  25   1
M  END
>  <UniqueID>  (8) 
8

>  <SMILES>  (8) 
CCC/N=C/CC1CC[NH+](CCN(C)C)CC1

>  <Energy>  (8) 
46.15128210408418

>  <Genealogy>  (8) 
CCCN=CCC1CC[NH+](CCN(C)C)CC1 (protonated)
CCC/N=C/CC1CC[NH+](CCN(C)C)CC1 (cis-trans isomerization)
CCC/N=C/CC1CC[NH+](CCN(C)C)CC1 (3D coordinates assigned)
CCC/N=C/CC1CC[NH+](CCN(C)C)CC1 (nonaromatic ring conformer: 46.15128210408418 kcal/mol)

>  <smiles>  (8) 
CCCN=CCC1CCN(CCN(C)C)CC1

>  <score_type>  (8) 
oracle

>  <origin>  (8) 
adg

>  <m_score__min__energy>  (8) 
-4.3799999999999999

>  <m_primary>  (8) 
energy

$$$$
8:0
     RDKit          3D

 34 37  0  0  0  0  0  0  0  0999 V2000
   60.6390   28.1520   45.5970 C   0  0  0  0  0  0  0  0  0  0  0  0
   59.3010   27.5520   45.9030 C   0  0  0  0  0  0  0  0  0  0  0  0
   59.1540   26.4980   46.8200 C   0  0  0  0  0  0  0  0  0  0  0  0
   57.8530   26.0330   46.9390 C   0  0  0  0  0  0  0  0  0  0  0  0
   56.8770   26.9360   45.9120 S   0  0  0  0  0  0  0  0  0  0  0  0
   58.0900   27.9410   45.3190 C   0  0  0  0  0  0  0  0  0  0  0  0
   57.8620   29.0000   44.3190 C   0  0  0  0  0  0  0  0  0  0  0  0
   57.0920   28.8460   43.2210 N   0  0  0  0  0  0  0  0  0  0  0  0
   56.9700   30.0250   42.6260 N   0  0  0  0  0  0  0  0  0  0  0  0
   57.6880   30.8860   43.3740 C   0  0  0  0  0  0  0  0  0  0  0  0
   58.2420   30.2840   44.4320 N   0  0  0  0  0  0  0  0  0  0  0  0
   58.7130   30.9470   45.5770 N   0  0  0  0  0  0  0  0  0  0  0  0
   58.4540   32.2060   45.8080 C   0  0  0  0  0  0  0  0  0  0  0  0
   58.9860   32.8240   47.0470 C   0  0  0  0  0  0  0  0  0  0  0  0
   58.7340   32.2260   48.2960 C   0  0  0  0  0  0  0  0  0  0  0  0
   59.2250   32.8040   49.4710 C   0  0  0  0  0  0  0  0  0  0  0  0
   59.9670   33.9850   49.4130 C   0  0  0  0  0  0  0  0  0  0  0  0
   60.2200   34.5910   48.1810 C   0  0  0  0  0  0  0  0  0  0  0  0
   59.7320   34.0170   47.0030 C   0  0  0  0  0  0  0  0  0  0  0  0
   57.4930   32.9740   44.9120 C   0  0  0  0  0  0  0  0  0  0  0  0
   57.7830   32.6470   43.1350 S   0  0  0  0  0  0  0  0  0  0  0  0
   61.1598   28.3856   46.5373 H   0  0  0  0  0  0  0  0  0  0  0  0
   61.2374   27.4360   45.0145 H   0  0  0  0  0  0  0  0  0  0  0  0
   60.5024   29.0750   45.0145 H   0  0  0  0  0  0  0  0  0  0  0  0
   59.9951   26.0793   47.3921 H   0  0  0  0  0  0  0  0  0  0  0  0
   57.5179   25.2143   47.5928 H   0  0  0  0  0  0  0  0  0  0  0  0
   56.6280   27.9690   42.8960 H   0  0  0  0  0  0  0  0  0  0  0  0
   58.1467   31.2974   48.3483 H   0  0  0  0  0  0  0  0  0  0  0  0
   59.0262   32.3274   50.4422 H   0  0  0  0  0  0  0  0  0  0  0  0
   60.3524   34.4382   50.3382 H   0  0  0  0  0  0  0  0  0  0  0  0
   60.8044   35.5219   48.1369 H   0  0  0  0  0  0  0  0  0  0  0  0
   59.9323   34.5008   46.0356 H   0  0  0  0  0  0  0  0  0  0  0  0
   56.4636   32.6778   45.1622 H   0  0  0  0  0  0  0  0  0  0  0  0
   57.6574   34.0476   45.0865 H   0  0  0  0  0  0  0  0  0  0  0  0
  1  2  1  0
  2  3  1  0
  3  4  2  0
  4  5  1  0
  5  6  1  0
  6  7  1  0
  7  8  2  0
  8  9  1  0
  9 10  2  0
 10 11  1  0
 11 12  1  0
 12 13  2  0
 13 14  1  0
 14 15  2  0
 15 16  1  0
 16 17  2  0
 17 18  1  0
 18 19  2  0
 13 20  1  0
 20 21  1  0
  6  2  2  0
 11  7  1  0
 19 14  1  0
 21 10  1  0
  1 22  1  0
  1 23  1  0
  1 24  1  0
  3 25  1  0
  4 26  1  0
  8 27  1  0
 15 28  1  0
 16 29  1  0
 17 30  1  0
 18 31  1  0
 19 32  1  0
 20 33  1  0
 20 34  1  0
M  CHG  1   8   1
M  END
>  <UniqueID>  (9) 
9

>  <SMILES>  (9) 
Cc1ccsc1-c1[nH+]nc2n1N=C(c1ccccc1)CS2

>  <Energy>  (9) 
113.7575078722209

>  <Genealogy>  (9) 
Cc1ccsc1-c1[nH+]nc2n1N=C(c1ccccc1)CS2 (protonated)
Cc1ccsc1-c1[nH+]nc2n1N=C(c1ccccc1)CS2 (3D coordinates assigned)
Cc1ccsc1-c1[nH+]nc2n1N=C(c1ccccc1)CS2 (nonaromatic ring conformer: 113.7575078722209 kcal/mol)

>  <smiles>  (9) 
Cc1ccsc1-c1nnc2n1N=C(c1ccccc1)CS2

>  <score_type>  (9) 
oracle

>  <origin>  (9) 
adg

>  <m_score__min__energy>  (9) 
-7

>  <m_primary>  (9) 
energy

$$$$
9:0
     RDKit          3D

 47 48  0  0  0  0  0  0  0  0999 V2000
   55.3530   25.2190   45.8010 C   0  0  0  0  0  0  0  0  0  0  0  0
   55.4680   26.6090   46.0040 O   0  0  0  0  0  0  0  0  0  0  0  0
   56.8280   26.9850   45.9220 C   0  0  0  0  0  0  0  0  0  0  0  0
   56.9310   28.4870   45.6010 C   0  0  0  0  0  0  0  0  0  0  0  0
   58.3700   29.1190   45.6100 C   0  0  0  0  0  0  0  0  0  0  0  0
   58.2600   30.5650   45.1670 N   0  0  0  0  0  0  0  0  0  0  0  0
   58.2200   30.9090   43.8320 C   0  0  0  0  0  0  0  0  0  0  0  0
   58.1270   32.2340   43.4170 C   0  0  0  0  0  0  0  0  0  0  0  0
   58.0570   33.2480   44.3540 C   0  0  0  0  0  0  0  0  0  0  0  0
   58.0650   32.9380   45.7170 C   0  0  0  0  0  0  0  0  0  0  0  0
   57.9800   33.9780   46.7170 N   0  0  0  0  0  0  0  0  0  0  0  0
   59.1240   34.8020   47.1190 C   0  0  0  0  0  0  0  0  0  0  0  0
   60.3300   33.9420   47.5280 C   0  0  0  0  0  0  0  0  0  0  0  0
   61.3750   33.8110   46.4140 C   0  0  0  0  0  0  0  0  0  0  0  0
   63.1390   33.4360   47.1330 Br  0  0  0  0  0  0  0  0  0  0  0  0
   58.1560   31.5830   46.1050 C   0  0  0  0  0  0  0  0  0  0  0  0
   58.1240   31.3210   47.3380 O   0  0  0  0  0  0  0  0  0  0  0  0
   59.2850   28.2440   44.6830 C   0  0  0  0  0  0  0  0  0  0  0  0
   60.7880   28.5810   44.8510 C   0  0  0  0  0  0  0  0  0  0  0  0
   60.9830   29.7700   45.5930 O   0  0  0  0  0  0  0  0  0  0  0  0
   60.5110   29.6160   46.9220 C   0  0  0  0  0  0  0  0  0  0  0  0
   59.0780   29.0390   46.9980 C   0  0  0  0  0  0  0  0  0  0  0  0
   55.3108   24.7085   46.7745 H   0  0  0  0  0  0  0  0  0  0  0  0
   54.4342   25.0059   45.2350 H   0  0  0  0  0  0  0  0  0  0  0  0
   56.2243   24.8578   45.2350 H   0  0  0  0  0  0  0  0  0  0  0  0
   57.3225   26.7815   46.8833 H   0  0  0  0  0  0  0  0  0  0  0  0
   57.3190   26.4070   45.1252 H   0  0  0  0  0  0  0  0  0  0  0  0
   56.5060   28.6424   44.5984 H   0  0  0  0  0  0  0  0  0  0  0  0
   56.3909   28.9920   46.4154 H   0  0  0  0  0  0  0  0  0  0  0  0
   58.2628   30.1133   43.0737 H   0  0  0  0  0  0  0  0  0  0  0  0
   58.1092   32.4744   42.3437 H   0  0  0  0  0  0  0  0  0  0  0  0
   57.9951   34.2967   44.0277 H   0  0  0  0  0  0  0  0  0  0  0  0
   57.0600   34.1510   47.1820 H   0  0  0  0  0  0  0  0  0  0  0  0
   59.4145   35.4443   46.2746 H   0  0  0  0  0  0  0  0  0  0  0  0
   58.8229   35.4048   47.9885 H   0  0  0  0  0  0  0  0  0  0  0  0
   60.8080   34.4025   48.4052 H   0  0  0  0  0  0  0  0  0  0  0  0
   59.9550   32.9318   47.7491 H   0  0  0  0  0  0  0  0  0  0  0  0
   61.0809   32.9907   45.7428 H   0  0  0  0  0  0  0  0  0  0  0  0
   61.4202   34.7657   45.8695 H   0  0  0  0  0  0  0  0  0  0  0  0
   59.1304   27.1839   44.9326 H   0  0  0  0  0  0  0  0  0  0  0  0
   59.0076   28.4564   43.6400 H   0  0  0  0  0  0  0  0  0  0  0  0
   61.2823   27.7498   45.3751 H   0  0  0  0  0  0  0  0  0  0  0  0
   61.2177   28.7302   43.8494 H   0  0  0  0  0  0  0  0  0  0  0  0
   61.1902   28.9362   47.4574 H   0  0  0  0  0  0  0  0  0  0  0  0
   60.4842   30.6172   47.3768 H   0  0  0  0  0  0  0  0  0  0  0  0
   59.1299   27.9871   47.3155 H   0  0  0  0  0  0  0  0  0  0  0  0
   58.4991   29.6313   47.7219 H   0  0  0  0  0  0  0  0  0  0  0  0
  1  2  1  0
  2  3  1  0
  3  4  1  0
  4  5  1  0
  5  6  1  0
  6  7  1  0
  7  8  2  0
  8  9  1  0
  9 10  2  0
 10 11  1  0
 11 12  1  0
 12 13  1  0
 13 14  1  0
 14 15  1  0
 10 16  1  0
 16 17  2  0
  5 18  1  0
 18 19  1  0
 19 20  1  0
 20 21  1  0
 21 22  1  0
 22  5  1  0
 16  6  1  0
  1 23  1  0
  1 24  1  0
  1 25  1  0
  3 26  1  0
  3 27  1  0
  4 28  1  0
  4 29  1  0
  7 30  1  0
  8 31  1  0
  9 32  1  0
 11 33  1  0
 12 34  1  0
 12 35  1  0
 13 36  1  0
 13 37  1  0
 14 38  1  0
 14 39  1  0
 18 40  1  0
 18 41  1  0
 19 42  1  0
 19 43  1  0
 21 44  1  0
 21 45  1  0
 22 46  1  0
 22 47  1  0
M  END
>  <UniqueID>  (10) 
10

>  <SMILES>  (10) 
COCCC1(n2cccc(NCCCBr)c2=O)CCOCC1

>  <Energy>  (10) 
70.75145278830117

>  <Genealogy>  (10) 
COCCC1(n2cccc(NCCCBr)c2=O)CCOCC1 (3D coordinates assigned)
COCCC1(n2cccc(NCCCBr)c2=O)CCOCC1 (nonaromatic ring conformer: 70.75145278830117 kcal/mol)

>  <smiles>  (10) 
COCCC1(n2cccc(NCCCBr)c2=O)CCOCC1

>  <score_type>  (10) 
oracle

>  <origin>  (10) 
adg

>  <m_score__min__energy>  (10) 
-6.7400000000000002

>  <m_primary>  (10) 
energy

$$$$
10:0
     RDKit          3D

 42 45  0  0  0  0  0  0  0  0999 V2000
   59.0820   34.9580   48.0650 O   0  0  0  0  0  0  0  0  0  0  0  0
   59.9390   34.4510   46.9400 S   0  0  0  0  0  0  0  0  0  0  0  0
   60.1700   35.5670   45.9590 O   0  0  0  0  0  0  0  0  0  0  0  0
   61.5090   33.9410   47.5520 C   0  0  0  0  0  0  0  0  0  0  0  0
   62.4980   33.5130   46.6540 C   0  0  0  0  0  0  0  0  0  0  0  0
   63.7430   33.0880   47.1300 C   0  0  0  0  0  0  0  0  0  0  0  0
   64.0040   33.0850   48.5030 C   0  0  0  0  0  0  0  0  0  0  0  0
   63.0200   33.5060   49.4030 C   0  0  0  0  0  0  0  0  0  0  0  0
   61.7740   33.9320   48.9300 C   0  0  0  0  0  0  0  0  0  0  0  0
   59.1300   33.0830   46.1620 C   0  0  0  0  0  0  0  0  0  0  0  0
   58.7770   33.1810   44.8470 N   0  0  0  0  0  0  0  0  0  0  0  0
   58.1010   32.1800   44.2170 C   0  0  0  0  0  0  0  0  0  0  0  0
   57.7310   32.2920   42.8680 C   0  0  0  0  0  0  0  0  0  0  0  0
   57.0330   31.2510   42.2460 C   0  0  0  0  0  0  0  0  0  0  0  0
   56.7030   30.0970   42.9650 C   0  0  0  0  0  0  0  0  0  0  0  0
   57.0700   29.9780   44.3090 C   0  0  0  0  0  0  0  0  0  0  0  0
   57.7670   31.0150   44.9370 C   0  0  0  0  0  0  0  0  0  0  0  0
   58.1350   30.9090   46.2370 N   0  0  0  0  0  0  0  0  0  0  0  0
   58.8150   31.9020   46.8700 C   0  0  0  0  0  0  0  0  0  0  0  0
   59.1980   31.7190   48.2370 N   0  0  0  0  0  0  0  0  0  0  0  0
   60.0590   30.6330   48.6660 C   0  0  0  0  0  0  0  0  0  0  0  0
   60.0880   30.7190   50.1850 C   0  0  0  0  0  0  0  0  0  0  0  0
   58.8670   31.5490   50.5780 C   0  0  0  0  0  0  0  0  0  0  0  0
   58.4770   32.3370   49.3340 C   0  0  0  0  0  0  0  0  0  0  0  0
   62.2942   33.5115   45.5730 H   0  0  0  0  0  0  0  0  0  0  0  0
   64.5173   32.7558   46.4228 H   0  0  0  0  0  0  0  0  0  0  0  0
   64.9837   32.7514   48.8758 H   0  0  0  0  0  0  0  0  0  0  0  0
   63.2257   33.5023   50.4836 H   0  0  0  0  0  0  0  0  0  0  0  0
   61.0005   34.2605   49.6398 H   0  0  0  0  0  0  0  0  0  0  0  0
   59.0230   34.0450   44.3140 H   0  0  0  0  0  0  0  0  0  0  0  0
   57.9896   33.1977   42.2998 H   0  0  0  0  0  0  0  0  0  0  0  0
   56.7429   31.3401   41.1887 H   0  0  0  0  0  0  0  0  0  0  0  0
   56.1536   29.2815   42.4719 H   0  0  0  0  0  0  0  0  0  0  0  0
   56.8106   29.0693   44.8719 H   0  0  0  0  0  0  0  0  0  0  0  0
   59.6483   29.6651   48.3427 H   0  0  0  0  0  0  0  0  0  0  0  0
   61.0665   30.7125   48.2316 H   0  0  0  0  0  0  0  0  0  0  0  0
   60.0261   29.7136   50.6269 H   0  0  0  0  0  0  0  0  0  0  0  0
   61.0213   31.1750   50.5471 H   0  0  0  0  0  0  0  0  0  0  0  0
   58.0416   30.8914   50.8883 H   0  0  0  0  0  0  0  0  0  0  0  0
   59.0885   32.2158   51.4244 H   0  0  0  0  0  0  0  0  0  0  0  0
   57.3920   32.2737   49.1641 H   0  0  0  0  0  0  0  0  0  0  0  0
   58.7258   33.4038   49.4341 H   0  0  0  0  0  0  0  0  0  0  0  0
  1  2  2  0
  2  3  2  0
  2  4  1  0
  4  5  2  0
  5  6  1  0
  6  7  2  0
  7  8  1  0
  8  9  2  0
  2 10  1  0
 10 11  2  0
 11 12  1  0
 12 13  2  0
 13 14  1  0
 14 15  2  0
 15 16  1  0
 16 17  2  0
 17 18  1  0
 18 19  2  0
 19 20  1  0
 20 21  1  0
 21 22  1  0
 22 23  1  0
 23 24  1  0
  9  4  1  0
 19 10  1  0
 24 20  1  0
 17 12  1  0
  5 25  1  0
  6 26  1  0
  7 27  1  0
  8 28  1  0
  9 29  1  0
 11 30  1  0
 13 31  1  0
 14 32  1  0
 15 33  1  0
 16 34  1  0
 21 35  1  0
 21 36  1  0
 22 37  1  0
 22 38  1  0
 23 39  1  0
 23 40  1  0
 24 41  1  0
 24 42  1  0
M  CHG  1  11   1
M  END
>  <UniqueID>  (11) 
11

>  <SMILES>  (11) 
O=S(=O)(c1ccccc1)c1[nH+]c2ccccc2nc1N1CCCC1

>  <Energy>  (11) 
57.340730391437795

>  <Genealogy>  (11) 
O=S(=O)(c1ccccc1)c1[nH+]c2ccccc2nc1N1CCCC1 (protonated)
O=S(=O)(c1ccccc1)c1[nH+]c2ccccc2nc1N1CCCC1 (3D coordinates assigned)
O=S(=O)(c1ccccc1)c1[nH+]c2ccccc2nc1N1CCCC1 (nonaromatic ring conformer: 57.340730391437795 kcal/mol)

>  <smiles>  (11) 
O=S(=O)(c1ccccc1)c1nc2ccccc2nc1N1CCCC1

>  <score_type>  (11) 
oracle

>  <origin>  (11) 
adg

>  <m_score__min__energy>  (11) 
-6.6900000000000004

>  <m_primary>  (11) 
energy

$$$$
11:0
     RDKit          3D

 35 36  0  0  0  0  0  0  0  0999 V2000
   54.7710   28.3100   44.4790 H   0  0  0  0  0  0  0  0  0  0  0  0
   55.3460   29.1530   44.6690 N   0  0  0  0  0  0  0  0  0  0  0  0
   56.5100   29.2090   45.2450 C   0  0  0  0  0  0  0  0  0  0  0  0
   57.1380   30.4100   45.2340 N   0  0  0  0  0  0  0  0  0  0  0  0
   58.4150   30.5810   45.6440 C   0  0  0  0  0  0  0  0  0  0  0  0
   58.8522   31.5903   45.6560 H   0  0  0  0  0  0  0  0  0  0  0  0
   59.1860   29.4880   46.0530 C   0  0  0  0  0  0  0  0  0  0  0  0
   60.5670   29.7120   46.4270 N   0  0  0  0  0  0  0  0  0  0  0  0
   61.1710   28.9210   46.1090 H   0  0  0  0  0  0  0  0  0  0  0  0
   60.9280   30.5610   45.9320 H   0  0  0  0  0  0  0  0  0  0  0  0
   60.6800   29.9110   47.8810 C   0  0  0  0  0  0  0  0  0  0  0  0
   59.6955   29.7440   48.3423 H   0  0  0  0  0  0  0  0  0  0  0  0
   61.4209   29.1974   48.2707 H   0  0  0  0  0  0  0  0  0  0  0  0
   61.1580   31.3410   48.2210 C   0  0  0  0  0  0  0  0  0  0  0  0
   60.2803   31.9709   48.4280 H   0  0  0  0  0  0  0  0  0  0  0  0
   61.8167   31.2834   49.1001 H   0  0  0  0  0  0  0  0  0  0  0  0
   61.9260   31.9390   47.1060 N   0  0  0  0  0  0  0  0  0  0  0  0
   61.3900   33.2730   46.7890 C   0  0  0  0  0  0  0  0  0  0  0  0
   61.1732   33.8125   47.7228 H   0  0  0  0  0  0  0  0  0  0  0  0
   62.1315   33.8365   46.2037 H   0  0  0  0  0  0  0  0  0  0  0  0
   60.4647   33.1668   46.2037 H   0  0  0  0  0  0  0  0  0  0  0  0
   63.3550   32.0540   47.4460 C   0  0  0  0  0  0  0  0  0  0  0  0
   63.4721   32.0634   48.5397 H   0  0  0  0  0  0  0  0  0  0  0  0
   63.9019   31.1970   47.0261 H   0  0  0  0  0  0  0  0  0  0  0  0
   63.7578   32.9875   47.0261 H   0  0  0  0  0  0  0  0  0  0  0  0
   58.5590   28.2160   46.1430 C   0  0  0  0  0  0  0  0  0  0  0  0
   59.2590   27.0790   46.5950 C   0  0  0  0  0  0  0  0  0  0  0  0
   60.3273   27.1590   46.8448 H   0  0  0  0  0  0  0  0  0  0  0  0
   58.6110   25.8610   46.7270 C   0  0  0  0  0  0  0  0  0  0  0  0
   59.1709   24.9677   47.0410 H   0  0  0  0  0  0  0  0  0  0  0  0
   57.2530   25.7750   46.4610 C   0  0  0  0  0  0  0  0  0  0  0  0
   56.7332   24.8149   46.5952 H   0  0  0  0  0  0  0  0  0  0  0  0
   56.5550   26.8630   46.0360 N   0  0  0  0  0  0  0  0  0  0  0  0
   55.1870   26.7270   45.9960 O   0  0  0  0  0  0  0  0  0  0  0  0
   57.1800   28.0710   45.7940 C   0  0  0  0  0  0  0  0  0  0  0  0
  1  2  1  0
  2  3  2  0
  3  4  1  0
  4  5  1  0
  5  6  1  0
  5  7  2  0
  7  8  1  0
  8  9  1  0
  8 10  1  0
  8 11  1  0
 11 12  1  0
 11 13  1  0
 11 14  1  0
 14 15  1  0
 14 16  1  0
 14 17  1  0
 17 18  1  0
 18 19  1  0
 18 20  1  0
 18 21  1  0
 17 22  1  0
 22 23  1  0
 22 24  1  0
 22 25  1  0
  7 26  1  0
 26 27  2  0
 27 28  1  0
 27 29  1  0
 29 30  1  0
 29 31  2  0
 31 32  1  0
 31 33  1  0
 33 34  1  0
 33 35  2  0
 35  3  1  0
 35 26  1  0
M  CHG  4   4  -1   8   1  33   1  34  -1
M  END
>  <UniqueID>  (12) 
12

>  <SMILES>  (12) 
[H]/N=c1/[n-]cc([NH2+]CCN(C)C)c2ccc[n+]([O-])c12

>  <Energy>  (12) 
56.197710618466175

>  <Genealogy>  (12) 
CN(C)CC[NH2+]c1c[n-]c(=N)c2c1ccc[n+]2[O-] (protonated)
[H]/N=c1/[n-]cc([NH2+]CCN(C)C)c2ccc[n+]([O-])c12 (cis-trans isomerization)
[H]/N=c1/[n-]cc([NH2+]CCN(C)C)c2ccc[n+]([O-])c12 (3D coordinates assigned)
[H]/N=c1/[n-]cc([NH2+]CCN(C)C)c2ccc[n+]([O-])c12 (optimized conformer: 56.197710618466175 kcal/mol)

>  <smiles>  (12) 
CN(C)CCNc1c[nH]c(=N)c2c1ccc[n+]2[O-]

>  <score_type>  (12) 
oracle

>  <origin>  (12) 
adg

>  <m_score__min__energy>  (12) 
-7.7000000000000002

>  <m_primary>  (12) 
energy

$$$$
12:0
     RDKit          3D

 46 48  0  0  0  0  0  0  0  0999 V2000
   55.4206   24.5176   47.1022 H   0  0  0  0  0  0  0  0  0  0  0  0
   56.2700   25.1570   46.8200 C   0  0  0  0  0  0  0  0  0  0  0  0
   56.0460   26.3500   46.2070 N   0  0  0  0  0  0  0  0  0  0  0  0
   57.0680   27.1680   45.8350 C   0  0  0  0  0  0  0  0  0  0  0  0
   58.4020   26.7630   46.0480 C   0  0  0  0  0  0  0  0  0  0  0  0
   58.6490   25.5380   46.6870 C   0  0  0  0  0  0  0  0  0  0  0  0
   59.6827   25.2080   46.8672 H   0  0  0  0  0  0  0  0  0  0  0  0
   57.5780   24.7400   47.0930 C   0  0  0  0  0  0  0  0  0  0  0  0
   57.7601   23.7930   47.6221 H   0  0  0  0  0  0  0  0  0  0  0  0
   59.4490   27.5660   45.5870 C   0  0  0  0  0  0  0  0  0  0  0  0
   60.4866   27.2098   45.6676 H   0  0  0  0  0  0  0  0  0  0  0  0
   59.1870   28.8190   45.0240 C   0  0  0  0  0  0  0  0  0  0  0  0
   60.0168   29.4254   44.6319 H   0  0  0  0  0  0  0  0  0  0  0  0
   57.8680   29.3110   44.9550 C   0  0  0  0  0  0  0  0  0  0  0  0
   57.5400   30.6100   44.4730 C   0  0  0  0  0  0  0  0  0  0  0  0
   58.3170   31.6620   44.5460 N   0  0  0  0  0  0  0  0  0  0  0  0
   58.0360   33.0800   44.3110 C   0  0  0  0  0  0  0  0  0  0  0  0
   56.9659   33.2116   44.0929 H   0  0  0  0  0  0  0  0  0  0  0  0
   58.6282   33.4369   43.4555 H   0  0  0  0  0  0  0  0  0  0  0  0
   58.4070   33.8840   45.5660 C   0  0  0  0  0  0  0  0  0  0  0  0
   57.8879   33.4490   46.4328 H   0  0  0  0  0  0  0  0  0  0  0  0
   58.1025   34.9283   45.4029 H   0  0  0  0  0  0  0  0  0  0  0  0
   59.9260   33.8670   45.8350 C   0  0  0  0  0  0  0  0  0  0  0  0
   60.3212   34.8893   45.7418 H   0  0  0  0  0  0  0  0  0  0  0  0
   60.4089   33.2044   45.1017 H   0  0  0  0  0  0  0  0  0  0  0  0
   60.2080   33.3580   47.1980 N   0  0  0  0  0  0  0  0  0  0  0  0
   61.4260   32.5150   47.2190 C   0  0  0  0  0  0  0  0  0  0  0  0
   61.3609   31.7721   46.4103 H   0  0  0  0  0  0  0  0  0  0  0  0
   61.4876   32.0205   48.1997 H   0  0  0  0  0  0  0  0  0  0  0  0
   62.6910   33.3550   47.0230 C   0  0  0  0  0  0  0  0  0  0  0  0
   63.1045   33.6296   48.0046 H   0  0  0  0  0  0  0  0  0  0  0  0
   63.4355   32.7712   46.4618 H   0  0  0  0  0  0  0  0  0  0  0  0
   62.4418   34.2677   46.4618 H   0  0  0  0  0  0  0  0  0  0  0  0
   59.0300   32.6700   47.7860 C   0  0  0  0  0  0  0  0  0  0  0  0
   58.9236   32.9633   48.8408 H   0  0  0  0  0  0  0  0  0  0  0  0
   58.1248   32.9569   47.2307 H   0  0  0  0  0  0  0  0  0  0  0  0
   59.2220   31.1570   47.6960 C   0  0  0  0  0  0  0  0  0  0  0  0
   59.2758   30.7333   48.7097 H   0  0  0  0  0  0  0  0  0  0  0  0
   58.3732   30.7111   47.1568 H   0  0  0  0  0  0  0  0  0  0  0  0
   60.1552   30.9373   47.1568 H   0  0  0  0  0  0  0  0  0  0  0  0
   56.2350   30.8400   44.0220 C   0  0  0  0  0  0  0  0  0  0  0  0
   55.9969   31.7718   43.4881 H   0  0  0  0  0  0  0  0  0  0  0  0
   55.2350   29.8940   44.2460 C   0  0  0  0  0  0  0  0  0  0  0  0
   54.2065   30.0919   43.9098 H   0  0  0  0  0  0  0  0  0  0  0  0
   55.5290   28.7300   44.8780 N   0  0  0  0  0  0  0  0  0  0  0  0
   56.8050   28.4090   45.2340 C   0  0  0  0  0  0  0  0  0  0  0  0
  1  2  1  0
  2  3  2  0
  3  4  1  0
  4  5  2  0
  5  6  1  0
  6  7  1  0
  6  8  2  0
  8  9  1  0
  5 10  1  0
 10 11  1  0
 10 12  2  0
 12 13  1  0
 12 14  1  0
 14 15  1  0
 15 16  2  0
 16 17  1  0
 17 18  1  0
 17 19  1  0
 17 20  1  0
 20 21  1  0
 20 22  1  0
 20 23  1  0
 23 24  1  0
 23 25  1  0
 23 26  1  0
 26 27  1  0
 27 28  1  0
 27 29  1  0
 27 30  1  0
 30 31  1  0
 30 32  1  0
 30 33  1  0
 26 34  1  0
 34 35  1  0
 34 36  1  0
 34 37  1  0
 37 38  1  0
 37 39  1  0
 37 40  1  0
 15 41  1  0
 41 42  1  0
 41 43  2  0
 43 44  1  0
 43 45  1  0
 45 46  1  0
  8  2  1  0
 46 14  2  0
 46  4  1  0
M  CHG  1  45  -1
M  END
>  <UniqueID>  (13) 
13

>  <SMILES>  (13) 
CCN(CC)CCC/N=c1/cc[n-]c2c1ccc1cccnc12

>  <Energy>  (13) 
70.50247150443089

>  <Genealogy>  (13) 
CCN(CC)CCCN=c1cc[n-]c2c1ccc1cccnc12 (protonated)
CCN(CC)CCC/N=c1/cc[n-]c2c1ccc1cccnc12 (cis-trans isomerization)
CCN(CC)CCC/N=c1/cc[n-]c2c1ccc1cccnc12 (3D coordinates assigned)
CCN(CC)CCC/N=c1/cc[n-]c2c1ccc1cccnc12 (optimized conformer: 70.50247150443089 kcal/mol)

>  <smiles>  (13) 
CCN(CC)CCCN=c1cc[nH]c2c1ccc1cccnc12

>  <score_type>  (13) 
oracle

>  <origin>  (13) 
adg

>  <m_score__min__energy>  (13) 
-9.7599999999999998

>  <m_primary>  (13) 
energy

$$$$
13:0
     RDKit          3D

 55 58  0  0  0  0  0  0  0  0999 V2000
   60.3830   26.7560   47.1700 C   0  0  0  0  0  0  0  0  0  0  0  0
   59.5060   27.5990   46.2910 C   0  0  0  0  0  0  0  0  0  0  0  0
   58.9860   27.0760   45.0970 C   0  0  0  0  0  0  0  0  0  0  0  0
   58.1380   27.8510   44.2990 C   0  0  0  0  0  0  0  0  0  0  0  0
   57.7970   29.1520   44.6900 C   0  0  0  0  0  0  0  0  0  0  0  0
   56.7070   30.1130   43.6950 S   0  0  0  0  0  0  0  0  0  0  0  0
   56.2830   29.3210   42.4900 O   0  0  0  0  0  0  0  0  0  0  0  0
   55.4840   30.4740   44.4930 O   0  0  0  0  0  0  0  0  0  0  0  0
   57.5520   31.5950   43.1780 C   0  0  0  0  0  0  0  0  0  0  0  0
   57.7660   32.5000   44.3480 C   0  0  0  0  0  0  0  0  0  0  0  0
   56.8050   32.8800   45.2600 C   0  0  0  0  0  0  0  0  0  0  0  0
   57.4530   33.6860   46.1700 C   0  0  0  0  0  0  0  0  0  0  0  0
   58.7770   33.7430   45.7580 C   0  0  0  0  0  0  0  0  0  0  0  0
   59.9010   34.4790   46.3860 C   0  0  0  0  0  0  0  0  0  0  0  0
   60.0610   35.6880   46.0580 O   0  0  0  0  0  0  0  0  0  0  0  0
   60.8240   33.8810   47.3330 N   0  0  0  0  0  0  0  0  0  0  0  0
   62.2010   33.7660   46.7710 C   0  0  0  0  0  0  0  0  0  0  0  0
   63.3070   33.9910   47.8160 C   0  0  0  0  0  0  0  0  0  0  0  0
   62.9030   33.4290   49.1090 N   0  0  0  0  0  0  0  0  0  0  0  0
   63.7440   32.4890   49.8070 C   0  0  0  0  0  0  0  0  0  0  0  0
   63.1780   31.3990   50.4930 C   0  0  0  0  0  0  0  0  0  0  0  0
   63.9940   30.4940   51.1810 C   0  0  0  0  0  0  0  0  0  0  0  0
   65.3790   30.6710   51.1940 C   0  0  0  0  0  0  0  0  0  0  0  0
   65.9520   31.7540   50.5230 C   0  0  0  0  0  0  0  0  0  0  0  0
   65.1400   32.6620   49.8350 C   0  0  0  0  0  0  0  0  0  0  0  0
   61.6090   33.8190   49.6830 C   0  0  0  0  0  0  0  0  0  0  0  0
   60.7510   34.5620   48.6460 C   0  0  0  0  0  0  0  0  0  0  0  0
   58.9250   33.0240   44.6690 O   0  0  0  0  0  0  0  0  0  0  0  0
   58.2960   29.6670   45.8940 C   0  0  0  0  0  0  0  0  0  0  0  0
   59.1440   28.8940   46.6920 C   0  0  0  0  0  0  0  0  0  0  0  0
   60.1594   26.9710   48.2253 H   0  0  0  0  0  0  0  0  0  0  0  0
   60.1938   25.6921   46.9644 H   0  0  0  0  0  0  0  0  0  0  0  0
   61.4386   26.9871   46.9644 H   0  0  0  0  0  0  0  0  0  0  0  0
   59.2462   26.0530   44.7876 H   0  0  0  0  0  0  0  0  0  0  0  0
   57.7377   27.4375   43.3616 H   0  0  0  0  0  0  0  0  0  0  0  0
   58.5261   31.3255   42.7437 H   0  0  0  0  0  0  0  0  0  0  0  0
   56.9385   32.1157   42.4280 H   0  0  0  0  0  0  0  0  0  0  0  0
   55.7417   32.5983   45.2610 H   0  0  0  0  0  0  0  0  0  0  0  0
   57.0107   34.1836   47.0457 H   0  0  0  0  0  0  0  0  0  0  0  0
   60.4900   32.9010   47.5040 H   0  0  0  0  0  0  0  0  0  0  0  0
   62.3216   32.7583   46.3468 H   0  0  0  0  0  0  0  0  0  0  0  0
   62.3082   34.5526   46.0096 H   0  0  0  0  0  0  0  0  0  0  0  0
   64.2313   33.4991   47.4787 H   0  0  0  0  0  0  0  0  0  0  0  0
   63.4777   35.0715   47.9315 H   0  0  0  0  0  0  0  0  0  0  0  0
   62.0872   31.2572   50.4886 H   0  0  0  0  0  0  0  0  0  0  0  0
   63.5439   29.6423   51.7121 H   0  0  0  0  0  0  0  0  0  0  0  0
   66.0193   29.9572   51.7330 H   0  0  0  0  0  0  0  0  0  0  0  0
   67.0431   31.8930   50.5356 H   0  0  0  0  0  0  0  0  0  0  0  0
   65.5957   33.5162   49.3128 H   0  0  0  0  0  0  0  0  0  0  0  0
   61.0742   32.9160   50.0125 H   0  0  0  0  0  0  0  0  0  0  0  0
   61.7904   34.4903   50.5353 H   0  0  0  0  0  0  0  0  0  0  0  0
   59.7054   34.5807   48.9871 H   0  0  0  0  0  0  0  0  0  0  0  0
   61.1313   35.5884   48.5374 H   0  0  0  0  0  0  0  0  0  0  0  0
   58.0194   30.6830   46.2121 H   0  0  0  0  0  0  0  0  0  0  0  0
   59.5291   29.3024   47.6380 H   0  0  0  0  0  0  0  0  0  0  0  0
  1  2  1  0
  2  3  2  0
  3  4  1  0
  4  5  2  0
  5  6  1  0
  6  7  2  0
  6  8  2  0
  6  9  1  0
  9 10  1  0
 10 11  2  0
 11 12  1  0
 12 13  2  0
 13 14  1  0
 14 15  2  0
 14 16  1  0
 16 17  1  0
 17 18  1  0
 18 19  1  0
 19 20  1  0
 20 21  2  0
 21 22  1  0
 22 23  2  0
 23 24  1  0
 24 25  2  0
 19 26  1  0
 26 27  1  0
 13 28  1  0
  5 29  1  0
 29 30  2  0
 30  2  1  0
 28 10  1  0
 27 16  1  0
 25 20  1  0
  1 31  1  0
  1 32  1  0
  1 33  1  0
  3 34  1  0
  4 35  1  0
  9 36  1  0
  9 37  1  0
 11 38  1  0
 12 39  1  0
 16 40  1  0
 17 41  1  0
 17 42  1  0
 18 43  1  0
 18 44  1  0
 21 45  1  0
 22 46  1  0
 23 47  1  0
 24 48  1  0
 25 49  1  0
 26 50  1  0
 26 51  1  0
 27 52  1  0
 27 53  1  0
 29 54  1  0
 30 55  1  0
M  CHG  1  16   1
M  END
>  <UniqueID>  (14) 
14

>  <SMILES>  (14) 
Cc1ccc(S(=O)(=O)Cc2ccc(C(=O)[NH+]3CCN(c4ccccc4)CC3)o2)cc1

>  <Energy>  (14) 
93.62289326078425

>  <Genealogy>  (14) 
Cc1ccc(S(=O)(=O)Cc2ccc(C(=O)[NH+]3CCN(c4ccccc4)CC3)o2)cc1 (protonated)
Cc1ccc(S(=O)(=O)Cc2ccc(C(=O)[NH+]3CCN(c4ccccc4)CC3)o2)cc1 (3D coordinates assigned)
Cc1ccc(S(=O)(=O)Cc2ccc(C(=O)[NH+]3CCN(c4ccccc4)CC3)o2)cc1 (nonaromatic ring conformer: 93.62289326078425 kcal/mol)

>  <smiles>  (14) 
Cc1ccc(S(=O)(=O)Cc2ccc(C(=O)N3CCN(c4ccccc4)CC3)o2)cc1

>  <score_type>  (14) 
oracle

>  <origin>  (14) 
adg

>  <m_score__min__energy>  (14) 
-8.4000000000000004

>  <m_primary>  (14) 
energy

$$$$
14:0
     RDKit          3D

 67 70  0  0  0  0  0  0  0  0999 V2000
   55.9150   28.6410   44.8910 F   0  0  0  0  0  0  0  0  0  0  0  0
   57.1080   28.9660   45.4480 C   0  0  0  0  0  0  0  0  0  0  0  0
   57.7150   28.0940   46.3570 C   0  0  0  0  0  0  0  0  0  0  0  0
   58.9440   28.4270   46.9330 C   0  0  0  0  0  0  0  0  0  0  0  0
   59.5790   29.6340   46.5960 C   0  0  0  0  0  0  0  0  0  0  0  0
   60.8660   30.0230   47.2630 C   0  0  0  0  0  0  0  0  0  0  0  0
   60.7750   29.7110   48.6490 O   0  0  0  0  0  0  0  0  0  0  0  0
   60.0690   30.4640   49.5990 C   0  0  0  0  0  0  0  0  0  0  0  0
   58.9000   31.1730   49.2580 C   0  0  0  0  0  0  0  0  0  0  0  0
   58.2320   31.9360   50.2180 C   0  0  0  0  0  0  0  0  0  0  0  0
   58.7210   32.0050   51.5220 C   0  0  0  0  0  0  0  0  0  0  0  0
   59.8750   31.3050   51.8740 C   0  0  0  0  0  0  0  0  0  0  0  0
   60.5490   30.5160   50.9260 C   0  0  0  0  0  0  0  0  0  0  0  0
   61.8150   29.8030   51.3290 C   0  0  0  0  0  0  0  0  0  0  0  0
   62.9130   30.2170   50.4420 N   0  0  0  0  0  0  0  0  0  0  0  0
   63.4510   31.5480   50.7750 C   0  0  0  0  0  0  0  0  0  0  0  0
   63.1780   32.5510   49.6400 C   0  0  2  0  0  0  0  0  0  0  0  0
   61.7940   33.2170   49.7800 C   0  0  0  0  0  0  0  0  0  0  0  0
   61.5430   34.1790   48.6060 C   0  0  0  0  0  0  0  0  0  0  0  0
   61.6590   33.4660   47.3170 N   0  0  1  0  0  0  0  0  0  0  0  0
   61.1270   34.2020   46.1340 C   0  0  0  0  0  0  0  0  0  0  0  0
   59.5990   34.5190   46.0010 C   0  0  0  0  0  0  0  0  0  0  0  0
   58.9170   33.9970   44.7170 C   0  0  0  0  0  0  0  0  0  0  0  0
   57.3910   34.1120   44.8620 C   0  0  0  0  0  0  0  0  0  0  0  0
   56.8460   33.3430   45.9300 O   0  0  0  0  0  0  0  0  0  0  0  0
   57.7240   33.1550   47.0350 C   0  0  0  0  0  0  0  0  0  0  0  0
   58.7200   34.3070   47.2520 C   0  0  0  0  0  0  0  0  0  0  0  0
   63.0180   32.9060   47.1420 C   0  0  0  0  0  0  0  0  0  0  0  0
   63.3290   31.8900   48.2530 C   0  0  0  0  0  0  0  0  0  0  0  0
   58.9560   30.5130   45.6970 C   0  0  0  0  0  0  0  0  0  0  0  0
   57.7280   30.1760   45.1200 C   0  0  0  0  0  0  0  0  0  0  0  0
   57.2246   27.1448   46.6190 H   0  0  0  0  0  0  0  0  0  0  0  0
   59.4157   27.7417   47.6526 H   0  0  0  0  0  0  0  0  0  0  0  0
   61.6999   29.4650   46.8121 H   0  0  0  0  0  0  0  0  0  0  0  0
   61.0446   31.1005   47.1326 H   0  0  0  0  0  0  0  0  0  0  0  0
   58.5115   31.1252   48.2300 H   0  0  0  0  0  0  0  0  0  0  0  0
   57.3180   32.4838   49.9449 H   0  0  0  0  0  0  0  0  0  0  0  0
   58.1960   32.6123   52.2741 H   0  0  0  0  0  0  0  0  0  0  0  0
   60.2608   31.3710   52.9020 H   0  0  0  0  0  0  0  0  0  0  0  0
   62.0661   30.0605   52.3685 H   0  0  0  0  0  0  0  0  0  0  0  0
   61.6664   28.7162   51.2468 H   0  0  0  0  0  0  0  0  0  0  0  0
   62.5550   30.2470   49.4580 H   0  0  0  0  0  0  0  0  0  0  0  0
   62.9728   31.9092   51.6974 H   0  0  0  0  0  0  0  0  0  0  0  0
   64.5388   31.4624   50.9140 H   0  0  0  0  0  0  0  0  0  0  0  0
   63.9375   33.3421   49.7257 H   0  0  0  0  0  0  0  0  0  0  0  0
   61.0160   32.4394   49.7847 H   0  0  0  0  0  0  0  0  0  0  0  0
   61.7642   33.7857   50.7211 H   0  0  0  0  0  0  0  0  0  0  0  0
   60.5318   34.6026   48.6953 H   0  0  0  0  0  0  0  0  0  0  0  0
   62.2951   34.9811   48.6371 H   0  0  0  0  0  0  0  0  0  0  0  0
   61.0190   32.6360   47.3890 H   0  0  0  0  0  0  0  0  0  0  0  0
   61.6505   35.1690   46.1060 H   0  0  0  0  0  0  0  0  0  0  0  0
   61.2993   33.4931   45.3107 H   0  0  0  0  0  0  0  0  0  0  0  0
   59.6560   35.6126   45.8974 H   0  0  0  0  0  0  0  0  0  0  0  0
   59.2494   34.5959   43.8563 H   0  0  0  0  0  0  0  0  0  0  0  0
   59.1912   32.9434   44.5595 H   0  0  0  0  0  0  0  0  0  0  0  0
   57.1396   35.1689   45.0347 H   0  0  0  0  0  0  0  0  0  0  0  0
   56.9547   33.7162   43.9330 H   0  0  0  0  0  0  0  0  0  0  0  0
   57.1153   33.0492   47.9451 H   0  0  0  0  0  0  0  0  0  0  0  0
   58.3213   32.2579   46.8151 H   0  0  0  0  0  0  0  0  0  0  0  0
   58.1614   35.2314   47.4604 H   0  0  0  0  0  0  0  0  0  0  0  0
   59.3722   34.0523   48.1004 H   0  0  0  0  0  0  0  0  0  0  0  0
   63.0797   32.4043   46.1650 H   0  0  0  0  0  0  0  0  0  0  0  0
   63.7499   33.7255   47.1944 H   0  0  0  0  0  0  0  0  0  0  0  0
   62.6310   31.0433   48.1764 H   0  0  0  0  0  0  0  0  0  0  0  0
   64.3640   31.5364   48.1355 H   0  0  0  0  0  0  0  0  0  0  0  0
   59.4355   31.4705   45.4454 H   0  0  0  0  0  0  0  0  0  0  0  0
   57.2489   30.8633   44.4072 H   0  0  0  0  0  0  0  0  0  0  0  0
  1  2  1  0
  2  3  2  0
  3  4  1  0
  4  5  2  0
  5  6  1  0
  6  7  1  0
  7  8  1  0
  8  9  2  0
  9 10  1  0
 10 11  2  0
 11 12  1  0
 12 13  2  0
 13 14  1  0
 14 15  1  0
 15 16  1  0
 16 17  1  0
 17 18  1  0
 18 19  1  0
 19 20  1  0
 20 21  1  0
 21 22  1  0
 22 23  1  0
 23 24  1  0
 24 25  1  0
 25 26  1  0
 26 27  1  0
 20 28  1  0
 28 29  1  0
  5 30  1  0
 30 31  2  0
 31  2  1  0
 13  8  1  0
 29 17  1  0
 27 22  1  0
  3 32  1  0
  4 33  1  0
  6 34  1  0
  6 35  1  0
  9 36  1  0
 10 37  1  0
 11 38  1  0
 12 39  1  0
 14 40  1  0
 14 41  1  0
 15 42  1  0
 16 43  1  0
 16 44  1  0
 17 45  1  6
 18 46  1  0
 18 47  1  0
 19 48  1  0
 19 49  1  0
 20 50  1  1
 21 51  1  0
 21 52  1  0
 22 53  1  0
 23 54  1  0
 23 55  1  0
 24 56  1  0
 24 57  1  0
 26 58  1  0
 26 59  1  0
 27 60  1  0
 27 61  1  0
 28 62  1  0
 28 63  1  0
 29 64  1  0
 29 65  1  0
 30 66  1  0
 31 67  1  0
M  CHG  1  20   1
M  END
>  <UniqueID>  (15) 
15

>  <SMILES>  (15) 
Fc1ccc(COc2ccccc2CNCC2CC[NH+](CC3CCOCC3)CC2)cc1

>  <Energy>  (15) 
89.59587392218769

>  <Genealogy>  (15) 
Fc1ccc(COc2ccccc2CNCC2CC[NH+](CC3CCOCC3)CC2)cc1 (protonated)
Fc1ccc(COc2ccccc2CNCC2CC[NH+](CC3CCOCC3)CC2)cc1 (3D coordinates assigned)
Fc1ccc(COc2ccccc2CNCC2CC[NH+](CC3CCOCC3)CC2)cc1 (nonaromatic ring conformer: 89.59587392218769 kcal/mol)

>  <smiles>  (15) 
Fc1ccc(COc2ccccc2CNCC2CCN(CC3CCOCC3)CC2)cc1

>  <score_type>  (15) 
oracle

>  <origin>  (15) 
adg

>  <m_score__min__energy>  (15) 
-7.29

>  <m_primary>  (15) 
energy

$$$$
15:0
     RDKit          3D

 52 56  0  0  0  0  0  0  0  0999 V2000
   66.7110   32.5420   50.1340 C   0  0  0  0  0  0  0  0  0  0  0  0
   65.3420   33.1490   50.2310 C   0  0  0  0  0  0  0  0  0  0  0  0
   64.4100   32.7670   49.2850 C   0  0  0  0  0  0  0  0  0  0  0  0
   63.1360   33.3100   49.3470 C   0  0  0  0  0  0  0  0  0  0  0  0
   62.1700   32.8900   48.3360 C   0  0  0  0  0  0  0  0  0  0  0  0
   62.5480   32.0630   47.4680 O   0  0  0  0  0  0  0  0  0  0  0  0
   60.8440   33.3640   48.2820 N   0  0  0  0  0  0  0  0  0  0  0  0
   59.9870   32.8880   47.2500 C   0  0  0  0  0  0  0  0  0  0  0  0
   59.3360   33.8430   46.4600 C   0  0  0  0  0  0  0  0  0  0  0  0
   58.4890   33.4880   45.4430 C   0  0  0  0  0  0  0  0  0  0  0  0
   58.2850   32.1230   45.2080 C   0  0  0  0  0  0  0  0  0  0  0  0
   58.9280   31.1660   45.9880 C   0  0  0  0  0  0  0  0  0  0  0  0
   58.6560   29.7580   45.6740 C   0  0  0  0  0  0  0  0  0  0  0  0
   59.0030   28.7660   46.5500 C   0  0  0  0  0  0  0  0  0  0  0  0
   58.7670   27.4160   46.2980 C   0  0  0  0  0  0  0  0  0  0  0  0
   58.1600   27.0820   45.1200 C   0  0  0  0  0  0  0  0  0  0  0  0
   57.8600   25.6870   44.7470 C   0  0  0  0  0  0  0  0  0  0  0  0
   58.3090   24.6160   45.4230 N   0  0  0  0  0  0  0  0  0  0  0  0
   57.8620   23.4960   44.8280 C   0  0  0  0  0  0  0  0  0  0  0  0
   58.0070   22.1300   45.0830 C   0  0  0  0  0  0  0  0  0  0  0  0
   57.3980   21.1970   44.2510 C   0  0  0  0  0  0  0  0  0  0  0  0
   56.6420   21.5770   43.1610 C   0  0  0  0  0  0  0  0  0  0  0  0
   56.5130   22.9370   42.9290 C   0  0  0  0  0  0  0  0  0  0  0  0
   57.1070   23.8840   43.7390 C   0  0  0  0  0  0  0  0  0  0  0  0
   57.1210   25.2470   43.7110 N   0  0  0  0  0  0  0  0  0  0  0  0
   57.8030   28.0710   44.2260 C   0  0  0  0  0  0  0  0  0  0  0  0
   58.0440   29.4020   44.4890 C   0  0  0  0  0  0  0  0  0  0  0  0
   59.7810   31.5360   47.0130 C   0  0  0  0  0  0  0  0  0  0  0  0
   62.8150   34.2150   50.3390 C   0  0  0  0  0  0  0  0  0  0  0  0
   63.7550   34.5900   51.2780 C   0  0  0  0  0  0  0  0  0  0  0  0
   65.0400   34.0630   51.2410 C   0  0  0  0  0  0  0  0  0  0  0  0
   66.3430   34.5660   52.5220 Br  0  0  0  0  0  0  0  0  0  0  0  0
   67.1068   32.3665   51.1452 H   0  0  0  0  0  0  0  0  0  0  0  0
   66.6508   31.5862   49.5928 H   0  0  0  0  0  0  0  0  0  0  0  0
   67.3789   33.2283   49.5928 H   0  0  0  0  0  0  0  0  0  0  0  0
   64.6740   32.0457   48.4976 H   0  0  0  0  0  0  0  0  0  0  0  0
   60.4990   34.0500   48.9860 H   0  0  0  0  0  0  0  0  0  0  0  0
   59.5096   34.9103   46.6617 H   0  0  0  0  0  0  0  0  0  0  0  0
   57.9856   34.2509   44.8310 H   0  0  0  0  0  0  0  0  0  0  0  0
   57.6106   31.8039   44.3997 H   0  0  0  0  0  0  0  0  0  0  0  0
   59.4901   29.0467   47.4955 H   0  0  0  0  0  0  0  0  0  0  0  0
   59.0600   26.6436   47.0243 H   0  0  0  0  0  0  0  0  0  0  0  0
   58.6037   21.7921   45.9431 H   0  0  0  0  0  0  0  0  0  0  0  0
   57.5224   20.1258   44.4679 H   0  0  0  0  0  0  0  0  0  0  0  0
   56.1635   20.8340   42.5060 H   0  0  0  0  0  0  0  0  0  0  0  0
   55.9160   23.2740   42.0688 H   0  0  0  0  0  0  0  0  0  0  0  0
   56.6420   25.8470   43.0070 H   0  0  0  0  0  0  0  0  0  0  0  0
   57.3146   27.7901   43.2813 H   0  0  0  0  0  0  0  0  0  0  0  0
   57.7515   30.1735   43.7615 H   0  0  0  0  0  0  0  0  0  0  0  0
   60.2850   30.7749   47.6268 H   0  0  0  0  0  0  0  0  0  0  0  0
   61.8017   34.6409   50.3816 H   0  0  0  0  0  0  0  0  0  0  0  0
   63.4843   35.3123   52.0622 H   0  0  0  0  0  0  0  0  0  0  0  0
  1  2  1  0
  2  3  2  0
  3  4  1  0
  4  5  1  0
  5  6  2  0
  5  7  1  0
  7  8  1  0
  8  9  2  0
  9 10  1  0
 10 11  2  0
 11 12  1  0
 12 13  1  0
 13 14  2  0
 14 15  1  0
 15 16  2  0
 16 17  1  0
 17 18  2  0
 18 19  1  0
 19 20  2  0
 20 21  1  0
 21 22  2  0
 22 23  1  0
 23 24  2  0
 24 25  1  0
 16 26  1  0
 26 27  2  0
 12 28  2  0
  4 29  2  0
 29 30  1  0
 30 31  2  0
 31 32  1  0
 31  2  1  0
 28  8  1  0
 27 13  1  0
 25 17  1  0
 24 19  1  0
  1 33  1  0
  1 34  1  0
  1 35  1  0
  3 36  1  0
  7 37  1  0
  9 38  1  0
 10 39  1  0
 11 40  1  0
 14 41  1  0
 15 42  1  0
 20 43  1  0
 21 44  1  0
 22 45  1  0
 23 46  1  0
 25 47  1  0
 26 48  1  0
 27 49  1  0
 28 50  1  0
 29 51  1  0
 30 52  1  0
M  END
>  <smiles>  (16) 
Cc1cc(C(=O)Nc2cccc(-c3ccc(-c4nc5ccccc5[nH]4)cc3)c2)ccc1Br

>  <score_type>  (16) 
oracle

>  <origin>  (16) 
adg

>  <m_score__min__energy>  (16) 
-9.6699999999999999

>  <m_primary>  (16) 
energy

$$$$
16:0
     RDKit          3D

 60 64  0  0  0  0  0  0  0  0999 V2000
   53.8440   20.9870   50.6910 C   0  0  0  0  0  0  0  0  0  0  0  0
   54.8000   20.6390   49.6940 O   0  0  0  0  0  0  0  0  0  0  0  0
   55.0820   21.4100   48.5550 C   0  0  0  0  0  0  0  0  0  0  0  0
   54.0890   21.7440   47.6150 C   0  0  0  0  0  0  0  0  0  0  0  0
   54.4040   22.5160   46.4940 C   0  0  0  0  0  0  0  0  0  0  0  0
   53.4280   22.8450   45.6060 N   0  0  0  0  0  0  0  0  0  0  0  0
   53.6820   23.6090   44.5120 C   0  0  0  0  0  0  0  0  0  0  0  0
   54.9740   24.0760   44.2670 C   0  0  0  0  0  0  0  0  0  0  0  0
   56.0110   23.7430   45.1430 C   0  0  0  0  0  0  0  0  0  0  0  0
   57.2970   24.2210   44.8600 O   0  0  0  0  0  0  0  0  0  0  0  0
   57.7060   25.5560   45.0030 C   0  0  0  0  0  0  0  0  0  0  0  0
   58.0740   26.0990   46.2480 C   0  0  0  0  0  0  0  0  0  0  0  0
   58.4790   27.4340   46.3430 C   0  0  0  0  0  0  0  0  0  0  0  0
   58.5230   28.2470   45.1970 C   0  0  0  0  0  0  0  0  0  0  0  0
   58.9810   29.6090   45.2590 N   0  0  0  0  0  0  0  0  0  0  0  0
   58.1100   30.7540   45.2790 C   0  0  0  0  0  0  0  0  0  0  0  0
   56.9230   30.6460   44.8720 O   0  0  0  0  0  0  0  0  0  0  0  0
   58.6150   32.0680   45.7490 C   0  0  0  0  0  0  0  0  0  0  0  0
   57.9380   33.2420   45.3840 C   0  0  0  0  0  0  0  0  0  0  0  0
   58.3960   34.4790   45.8220 C   0  0  0  0  0  0  0  0  0  0  0  0
   59.5470   34.5480   46.6030 C   0  0  0  0  0  0  0  0  0  0  0  0
   60.2310   33.4160   46.9430 N   0  0  0  0  0  0  0  0  0  0  0  0
   61.4380   33.5450   47.7220 C   0  0  0  0  0  0  0  0  0  0  0  0
   61.3900   34.0630   49.0280 C   0  0  0  0  0  0  0  0  0  0  0  0
   62.5580   34.1650   49.7900 C   0  0  0  0  0  0  0  0  0  0  0  0
   63.7810   33.7470   49.2570 C   0  0  0  0  0  0  0  0  0  0  0  0
   64.9120   33.8450   49.9990 F   0  0  0  0  0  0  0  0  0  0  0  0
   63.8390   33.2320   47.9580 C   0  0  0  0  0  0  0  0  0  0  0  0
   62.6720   33.1280   47.1940 C   0  0  0  0  0  0  0  0  0  0  0  0
   59.7780   32.1790   46.5470 C   0  0  0  0  0  0  0  0  0  0  0  0
   60.3870   31.1350   46.9160 O   0  0  0  0  0  0  0  0  0  0  0  0
   58.1820   27.6940   43.9550 C   0  0  0  0  0  0  0  0  0  0  0  0
   57.7710   26.3610   43.8600 C   0  0  0  0  0  0  0  0  0  0  0  0
   57.4360   25.8480   42.6490 F   0  0  0  0  0  0  0  0  0  0  0  0
   55.7290   22.9660   46.2900 C   0  0  0  0  0  0  0  0  0  0  0  0
   56.7140   22.6490   47.2430 C   0  0  0  0  0  0  0  0  0  0  0  0
   56.3980   21.8600   48.3660 C   0  0  0  0  0  0  0  0  0  0  0  0
   57.3650   21.5020   49.3190 O   0  0  0  0  0  0  0  0  0  0  0  0
   57.3220   21.8730   50.6950 C   0  0  0  0  0  0  0  0  0  0  0  0
   54.2800   20.8283   51.6883 H   0  0  0  0  0  0  0  0  0  0  0  0
   53.5641   22.0447   50.5773 H   0  0  0  0  0  0  0  0  0  0  0  0
   52.9496   20.3568   50.5773 H   0  0  0  0  0  0  0  0  0  0  0  0
   53.0568   21.3944   47.7642 H   0  0  0  0  0  0  0  0  0  0  0  0
   52.8670   23.8603   43.8173 H   0  0  0  0  0  0  0  0  0  0  0  0
   55.1757   24.7044   43.3870 H   0  0  0  0  0  0  0  0  0  0  0  0
   58.0429   25.4706   47.1503 H   0  0  0  0  0  0  0  0  0  0  0  0
   58.7648   27.8505   47.3202 H   0  0  0  0  0  0  0  0  0  0  0  0
   60.0110   29.7820   45.2050 H   0  0  0  0  0  0  0  0  0  0  0  0
   57.0417   33.1829   44.7490 H   0  0  0  0  0  0  0  0  0  0  0  0
   57.8531   35.3972   45.5536 H   0  0  0  0  0  0  0  0  0  0  0  0
   59.9097   35.5267   46.9504 H   0  0  0  0  0  0  0  0  0  0  0  0
   60.4292   34.3896   49.4524 H   0  0  0  0  0  0  0  0  0  0  0  0
   62.5145   34.5746   50.8100 H   0  0  0  0  0  0  0  0  0  0  0  0
   64.8025   32.9087   47.5371 H   0  0  0  0  0  0  0  0  0  0  0  0
   62.7203   32.7177   46.1745 H   0  0  0  0  0  0  0  0  0  0  0  0
   58.2382   28.3137   43.0479 H   0  0  0  0  0  0  0  0  0  0  0  0
   57.7406   23.0208   47.1098 H   0  0  0  0  0  0  0  0  0  0  0  0
   57.4262   20.9742   51.3205 H   0  0  0  0  0  0  0  0  0  0  0  0
   58.1455   22.5689   50.9130 H   0  0  0  0  0  0  0  0  0  0  0  0
   56.3611   22.3621   50.9130 H   0  0  0  0  0  0  0  0  0  0  0  0
  1  2  1  0
  2  3  1  0
  3  4  2  0
  4  5  1  0
  5  6  2  0
  6  7  1  0
  7  8  2  0
  8  9  1  0
  9 10  1  0
 10 11  1  0
 11 12  2  0
 12 13  1  0
 13 14  2  0
 14 15  1  0
 15 16  1  0
 16 17  2  0
 16 18  1  0
 18 19  2  0
 19 20  1  0
 20 21  2  0
 21 22  1  0
 22 23  1  0
 23 24  2  0
 24 25  1  0
 25 26  2  0
 26 27  1  0
 26 28  1  0
 28 29  2  0
 22 30  1  0
 30 31  2  0
 14 32  1  0
 32 33  2  0
 33 34  1  0
  9 35  2  0
 35 36  1  0
 36 37  2  0
 37 38  1  0
 38 39  1  0
 37  3  1  0
 35  5  1  0
 33 11  1  0
 30 18  1  0
 29 23  1  0
  1 40  1  0
  1 41  1  0
  1 42  1  0
  4 43  1  0
  7 44  1  0
  8 45  1  0
 12 46  1  0
 13 47  1  0
 15 48  1  0
 19 49  1  0
 20 50  1  0
 21 51  1  0
 24 52  1  0
 25 53  1  0
 28 54  1  0
 29 55  1  0
 32 56  1  0
 36 57  1  0
 39 58  1  0
 39 59  1  0
 39 60  1  0
M  END
>  <UniqueID>  (17) 
16

>  <SMILES>  (17) 
COc1cc2nccc(Oc3ccc(NC(=O)c4cccn(-c5ccc(F)cc5)c4=O)cc3F)c2cc1OC

>  <Energy>  (17) 
94.43029199873213

>  <Genealogy>  (17) 
COc1cc2nccc(Oc3ccc(NC(=O)c4cccn(-c5ccc(F)cc5)c4=O)cc3F)c2cc1OC (3D coordinates assigned)
COc1cc2nccc(Oc3ccc(NC(=O)c4cccn(-c5ccc(F)cc5)c4=O)cc3F)c2cc1OC (optimized conformer: 94.43029199873213 kcal/mol)

>  <smiles>  (17) 
COc1cc2nccc(Oc3ccc(NC(=O)c4cccn(-c5ccc(F)cc5)c4=O)cc3F)c2cc1OC

>  <score_type>  (17) 
oracle

>  <origin>  (17) 
adg

>  <m_score__min__energy>  (17) 
-8.4499999999999993

>  <m_primary>  (17) 
energy

$$$$
17:0
     RDKit          3D

 60 63  0  0  0  0  0  0  0  0999 V2000
   61.1360   27.2250   50.7290 C   0  0  0  0  0  0  0  0  0  0  0  0
   60.3710   28.3930   51.2900 C   0  0  0  0  0  0  0  0  0  0  0  0
   60.2710   28.5430   52.6820 C   0  0  0  0  0  0  0  0  0  0  0  0
   59.5710   29.6170   53.2290 C   0  0  0  0  0  0  0  0  0  0  0  0
   58.9730   30.5630   52.3960 C   0  0  0  0  0  0  0  0  0  0  0  0
   59.0860   30.4550   51.0010 C   0  0  0  0  0  0  0  0  0  0  0  0
   58.4100   31.4770   50.1280 C   0  0  0  0  0  0  0  0  0  0  0  0
   59.7860   29.3610   50.4410 C   0  0  0  0  0  0  0  0  0  0  0  0
   59.9000   29.2310   49.0160 N   0  0  0  0  0  0  0  0  0  0  0  0
   61.0650   29.7790   48.3200 C   0  0  0  0  0  0  0  0  0  0  0  0
   60.6280   30.3310   46.9620 C   0  0  0  0  0  0  0  0  0  0  0  0
   59.8990   29.3290   46.1390 N   0  0  0  0  0  0  0  0  0  0  0  0
   58.9390   29.8900   45.1540 C   0  0  1  0  0  0  0  0  0  0  0  0
   58.4060   28.8410   44.1400 C   0  0  0  0  0  0  0  0  0  0  0  0
   57.0320   29.2240   43.5610 C   0  0  0  0  0  0  0  0  0  0  0  0
   56.8590   30.7460   43.5130 C   0  0  0  0  0  0  0  0  0  0  0  0
   56.9030   31.3380   44.8720 N   0  0  0  0  0  0  0  0  0  0  0  0
   57.0370   32.8120   44.8760 C   0  0  0  0  0  0  0  0  0  0  0  0
   58.1280   33.3260   45.7940 C   0  0  0  0  0  0  0  0  0  0  0  0
   59.3550   33.7630   45.2640 C   0  0  0  0  0  0  0  0  0  0  0  0
   60.3660   34.2280   46.1100 C   0  0  0  0  0  0  0  0  0  0  0  0
   60.1580   34.2760   47.4900 C   0  0  0  0  0  0  0  0  0  0  0  0
   61.1400   34.7270   48.3090 F   0  0  0  0  0  0  0  0  0  0  0  0
   58.9340   33.8690   48.0260 C   0  0  0  0  0  0  0  0  0  0  0  0
   57.9200   33.4050   47.1830 C   0  0  0  0  0  0  0  0  0  0  0  0
   57.7740   30.6340   45.8460 C   0  0  0  0  0  0  0  0  0  0  0  0
   59.3910   28.1340   46.8570 C   0  0  0  0  0  0  0  0  0  0  0  0
   58.9050   28.4470   48.2790 C   0  0  0  0  0  0  0  0  0  0  0  0
   61.5343   26.6169   51.5546 H   0  0  0  0  0  0  0  0  0  0  0  0
   60.4652   26.6100   50.1111 H   0  0  0  0  0  0  0  0  0  0  0  0
   61.9678   27.5942   50.1111 H   0  0  0  0  0  0  0  0  0  0  0  0
   60.7486   27.8075   53.3461 H   0  0  0  0  0  0  0  0  0  0  0  0
   59.4898   29.7191   54.3212 H   0  0  0  0  0  0  0  0  0  0  0  0
   58.4092   31.3991   52.8353 H   0  0  0  0  0  0  0  0  0  0  0  0
   57.9133   32.2280   50.7599 H   0  0  0  0  0  0  0  0  0  0  0  0
   59.1603   31.9706   49.4929 H   0  0  0  0  0  0  0  0  0  0  0  0
   57.6621   30.9796   49.4929 H   0  0  0  0  0  0  0  0  0  0  0  0
   61.5054   30.5881   48.9212 H   0  0  0  0  0  0  0  0  0  0  0  0
   61.8132   28.9862   48.1725 H   0  0  0  0  0  0  0  0  0  0  0  0
   59.9680   31.1948   47.1298 H   0  0  0  0  0  0  0  0  0  0  0  0
   61.5375   30.6127   46.4112 H   0  0  0  0  0  0  0  0  0  0  0  0
   59.5153   30.6213   44.5682 H   0  0  0  0  0  0  0  0  0  0  0  0
   59.1253   28.7535   43.3124 H   0  0  0  0  0  0  0  0  0  0  0  0
   58.2881   27.8881   44.6767 H   0  0  0  0  0  0  0  0  0  0  0  0
   56.9465   28.8203   42.5413 H   0  0  0  0  0  0  0  0  0  0  0  0
   56.2496   28.8035   44.2099 H   0  0  0  0  0  0  0  0  0  0  0  0
   57.6685   31.1794   42.9073 H   0  0  0  0  0  0  0  0  0  0  0  0
   55.8775   30.9694   43.0694 H   0  0  0  0  0  0  0  0  0  0  0  0
   57.2623   33.1423   43.8512 H   0  0  0  0  0  0  0  0  0  0  0  0
   56.0860   33.2185   45.2507 H   0  0  0  0  0  0  0  0  0  0  0  0
   59.5203   33.7388   44.1768 H   0  0  0  0  0  0  0  0  0  0  0  0
   61.3271   34.5567   45.6879 H   0  0  0  0  0  0  0  0  0  0  0  0
   58.7678   33.9136   49.1125 H   0  0  0  0  0  0  0  0  0  0  0  0
   56.9528   33.0996   47.6087 H   0  0  0  0  0  0  0  0  0  0  0  0
   58.1912   31.3722   46.5467 H   0  0  0  0  0  0  0  0  0  0  0  0
   57.1600   29.8873   46.3709 H   0  0  0  0  0  0  0  0  0  0  0  0
   58.5513   27.7126   46.2849 H   0  0  0  0  0  0  0  0  0  0  0  0
   60.2269   27.4244   46.9449 H   0  0  0  0  0  0  0  0  0  0  0  0
   57.9678   29.0199   48.2204 H   0  0  0  0  0  0  0  0  0  0  0  0
   58.7450   27.4973   48.8105 H   0  0  0  0  0  0  0  0  0  0  0  0
  1  2  1  0
  2  3  2  0
  3  4  1  0
  4  5  2  0
  5  6  1  0
  6  7  1  0
  6  8  2  0
  8  9  1  0
  9 10  1  0
 10 11  1  0
 11 12  1  0
 12 13  1  0
 13 14  1  0
 14 15  1  0
 15 16  1  0
 16 17  1  0
 17 18  1  0
 18 19  1  0
 19 20  2  0
 20 21  1  0
 21 22  2  0
 22 23  1  0
 22 24  1  0
 24 25  2  0
 17 26  1  0
 12 27  1  0
 27 28  1  0
  8  2  1  0
 28  9  1  0
 26 13  1  0
 25 19  1  0
  1 29  1  0
  1 30  1  0
  1 31  1  0
  3 32  1  0
  4 33  1  0
  5 34  1  0
  7 35  1  0
  7 36  1  0
  7 37  1  0
 10 38  1  0
 10 39  1  0
 11 40  1  0
 11 41  1  0
 13 42  1  6
 14 43  1  0
 14 44  1  0
 15 45  1  0
 15 46  1  0
 16 47  1  0
 16 48  1  0
 18 49  1  0
 18 50  1  0
 20 51  1  0
 21 52  1  0
 24 53  1  0
 25 54  1  0
 26 55  1  0
 26 56  1  0
 27 57  1  0
 27 58  1  0
 28 59  1  0
 28 60  1  0
M  END
>  <UniqueID>  (18) 
17

>  <SMILES>  (18) 
Cc1cccc(C)c1N1CCN([C@H]2CCCN(Cc3ccc(F)cc3)C2)CC1

>  <Energy>  (18) 
88.27828894133833

>  <Genealogy>  (18) 
Cc1cccc(C)c1N1CCN([C@H]2CCCN(Cc3ccc(F)cc3)C2)CC1 (chirality)
Cc1cccc(C)c1N1CCN([C@H]2CCCN(Cc3ccc(F)cc3)C2)CC1 (3D coordinates assigned)
Cc1cccc(C)c1N1CCN([C@H]2CCCN(Cc3ccc(F)cc3)C2)CC1 (nonaromatic ring conformer: 88.27828894133833 kcal/mol)

>  <smiles>  (18) 
Cc1cccc(C)c1N1CCN(C2CCCN(Cc3ccc(F)cc3)C2)CC1

>  <score_type>  (18) 
oracle

>  <origin>  (18) 
adg

>  <m_score__min__energy>  (18) 
-8.4399999999999995

>  <m_primary>  (18) 
energy

$$$$
18:0
     RDKit          3D

 54 57  0  0  0  0  0  0  0  0999 V2000
   68.1910   30.1230   52.4850 C   0  0  0  0  0  0  0  0  0  0  0  0
   67.1340   30.7860   51.6550 C   0  0  0  0  0  0  0  0  0  0  0  0
   65.8150   30.3060   51.6740 C   0  0  0  0  0  0  0  0  0  0  0  0
   64.8200   30.9460   50.9300 C   0  0  0  0  0  0  0  0  0  0  0  0
   65.1260   32.0840   50.1650 C   0  0  0  0  0  0  0  0  0  0  0  0
   64.0810   32.7620   49.3740 C   0  0  0  0  0  0  0  0  0  0  0  0
   62.9840   33.3380   49.9170 N   0  0  0  0  0  0  0  0  0  0  0  0
   62.3130   33.8090   48.8490 C   0  0  0  0  0  0  0  0  0  0  0  0
   60.9920   34.5350   48.9360 C   0  0  0  0  0  0  0  0  0  0  0  0
   59.8140   33.6520   48.7450 N   0  0  0  0  0  0  0  0  0  0  0  0
   60.1540   32.2000   48.8520 C   0  0  0  0  0  0  0  0  0  0  0  0
   60.0340   31.4380   47.5220 C   0  0  0  0  0  0  0  0  0  0  0  0
   58.7200   31.6730   46.9190 N   0  0  0  0  0  0  0  0  0  0  0  0
   58.1160   30.6580   46.1050 C   0  0  0  0  0  0  0  0  0  0  0  0
   57.9090   29.5170   46.6000 O   0  0  0  0  0  0  0  0  0  0  0  0
   57.7570   30.9210   44.6920 C   0  0  0  0  0  0  0  0  0  0  0  0
   56.9360   30.0250   43.9820 C   0  0  0  0  0  0  0  0  0  0  0  0
   56.5910   30.2840   42.6520 C   0  0  0  0  0  0  0  0  0  0  0  0
   57.0540   31.4400   42.0210 C   0  0  0  0  0  0  0  0  0  0  0  0
   57.8590   32.3430   42.7190 C   0  0  0  0  0  0  0  0  0  0  0  0
   58.2070   32.0900   44.0500 C   0  0  0  0  0  0  0  0  0  0  0  0
   58.0250   32.9420   47.1570 C   0  0  0  0  0  0  0  0  0  0  0  0
   59.0420   34.0220   47.5300 C   0  0  0  0  0  0  0  0  0  0  0  0
   63.0280   33.5120   47.7050 C   0  0  0  0  0  0  0  0  0  0  0  0
   62.6830   33.8640   46.2950 C   0  0  0  0  0  0  0  0  0  0  0  0
   64.1090   32.8670   48.0630 O   0  0  0  0  0  0  0  0  0  0  0  0
   66.4430   32.5740   50.1610 C   0  0  0  0  0  0  0  0  0  0  0  0
   67.4370   31.9330   50.9070 C   0  0  0  0  0  0  0  0  0  0  0  0
   67.9630   30.2660   53.5516 H   0  0  0  0  0  0  0  0  0  0  0  0
   68.2157   29.0473   52.2563 H   0  0  0  0  0  0  0  0  0  0  0  0
   69.1702   30.5690   52.2563 H   0  0  0  0  0  0  0  0  0  0  0  0
   65.5633   29.4215   52.2776 H   0  0  0  0  0  0  0  0  0  0  0  0
   63.7914   30.5565   50.9434 H   0  0  0  0  0  0  0  0  0  0  0  0
   60.9177   35.0039   49.9283 H   0  0  0  0  0  0  0  0  0  0  0  0
   60.9762   35.2740   48.1214 H   0  0  0  0  0  0  0  0  0  0  0  0
   59.1820   33.8630   49.5550 H   0  0  0  0  0  0  0  0  0  0  0  0
   61.1900   32.1114   49.2109 H   0  0  0  0  0  0  0  0  0  0  0  0
   59.4295   31.7503   49.5469 H   0  0  0  0  0  0  0  0  0  0  0  0
   60.8173   31.7858   46.8324 H   0  0  0  0  0  0  0  0  0  0  0  0
   60.1525   30.3614   47.7142 H   0  0  0  0  0  0  0  0  0  0  0  0
   56.5636   29.1156   44.4763 H   0  0  0  0  0  0  0  0  0  0  0  0
   55.9538   29.5758   42.1020 H   0  0  0  0  0  0  0  0  0  0  0  0
   56.7846   31.6398   40.9734 H   0  0  0  0  0  0  0  0  0  0  0  0
   58.2201   33.2550   42.2211 H   0  0  0  0  0  0  0  0  0  0  0  0
   58.8353   32.8080   44.5975 H   0  0  0  0  0  0  0  0  0  0  0  0
   57.4896   33.2429   46.2444 H   0  0  0  0  0  0  0  0  0  0  0  0
   57.3069   32.8163   47.9808 H   0  0  0  0  0  0  0  0  0  0  0  0
   59.7406   34.1590   46.6914 H   0  0  0  0  0  0  0  0  0  0  0  0
   58.4937   34.9519   47.7413 H   0  0  0  0  0  0  0  0  0  0  0  0
   61.9130   34.6496   46.2911 H   0  0  0  0  0  0  0  0  0  0  0  0
   63.5824   34.2295   45.7778 H   0  0  0  0  0  0  0  0  0  0  0  0
   62.2995   32.9721   45.7778 H   0  0  0  0  0  0  0  0  0  0  0  0
   66.6933   33.4661   49.5682 H   0  0  0  0  0  0  0  0  0  0  0  0
   68.4626   32.3307   50.9072 H   0  0  0  0  0  0  0  0  0  0  0  0
  1  2  1  0
  2  3  2  0
  3  4  1  0
  4  5  2  0
  5  6  1  0
  6  7  2  0
  7  8  1  0
  8  9  1  0
  9 10  1  0
 10 11  1  0
 11 12  1  0
 12 13  1  0
 13 14  1  0
 14 15  2  0
 14 16  1  0
 16 17  2  0
 17 18  1  0
 18 19  2  0
 19 20  1  0
 20 21  2  0
 13 22  1  0
 22 23  1  0
  8 24  2  0
 24 25  1  0
 24 26  1  0
  5 27  1  0
 27 28  2  0
 28  2  1  0
 26  6  1  0
 23 10  1  0
 21 16  1  0
  1 29  1  0
  1 30  1  0
  1 31  1  0
  3 32  1  0
  4 33  1  0
  9 34  1  0
  9 35  1  0
 10 36  1  0
 11 37  1  0
 11 38  1  0
 12 39  1  0
 12 40  1  0
 17 41  1  0
 18 42  1  0
 19 43  1  0
 20 44  1  0
 21 45  1  0
 22 46  1  0
 22 47  1  0
 23 48  1  0
 23 49  1  0
 25 50  1  0
 25 51  1  0
 25 52  1  0
 27 53  1  0
 28 54  1  0
M  CHG  1  10   1
M  END
>  <UniqueID>  (19) 
18

>  <SMILES>  (19) 
Cc1ccc(-c2nc(C[NH+]3CCN(C(=O)c4ccccc4)CC3)c(C)o2)cc1

>  <Energy>  (19) 
99.26482384571923

>  <Genealogy>  (19) 
Cc1ccc(-c2nc(C[NH+]3CCN(C(=O)c4ccccc4)CC3)c(C)o2)cc1 (protonated)
Cc1ccc(-c2nc(C[NH+]3CCN(C(=O)c4ccccc4)CC3)c(C)o2)cc1 (3D coordinates assigned)
Cc1ccc(-c2nc(C[NH+]3CCN(C(=O)c4ccccc4)CC3)c(C)o2)cc1 (nonaromatic ring conformer: 99.26482384571923 kcal/mol)

>  <smiles>  (19) 
Cc1ccc(-c2nc(CN3CCN(C(=O)c4ccccc4)CC3)c(C)o2)cc1

>  <score_type>  (19) 
oracle

>  <origin>  (19) 
adg

>  <m_score__min__energy>  (19) 
-6.6200000000000001

>  <m_primary>  (19) 
energy

$$$$
19:0
     RDKit          3D

 67 69  0  0  0  0  0  0  0  0999 V2000
   63.3050   33.5220   46.7570 C   0  0  0  0  0  0  0  0  0  0  0  0
   62.0570   32.7330   47.1570 C   0  0  0  0  0  0  0  0  0  0  0  0
   62.2930   31.2180   47.1270 C   0  0  0  0  0  0  0  0  0  0  0  0
   61.0990   30.4840   47.5650 N   0  0  0  0  0  0  0  0  0  0  0  0
   60.2940   29.6620   46.8280 C   0  0  0  0  0  0  0  0  0  0  0  0
   60.5100   29.3260   45.3740 C   0  0  0  0  0  0  0  0  0  0  0  0
   59.1910   28.9740   44.6740 C   0  0  0  0  0  0  0  0  0  0  0  0
   58.0660   29.5560   45.3950 N   0  0  0  0  0  0  0  0  0  0  0  0
   57.5410   30.8580   45.1220 C   0  0  0  0  0  0  0  0  0  0  0  0
   56.4300   30.9850   44.5310 O   0  0  0  0  0  0  0  0  0  0  0  0
   58.3460   32.0720   45.4940 C   0  0  0  0  0  0  0  0  0  0  0  0
   58.2670   33.1420   44.3770 C   0  0  0  0  0  0  0  0  0  0  0  0
   58.5680   34.5730   44.8760 C   0  0  0  0  0  0  0  0  0  0  0  0
   59.4650   34.5710   46.1190 C   0  0  0  0  0  0  0  0  0  0  0  0
   58.8070   33.8210   47.2930 C   0  0  0  0  0  0  0  0  0  0  0  0
   57.8990   32.6520   46.8490 C   0  0  0  0  0  0  0  0  0  0  0  0
   59.2150   29.2320   47.5300 N   0  0  0  0  0  0  0  0  0  0  0  0
   59.3570   29.7910   48.7420 C   0  0  0  0  0  0  0  0  0  0  0  0
   58.5130   29.6750   49.8420 C   0  0  0  0  0  0  0  0  0  0  0  0
   58.8640   30.3720   51.0160 C   0  0  0  0  0  0  0  0  0  0  0  0
   57.8590   30.2010   52.4470 S   0  0  0  0  0  0  0  0  0  0  0  0
   57.0800   28.9190   52.3700 O   0  0  0  0  0  0  0  0  0  0  0  0
   58.7550   30.1490   53.6530 O   0  0  0  0  0  0  0  0  0  0  0  0
   56.7720   31.5720   52.5540 N   0  0  0  0  0  0  0  0  0  0  0  0
   57.3680   32.8040   51.9950 C   0  0  0  0  0  0  0  0  0  0  0  0
   58.3690   33.3940   52.9820 C   0  0  0  0  0  0  0  0  0  0  0  0
   55.4330   31.2670   52.0060 C   0  0  0  0  0  0  0  0  0  0  0  0
   54.5480   30.4330   52.9410 C   0  0  0  0  0  0  0  0  0  0  0  0
   60.0380   31.1650   51.0460 C   0  0  0  0  0  0  0  0  0  0  0  0
   60.8630   31.2660   49.9110 C   0  0  0  0  0  0  0  0  0  0  0  0
   60.4910   30.5510   48.7690 C   0  0  0  0  0  0  0  0  0  0  0  0
   63.8334   33.8560   47.6621 H   0  0  0  0  0  0  0  0  0  0  0  0
   63.9695   32.8795   46.1606 H   0  0  0  0  0  0  0  0  0  0  0  0
   63.0096   34.3978   46.1606 H   0  0  0  0  0  0  0  0  0  0  0  0
   61.7649   33.0256   48.1764 H   0  0  0  0  0  0  0  0  0  0  0  0
   61.2644   32.9650   46.4304 H   0  0  0  0  0  0  0  0  0  0  0  0
   62.5436   30.9145   46.0998 H   0  0  0  0  0  0  0  0  0  0  0  0
   63.1182   30.9812   47.8147 H   0  0  0  0  0  0  0  0  0  0  0  0
   60.9611   30.1936   44.8703 H   0  0  0  0  0  0  0  0  0  0  0  0
   61.1737   28.4506   45.3180 H   0  0  0  0  0  0  0  0  0  0  0  0
   59.2080   29.3691   43.6476 H   0  0  0  0  0  0  0  0  0  0  0  0
   59.0766   27.8801   44.6542 H   0  0  0  0  0  0  0  0  0  0  0  0
   59.3957   31.7608   45.6004 H   0  0  0  0  0  0  0  0  0  0  0  0
   58.9968   32.8846   43.5952 H   0  0  0  0  0  0  0  0  0  0  0  0
   57.2343   33.1406   43.9983 H   0  0  0  0  0  0  0  0  0  0  0  0
   59.0742   35.1297   44.0736 H   0  0  0  0  0  0  0  0  0  0  0  0
   57.6127   35.0462   45.1472 H   0  0  0  0  0  0  0  0  0  0  0  0
   60.4175   34.0799   45.8709 H   0  0  0  0  0  0  0  0  0  0  0  0
   59.6288   35.6144   46.4263 H   0  0  0  0  0  0  0  0  0  0  0  0
   59.6021   33.4183   47.9378 H   0  0  0  0  0  0  0  0  0  0  0  0
   58.1673   34.5443   47.8199 H   0  0  0  0  0  0  0  0  0  0  0  0
   57.9416   31.8579   47.6090 H   0  0  0  0  0  0  0  0  0  0  0  0
   56.8736   33.0346   46.7388 H   0  0  0  0  0  0  0  0  0  0  0  0
   58.4320   28.6220   47.2030 H   0  0  0  0  0  0  0  0  0  0  0  0
   57.6022   29.0599   49.7971 H   0  0  0  0  0  0  0  0  0  0  0  0
   57.8833   32.5644   51.0532 H   0  0  0  0  0  0  0  0  0  0  0  0
   56.5703   33.5380   51.8079 H   0  0  0  0  0  0  0  0  0  0  0  0
   58.0313   33.1950   54.0098 H   0  0  0  0  0  0  0  0  0  0  0  0
   59.3550   32.9326   52.8242 H   0  0  0  0  0  0  0  0  0  0  0  0
   58.4429   34.4801   52.8242 H   0  0  0  0  0  0  0  0  0  0  0  0
   54.9190   32.2177   51.8010 H   0  0  0  0  0  0  0  0  0  0  0  0
   55.5914   30.6650   51.0990 H   0  0  0  0  0  0  0  0  0  0  0  0
   54.7965   30.6672   53.9867 H   0  0  0  0  0  0  0  0  0  0  0  0
   53.4905   30.6705   52.7534 H   0  0  0  0  0  0  0  0  0  0  0  0
   54.7224   29.3632   52.7534 H   0  0  0  0  0  0  0  0  0  0  0  0
   60.3067   31.7065   51.9650 H   0  0  0  0  0  0  0  0  0  0  0  0
   61.7708   31.8871   49.9219 H   0  0  0  0  0  0  0  0  0  0  0  0
  1  2  1  0
  2  3  1  0
  3  4  1  0
  4  5  1  0
  5  6  1  0
  6  7  1  0
  7  8  1  0
  8  9  1  0
  9 10  2  0
  9 11  1  0
 11 12  1  0
 12 13  1  0
 13 14  1  0
 14 15  1  0
 15 16  1  0
  5 17  2  0
 17 18  1  0
 18 19  2  0
 19 20  1  0
 20 21  1  0
 21 22  2  0
 21 23  2  0
 21 24  1  0
 24 25  1  0
 25 26  1  0
 24 27  1  0
 27 28  1  0
 20 29  2  0
 29 30  1  0
 30 31  2  0
 31  4  1  0
 16 11  1  0
 31 18  1  0
  1 32  1  0
  1 33  1  0
  1 34  1  0
  2 35  1  0
  2 36  1  0
  3 37  1  0
  3 38  1  0
  6 39  1  0
  6 40  1  0
  7 41  1  0
  7 42  1  0
 11 43  1  0
 12 44  1  0
 12 45  1  0
 13 46  1  0
 13 47  1  0
 14 48  1  0
 14 49  1  0
 15 50  1  0
 15 51  1  0
 16 52  1  0
 16 53  1  0
 17 54  1  0
 19 55  1  0
 25 56  1  0
 25 57  1  0
 26 58  1  0
 26 59  1  0
 26 60  1  0
 27 61  1  0
 27 62  1  0
 28 63  1  0
 28 64  1  0
 28 65  1  0
 29 66  1  0
 30 67  1  0
M  CHG  2   8  -1  17   1
M  END
>  <UniqueID>  (20) 
19

>  <SMILES>  (20) 
CCCn1c(CC[N-]C(=O)C2CCCCC2)[nH+]c2cc(S(=O)(=O)N(CC)CC)ccc21

>  <Energy>  (20) 
97.19178890223273

>  <Genealogy>  (20) 
CCCn1c(CC[N-]C(=O)C2CCCCC2)[nH+]c2cc(S(=O)(=O)N(CC)CC)ccc21 (protonated)
CCCn1c(CC[N-]C(=O)C2CCCCC2)[nH+]c2cc(S(=O)(=O)N(CC)CC)ccc21 (3D coordinates assigned)
CCCn1c(CC[N-]C(=O)C2CCCCC2)[nH+]c2cc(S(=O)(=O)N(CC)CC)ccc21 (nonaromatic ring conformer: 97.19178890223273 kcal/mol)

>  <smiles>  (20) 
CCCn1c(CCNC(=O)C2CCCCC2)nc2cc(S(=O)(=O)N(CC)CC)ccc21

>  <score_type>  (20) 
oracle

>  <origin>  (20) 
adg

>  <m_score__min__energy>  (20) 
-10.16

>  <m_primary>  (20) 
energy

$$$$
20:0
     RDKit          3D

 37 37  0  0  0  0  0  0  0  0999 V2000
   64.9010   32.7890   49.6340 C   0  0  0  0  0  0  0  0  0  0  0  0
   63.7900   33.4510   48.8090 C   0  0  0  0  0  0  0  0  0  0  0  0
   63.5910   32.8760   47.4520 N   0  0  0  0  0  0  0  0  0  0  0  0
   62.9270   31.5450   47.4970 C   0  0  0  0  0  0  0  0  0  0  0  0
   61.9030   31.4390   48.6320 C   0  0  0  0  0  0  0  0  0  0  0  0
   62.9900   33.8420   46.4930 C   0  0  0  0  0  0  0  0  0  0  0  0
   61.5610   34.1100   46.7400 C   0  0  0  0  0  0  0  0  0  0  0  0
   60.3990   34.3430   46.9530 C   0  0  0  0  0  0  0  0  0  0  0  0
   58.9870   34.6180   47.2390 C   0  0  0  0  0  0  0  0  0  0  0  0
   58.1320   33.9790   46.2220 N   0  0  0  0  0  0  0  0  0  0  0  0
   58.0890   32.5180   46.3550 C   0  0  0  0  0  0  0  0  0  0  0  0
   57.7870   31.9610   44.9730 C   0  0  0  0  0  0  0  0  0  0  0  0
   58.1360   33.0790   44.0030 C   0  0  0  0  0  0  0  0  0  0  0  0
   58.6330   34.2250   44.8680 C   0  0  0  0  0  0  0  0  0  0  0  0
   64.6874   32.9163   50.7055 H   0  0  0  0  0  0  0  0  0  0  0  0
   64.9464   31.7165   49.3940 H   0  0  0  0  0  0  0  0  0  0  0  0
   65.8659   33.2596   49.3940 H   0  0  0  0  0  0  0  0  0  0  0  0
   62.8459   33.3507   49.3645 H   0  0  0  0  0  0  0  0  0  0  0  0
   64.0979   34.4963   48.6592 H   0  0  0  0  0  0  0  0  0  0  0  0
   64.5630   32.7010   47.1000 H   0  0  0  0  0  0  0  0  0  0  0  0
   62.4120   31.3750   46.5400 H   0  0  0  0  0  0  0  0  0  0  0  0
   63.7053   30.7888   47.6769 H   0  0  0  0  0  0  0  0  0  0  0  0
   62.4221   31.4927   49.6003 H   0  0  0  0  0  0  0  0  0  0  0  0
   61.1834   32.2675   48.5552 H   0  0  0  0  0  0  0  0  0  0  0  0
   61.3684   30.4807   48.5552 H   0  0  0  0  0  0  0  0  0  0  0  0
   63.5395   34.7921   46.5666 H   0  0  0  0  0  0  0  0  0  0  0  0
   63.0646   33.3909   45.4925 H   0  0  0  0  0  0  0  0  0  0  0  0
   58.7321   34.2189   48.2319 H   0  0  0  0  0  0  0  0  0  0  0  0
   58.8200   35.7051   47.2193 H   0  0  0  0  0  0  0  0  0  0  0  0
   59.0590   32.1413   46.7117 H   0  0  0  0  0  0  0  0  0  0  0  0
   57.3227   32.2097   47.0814 H   0  0  0  0  0  0  0  0  0  0  0  0
   58.4029   31.0717   44.7733 H   0  0  0  0  0  0  0  0  0  0  0  0
   56.7364   31.6493   44.8777 H   0  0  0  0  0  0  0  0  0  0  0  0
   58.9231   32.7528   43.3073 H   0  0  0  0  0  0  0  0  0  0  0  0
   57.2706   33.3742   43.3914 H   0  0  0  0  0  0  0  0  0  0  0  0
   59.7327   34.2495   44.8694 H   0  0  0  0  0  0  0  0  0  0  0  0
   58.2775   35.1928   44.4846 H   0  0  0  0  0  0  0  0  0  0  0  0
  1  2  1  0
  2  3  1  0
  3  4  1  0
  4  5  1  0
  3  6  1  0
  6  7  1  0
  7  8  3  0
  8  9  1  0
  9 10  1  0
 10 11  1  0
 11 12  1  0
 12 13  1  0
 13 14  1  0
 14 10  1  0
  1 15  1  0
  1 16  1  0
  1 17  1  0
  2 18  1  0
  2 19  1  0
  3 20  1  0
  4 21  1  0
  4 22  1  0
  5 23  1  0
  5 24  1  0
  5 25  1  0
  6 26  1  0
  6 27  1  0
  9 28  1  0
  9 29  1  0
 11 30  1  0
 11 31  1  0
 12 32  1  0
 12 33  1  0
 13 34  1  0
 13 35  1  0
 14 36  1  0
 14 37  1  0
M  CHG  1   3   1
M  END
>  <UniqueID>  (21) 
20

>  <SMILES>  (21) 
CC[NH+](CC)CC#CCN1CCCC1

>  <Energy>  (21) 
34.54296229562478

>  <Genealogy>  (21) 
CC[NH+](CC)CC#CCN1CCCC1 (protonated)
CC[NH+](CC)CC#CCN1CCCC1 (3D coordinates assigned)
CC[NH+](CC)CC#CCN1CCCC1 (nonaromatic ring conformer: 34.54296229562478 kcal/mol)

>  <smiles>  (21) 
CCN(CC)CC#CCN1CCCC1

>  <score_type>  (21) 
oracle

>  <origin>  (21) 
adg

>  <m_score__min__energy>  (21) 
-3.4100000000000001

>  <m_primary>  (21) 
energy

$$$$
21:0
     RDKit          3D

 33 34  0  0  0  0  0  0  0  0999 V2000
   56.9420   27.0910   46.0010 C   0  0  0  0  0  0  0  0  0  0  0  0
   57.4860   28.4210   45.7360 N   0  0  0  0  0  0  0  0  0  0  0  0
   56.7480   29.5030   45.1800 C   0  0  0  0  0  0  0  0  0  0  0  0
   55.5270   29.4280   44.8730 O   0  0  0  0  0  0  0  0  0  0  0  0
   57.5250   30.6780   45.0220 N   0  0  0  0  0  0  0  0  0  0  0  0
   57.0090   32.0360   44.8650 C   0  0  0  0  0  0  0  0  0  0  0  0
   57.8790   33.0110   45.6110 C   0  0  0  0  0  0  0  0  0  0  0  0
   57.9440   32.9720   47.0150 C   0  0  0  0  0  0  0  0  0  0  0  0
   58.7870   33.8490   47.7050 C   0  0  0  0  0  0  0  0  0  0  0  0
   59.5750   34.7630   47.0000 C   0  0  0  0  0  0  0  0  0  0  0  0
   59.5230   34.8000   45.6050 C   0  0  0  0  0  0  0  0  0  0  0  0
   58.6820   33.9250   44.9110 C   0  0  0  0  0  0  0  0  0  0  0  0
   58.7990   30.3210   45.5480 C   0  0  0  0  0  0  0  0  0  0  0  0
   59.7640   31.1300   45.6240 O   0  0  0  0  0  0  0  0  0  0  0  0
   58.8520   28.8870   46.0130 C   0  0  0  0  0  0  0  0  0  0  0  0
   59.1540   28.8230   47.5170 C   0  0  0  0  0  0  0  0  0  0  0  0
   59.8770   28.0920   45.1920 C   0  0  0  0  0  0  0  0  0  0  0  0
   56.8767   26.9313   47.0874 H   0  0  0  0  0  0  0  0  0  0  0  0
   55.9386   27.0102   45.5576 H   0  0  0  0  0  0  0  0  0  0  0  0
   57.6012   26.3302   45.5576 H   0  0  0  0  0  0  0  0  0  0  0  0
   56.9998   32.3002   43.7972 H   0  0  0  0  0  0  0  0  0  0  0  0
   55.9879   32.0816   45.2715 H   0  0  0  0  0  0  0  0  0  0  0  0
   57.3299   32.2494   47.5724 H   0  0  0  0  0  0  0  0  0  0  0  0
   58.8299   33.8194   48.8038 H   0  0  0  0  0  0  0  0  0  0  0  0
   60.2363   35.4534   47.5441 H   0  0  0  0  0  0  0  0  0  0  0  0
   60.1448   35.5188   45.0513 H   0  0  0  0  0  0  0  0  0  0  0  0
   58.6494   33.9529   43.8118 H   0  0  0  0  0  0  0  0  0  0  0  0
   58.2323   29.0183   48.0847 H   0  0  0  0  0  0  0  0  0  0  0  0
   59.5368   27.8238   47.7719 H   0  0  0  0  0  0  0  0  0  0  0  0
   59.9092   29.5810   47.7719 H   0  0  0  0  0  0  0  0  0  0  0  0
   60.5601   27.5622   45.8722 H   0  0  0  0  0  0  0  0  0  0  0  0
   59.3522   27.3624   44.5577 H   0  0  0  0  0  0  0  0  0  0  0  0
   60.4531   28.7818   44.5577 H   0  0  0  0  0  0  0  0  0  0  0  0
  1  2  1  0
  2  3  1  0
  3  4  2  0
  3  5  1  0
  5  6  1  0
  6  7  1  0
  7  8  2  0
  8  9  1  0
  9 10  2  0
 10 11  1  0
 11 12  2  0
  5 13  1  0
 13 14  2  0
 13 15  1  0
 15 16  1  0
 15 17  1  0
 15  2  1  0
 12  7  1  0
  1 18  1  0
  1 19  1  0
  1 20  1  0
  6 21  1  0
  6 22  1  0
  8 23  1  0
  9 24  1  0
 10 25  1  0
 11 26  1  0
 12 27  1  0
 16 28  1  0
 16 29  1  0
 16 30  1  0
 17 31  1  0
 17 32  1  0
 17 33  1  0
M  END
>  <UniqueID>  (22) 
21

>  <SMILES>  (22) 
CN1C(=O)N(Cc2ccccc2)C(=O)C1(C)C

>  <Energy>  (22) 
43.90197926376418

>  <Genealogy>  (22) 
CN1C(=O)N(Cc2ccccc2)C(=O)C1(C)C (3D coordinates assigned)
CN1C(=O)N(Cc2ccccc2)C(=O)C1(C)C (nonaromatic ring conformer: 43.90197926376418 kcal/mol)

>  <smiles>  (22) 
CN1C(=O)N(Cc2ccccc2)C(=O)C1(C)C

>  <score_type>  (22) 
oracle

>  <origin>  (22) 
adg

>  <m_score__min__energy>  (22) 
-6.6600000000000001

>  <m_primary>  (22) 
energy

$$$$
22:0
     RDKit          3D

 30 32  0  0  0  0  0  0  0  0999 V2000
   57.2850   24.5100   47.4030 C   0  0  0  0  0  0  0  0  0  0  0  0
   58.2270   25.5680   47.5540 O   0  0  0  0  0  0  0  0  0  0  0  0
   58.1680   26.7850   46.8590 C   0  0  0  0  0  0  0  0  0  0  0  0
   59.1190   27.8050   47.0410 C   0  0  0  0  0  0  0  0  0  0  0  0
   59.0160   29.0020   46.3240 C   0  0  0  0  0  0  0  0  0  0  0  0
   57.9600   29.2010   45.4220 C   0  0  0  0  0  0  0  0  0  0  0  0
   57.8630   30.4310   44.6820 N   0  0  0  0  0  0  0  0  0  0  0  0
   57.8300   30.5190   43.3510 N   0  0  0  0  0  0  0  0  0  0  0  0
   57.7800   31.8270   42.9870 C   0  0  0  0  0  0  0  0  0  0  0  0
   57.8810   32.3380   41.5890 C   0  0  0  0  0  0  0  0  0  0  0  0
   57.8050   32.5640   44.1470 C   0  0  0  0  0  0  0  0  0  0  0  0
   57.9550   34.1390   44.6870 S   0  0  0  0  0  0  0  0  0  0  0  0
   58.0720   33.6470   46.3260 C   0  0  0  0  0  0  0  0  0  0  0  0
   58.0180   32.2470   46.4230 C   0  0  0  0  0  0  0  0  0  0  0  0
   57.8490   31.6910   45.1600 C   0  0  0  0  0  0  0  0  0  0  0  0
   57.0170   28.1780   45.2360 C   0  0  0  0  0  0  0  0  0  0  0  0
   57.1210   26.9820   45.9510 C   0  0  0  0  0  0  0  0  0  0  0  0
   56.9695   24.1556   48.3954 H   0  0  0  0  0  0  0  0  0  0  0  0
   56.4083   24.8760   46.8485 H   0  0  0  0  0  0  0  0  0  0  0  0
   57.7499   23.6815   46.8485 H   0  0  0  0  0  0  0  0  0  0  0  0
   59.9475   27.6611   47.7502 H   0  0  0  0  0  0  0  0  0  0  0  0
   59.7677   29.7920   46.4684 H   0  0  0  0  0  0  0  0  0  0  0  0
   57.8580   29.7050   42.6960 H   0  0  0  0  0  0  0  0  0  0  0  0
   58.0943   33.4170   41.6075 H   0  0  0  0  0  0  0  0  0  0  0  0
   58.6927   31.8127   41.0644 H   0  0  0  0  0  0  0  0  0  0  0  0
   56.9305   32.1611   41.0644 H   0  0  0  0  0  0  0  0  0  0  0  0
   58.1748   34.3317   47.1808 H   0  0  0  0  0  0  0  0  0  0  0  0
   58.0976   31.6752   47.3593 H   0  0  0  0  0  0  0  0  0  0  0  0
   56.1912   28.3187   44.5231 H   0  0  0  0  0  0  0  0  0  0  0  0
   56.3741   26.1889   45.7991 H   0  0  0  0  0  0  0  0  0  0  0  0
  1  2  1  0
  2  3  1  0
  3  4  2  0
  4  5  1  0
  5  6  2  0
  6  7  1  0
  7  8  1  0
  8  9  2  0
  9 10  1  0
  9 11  1  0
 11 12  1  0
 12 13  1  0
 13 14  2  0
 14 15  1  0
  6 16  1  0
 16 17  2  0
 17  3  1  0
 15  7  1  0
 15 11  2  0
  1 18  1  0
  1 19  1  0
  1 20  1  0
  4 21  1  0
  5 22  1  0
  8 23  1  0
 10 24  1  0
 10 25  1  0
 10 26  1  0
 13 27  1  0
 14 28  1  0
 16 29  1  0
 17 30  1  0
M  CHG  1   8   1
M  END
>  <UniqueID>  (23) 
22

>  <SMILES>  (23) 
COc1ccc(-n2[nH+]c(C)c3sccc32)cc1

>  <Energy>  (23) 
116.69183640625086

>  <Genealogy>  (23) 
COc1ccc(-n2[nH+]c(C)c3sccc32)cc1 (protonated)
COc1ccc(-n2[nH+]c(C)c3sccc32)cc1 (3D coordinates assigned)
COc1ccc(-n2[nH+]c(C)c3sccc32)cc1 (optimized conformer: 116.69183640625086 kcal/mol)

>  <smiles>  (23) 
COc1ccc(-n2nc(C)c3sccc32)cc1

>  <score_type>  (23) 
oracle

>  <origin>  (23) 
adg

>  <m_score__min__energy>  (23) 
-4.8899999999999997

>  <m_primary>  (23) 
energy

$$$$
23:0
     RDKit          3D

 35 36  0  0  0  0  0  0  0  0999 V2000
   58.3000   33.9020   45.6350 C   0  0  0  0  0  0  0  0  0  0  0  0
   58.9450   32.8080   46.2780 O   0  0  0  0  0  0  0  0  0  0  0  0
   60.1180   32.9110   47.0440 C   0  0  0  0  0  0  0  0  0  0  0  0
   60.4450   34.0910   47.7420 C   0  0  0  0  0  0  0  0  0  0  0  0
   61.6120   34.1600   48.5070 C   0  0  0  0  0  0  0  0  0  0  0  0
   62.4610   33.0570   48.5890 C   0  0  0  0  0  0  0  0  0  0  0  0
   62.1500   31.8810   47.9030 C   0  0  0  0  0  0  0  0  0  0  0  0
   60.9890   31.8020   47.1160 C   0  0  0  0  0  0  0  0  0  0  0  0
   60.6580   30.5050   46.4160 C   0  0  0  0  0  0  0  0  0  0  0  0
   59.2130   30.4120   46.1550 N   0  0  0  0  0  0  0  0  0  0  0  0
   58.8250   29.0340   45.9400 C   0  0  0  0  0  0  0  0  0  0  0  0
   59.7540   28.0190   46.2460 C   0  0  0  0  0  0  0  0  0  0  0  0
   59.4200   26.6730   46.1020 C   0  0  0  0  0  0  0  0  0  0  0  0
   58.1510   26.3130   45.6530 C   0  0  0  0  0  0  0  0  0  0  0  0
   57.7320   24.6180   45.4790 Cl  0  0  0  0  0  0  0  0  0  0  0  0
   57.2160   27.3010   45.3330 C   0  0  0  0  0  0  0  0  0  0  0  0
   57.5370   28.6670   45.4550 C   0  0  0  0  0  0  0  0  0  0  0  0
   56.5020   29.6560   45.0680 C   0  0  0  0  0  0  0  0  0  0  0  0
   55.1560   29.2340   44.8570 N   0  0  0  0  0  0  0  0  0  0  0  0
   56.8010   30.8640   44.8800 O   0  0  0  0  0  0  0  0  0  0  0  0
   57.8959   34.5873   46.3946 H   0  0  0  0  0  0  0  0  0  0  0  0
   59.0265   34.4382   45.0067 H   0  0  0  0  0  0  0  0  0  0  0  0
   57.4791   33.5259   45.0067 H   0  0  0  0  0  0  0  0  0  0  0  0
   59.7771   34.9631   47.6841 H   0  0  0  0  0  0  0  0  0  0  0  0
   61.8615   35.0861   49.0456 H   0  0  0  0  0  0  0  0  0  0  0  0
   63.3773   33.1132   49.1950 H   0  0  0  0  0  0  0  0  0  0  0  0
   62.8185   31.0108   47.9794 H   0  0  0  0  0  0  0  0  0  0  0  0
   61.2016   30.4607   45.4607 H   0  0  0  0  0  0  0  0  0  0  0  0
   60.9564   29.6666   47.0626 H   0  0  0  0  0  0  0  0  0  0  0  0
   58.9440   31.0150   45.3440 H   0  0  0  0  0  0  0  0  0  0  0  0
   58.6930   30.7850   46.9840 H   0  0  0  0  0  0  0  0  0  0  0  0
   60.7575   28.2929   46.6037 H   0  0  0  0  0  0  0  0  0  0  0  0
   60.1589   25.8946   46.3431 H   0  0  0  0  0  0  0  0  0  0  0  0
   56.2159   27.0080   44.9811 H   0  0  0  0  0  0  0  0  0  0  0  0
   54.4350   29.3450   45.6040 H   0  0  0  0  0  0  0  0  0  0  0  0
  1  2  1  0
  2  3  1  0
  3  4  2  0
  4  5  1  0
  5  6  2  0
  6  7  1  0
  7  8  2  0
  8  9  1  0
  9 10  1  0
 10 11  1  0
 11 12  2  0
 12 13  1  0
 13 14  2  0
 14 15  1  0
 14 16  1  0
 16 17  2  0
 17 18  1  0
 18 19  1  0
 18 20  2  0
  8  3  1  0
 17 11  1  0
  1 21  1  0
  1 22  1  0
  1 23  1  0
  4 24  1  0
  5 25  1  0
  6 26  1  0
  7 27  1  0
  9 28  1  0
  9 29  1  0
 10 30  1  0
 10 31  1  0
 12 32  1  0
 13 33  1  0
 16 34  1  0
 19 35  1  0
M  CHG  2  10   1  19  -1
M  END
>  <UniqueID>  (24) 
23

>  <SMILES>  (24) 
COc1ccccc1C[NH2+]c1ccc(Cl)cc1C([NH-])=O

>  <Energy>  (24) 
40.780718350449604

>  <Genealogy>  (24) 
COc1ccccc1C[NH2+]c1ccc(Cl)cc1C([NH-])=O (protonated)
COc1ccccc1C[NH2+]c1ccc(Cl)cc1C([NH-])=O (3D coordinates assigned)
COc1ccccc1C[NH2+]c1ccc(Cl)cc1C([NH-])=O (optimized conformer: 40.780718350449604 kcal/mol)

>  <smiles>  (24) 
COc1ccccc1CNc1ccc(Cl)cc1C(N)=O

>  <score_type>  (24) 
oracle

>  <origin>  (24) 
adg

>  <m_score__min__energy>  (24) 
-8.1300000000000008

>  <m_primary>  (24) 
energy

$$$$
24:0
     RDKit          3D

 27 29  0  0  0  0  0  0  0  0999 V2000
   59.9180   27.4640   46.2340 C   0  0  0  0  0  0  0  0  0  0  0  0
   60.2860   28.3980   45.2610 C   0  0  0  0  0  0  0  0  0  0  0  0
   59.3040   29.0870   44.5420 C   0  0  0  0  0  0  0  0  0  0  0  0
   57.9440   28.8350   44.7850 C   0  0  0  0  0  0  0  0  0  0  0  0
   56.8890   29.6080   44.0440 C   0  0  0  0  0  0  0  0  0  0  0  0
   57.3650   30.9600   43.7710 N   0  0  0  0  0  0  0  0  0  0  0  0
   57.7710   31.4140   42.5890 N   0  0  0  0  0  0  0  0  0  0  0  0
   58.2470   32.6580   42.6680 N   0  0  0  0  0  0  0  0  0  0  0  0
   58.1370   32.9920   43.9690 C   0  0  0  0  0  0  0  0  0  0  0  0
   58.5090   34.1590   44.6220 C   0  0  0  0  0  0  0  0  0  0  0  0
   58.3030   34.2020   46.0150 C   0  0  0  0  0  0  0  0  0  0  0  0
   57.7440   33.0820   46.6820 C   0  0  0  0  0  0  0  0  0  0  0  0
   57.4000   31.9540   45.9860 N   0  0  0  0  0  0  0  0  0  0  0  0
   57.6020   31.9460   44.6450 C   0  0  0  0  0  0  0  0  0  0  0  0
   57.5810   27.9070   45.7740 C   0  0  0  0  0  0  0  0  0  0  0  0
   58.5650   27.2200   46.4910 C   0  0  0  0  0  0  0  0  0  0  0  0
   60.6918   26.9215   46.7969 H   0  0  0  0  0  0  0  0  0  0  0  0
   61.3501   28.5914   45.0605 H   0  0  0  0  0  0  0  0  0  0  0  0
   59.5977   29.8282   43.7842 H   0  0  0  0  0  0  0  0  0  0  0  0
   56.6651   29.1011   43.0938 H   0  0  0  0  0  0  0  0  0  0  0  0
   55.9791   29.6614   44.6598 H   0  0  0  0  0  0  0  0  0  0  0  0
   57.7400   30.8610   41.7030 H   0  0  0  0  0  0  0  0  0  0  0  0
   58.9441   35.0100   44.0776 H   0  0  0  0  0  0  0  0  0  0  0  0
   58.5753   35.1028   46.5845 H   0  0  0  0  0  0  0  0  0  0  0  0
   57.5851   33.1199   47.7698 H   0  0  0  0  0  0  0  0  0  0  0  0
   56.5179   27.7197   45.9856 H   0  0  0  0  0  0  0  0  0  0  0  0
   58.2749   26.4868   47.2580 H   0  0  0  0  0  0  0  0  0  0  0  0
  1  2  2  0
  2  3  1  0
  3  4  2  0
  4  5  1  0
  5  6  1  0
  6  7  1  0
  7  8  2  0
  8  9  1  0
  9 10  2  0
 10 11  1  0
 11 12  2  0
 12 13  1  0
 13 14  2  0
  4 15  1  0
 15 16  2  0
 16  1  1  0
 14  6  1  0
 14  9  1  0
  1 17  1  0
  2 18  1  0
  3 19  1  0
  5 20  1  0
  5 21  1  0
  7 22  1  0
 10 23  1  0
 11 24  1  0
 12 25  1  0
 15 26  1  0
 16 27  1  0
M  CHG  1   7   1
M  END
>  <UniqueID>  (25) 
24

>  <SMILES>  (25) 
c1ccc(Cn2[nH+]nc3cccnc32)cc1

>  <Energy>  (25) 
75.20517921340718

>  <Genealogy>  (25) 
c1ccc(Cn2[nH+]nc3cccnc32)cc1 (protonated)
c1ccc(Cn2[nH+]nc3cccnc32)cc1 (3D coordinates assigned)
c1ccc(Cn2[nH+]nc3cccnc32)cc1 (optimized conformer: 75.20517921340718 kcal/mol)

>  <smiles>  (25) 
c1ccc(Cn2nnc3cccnc32)cc1

>  <score_type>  (25) 
oracle

>  <origin>  (25) 
adg

>  <m_score__min__energy>  (25) 
-5.1100000000000003

>  <m_primary>  (25) 
energy

$$$$
25:0
     RDKit          3D

 32 33  0  0  0  0  0  0  0  0999 V2000
   60.1130   34.2210   47.1990 C   0  0  0  0  0  0  0  0  0  0  0  0
   58.5930   34.2140   47.0530 C   0  0  0  0  0  0  0  0  0  0  0  0
   58.2060   34.5600   45.6690 N   0  0  0  0  0  0  0  0  0  0  0  0
   59.3320   34.3090   44.7500 C   0  0  0  0  0  0  0  0  0  0  0  0
   57.0150   33.7940   45.2420 C   0  0  0  0  0  0  0  0  0  0  0  0
   57.4140   32.4240   44.7950 C   0  0  0  0  0  0  0  0  0  0  0  0
   57.6460   31.3920   45.6350 N   0  0  0  0  0  0  0  0  0  0  0  0
   57.9820   30.4050   44.7740 C   0  0  0  0  0  0  0  0  0  0  0  0
   58.3410   29.0320   45.2050 C   0  0  0  0  0  0  0  0  0  0  0  0
   59.6790   28.6650   45.4520 C   0  0  0  0  0  0  0  0  0  0  0  0
   59.9930   27.3650   45.8580 C   0  0  0  0  0  0  0  0  0  0  0  0
   58.9840   26.4170   46.0230 C   0  0  0  0  0  0  0  0  0  0  0  0
   57.6520   26.7650   45.7810 C   0  0  0  0  0  0  0  0  0  0  0  0
   56.2690   25.4670   46.0080 Br  0  0  0  0  0  0  0  0  0  0  0  0
   57.3320   28.0640   45.3750 C   0  0  0  0  0  0  0  0  0  0  0  0
   57.9490   30.8370   43.4970 N   0  0  0  0  0  0  0  0  0  0  0  0
   57.5980   32.0830   43.5430 O   0  0  0  0  0  0  0  0  0  0  0  0
   60.3788   34.2222   48.2664 H   0  0  0  0  0  0  0  0  0  0  0  0
   60.5317   33.3248   46.7179 H   0  0  0  0  0  0  0  0  0  0  0  0
   60.5234   35.1210   46.7179 H   0  0  0  0  0  0  0  0  0  0  0  0
   58.2102   33.2119   47.2965 H   0  0  0  0  0  0  0  0  0  0  0  0
   58.1654   34.9594   47.7397 H   0  0  0  0  0  0  0  0  0  0  0  0
   60.2426   34.1060   45.3327 H   0  0  0  0  0  0  0  0  0  0  0  0
   59.1012   33.4403   44.1160 H   0  0  0  0  0  0  0  0  0  0  0  0
   59.4920   35.1935   44.1160 H   0  0  0  0  0  0  0  0  0  0  0  0
   56.3147   33.7110   46.0862 H   0  0  0  0  0  0  0  0  0  0  0  0
   56.5330   34.3184   44.4038 H   0  0  0  0  0  0  0  0  0  0  0  0
   60.4815   29.4065   45.3244 H   0  0  0  0  0  0  0  0  0  0  0  0
   61.0406   27.0886   46.0482 H   0  0  0  0  0  0  0  0  0  0  0  0
   59.2361   25.3954   46.3436 H   0  0  0  0  0  0  0  0  0  0  0  0
   56.2821   28.3327   45.1865 H   0  0  0  0  0  0  0  0  0  0  0  0
   58.1600   30.3120   42.6200 H   0  0  0  0  0  0  0  0  0  0  0  0
  1  2  1  0
  2  3  1  0
  3  4  1  0
  3  5  1  0
  5  6  1  0
  6  7  2  0
  7  8  1  0
  8  9  1  0
  9 10  2  0
 10 11  1  0
 11 12  2  0
 12 13  1  0
 13 14  1  0
 13 15  2  0
  8 16  2  0
 16 17  1  0
 17  6  1  0
 15  9  1  0
  1 18  1  0
  1 19  1  0
  1 20  1  0
  2 21  1  0
  2 22  1  0
  4 23  1  0
  4 24  1  0
  4 25  1  0
  5 26  1  0
  5 27  1  0
 10 28  1  0
 11 29  1  0
 12 30  1  0
 15 31  1  0
 16 32  1  0
M  CHG  1  16   1
M  END
>  <UniqueID>  (26) 
25

>  <SMILES>  (26) 
CCN(C)Cc1nc(-c2cccc(Br)c2)[nH+]o1

>  <Energy>  (26) 
65.71612404719613

>  <Genealogy>  (26) 
CCN(C)Cc1nc(-c2cccc(Br)c2)[nH+]o1 (protonated)
CCN(C)Cc1nc(-c2cccc(Br)c2)[nH+]o1 (3D coordinates assigned)
CCN(C)Cc1nc(-c2cccc(Br)c2)[nH+]o1 (optimized conformer: 65.71612404719613 kcal/mol)

>  <smiles>  (26) 
CCN(C)Cc1nc(-c2cccc(Br)c2)no1

>  <score_type>  (26) 
oracle

>  <origin>  (26) 
adg

>  <m_score__min__energy>  (26) 
-5.2699999999999996

>  <m_primary>  (26) 
energy

$$$$
26:0
     RDKit          3D

 57 60  0  0  0  0  0  0  0  0999 V2000
   59.8670   31.4840   50.8900 C   0  0  0  0  0  0  0  0  0  0  0  0
   60.4050   30.2930   50.5980 C   0  0  0  0  0  0  0  0  0  0  0  0
   60.5070   29.8040   49.1780 C   0  0  0  0  0  0  0  0  0  0  0  0
   59.9300   30.8120   48.2140 C   0  0  0  0  0  0  0  0  0  0  0  0
   58.6340   30.6610   47.8510 N   0  0  0  0  0  0  0  0  0  0  0  0
   58.0410   31.4680   46.9740 N   0  0  0  0  0  0  0  0  0  0  0  0
   58.7020   32.4980   46.3800 C   0  0  0  0  0  0  0  0  0  0  0  0
   57.9510   33.3370   45.3680 C   0  0  0  0  0  0  0  0  0  0  0  0
   57.5050   32.4950   44.1690 C   0  0  0  0  0  0  0  0  0  0  0  0
   56.9250   31.2680   44.6100 O   0  0  0  0  0  0  0  0  0  0  0  0
   57.5790   30.0280   44.6570 C   0  0  0  0  0  0  0  0  0  0  0  0
   58.9750   29.8990   44.4870 C   0  0  0  0  0  0  0  0  0  0  0  0
   59.5750   28.6380   44.5250 C   0  0  0  0  0  0  0  0  0  0  0  0
   58.7930   27.4980   44.7340 C   0  0  0  0  0  0  0  0  0  0  0  0
   57.4110   27.6180   44.9140 C   0  0  0  0  0  0  0  0  0  0  0  0
   56.8070   28.8780   44.8830 C   0  0  0  0  0  0  0  0  0  0  0  0
   55.4640   28.9820   45.0500 F   0  0  0  0  0  0  0  0  0  0  0  0
   60.0670   32.7090   46.6950 C   0  0  0  0  0  0  0  0  0  0  0  0
   60.6840   31.8580   47.6380 C   0  0  0  0  0  0  0  0  0  0  0  0
   62.1470   32.0620   47.9420 C   0  0  0  0  0  0  0  0  0  0  0  0
   62.4400   33.5030   47.9320 N   0  0  0  0  0  0  0  0  0  0  0  0
   63.7540   33.8310   48.5380 C   0  0  0  0  0  0  0  0  0  0  0  0
   64.1180   32.9720   49.7380 C   0  0  0  0  0  0  0  0  0  0  0  0
   63.2340   32.8620   50.8320 C   0  0  0  0  0  0  0  0  0  0  0  0
   63.5680   32.0640   51.9360 C   0  0  0  0  0  0  0  0  0  0  0  0
   64.7810   31.3650   51.9550 C   0  0  0  0  0  0  0  0  0  0  0  0
   65.6720   31.4790   50.8800 C   0  0  0  0  0  0  0  0  0  0  0  0
   65.3500   32.2900   49.7810 C   0  0  0  0  0  0  0  0  0  0  0  0
   62.2910   34.0560   46.5720 C   0  0  0  0  0  0  0  0  0  0  0  0
   60.8830   33.7780   45.9770 C   0  0  0  0  0  0  0  0  0  0  0  0
   59.8045   31.8176   51.9363 H   0  0  0  0  0  0  0  0  0  0  0  0
   59.4876   32.1287   50.0835 H   0  0  0  0  0  0  0  0  0  0  0  0
   60.7807   29.6580   51.4138 H   0  0  0  0  0  0  0  0  0  0  0  0
   61.5656   29.6357   48.9311 H   0  0  0  0  0  0  0  0  0  0  0  0
   59.9359   28.8681   49.0886 H   0  0  0  0  0  0  0  0  0  0  0  0
   57.0410   31.2870   46.7380 H   0  0  0  0  0  0  0  0  0  0  0  0
   57.0633   33.7715   45.8509 H   0  0  0  0  0  0  0  0  0  0  0  0
   58.6234   34.1286   45.0057 H   0  0  0  0  0  0  0  0  0  0  0  0
   56.7611   33.0588   43.5870 H   0  0  0  0  0  0  0  0  0  0  0  0
   58.3826   32.2704   43.5449 H   0  0  0  0  0  0  0  0  0  0  0  0
   59.5922   30.7948   44.3240 H   0  0  0  0  0  0  0  0  0  0  0  0
   60.6625   28.5420   44.3905 H   0  0  0  0  0  0  0  0  0  0  0  0
   59.2654   26.5049   44.7569 H   0  0  0  0  0  0  0  0  0  0  0  0
   56.7987   26.7194   45.0802 H   0  0  0  0  0  0  0  0  0  0  0  0
   62.3797   31.6449   48.9329 H   0  0  0  0  0  0  0  0  0  0  0  0
   62.7595   31.5522   47.1837 H   0  0  0  0  0  0  0  0  0  0  0  0
   64.5307   33.6984   47.7704 H   0  0  0  0  0  0  0  0  0  0  0  0
   63.6855   34.8674   48.9001 H   0  0  0  0  0  0  0  0  0  0  0  0
   62.2775   33.4051   50.8191 H   0  0  0  0  0  0  0  0  0  0  0  0
   62.8762   31.9872   52.7878 H   0  0  0  0  0  0  0  0  0  0  0  0
   65.0344   30.7263   52.8140 H   0  0  0  0  0  0  0  0  0  0  0  0
   66.6260   30.9317   50.8974 H   0  0  0  0  0  0  0  0  0  0  0  0
   66.0626   32.3937   48.9495 H   0  0  0  0  0  0  0  0  0  0  0  0
   62.4502   35.1437   46.6123 H   0  0  0  0  0  0  0  0  0  0  0  0
   63.0339   33.5667   45.9250 H   0  0  0  0  0  0  0  0  0  0  0  0
   60.3113   34.7173   46.0059 H   0  0  0  0  0  0  0  0  0  0  0  0
   61.0548   33.3949   44.9603 H   0  0  0  0  0  0  0  0  0  0  0  0
  1  2  2  0
  2  3  1  0
  3  4  1  0
  4  5  2  0
  5  6  1  0
  6  7  2  0
  7  8  1  0
  8  9  1  0
  9 10  1  0
 10 11  1  0
 11 12  2  0
 12 13  1  0
 13 14  2  0
 14 15  1  0
 15 16  2  0
 16 17  1  0
  7 18  1  0
 18 19  2  0
 19 20  1  0
 20 21  1  0
 21 22  1  0
 22 23  1  0
 23 24  2  0
 24 25  1  0
 25 26  2  0
 26 27  1  0
 27 28  2  0
 21 29  1  0
 29 30  1  0
 19  4  1  0
 28 23  1  0
 16 11  1  0
 30 18  1  0
  1 31  1  0
  1 32  1  0
  2 33  1  0
  3 34  1  0
  3 35  1  0
  6 36  1  0
  8 37  1  0
  8 38  1  0
  9 39  1  0
  9 40  1  0
 12 41  1  0
 13 42  1  0
 14 43  1  0
 15 44  1  0
 20 45  1  0
 20 46  1  0
 22 47  1  0
 22 48  1  0
 24 49  1  0
 25 50  1  0
 26 51  1  0
 27 52  1  0
 28 53  1  0
 29 54  1  0
 29 55  1  0
 30 56  1  0
 30 57  1  0
M  CHG  1   6   1
M  END
>  <UniqueID>  (27) 
26

>  <SMILES>  (27) 
C=CCc1n[nH+]c(CCOc2ccccc2F)c2c1CN(Cc1ccccc1)CC2

>  <Energy>  (27) 
68.58994681130036

>  <Genealogy>  (27) 
C=CCc1n[nH+]c(CCOc2ccccc2F)c2c1CN(Cc1ccccc1)CC2 (protonated)
C=CCc1n[nH+]c(CCOc2ccccc2F)c2c1CN(Cc1ccccc1)CC2 (3D coordinates assigned)
C=CCc1n[nH+]c(CCOc2ccccc2F)c2c1CN(Cc1ccccc1)CC2 (nonaromatic ring conformer: 68.58994681130036 kcal/mol)

>  <smiles>  (27) 
C=CCc1nnc(CCOc2ccccc2F)c2c1CN(Cc1ccccc1)CC2

>  <score_type>  (27) 
oracle

>  <origin>  (27) 
adg

>  <m_score__min__energy>  (27) 
-7.6299999999999999

>  <m_primary>  (27) 
energy

$$$$
27:0
     RDKit          3D

 49 52  0  0  0  0  0  0  0  0999 V2000
   61.4670   29.3280   50.5970 C   0  0  0  0  0  0  0  0  0  0  0  0
   60.7800   28.0690   50.0930 C   0  0  0  0  0  0  0  0  0  0  0  0
   59.7360   28.4240   49.1910 O   0  0  0  0  0  0  0  0  0  0  0  0
   59.4110   27.6530   48.0710 C   0  0  0  0  0  0  0  0  0  0  0  0
   60.4090   26.9140   47.4320 C   0  0  0  0  0  0  0  0  0  0  0  0
   60.0820   26.1440   46.3170 C   0  0  0  0  0  0  0  0  0  0  0  0
   58.7660   26.1160   45.8470 C   0  0  0  0  0  0  0  0  0  0  0  0
   58.4680   25.3590   44.7610 F   0  0  0  0  0  0  0  0  0  0  0  0
   57.7800   26.8720   46.5110 C   0  0  0  0  0  0  0  0  0  0  0  0
   56.3710   26.8880   46.0690 C   0  0  0  0  0  0  0  0  0  0  0  0
   55.5960   25.9400   46.3650 O   0  0  0  0  0  0  0  0  0  0  0  0
   55.9090   27.9730   45.2520 N   0  0  0  0  0  0  0  0  0  0  0  0
   56.6150   29.1890   44.9630 C   0  0  0  0  0  0  0  0  0  0  0  0
   56.4850   29.8450   43.7370 C   0  0  0  0  0  0  0  0  0  0  0  0
   57.1260   31.0600   43.5220 C   0  0  0  0  0  0  0  0  0  0  0  0
   56.9310   31.7010   42.3420 F   0  0  0  0  0  0  0  0  0  0  0  0
   57.9280   31.6370   44.5180 C   0  0  0  0  0  0  0  0  0  0  0  0
   58.5220   33.2610   44.1570 Cl  0  0  0  0  0  0  0  0  0  0  0  0
   58.1370   30.9580   45.7620 C   0  0  0  0  0  0  0  0  0  0  0  0
   59.0380   31.5220   46.9030 C   0  0  2  0  0  0  0  0  0  0  0  0
   60.5090   31.4880   46.4080 C   0  0  0  0  0  0  0  0  0  0  0  0
   61.1250   30.3070   46.7830 F   0  0  0  0  0  0  0  0  0  0  0  0
   58.8720   30.6990   48.1440 N   0  0  0  0  0  0  0  0  0  0  0  0
   58.5500   31.2990   49.4280 C   0  0  0  0  0  0  0  0  0  0  0  0
   58.1300   30.5760   50.4160 N   0  0  0  0  0  0  0  0  0  0  0  0
   58.7010   32.6870   49.5770 O   0  0  0  0  0  0  0  0  0  0  0  0
   59.4410   33.3000   48.5390 C   0  0  2  0  0  0  0  0  0  0  0  0
   59.0340   34.3910   47.6120 C   0  0  0  0  0  0  0  0  0  0  0  0
   58.5720   32.9770   47.2810 C   0  0  1  0  0  0  0  0  0  0  0  0
   57.3960   29.7630   45.9690 C   0  0  0  0  0  0  0  0  0  0  0  0
   58.1340   27.6130   47.5990 N   0  0  0  0  0  0  0  0  0  0  0  0
   61.4680   29.3298   51.6970 H   0  0  0  0  0  0  0  0  0  0  0  0
   62.5035   29.3524   50.2293 H   0  0  0  0  0  0  0  0  0  0  0  0
   60.9266   30.2128   50.2293 H   0  0  0  0  0  0  0  0  0  0  0  0
   61.5132   27.4347   49.5733 H   0  0  0  0  0  0  0  0  0  0  0  0
   60.3555   27.5178   50.9451 H   0  0  0  0  0  0  0  0  0  0  0  0
   61.4435   26.9393   47.8051 H   0  0  0  0  0  0  0  0  0  0  0  0
   60.8604   25.5579   45.8065 H   0  0  0  0  0  0  0  0  0  0  0  0
   55.8735   29.3990   42.9388 H   0  0  0  0  0  0  0  0  0  0  0  0
   60.5227   31.5697   45.3111 H   0  0  0  0  0  0  0  0  0  0  0  0
   61.0536   32.3297   46.8607 H   0  0  0  0  0  0  0  0  0  0  0  0
   59.0720   29.6800   48.1520 H   0  0  0  0  0  0  0  0  0  0  0  0
   58.4240   29.5760   50.5000 H   0  0  0  0  0  0  0  0  0  0  0  0
   57.4980   30.9760   51.1440 H   0  0  0  0  0  0  0  0  0  0  0  0
   60.4179   33.2329   49.0402 H   0  0  0  0  0  0  0  0  0  0  0  0
   58.2986   35.1389   47.9433 H   0  0  0  0  0  0  0  0  0  0  0  0
   59.5841   35.1638   47.0551 H   0  0  0  0  0  0  0  0  0  0  0  0
   57.6712   32.8132   46.6713 H   0  0  0  0  0  0  0  0  0  0  0  0
   57.4389   29.2742   46.9535 H   0  0  0  0  0  0  0  0  0  0  0  0
  1  2  1  0
  2  3  1  0
  3  4  1  0
  4  5  2  0
  5  6  1  0
  6  7  2  0
  7  8  1  0
  7  9  1  0
  9 10  1  0
 10 11  2  0
 10 12  1  0
 12 13  1  0
 13 14  2  0
 14 15  1  0
 15 16  1  0
 15 17  2  0
 17 18  1  0
 17 19  1  0
 19 20  1  0
 20 21  1  6
 21 22  1  0
 20 23  1  0
 23 24  1  0
 24 25  2  0
 24 26  1  0
 26 27  1  0
 27 28  1  0
 28 29  1  0
 19 30  2  0
  9 31  2  0
 31  4  1  0
 30 13  1  0
 29 20  1  0
 29 27  1  0
  1 32  1  0
  1 33  1  0
  1 34  1  0
  2 35  1  0
  2 36  1  0
  5 37  1  0
  6 38  1  0
 14 39  1  0
 21 40  1  0
 21 41  1  0
 23 42  1  0
 25 43  1  0
 25 44  1  0
 27 45  1  6
 28 46  1  0
 28 47  1  0
 29 48  1  1
 30 49  1  0
M  CHG  2  12  -1  25   1
M  END
>  <UniqueID>  (28) 
27

>  <SMILES>  (28) 
CCOc1ccc(F)c(C(=O)[N-]c2cc(F)c(Cl)c([C@]3(CF)NC(=[NH2+])O[C@@H]4CC43)c2)n1

>  <Energy>  (28) 
380.9657497064865

>  <Genealogy>  (28) 
CCOc1ccc(F)c(C(=O)[N-]c2cc(F)c(Cl)c(C3(CF)NC(=[NH2+])OC4CC43)c2)n1 (protonated)
CCOc1ccc(F)c(C(=O)[N-]c2cc(F)c(Cl)c([C@]3(CF)NC(=[NH2+])O[C@@H]4CC43)c2)n1 (chirality)
CCOc1ccc(F)c(C(=O)[N-]c2cc(F)c(Cl)c([C@]3(CF)NC(=[NH2+])O[C@@H]4CC43)c2)n1 (3D coordinates assigned)
CCOc1ccc(F)c(C(=O)[N-]c2cc(F)c(Cl)c([C@]3(CF)NC(=[NH2+])O[C@@H]4CC43)c2)n1 (nonaromatic ring conformer: 380.9657497064865 kcal/mol)

>  <smiles>  (28) 
CCOc1ccc(F)c(C(=O)Nc2cc(F)c(Cl)c(C3(CF)NC(=N)OC4CC43)c2)n1

>  <score_type>  (28) 
oracle

>  <origin>  (28) 
adg

>  <m_score__min__energy>  (28) 
-8.4199999999999999

>  <m_primary>  (28) 
energy

$$$$
28:0
     RDKit          3D

 58 62  0  0  0  0  0  0  0  0999 V2000
   58.5350   34.1380   52.5140 C   0  0  0  0  0  0  0  0  0  0  0  0
   58.5560   32.7210   52.3960 O   0  0  0  0  0  0  0  0  0  0  0  0
   59.4430   32.0010   51.5780 C   0  0  0  0  0  0  0  0  0  0  0  0
   60.8170   32.2890   51.5470 C   0  0  0  0  0  0  0  0  0  0  0  0
   61.6780   31.5870   50.6980 C   0  0  0  0  0  0  0  0  0  0  0  0
   63.1190   31.9220   50.6450 C   0  0  0  0  0  0  0  0  0  0  0  0
   64.0370   30.9510   50.9090 N   0  0  0  0  0  0  0  0  0  0  0  0
   65.3690   31.2170   50.9080 C   0  0  0  0  0  0  0  0  0  0  0  0
   65.8130   32.4710   50.6410 N   0  0  0  0  0  0  0  0  0  0  0  0
   64.9380   33.4780   50.3640 C   0  0  0  0  0  0  0  0  0  0  0  0
   63.5620   33.2250   50.3470 C   0  0  0  0  0  0  0  0  0  0  0  0
   62.6480   34.2240   49.9790 O   0  0  0  0  0  0  0  0  0  0  0  0
   61.8030   34.1690   48.8610 C   0  0  0  0  0  0  0  0  0  0  0  0
   60.4620   34.5470   49.0140 C   0  0  0  0  0  0  0  0  0  0  0  0
   59.5990   34.5690   47.9140 C   0  0  0  0  0  0  0  0  0  0  0  0
   60.0720   34.2300   46.6320 C   0  0  0  0  0  0  0  0  0  0  0  0
   59.1830   34.2670   45.4470 C   0  0  0  0  0  0  0  0  0  0  0  0
   58.9680   35.3730   44.8760 O   0  0  0  0  0  0  0  0  0  0  0  0
   58.4980   33.0620   44.9370 C   0  0  0  0  0  0  0  0  0  0  0  0
   58.2630   31.9720   45.7130 N   0  0  0  0  0  0  0  0  0  0  0  0
   57.6760   31.1200   44.8590 C   0  0  0  0  0  0  0  0  0  0  0  0
   57.2270   29.8270   45.1100 C   0  0  0  0  0  0  0  0  0  0  0  0
   56.6560   29.1130   44.0380 C   0  0  0  0  0  0  0  0  0  0  0  0
   56.5460   29.7100   42.7600 C   0  0  0  0  0  0  0  0  0  0  0  0
   57.0140   31.0190   42.5470 C   0  0  0  0  0  0  0  0  0  0  0  0
   57.5770   31.6900   43.6290 C   0  0  0  0  0  0  0  0  0  0  0  0
   58.0970   32.9240   43.6450 N   0  0  0  0  0  0  0  0  0  0  0  0
   61.4130   33.8300   46.4860 C   0  0  0  0  0  0  0  0  0  0  0  0
   62.2740   33.8060   47.5870 C   0  0  0  0  0  0  0  0  0  0  0  0
   61.1690   30.5430   49.9150 C   0  0  0  0  0  0  0  0  0  0  0  0
   59.7940   30.2260   49.9370 C   0  0  0  0  0  0  0  0  0  0  0  0
   59.2820   29.1890   49.1370 O   0  0  0  0  0  0  0  0  0  0  0  0
   59.2830   29.1770   47.7130 C   0  0  0  0  0  0  0  0  0  0  0  0
   58.9230   30.9720   50.7750 C   0  0  0  0  0  0  0  0  0  0  0  0
   57.5350   30.7450   50.8660 O   0  0  0  0  0  0  0  0  0  0  0  0
   56.7910   30.4800   52.0520 C   0  0  0  0  0  0  0  0  0  0  0  0
   58.5309   34.4173   53.5779 H   0  0  0  0  0  0  0  0  0  0  0  0
   59.4270   34.5597   52.0277 H   0  0  0  0  0  0  0  0  0  0  0  0
   57.6309   34.5331   52.0277 H   0  0  0  0  0  0  0  0  0  0  0  0
   61.2212   33.0772   52.1992 H   0  0  0  0  0  0  0  0  0  0  0  0
   66.0892   30.4141   51.1241 H   0  0  0  0  0  0  0  0  0  0  0  0
   66.8380   32.6630   50.6410 H   0  0  0  0  0  0  0  0  0  0  0  0
   65.3135   34.4903   50.1536 H   0  0  0  0  0  0  0  0  0  0  0  0
   60.0851   34.8289   50.0082 H   0  0  0  0  0  0  0  0  0  0  0  0
   58.5451   34.8526   48.0510 H   0  0  0  0  0  0  0  0  0  0  0  0
   57.3148   29.3781   46.1104 H   0  0  0  0  0  0  0  0  0  0  0  0
   56.2939   28.0863   44.1954 H   0  0  0  0  0  0  0  0  0  0  0  0
   56.0928   29.1482   41.9299 H   0  0  0  0  0  0  0  0  0  0  0  0
   56.9378   31.4964   41.5590 H   0  0  0  0  0  0  0  0  0  0  0  0
   61.7877   33.5331   45.4953 H   0  0  0  0  0  0  0  0  0  0  0  0
   63.3231   33.5022   47.4562 H   0  0  0  0  0  0  0  0  0  0  0  0
   61.8498   29.9628   49.2748 H   0  0  0  0  0  0  0  0  0  0  0  0
   59.3693   28.1404   47.3551 H   0  0  0  0  0  0  0  0  0  0  0  0
   58.3452   29.6161   47.3420 H   0  0  0  0  0  0  0  0  0  0  0  0
   60.1353   29.7652   47.3420 H   0  0  0  0  0  0  0  0  0  0  0  0
   57.4127   30.7014   52.9320 H   0  0  0  0  0  0  0  0  0  0  0  0
   55.8916   31.1131   52.0698 H   0  0  0  0  0  0  0  0  0  0  0  0
   56.4943   29.4209   52.0698 H   0  0  0  0  0  0  0  0  0  0  0  0
  1  2  1  0
  2  3  1  0
  3  4  2  0
  4  5  1  0
  5  6  1  0
  6  7  2  0
  7  8  1  0
  8  9  2  0
  9 10  1  0
 10 11  2  0
 11 12  1  0
 12 13  1  0
 13 14  2  0
 14 15  1  0
 15 16  2  0
 16 17  1  0
 17 18  2  0
 17 19  1  0
 19 20  2  0
 20 21  1  0
 21 22  2  0
 22 23  1  0
 23 24  2  0
 24 25  1  0
 25 26  2  0
 26 27  1  0
 16 28  1  0
 28 29  2  0
  5 30  2  0
 30 31  1  0
 31 32  1  0
 32 33  1  0
 31 34  2  0
 34 35  1  0
 35 36  1  0
 34  3  1  0
 11  6  1  0
 29 13  1  0
 27 19  1  0
 26 21  1  0
  1 37  1  0
  1 38  1  0
  1 39  1  0
  4 40  1  0
  8 41  1  0
  9 42  1  0
 10 43  1  0
 14 44  1  0
 15 45  1  0
 22 46  1  0
 23 47  1  0
 24 48  1  0
 25 49  1  0
 28 50  1  0
 29 51  1  0
 30 52  1  0
 33 53  1  0
 33 54  1  0
 33 55  1  0
 36 56  1  0
 36 57  1  0
 36 58  1  0
M  CHG  2   9   1  27  -1
M  END
>  <UniqueID>  (29) 
28

>  <SMILES>  (29) 
COc1cc(-c2nc[nH+]cc2Oc2ccc(C(=O)c3nc4ccccc4[n-]3)cc2)cc(OC)c1OC

>  <Energy>  (29) 
116.51423861103052

>  <Genealogy>  (29) 
COc1cc(-c2nc[nH+]cc2Oc2ccc(C(=O)c3nc4ccccc4[n-]3)cc2)cc(OC)c1OC (protonated)
COc1cc(-c2nc[nH+]cc2Oc2ccc(C(=O)c3nc4ccccc4[n-]3)cc2)cc(OC)c1OC (3D coordinates assigned)
COc1cc(-c2nc[nH+]cc2Oc2ccc(C(=O)c3nc4ccccc4[n-]3)cc2)cc(OC)c1OC (optimized conformer: 116.51423861103052 kcal/mol)

>  <smiles>  (29) 
COc1cc(-c2ncncc2Oc2ccc(C(=O)c3nc4ccccc4[nH]3)cc2)cc(OC)c1OC

>  <score_type>  (29) 
oracle

>  <origin>  (29) 
adg

>  <m_score__min__energy>  (29) 
-8.9600000000000009

>  <m_primary>  (29) 
energy

$$$$
29:0
     RDKit          3D

 57 59  0  0  0  0  0  0  0  0999 V2000
   58.7180   31.0920   50.2770 C   0  0  0  0  0  0  0  0  0  0  0  0
   58.5170   32.6040   50.2270 C   0  0  0  0  0  0  0  0  0  0  0  0
   59.2370   33.2060   49.0910 N   0  0  0  0  0  0  0  0  0  0  0  0
   60.3020   34.1960   49.3410 C   0  0  0  0  0  0  0  0  0  0  0  0
   61.5550   33.8630   48.5700 C   0  0  0  0  0  0  0  0  0  0  0  0
   62.6420   33.2430   49.2110 C   0  0  0  0  0  0  0  0  0  0  0  0
   63.7930   32.9150   48.4860 C   0  0  0  0  0  0  0  0  0  0  0  0
   63.8670   33.2000   47.1180 C   0  0  0  0  0  0  0  0  0  0  0  0
   62.7910   33.8140   46.4730 C   0  0  0  0  0  0  0  0  0  0  0  0
   61.6390   34.1440   47.1950 C   0  0  0  0  0  0  0  0  0  0  0  0
   58.8060   32.9390   47.7350 C   0  0  0  0  0  0  0  0  0  0  0  0
   59.2860   31.8170   47.0350 C   0  0  0  0  0  0  0  0  0  0  0  0
   58.8670   31.5610   45.7260 C   0  0  0  0  0  0  0  0  0  0  0  0
   57.9620   32.4230   45.0910 C   0  0  0  0  0  0  0  0  0  0  0  0
   57.4840   32.1190   43.6970 C   0  0  0  0  0  0  0  0  0  0  0  0
   57.7440   30.7200   43.3610 N   0  0  0  0  0  0  0  0  0  0  0  0
   57.0420   29.6330   43.9840 C   0  0  0  0  0  0  0  0  0  0  0  0
   56.1890   29.8700   44.8800 O   0  0  0  0  0  0  0  0  0  0  0  0
   57.3990   28.2090   43.6190 C   0  0  0  0  0  0  0  0  0  0  0  0
   58.1520   27.4650   44.6540 N   0  0  0  0  0  0  0  0  0  0  0  0
   57.2940   26.8280   45.6760 C   0  0  0  0  0  0  0  0  0  0  0  0
   58.1380   26.2630   46.8390 C   0  0  0  0  0  0  0  0  0  0  0  0
   59.5230   26.0020   46.4220 N   0  0  0  0  0  0  0  0  0  0  0  0
   60.2040   27.2340   45.9920 C   0  0  0  0  0  0  0  0  0  0  0  0
   59.2680   28.2130   45.2520 C   0  0  0  0  0  0  0  0  0  0  0  0
   57.4860   33.5480   45.7790 C   0  0  0  0  0  0  0  0  0  0  0  0
   57.9060   33.8050   47.0870 C   0  0  0  0  0  0  0  0  0  0  0  0
   58.7618   30.7624   51.3255 H   0  0  0  0  0  0  0  0  0  0  0  0
   57.8782   30.5935   49.7707 H   0  0  0  0  0  0  0  0  0  0  0  0
   59.6588   30.8302   49.7707 H   0  0  0  0  0  0  0  0  0  0  0  0
   57.4431   32.8188   50.1241 H   0  0  0  0  0  0  0  0  0  0  0  0
   58.9149   33.0365   51.1568 H   0  0  0  0  0  0  0  0  0  0  0  0
   59.9459   35.1902   49.0331 H   0  0  0  0  0  0  0  0  0  0  0  0
   60.5421   34.1825   50.4144 H   0  0  0  0  0  0  0  0  0  0  0  0
   62.5874   33.0151   50.2857 H   0  0  0  0  0  0  0  0  0  0  0  0
   64.6416   32.4320   48.9926 H   0  0  0  0  0  0  0  0  0  0  0  0
   64.7728   32.9404   46.5505 H   0  0  0  0  0  0  0  0  0  0  0  0
   62.8493   34.0380   45.3976 H   0  0  0  0  0  0  0  0  0  0  0  0
   60.7932   34.6266   46.6834 H   0  0  0  0  0  0  0  0  0  0  0  0
   59.9979   31.1345   47.5223 H   0  0  0  0  0  0  0  0  0  0  0  0
   59.2494   30.6788   45.1917 H   0  0  0  0  0  0  0  0  0  0  0  0
   56.4027   32.3114   43.6349 H   0  0  0  0  0  0  0  0  0  0  0  0
   58.0246   32.7621   42.9870 H   0  0  0  0  0  0  0  0  0  0  0  0
   58.4700   30.5100   42.6400 H   0  0  0  0  0  0  0  0  0  0  0  0
   56.4646   27.6639   43.4196 H   0  0  0  0  0  0  0  0  0  0  0  0
   58.0633   28.2744   42.7447 H   0  0  0  0  0  0  0  0  0  0  0  0
   56.5920   27.5763   46.0724 H   0  0  0  0  0  0  0  0  0  0  0  0
   56.7489   25.9968   45.2048 H   0  0  0  0  0  0  0  0  0  0  0  0
   58.1441   26.9915   47.6631 H   0  0  0  0  0  0  0  0  0  0  0  0
   57.6893   25.3116   47.1608 H   0  0  0  0  0  0  0  0  0  0  0  0
   59.5070   25.3270   45.6200 H   0  0  0  0  0  0  0  0  0  0  0  0
   60.6082   27.7398   46.8812 H   0  0  0  0  0  0  0  0  0  0  0  0
   60.9983   26.9429   45.2889 H   0  0  0  0  0  0  0  0  0  0  0  0
   58.8739   28.9529   45.9642 H   0  0  0  0  0  0  0  0  0  0  0  0
   59.8296   28.7301   44.4600 H   0  0  0  0  0  0  0  0  0  0  0  0
   56.7786   34.2317   45.2870 H   0  0  0  0  0  0  0  0  0  0  0  0
   57.5292   34.6932   47.6152 H   0  0  0  0  0  0  0  0  0  0  0  0
  1  2  1  0
  2  3  1  0
  3  4  1  0
  4  5  1  0
  5  6  2  0
  6  7  1  0
  7  8  2  0
  8  9  1  0
  9 10  2  0
  3 11  1  0
 11 12  2  0
 12 13  1  0
 13 14  2  0
 14 15  1  0
 15 16  1  0
 16 17  1  0
 17 18  2  0
 17 19  1  0
 19 20  1  0
 20 21  1  0
 21 22  1  0
 22 23  1  0
 23 24  1  0
 24 25  1  0
 14 26  1  0
 26 27  2  0
 10  5  1  0
 27 11  1  0
 25 20  1  0
  1 28  1  0
  1 29  1  0
  1 30  1  0
  2 31  1  0
  2 32  1  0
  4 33  1  0
  4 34  1  0
  6 35  1  0
  7 36  1  0
  8 37  1  0
  9 38  1  0
 10 39  1  0
 12 40  1  0
 13 41  1  0
 15 42  1  0
 15 43  1  0
 16 44  1  0
 19 45  1  0
 19 46  1  0
 21 47  1  0
 21 48  1  0
 22 49  1  0
 22 50  1  0
 23 51  1  0
 24 52  1  0
 24 53  1  0
 25 54  1  0
 25 55  1  0
 26 56  1  0
 27 57  1  0
M  END
>  <UniqueID>  (30) 
29

>  <SMILES>  (30) 
CCN(Cc1ccccc1)c1ccc(CNC(=O)CN2CCNCC2)cc1

>  <Energy>  (30) 
68.14989030254706

>  <Genealogy>  (30) 
CCN(Cc1ccccc1)c1ccc(CNC(=O)CN2CCNCC2)cc1 (3D coordinates assigned)
CCN(Cc1ccccc1)c1ccc(CNC(=O)CN2CCNCC2)cc1 (nonaromatic ring conformer: 68.14989030254706 kcal/mol)

>  <smiles>  (30) 
CCN(Cc1ccccc1)c1ccc(CNC(=O)CN2CCNCC2)cc1

>  <score_type>  (30) 
oracle

>  <origin>  (30) 
adg

>  <m_score__min__energy>  (30) 
-8.6199999999999992

>  <m_primary>  (30) 
energy

$$$$
30:0
     RDKit          3D

 39 41  0  0  0  0  0  0  0  0999 V2000
   63.6250   33.3790   47.3270 C   0  0  0  0  0  0  0  0  0  0  0  0
   62.3630   33.9940   47.0900 O   0  0  0  0  0  0  0  0  0  0  0  0
   61.2070   33.3030   46.6980 C   0  0  0  0  0  0  0  0  0  0  0  0
   60.1520   33.9280   46.0060 C   0  0  0  0  0  0  0  0  0  0  0  0
   59.0190   33.1990   45.6360 C   0  0  0  0  0  0  0  0  0  0  0  0
   58.9200   31.8320   45.9510 C   0  0  0  0  0  0  0  0  0  0  0  0
   57.7990   31.0610   45.5970 C   0  0  0  0  0  0  0  0  0  0  0  0
   56.8430   31.6040   44.9760 O   0  0  0  0  0  0  0  0  0  0  0  0
   57.7560   29.6860   45.9420 C   0  0  0  0  0  0  0  0  0  0  0  0
   56.6600   28.8400   45.6210 C   0  0  0  0  0  0  0  0  0  0  0  0
   55.5730   29.4140   44.9270 O   0  0  0  0  0  0  0  0  0  0  0  0
   55.4970   29.7410   43.5430 C   0  0  0  0  0  0  0  0  0  0  0  0
   56.6920   27.4670   46.0030 C   0  0  0  0  0  0  0  0  0  0  0  0
   55.5900   26.6570   45.6680 O   0  0  0  0  0  0  0  0  0  0  0  0
   55.5660   25.2410   45.5240 C   0  0  0  0  0  0  0  0  0  0  0  0
   57.8200   26.9590   46.6990 C   0  0  0  0  0  0  0  0  0  0  0  0
   57.8630   25.6080   47.0800 O   0  0  0  0  0  0  0  0  0  0  0  0
   58.5070   24.5680   46.3510 C   0  0  0  0  0  0  0  0  0  0  0  0
   58.8880   27.8150   47.0040 C   0  0  0  0  0  0  0  0  0  0  0  0
   58.8650   29.1540   46.6350 C   0  0  0  0  0  0  0  0  0  0  0  0
   59.9050   29.9190   46.9500 O   0  0  0  0  0  0  0  0  0  0  0  0
   59.9750   31.2060   46.6420 C   0  0  0  0  0  0  0  0  0  0  0  0
   61.1070   31.9420   47.0100 C   0  0  0  0  0  0  0  0  0  0  0  0
   63.7948   33.2962   48.4107 H   0  0  0  0  0  0  0  0  0  0  0  0
   63.6342   32.3754   46.8767 H   0  0  0  0  0  0  0  0  0  0  0  0
   64.4211   33.9902   46.8767 H   0  0  0  0  0  0  0  0  0  0  0  0
   60.2202   34.9968   45.7551 H   0  0  0  0  0  0  0  0  0  0  0  0
   58.2003   33.6968   45.0956 H   0  0  0  0  0  0  0  0  0  0  0  0
   55.2493   30.8069   43.4311 H   0  0  0  0  0  0  0  0  0  0  0  0
   56.4663   29.5377   43.0644 H   0  0  0  0  0  0  0  0  0  0  0  0
   54.7167   29.1310   43.0644 H   0  0  0  0  0  0  0  0  0  0  0  0
   55.5580   24.7714   46.5187 H   0  0  0  0  0  0  0  0  0  0  0  0
   54.6627   24.9439   44.9710 H   0  0  0  0  0  0  0  0  0  0  0  0
   56.4587   24.9135   44.9710 H   0  0  0  0  0  0  0  0  0  0  0  0
   58.9523   23.8488   47.0542 H   0  0  0  0  0  0  0  0  0  0  0  0
   57.7695   24.0531   45.7178 H   0  0  0  0  0  0  0  0  0  0  0  0
   59.2967   24.9987   45.7178 H   0  0  0  0  0  0  0  0  0  0  0  0
   59.7599   27.4190   47.5453 H   0  0  0  0  0  0  0  0  0  0  0  0
   61.9268   31.4458   47.5501 H   0  0  0  0  0  0  0  0  0  0  0  0
  1  2  1  0
  2  3  1  0
  3  4  2  0
  4  5  1  0
  5  6  2  0
  6  7  1  0
  7  8  2  0
  7  9  1  0
  9 10  2  0
 10 11  1  0
 11 12  1  0
 10 13  1  0
 13 14  1  0
 14 15  1  0
 13 16  2  0
 16 17  1  0
 17 18  1  0
 16 19  1  0
 19 20  2  0
 20 21  1  0
 21 22  1  0
 22 23  2  0
 23  3  1  0
 22  6  1  0
 20  9  1  0
  1 24  1  0
  1 25  1  0
  1 26  1  0
  4 27  1  0
  5 28  1  0
 12 29  1  0
 12 30  1  0
 12 31  1  0
 15 32  1  0
 15 33  1  0
 15 34  1  0
 18 35  1  0
 18 36  1  0
 18 37  1  0
 19 38  1  0
 23 39  1  0
M  END
>  <UniqueID>  (31) 
30

>  <SMILES>  (31) 
COc1ccc2c(=O)c3c(OC)c(OC)c(OC)cc3oc2c1

>  <Energy>  (31) 
57.31952750220094

>  <Genealogy>  (31) 
COc1ccc2c(=O)c3c(OC)c(OC)c(OC)cc3oc2c1 (3D coordinates assigned)
COc1ccc2c(=O)c3c(OC)c(OC)c(OC)cc3oc2c1 (optimized conformer: 57.31952750220094 kcal/mol)

>  <smiles>  (31) 
COc1ccc2c(=O)c3c(OC)c(OC)c(OC)cc3oc2c1

>  <score_type>  (31) 
oracle

>  <origin>  (31) 
adg

>  <m_score__min__energy>  (31) 
-6.6200000000000001

>  <m_primary>  (31) 
energy

$$$$
31:0
     RDKit          3D

 58 63  0  0  0  0  0  0  0  0999 V2000
   67.7300   33.4630   51.0520 Br  0  0  0  0  0  0  0  0  0  0  0  0
   65.8620   33.4050   50.6560 C   0  0  0  0  0  0  0  0  0  0  0  0
   64.9360   33.8280   51.6030 C   0  0  0  0  0  0  0  0  0  0  0  0
   63.5720   33.7780   51.3170 C   0  0  0  0  0  0  0  0  0  0  0  0
   63.0980   33.3230   50.0660 C   0  0  0  0  0  0  0  0  0  0  0  0
   64.0510   32.8860   49.1100 C   0  0  0  0  0  0  0  0  0  0  0  0
   65.4250   32.9390   49.4170 C   0  0  0  0  0  0  0  0  0  0  0  0
   63.6460   32.4780   47.7260 C   0  0  0  0  0  0  0  0  0  0  0  0
   62.9040   33.6290   47.0650 C   0  0  0  0  0  0  0  0  0  0  0  0
   61.4250   33.5600   47.3280 C   0  0  0  0  0  0  0  0  0  0  0  0
   60.5680   33.7790   46.2320 C   0  0  0  0  0  0  0  0  0  0  0  0
   59.1850   33.7760   46.3920 C   0  0  0  0  0  0  0  0  0  0  0  0
   58.0340   34.0680   44.8960 Br  0  0  0  0  0  0  0  0  0  0  0  0
   58.6560   33.5680   47.6560 C   0  0  0  0  0  0  0  0  0  0  0  0
   59.4840   33.3700   48.7110 N   0  0  0  0  0  0  0  0  0  0  0  0
   60.8440   33.3420   48.6130 C   0  0  0  0  0  0  0  0  0  0  0  0
   61.5870   33.1280   49.9420 C   0  0  1  0  0  0  0  0  0  0  0  0
   61.2300   31.8520   50.6170 N   0  0  0  0  0  0  0  0  0  0  0  0
   61.8410   30.6400   50.0360 C   0  0  0  0  0  0  0  0  0  0  0  0
   61.2680   29.3560   50.6710 C   0  0  0  0  0  0  0  0  0  0  0  0
   60.7220   29.5960   52.0270 N   0  0  0  0  0  0  0  0  0  0  0  0
   61.7590   29.9550   53.0230 C   0  0  0  0  0  0  0  0  0  0  0  0
   63.1050   29.4350   52.6220 C   0  0  0  0  0  0  0  0  0  0  0  0
   64.1230   30.2260   52.1980 N   0  0  0  0  0  0  0  0  0  0  0  0
   65.2110   29.4970   51.8470 C   0  0  0  0  0  0  0  0  0  0  0  0
   66.4110   30.0320   51.3710 C   0  0  0  0  0  0  0  0  0  0  0  0
   67.4570   29.1530   51.0390 C   0  0  0  0  0  0  0  0  0  0  0  0
   67.2930   27.7600   51.1850 C   0  0  0  0  0  0  0  0  0  0  0  0
   66.0820   27.2350   51.6620 C   0  0  0  0  0  0  0  0  0  0  0  0
   65.0620   28.1260   51.9850 C   0  0  0  0  0  0  0  0  0  0  0  0
   63.5190   27.7930   52.5620 S   0  0  0  0  0  0  0  0  0  0  0  0
   59.6190   30.5900   51.9950 C   0  0  0  0  0  0  0  0  0  0  0  0
   59.7970   31.6670   50.9030 C   0  0  0  0  0  0  0  0  0  0  0  0
   65.2796   34.2024   52.5786 H   0  0  0  0  0  0  0  0  0  0  0  0
   62.8496   34.0997   52.0817 H   0  0  0  0  0  0  0  0  0  0  0  0
   66.1618   32.6087   48.6700 H   0  0  0  0  0  0  0  0  0  0  0  0
   64.5421   32.2312   47.1377 H   0  0  0  0  0  0  0  0  0  0  0  0
   62.9914   31.5954   47.7765 H   0  0  0  0  0  0  0  0  0  0  0  0
   63.2928   34.5786   47.4614 H   0  0  0  0  0  0  0  0  0  0  0  0
   63.0631   33.5613   45.9787 H   0  0  0  0  0  0  0  0  0  0  0  0
   60.9977   33.9550   45.2348 H   0  0  0  0  0  0  0  0  0  0  0  0
   57.5659   33.5636   47.8030 H   0  0  0  0  0  0  0  0  0  0  0  0
   61.1857   34.0228   50.4403 H   0  0  0  0  0  0  0  0  0  0  0  0
   61.6418   30.6231   48.9543 H   0  0  0  0  0  0  0  0  0  0  0  0
   62.9224   30.6699   50.2355 H   0  0  0  0  0  0  0  0  0  0  0  0
   60.4624   28.9722   50.0279 H   0  0  0  0  0  0  0  0  0  0  0  0
   62.0891   28.6297   50.7620 H   0  0  0  0  0  0  0  0  0  0  0  0
   61.8094   31.0505   53.1082 H   0  0  0  0  0  0  0  0  0  0  0  0
   61.4854   29.5007   53.9867 H   0  0  0  0  0  0  0  0  0  0  0  0
   64.0690   31.2680   52.1410 H   0  0  0  0  0  0  0  0  0  0  0  0
   66.5348   31.1192   51.2583 H   0  0  0  0  0  0  0  0  0  0  0  0
   68.4095   29.5546   50.6629 H   0  0  0  0  0  0  0  0  0  0  0  0
   68.1184   27.0815   50.9237 H   0  0  0  0  0  0  0  0  0  0  0  0
   65.9426   26.1500   51.7774 H   0  0  0  0  0  0  0  0  0  0  0  0
   58.6747   30.0574   51.8091 H   0  0  0  0  0  0  0  0  0  0  0  0
   59.6196   31.1078   52.9655 H   0  0  0  0  0  0  0  0  0  0  0  0
   59.2795   31.3474   49.9864 H   0  0  0  0  0  0  0  0  0  0  0  0
   59.3703   32.6175   51.2558 H   0  0  0  0  0  0  0  0  0  0  0  0
  1  2  1  0
  2  3  2  0
  3  4  1  0
  4  5  2  0
  5  6  1  0
  6  7  2  0
  6  8  1  0
  8  9  1  0
  9 10  1  0
 10 11  2  0
 11 12  1  0
 12 13  1  0
 12 14  2  0
 14 15  1  0
 15 16  2  0
 16 17  1  0
 17 18  1  0
 18 19  1  0
 19 20  1  0
 20 21  1  0
 21 22  1  0
 22 23  1  0
 23 24  2  0
 24 25  1  0
 25 26  2  0
 26 27  1  0
 27 28  2  0
 28 29  1  0
 29 30  2  0
 30 31  1  0
 21 32  1  0
 32 33  1  0
  7  2  1  0
 16 10  1  0
 33 18  1  0
 17  5  1  0
 31 23  1  0
 30 25  1  0
  3 34  1  0
  4 35  1  0
  7 36  1  0
  8 37  1  0
  8 38  1  0
  9 39  1  0
  9 40  1  0
 11 41  1  0
 14 42  1  0
 17 43  1  1
 19 44  1  0
 19 45  1  0
 20 46  1  0
 20 47  1  0
 22 48  1  0
 22 49  1  0
 24 50  1  0
 26 51  1  0
 27 52  1  0
 28 53  1  0
 29 54  1  0
 32 55  1  0
 32 56  1  0
 33 57  1  0
 33 58  1  0
M  CHG  1  24   1
M  END
>  <UniqueID>  (32) 
31

>  <SMILES>  (32) 
Brc1ccc2c(c1)CCc1cc(Br)cnc1[C@H]2N1CCN(Cc2[nH+]c3ccccc3s2)CC1

>  <Energy>  (32) 
133.57536380591503

>  <Genealogy>  (32) 
Brc1ccc2c(c1)CCc1cc(Br)cnc1C2N1CCN(Cc2[nH+]c3ccccc3s2)CC1 (protonated)
Brc1ccc2c(c1)CCc1cc(Br)cnc1[C@H]2N1CCN(Cc2[nH+]c3ccccc3s2)CC1 (chirality)
Brc1ccc2c(c1)CCc1cc(Br)cnc1[C@H]2N1CCN(Cc2[nH+]c3ccccc3s2)CC1 (3D coordinates assigned)
Brc1ccc2c(c1)CCc1cc(Br)cnc1[C@H]2N1CCN(Cc2[nH+]c3ccccc3s2)CC1 (nonaromatic ring conformer: 133.57536380591503 kcal/mol)

>  <smiles>  (32) 
Brc1ccc2c(c1)CCc1cc(Br)cnc1C2N1CCN(Cc2nc3ccccc3s2)CC1

>  <score_type>  (32) 
oracle

>  <origin>  (32) 
adg

>  <m_score__min__energy>  (32) 
-6.7300000000000004

>  <m_primary>  (32) 
energy

$$$$
32:0
     RDKit          3D

 43 46  0  0  0  0  0  0  0  0999 V2000
   56.9260   23.6240   43.3610 C   0  0  0  0  0  0  0  0  0  0  0  0
   57.3980   24.9660   43.8390 C   0  0  0  0  0  0  0  0  0  0  0  0
   57.7700   25.9520   42.9150 C   0  0  0  0  0  0  0  0  0  0  0  0
   58.1650   27.2160   43.3560 C   0  0  0  0  0  0  0  0  0  0  0  0
   58.1830   27.5170   44.7250 C   0  0  0  0  0  0  0  0  0  0  0  0
   58.5790   28.8330   45.1490 N   0  0  0  0  0  0  0  0  0  0  0  0
   59.8600   29.0280   45.5990 C   0  0  0  0  0  0  0  0  0  0  0  0
   60.2780   30.2590   46.0150 N   0  0  0  0  0  0  0  0  0  0  0  0
   59.4120   31.3100   45.9960 C   0  0  0  0  0  0  0  0  0  0  0  0
   58.1230   31.1340   45.5130 C   0  0  0  0  0  0  0  0  0  0  0  0
   57.2730   32.5920   45.5100 S   0  0  0  0  0  0  0  0  0  0  0  0
   58.5700   33.4610   46.1440 C   0  0  0  0  0  0  0  0  0  0  0  0
   58.5860   34.7900   46.3960 N   0  0  0  0  0  0  0  0  0  0  0  0
   59.7160   35.3520   46.9050 C   0  0  0  0  0  0  0  0  0  0  0  0
   60.8090   34.5790   47.1740 N   0  0  0  0  0  0  0  0  0  0  0  0
   60.8200   33.2360   46.9330 C   0  0  0  0  0  0  0  0  0  0  0  0
   61.9680   32.4710   47.3120 N   0  0  0  0  0  0  0  0  0  0  0  0
   63.2900   32.9230   46.8810 C   0  0  0  0  0  0  0  0  0  0  0  0
   61.8470   31.4900   48.3890 C   0  0  0  0  0  0  0  0  0  0  0  0
   59.6690   32.6440   46.3780 C   0  0  0  0  0  0  0  0  0  0  0  0
   57.6990   29.8830   45.0850 C   0  0  0  0  0  0  0  0  0  0  0  0
   56.5290   29.7250   44.6380 O   0  0  0  0  0  0  0  0  0  0  0  0
   57.8150   26.5300   45.6640 C   0  0  0  0  0  0  0  0  0  0  0  0
   57.8150   26.8250   47.1390 C   0  0  0  0  0  0  0  0  0  0  0  0
   57.4020   25.2660   45.2100 C   0  0  0  0  0  0  0  0  0  0  0  0
   56.7011   22.9845   44.2273 H   0  0  0  0  0  0  0  0  0  0  0  0
   56.0182   23.7499   42.7527 H   0  0  0  0  0  0  0  0  0  0  0  0
   57.7127   23.1539   42.7527 H   0  0  0  0  0  0  0  0  0  0  0  0
   57.7506   25.7288   41.8381 H   0  0  0  0  0  0  0  0  0  0  0  0
   58.4642   27.9810   42.6244 H   0  0  0  0  0  0  0  0  0  0  0  0
   60.5604   28.1802   45.6250 H   0  0  0  0  0  0  0  0  0  0  0  0
   61.2680   30.3640   46.3170 H   0  0  0  0  0  0  0  0  0  0  0  0
   59.7491   36.4340   47.1006 H   0  0  0  0  0  0  0  0  0  0  0  0
   63.9108   33.1353   47.7639 H   0  0  0  0  0  0  0  0  0  0  0  0
   63.7675   32.1371   46.2774 H   0  0  0  0  0  0  0  0  0  0  0  0
   63.1863   33.8367   46.2774 H   0  0  0  0  0  0  0  0  0  0  0  0
   61.9102   32.0023   49.3604 H   0  0  0  0  0  0  0  0  0  0  0  0
   60.8785   30.9747   48.3085 H   0  0  0  0  0  0  0  0  0  0  0  0
   62.6613   30.7548   48.3085 H   0  0  0  0  0  0  0  0  0  0  0  0
   58.8521   26.8969   47.4985 H   0  0  0  0  0  0  0  0  0  0  0  0
   57.2965   27.7776   47.3224 H   0  0  0  0  0  0  0  0  0  0  0  0
   57.2965   26.0162   47.6747 H   0  0  0  0  0  0  0  0  0  0  0  0
   57.0790   24.5049   45.9355 H   0  0  0  0  0  0  0  0  0  0  0  0
  1  2  1  0
  2  3  2  0
  3  4  1  0
  4  5  2  0
  5  6  1  0
  6  7  1  0
  7  8  2  0
  8  9  1  0
  9 10  2  0
 10 11  1  0
 11 12  1  0
 12 13  2  0
 13 14  1  0
 14 15  2  0
 15 16  1  0
 16 17  1  0
 17 18  1  0
 17 19  1  0
 16 20  2  0
 10 21  1  0
 21 22  2  0
  5 23  1  0
 23 24  1  0
 23 25  2  0
 25  2  1  0
 21  6  1  0
 20  9  1  0
 20 12  1  0
  1 26  1  0
  1 27  1  0
  1 28  1  0
  3 29  1  0
  4 30  1  0
  7 31  1  0
  8 32  1  0
 14 33  1  0
 18 34  1  0
 18 35  1  0
 18 36  1  0
 19 37  1  0
 19 38  1  0
 19 39  1  0
 24 40  1  0
 24 41  1  0
 24 42  1  0
 25 43  1  0
M  CHG  1   8   1
M  END
>  <UniqueID>  (33) 
32

>  <SMILES>  (33) 
Cc1ccc(-n2c[nH+]c3c(sc4ncnc(N(C)C)c43)c2=O)c(C)c1

>  <Energy>  (33) 
101.22495529334522

>  <Genealogy>  (33) 
Cc1ccc(-n2c[nH+]c3c(sc4ncnc(N(C)C)c43)c2=O)c(C)c1 (protonated)
Cc1ccc(-n2c[nH+]c3c(sc4ncnc(N(C)C)c43)c2=O)c(C)c1 (3D coordinates assigned)
Cc1ccc(-n2c[nH+]c3c(sc4ncnc(N(C)C)c43)c2=O)c(C)c1 (optimized conformer: 101.22495529334522 kcal/mol)

>  <smiles>  (33) 
Cc1ccc(-n2cnc3c(sc4ncnc(N(C)C)c43)c2=O)c(C)c1

>  <score_type>  (33) 
oracle

>  <origin>  (33) 
adg

>  <m_score__min__energy>  (33) 
-6.3499999999999996

>  <m_primary>  (33) 
energy

$$$$
33:0
     RDKit          3D

 48 50  0  0  0  0  0  0  0  0999 V2000
   57.6550   31.9660   51.5700 C   0  0  0  0  0  0  0  0  0  0  0  0
   58.2210   33.1140   51.9490 C   0  0  0  0  0  0  0  0  0  0  0  0
   59.7240   33.2980   51.9620 C   0  0  0  0  0  0  0  0  0  0  0  0
   60.3510   33.1460   50.6220 N   0  0  2  0  0  0  0  0  0  0  0  0
   61.8340   33.0710   50.6960 C   0  0  0  0  0  0  0  0  0  0  0  0
   62.4690   32.9470   49.3290 C   0  0  0  0  0  0  0  0  0  0  0  0
   62.4180   31.7250   48.6360 C   0  0  0  0  0  0  0  0  0  0  0  0
   63.0160   31.6030   47.3780 C   0  0  0  0  0  0  0  0  0  0  0  0
   63.6670   32.6980   46.8030 C   0  0  0  0  0  0  0  0  0  0  0  0
   63.7180   33.9170   47.4840 C   0  0  0  0  0  0  0  0  0  0  0  0
   63.1200   34.0440   48.7410 C   0  0  0  0  0  0  0  0  0  0  0  0
   59.9140   34.2260   49.6990 C   0  0  0  0  0  0  0  0  0  0  0  0
   59.3890   33.6740   48.3920 C   0  0  0  0  0  0  0  0  0  0  0  0
   58.8800   32.3680   48.3320 C   0  0  0  0  0  0  0  0  0  0  0  0
   58.4130   31.8450   47.1240 C   0  0  0  0  0  0  0  0  0  0  0  0
   58.4460   32.6190   45.9510 C   0  0  0  0  0  0  0  0  0  0  0  0
   57.9530   32.0630   44.6650 C   0  0  0  0  0  0  0  0  0  0  0  0
   57.2130   30.8650   44.6390 C   0  0  0  0  0  0  0  0  0  0  0  0
   56.7500   30.3430   43.4280 C   0  0  0  0  0  0  0  0  0  0  0  0
   57.0180   31.0100   42.2300 C   0  0  0  0  0  0  0  0  0  0  0  0
   57.7500   32.2000   42.2410 C   0  0  0  0  0  0  0  0  0  0  0  0
   58.2160   32.7240   43.4510 C   0  0  0  0  0  0  0  0  0  0  0  0
   58.9570   33.9280   46.0150 C   0  0  0  0  0  0  0  0  0  0  0  0
   59.4240   34.4500   47.2230 C   0  0  0  0  0  0  0  0  0  0  0  0
   56.5596   31.8658   51.5723 H   0  0  0  0  0  0  0  0  0  0  0  0
   58.2840   31.1202   51.2554 H   0  0  0  0  0  0  0  0  0  0  0  0
   57.5775   33.9499   52.2607 H   0  0  0  0  0  0  0  0  0  0  0  0
   59.9482   34.3067   52.3391 H   0  0  0  0  0  0  0  0  0  0  0  0
   60.1413   32.5100   52.6062 H   0  0  0  0  0  0  0  0  0  0  0  0
   59.9960   32.2380   50.2390 H   0  0  0  0  0  0  0  0  0  0  0  0
   62.2111   33.9839   51.1802 H   0  0  0  0  0  0  0  0  0  0  0  0
   62.0982   32.1729   51.2736 H   0  0  0  0  0  0  0  0  0  0  0  0
   61.9057   30.8614   49.0851 H   0  0  0  0  0  0  0  0  0  0  0  0
   62.9741   30.6443   46.8403 H   0  0  0  0  0  0  0  0  0  0  0  0
   64.1392   32.6001   45.8143 H   0  0  0  0  0  0  0  0  0  0  0  0
   64.2297   34.7784   47.0300 H   0  0  0  0  0  0  0  0  0  0  0  0
   63.1594   35.0067   49.2717 H   0  0  0  0  0  0  0  0  0  0  0  0
   59.1169   34.8079   50.1848 H   0  0  0  0  0  0  0  0  0  0  0  0
   60.7868   34.8573   49.4760 H   0  0  0  0  0  0  0  0  0  0  0  0
   58.8485   31.7517   49.2426 H   0  0  0  0  0  0  0  0  0  0  0  0
   58.0163   30.8196   47.0903 H   0  0  0  0  0  0  0  0  0  0  0  0
   56.9978   30.3360   45.5791 H   0  0  0  0  0  0  0  0  0  0  0  0
   56.1739   29.4060   43.4181 H   0  0  0  0  0  0  0  0  0  0  0  0
   56.6526   30.5981   41.2777 H   0  0  0  0  0  0  0  0  0  0  0  0
   57.9599   32.7250   41.2974 H   0  0  0  0  0  0  0  0  0  0  0  0
   58.7929   33.6606   43.4537 H   0  0  0  0  0  0  0  0  0  0  0  0
   58.9890   34.5458   45.1055 H   0  0  0  0  0  0  0  0  0  0  0  0
   59.8215   35.4750   47.2586 H   0  0  0  0  0  0  0  0  0  0  0  0
  1  2  2  0
  2  3  1  0
  3  4  1  0
  4  5  1  0
  5  6  1  0
  6  7  2  0
  7  8  1  0
  8  9  2  0
  9 10  1  0
 10 11  2  0
  4 12  1  0
 12 13  1  0
 13 14  2  0
 14 15  1  0
 15 16  2  0
 16 17  1  0
 17 18  2  0
 18 19  1  0
 19 20  2  0
 20 21  1  0
 21 22  2  0
 16 23  1  0
 23 24  2  0
 11  6  1  0
 24 13  1  0
 22 17  1  0
  1 25  1  0
  1 26  1  0
  2 27  1  0
  3 28  1  0
  3 29  1  0
  4 30  1  6
  5 31  1  0
  5 32  1  0
  7 33  1  0
  8 34  1  0
  9 35  1  0
 10 36  1  0
 11 37  1  0
 12 38  1  0
 12 39  1  0
 14 40  1  0
 15 41  1  0
 18 42  1  0
 19 43  1  0
 20 44  1  0
 21 45  1  0
 22 46  1  0
 23 47  1  0
 24 48  1  0
M  CHG  1   4   1
M  END
>  <UniqueID>  (34) 
33

>  <SMILES>  (34) 
C=CC[N@H+](Cc1ccccc1)Cc1ccc(-c2ccccc2)cc1

>  <Energy>  (34) 
58.27620268233283

>  <Genealogy>  (34) 
C=CC[NH+](Cc1ccccc1)Cc1ccc(-c2ccccc2)cc1 (protonated)
C=CC[N@H+](Cc1ccccc1)Cc1ccc(-c2ccccc2)cc1 (chirality)
C=CC[N@H+](Cc1ccccc1)Cc1ccc(-c2ccccc2)cc1 (3D coordinates assigned)
C=CC[N@H+](Cc1ccccc1)Cc1ccc(-c2ccccc2)cc1 (optimized conformer: 58.27620268233283 kcal/mol)

>  <smiles>  (34) 
C=CCN(Cc1ccccc1)Cc1ccc(-c2ccccc2)cc1

>  <score_type>  (34) 
oracle

>  <origin>  (34) 
adg

>  <m_score__min__energy>  (34) 
-6.3200000000000003

>  <m_primary>  (34) 
energy

$$$$
34:0
     RDKit          3D

 43 45  0  0  0  0  0  0  0  0999 V2000
   56.5870   20.4260   45.8880 C   0  0  0  0  0  0  0  0  0  0  0  0
   57.5860   20.3490   44.8150 N   0  0  0  0  0  0  0  0  0  0  0  0
   57.7840   21.6390   44.1350 C   0  0  0  0  0  0  0  0  0  0  0  0
   56.4760   22.2010   43.5500 C   0  0  0  0  0  0  0  0  0  0  0  0
   55.9130   23.2300   44.4400 N   0  0  0  0  0  0  0  0  0  0  0  0
   54.7250   22.9170   45.2480 C   0  0  0  0  0  0  0  0  0  0  0  0
   54.9220   23.4240   46.6760 C   0  0  0  0  0  0  0  0  0  0  0  0
   55.2800   24.8060   46.6600 O   0  0  0  0  0  0  0  0  0  0  0  0
   56.1500   25.3270   45.6960 C   0  0  0  0  0  0  0  0  0  0  0  0
   56.6580   26.6190   45.8480 C   0  0  0  0  0  0  0  0  0  0  0  0
   57.5310   27.1570   44.8910 C   0  0  0  0  0  0  0  0  0  0  0  0
   58.0830   28.5180   45.0750 C   0  0  0  0  0  0  0  0  0  0  0  0
   59.3040   28.7920   45.6690 C   0  0  0  0  0  0  0  0  0  0  0  0
   59.4690   30.1610   45.6250 C   0  0  0  0  0  0  0  0  0  0  0  0
   58.3390   30.6680   45.0190 C   0  0  0  0  0  0  0  0  0  0  0  0
   58.1060   32.0670   44.7670 C   0  0  0  0  0  0  0  0  0  0  0  0
   57.9190   33.1920   44.5660 N   0  0  0  0  0  0  0  0  0  0  0  0
   57.4840   29.6730   44.6960 N   0  0  0  0  0  0  0  0  0  0  0  0
   56.1740   29.8330   44.0630 C   0  0  0  0  0  0  0  0  0  0  0  0
   57.9080   26.3710   43.7900 C   0  0  0  0  0  0  0  0  0  0  0  0
   57.3930   25.0820   43.6270 C   0  0  0  0  0  0  0  0  0  0  0  0
   56.5000   24.5480   44.5760 C   0  0  0  0  0  0  0  0  0  0  0  0
   57.0933   20.3870   46.8638 H   0  0  0  0  0  0  0  0  0  0  0  0
   56.0286   21.3698   45.8021 H   0  0  0  0  0  0  0  0  0  0  0  0
   55.8906   19.5789   45.8021 H   0  0  0  0  0  0  0  0  0  0  0  0
   58.4970   20.0580   45.2430 H   0  0  0  0  0  0  0  0  0  0  0  0
   57.3030   19.6130   44.1270 H   0  0  0  0  0  0  0  0  0  0  0  0
   58.1863   22.3622   44.8597 H   0  0  0  0  0  0  0  0  0  0  0  0
   58.4812   21.4744   43.3002 H   0  0  0  0  0  0  0  0  0  0  0  0
   56.6819   22.6470   42.5658 H   0  0  0  0  0  0  0  0  0  0  0  0
   55.7497   21.3809   43.4504 H   0  0  0  0  0  0  0  0  0  0  0  0
   53.8437   23.4046   44.8057 H   0  0  0  0  0  0  0  0  0  0  0  0
   54.5753   21.8274   45.2668 H   0  0  0  0  0  0  0  0  0  0  0  0
   53.9860   23.2970   47.2397 H   0  0  0  0  0  0  0  0  0  0  0  0
   55.7279   22.8484   47.1549 H   0  0  0  0  0  0  0  0  0  0  0  0
   56.3715   27.2189   46.7244 H   0  0  0  0  0  0  0  0  0  0  0  0
   60.0063   28.0596   46.0937 H   0  0  0  0  0  0  0  0  0  0  0  0
   60.3304   30.7339   45.9989 H   0  0  0  0  0  0  0  0  0  0  0  0
   55.4006   29.9275   44.8395 H   0  0  0  0  0  0  0  0  0  0  0  0
   56.1773   30.7374   43.4369 H   0  0  0  0  0  0  0  0  0  0  0  0
   55.9595   28.9544   43.4369 H   0  0  0  0  0  0  0  0  0  0  0  0
   58.6148   26.7734   43.0494 H   0  0  0  0  0  0  0  0  0  0  0  0
   57.6866   24.4817   42.7532 H   0  0  0  0  0  0  0  0  0  0  0  0
  1  2  1  0
  2  3  1  0
  3  4  1  0
  4  5  1  0
  5  6  1  0
  6  7  1  0
  7  8  1  0
  8  9  1  0
  9 10  2  0
 10 11  1  0
 11 12  1  0
 12 13  2  0
 13 14  1  0
 14 15  2  0
 15 16  1  0
 16 17  3  0
 15 18  1  0
 18 19  1  0
 11 20  2  0
 20 21  1  0
 21 22  2  0
 22  5  1  0
 22  9  1  0
 18 12  1  0
  1 23  1  0
  1 24  1  0
  1 25  1  0
  2 26  1  0
  2 27  1  0
  3 28  1  0
  3 29  1  0
  4 30  1  0
  4 31  1  0
  6 32  1  0
  6 33  1  0
  7 34  1  0
  7 35  1  0
 10 36  1  0
 13 37  1  0
 14 38  1  0
 19 39  1  0
 19 40  1  0
 19 41  1  0
 20 42  1  0
 21 43  1  0
M  CHG  1   2   1
M  END
>  <UniqueID>  (35) 
34

>  <SMILES>  (35) 
C[NH2+]CCN1CCOc2cc(-c3ccc(C#N)n3C)ccc21

>  <Energy>  (35) 
73.9982321106495

>  <Genealogy>  (35) 
C[NH2+]CCN1CCOc2cc(-c3ccc(C#N)n3C)ccc21 (protonated)
C[NH2+]CCN1CCOc2cc(-c3ccc(C#N)n3C)ccc21 (3D coordinates assigned)
C[NH2+]CCN1CCOc2cc(-c3ccc(C#N)n3C)ccc21 (nonaromatic ring conformer: 73.9982321106495 kcal/mol)

>  <smiles>  (35) 
CNCCN1CCOc2cc(-c3ccc(C#N)n3C)ccc21

>  <score_type>  (35) 
oracle

>  <origin>  (35) 
adg

>  <m_score__min__energy>  (35) 
-6.1299999999999999

>  <m_primary>  (35) 
energy

$$$$
35:0
     RDKit          3D

 38 40  0  0  0  0  0  0  0  0999 V2000
   58.2360   27.1330   43.1560 C   0  0  0  0  0  0  0  0  0  0  0  0
   58.4690   27.6750   44.5630 C   0  0  0  0  0  0  0  0  0  0  0  0
   57.9300   29.0900   44.6890 C   0  0  0  0  0  0  0  0  0  0  0  0
   56.9580   29.4790   43.7550 C   0  0  0  0  0  0  0  0  0  0  0  0
   56.4790   30.7780   43.7260 C   0  0  0  0  0  0  0  0  0  0  0  0
   57.0010   31.7330   44.5860 C   0  0  0  0  0  0  0  0  0  0  0  0
   58.0020   31.4070   45.5220 C   0  0  0  0  0  0  0  0  0  0  0  0
   58.4340   30.0410   45.6350 C   0  0  0  0  0  0  0  0  0  0  0  0
   59.3820   29.5240   46.7190 C   0  0  0  0  0  0  0  0  0  0  0  0
   59.6570   30.4410   47.9080 C   0  0  0  0  0  0  0  0  0  0  0  0
   60.5310   31.5810   47.4880 C   0  0  0  0  0  0  0  0  0  0  0  0
   61.8810   31.6310   47.8720 C   0  0  0  0  0  0  0  0  0  0  0  0
   62.6920   32.7080   47.4920 C   0  0  0  0  0  0  0  0  0  0  0  0
   64.0320   32.7110   47.9050 O   0  0  0  0  0  0  0  0  0  0  0  0
   64.4670   33.0570   49.2170 C   0  0  0  0  0  0  0  0  0  0  0  0
   62.1380   33.7440   46.7170 C   0  0  0  0  0  0  0  0  0  0  0  0
   60.7980   33.6880   46.3250 C   0  0  0  0  0  0  0  0  0  0  0  0
   59.9960   32.5970   46.6890 C   0  0  0  0  0  0  0  0  0  0  0  0
   58.5840   32.5560   46.2740 C   0  0  0  0  0  0  0  0  0  0  0  0
   57.8740   33.5760   46.4960 O   0  0  0  0  0  0  0  0  0  0  0  0
   57.8023   26.1241   43.2189 H   0  0  0  0  0  0  0  0  0  0  0  0
   57.5437   27.7968   42.6173 H   0  0  0  0  0  0  0  0  0  0  0  0
   59.1940   27.0874   42.6173 H   0  0  0  0  0  0  0  0  0  0  0  0
   57.9561   27.0272   45.2891 H   0  0  0  0  0  0  0  0  0  0  0  0
   59.5507   27.6894   44.7620 H   0  0  0  0  0  0  0  0  0  0  0  0
   56.5711   28.7420   43.0359 H   0  0  0  0  0  0  0  0  0  0  0  0
   55.6824   31.0533   43.0191 H   0  0  0  0  0  0  0  0  0  0  0  0
   56.6257   32.7658   44.5361 H   0  0  0  0  0  0  0  0  0  0  0  0
   58.9538   28.5910   47.1141 H   0  0  0  0  0  0  0  0  0  0  0  0
   60.3540   29.4179   46.2151 H   0  0  0  0  0  0  0  0  0  0  0  0
   58.7043   30.8352   48.2912 H   0  0  0  0  0  0  0  0  0  0  0  0
   60.1683   29.8666   48.6945 H   0  0  0  0  0  0  0  0  0  0  0  0
   62.3056   30.8164   48.4771 H   0  0  0  0  0  0  0  0  0  0  0  0
   63.8316   32.5516   49.9592 H   0  0  0  0  0  0  0  0  0  0  0  0
   65.5117   32.7403   49.3523 H   0  0  0  0  0  0  0  0  0  0  0  0
   64.3935   34.1462   49.3523 H   0  0  0  0  0  0  0  0  0  0  0  0
   62.7615   34.5999   46.4191 H   0  0  0  0  0  0  0  0  0  0  0  0
   60.3693   34.5055   45.7267 H   0  0  0  0  0  0  0  0  0  0  0  0
  1  2  1  0
  2  3  1  0
  3  4  2  0
  4  5  1  0
  5  6  2  0
  6  7  1  0
  7  8  2  0
  8  9  1  0
  9 10  1  0
 10 11  1  0
 11 12  2  0
 12 13  1  0
 13 14  1  0
 14 15  1  0
 13 16  2  0
 16 17  1  0
 17 18  2  0
 18 19  1  0
 19 20  2  0
  8  3  1  0
 18 11  1  0
 19  7  1  0
  1 21  1  0
  1 22  1  0
  1 23  1  0
  2 24  1  0
  2 25  1  0
  4 26  1  0
  5 27  1  0
  6 28  1  0
  9 29  1  0
  9 30  1  0
 10 31  1  0
 10 32  1  0
 12 33  1  0
 15 34  1  0
 15 35  1  0
 15 36  1  0
 16 37  1  0
 17 38  1  0
M  END
>  <UniqueID>  (36) 
35

>  <SMILES>  (36) 
CCc1cccc2c1CCc1cc(OC)ccc1C2=O

>  <Energy>  (36) 
58.252092782575346

>  <Genealogy>  (36) 
CCc1cccc2c1CCc1cc(OC)ccc1C2=O (3D coordinates assigned)
CCc1cccc2c1CCc1cc(OC)ccc1C2=O (nonaromatic ring conformer: 58.252092782575346 kcal/mol)

>  <smiles>  (36) 
CCc1cccc2c1CCc1cc(OC)ccc1C2=O

>  <score_type>  (36) 
oracle

>  <origin>  (36) 
adg

>  <m_score__min__energy>  (36) 
-6.2400000000000002

>  <m_primary>  (36) 
energy

$$$$
36:0
     RDKit          3D

 37 38  0  0  0  0  0  0  0  0999 V2000
   58.3601   27.5238   46.5460 H   0  0  0  0  0  0  0  0  0  0  0  0
   57.7440   26.6410   46.3200 C   0  0  0  0  0  0  0  0  0  0  0  0
   56.3230   26.8350   45.9590 C   0  0  0  0  0  0  0  0  0  0  0  0
   55.4570   25.9990   46.3310 O   0  0  0  0  0  0  0  0  0  0  0  0
   55.8880   28.0050   45.2560 N   0  0  0  0  0  0  0  0  0  0  0  0
   56.6280   29.2220   45.0880 C   0  0  0  0  0  0  0  0  0  0  0  0
   57.6470   29.5970   45.9800 C   0  0  0  0  0  0  0  0  0  0  0  0
   57.8810   28.9583   46.8445 H   0  0  0  0  0  0  0  0  0  0  0  0
   58.3640   30.7780   45.7730 C   0  0  0  0  0  0  0  0  0  0  0  0
   59.1526   31.0682   46.4828 H   0  0  0  0  0  0  0  0  0  0  0  0
   58.0880   31.5960   44.6700 C   0  0  0  0  0  0  0  0  0  0  0  0
   58.8290   32.7760   44.5120 O   0  0  0  0  0  0  0  0  0  0  0  0
   58.4960   34.0210   45.1200 C   0  0  0  0  0  0  0  0  0  0  0  0
   58.5246   33.9139   46.2144 H   0  0  0  0  0  0  0  0  0  0  0  0
   59.2208   34.7872   44.8075 H   0  0  0  0  0  0  0  0  0  0  0  0
   57.4855   34.3230   44.8075 H   0  0  0  0  0  0  0  0  0  0  0  0
   57.0870   31.2040   43.7600 C   0  0  0  0  0  0  0  0  0  0  0  0
   56.8669   31.8312   42.8836 H   0  0  0  0  0  0  0  0  0  0  0  0
   56.3720   30.0200   43.9670 C   0  0  0  0  0  0  0  0  0  0  0  0
   55.6025   29.7135   43.2432 H   0  0  0  0  0  0  0  0  0  0  0  0
   58.3060   25.4270   46.3810 C   0  0  0  0  0  0  0  0  0  0  0  0
   59.3966   25.3542   46.5050 H   0  0  0  0  0  0  0  0  0  0  0  0
   57.5160   24.1810   46.2880 C   0  0  0  0  0  0  0  0  0  0  0  0
   57.5920   23.3180   47.2080 O   0  0  0  0  0  0  0  0  0  0  0  0
   56.7400   23.9220   45.0920 N   0  0  2  0  0  0  0  0  0  0  0  0
   55.9860   24.6340   44.9430 H   0  0  0  0  0  0  0  0  0  0  0  0
   56.2250   22.5450   45.0290 C   0  0  0  0  0  0  0  0  0  0  0  0
   56.5413   21.9198   45.8769 H   0  0  0  0  0  0  0  0  0  0  0  0
   55.1376   22.3820   45.0607 H   0  0  0  0  0  0  0  0  0  0  0  0
   56.9770   22.2440   43.7400 C   0  0  1  0  0  0  0  0  0  0  0  0
   57.6333   21.3703   43.6138 H   0  0  0  0  0  0  0  0  0  0  0  0
   56.0870   22.0510   42.5930 N   0  0  0  0  0  0  0  0  0  0  0  0
   56.3520   22.7510   41.8630 H   0  0  0  0  0  0  0  0  0  0  0  0
   55.0950   22.2500   42.8620 H   0  0  0  0  0  0  0  0  0  0  0  0
   57.5130   23.6660   43.8630 C   0  0  0  0  0  0  0  0  0  0  0  0
   58.6019   23.7133   44.0116 H   0  0  0  0  0  0  0  0  0  0  0  0
   57.4036   24.3531   43.0110 H   0  0  0  0  0  0  0  0  0  0  0  0
  1  2  1  0
  2  3  1  0
  3  4  2  0
  3  5  1  0
  5  6  1  0
  6  7  2  0
  7  8  1  0
  7  9  1  0
  9 10  1  0
  9 11  2  0
 11 12  1  0
 12 13  1  0
 13 14  1  0
 13 15  1  0
 13 16  1  0
 11 17  1  0
 17 18  1  0
 17 19  2  0
 19 20  1  0
  2 21  2  0
 21 22  1  0
 21 23  1  0
 23 24  2  0
 23 25  1  0
 25 26  1  6
 25 27  1  0
 27 28  1  0
 27 29  1  0
 27 30  1  0
 30 31  1  1
 30 32  1  0
 32 33  1  0
 32 34  1  0
 30 35  1  0
 35 36  1  0
 35 37  1  0
 19  6  1  0
 35 25  1  0
M  CHG  2   5  -1  25   1
M  END
>  <UniqueID>  (37) 
36

>  <SMILES>  (37) 
COc1ccc([N-]C(=O)/C=C/C(=O)[NH+]2CC(N)C2)cc1

>  <Energy>  (37) 
115.02226403995613

>  <Genealogy>  (37) 
COc1ccc([N-]C(=O)C=CC(=O)[NH+]2CC(N)C2)cc1 (protonated)
COc1ccc([N-]C(=O)/C=C/C(=O)[NH+]2CC(N)C2)cc1 (cis-trans isomerization)
COc1ccc([N-]C(=O)/C=C/C(=O)[NH+]2CC(N)C2)cc1 (3D coordinates assigned)
COc1ccc([N-]C(=O)/C=C/C(=O)[NH+]2CC(N)C2)cc1 (nonaromatic ring conformer: 115.02226403995613 kcal/mol)

>  <smiles>  (37) 
COc1ccc(NC(=O)C=CC(=O)N2CC(N)C2)cc1

>  <score_type>  (37) 
oracle

>  <origin>  (37) 
adg

>  <m_score__min__energy>  (37) 
-6.6100000000000003

>  <m_primary>  (37) 
energy

$$$$
37:0
     RDKit          3D

 37 39  0  0  0  0  0  0  0  0999 V2000
   55.1600   29.3300   44.8510 O   0  0  0  0  0  0  0  0  0  0  0  0
   56.2960   29.5250   44.3390 C   0  0  0  0  0  0  0  0  0  0  0  0
   57.3030   28.4210   44.3290 C   0  0  0  0  0  0  0  0  0  0  0  0
   57.5320   27.7300   46.0050 S   0  0  0  0  0  0  0  0  0  0  0  0
   58.7400   28.9560   46.5110 C   0  0  0  0  0  0  0  0  0  0  0  0
   59.8790   29.1900   45.7440 C   0  0  0  0  0  0  0  0  0  0  0  0
   60.8010   30.1440   46.1710 C   0  0  0  0  0  0  0  0  0  0  0  0
   60.5640   30.8470   47.3630 C   0  0  0  0  0  0  0  0  0  0  0  0
   61.5050   31.8780   47.8730 C   0  0  0  0  0  0  0  0  0  0  0  0
   62.6920   32.1890   47.1830 C   0  0  0  0  0  0  0  0  0  0  0  0
   63.5570   33.1540   47.6990 C   0  0  0  0  0  0  0  0  0  0  0  0
   63.2470   33.7980   48.8950 C   0  0  0  0  0  0  0  0  0  0  0  0
   62.0700   33.4630   49.5640 C   0  0  0  0  0  0  0  0  0  0  0  0
   61.2340   32.5190   49.0510 N   0  0  0  0  0  0  0  0  0  0  0  0
   59.4230   30.5840   48.0580 N   0  0  0  0  0  0  0  0  0  0  0  0
   58.5420   29.6710   47.6480 N   0  0  0  0  0  0  0  0  0  0  0  0
   56.6170   30.7820   43.7290 N   0  0  0  0  0  0  0  0  0  0  0  0
   57.3990   31.8310   44.3160 C   0  0  0  0  0  0  0  0  0  0  0  0
   57.4170   31.9580   45.7110 C   0  0  0  0  0  0  0  0  0  0  0  0
   58.1460   32.9850   46.3200 C   0  0  0  0  0  0  0  0  0  0  0  0
   58.8530   33.9020   45.5360 C   0  0  0  0  0  0  0  0  0  0  0  0
   59.8450   35.3060   46.3680 Br  0  0  0  0  0  0  0  0  0  0  0  0
   58.8210   33.7970   44.1420 C   0  0  0  0  0  0  0  0  0  0  0  0
   58.0940   32.7720   43.5310 C   0  0  0  0  0  0  0  0  0  0  0  0
   56.9562   27.6236   43.6552 H   0  0  0  0  0  0  0  0  0  0  0  0
   58.2649   28.8266   43.9822 H   0  0  0  0  0  0  0  0  0  0  0  0
   60.0486   28.6290   44.8131 H   0  0  0  0  0  0  0  0  0  0  0  0
   61.7064   30.3444   45.5793 H   0  0  0  0  0  0  0  0  0  0  0  0
   62.9360   31.6739   46.2422 H   0  0  0  0  0  0  0  0  0  0  0  0
   64.4833   33.4064   47.1620 H   0  0  0  0  0  0  0  0  0  0  0  0
   63.9229   34.5619   49.3069 H   0  0  0  0  0  0  0  0  0  0  0  0
   61.8162   33.9636   50.5100 H   0  0  0  0  0  0  0  0  0  0  0  0
   60.3580   32.3020   49.5790 H   0  0  0  0  0  0  0  0  0  0  0  0
   56.8541   31.2454   46.3317 H   0  0  0  0  0  0  0  0  0  0  0  0
   58.1631   33.0713   47.4165 H   0  0  0  0  0  0  0  0  0  0  0  0
   59.3697   34.5234   43.5246 H   0  0  0  0  0  0  0  0  0  0  0  0
   58.0643   32.6996   42.4338 H   0  0  0  0  0  0  0  0  0  0  0  0
  1  2  2  0
  2  3  1  0
  3  4  1  0
  4  5  1  0
  5  6  2  0
  6  7  1  0
  7  8  2  0
  8  9  1  0
  9 10  2  0
 10 11  1  0
 11 12  2  0
 12 13  1  0
 13 14  2  0
  8 15  1  0
 15 16  2  0
  2 17  1  0
 17 18  1  0
 18 19  2  0
 19 20  1  0
 20 21  2  0
 21 22  1  0
 21 23  1  0
 23 24  2  0
 16  5  1  0
 24 18  1  0
 14  9  1  0
  3 25  1  0
  3 26  1  0
  6 27  1  0
  7 28  1  0
 10 29  1  0
 11 30  1  0
 12 31  1  0
 13 32  1  0
 14 33  1  0
 19 34  1  0
 20 35  1  0
 23 36  1  0
 24 37  1  0
M  CHG  2  14   1  17  -1
M  END
>  <UniqueID>  (38) 
37

>  <SMILES>  (38) 
O=C(CSc1ccc(-c2cccc[nH+]2)nn1)[N-]c1ccc(Br)cc1

>  <Energy>  (38) 
42.66874964286336

>  <Genealogy>  (38) 
O=C(CSc1ccc(-c2cccc[nH+]2)nn1)[N-]c1ccc(Br)cc1 (protonated)
O=C(CSc1ccc(-c2cccc[nH+]2)nn1)[N-]c1ccc(Br)cc1 (3D coordinates assigned)
O=C(CSc1ccc(-c2cccc[nH+]2)nn1)[N-]c1ccc(Br)cc1 (optimized conformer: 42.66874964286336 kcal/mol)

>  <smiles>  (38) 
O=C(CSc1ccc(-c2ccccn2)nn1)Nc1ccc(Br)cc1

>  <score_type>  (38) 
oracle

>  <origin>  (38) 
adg

>  <m_score__min__energy>  (38) 
-8.3100000000000005

>  <m_primary>  (38) 
energy

$$$$
38:0
     RDKit          3D

 46 48  0  0  0  0  0  0  0  0999 V2000
   63.3920   33.9330   46.0050 C   0  0  0  0  0  0  0  0  0  0  0  0
   63.7620   33.9270   47.4830 C   0  0  0  0  0  0  0  0  0  0  0  0
   62.9950   32.8650   48.1840 N   0  0  0  0  0  0  0  0  0  0  0  0
   63.1830   31.5390   47.5540 C   0  0  0  0  0  0  0  0  0  0  0  0
   61.8450   30.9430   47.1210 C   0  0  0  0  0  0  0  0  0  0  0  0
   63.3200   32.8090   49.6280 C   0  0  0  0  0  0  0  0  0  0  0  0
   62.3820   33.7120   50.4410 C   0  0  0  0  0  0  0  0  0  0  0  0
   61.5070   34.4420   49.5820 O   0  0  0  0  0  0  0  0  0  0  0  0
   60.1450   34.1520   49.4330 C   0  0  0  0  0  0  0  0  0  0  0  0
   59.3620   34.2660   50.4150 O   0  0  0  0  0  0  0  0  0  0  0  0
   59.6310   33.7090   48.1190 C   0  0  0  0  0  0  0  0  0  0  0  0
   59.6630   34.5900   47.0100 C   0  0  0  0  0  0  0  0  0  0  0  0
   59.1850   34.1810   45.7550 C   0  0  0  0  0  0  0  0  0  0  0  0
   58.6810   32.8890   45.6300 C   0  0  0  0  0  0  0  0  0  0  0  0
   58.6420   32.0180   46.7000 C   0  0  0  0  0  0  0  0  0  0  0  0
   59.1120   32.4050   47.9550 C   0  0  0  0  0  0  0  0  0  0  0  0
   58.0570   30.6910   46.3100 C   0  0  0  0  0  0  0  0  0  0  0  0
   57.7670   30.9350   44.8570 C   0  0  0  0  0  0  0  0  0  0  0  0
   57.2050   30.0480   43.9380 C   0  0  0  0  0  0  0  0  0  0  0  0
   57.0180   30.4810   42.6140 C   0  0  0  0  0  0  0  0  0  0  0  0
   57.3930   31.7850   42.2300 C   0  0  0  0  0  0  0  0  0  0  0  0
   57.9580   32.6660   43.1670 C   0  0  0  0  0  0  0  0  0  0  0  0
   58.1330   32.2130   44.4740 C   0  0  0  0  0  0  0  0  0  0  0  0
   62.2971   33.9508   45.9012 H   0  0  0  0  0  0  0  0  0  0  0  0
   63.8205   34.8243   45.5234 H   0  0  0  0  0  0  0  0  0  0  0  0
   63.7913   33.0283   45.5234 H   0  0  0  0  0  0  0  0  0  0  0  0
   64.8393   33.7319   47.5900 H   0  0  0  0  0  0  0  0  0  0  0  0
   63.5195   34.9049   47.9245 H   0  0  0  0  0  0  0  0  0  0  0  0
   63.8302   31.6488   46.6713 H   0  0  0  0  0  0  0  0  0  0  0  0
   63.6451   30.8643   48.2897 H   0  0  0  0  0  0  0  0  0  0  0  0
   61.2552   30.6803   48.0116 H   0  0  0  0  0  0  0  0  0  0  0  0
   61.2926   31.6802   46.5198 H   0  0  0  0  0  0  0  0  0  0  0  0
   62.0235   30.0393   46.5198 H   0  0  0  0  0  0  0  0  0  0  0  0
   63.2148   31.7722   49.9800 H   0  0  0  0  0  0  0  0  0  0  0  0
   64.3525   33.1618   49.7677 H   0  0  0  0  0  0  0  0  0  0  0  0
   61.7822   33.0891   51.1209 H   0  0  0  0  0  0  0  0  0  0  0  0
   62.9912   34.4277   51.0126 H   0  0  0  0  0  0  0  0  0  0  0  0
   60.0668   35.6057   47.1336 H   0  0  0  0  0  0  0  0  0  0  0  0
   59.2080   34.8635   44.8927 H   0  0  0  0  0  0  0  0  0  0  0  0
   59.0791   31.7060   48.8037 H   0  0  0  0  0  0  0  0  0  0  0  0
   58.7791   29.8727   46.4480 H   0  0  0  0  0  0  0  0  0  0  0  0
   57.1852   30.3820   46.9054 H   0  0  0  0  0  0  0  0  0  0  0  0
   56.9146   29.0319   44.2432 H   0  0  0  0  0  0  0  0  0  0  0  0
   56.5765   29.7986   41.8728 H   0  0  0  0  0  0  0  0  0  0  0  0
   57.2423   32.1141   41.1912 H   0  0  0  0  0  0  0  0  0  0  0  0
   58.2542   33.6851   42.8776 H   0  0  0  0  0  0  0  0  0  0  0  0
  1  2  1  0
  2  3  1  0
  3  4  1  0
  4  5  1  0
  3  6  1  0
  6  7  1  0
  7  8  1  0
  8  9  1  0
  9 10  2  0
  9 11  1  0
 11 12  2  0
 12 13  1  0
 13 14  2  0
 14 15  1  0
 15 16  2  0
 15 17  1  0
 17 18  1  0
 18 19  2  0
 19 20  1  0
 20 21  2  0
 21 22  1  0
 22 23  2  0
 16 11  1  0
 23 18  1  0
 23 14  1  0
  1 24  1  0
  1 25  1  0
  1 26  1  0
  2 27  1  0
  2 28  1  0
  4 29  1  0
  4 30  1  0
  5 31  1  0
  5 32  1  0
  5 33  1  0
  6 34  1  0
  6 35  1  0
  7 36  1  0
  7 37  1  0
 12 38  1  0
 13 39  1  0
 16 40  1  0
 17 41  1  0
 17 42  1  0
 19 43  1  0
 20 44  1  0
 21 45  1  0
 22 46  1  0
M  END
>  <UniqueID>  (39) 
38

>  <SMILES>  (39) 
CCN(CC)CCOC(=O)c1ccc2c(c1)Cc1ccccc1-2

>  <Energy>  (39) 
66.36611274920502

>  <Genealogy>  (39) 
CCN(CC)CCOC(=O)c1ccc2c(c1)Cc1ccccc1-2 (3D coordinates assigned)
CCN(CC)CCOC(=O)c1ccc2c(c1)Cc1ccccc1-2 (nonaromatic ring conformer: 66.36611274920502 kcal/mol)

>  <smiles>  (39) 
CCN(CC)CCOC(=O)c1ccc2c(c1)Cc1ccccc1-2

>  <score_type>  (39) 
oracle

>  <origin>  (39) 
adg

>  <m_score__min__energy>  (39) 
-7.7000000000000002

>  <m_primary>  (39) 
energy

$$$$
39:0
     RDKit          3D

 20 20  0  0  0  0  0  0  0  0999 V2000
   55.8020   29.7260   46.0000 H   0  0  0  0  0  0  0  0  0  0  0  0
   55.6940   29.6610   44.9950 O   0  0  0  0  0  0  0  0  0  0  0  0
   56.7820   29.7230   44.1480 N   0  0  0  0  0  0  0  0  0  0  0  0
   57.8960   30.2140   44.6220 C   0  0  0  0  0  0  0  0  0  0  0  0
   58.7622   29.5414   44.7075 H   0  0  0  0  0  0  0  0  0  0  0  0
   58.0630   31.6210   45.0510 C   0  0  0  0  0  0  0  0  0  0  0  0
   58.1620   31.9390   46.4160 C   0  0  0  0  0  0  0  0  0  0  0  0
   58.1418   31.1352   47.1667 H   0  0  0  0  0  0  0  0  0  0  0  0
   58.2860   33.2690   46.8270 C   0  0  0  0  0  0  0  0  0  0  0  0
   58.3733   33.5082   47.8971 H   0  0  0  0  0  0  0  0  0  0  0  0
   58.2990   34.2940   45.8790 C   0  0  0  0  0  0  0  0  0  0  0  0
   58.4047   35.3400   46.2025 H   0  0  0  0  0  0  0  0  0  0  0  0
   58.1780   33.9930   44.5210 C   0  0  0  0  0  0  0  0  0  0  0  0
   58.1825   34.8043   43.7782 H   0  0  0  0  0  0  0  0  0  0  0  0
   58.0510   32.6640   44.1000 C   0  0  0  0  0  0  0  0  0  0  0  0
   57.9080   32.3340   42.3770 Cl  0  0  0  0  0  0  0  0  0  0  0  0
   56.6360   29.2350   42.7720 C   0  0  0  0  0  0  0  0  0  0  0  0
   56.3207   28.1813   42.7882 H   0  0  0  0  0  0  0  0  0  0  0  0
   55.8784   29.8364   42.2481 H   0  0  0  0  0  0  0  0  0  0  0  0
   57.5994   29.3215   42.2481 H   0  0  0  0  0  0  0  0  0  0  0  0
  1  2  1  0
  2  3  1  0
  3  4  2  0
  4  5  1  0
  4  6  1  0
  6  7  2  0
  7  8  1  0
  7  9  1  0
  9 10  1  0
  9 11  2  0
 11 12  1  0
 11 13  1  0
 13 14  1  0
 13 15  2  0
 15 16  1  0
  3 17  1  0
 17 18  1  0
 17 19  1  0
 17 20  1  0
 15  6  1  0
M  CHG  1   3   1
M  END
>  <UniqueID>  (40) 
39

>  <SMILES>  (40) 
C/[N+](O)=C\c1ccccc1Cl

>  <Energy>  (40) 
25.460522535290934

>  <Genealogy>  (40) 
C[N+](O)=Cc1ccccc1Cl (protonated)
C/[N+](O)=C\c1ccccc1Cl (cis-trans isomerization)
C/[N+](O)=C\c1ccccc1Cl (3D coordinates assigned)
C/[N+](O)=C\c1ccccc1Cl (optimized conformer: 25.460522535290934 kcal/mol)

>  <smiles>  (40) 
C[N+]([O-])=Cc1ccccc1Cl

>  <score_type>  (40) 
oracle

>  <origin>  (40) 
adg

>  <m_score__min__energy>  (40) 
-4.4900000000000002

>  <m_primary>  (40) 
energy

$$$$
40:0
     RDKit          3D

 32 35  0  0  0  0  0  0  0  0999 V2000
   57.2150   31.0560   42.8460 C   0  0  0  0  0  0  0  0  0  0  0  0
   57.2210   30.2150   44.0400 N   0  0  0  0  0  0  0  0  0  0  0  0
   56.7780   28.9710   44.0640 N   0  0  0  0  0  0  0  0  0  0  0  0
   56.9940   28.5040   45.3050 C   0  0  0  0  0  0  0  0  0  0  0  0
   56.6550   27.1470   45.7450 C   0  0  0  0  0  0  0  0  0  0  0  0
   55.4070   26.7220   46.0080 N   0  0  0  0  0  0  0  0  0  0  0  0
   55.5550   25.4570   46.3670 N   0  0  0  0  0  0  0  0  0  0  0  0
   56.8360   25.1260   46.3260 N   0  0  0  0  0  0  0  0  0  0  0  0
   57.5550   26.1670   45.9390 N   0  0  0  0  0  0  0  0  0  0  0  0
   57.5730   29.4280   46.1020 N   0  0  0  0  0  0  0  0  0  0  0  0
   57.6880   30.4960   45.2800 C   0  0  0  0  0  0  0  0  0  0  0  0
   58.2940   31.7660   45.7270 C   0  0  0  0  0  0  0  0  0  0  0  0
   58.0700   33.0070   45.1320 C   0  0  0  0  0  0  0  0  0  0  0  0
   58.9310   34.1570   46.0030 S   0  0  0  0  0  0  0  0  0  0  0  0
   59.5270   33.0470   47.1210 C   0  0  0  0  0  0  0  0  0  0  0  0
   60.4810   33.3330   48.2150 C   0  0  0  0  0  0  0  0  0  0  0  0
   60.0030   33.3160   49.5390 C   0  0  0  0  0  0  0  0  0  0  0  0
   60.8630   33.5580   50.6120 C   0  0  0  0  0  0  0  0  0  0  0  0
   62.2120   33.8300   50.3800 C   0  0  0  0  0  0  0  0  0  0  0  0
   63.2900   34.1350   51.7300 Cl  0  0  0  0  0  0  0  0  0  0  0  0
   62.6990   33.8700   49.0710 C   0  0  0  0  0  0  0  0  0  0  0  0
   61.8470   33.6300   47.9860 C   0  0  0  0  0  0  0  0  0  0  0  0
   62.5250   33.8030   46.3700 Cl  0  0  0  0  0  0  0  0  0  0  0  0
   59.0970   31.7990   46.8260 N   0  0  0  0  0  0  0  0  0  0  0  0
   57.2074   32.1150   43.1435 H   0  0  0  0  0  0  0  0  0  0  0  0
   58.1146   30.8496   42.2476 H   0  0  0  0  0  0  0  0  0  0  0  0
   56.3184   30.8368   42.2476 H   0  0  0  0  0  0  0  0  0  0  0  0
   56.3580   28.4590   43.2550 H   0  0  0  0  0  0  0  0  0  0  0  0
   57.4417   33.1988   44.2497 H   0  0  0  0  0  0  0  0  0  0  0  0
   58.9396   33.1097   49.7304 H   0  0  0  0  0  0  0  0  0  0  0  0
   60.4767   33.5342   51.6417 H   0  0  0  0  0  0  0  0  0  0  0  0
   63.7613   34.0920   48.8912 H   0  0  0  0  0  0  0  0  0  0  0  0
  1  2  1  0
  2  3  1  0
  3  4  2  0
  4  5  1  0
  5  6  1  0
  6  7  2  0
  7  8  1  0
  8  9  1  0
  4 10  1  0
 10 11  2  0
 11 12  1  0
 12 13  2  0
 13 14  1  0
 14 15  1  0
 15 16  1  0
 16 17  2  0
 17 18  1  0
 18 19  2  0
 19 20  1  0
 19 21  1  0
 21 22  2  0
 22 23  1  0
 15 24  2  0
 11  2  1  0
 24 12  1  0
  9  5  2  0
 22 16  1  0
  1 25  1  0
  1 26  1  0
  1 27  1  0
  3 28  1  0
 13 29  1  0
 17 30  1  0
 18 31  1  0
 21 32  1  0
M  CHG  2   3   1   8  -1
M  END
>  <UniqueID>  (41) 
40

>  <SMILES>  (41) 
Cn1[nH+]c(-c2nn[n-]n2)nc1-c1csc(-c2ccc(Cl)cc2Cl)n1

>  <Energy>  (41) 
145.73593854390126

>  <Genealogy>  (41) 
Cn1[nH+]c(-c2nn[n-]n2)nc1-c1csc(-c2ccc(Cl)cc2Cl)n1 (protonated)
Cn1[nH+]c(-c2nn[n-]n2)nc1-c1csc(-c2ccc(Cl)cc2Cl)n1 (3D coordinates assigned)
Cn1[nH+]c(-c2nn[n-]n2)nc1-c1csc(-c2ccc(Cl)cc2Cl)n1 (optimized conformer: 145.73593854390126 kcal/mol)

>  <smiles>  (41) 
Cn1nc(-c2nn[nH]n2)nc1-c1csc(-c2ccc(Cl)cc2Cl)n1

>  <score_type>  (41) 
oracle

>  <origin>  (41) 
adg

>  <m_score__min__energy>  (41) 
-9.2599999999999998

>  <m_primary>  (41) 
energy

$$$$
41:0
     RDKit          3D

 41 41  0  0  0  0  0  0  0  0999 V2000
   62.5760   32.7590   47.4160 C   0  0  0  0  0  0  0  0  0  0  0  0
   61.1210   32.7630   47.6370 N   0  0  0  0  0  0  0  0  0  0  0  0
   60.6780   31.5890   48.4150 C   0  0  0  0  0  0  0  0  0  0  0  0
   59.7670   30.7530   47.6240 C   0  0  0  0  0  0  0  0  0  0  0  0
   59.0400   30.0400   46.9800 C   0  0  0  0  0  0  0  0  0  0  0  0
   58.1320   29.1680   46.2310 C   0  0  0  0  0  0  0  0  0  0  0  0
   57.6770   29.8530   45.0230 N   0  0  0  0  0  0  0  0  0  0  0  0
   58.4830   30.7730   44.2440 C   0  0  0  0  0  0  0  0  0  0  0  0
   57.5940   31.2300   43.0680 C   0  0  0  0  0  0  0  0  0  0  0  0
   56.2260   30.5490   43.2290 C   0  0  0  0  0  0  0  0  0  0  0  0
   56.3950   29.7240   44.4400 C   0  0  0  0  0  0  0  0  0  0  0  0
   55.4950   28.9790   44.9120 O   0  0  0  0  0  0  0  0  0  0  0  0
   60.5800   34.0840   48.0630 C   0  0  0  0  0  0  0  0  0  0  0  0
   59.3470   34.6290   47.2880 C   0  0  0  0  0  0  0  0  0  0  0  0
   58.8740   33.7690   46.1760 N   0  0  0  0  0  0  0  0  0  0  0  0
   57.4520   33.4060   46.3240 C   0  0  0  0  0  0  0  0  0  0  0  0
   59.0710   34.4730   44.8950 C   0  0  0  0  0  0  0  0  0  0  0  0
   63.0942   32.7576   48.3863 H   0  0  0  0  0  0  0  0  0  0  0  0
   62.8582   31.8601   46.8483 H   0  0  0  0  0  0  0  0  0  0  0  0
   62.8631   33.6564   46.8483 H   0  0  0  0  0  0  0  0  0  0  0  0
   61.5573   30.9933   48.7011 H   0  0  0  0  0  0  0  0  0  0  0  0
   60.1455   31.9404   49.3111 H   0  0  0  0  0  0  0  0  0  0  0  0
   58.6599   28.2445   45.9509 H   0  0  0  0  0  0  0  0  0  0  0  0
   57.2634   28.9207   46.8590 H   0  0  0  0  0  0  0  0  0  0  0  0
   58.7776   31.6368   44.8581 H   0  0  0  0  0  0  0  0  0  0  0  0
   59.4072   30.2949   43.8872 H   0  0  0  0  0  0  0  0  0  0  0  0
   57.4740   32.3232   43.0910 H   0  0  0  0  0  0  0  0  0  0  0  0
   58.0524   30.9544   42.1068 H   0  0  0  0  0  0  0  0  0  0  0  0
   55.4293   31.2945   43.3687 H   0  0  0  0  0  0  0  0  0  0  0  0
   55.9324   29.9614   42.3467 H   0  0  0  0  0  0  0  0  0  0  0  0
   60.2945   33.9990   49.1219 H   0  0  0  0  0  0  0  0  0  0  0  0
   61.3868   34.8020   47.8544 H   0  0  0  0  0  0  0  0  0  0  0  0
   58.5197   34.7474   48.0032 H   0  0  0  0  0  0  0  0  0  0  0  0
   59.6671   35.5760   46.8289 H   0  0  0  0  0  0  0  0  0  0  0  0
   59.4450   32.8980   46.1310 H   0  0  0  0  0  0  0  0  0  0  0  0
   57.1993   33.3415   47.3926 H   0  0  0  0  0  0  0  0  0  0  0  0
   56.8260   34.1731   45.8449 H   0  0  0  0  0  0  0  0  0  0  0  0
   57.2703   32.4327   45.8449 H   0  0  0  0  0  0  0  0  0  0  0  0
   59.3627   35.5154   45.0906 H   0  0  0  0  0  0  0  0  0  0  0  0
   59.8635   33.9723   44.3195 H   0  0  0  0  0  0  0  0  0  0  0  0
   58.1337   34.4563   44.3195 H   0  0  0  0  0  0  0  0  0  0  0  0
  1  2  1  0
  2  3  1  0
  3  4  1  0
  4  5  3  0
  5  6  1  0
  6  7  1  0
  7  8  1  0
  8  9  1  0
  9 10  1  0
 10 11  1  0
 11 12  2  0
  2 13  1  0
 13 14  1  0
 14 15  1  0
 15 16  1  0
 15 17  1  0
 11  7  1  0
  1 18  1  0
  1 19  1  0
  1 20  1  0
  3 21  1  0
  3 22  1  0
  6 23  1  0
  6 24  1  0
  8 25  1  0
  8 26  1  0
  9 27  1  0
  9 28  1  0
 10 29  1  0
 10 30  1  0
 13 31  1  0
 13 32  1  0
 14 33  1  0
 14 34  1  0
 15 35  1  0
 16 36  1  0
 16 37  1  0
 16 38  1  0
 17 39  1  0
 17 40  1  0
 17 41  1  0
M  CHG  1  15   1
M  END
>  <UniqueID>  (42) 
41

>  <SMILES>  (42) 
CN(CC#CCN1CCCC1=O)CC[NH+](C)C

>  <Energy>  (42) 
44.720787592997205

>  <Genealogy>  (42) 
CN(CC#CCN1CCCC1=O)CC[NH+](C)C (protonated)
CN(CC#CCN1CCCC1=O)CC[NH+](C)C (3D coordinates assigned)
CN(CC#CCN1CCCC1=O)CC[NH+](C)C (nonaromatic ring conformer: 44.720787592997205 kcal/mol)

>  <smiles>  (42) 
CN(C)CCN(C)CC#CCN1CCCC1=O

>  <score_type>  (42) 
oracle

>  <origin>  (42) 
adg

>  <m_score__min__energy>  (42) 
-4.4400000000000004

>  <m_primary>  (42) 
energy

$$$$
42:0
     RDKit          3D

 37 38  0  0  0  0  0  0  0  0999 V2000
   57.7251   26.6927   43.9146 H   0  0  0  0  0  0  0  0  0  0  0  0
   57.4930   26.8380   44.9800 C   0  0  0  0  0  0  0  0  0  0  0  0
   56.4660   25.9770   45.6050 C   0  0  0  0  0  0  0  0  0  0  0  0
   55.4570   26.5340   46.1140 O   0  0  0  0  0  0  0  0  0  0  0  0
   56.5640   24.4980   45.6440 C   0  0  0  0  0  0  0  0  0  0  0  0
   56.2790   23.7250   44.5060 C   0  0  0  0  0  0  0  0  0  0  0  0
   55.9930   24.2244   43.5685 H   0  0  0  0  0  0  0  0  0  0  0  0
   56.3540   22.3300   44.5490 C   0  0  0  0  0  0  0  0  0  0  0  0
   56.0670   21.6130   43.3780 O   0  0  0  0  0  0  0  0  0  0  0  0
   57.0170   20.8420   42.6490 C   0  0  0  0  0  0  0  0  0  0  0  0
   57.6738   20.3090   43.3522 H   0  0  0  0  0  0  0  0  0  0  0  0
   56.4895   20.1134   42.0158 H   0  0  0  0  0  0  0  0  0  0  0  0
   57.6215   21.5081   42.0158 H   0  0  0  0  0  0  0  0  0  0  0  0
   56.7080   21.6940   45.7540 C   0  0  0  0  0  0  0  0  0  0  0  0
   56.7754   20.5968   45.7945 H   0  0  0  0  0  0  0  0  0  0  0  0
   56.9760   22.4550   46.9070 C   0  0  0  0  0  0  0  0  0  0  0  0
   57.3240   21.8670   48.1330 O   0  0  0  0  0  0  0  0  0  0  0  0
   56.3980   21.2600   49.0280 C   0  0  0  0  0  0  0  0  0  0  0  0
   56.7048   21.4611   50.0650 H   0  0  0  0  0  0  0  0  0  0  0  0
   55.3945   21.6761   48.8552 H   0  0  0  0  0  0  0  0  0  0  0  0
   56.3793   20.1738   48.8552 H   0  0  0  0  0  0  0  0  0  0  0  0
   56.8950   23.8510   46.8440 C   0  0  0  0  0  0  0  0  0  0  0  0
   57.0933   24.4480   47.7464 H   0  0  0  0  0  0  0  0  0  0  0  0
   58.1530   27.7880   45.6570 C   0  0  0  0  0  0  0  0  0  0  0  0
   58.8811   27.4692   46.4174 H   0  0  0  0  0  0  0  0  0  0  0  0
   57.9610   29.2440   45.4430 C   0  0  0  0  0  0  0  0  0  0  0  0
   58.5380   30.1380   46.3610 C   0  0  0  0  0  0  0  0  0  0  0  0
   59.1203   29.7479   47.2088 H   0  0  0  0  0  0  0  0  0  0  0  0
   58.3790   31.5190   46.2070 C   0  0  0  0  0  0  0  0  0  0  0  0
   58.8417   32.2088   46.9282 H   0  0  0  0  0  0  0  0  0  0  0  0
   57.6330   32.0240   45.1380 C   0  0  0  0  0  0  0  0  0  0  0  0
   57.4680   33.4460   44.9800 C   0  0  0  0  0  0  0  0  0  0  0  0
   57.3360   34.5890   44.8540 N   0  0  0  0  0  0  0  0  0  0  0  0
   57.0400   31.1450   44.2260 C   0  0  0  0  0  0  0  0  0  0  0  0
   56.4479   31.5412   43.3879 H   0  0  0  0  0  0  0  0  0  0  0  0
   57.1980   29.7630   44.3770 C   0  0  0  0  0  0  0  0  0  0  0  0
   56.7239   29.0771   43.6595 H   0  0  0  0  0  0  0  0  0  0  0  0
  1  2  1  0
  2  3  1  0
  3  4  2  0
  3  5  1  0
  5  6  2  0
  6  7  1  0
  6  8  1  0
  8  9  1  0
  9 10  1  0
 10 11  1  0
 10 12  1  0
 10 13  1  0
  8 14  2  0
 14 15  1  0
 14 16  1  0
 16 17  1  0
 17 18  1  0
 18 19  1  0
 18 20  1  0
 18 21  1  0
 16 22  2  0
 22 23  1  0
  2 24  2  0
 24 25  1  0
 24 26  1  0
 26 27  2  0
 27 28  1  0
 27 29  1  0
 29 30  1  0
 29 31  2  0
 31 32  1  0
 32 33  3  0
 31 34  1  0
 34 35  1  0
 34 36  2  0
 36 37  1  0
 22  5  1  0
 36 26  1  0
M  END
>  <UniqueID>  (43) 
42

>  <SMILES>  (43) 
COc1cc(OC)cc(C(=O)/C=C/c2ccc(C#N)cc2)c1

>  <Energy>  (43) 
42.59137983505241

>  <Genealogy>  (43) 
COc1cc(OC)cc(C(=O)/C=C/c2ccc(C#N)cc2)c1 (cis-trans isomerization)
COc1cc(OC)cc(C(=O)/C=C/c2ccc(C#N)cc2)c1 (3D coordinates assigned)
COc1cc(OC)cc(C(=O)/C=C/c2ccc(C#N)cc2)c1 (optimized conformer: 42.59137983505241 kcal/mol)

>  <smiles>  (43) 
COc1cc(OC)cc(C(=O)C=Cc2ccc(C#N)cc2)c1

>  <score_type>  (43) 
oracle

>  <origin>  (43) 
adg

>  <m_score__min__energy>  (43) 
-7.0800000000000001

>  <m_primary>  (43) 
energy

$$$$
43:0
     RDKit          3D

 35 36  0  0  0  0  0  0  0  0999 V2000
   64.6770   34.2230   51.6250 C   0  0  0  0  0  0  0  0  0  0  0  0
   64.7340   33.4610   50.3720 N   0  0  0  0  0  0  0  0  0  0  0  0
   65.9440   32.6890   50.0660 C   0  0  0  0  0  0  0  0  0  0  0  0
   63.6120   33.4720   49.4490 C   0  0  0  0  0  0  0  0  0  0  0  0
   63.7720   33.0590   48.1100 C   0  0  0  0  0  0  0  0  0  0  0  0
   62.6930   33.0700   47.2230 C   0  0  0  0  0  0  0  0  0  0  0  0
   61.4230   33.4930   47.6460 C   0  0  0  0  0  0  0  0  0  0  0  0
   60.2760   33.5040   46.7020 C   0  0  0  0  0  0  0  0  0  0  0  0
   59.8240   34.7130   46.1430 C   0  0  0  0  0  0  0  0  0  0  0  0
   58.7550   34.7210   45.2430 C   0  0  0  0  0  0  0  0  0  0  0  0
   58.1210   33.5270   44.8960 C   0  0  0  0  0  0  0  0  0  0  0  0
   58.5450   32.3130   45.4560 C   0  0  0  0  0  0  0  0  0  0  0  0
   57.8840   31.0220   45.0540 C   0  0  0  0  0  0  0  0  0  0  0  0
   56.4590   31.2260   44.8380 N   0  0  0  0  0  0  0  0  0  0  0  0
   55.8100   30.4670   44.1180 N   0  0  0  0  0  0  0  0  0  0  0  0
   55.1600   29.7090   43.4000 N   0  0  0  0  0  0  0  0  0  0  0  0
   59.6290   32.3050   46.3490 C   0  0  0  0  0  0  0  0  0  0  0  0
   61.2560   33.9050   48.9780 C   0  0  0  0  0  0  0  0  0  0  0  0
   62.3340   33.8950   49.8680 C   0  0  0  0  0  0  0  0  0  0  0  0
   64.7288   33.5304   52.4780 H   0  0  0  0  0  0  0  0  0  0  0  0
   65.5254   34.9219   51.6681 H   0  0  0  0  0  0  0  0  0  0  0  0
   63.7341   34.7879   51.6681 H   0  0  0  0  0  0  0  0  0  0  0  0
   66.4286   32.3798   51.0038 H   0  0  0  0  0  0  0  0  0  0  0  0
   65.6721   31.7971   49.4824 H   0  0  0  0  0  0  0  0  0  0  0  0
   66.6383   33.3114   49.4824 H   0  0  0  0  0  0  0  0  0  0  0  0
   64.7594   32.7238   47.7596 H   0  0  0  0  0  0  0  0  0  0  0  0
   62.8399   32.7440   46.1827 H   0  0  0  0  0  0  0  0  0  0  0  0
   60.3153   35.6585   46.4161 H   0  0  0  0  0  0  0  0  0  0  0  0
   58.4123   35.6709   44.8069 H   0  0  0  0  0  0  0  0  0  0  0  0
   57.2855   33.5381   44.1805 H   0  0  0  0  0  0  0  0  0  0  0  0
   58.3424   30.6546   44.1240 H   0  0  0  0  0  0  0  0  0  0  0  0
   58.0204   30.2858   45.8599 H   0  0  0  0  0  0  0  0  0  0  0  0
   59.9756   31.3526   46.7766 H   0  0  0  0  0  0  0  0  0  0  0  0
   60.2669   34.2390   49.3246 H   0  0  0  0  0  0  0  0  0  0  0  0
   62.1833   34.2211   50.9077 H   0  0  0  0  0  0  0  0  0  0  0  0
  1  2  1  0
  2  3  1  0
  2  4  1  0
  4  5  2  0
  5  6  1  0
  6  7  2  0
  7  8  1  0
  8  9  2  0
  9 10  1  0
 10 11  2  0
 11 12  1  0
 12 13  1  0
 13 14  1  0
 14 15  2  0
 15 16  2  0
 12 17  2  0
  7 18  1  0
 18 19  2  0
 19  4  1  0
 17  8  1  0
  1 20  1  0
  1 21  1  0
  1 22  1  0
  3 23  1  0
  3 24  1  0
  3 25  1  0
  5 26  1  0
  6 27  1  0
  9 28  1  0
 10 29  1  0
 11 30  1  0
 13 31  1  0
 13 32  1  0
 17 33  1  0
 18 34  1  0
 19 35  1  0
M  CHG  2  15   1  16  -1
M  END
>  <UniqueID>  (44) 
43

>  <SMILES>  (44) 
CN(C)c1ccc(-c2cccc(CN=[N+]=[N-])c2)cc1

>  <Energy>  (44) 
39.45847639204936

>  <Genealogy>  (44) 
CN(C)c1ccc(-c2cccc(CN=[N+]=[N-])c2)cc1 (3D coordinates assigned)
CN(C)c1ccc(-c2cccc(CN=[N+]=[N-])c2)cc1 (optimized conformer: 39.45847639204936 kcal/mol)

>  <smiles>  (44) 
CN(C)c1ccc(-c2cccc(CN=[N+]=[N-])c2)cc1

>  <score_type>  (44) 
oracle

>  <origin>  (44) 
adg

>  <m_score__min__energy>  (44) 
-7.2300000000000004

>  <m_primary>  (44) 
energy

$$$$
44:0
     RDKit          3D

 34 35  0  0  0  0  0  0  0  0999 V2000
   56.7231   34.0930   44.0689 H   0  0  0  0  0  0  0  0  0  0  0  0
   57.3940   33.2830   44.3910 C   0  0  0  0  0  0  0  0  0  0  0  0
   57.4170   32.1620   43.6440 C   0  0  0  0  0  0  0  0  0  0  0  0
   57.7880   32.2760   42.2550 C   0  0  0  0  0  0  0  0  0  0  0  0
   58.0860   32.3670   41.1400 N   0  0  0  0  0  0  0  0  0  0  0  0
   57.1700   30.8060   44.1900 C   0  0  0  0  0  0  0  0  0  0  0  0
   56.1320   30.5790   44.8690 O   0  0  0  0  0  0  0  0  0  0  0  0
   58.1280   29.7560   43.9810 N   0  0  0  0  0  0  0  0  0  0  0  0
   58.9460   29.9240   43.3530 H   0  0  0  0  0  0  0  0  0  0  0  0
   57.9860   28.4350   44.5890 C   0  0  0  0  0  0  0  0  0  0  0  0
   56.9183   28.2170   44.7391 H   0  0  0  0  0  0  0  0  0  0  0  0
   58.4328   27.6831   43.9219 H   0  0  0  0  0  0  0  0  0  0  0  0
   58.6930   28.3950   45.9170 C   0  0  0  0  0  0  0  0  0  0  0  0
   59.2960   29.5510   46.4420 C   0  0  0  0  0  0  0  0  0  0  0  0
   59.2376   30.4998   45.8886 H   0  0  0  0  0  0  0  0  0  0  0  0
   59.9700   29.4980   47.6660 C   0  0  0  0  0  0  0  0  0  0  0  0
   60.4382   30.4057   48.0745 H   0  0  0  0  0  0  0  0  0  0  0  0
   60.0500   28.2950   48.3710 C   0  0  0  0  0  0  0  0  0  0  0  0
   60.5793   28.2567   49.3345 H   0  0  0  0  0  0  0  0  0  0  0  0
   59.4580   27.1400   47.8530 C   0  0  0  0  0  0  0  0  0  0  0  0
   59.5229   26.1926   48.4082 H   0  0  0  0  0  0  0  0  0  0  0  0
   58.7830   27.1880   46.6290 C   0  0  0  0  0  0  0  0  0  0  0  0
   58.3207   26.2765   46.2224 H   0  0  0  0  0  0  0  0  0  0  0  0
   58.2000   33.5100   45.6100 C   0  0  0  0  0  0  0  0  0  0  0  0
   57.9240   32.7600   46.7640 C   0  0  0  0  0  0  0  0  0  0  0  0
   57.0948   32.0372   46.7615 H   0  0  0  0  0  0  0  0  0  0  0  0
   58.6980   32.9270   47.9170 C   0  0  0  0  0  0  0  0  0  0  0  0
   58.4657   32.3484   48.8232 H   0  0  0  0  0  0  0  0  0  0  0  0
   59.7660   33.8280   47.9190 C   0  0  0  0  0  0  0  0  0  0  0  0
   60.3693   33.9634   48.8288 H   0  0  0  0  0  0  0  0  0  0  0  0
   60.0680   34.5570   46.7660 C   0  0  0  0  0  0  0  0  0  0  0  0
   60.9136   35.2605   46.7664 H   0  0  0  0  0  0  0  0  0  0  0  0
   59.2960   34.3930   45.6110 C   0  0  0  0  0  0  0  0  0  0  0  0
   59.5465   34.9564   44.7000 H   0  0  0  0  0  0  0  0  0  0  0  0
  1  2  1  0
  2  3  2  0
  3  4  1  0
  4  5  3  0
  3  6  1  0
  6  7  2  0
  6  8  1  0
  8  9  1  0
  8 10  1  0
 10 11  1  0
 10 12  1  0
 10 13  1  0
 13 14  2  0
 14 15  1  0
 14 16  1  0
 16 17  1  0
 16 18  2  0
 18 19  1  0
 18 20  1  0
 20 21  1  0
 20 22  2  0
 22 23  1  0
  2 24  1  0
 24 25  2  0
 25 26  1  0
 25 27  1  0
 27 28  1  0
 27 29  2  0
 29 30  1  0
 29 31  1  0
 31 32  1  0
 31 33  2  0
 33 34  1  0
 22 13  1  0
 33 24  1  0
M  END
>  <UniqueID>  (45) 
44

>  <SMILES>  (45) 
N#C/C(=C/c1ccccc1)C(=O)NCc1ccccc1

>  <Energy>  (45) 
39.81672624522031

>  <Genealogy>  (45) 
N#C/C(=C/c1ccccc1)C(=O)NCc1ccccc1 (cis-trans isomerization)
N#C/C(=C/c1ccccc1)C(=O)NCc1ccccc1 (3D coordinates assigned)
N#C/C(=C/c1ccccc1)C(=O)NCc1ccccc1 (optimized conformer: 39.81672624522031 kcal/mol)

>  <smiles>  (45) 
N#CC(=Cc1ccccc1)C(=O)NCc1ccccc1

>  <score_type>  (45) 
oracle

>  <origin>  (45) 
adg

>  <m_score__min__energy>  (45) 
-7.75

>  <m_primary>  (45) 
energy

$$$$
45:0
     RDKit          3D

 45 48  0  0  1  0  0  0  0  0999 V2000
   60.3720   26.5890   46.4600 C   0  0  0  0  0  0  0  0  0  0  0  0
   59.4740   27.6840   46.0090 C   0  0  0  0  0  0  0  0  0  0  0  0
   58.8320   27.5070   44.8090 C   0  0  0  0  0  0  0  0  0  0  0  0
   58.0110   28.5150   44.3760 C   0  0  0  0  0  0  0  0  0  0  0  0
   57.3880   28.3310   43.1990 N   0  0  0  0  0  0  0  0  0  0  0  0
   56.5790   29.2980   42.7500 C   0  0  0  0  0  0  0  0  0  0  0  0
   56.3990   30.4140   43.4510 N   0  0  0  0  0  0  0  0  0  0  0  0
   57.0270   30.6110   44.6470 C   0  0  0  0  0  0  0  0  0  0  0  0
   56.8120   31.6690   45.2340 N   0  0  0  0  0  0  0  0  0  0  0  0
   57.5890   32.7240   45.5460 C   0  0  0  0  0  0  0  0  0  0  0  0
   57.9940   33.6160   44.5240 C   0  0  0  0  0  0  0  0  0  0  0  0
   58.8730   34.6290   44.7980 C   0  0  0  0  0  0  0  0  0  0  0  0
   59.3840   34.8110   46.0570 C   0  0  0  0  0  0  0  0  0  0  0  0
   60.2470   35.8000   46.3410 F   0  0  0  0  0  0  0  0  0  0  0  0
   58.9940   33.9410   47.0660 C   0  0  0  0  0  0  0  0  0  0  0  0
   59.6800   34.1520   48.8480 Br  0  0  0  0  0  0  0  0  0  0  0  0
   58.1110   32.9030   46.8510 C   0  0  0  0  0  0  0  0  0  0  0  0
   57.8610   29.6560   45.1500 C   0  0  0  0  0  0  0  0  0  0  0  0
   58.5150   29.7970   46.3410 C   0  0  0  0  0  0  0  0  0  0  0  0
   59.3670   28.7770   46.8130 C   0  0  0  0  0  0  0  0  0  0  0  0
   60.0460   28.9220   48.0570 N   0  0  0  0  0  0  0  0  0  0  0  0
   60.0760   30.2040   48.7450 C   0  0  0  0  0  0  0  0  0  0  0  0
   61.2510   31.0130   48.3890 C   0  0  0  0  0  0  0  0  0  0  0  0
   62.3120   31.2400   49.2390 C   0  0  0  0  0  0  0  0  0  0  0  0
   63.4070   32.0020   48.8890 C   0  0  0  0  0  0  0  0  0  0  0  0
   63.4560   32.5700   47.6320 C   0  0  0  0  0  0  0  0  0  0  0  0
   62.4280   32.3580   46.7880 N   0  0  0  0  0  0  0  0  0  0  0  0
   61.3400   31.6070   47.1250 C   0  0  0  0  0  0  0  0  0  0  0  0
   60.3940   26.5622   47.5595 H   0  0  0  0  0  0  0  0  0  0  0  0
   59.9989   25.6276   46.0772 H   0  0  0  0  0  0  0  0  0  0  0  0
   61.3878   26.7667   46.0772 H   0  0  0  0  0  0  0  0  0  0  0  0
   58.9713   26.5904   44.2170 H   0  0  0  0  0  0  0  0  0  0  0  0
   57.4960   27.4750   42.6100 H   0  0  0  0  0  0  0  0  0  0  0  0
   56.0570   29.1684   41.7904 H   0  0  0  0  0  0  0  0  0  0  0  0
   57.6002   33.4944   43.5041 H   0  0  0  0  0  0  0  0  0  0  0  0
   59.1759   35.3118   43.9905 H   0  0  0  0  0  0  0  0  0  0  0  0
   57.8196   32.2313   47.6720 H   0  0  0  0  0  0  0  0  0  0  0  0
   58.3762   30.7119   46.9357 H   0  0  0  0  0  0  0  0  0  0  0  0
   60.5380   28.1390   48.5260 H   0  0  0  0  0  0  0  0  0  0  0  0
   59.1685   30.7665   48.4804 H   0  0  0  0  0  0  0  0  0  0  0  0
   60.1285   29.9999   49.8246 H   0  0  0  0  0  0  0  0  0  0  0  0
   62.2841   30.7925   50.2435 H   0  0  0  0  0  0  0  0  0  0  0  0
   64.2304   32.1550   49.6022 H   0  0  0  0  0  0  0  0  0  0  0  0
   64.3166   33.1830   47.3259 H   0  0  0  0  0  0  0  0  0  0  0  0
   60.5266   31.4673   46.3977 H   0  0  0  0  0  0  0  0  0  0  0  0
  1  2  1  0
  2  3  2  0
  3  4  1  0
  4  5  1  0
  5  6  1  0
  6  7  2  0
  7  8  1  0
  8  9  2  0
  9 10  1  0
 10 11  2  0
 11 12  1  0
 12 13  2  0
 13 14  1  0
 13 15  1  0
 15 16  1  0
 15 17  2  0
  8 18  1  0
 18 19  1  0
 19 20  2  0
 20 21  1  0
 21 22  1  0
 22 23  1  0
 23 24  2  0
 24 25  1  0
 25 26  2  0
 26 27  1  0
 27 28  2  0
 20  2  1  0
 28 23  1  0
 18  4  2  0
 17 10  1  0
  1 29  1  0
  1 30  1  0
  1 31  1  0
  3 32  1  0
  5 33  1  0
  6 34  1  0
 11 35  1  0
 12 36  1  0
 17 37  1  0
 19 38  1  0
 21 39  1  0
 22 40  1  0
 22 41  1  0
 24 42  1  0
 25 43  1  0
 26 44  1  0
 28 45  1  0
M  END
>  <smiles>  (46) 
Cc1cc2[nH]cnc(=Nc3ccc(F)c(Br)c3)c2cc1NCc1cccnc1

>  <score_type>  (46) 
oracle

>  <origin>  (46) 
adg

>  <m_score__min__energy>  (46) 
-8.9199999999999999

>  <m_primary>  (46) 
energy

$$$$
