0:0
     RDKit          3D

 45 46  0  0  0  0  0  0  0  0999 V2000
   62.5837   33.2237   48.1738 H   0  0  0  0  0  0  0  0  0  0  0  0
   61.5980   32.9890   48.6020 C   0  0  0  0  0  0  0  0  0  0  0  0
   60.5550   33.9120   48.5000 C   0  0  0  0  0  0  0  0  0  0  0  0
   60.7184   34.8711   47.9868 H   0  0  0  0  0  0  0  0  0  0  0  0
   59.3020   33.6180   49.0500 C   0  0  0  0  0  0  0  0  0  0  0  0
   58.4814   34.3451   48.9606 H   0  0  0  0  0  0  0  0  0  0  0  0
   59.0860   32.3990   49.7160 C   0  0  0  0  0  0  0  0  0  0  0  0
   57.7250   32.0890   50.2970 C   0  0  0  0  0  0  0  0  0  0  0  0
   57.5200   31.0160   50.1682 H   0  0  0  0  0  0  0  0  0  0  0  0
   56.9817   32.7027   49.7670 H   0  0  0  0  0  0  0  0  0  0  0  0
   57.6460   32.4290   51.7740 C   0  0  0  0  0  0  0  0  0  0  0  0
   56.9200   31.7460   52.6140 N   0  0  0  0  0  0  0  0  0  0  0  0
   56.4590   30.4000   52.4500 C   0  0  0  0  0  0  0  0  0  0  0  0
   57.0430   29.6460   51.6280 O   0  0  0  0  0  0  0  0  0  0  0  0
   55.2130   29.9180   53.1430 C   0  0  0  0  0  0  0  0  0  0  0  0
   55.4523   29.0093   53.7148 H   0  0  0  0  0  0  0  0  0  0  0  0
   54.8583   30.7204   53.8067 H   0  0  0  0  0  0  0  0  0  0  0  0
   54.0950   29.5960   52.1440 C   0  0  0  0  0  0  0  0  0  0  0  0
   54.5245   29.5466   51.1325 H   0  0  0  0  0  0  0  0  0  0  0  0
   53.6470   28.6330   52.4304 H   0  0  0  0  0  0  0  0  0  0  0  0
   53.0100   30.6420   52.1630 C   0  0  0  0  0  0  0  0  0  0  0  0
   52.4320   31.0370   53.3810 C   0  0  0  0  0  0  0  0  0  0  0  0
   52.7942   30.6036   54.3249 H   0  0  0  0  0  0  0  0  0  0  0  0
   51.3990   31.9780   53.3990 C   0  0  0  0  0  0  0  0  0  0  0  0
   50.9533   32.2858   54.3564 H   0  0  0  0  0  0  0  0  0  0  0  0
   50.9310   32.5290   52.2020 C   0  0  0  0  0  0  0  0  0  0  0  0
   49.9010   33.4620   52.2260 O   0  0  0  0  0  0  0  0  0  0  0  0
   51.4970   32.1370   50.9830 C   0  0  0  0  0  0  0  0  0  0  0  0
   51.0340   32.6790   49.7900 O   0  0  0  0  0  0  0  0  0  0  0  0
   52.5320   31.1940   50.9630 C   0  0  0  0  0  0  0  0  0  0  0  0
   52.9725   30.8843   50.0038 H   0  0  0  0  0  0  0  0  0  0  0  0
   58.3680   33.6140   52.2810 C   0  0  0  0  0  0  0  0  0  0  0  0
   57.7320   34.6720   52.5430 O   0  0  0  0  0  0  0  0  0  0  0  0
   59.7850   33.5610   52.4840 N   0  0  0  0  0  0  0  0  0  0  0  0
   60.4520   32.5090   53.2410 C   0  0  0  0  0  0  0  0  0  0  0  0
   59.9448   31.5507   53.0555 H   0  0  0  0  0  0  0  0  0  0  0  0
   60.4093   32.7558   54.3121 H   0  0  0  0  0  0  0  0  0  0  0  0
   61.9100   32.3970   52.8150 C   0  0  0  0  0  0  0  0  0  0  0  0
   62.5502   32.3478   53.7081 H   0  0  0  0  0  0  0  0  0  0  0  0
   62.0476   31.4856   52.2146 H   0  0  0  0  0  0  0  0  0  0  0  0
   62.1852   33.2767   52.2146 H   0  0  0  0  0  0  0  0  0  0  0  0
   60.1390   31.4680   49.7960 C   0  0  0  0  0  0  0  0  0  0  0  0
   59.9766   30.4999   50.2924 H   0  0  0  0  0  0  0  0  0  0  0  0
   61.3900   31.7670   49.2480 C   0  0  0  0  0  0  0  0  0  0  0  0
   62.2116   31.0397   49.3253 H   0  0  0  0  0  0  0  0  0  0  0  0
  1  2  1  0
  2  3  2  0
  3  4  1  0
  3  5  1  0
  5  6  1  0
  5  7  2  0
  7  8  1  0
  8  9  1  0
  8 10  1  0
  8 11  1  0
 11 12  2  0
 12 13  1  0
 13 14  2  0
 13 15  1  0
 15 16  1  0
 15 17  1  0
 15 18  1  0
 18 19  1  0
 18 20  1  0
 18 21  1  0
 21 22  2  0
 22 23  1  0
 22 24  1  0
 24 25  1  0
 24 26  2  0
 26 27  1  0
 26 28  1  0
 28 29  1  0
 28 30  2  0
 30 31  1  0
 11 32  1  0
 32 33  2  0
 32 34  1  0
 34 35  1  0
 35 36  1  0
 35 37  1  0
 35 38  1  0
 38 39  1  0
 38 40  1  0
 38 41  1  0
  7 42  1  0
 42 43  1  0
 42 44  2  0
 44 45  1  0
 44  2  1  0
 30 21  1  0
M  CHG  3  27  -1  29  -1  34  -1
M  END
>  <UniqueID>  (1) 
1

>  <SMILES>  (1) 
CC[N-]C(=O)/C(Cc1ccccc1)=N/C(=O)CCc1ccc([O-])c([O-])c1

>  <Energy>  (1) 
45.18018794713328

>  <Genealogy>  (1) 
CC[N-]C(=O)C(Cc1ccccc1)=NC(=O)CCc1ccc([O-])c([O-])c1 (protonated)
CC[N-]C(=O)/C(Cc1ccccc1)=N/C(=O)CCc1ccc([O-])c([O-])c1 (cis-trans isomerization)
CC[N-]C(=O)/C(Cc1ccccc1)=N/C(=O)CCc1ccc([O-])c([O-])c1 (3D coordinates assigned)
CC[N-]C(=O)/C(Cc1ccccc1)=N/C(=O)CCc1ccc([O-])c([O-])c1 (optimized conformer: 45.18018794713328 kcal/mol)

>  <smiles>  (1) 
CCNC(=O)C(Cc1ccccc1)=NC(=O)CCc1ccc(O)c(O)c1

>  <score_type>  (1) 
oracle

>  <origin>  (1) 
adg

>  <m_score__min__energy>  (1) 
-16.239999999999998

>  <m_primary>  (1) 
energy

$$$$
1:0
     RDKit          3D

 47 49  0  0  0  0  0  0  0  0999 V2000
   60.3690   27.5660   46.0040 C   0  0  0  0  0  0  0  0  0  0  0  0
   60.7000   29.0400   45.7690 C   0  0  0  0  0  0  0  0  0  0  0  0
   59.4870   29.8890   45.8770 N   0  0  0  0  0  0  0  0  0  0  0  0
   58.3820   29.4320   45.2070 C   0  0  0  0  0  0  0  0  0  0  0  0
   57.2960   30.2620   44.9080 C   0  0  0  0  0  0  0  0  0  0  0  0
   56.1280   29.7020   44.1740 C   0  0  0  0  0  0  0  0  0  0  0  0
   56.0020   29.8650   42.9320 O   0  0  0  0  0  0  0  0  0  0  0  0
   55.1440   28.9930   44.8550 O   0  0  0  0  0  0  0  0  0  0  0  0
   57.3760   31.6160   45.2650 C   0  0  0  0  0  0  0  0  0  0  0  0
   56.4550   32.4140   44.9340 O   0  0  0  0  0  0  0  0  0  0  0  0
   58.4790   32.0830   46.0010 C   0  0  0  0  0  0  0  0  0  0  0  0
   58.5850   33.4470   46.3200 C   0  0  0  0  0  0  0  0  0  0  0  0
   59.6610   33.9180   47.0570 C   0  0  0  0  0  0  0  0  0  0  0  0
   60.5940   33.0310   47.5930 C   0  0  0  0  0  0  0  0  0  0  0  0
   61.6670   33.5540   48.3970 N   0  0  0  0  0  0  0  0  0  0  0  0
   62.8970   34.0180   47.7290 C   0  0  0  0  0  0  0  0  0  0  0  0
   64.0560   33.0070   47.8480 C   0  0  0  0  0  0  0  0  0  0  0  0
   64.8390   33.0550   49.1680 C   0  0  0  0  0  0  0  0  0  0  0  0
   64.0380   33.6250   50.3560 C   0  0  0  0  0  0  0  0  0  0  0  0
   62.6810   32.9460   50.6270 C   0  0  0  0  0  0  0  0  0  0  0  0
   61.5010   33.5740   49.8650 C   0  0  0  0  0  0  0  0  0  0  0  0
   60.4620   31.6390   47.3610 C   0  0  0  0  0  0  0  0  0  0  0  0
   61.2190   30.7040   48.2750 C   0  0  0  0  0  0  0  0  0  0  0  0
   59.4900   31.1700   46.4140 C   0  0  0  0  0  0  0  0  0  0  0  0
   60.3245   27.3680   47.0851 H   0  0  0  0  0  0  0  0  0  0  0  0
   59.3958   27.3315   45.5480 H   0  0  0  0  0  0  0  0  0  0  0  0
   61.1485   26.9379   45.5480 H   0  0  0  0  0  0  0  0  0  0  0  0
   61.4341   29.3666   46.5203 H   0  0  0  0  0  0  0  0  0  0  0  0
   61.1090   29.1464   44.7534 H   0  0  0  0  0  0  0  0  0  0  0  0
   58.3479   28.3780   44.8941 H   0  0  0  0  0  0  0  0  0  0  0  0
   57.8074   34.1478   45.9821 H   0  0  0  0  0  0  0  0  0  0  0  0
   59.7795   34.9994   47.2201 H   0  0  0  0  0  0  0  0  0  0  0  0
   62.6791   34.1798   46.6630 H   0  0  0  0  0  0  0  0  0  0  0  0
   63.2142   34.9473   48.2247 H   0  0  0  0  0  0  0  0  0  0  0  0
   63.6369   31.9959   47.7386 H   0  0  0  0  0  0  0  0  0  0  0  0
   64.7745   33.2754   47.0595 H   0  0  0  0  0  0  0  0  0  0  0  0
   65.1512   32.0312   49.4216 H   0  0  0  0  0  0  0  0  0  0  0  0
   65.6909   33.7319   49.0065 H   0  0  0  0  0  0  0  0  0  0  0  0
   64.6549   33.5230   51.2610 H   0  0  0  0  0  0  0  0  0  0  0  0
   63.8071   34.6677   50.0925 H   0  0  0  0  0  0  0  0  0  0  0  0
   62.7588   31.8889   50.3328 H   0  0  0  0  0  0  0  0  0  0  0  0
   62.4706   33.0743   51.6990 H   0  0  0  0  0  0  0  0  0  0  0  0
   60.5870   33.0172   50.1192 H   0  0  0  0  0  0  0  0  0  0  0  0
   61.4459   34.6297   50.1690 H   0  0  0  0  0  0  0  0  0  0  0  0
   61.0079   30.9647   49.3226 H   0  0  0  0  0  0  0  0  0  0  0  0
   60.9021   29.6681   48.0839 H   0  0  0  0  0  0  0  0  0  0  0  0
   62.2982   30.7984   48.0839 H   0  0  0  0  0  0  0  0  0  0  0  0
  1  2  1  0
  2  3  1  0
  3  4  1  0
  4  5  2  0
  5  6  1  0
  6  7  2  0
  6  8  1  0
  5  9  1  0
  9 10  2  0
  9 11  1  0
 11 12  2  0
 12 13  1  0
 13 14  2  0
 14 15  1  0
 15 16  1  0
 16 17  1  0
 17 18  1  0
 18 19  1  0
 19 20  1  0
 20 21  1  0
 14 22  1  0
 22 23  1  0
 22 24  2  0
 24  3  1  0
 24 11  1  0
 21 15  1  0
  1 25  1  0
  1 26  1  0
  1 27  1  0
  2 28  1  0
  2 29  1  0
  4 30  1  0
 12 31  1  0
 13 32  1  0
 16 33  1  0
 16 34  1  0
 17 35  1  0
 17 36  1  0
 18 37  1  0
 18 38  1  0
 19 39  1  0
 19 40  1  0
 20 41  1  0
 20 42  1  0
 21 43  1  0
 21 44  1  0
 23 45  1  0
 23 46  1  0
 23 47  1  0
M  CHG  1   8  -1
M  END
>  <UniqueID>  (2) 
2

>  <SMILES>  (2) 
CCn1cc(C(=O)[O-])c(=O)c2ccc(N3CCCCCC3)c(C)c21

>  <Energy>  (2) 
83.80451586902738

>  <Genealogy>  (2) 
CCn1cc(C(=O)[O-])c(=O)c2ccc(N3CCCCCC3)c(C)c21 (protonated)
CCn1cc(C(=O)[O-])c(=O)c2ccc(N3CCCCCC3)c(C)c21 (3D coordinates assigned)
CCn1cc(C(=O)[O-])c(=O)c2ccc(N3CCCCCC3)c(C)c21 (nonaromatic ring conformer: 83.80451586902738 kcal/mol)

>  <smiles>  (2) 
CCn1cc(C(=O)O)c(=O)c2ccc(N3CCCCCC3)c(C)c21

>  <score_type>  (2) 
oracle

>  <origin>  (2) 
adg

>  <m_score__min__energy>  (2) 
-8.3399999999999999

>  <m_primary>  (2) 
energy

$$$$
2:0
     RDKit          3D

 55 58  0  0  0  0  0  0  0  0999 V2000
   55.5380   29.6900   44.8020 C   0  0  0  0  0  0  0  0  0  0  0  0
   56.3020   29.6150   43.4830 C   0  0  0  0  0  0  0  0  0  0  0  0
   57.7620   29.2010   43.7130 C   0  0  0  0  0  0  0  0  0  0  0  0
   58.7200   30.3990   43.8860 C   0  0  0  0  0  0  0  0  0  0  0  0
   59.0590   30.6530   45.3010 N   0  0  0  0  0  0  0  0  0  0  0  0
   59.5770   29.5660   46.1020 C   0  0  0  0  0  0  0  0  0  0  0  0
   60.3630   28.7220   45.5890 O   0  0  0  0  0  0  0  0  0  0  0  0
   59.2960   29.5320   47.5790 C   0  0  1  0  0  0  0  0  0  0  0  0
   59.4160   28.1170   48.1730 C   0  0  0  0  0  0  0  0  0  0  0  0
   58.8410   27.0870   47.2340 C   0  0  0  0  0  0  0  0  0  0  0  0
   57.4940   27.1620   46.8400 C   0  0  0  0  0  0  0  0  0  0  0  0
   56.9510   26.1820   46.0040 C   0  0  0  0  0  0  0  0  0  0  0  0
   57.7420   25.1170   45.5640 C   0  0  0  0  0  0  0  0  0  0  0  0
   59.0790   25.0300   45.9610 C   0  0  0  0  0  0  0  0  0  0  0  0
   59.6280   26.0080   46.7960 C   0  0  0  0  0  0  0  0  0  0  0  0
   60.2580   30.4180   48.2160 N   0  0  0  0  0  0  0  0  0  0  0  0
   60.6030   31.5820   47.7510 C   0  0  0  0  0  0  0  0  0  0  0  0
   61.9690   32.0820   48.0580 C   0  0  0  0  0  0  0  0  0  0  0  0
   62.6590   31.6300   49.1980 C   0  0  0  0  0  0  0  0  0  0  0  0
   63.9390   32.1120   49.4890 C   0  0  0  0  0  0  0  0  0  0  0  0
   64.5400   33.0540   48.6510 C   0  0  0  0  0  0  0  0  0  0  0  0
   63.8610   33.5190   47.5220 C   0  0  0  0  0  0  0  0  0  0  0  0
   62.5810   33.0410   47.2270 C   0  0  0  0  0  0  0  0  0  0  0  0
   59.6320   32.4390   47.0020 C   0  0  0  0  0  0  0  0  0  0  0  0
   59.4210   33.7460   47.4830 C   0  0  0  0  0  0  0  0  0  0  0  0
   58.5500   34.6180   46.8360 C   0  0  0  0  0  0  0  0  0  0  0  0
   57.8680   34.2040   45.7000 C   0  0  0  0  0  0  0  0  0  0  0  0
   58.0450   32.9100   45.2110 C   0  0  0  0  0  0  0  0  0  0  0  0
   58.9090   31.9940   45.8500 C   0  0  0  0  0  0  0  0  0  0  0  0
   56.2465   29.6204   45.6406 H   0  0  0  0  0  0  0  0  0  0  0  0
   54.9962   30.6457   44.8581 H   0  0  0  0  0  0  0  0  0  0  0  0
   54.8207   28.8580   44.8581 H   0  0  0  0  0  0  0  0  0  0  0  0
   55.8176   28.8752   42.8288 H   0  0  0  0  0  0  0  0  0  0  0  0
   56.2906   30.6106   43.0155 H   0  0  0  0  0  0  0  0  0  0  0  0
   57.8099   28.5825   44.6214 H   0  0  0  0  0  0  0  0  0  0  0  0
   58.0882   28.6516   42.8176 H   0  0  0  0  0  0  0  0  0  0  0  0
   59.6479   30.1913   43.3329 H   0  0  0  0  0  0  0  0  0  0  0  0
   58.2097   31.2933   43.4990 H   0  0  0  0  0  0  0  0  0  0  0  0
   58.2592   29.8540   47.7563 H   0  0  0  0  0  0  0  0  0  0  0  0
   60.4777   27.8898   48.3499 H   0  0  0  0  0  0  0  0  0  0  0  0
   58.8527   28.0841   49.1173 H   0  0  0  0  0  0  0  0  0  0  0  0
   56.8654   27.9940   47.1904 H   0  0  0  0  0  0  0  0  0  0  0  0
   55.8984   26.2492   45.6916 H   0  0  0  0  0  0  0  0  0  0  0  0
   57.3123   24.3477   44.9055 H   0  0  0  0  0  0  0  0  0  0  0  0
   59.7007   24.1906   45.6160 H   0  0  0  0  0  0  0  0  0  0  0  0
   60.6792   25.9327   47.1111 H   0  0  0  0  0  0  0  0  0  0  0  0
   62.1883   30.8925   49.8648 H   0  0  0  0  0  0  0  0  0  0  0  0
   64.4734   31.7487   50.3792 H   0  0  0  0  0  0  0  0  0  0  0  0
   65.5481   33.4298   48.8800 H   0  0  0  0  0  0  0  0  0  0  0  0
   64.3345   34.2626   46.8641 H   0  0  0  0  0  0  0  0  0  0  0  0
   62.0483   33.4159   46.3406 H   0  0  0  0  0  0  0  0  0  0  0  0
   59.9533   34.0831   48.3847 H   0  0  0  0  0  0  0  0  0  0  0  0
   58.4020   35.6361   47.2253 H   0  0  0  0  0  0  0  0  0  0  0  0
   57.1871   34.8975   45.1849 H   0  0  0  0  0  0  0  0  0  0  0  0
   57.5000   32.5963   44.3084 H   0  0  0  0  0  0  0  0  0  0  0  0
  1  2  1  0
  2  3  1  0
  3  4  1  0
  4  5  1  0
  5  6  1  0
  6  7  2  0
  6  8  1  0
  8  9  1  0
  9 10  1  0
 10 11  2  0
 11 12  1  0
 12 13  2  0
 13 14  1  0
 14 15  2  0
  8 16  1  0
 16 17  2  0
 17 18  1  0
 18 19  2  0
 19 20  1  0
 20 21  2  0
 21 22  1  0
 22 23  2  0
 17 24  1  0
 24 25  2  0
 25 26  1  0
 26 27  2  0
 27 28  1  0
 28 29  2  0
 29  5  1  0
 15 10  1  0
 23 18  1  0
 29 24  1  0
  1 30  1  0
  1 31  1  0
  1 32  1  0
  2 33  1  0
  2 34  1  0
  3 35  1  0
  3 36  1  0
  4 37  1  0
  4 38  1  0
  8 39  1  6
  9 40  1  0
  9 41  1  0
 11 42  1  0
 12 43  1  0
 13 44  1  0
 14 45  1  0
 15 46  1  0
 19 47  1  0
 20 48  1  0
 21 49  1  0
 22 50  1  0
 23 51  1  0
 25 52  1  0
 26 53  1  0
 27 54  1  0
 28 55  1  0
M  END
>  <UniqueID>  (3) 
3

>  <SMILES>  (3) 
CCCCN1C(=O)[C@@H](Cc2ccccc2)N=C(c2ccccc2)c2ccccc21

>  <Energy>  (3) 
70.05588859677417

>  <Genealogy>  (3) 
CCCCN1C(=O)[C@@H](Cc2ccccc2)N=C(c2ccccc2)c2ccccc21 (chirality)
CCCCN1C(=O)[C@@H](Cc2ccccc2)N=C(c2ccccc2)c2ccccc21 (3D coordinates assigned)
CCCCN1C(=O)[C@@H](Cc2ccccc2)N=C(c2ccccc2)c2ccccc21 (nonaromatic ring conformer: 70.05588859677417 kcal/mol)

>  <smiles>  (3) 
CCCCN1C(=O)C(Cc2ccccc2)N=C(c2ccccc2)c2ccccc21

>  <score_type>  (3) 
oracle

>  <origin>  (3) 
adg

>  <m_score__min__energy>  (3) 
-7.1200000000000001

>  <m_primary>  (3) 
energy

$$$$
3:0
     RDKit          3D

 49 50  0  0  0  0  0  0  0  0999 V2000
   62.3140   31.1900   47.9130 C   0  0  0  0  0  0  0  0  0  0  0  0
   61.5110   30.3540   46.9230 C   0  0  0  0  0  0  0  0  0  0  0  0
   60.3460   29.7440   47.5850 N   0  0  0  0  0  0  0  0  0  0  0  0
   60.4590   28.4000   48.1680 C   0  0  0  0  0  0  0  0  0  0  0  0
   59.3310   27.5060   47.6610 C   0  0  0  0  0  0  0  0  0  0  0  0
   59.1200   30.4880   47.7500 C   0  0  0  0  0  0  0  0  0  0  0  0
   58.4160   30.3100   48.7800 O   0  0  0  0  0  0  0  0  0  0  0  0
   58.6550   31.4360   46.7180 C   0  0  0  0  0  0  0  0  0  0  0  0
   57.7810   31.0690   45.6950 C   0  0  0  0  0  0  0  0  0  0  0  0
   57.1170   29.8040   45.6200 N   0  0  0  0  0  0  0  0  0  0  0  0
   56.4750   29.2280   44.4750 C   0  0  0  0  0  0  0  0  0  0  0  0
   55.2250   29.0880   44.5060 O   0  0  0  0  0  0  0  0  0  0  0  0
   57.2640   28.6130   43.3360 C   0  0  0  0  0  0  0  0  0  0  0  0
   58.3450   27.6930   43.7620 N   0  0  0  0  0  0  0  0  0  0  0  0
   59.4610   28.3720   44.4390 C   0  0  0  0  0  0  0  0  0  0  0  0
   57.8510   26.5590   44.5550 C   0  0  0  0  0  0  0  0  0  0  0  0
   57.4500   32.4100   44.7310 S   0  0  0  0  0  0  0  0  0  0  0  0
   58.4650   33.4570   45.5640 C   0  0  0  0  0  0  0  0  0  0  0  0
   59.0250   32.7950   46.6530 C   0  0  0  0  0  0  0  0  0  0  0  0
   60.0350   33.4680   47.5500 C   0  0  0  0  0  0  0  0  0  0  0  0
   59.9670   35.0020   47.4340 C   0  0  0  0  0  0  0  0  0  0  0  0
   59.9070   35.4530   45.9650 C   0  0  0  0  0  0  0  0  0  0  0  0
   58.6450   34.9160   45.2750 C   0  0  0  0  0  0  0  0  0  0  0  0
   62.0406   30.9053   48.9397 H   0  0  0  0  0  0  0  0  0  0  0  0
   63.3882   31.0118   47.7568 H   0  0  0  0  0  0  0  0  0  0  0  0
   62.0927   32.2561   47.7568 H   0  0  0  0  0  0  0  0  0  0  0  0
   61.1638   30.9996   46.1029 H   0  0  0  0  0  0  0  0  0  0  0  0
   62.1552   29.5534   46.5305 H   0  0  0  0  0  0  0  0  0  0  0  0
   61.4263   27.9608   47.8825 H   0  0  0  0  0  0  0  0  0  0  0  0
   60.3890   28.4780   49.2630 H   0  0  0  0  0  0  0  0  0  0  0  0
   58.7899   27.0772   48.5174 H   0  0  0  0  0  0  0  0  0  0  0  0
   58.6371   28.1021   47.0501 H   0  0  0  0  0  0  0  0  0  0  0  0
   59.7528   26.6943   47.0501 H   0  0  0  0  0  0  0  0  0  0  0  0
   56.5656   28.0505   42.6990 H   0  0  0  0  0  0  0  0  0  0  0  0
   57.7524   29.4459   42.8090 H   0  0  0  0  0  0  0  0  0  0  0  0
   59.3314   28.2932   45.5285 H   0  0  0  0  0  0  0  0  0  0  0  0
   60.4098   27.8979   44.1473 H   0  0  0  0  0  0  0  0  0  0  0  0
   59.4761   29.4325   44.1473 H   0  0  0  0  0  0  0  0  0  0  0  0
   57.9513   26.7892   45.6260 H   0  0  0  0  0  0  0  0  0  0  0  0
   56.7925   26.3781   44.3164 H   0  0  0  0  0  0  0  0  0  0  0  0
   58.4394   25.6607   44.3164 H   0  0  0  0  0  0  0  0  0  0  0  0
   59.8337   33.1801   48.5924 H   0  0  0  0  0  0  0  0  0  0  0  0
   61.0393   33.1448   47.2386 H   0  0  0  0  0  0  0  0  0  0  0  0
   59.0671   35.3605   47.9552 H   0  0  0  0  0  0  0  0  0  0  0  0
   60.8759   35.4235   47.8880 H   0  0  0  0  0  0  0  0  0  0  0  0
   59.8978   36.5523   45.9264 H   0  0  0  0  0  0  0  0  0  0  0  0
   60.7887   35.0560   45.4405 H   0  0  0  0  0  0  0  0  0  0  0  0
   57.7684   35.4683   45.6445 H   0  0  0  0  0  0  0  0  0  0  0  0
   58.7506   35.0514   44.1885 H   0  0  0  0  0  0  0  0  0  0  0  0
  1  2  1  0
  2  3  1  0
  3  4  1  0
  4  5  1  0
  3  6  1  0
  6  7  2  0
  6  8  1  0
  8  9  2  0
  9 10  1  0
 10 11  1  0
 11 12  2  0
 11 13  1  0
 13 14  1  0
 14 15  1  0
 14 16  1  0
  9 17  1  0
 17 18  1  0
 18 19  2  0
 19 20  1  0
 20 21  1  0
 21 22  1  0
 22 23  1  0
 19  8  1  0
 23 18  1  0
  1 24  1  0
  1 25  1  0
  1 26  1  0
  2 27  1  0
  2 28  1  0
  4 29  1  0
  4 30  1  0
  5 31  1  0
  5 32  1  0
  5 33  1  0
 13 34  1  0
 13 35  1  0
 15 36  1  0
 15 37  1  0
 15 38  1  0
 16 39  1  0
 16 40  1  0
 16 41  1  0
 20 42  1  0
 20 43  1  0
 21 44  1  0
 21 45  1  0
 22 46  1  0
 22 47  1  0
 23 48  1  0
 23 49  1  0
M  CHG  1  10  -1
M  END
>  <UniqueID>  (4) 
4

>  <SMILES>  (4) 
CCN(CC)C(=O)c1c([N-]C(=O)CN(C)C)sc2c1CCCC2

>  <Energy>  (4) 
78.04523233585692

>  <Genealogy>  (4) 
CCN(CC)C(=O)c1c([N-]C(=O)CN(C)C)sc2c1CCCC2 (protonated)
CCN(CC)C(=O)c1c([N-]C(=O)CN(C)C)sc2c1CCCC2 (3D coordinates assigned)
CCN(CC)C(=O)c1c([N-]C(=O)CN(C)C)sc2c1CCCC2 (nonaromatic ring conformer: 78.04523233585692 kcal/mol)

>  <smiles>  (4) 
CCN(CC)C(=O)c1c(NC(=O)CN(C)C)sc2c1CCCC2

>  <score_type>  (4) 
oracle

>  <origin>  (4) 
adg

>  <m_score__min__energy>  (4) 
-8.6699999999999999

>  <m_primary>  (4) 
energy

$$$$
4:0
     RDKit          3D

 51 54  0  0  0  0  0  0  0  0999 V2000
   55.3680   26.6980   45.9870 O   0  0  0  0  0  0  0  0  0  0  0  0
   56.5870   26.9410   45.7850 C   0  0  0  0  0  0  0  0  0  0  0  0
   57.4880   25.8380   45.6060 N   0  0  0  0  0  0  0  0  0  0  0  0
   58.5020   25.3880   46.5590 C   0  0  0  0  0  0  0  0  0  0  0  0
   59.9210   25.7260   46.0820 C   0  0  0  0  0  0  0  0  0  0  0  0
   60.3460   27.1000   46.5310 C   0  0  0  0  0  0  0  0  0  0  0  0
   60.6750   28.0810   45.5850 C   0  0  0  0  0  0  0  0  0  0  0  0
   61.0420   29.3660   45.9970 C   0  0  0  0  0  0  0  0  0  0  0  0
   61.0810   29.6920   47.3640 C   0  0  0  0  0  0  0  0  0  0  0  0
   61.4690   31.0580   47.8040 C   0  0  0  0  0  0  0  0  0  0  0  0
   60.7200   31.7330   48.7860 C   0  0  0  0  0  0  0  0  0  0  0  0
   61.0880   33.0180   49.1980 C   0  0  0  0  0  0  0  0  0  0  0  0
   62.2040   33.6430   48.6360 C   0  0  0  0  0  0  0  0  0  0  0  0
   62.9550   32.9820   47.6600 C   0  0  0  0  0  0  0  0  0  0  0  0
   62.5920   31.6970   47.2460 C   0  0  0  0  0  0  0  0  0  0  0  0
   60.7430   28.7070   48.3100 C   0  0  0  0  0  0  0  0  0  0  0  0
   60.3770   27.4230   47.8950 C   0  0  0  0  0  0  0  0  0  0  0  0
   57.0350   28.3440   45.7140 C   0  0  0  0  0  0  0  0  0  0  0  0
   57.7610   28.9210   46.7670 C   0  0  0  0  0  0  0  0  0  0  0  0
   58.1760   30.2530   46.6900 C   0  0  0  0  0  0  0  0  0  0  0  0
   57.8630   31.0360   45.5640 C   0  0  0  0  0  0  0  0  0  0  0  0
   58.3090   32.4500   45.4810 C   0  0  0  0  0  0  0  0  0  0  0  0
   57.4760   33.4290   44.9050 C   0  0  0  0  0  0  0  0  0  0  0  0
   57.8980   34.7600   44.8280 C   0  0  0  0  0  0  0  0  0  0  0  0
   59.1510   35.1290   45.3220 C   0  0  0  0  0  0  0  0  0  0  0  0
   59.9860   34.1670   45.8950 C   0  0  0  0  0  0  0  0  0  0  0  0
   59.5700   32.8340   45.9760 C   0  0  0  0  0  0  0  0  0  0  0  0
   57.1170   30.4580   44.5230 C   0  0  0  0  0  0  0  0  0  0  0  0
   56.6990   29.1280   44.6020 C   0  0  0  0  0  0  0  0  0  0  0  0
   58.3248   25.8802   47.5266 H   0  0  0  0  0  0  0  0  0  0  0  0
   58.4234   24.2947   46.6517 H   0  0  0  0  0  0  0  0  0  0  0  0
   60.6216   24.9840   46.4926 H   0  0  0  0  0  0  0  0  0  0  0  0
   59.9273   25.7068   44.9822 H   0  0  0  0  0  0  0  0  0  0  0  0
   60.6443   27.8385   44.5125 H   0  0  0  0  0  0  0  0  0  0  0  0
   61.3019   30.1269   45.2464 H   0  0  0  0  0  0  0  0  0  0  0  0
   59.8398   31.2470   49.2322 H   0  0  0  0  0  0  0  0  0  0  0  0
   60.4972   33.5379   49.9665 H   0  0  0  0  0  0  0  0  0  0  0  0
   62.4912   34.6538   48.9612 H   0  0  0  0  0  0  0  0  0  0  0  0
   63.8334   33.4738   47.2167 H   0  0  0  0  0  0  0  0  0  0  0  0
   63.1883   31.1817   46.4787 H   0  0  0  0  0  0  0  0  0  0  0  0
   60.7668   28.9486   49.3829 H   0  0  0  0  0  0  0  0  0  0  0  0
   60.1117   26.6616   48.6432 H   0  0  0  0  0  0  0  0  0  0  0  0
   58.0045   28.3221   47.6570 H   0  0  0  0  0  0  0  0  0  0  0  0
   58.7524   30.6932   47.5170 H   0  0  0  0  0  0  0  0  0  0  0  0
   56.4880   33.1450   44.5136 H   0  0  0  0  0  0  0  0  0  0  0  0
   57.2411   35.5184   44.3771 H   0  0  0  0  0  0  0  0  0  0  0  0
   59.4802   36.1767   45.2599 H   0  0  0  0  0  0  0  0  0  0  0  0
   60.9730   34.4584   46.2835 H   0  0  0  0  0  0  0  0  0  0  0  0
   60.2319   32.0813   46.4291 H   0  0  0  0  0  0  0  0  0  0  0  0
   56.8600   31.0585   43.6380 H   0  0  0  0  0  0  0  0  0  0  0  0
   56.1024   28.6931   43.7866 H   0  0  0  0  0  0  0  0  0  0  0  0
  1  2  2  0
  2  3  1  0
  3  4  1  0
  4  5  1  0
  5  6  1  0
  6  7  2  0
  7  8  1  0
  8  9  2  0
  9 10  1  0
 10 11  2  0
 11 12  1  0
 12 13  2  0
 13 14  1  0
 14 15  2  0
  9 16  1  0
 16 17  2  0
  2 18  1  0
 18 19  2  0
 19 20  1  0
 20 21  2  0
 21 22  1  0
 22 23  2  0
 23 24  1  0
 24 25  2  0
 25 26  1  0
 26 27  2  0
 21 28  1  0
 28 29  2  0
 17  6  1  0
 29 18  1  0
 15 10  1  0
 27 22  1  0
  4 30  1  0
  4 31  1  0
  5 32  1  0
  5 33  1  0
  7 34  1  0
  8 35  1  0
 11 36  1  0
 12 37  1  0
 13 38  1  0
 14 39  1  0
 15 40  1  0
 16 41  1  0
 17 42  1  0
 19 43  1  0
 20 44  1  0
 23 45  1  0
 24 46  1  0
 25 47  1  0
 26 48  1  0
 27 49  1  0
 28 50  1  0
 29 51  1  0
M  CHG  1   3  -1
M  END
>  <UniqueID>  (5) 
5

>  <SMILES>  (5) 
O=C([N-]CCc1ccc(-c2ccccc2)cc1)c1ccc(-c2ccccc2)cc1

>  <Energy>  (5) 
67.40535812277425

>  <Genealogy>  (5) 
O=C([N-]CCc1ccc(-c2ccccc2)cc1)c1ccc(-c2ccccc2)cc1 (protonated)
O=C([N-]CCc1ccc(-c2ccccc2)cc1)c1ccc(-c2ccccc2)cc1 (3D coordinates assigned)
O=C([N-]CCc1ccc(-c2ccccc2)cc1)c1ccc(-c2ccccc2)cc1 (optimized conformer: 67.40535812277425 kcal/mol)

>  <smiles>  (5) 
O=C(NCCc1ccc(-c2ccccc2)cc1)c1ccc(-c2ccccc2)cc1

>  <score_type>  (5) 
oracle

>  <origin>  (5) 
adg

>  <m_score__min__energy>  (5) 
-9.5999999999999996

>  <m_primary>  (5) 
energy

$$$$
5:0
     RDKit          3D

 52 55  0  0  0  0  0  0  0  0999 V2000
   58.1670   22.6340   44.5450 C   0  0  0  0  0  0  0  0  0  0  0  0
   57.6730   23.5490   45.5150 O   0  0  0  0  0  0  0  0  0  0  0  0
   57.7050   24.9350   45.3310 C   0  0  0  0  0  0  0  0  0  0  0  0
   57.6140   25.7770   46.4420 C   0  0  0  0  0  0  0  0  0  0  0  0
   57.6470   27.1610   46.2610 C   0  0  0  0  0  0  0  0  0  0  0  0
   57.7720   27.6980   44.9710 C   0  0  0  0  0  0  0  0  0  0  0  0
   57.7990   29.1240   44.7640 N   0  0  0  0  0  0  0  0  0  0  0  0
   59.0630   29.8350   44.5640 C   0  0  0  0  0  0  0  0  0  0  0  0
   59.0960   31.1520   45.3640 C   0  0  0  0  0  0  0  0  0  0  0  0
   57.7260   31.9000   45.5020 C   0  0  1  0  0  0  0  0  0  0  0  0
   57.9240   33.4540   45.3990 C   0  0  0  0  0  0  0  0  0  0  0  0
   57.8850   34.1880   46.7580 C   0  0  0  0  0  0  0  0  0  0  0  0
   59.0610   33.7720   47.6630 C   0  0  0  0  0  0  0  0  0  0  0  0
   60.2870   33.4230   46.8910 N   0  0  0  0  0  0  0  0  0  0  0  0
   61.5780   33.4580   47.6320 C   0  0  0  0  0  0  0  0  0  0  0  0
   62.8140   33.8180   46.8300 C   0  0  0  0  0  0  0  0  0  0  0  0
   63.3840   32.5420   47.0170 O   0  0  0  0  0  0  0  0  0  0  0  0
   62.2850   32.1280   47.7950 C   0  0  0  0  0  0  0  0  0  0  0  0
   60.3970   34.1890   45.6350 C   0  0  0  0  0  0  0  0  0  0  0  0
   59.2480   33.8320   44.6710 C   0  0  0  0  0  0  0  0  0  0  0  0
   56.6750   31.3700   44.4970 C   0  0  0  0  0  0  0  0  0  0  0  0
   56.5910   29.8780   44.5840 C   0  0  0  0  0  0  0  0  0  0  0  0
   55.4790   29.2980   44.4480 O   0  0  0  0  0  0  0  0  0  0  0  0
   57.8560   26.8170   43.8820 C   0  0  0  0  0  0  0  0  0  0  0  0
   57.8210   25.4720   44.0850 N   0  0  0  0  0  0  0  0  0  0  0  0
   58.6305   21.7756   45.0532 H   0  0  0  0  0  0  0  0  0  0  0  0
   57.3360   22.2826   43.9157 H   0  0  0  0  0  0  0  0  0  0  0  0
   58.9167   23.1360   43.9157 H   0  0  0  0  0  0  0  0  0  0  0  0
   57.5170   25.3526   47.4522 H   0  0  0  0  0  0  0  0  0  0  0  0
   57.5749   27.8309   47.1305 H   0  0  0  0  0  0  0  0  0  0  0  0
   59.8920   29.1928   44.8962 H   0  0  0  0  0  0  0  0  0  0  0  0
   59.1616   30.0749   43.4950 H   0  0  0  0  0  0  0  0  0  0  0  0
   59.4590   30.9228   46.3768 H   0  0  0  0  0  0  0  0  0  0  0  0
   59.7510   31.8299   44.7970 H   0  0  0  0  0  0  0  0  0  0  0  0
   57.3250   31.6878   46.5041 H   0  0  0  0  0  0  0  0  0  0  0  0
   57.0596   33.7906   44.8079 H   0  0  0  0  0  0  0  0  0  0  0  0
   57.9384   35.2721   46.5795 H   0  0  0  0  0  0  0  0  0  0  0  0
   56.9478   33.9186   47.2671 H   0  0  0  0  0  0  0  0  0  0  0  0
   59.2970   34.6070   48.3391 H   0  0  0  0  0  0  0  0  0  0  0  0
   58.7513   32.8738   48.2174 H   0  0  0  0  0  0  0  0  0  0  0  0
   61.2003   34.0631   48.4693 H   0  0  0  0  0  0  0  0  0  0  0  0
   62.6007   34.0535   45.7769 H   0  0  0  0  0  0  0  0  0  0  0  0
   63.3939   34.7085   47.1140 H   0  0  0  0  0  0  0  0  0  0  0  0
   61.7333   31.2819   47.3594 H   0  0  0  0  0  0  0  0  0  0  0  0
   62.4656   31.7414   48.8089 H   0  0  0  0  0  0  0  0  0  0  0  0
   60.3543   35.2641   45.8638 H   0  0  0  0  0  0  0  0  0  0  0  0
   61.3525   33.9369   45.1519 H   0  0  0  0  0  0  0  0  0  0  0  0
   59.0542   34.6996   44.0232 H   0  0  0  0  0  0  0  0  0  0  0  0
   59.5673   32.9485   44.0987 H   0  0  0  0  0  0  0  0  0  0  0  0
   55.6927   31.8047   44.7339 H   0  0  0  0  0  0  0  0  0  0  0  0
   56.9733   31.6562   43.4777 H   0  0  0  0  0  0  0  0  0  0  0  0
   57.9504   27.2150   42.8609 H   0  0  0  0  0  0  0  0  0  0  0  0
  1  2  1  0
  2  3  1  0
  3  4  2  0
  4  5  1  0
  5  6  2  0
  6  7  1  0
  7  8  1  0
  8  9  1  0
  9 10  1  0
 10 11  1  0
 11 12  1  0
 12 13  1  0
 13 14  1  0
 14 15  1  0
 15 16  1  0
 16 17  1  0
 17 18  1  0
 14 19  1  0
 19 20  1  0
 10 21  1  0
 21 22  1  0
 22 23  2  0
  6 24  1  0
 24 25  2  0
 25  3  1  0
 22  7  1  0
 20 11  1  0
 18 15  1  0
  1 26  1  0
  1 27  1  0
  1 28  1  0
  4 29  1  0
  5 30  1  0
  8 31  1  0
  8 32  1  0
  9 33  1  0
  9 34  1  0
 10 35  1  1
 11 36  1  0
 12 37  1  0
 12 38  1  0
 13 39  1  0
 13 40  1  0
 15 41  1  0
 16 42  1  0
 16 43  1  0
 18 44  1  0
 18 45  1  0
 19 46  1  0
 19 47  1  0
 20 48  1  0
 20 49  1  0
 21 50  1  0
 21 51  1  0
 24 52  1  0
M  END
>  <UniqueID>  (6) 
6

>  <SMILES>  (6) 
COc1ccc(N2CC[C@@H](C3CCN(C4COC4)CC3)CC2=O)cn1

>  <Energy>  (6) 
141.3083688580637

>  <Genealogy>  (6) 
COc1ccc(N2CC[C@@H](C3CCN(C4COC4)CC3)CC2=O)cn1 (chirality)
COc1ccc(N2CC[C@@H](C3CCN(C4COC4)CC3)CC2=O)cn1 (3D coordinates assigned)
COc1ccc(N2CC[C@@H](C3CCN(C4COC4)CC3)CC2=O)cn1 (nonaromatic ring conformer: 141.3083688580637 kcal/mol)

>  <smiles>  (6) 
COc1ccc(N2CCC(C3CCN(C4COC4)CC3)CC2=O)cn1

>  <score_type>  (6) 
oracle

>  <origin>  (6) 
adg

>  <m_score__min__energy>  (6) 
-8.1999999999999993

>  <m_primary>  (6) 
energy

$$$$
6:0
     RDKit          3D

 39 41  0  0  0  0  0  0  0  0999 V2000
   57.6860   25.8770   44.5360 C   0  0  0  0  0  0  0  0  0  0  0  0
   57.0320   26.7320   45.9510 S   0  0  0  0  0  0  0  0  0  0  0  0
   57.6280   26.1580   47.2050 O   0  0  0  0  0  0  0  0  0  0  0  0
   55.5400   26.5540   46.0010 O   0  0  0  0  0  0  0  0  0  0  0  0
   57.4240   28.4440   45.8330 C   0  0  0  0  0  0  0  0  0  0  0  0
   56.8350   29.2400   44.8460 C   0  0  0  0  0  0  0  0  0  0  0  0
   57.1410   30.5990   44.7750 C   0  0  0  0  0  0  0  0  0  0  0  0
   58.0270   31.1590   45.7060 C   0  0  0  0  0  0  0  0  0  0  0  0
   58.3700   32.5530   45.6410 N   0  0  0  0  0  0  0  0  0  0  0  0
   58.5290   33.2700   44.5160 C   0  0  0  0  0  0  0  0  0  0  0  0
   58.8430   34.5610   44.8700 C   0  0  0  0  0  0  0  0  0  0  0  0
   58.8990   34.6630   46.2130 N   0  0  0  0  0  0  0  0  0  0  0  0
   58.6160   33.4180   46.6550 C   0  0  0  0  0  0  0  0  0  0  0  0
   58.6270   33.0600   48.1140 C   0  0  0  0  0  0  0  0  0  0  0  0
   59.7140   32.1820   48.4060 O   0  0  0  0  0  0  0  0  0  0  0  0
   61.0610   32.4370   48.1010 C   0  0  0  0  0  0  0  0  0  0  0  0
   61.6770   33.6800   48.3620 C   0  0  0  0  0  0  0  0  0  0  0  0
   63.0220   33.8800   48.0420 C   0  0  0  0  0  0  0  0  0  0  0  0
   63.7660   32.8510   47.4590 C   0  0  0  0  0  0  0  0  0  0  0  0
   63.1630   31.6180   47.1950 C   0  0  0  0  0  0  0  0  0  0  0  0
   61.8180   31.4120   47.5140 C   0  0  0  0  0  0  0  0  0  0  0  0
   61.2440   30.2100   47.2540 F   0  0  0  0  0  0  0  0  0  0  0  0
   58.5990   30.3610   46.6550 N   0  0  0  0  0  0  0  0  0  0  0  0
   58.3120   29.0340   46.7400 C   0  0  0  0  0  0  0  0  0  0  0  0
   58.3224   25.0451   44.8721 H   0  0  0  0  0  0  0  0  0  0  0  0
   56.8568   25.4828   43.9302 H   0  0  0  0  0  0  0  0  0  0  0  0
   58.2835   26.5741   43.9302 H   0  0  0  0  0  0  0  0  0  0  0  0
   56.1315   28.7953   44.1267 H   0  0  0  0  0  0  0  0  0  0  0  0
   56.6898   31.2276   43.9932 H   0  0  0  0  0  0  0  0  0  0  0  0
   58.4258   32.8898   43.4889 H   0  0  0  0  0  0  0  0  0  0  0  0
   59.0215   35.3856   44.1642 H   0  0  0  0  0  0  0  0  0  0  0  0
   58.7328   33.9778   48.7110 H   0  0  0  0  0  0  0  0  0  0  0  0
   57.6834   32.5522   48.3624 H   0  0  0  0  0  0  0  0  0  0  0  0
   61.0957   34.4943   48.8191 H   0  0  0  0  0  0  0  0  0  0  0  0
   63.4967   34.8503   48.2496 H   0  0  0  0  0  0  0  0  0  0  0  0
   64.8250   33.0111   47.2081 H   0  0  0  0  0  0  0  0  0  0  0  0
   63.7483   30.8081   46.7352 H   0  0  0  0  0  0  0  0  0  0  0  0
   59.2620   30.7750   47.3480 H   0  0  0  0  0  0  0  0  0  0  0  0
   58.7799   28.4218   47.5251 H   0  0  0  0  0  0  0  0  0  0  0  0
  1  2  1  0
  2  3  2  0
  2  4  2  0
  2  5  1  0
  5  6  2  0
  6  7  1  0
  7  8  2  0
  8  9  1  0
  9 10  1  0
 10 11  2  0
 11 12  1  0
 12 13  2  0
 13 14  1  0
 14 15  1  0
 15 16  1  0
 16 17  2  0
 17 18  1  0
 18 19  2  0
 19 20  1  0
 20 21  2  0
 21 22  1  0
  8 23  1  0
 23 24  2  0
 24  5  1  0
 13  9  1  0
 21 16  1  0
  1 25  1  0
  1 26  1  0
  1 27  1  0
  6 28  1  0
  7 29  1  0
 10 30  1  0
 11 31  1  0
 14 32  1  0
 14 33  1  0
 17 34  1  0
 18 35  1  0
 19 36  1  0
 20 37  1  0
 23 38  1  0
 24 39  1  0
M  CHG  1  23   1
M  END
>  <UniqueID>  (7) 
7

>  <SMILES>  (7) 
CS(=O)(=O)c1ccc(-n2ccnc2COc2ccccc2F)[nH+]c1

>  <Energy>  (7) 
72.57006001479425

>  <Genealogy>  (7) 
CS(=O)(=O)c1ccc(-n2ccnc2COc2ccccc2F)[nH+]c1 (protonated)
CS(=O)(=O)c1ccc(-n2ccnc2COc2ccccc2F)[nH+]c1 (3D coordinates assigned)
CS(=O)(=O)c1ccc(-n2ccnc2COc2ccccc2F)[nH+]c1 (optimized conformer: 72.57006001479425 kcal/mol)

>  <smiles>  (7) 
CS(=O)(=O)c1ccc(-n2ccnc2COc2ccccc2F)nc1

>  <score_type>  (7) 
oracle

>  <origin>  (7) 
adg

>  <m_score__min__energy>  (7) 
-5.9000000000000004

>  <m_primary>  (7) 
energy

$$$$
7:0
     RDKit          3D

 57 61  0  0  0  0  0  0  0  0999 V2000
   58.6203   33.3333   41.7333 H   0  0  0  0  0  0  0  0  0  0  0  0
   58.1680   32.5730   42.3870 C   0  0  0  0  0  0  0  0  0  0  0  0
   58.4560   32.5660   43.7530 C   0  0  0  0  0  0  0  0  0  0  0  0
   59.1349   33.3218   44.1748 H   0  0  0  0  0  0  0  0  0  0  0  0
   57.8830   31.6000   44.5860 C   0  0  0  0  0  0  0  0  0  0  0  0
   58.1120   31.6011   45.6619 H   0  0  0  0  0  0  0  0  0  0  0  0
   57.0150   30.6260   44.0570 C   0  0  0  0  0  0  0  0  0  0  0  0
   56.4150   29.5940   44.9360 C   0  0  0  0  0  0  0  0  0  0  0  0
   55.1820   29.3380   44.8520 O   0  0  0  0  0  0  0  0  0  0  0  0
   57.2400   28.9130   45.8970 N   0  0  0  0  0  0  0  0  0  0  0  0
   57.6550   27.6800   45.8510 C   0  0  0  0  0  0  0  0  0  0  0  0
   56.9060   26.7070   45.2580 N   0  0  0  0  0  0  0  0  0  0  0  0
   57.3450   25.4250   45.1720 C   0  0  0  0  0  0  0  0  0  0  0  0
   56.5600   24.4420   44.5600 C   0  0  0  0  0  0  0  0  0  0  0  0
   55.5746   24.7012   44.1456 H   0  0  0  0  0  0  0  0  0  0  0  0
   57.0330   23.1280   44.4770 C   0  0  0  0  0  0  0  0  0  0  0  0
   56.4180   22.3536   43.9954 H   0  0  0  0  0  0  0  0  0  0  0  0
   58.2870   22.7950   45.0050 C   0  0  0  0  0  0  0  0  0  0  0  0
   58.6546   21.7605   44.9361 H   0  0  0  0  0  0  0  0  0  0  0  0
   59.0730   23.7760   45.6200 C   0  0  0  0  0  0  0  0  0  0  0  0
   60.0569   23.5136   46.0362 H   0  0  0  0  0  0  0  0  0  0  0  0
   58.6040   25.0910   45.7040 C   0  0  0  0  0  0  0  0  0  0  0  0
   59.3500   26.0550   46.3000 N   0  0  0  0  0  0  0  0  0  0  0  0
   58.9090   27.3400   46.3970 C   0  0  0  0  0  0  0  0  0  0  0  0
   59.7270   28.3150   47.0640 N   0  0  0  0  0  0  0  0  0  0  0  0
   60.2480   29.4300   46.2600 C   0  0  0  0  0  0  0  0  0  0  0  0
   60.8638   29.0141   45.4489 H   0  0  0  0  0  0  0  0  0  0  0  0
   59.3771   29.9879   45.8854 H   0  0  0  0  0  0  0  0  0  0  0  0
   61.1000   30.4180   47.0520 C   0  0  0  0  0  0  0  0  0  0  0  0
   62.1267   30.0267   47.1037 H   0  0  0  0  0  0  0  0  0  0  0  0
   61.0427   31.3828   46.5268 H   0  0  0  0  0  0  0  0  0  0  0  0
   60.6210   30.6490   48.4270 N   0  0  0  0  0  0  0  0  0  0  0  0
   61.3980   31.1960   48.8720 H   0  0  0  0  0  0  0  0  0  0  0  0
   59.4410   31.5590   48.5450 C   0  0  0  0  0  0  0  0  0  0  0  0
   58.5389   30.9684   48.3272 H   0  0  0  0  0  0  0  0  0  0  0  0
   59.4828   31.9631   49.5672 H   0  0  0  0  0  0  0  0  0  0  0  0
   59.4330   32.7680   47.6320 C   0  0  0  0  0  0  0  0  0  0  0  0
   58.2130   33.3140   47.1900 C   0  0  0  0  0  0  0  0  0  0  0  0
   57.2634   32.8511   47.4966 H   0  0  0  0  0  0  0  0  0  0  0  0
   58.2020   34.4420   46.3630 C   0  0  0  0  0  0  0  0  0  0  0  0
   57.2460   34.8469   45.9995 H   0  0  0  0  0  0  0  0  0  0  0  0
   59.4020   35.0550   45.9980 C   0  0  0  0  0  0  0  0  0  0  0  0
   59.3920   35.9318   45.3339 H   0  0  0  0  0  0  0  0  0  0  0  0
   60.6150   34.5550   46.4760 C   0  0  0  0  0  0  0  0  0  0  0  0
   61.5588   35.0488   46.2013 H   0  0  0  0  0  0  0  0  0  0  0  0
   60.6320   33.4280   47.3030 C   0  0  0  0  0  0  0  0  0  0  0  0
   61.5880   33.0548   47.6990 H   0  0  0  0  0  0  0  0  0  0  0  0
   60.5760   29.3910   49.1980 C   0  0  0  0  0  0  0  0  0  0  0  0
   61.6082   29.0384   49.3404 H   0  0  0  0  0  0  0  0  0  0  0  0
   60.0656   29.6227   50.1445 H   0  0  0  0  0  0  0  0  0  0  0  0
   59.7690   28.2600   48.5310 C   0  0  0  0  0  0  0  0  0  0  0  0
   60.2186   27.3000   48.8246 H   0  0  0  0  0  0  0  0  0  0  0  0
   58.7306   28.3766   48.8748 H   0  0  0  0  0  0  0  0  0  0  0  0
   56.7320   30.6440   42.6780 C   0  0  0  0  0  0  0  0  0  0  0  0
   56.0557   29.8902   42.2486 H   0  0  0  0  0  0  0  0  0  0  0  0
   57.3060   31.6150   41.8510 C   0  0  0  0  0  0  0  0  0  0  0  0
   57.0774   31.6237   40.7750 H   0  0  0  0  0  0  0  0  0  0  0  0
  1  2  1  0
  2  3  2  0
  3  4  1  0
  3  5  1  0
  5  6  1  0
  5  7  2  0
  7  8  1  0
  8  9  2  0
  8 10  1  0
 10 11  2  0
 11 12  1  0
 12 13  1  0
 13 14  2  0
 14 15  1  0
 14 16  1  0
 16 17  1  0
 16 18  2  0
 18 19  1  0
 18 20  1  0
 20 21  1  0
 20 22  2  0
 22 23  1  0
 23 24  2  0
 24 25  1  0
 25 26  1  0
 26 27  1  0
 26 28  1  0
 26 29  1  0
 29 30  1  0
 29 31  1  0
 29 32  1  0
 32 33  1  0
 32 34  1  0
 34 35  1  0
 34 36  1  0
 34 37  1  0
 37 38  2  0
 38 39  1  0
 38 40  1  0
 40 41  1  0
 40 42  2  0
 42 43  1  0
 42 44  1  0
 44 45  1  0
 44 46  2  0
 46 47  1  0
 32 48  1  0
 48 49  1  0
 48 50  1  0
 48 51  1  0
 51 52  1  0
 51 53  1  0
  7 54  1  0
 54 55  1  0
 54 56  2  0
 56 57  1  0
 56  2  1  0
 24 11  1  0
 51 25  1  0
 22 13  1  0
 46 37  1  0
M  CHG  2  12  -1  32   1
M  END
>  <UniqueID>  (8) 
8

>  <SMILES>  (8) 
O=C(/N=c1\[n-]c2ccccc2nc1N1CC[NH+](Cc2ccccc2)CC1)c1ccccc1

>  <Energy>  (8) 
87.54053043585192

>  <Genealogy>  (8) 
O=C(N=c1[n-]c2ccccc2nc1N1CC[NH+](Cc2ccccc2)CC1)c1ccccc1 (protonated)
O=C(/N=c1\[n-]c2ccccc2nc1N1CC[NH+](Cc2ccccc2)CC1)c1ccccc1 (cis-trans isomerization)
O=C(/N=c1\[n-]c2ccccc2nc1N1CC[NH+](Cc2ccccc2)CC1)c1ccccc1 (3D coordinates assigned)
O=C(/N=c1\[n-]c2ccccc2nc1N1CC[NH+](Cc2ccccc2)CC1)c1ccccc1 (nonaromatic ring conformer: 87.54053043585192 kcal/mol)

>  <smiles>  (8) 
O=C(N=c1[nH]c2ccccc2nc1N1CCN(Cc2ccccc2)CC1)c1ccccc1

>  <score_type>  (8) 
oracle

>  <origin>  (8) 
adg

>  <m_score__min__energy>  (8) 
-10.119999999999999

>  <m_primary>  (8) 
energy

$$$$
8:0
     RDKit          3D

 64 68  0  0  0  0  0  0  0  0999 V2000
   57.0203   27.7375   47.1427 H   0  0  0  0  0  0  0  0  0  0  0  0
   57.9790   27.7800   46.6050 C   0  0  0  0  0  0  0  0  0  0  0  0
   58.2020   26.8660   45.6500 C   0  0  0  0  0  0  0  0  0  0  0  0
   58.4369   25.8383   45.9641 H   0  0  0  0  0  0  0  0  0  0  0  0
   58.1510   27.1580   44.1800 C   0  0  0  0  0  0  0  0  0  0  0  0
   57.9636   28.2309   44.0256 H   0  0  0  0  0  0  0  0  0  0  0  0
   59.1107   26.8832   43.7181 H   0  0  0  0  0  0  0  0  0  0  0  0
   57.3412   26.5741   43.7181 H   0  0  0  0  0  0  0  0  0  0  0  0
   58.9350   28.8400   46.9830 C   0  0  0  0  0  0  0  0  0  0  0  0
   59.8250   29.3920   46.0480 C   0  0  0  0  0  0  0  0  0  0  0  0
   59.8318   29.0194   45.0131 H   0  0  0  0  0  0  0  0  0  0  0  0
   60.7020   30.4120   46.4250 C   0  0  0  0  0  0  0  0  0  0  0  0
   61.4036   30.8280   45.6870 H   0  0  0  0  0  0  0  0  0  0  0  0
   60.6960   30.9120   47.7400 C   0  0  0  0  0  0  0  0  0  0  0  0
   61.6560   32.0070   48.1710 C   0  0  1  0  0  0  0  0  0  0  0  0
   61.5899   32.8108   47.4230 H   0  0  0  0  0  0  0  0  0  0  0  0
   61.2530   32.6390   49.5440 C   0  0  2  0  0  0  0  0  0  0  0  0
   61.1064   31.8101   50.2521 H   0  0  0  0  0  0  0  0  0  0  0  0
   59.8660   33.3250   49.5480 C   0  0  0  0  0  0  0  0  0  0  0  0
   59.1132   32.5956   49.2143 H   0  0  0  0  0  0  0  0  0  0  0  0
   59.6740   33.6731   50.5736 H   0  0  0  0  0  0  0  0  0  0  0  0
   59.8040   34.4940   48.6700 N   0  0  0  0  0  0  0  0  0  0  0  0
   59.4760   34.4840   47.4120 C   0  0  0  0  0  0  0  0  0  0  0  0
   58.9070   33.4110   46.8280 N   0  0  0  0  0  0  0  0  0  0  0  0
   58.6730   33.6100   45.5000 C   0  0  0  0  0  0  0  0  0  0  0  0
   58.0620   32.5500   44.6550 C   0  0  0  0  0  0  0  0  0  0  0  0
   58.0090   32.6650   43.2520 C   0  0  0  0  0  0  0  0  0  0  0  0
   58.4254   33.5575   42.7621 H   0  0  0  0  0  0  0  0  0  0  0  0
   57.4320   31.6550   42.4770 C   0  0  0  0  0  0  0  0  0  0  0  0
   57.3913   31.7610   41.3829 H   0  0  0  0  0  0  0  0  0  0  0  0
   56.9050   30.5080   43.0860 C   0  0  0  0  0  0  0  0  0  0  0  0
   56.2520   29.4430   42.2550 C   0  0  0  0  0  0  0  0  0  0  0  0
   55.7922   28.6931   42.9154 H   0  0  0  0  0  0  0  0  0  0  0  0
   55.4769   29.8970   41.6202 H   0  0  0  0  0  0  0  0  0  0  0  0
   57.0082   28.9581   41.6202 H   0  0  0  0  0  0  0  0  0  0  0  0
   56.9310   30.3980   44.4820 C   0  0  0  0  0  0  0  0  0  0  0  0
   56.4959   29.5130   44.9694 H   0  0  0  0  0  0  0  0  0  0  0  0
   57.5070   31.4070   45.2590 C   0  0  0  0  0  0  0  0  0  0  0  0
   57.5266   31.3063   46.3542 H   0  0  0  0  0  0  0  0  0  0  0  0
   59.0730   34.8650   45.0250 C   0  0  0  0  0  0  0  0  0  0  0  0
   58.9756   35.2227   43.9894 H   0  0  0  0  0  0  0  0  0  0  0  0
   59.7280   35.7320   46.3090 S   0  0  0  0  0  0  0  0  0  0  0  0
   62.4130   33.5110   50.1100 C   0  0  1  0  0  0  0  0  0  0  0  0
   62.0475   34.0425   51.0010 H   0  0  0  0  0  0  0  0  0  0  0  0
   63.5260   32.5780   50.3250 N   0  0  0  0  0  0  0  0  0  0  0  0
   64.5170   33.0920   51.2870 C   0  0  0  0  0  0  0  0  0  0  0  0
   64.1626   32.9082   52.3120 H   0  0  0  0  0  0  0  0  0  0  0  0
   65.4776   32.5785   51.1335 H   0  0  0  0  0  0  0  0  0  0  0  0
   64.6505   34.1730   51.1335 H   0  0  0  0  0  0  0  0  0  0  0  0
   64.0740   32.4380   48.9710 C   0  0  2  0  0  0  0  0  0  0  0  0
   65.0931   32.0245   48.9512 H   0  0  0  0  0  0  0  0  0  0  0  0
   64.0660   33.8440   48.3600 C   0  0  0  0  0  0  0  0  0  0  0  0
   65.0290   34.3490   48.5262 H   0  0  0  0  0  0  0  0  0  0  0  0
   63.9148   33.8336   47.2705 H   0  0  0  0  0  0  0  0  0  0  0  0
   62.9420   34.5580   49.1050 C   0  0  0  0  0  0  0  0  0  0  0  0
   63.3270   35.4429   49.6329 H   0  0  0  0  0  0  0  0  0  0  0  0
   62.1553   34.9188   48.4261 H   0  0  0  0  0  0  0  0  0  0  0  0
   63.1290   31.4880   48.1870 C   0  0  0  0  0  0  0  0  0  0  0  0
   63.1504   30.4957   48.6612 H   0  0  0  0  0  0  0  0  0  0  0  0
   63.4830   31.4407   47.1466 H   0  0  0  0  0  0  0  0  0  0  0  0
   59.7810   30.3770   48.6640 C   0  0  0  0  0  0  0  0  0  0  0  0
   59.7565   30.7631   49.6937 H   0  0  0  0  0  0  0  0  0  0  0  0
   58.9020   29.3580   48.2840 C   0  0  0  0  0  0  0  0  0  0  0  0
   58.1795   28.9604   49.0119 H   0  0  0  0  0  0  0  0  0  0  0  0
  1  2  1  0
  2  3  2  0
  3  4  1  0
  3  5  1  0
  5  6  1  0
  5  7  1  0
  5  8  1  0
  2  9  1  0
  9 10  2  0
 10 11  1  0
 10 12  1  0
 12 13  1  0
 12 14  2  0
 14 15  1  0
 15 16  1  6
 15 17  1  0
 17 18  1  1
 17 19  1  0
 19 20  1  0
 19 21  1  0
 19 22  1  0
 22 23  2  0
 23 24  1  0
 24 25  1  0
 25 26  1  0
 26 27  2  0
 27 28  1  0
 27 29  1  0
 29 30  1  0
 29 31  2  0
 31 32  1  0
 32 33  1  0
 32 34  1  0
 32 35  1  0
 31 36  1  0
 36 37  1  0
 36 38  2  0
 38 39  1  0
 25 40  2  0
 40 41  1  0
 40 42  1  0
 17 43  1  0
 43 44  1  1
 43 45  1  0
 45 46  1  0
 46 47  1  0
 46 48  1  0
 46 49  1  0
 45 50  1  0
 50 51  1  1
 50 52  1  0
 52 53  1  0
 52 54  1  0
 52 55  1  0
 55 56  1  0
 55 57  1  0
 50 58  1  0
 58 59  1  0
 58 60  1  0
 14 61  1  0
 61 62  1  0
 61 63  2  0
 63 64  1  0
 63  9  1  0
 58 15  1  0
 42 23  1  0
 55 43  1  0
 38 26  1  0
M  CHG  1  24  -1
M  END
>  <UniqueID>  (9) 
9

>  <SMILES>  (9) 
C/C=C\c1ccc([C@@H]2C[C@H]3CCC(C2C/N=c2/[n-]c(-c4ccc(C)cc4)cs2)N3C)cc1

>  <Energy>  (9) 
118.70282354786586

>  <Genealogy>  (9) 
CC=Cc1ccc(C2CC3CCC(C2CN=c2[n-]c(-c4ccc(C)cc4)cs2)N3C)cc1 (protonated)
CC=Cc1ccc([C@@H]2C[C@H]3CCC(C2CN=c2[n-]c(-c4ccc(C)cc4)cs2)N3C)cc1 (chirality)
C/C=C\c1ccc([C@@H]2C[C@H]3CCC(C2C/N=c2/[n-]c(-c4ccc(C)cc4)cs2)N3C)cc1 (cis-trans isomerization)
C/C=C\c1ccc([C@@H]2C[C@H]3CCC(C2C/N=c2/[n-]c(-c4ccc(C)cc4)cs2)N3C)cc1 (3D coordinates assigned)
C/C=C\c1ccc([C@@H]2C[C@H]3CCC(C2C/N=c2/[n-]c(-c4ccc(C)cc4)cs2)N3C)cc1 (nonaromatic ring conformer: 118.70282354786586 kcal/mol)

>  <smiles>  (9) 
CC=Cc1ccc(C2CC3CCC(C2CN=c2[nH]c(-c4ccc(C)cc4)cs2)N3C)cc1

>  <score_type>  (9) 
oracle

>  <origin>  (9) 
adg

>  <m_score__min__energy>  (9) 
-10.44

>  <m_primary>  (9) 
energy

$$$$
9:0
     RDKit          3D

 30 31  0  0  0  0  0  0  0  0999 V2000
   60.7190   30.9580   48.9050 C   0  0  0  0  0  0  0  0  0  0  0  0
   60.6960   30.5660   47.7640 C   0  0  0  0  0  0  0  0  0  0  0  0
   60.6680   30.0960   46.3760 C   0  0  0  0  0  0  0  0  0  0  0  0
   59.4410   29.2550   46.1380 C   0  0  0  0  0  0  0  0  0  0  0  0
   59.5290   27.5920   46.4180 S   0  0  0  0  0  0  0  0  0  0  0  0
   58.0880   26.8100   46.0520 C   0  0  0  0  0  0  0  0  0  0  0  0
   57.9790   25.5660   46.2080 O   0  0  0  0  0  0  0  0  0  0  0  0
   57.0260   27.5700   45.5720 C   0  0  0  0  0  0  0  0  0  0  0  0
   57.0770   28.9760   45.3650 C   0  0  0  0  0  0  0  0  0  0  0  0
   55.9450   29.6530   44.8700 O   0  0  0  0  0  0  0  0  0  0  0  0
   55.5560   29.7190   43.5010 C   0  0  0  0  0  0  0  0  0  0  0  0
   58.2280   29.7770   45.6310 C   0  0  0  0  0  0  0  0  0  0  0  0
   58.1340   31.2260   45.3510 C   0  0  0  0  0  0  0  0  0  0  0  0
   58.1450   31.6890   44.0260 C   0  0  0  0  0  0  0  0  0  0  0  0
   58.0520   33.0580   43.7610 C   0  0  0  0  0  0  0  0  0  0  0  0
   57.9410   33.9700   44.8150 C   0  0  0  0  0  0  0  0  0  0  0  0
   57.9220   33.5130   46.1360 C   0  0  0  0  0  0  0  0  0  0  0  0
   58.0160   32.1440   46.4060 C   0  0  0  0  0  0  0  0  0  0  0  0
   60.7400   31.3153   49.9451 H   0  0  0  0  0  0  0  0  0  0  0  0
   60.6518   30.9627   45.6988 H   0  0  0  0  0  0  0  0  0  0  0  0
   61.5640   29.4874   46.1842 H   0  0  0  0  0  0  0  0  0  0  0  0
   56.0858   27.0494   45.3374 H   0  0  0  0  0  0  0  0  0  0  0  0
   54.4734   29.9027   43.4359 H   0  0  0  0  0  0  0  0  0  0  0  0
   56.0974   30.5381   43.0051 H   0  0  0  0  0  0  0  0  0  0  0  0
   55.7969   28.7671   43.0051 H   0  0  0  0  0  0  0  0  0  0  0  0
   58.2270   30.9731   43.1948 H   0  0  0  0  0  0  0  0  0  0  0  0
   58.0661   33.4185   42.7219 H   0  0  0  0  0  0  0  0  0  0  0  0
   57.8686   35.0473   44.6047 H   0  0  0  0  0  0  0  0  0  0  0  0
   57.8330   34.2313   46.9644 H   0  0  0  0  0  0  0  0  0  0  0  0
   57.9974   31.7865   47.4461 H   0  0  0  0  0  0  0  0  0  0  0  0
  1  2  3  0
  2  3  1  0
  3  4  1  0
  4  5  1  0
  5  6  1  0
  6  7  2  0
  6  8  1  0
  8  9  2  0
  9 10  1  0
 10 11  1  0
  9 12  1  0
 12 13  1  0
 13 14  2  0
 14 15  1  0
 15 16  2  0
 16 17  1  0
 17 18  2  0
 12  4  2  0
 18 13  1  0
  1 19  1  0
  3 20  1  0
  3 21  1  0
  8 22  1  0
 11 23  1  0
 11 24  1  0
 11 25  1  0
 14 26  1  0
 15 27  1  0
 16 28  1  0
 17 29  1  0
 18 30  1  0
M  END
>  <UniqueID>  (10) 
10

>  <SMILES>  (10) 
C#CCc1sc(=O)cc(OC)c1-c1ccccc1

>  <Energy>  (10) 
38.711858189021655

>  <Genealogy>  (10) 
C#CCc1sc(=O)cc(OC)c1-c1ccccc1 (3D coordinates assigned)
C#CCc1sc(=O)cc(OC)c1-c1ccccc1 (optimized conformer: 38.711858189021655 kcal/mol)

>  <smiles>  (10) 
C#CCc1sc(=O)cc(OC)c1-c1ccccc1

>  <score_type>  (10) 
oracle

>  <origin>  (10) 
adg

>  <m_score__min__energy>  (10) 
-6.1100000000000003

>  <m_primary>  (10) 
energy

$$$$
10:0
     RDKit          3D

 46 48  0  0  0  0  0  0  0  0999 V2000
   64.2420   32.5660   49.3010 C   0  0  0  0  0  0  0  0  0  0  0  0
   63.4420   33.7270   48.7100 C   0  0  0  0  0  0  0  0  0  0  0  0
   62.2960   33.2470   47.7920 C   0  0  2  0  0  0  0  0  0  0  0  0
   62.4520   33.8420   46.3880 C   0  0  0  0  0  0  0  0  0  0  0  0
   60.9660   33.5800   48.3420 N   0  0  0  0  0  0  0  0  0  0  0  0
   60.8100   33.8500   49.7740 C   0  0  0  0  0  0  0  0  0  0  0  0
   59.7150   33.0090   50.3470 C   0  0  0  0  0  0  0  0  0  0  0  0
   58.8910   33.3580   51.4090 C   0  0  0  0  0  0  0  0  0  0  0  0
   57.9920   32.3440   51.7650 C   0  0  0  0  0  0  0  0  0  0  0  0
   58.1070   31.1980   50.9900 C   0  0  0  0  0  0  0  0  0  0  0  0
   59.3340   31.4420   49.8670 S   0  0  0  0  0  0  0  0  0  0  0  0
   59.8070   33.6290   47.4950 C   0  0  0  0  0  0  0  0  0  0  0  0
   59.1040   34.6770   47.4640 O   0  0  0  0  0  0  0  0  0  0  0  0
   59.4150   32.4510   46.7020 C   0  0  0  0  0  0  0  0  0  0  0  0
   60.3940   31.0930   46.4840 S   0  0  0  0  0  0  0  0  0  0  0  0
   59.2240   30.2800   45.5990 C   0  0  0  0  0  0  0  0  0  0  0  0
   59.3720   29.0430   45.0560 N   0  0  0  0  0  0  0  0  0  0  0  0
   58.3600   28.5040   44.3180 C   0  0  0  0  0  0  0  0  0  0  0  0
   58.4910   27.1230   43.7500 C   0  0  0  0  0  0  0  0  0  0  0  0
   57.1700   29.2280   44.1360 C   0  0  0  0  0  0  0  0  0  0  0  0
   57.0540   30.5030   44.7020 C   0  0  0  0  0  0  0  0  0  0  0  0
   56.0080   31.1720   44.4930 O   0  0  0  0  0  0  0  0  0  0  0  0
   58.0850   31.0020   45.4510 N   0  0  0  0  0  0  0  0  0  0  0  0
   58.1770   32.2200   46.0810 C   0  0  0  0  0  0  0  0  0  0  0  0
   57.1250   33.1950   46.0800 N   0  0  0  0  0  0  0  0  0  0  0  0
   64.2064   32.6177   50.3992 H   0  0  0  0  0  0  0  0  0  0  0  0
   63.8080   31.6129   48.9645 H   0  0  0  0  0  0  0  0  0  0  0  0
   65.2872   32.6321   48.9645 H   0  0  0  0  0  0  0  0  0  0  0  0
   63.0115   34.3148   49.5341 H   0  0  0  0  0  0  0  0  0  0  0  0
   64.1295   34.3309   48.0996 H   0  0  0  0  0  0  0  0  0  0  0  0
   62.3633   32.1507   47.7320 H   0  0  0  0  0  0  0  0  0  0  0  0
   62.7302   34.9032   46.4683 H   0  0  0  0  0  0  0  0  0  0  0  0
   63.2376   33.2971   45.8441 H   0  0  0  0  0  0  0  0  0  0  0  0
   61.5001   33.7527   45.8441 H   0  0  0  0  0  0  0  0  0  0  0  0
   61.7529   33.6188   50.2912 H   0  0  0  0  0  0  0  0  0  0  0  0
   60.5538   34.9109   49.9111 H   0  0  0  0  0  0  0  0  0  0  0  0
   58.9392   34.3315   51.9188 H   0  0  0  0  0  0  0  0  0  0  0  0
   57.2630   32.4464   52.5824 H   0  0  0  0  0  0  0  0  0  0  0  0
   57.4996   30.2867   51.0930 H   0  0  0  0  0  0  0  0  0  0  0  0
   60.2600   28.5140   45.2080 H   0  0  0  0  0  0  0  0  0  0  0  0
   58.5602   26.3940   44.5708 H   0  0  0  0  0  0  0  0  0  0  0  0
   57.6104   26.8960   43.1312 H   0  0  0  0  0  0  0  0  0  0  0  0
   59.3986   27.0656   43.1312 H   0  0  0  0  0  0  0  0  0  0  0  0
   56.3399   28.7984   43.5561 H   0  0  0  0  0  0  0  0  0  0  0  0
   56.3070   33.0920   45.4420 H   0  0  0  0  0  0  0  0  0  0  0  0
   57.1610   34.0500   46.6740 H   0  0  0  0  0  0  0  0  0  0  0  0
  1  2  1  0
  2  3  1  0
  3  4  1  0
  3  5  1  0
  5  6  1  0
  6  7  1  0
  7  8  2  0
  8  9  1  0
  9 10  2  0
 10 11  1  0
  5 12  1  0
 12 13  2  0
 12 14  1  0
 14 15  1  0
 15 16  1  0
 16 17  2  0
 17 18  1  0
 18 19  1  0
 18 20  2  0
 20 21  1  0
 21 22  2  0
 21 23  1  0
 23 24  1  0
 24 25  1  0
 11  7  1  0
 24 14  2  0
 23 16  1  0
  1 26  1  0
  1 27  1  0
  1 28  1  0
  2 29  1  0
  2 30  1  0
  3 31  1  6
  4 32  1  0
  4 33  1  0
  4 34  1  0
  6 35  1  0
  6 36  1  0
  8 37  1  0
  9 38  1  0
 10 39  1  0
 17 40  1  0
 19 41  1  0
 19 42  1  0
 19 43  1  0
 20 44  1  0
 25 45  1  0
 25 46  1  0
M  CHG  1  17   1
M  END
>  <UniqueID>  (11) 
11

>  <SMILES>  (11) 
CC[C@H](C)N(Cc1cccs1)C(=O)c1sc2[nH+]c(C)cc(=O)n2c1N

>  <Energy>  (11) 
109.20097574487818

>  <Genealogy>  (11) 
CCC(C)N(Cc1cccs1)C(=O)c1sc2[nH+]c(C)cc(=O)n2c1N (protonated)
CC[C@H](C)N(Cc1cccs1)C(=O)c1sc2[nH+]c(C)cc(=O)n2c1N (chirality)
CC[C@H](C)N(Cc1cccs1)C(=O)c1sc2[nH+]c(C)cc(=O)n2c1N (3D coordinates assigned)
CC[C@H](C)N(Cc1cccs1)C(=O)c1sc2[nH+]c(C)cc(=O)n2c1N (optimized conformer: 109.20097574487818 kcal/mol)

>  <smiles>  (11) 
CCC(C)N(Cc1cccs1)C(=O)c1sc2nc(C)cc(=O)n2c1N

>  <score_type>  (11) 
oracle

>  <origin>  (11) 
adg

>  <m_score__min__energy>  (11) 
-6.1200000000000001

>  <m_primary>  (11) 
energy

$$$$
11:0
     RDKit          3D

 33 35  0  0  0  0  0  0  0  0999 V2000
   56.2520   30.4850   43.6830 C   0  0  0  0  0  0  0  0  0  0  0  0
   56.9670   30.7970   44.8740 O   0  0  0  0  0  0  0  0  0  0  0  0
   58.1570   30.1710   45.2780 C   0  0  0  0  0  0  0  0  0  0  0  0
   58.4210   28.8180   44.9810 C   0  0  0  0  0  0  0  0  0  0  0  0
   59.6220   28.2260   45.3770 C   0  0  0  0  0  0  0  0  0  0  0  0
   60.5720   28.9700   46.0750 C   0  0  0  0  0  0  0  0  0  0  0  0
   60.3240   30.3090   46.3810 C   0  0  0  0  0  0  0  0  0  0  0  0
   59.1230   30.9210   45.9850 C   0  0  0  0  0  0  0  0  0  0  0  0
   58.8740   32.3390   46.3320 C   0  0  0  0  0  0  0  0  0  0  0  0
   57.6540   32.9840   46.2600 C   0  0  0  0  0  0  0  0  0  0  0  0
   57.7690   34.1990   46.7440 O   0  0  0  0  0  0  0  0  0  0  0  0
   59.0070   34.3920   47.1380 C   0  0  0  0  0  0  0  0  0  0  0  0
   59.7530   33.2500   46.9030 C   0  0  0  0  0  0  0  0  0  0  0  0
   61.2030   33.0980   47.1620 C   0  0  0  0  0  0  0  0  0  0  0  0
   62.1510   33.7680   46.3710 C   0  0  0  0  0  0  0  0  0  0  0  0
   63.5120   33.6100   46.6440 C   0  0  0  0  0  0  0  0  0  0  0  0
   63.9170   32.8220   47.6740 N   0  0  0  0  0  0  0  0  0  0  0  0
   63.0200   32.1730   48.4650 C   0  0  0  0  0  0  0  0  0  0  0  0
   61.6500   32.3030   48.2270 C   0  0  0  0  0  0  0  0  0  0  0  0
   55.2727   30.0577   43.9445 H   0  0  0  0  0  0  0  0  0  0  0  0
   56.1062   31.4013   43.0921 H   0  0  0  0  0  0  0  0  0  0  0  0
   56.8246   29.7550   43.0921 H   0  0  0  0  0  0  0  0  0  0  0  0
   57.6747   28.2241   44.4329 H   0  0  0  0  0  0  0  0  0  0  0  0
   59.8189   27.1705   45.1377 H   0  0  0  0  0  0  0  0  0  0  0  0
   61.5178   28.5015   46.3848 H   0  0  0  0  0  0  0  0  0  0  0  0
   61.0749   30.8898   46.9367 H   0  0  0  0  0  0  0  0  0  0  0  0
   56.7281   32.5464   45.8586 H   0  0  0  0  0  0  0  0  0  0  0  0
   59.3922   35.3197   47.5863 H   0  0  0  0  0  0  0  0  0  0  0  0
   61.8239   34.4129   45.5420 H   0  0  0  0  0  0  0  0  0  0  0  0
   64.2588   34.1257   46.0224 H   0  0  0  0  0  0  0  0  0  0  0  0
   64.9380   32.7150   47.8650 H   0  0  0  0  0  0  0  0  0  0  0  0
   63.3751   31.5439   49.2946 H   0  0  0  0  0  0  0  0  0  0  0  0
   60.9253   31.7843   48.8718 H   0  0  0  0  0  0  0  0  0  0  0  0
  1  2  1  0
  2  3  1  0
  3  4  2  0
  4  5  1  0
  5  6  2  0
  6  7  1  0
  7  8  2  0
  8  9  1  0
  9 10  2  0
 10 11  1  0
 11 12  1  0
 12 13  2  0
 13 14  1  0
 14 15  2  0
 15 16  1  0
 16 17  2  0
 17 18  1  0
 18 19  2  0
  8  3  1  0
 13  9  1  0
 19 14  1  0
  1 20  1  0
  1 21  1  0
  1 22  1  0
  4 23  1  0
  5 24  1  0
  6 25  1  0
  7 26  1  0
 10 27  1  0
 12 28  1  0
 15 29  1  0
 16 30  1  0
 17 31  1  0
 18 32  1  0
 19 33  1  0
M  CHG  1  17   1
M  END
>  <UniqueID>  (12) 
12

>  <SMILES>  (12) 
COc1ccccc1-c1cocc1-c1cc[nH+]cc1

>  <Energy>  (12) 
70.71710786711257

>  <Genealogy>  (12) 
COc1ccccc1-c1cocc1-c1cc[nH+]cc1 (protonated)
COc1ccccc1-c1cocc1-c1cc[nH+]cc1 (3D coordinates assigned)
COc1ccccc1-c1cocc1-c1cc[nH+]cc1 (optimized conformer: 70.71710786711257 kcal/mol)

>  <smiles>  (12) 
COc1ccccc1-c1cocc1-c1ccncc1

>  <score_type>  (12) 
oracle

>  <origin>  (12) 
adg

>  <m_score__min__energy>  (12) 
-5.5

>  <m_primary>  (12) 
energy

$$$$
12:0
     RDKit          3D

 57 61  0  0  0  0  0  0  0  0999 V2000
   58.0790   25.6060   47.8800 H   0  0  0  0  0  0  0  0  0  0  0  0
   57.5290   26.1550   47.1830 N   0  0  0  0  0  0  0  0  0  0  0  0
   57.8620   27.3490   46.8030 C   0  0  0  0  0  0  0  0  0  0  0  0
   57.3080   27.8520   45.6240 O   0  0  0  0  0  0  0  0  0  0  0  0
   57.4090   29.1960   45.2540 C   0  0  0  0  0  0  0  0  0  0  0  0
   56.6510   29.6370   44.1720 C   0  0  0  0  0  0  0  0  0  0  0  0
   56.0102   28.9263   43.6295 H   0  0  0  0  0  0  0  0  0  0  0  0
   56.6970   30.9630   43.7730 C   0  0  0  0  0  0  0  0  0  0  0  0
   56.1503   31.2840   42.8741 H   0  0  0  0  0  0  0  0  0  0  0  0
   57.4360   31.8950   44.5090 C   0  0  0  0  0  0  0  0  0  0  0  0
   57.4110   33.2430   44.1230 C   0  0  0  0  0  0  0  0  0  0  0  0
   56.8701   33.5402   43.2124 H   0  0  0  0  0  0  0  0  0  0  0  0
   58.0650   34.2070   44.8830 C   0  0  0  0  0  0  0  0  0  0  0  0
   58.0751   35.2545   44.5475 H   0  0  0  0  0  0  0  0  0  0  0  0
   58.7110   33.8500   46.0740 C   0  0  0  0  0  0  0  0  0  0  0  0
   59.3250   34.8560   46.9030 N   0  0  0  0  0  0  0  0  0  0  0  0
   59.5290   34.6430   48.1160 O   0  0  0  0  0  0  0  0  0  0  0  0
   59.6780   36.0780   46.3770 O   0  0  0  0  0  0  0  0  0  0  0  0
   58.7330   32.5000   46.4620 C   0  0  0  0  0  0  0  0  0  0  0  0
   59.1941   32.2267   47.4226 H   0  0  0  0  0  0  0  0  0  0  0  0
   58.1790   31.4840   45.6520 C   0  0  0  0  0  0  0  0  0  0  0  0
   58.2600   30.0810   45.9590 C   0  0  0  0  0  0  0  0  0  0  0  0
   59.3640   29.3640   46.7630 C   0  0  1  0  0  0  0  0  0  0  0  0
   60.0011   28.9104   45.9894 H   0  0  0  0  0  0  0  0  0  0  0  0
   60.3960   30.2280   47.4810 C   0  0  0  0  0  0  0  0  0  0  0  0
   60.2640   30.5930   48.8380 C   0  0  0  0  0  0  0  0  0  0  0  0
   59.4048   30.2282   49.4200 H   0  0  0  0  0  0  0  0  0  0  0  0
   61.2160   31.4140   49.4480 C   0  0  0  0  0  0  0  0  0  0  0  0
   61.1028   31.6850   50.5081 H   0  0  0  0  0  0  0  0  0  0  0  0
   62.3150   31.8960   48.7210 C   0  0  0  0  0  0  0  0  0  0  0  0
   63.2940   32.7440   49.3510 N   0  0  0  0  0  0  0  0  0  0  0  0
   64.7080   32.3540   49.3700 C   0  0  0  0  0  0  0  0  0  0  0  0
   64.7818   31.2718   49.5525 H   0  0  0  0  0  0  0  0  0  0  0  0
   65.1584   32.6086   48.3993 H   0  0  0  0  0  0  0  0  0  0  0  0
   65.4640   33.1060   50.4790 C   0  0  0  0  0  0  0  0  0  0  0  0
   66.3644   32.5335   50.7464 H   0  0  0  0  0  0  0  0  0  0  0  0
   65.7265   34.1032   50.0960 H   0  0  0  0  0  0  0  0  0  0  0  0
   64.6330   33.2850   51.6920 N   0  0  0  0  0  0  0  0  0  0  0  0
   65.2130   33.8250   52.3790 H   0  0  0  0  0  0  0  0  0  0  0  0
   64.3250   31.9930   52.3340 C   0  0  0  0  0  0  0  0  0  0  0  0
   64.3531   32.1109   53.4273 H   0  0  0  0  0  0  0  0  0  0  0  0
   63.3224   31.6606   52.0267 H   0  0  0  0  0  0  0  0  0  0  0  0
   65.0698   31.2441   52.0267 H   0  0  0  0  0  0  0  0  0  0  0  0
   63.3940   34.0750   51.4320 C   0  0  0  0  0  0  0  0  0  0  0  0
   62.5931   33.6854   52.0776 H   0  0  0  0  0  0  0  0  0  0  0  0
   63.6354   35.1266   51.6460 H   0  0  0  0  0  0  0  0  0  0  0  0
   62.9100   34.0160   49.9690 C   0  0  0  0  0  0  0  0  0  0  0  0
   61.8145   34.1131   49.9462 H   0  0  0  0  0  0  0  0  0  0  0  0
   63.3761   34.8389   49.4072 H   0  0  0  0  0  0  0  0  0  0  0  0
   62.4570   31.5250   47.3750 C   0  0  0  0  0  0  0  0  0  0  0  0
   63.3225   31.8840   46.7988 H   0  0  0  0  0  0  0  0  0  0  0  0
   61.5090   30.7040   46.7610 C   0  0  0  0  0  0  0  0  0  0  0  0
   61.6327   30.4261   45.7039 H   0  0  0  0  0  0  0  0  0  0  0  0
   58.7650   28.2300   47.6430 C   0  0  2  0  0  0  0  0  0  0  0  0
   58.1692   28.6798   48.4509 H   0  0  0  0  0  0  0  0  0  0  0  0
   59.8480   27.4290   48.2530 C   0  0  0  0  0  0  0  0  0  0  0  0
   60.6960   26.8030   48.7300 N   0  0  0  0  0  0  0  0  0  0  0  0
  1  2  1  0
  2  3  2  0
  3  4  1  0
  4  5  1  0
  5  6  2  0
  6  7  1  0
  6  8  1  0
  8  9  1  0
  8 10  2  0
 10 11  1  0
 11 12  1  0
 11 13  2  0
 13 14  1  0
 13 15  1  0
 15 16  1  0
 16 17  2  0
 16 18  1  0
 15 19  2  0
 19 20  1  0
 19 21  1  0
 21 22  2  0
 22 23  1  0
 23 24  1  6
 23 25  1  0
 25 26  2  0
 26 27  1  0
 26 28  1  0
 28 29  1  0
 28 30  2  0
 30 31  1  0
 31 32  1  0
 32 33  1  0
 32 34  1  0
 32 35  1  0
 35 36  1  0
 35 37  1  0
 35 38  1  0
 38 39  1  0
 38 40  1  0
 40 41  1  0
 40 42  1  0
 40 43  1  0
 38 44  1  0
 44 45  1  0
 44 46  1  0
 44 47  1  0
 47 48  1  0
 47 49  1  0
 30 50  1  0
 50 51  1  0
 50 52  2  0
 52 53  1  0
 23 54  1  0
 54 55  1  1
 54 56  1  0
 56 57  3  0
 54  3  1  0
 22  5  1  0
 52 25  1  0
 21 10  1  0
 47 31  1  0
M  CHG  3  16   1  18  -1  38   1
M  END
>  <UniqueID>  (13) 
13

>  <SMILES>  (13) 
[H]/N=C1/Oc2ccc3ccc([N+](=O)[O-])cc3c2[C@@H](c2ccc(N3CC[NH+](C)CC3)cc2)[C@@H]1C#N

>  <Energy>  (13) 
101.54515065625766

>  <Genealogy>  (13) 
C[NH+]1CCN(c2ccc(C3c4c(ccc5ccc([N+](=O)[O-])cc45)OC(=N)C3C#N)cc2)CC1 (protonated)
C[NH+]1CCN(c2ccc([C@@H]3c4c(ccc5ccc([N+](=O)[O-])cc45)OC(=N)[C@H]3C#N)cc2)CC1 (chirality)
[H]/N=C1/Oc2ccc3ccc([N+](=O)[O-])cc3c2[C@@H](c2ccc(N3CC[NH+](C)CC3)cc2)[C@@H]1C#N (cis-trans isomerization)
[H]/N=C1/Oc2ccc3ccc([N+](=O)[O-])cc3c2[C@@H](c2ccc(N3CC[NH+](C)CC3)cc2)[C@@H]1C#N (3D coordinates assigned)
[H]/N=C1/Oc2ccc3ccc([N+](=O)[O-])cc3c2[C@@H](c2ccc(N3CC[NH+](C)CC3)cc2)[C@@H]1C#N (nonaromatic ring conformer: 101.54515065625766 kcal/mol)

>  <smiles>  (13) 
CN1CCN(c2ccc(C3c4c(ccc5ccc([N+](=O)[O-])cc45)OC(=N)C3C#N)cc2)CC1

>  <score_type>  (13) 
oracle

>  <origin>  (13) 
adg

>  <m_score__min__energy>  (13) 
-7.7599999999999998

>  <m_primary>  (13) 
energy

$$$$
13:0
     RDKit          3D

 43 45  0  0  0  0  0  0  0  0999 V2000
   54.2375   30.0858   43.9013 H   0  0  0  0  0  0  0  0  0  0  0  0
   55.2620   29.8890   44.2500 C   0  0  0  0  0  0  0  0  0  0  0  0
   55.5500   28.7250   44.8730 N   0  0  0  0  0  0  0  0  0  0  0  0
   56.7990   28.4360   45.3170 C   0  0  0  0  0  0  0  0  0  0  0  0
   57.0080   27.2060   45.9510 C   0  0  0  0  0  0  0  0  0  0  0  0
   56.1676   26.5078   46.0784 H   0  0  0  0  0  0  0  0  0  0  0  0
   58.2700   26.8600   46.4210 C   0  0  0  0  0  0  0  0  0  0  0  0
   58.4276   25.8909   46.9170 H   0  0  0  0  0  0  0  0  0  0  0  0
   59.3320   27.7430   46.2620 C   0  0  0  0  0  0  0  0  0  0  0  0
   60.3296   27.4683   46.6353 H   0  0  0  0  0  0  0  0  0  0  0  0
   59.1440   28.9770   45.6320 C   0  0  0  0  0  0  0  0  0  0  0  0
   59.9989   29.6591   45.5143 H   0  0  0  0  0  0  0  0  0  0  0  0
   57.8710   29.3650   45.1420 C   0  0  0  0  0  0  0  0  0  0  0  0
   57.5710   30.6110   44.4830 C   0  0  0  0  0  0  0  0  0  0  0  0
   58.4060   31.5880   44.2400 N   0  0  0  0  0  0  0  0  0  0  0  0
   58.2390   33.0260   44.0620 C   0  0  0  0  0  0  0  0  0  0  0  0
   57.5600   33.2131   43.2171 H   0  0  0  0  0  0  0  0  0  0  0  0
   59.2185   33.4833   43.8581 H   0  0  0  0  0  0  0  0  0  0  0  0
   57.6490   33.6400   45.3340 C   0  0  0  0  0  0  0  0  0  0  0  0
   56.7891   33.0335   45.6545 H   0  0  0  0  0  0  0  0  0  0  0  0
   57.3461   34.6719   45.1027 H   0  0  0  0  0  0  0  0  0  0  0  0
   58.6690   33.6930   46.4760 C   0  0  0  0  0  0  0  0  0  0  0  0
   58.1383   33.6825   47.4394 H   0  0  0  0  0  0  0  0  0  0  0  0
   59.2628   34.6147   46.3878 H   0  0  0  0  0  0  0  0  0  0  0  0
   59.5620   32.5370   46.4020 N   0  0  0  0  0  0  0  0  0  0  0  0
   59.1170   31.5990   46.2810 H   0  0  0  0  0  0  0  0  0  0  0  0
   60.9570   32.5910   46.7450 C   0  0  0  0  0  0  0  0  0  0  0  0
   61.6740   33.7650   46.4700 C   0  0  0  0  0  0  0  0  0  0  0  0
   61.1628   34.6176   45.9991 H   0  0  0  0  0  0  0  0  0  0  0  0
   63.0300   33.8620   46.7880 C   0  0  0  0  0  0  0  0  0  0  0  0
   63.5843   34.7840   46.5585 H   0  0  0  0  0  0  0  0  0  0  0  0
   63.6820   32.7890   47.3970 C   0  0  0  0  0  0  0  0  0  0  0  0
   64.7528   32.8624   47.6379 H   0  0  0  0  0  0  0  0  0  0  0  0
   62.9780   31.6230   47.7010 C   0  0  0  0  0  0  0  0  0  0  0  0
   63.4972   30.7829   48.1855 H   0  0  0  0  0  0  0  0  0  0  0  0
   61.6060   31.5130   47.3920 C   0  0  0  0  0  0  0  0  0  0  0  0
   60.8650   30.3730   47.7370 O   0  0  0  0  0  0  0  0  0  0  0  0
   59.8960   30.3180   48.7790 C   0  0  0  0  0  0  0  0  0  0  0  0
   60.4042   30.3468   49.7542 H   0  0  0  0  0  0  0  0  0  0  0  0
   59.2168   31.1790   48.6939 H   0  0  0  0  0  0  0  0  0  0  0  0
   59.3185   29.3856   48.6939 H   0  0  0  0  0  0  0  0  0  0  0  0
   56.2560   30.8370   44.0490 C   0  0  0  0  0  0  0  0  0  0  0  0
   56.0086   31.7809   43.5411 H   0  0  0  0  0  0  0  0  0  0  0  0
  1  2  1  0
  2  3  1  0
  3  4  1  0
  4  5  2  0
  5  6  1  0
  5  7  1  0
  7  8  1  0
  7  9  2  0
  9 10  1  0
  9 11  1  0
 11 12  1  0
 11 13  2  0
 13 14  1  0
 14 15  2  0
 15 16  1  0
 16 17  1  0
 16 18  1  0
 16 19  1  0
 19 20  1  0
 19 21  1  0
 19 22  1  0
 22 23  1  0
 22 24  1  0
 22 25  1  0
 25 26  1  0
 25 27  1  0
 27 28  2  0
 28 29  1  0
 28 30  1  0
 30 31  1  0
 30 32  2  0
 32 33  1  0
 32 34  1  0
 34 35  1  0
 34 36  2  0
 36 37  1  0
 37 38  1  0
 38 39  1  0
 38 40  1  0
 38 41  1  0
 14 42  1  0
 42 43  1  0
 42  2  2  0
 13  4  1  0
 36 27  1  0
M  CHG  1   3  -1
M  END
>  <UniqueID>  (14) 
14

>  <SMILES>  (14) 
COc1ccccc1NCCC/N=c1/cc[n-]c2ccccc12

>  <Energy>  (14) 
62.02201677080285

>  <Genealogy>  (14) 
COc1ccccc1NCCCN=c1cc[n-]c2ccccc12 (protonated)
COc1ccccc1NCCC/N=c1/cc[n-]c2ccccc12 (cis-trans isomerization)
COc1ccccc1NCCC/N=c1/cc[n-]c2ccccc12 (3D coordinates assigned)
COc1ccccc1NCCC/N=c1/cc[n-]c2ccccc12 (optimized conformer: 62.02201677080285 kcal/mol)

>  <smiles>  (14) 
COc1ccccc1NCCCN=c1cc[nH]c2ccccc12

>  <score_type>  (14) 
oracle

>  <origin>  (14) 
adg

>  <m_score__min__energy>  (14) 
-8.6600000000000001

>  <m_primary>  (14) 
energy

$$$$
14:0
     RDKit          3D

 39 41  0  0  0  0  0  0  0  0999 V2000
   58.9440   33.9160   44.5790 C   0  0  0  0  0  0  0  0  0  0  0  0
   58.4630   32.5110   44.7530 C   0  0  0  0  0  0  0  0  0  0  0  0
   57.6100   31.9330   43.8060 C   0  0  0  0  0  0  0  0  0  0  0  0
   57.1640   30.6130   43.9730 C   0  0  0  0  0  0  0  0  0  0  0  0
   56.2440   30.0160   42.9390 C   0  0  0  0  0  0  0  0  0  0  0  0
   57.5880   29.8820   45.1090 C   0  0  0  0  0  0  0  0  0  0  0  0
   57.1830   28.5530   45.3500 C   0  0  0  0  0  0  0  0  0  0  0  0
   57.6080   27.8710   46.4960 C   0  0  0  0  0  0  0  0  0  0  0  0
   57.1660   26.5210   46.7000 N   0  0  0  0  0  0  0  0  0  0  0  0
   56.1670   25.8270   45.9400 C   0  0  0  0  0  0  0  0  0  0  0  0
   54.9760   26.2330   45.9930 O   0  0  0  0  0  0  0  0  0  0  0  0
   56.4870   24.6390   45.1150 C   0  0  0  0  0  0  0  0  0  0  0  0
   55.4650   24.0840   44.3260 C   0  0  0  0  0  0  0  0  0  0  0  0
   55.7220   22.9930   43.4950 C   0  0  0  0  0  0  0  0  0  0  0  0
   57.0000   22.4360   43.4480 C   0  0  0  0  0  0  0  0  0  0  0  0
   58.0200   22.9570   44.2440 C   0  0  0  0  0  0  0  0  0  0  0  0
   57.7750   24.0420   45.1030 C   0  0  0  0  0  0  0  0  0  0  0  0
   58.9010   24.5320   45.9760 C   0  0  0  0  0  0  0  0  0  0  0  0
   58.4840   28.5040   47.3930 C   0  0  0  0  0  0  0  0  0  0  0  0
   58.8960   29.8170   47.1670 C   0  0  0  0  0  0  0  0  0  0  0  0
   58.4520   30.5110   46.0390 C   0  0  0  0  0  0  0  0  0  0  0  0
   58.8590   31.7910   45.8340 N   0  0  0  0  0  0  0  0  0  0  0  0
   59.1010   34.3747   45.5664 H   0  0  0  0  0  0  0  0  0  0  0  0
   59.8921   33.9126   44.0213 H   0  0  0  0  0  0  0  0  0  0  0  0
   58.1927   34.4944   44.0213 H   0  0  0  0  0  0  0  0  0  0  0  0
   57.2886   32.5144   42.9293 H   0  0  0  0  0  0  0  0  0  0  0  0
   55.4234   29.4835   43.4421 H   0  0  0  0  0  0  0  0  0  0  0  0
   55.8297   30.8178   42.3102 H   0  0  0  0  0  0  0  0  0  0  0  0
   56.8075   29.3110   42.3102 H   0  0  0  0  0  0  0  0  0  0  0  0
   56.5251   28.0461   44.6287 H   0  0  0  0  0  0  0  0  0  0  0  0
   54.4531   24.5137   44.3639 H   0  0  0  0  0  0  0  0  0  0  0  0
   54.9160   22.5717   42.8763 H   0  0  0  0  0  0  0  0  0  0  0  0
   57.2037   21.5845   42.7821 H   0  0  0  0  0  0  0  0  0  0  0  0
   59.0260   22.5143   44.1990 H   0  0  0  0  0  0  0  0  0  0  0  0
   58.6240   24.4115   47.0337 H   0  0  0  0  0  0  0  0  0  0  0  0
   59.8089   23.9476   45.7658 H   0  0  0  0  0  0  0  0  0  0  0  0
   59.0921   25.5947   45.7658 H   0  0  0  0  0  0  0  0  0  0  0  0
   58.8469   27.9613   48.2783 H   0  0  0  0  0  0  0  0  0  0  0  0
   59.5738   30.3085   47.8804 H   0  0  0  0  0  0  0  0  0  0  0  0
  1  2  1  0
  2  3  2  0
  3  4  1  0
  4  5  1  0
  4  6  2  0
  6  7  1  0
  7  8  2  0
  8  9  1  0
  9 10  1  0
 10 11  2  0
 10 12  1  0
 12 13  2  0
 13 14  1  0
 14 15  2  0
 15 16  1  0
 16 17  2  0
 17 18  1  0
  8 19  1  0
 19 20  2  0
 20 21  1  0
 21 22  2  0
 22  2  1  0
 21  6  1  0
 17 12  1  0
  1 23  1  0
  1 24  1  0
  1 25  1  0
  3 26  1  0
  5 27  1  0
  5 28  1  0
  5 29  1  0
  7 30  1  0
 13 31  1  0
 14 32  1  0
 15 33  1  0
 16 34  1  0
 18 35  1  0
 18 36  1  0
 18 37  1  0
 19 38  1  0
 20 39  1  0
M  CHG  1   9  -1
M  END
>  <UniqueID>  (15) 
15

>  <SMILES>  (15) 
Cc1cc(C)c2cc([N-]C(=O)c3ccccc3C)ccc2n1

>  <Energy>  (15) 
53.81929552691943

>  <Genealogy>  (15) 
Cc1cc(C)c2cc([N-]C(=O)c3ccccc3C)ccc2n1 (protonated)
Cc1cc(C)c2cc([N-]C(=O)c3ccccc3C)ccc2n1 (3D coordinates assigned)
Cc1cc(C)c2cc([N-]C(=O)c3ccccc3C)ccc2n1 (optimized conformer: 53.81929552691943 kcal/mol)

>  <smiles>  (15) 
Cc1cc(C)c2cc(NC(=O)c3ccccc3C)ccc2n1

>  <score_type>  (15) 
oracle

>  <origin>  (15) 
adg

>  <m_score__min__energy>  (15) 
-9.5600000000000005

>  <m_primary>  (15) 
energy

$$$$
15:0
     RDKit          3D

 45 47  0  0  1  0  0  0  0  0999 V2000
   58.3930   34.1820   46.7460 C   0  0  0  0  0  0  0  0  0  0  0  0
   58.8250   32.8990   47.1600 O   0  0  0  0  0  0  0  0  0  0  0  0
   60.1950   32.6840   47.2370 C   0  0  0  0  0  0  0  0  0  0  0  0
   61.1280   33.6080   46.8060 C   0  0  0  0  0  0  0  0  0  0  0  0
   62.4950   33.3800   46.8870 C   0  0  0  0  0  0  0  0  0  0  0  0
   62.9430   32.1740   47.4250 C   0  0  0  0  0  0  0  0  0  0  0  0
   62.0240   31.2200   47.8690 C   0  0  0  0  0  0  0  0  0  0  0  0
   60.6610   31.4980   47.7650 C   0  0  0  0  0  0  0  0  0  0  0  0
   59.7050   30.4610   48.2460 C   0  0  0  0  0  0  0  0  0  0  0  0
   60.1690   29.0780   47.8770 C   0  0  0  0  0  0  0  0  0  0  0  0
   56.1490   26.2200   46.2180 N   0  0  0  0  0  0  0  0  0  0  0  0
   56.7700   27.3020   45.9600 C   0  0  0  0  0  0  0  0  0  0  0  0
   58.0300   27.4390   46.3880 N   0  0  0  0  0  0  0  0  0  0  0  0
   58.6940   28.5740   46.1200 C   0  0  0  0  0  0  0  0  0  0  0  0
   59.8990   28.6660   46.5480 N   0  0  0  0  0  0  0  0  0  0  0  0
   56.4670   24.9110   45.6880 C   0  0  0  0  0  0  0  0  0  0  0  0
   57.6200   24.2760   46.4300 C   0  0  0  0  0  0  0  0  0  0  0  0
   57.6370   24.8610   47.6950 O   0  0  0  0  0  0  0  0  0  0  0  0
   56.1090   28.2480   45.2610 N   0  0  0  0  0  0  0  0  0  0  0  0
   56.7550   29.4070   44.9750 C   0  0  0  0  0  0  0  0  0  0  0  0
   56.1060   30.3500   44.2840 N   0  0  0  0  0  0  0  0  0  0  0  0
   56.7860   31.4860   44.0220 C   0  0  0  0  0  0  0  0  0  0  0  0
   58.0870   31.6800   44.4400 C   0  0  0  0  0  0  0  0  0  0  0  0
   58.6910   30.6960   45.1340 N   0  0  0  0  0  0  0  0  0  0  0  0
   58.0400   29.5540   45.4090 C   0  0  0  0  0  0  0  0  0  0  0  0
   58.1843   34.8017   47.6305 H   0  0  0  0  0  0  0  0  0  0  0  0
   59.1807   34.6572   46.1429 H   0  0  0  0  0  0  0  0  0  0  0  0
   57.4783   34.0840   46.1429 H   0  0  0  0  0  0  0  0  0  0  0  0
   60.7742   34.5597   46.3829 H   0  0  0  0  0  0  0  0  0  0  0  0
   63.2112   34.1363   46.5335 H   0  0  0  0  0  0  0  0  0  0  0  0
   64.0220   31.9735   47.4999 H   0  0  0  0  0  0  0  0  0  0  0  0
   62.3694   30.2658   48.2934 H   0  0  0  0  0  0  0  0  0  0  0  0
   59.6211   30.5309   49.3406 H   0  0  0  0  0  0  0  0  0  0  0  0
   58.7298   30.6393   47.7693 H   0  0  0  0  0  0  0  0  0  0  0  0
   61.2579   29.0370   48.0274 H   0  0  0  0  0  0  0  0  0  0  0  0
   59.5995   28.3923   48.5215 H   0  0  0  0  0  0  0  0  0  0  0  0
   58.4730   26.6810   46.9150 H   0  0  0  0  0  0  0  0  0  0  0  0
   55.5826   24.2636   45.7811 H   0  0  0  0  0  0  0  0  0  0  0  0
   56.7587   25.0280   44.6339 H   0  0  0  0  0  0  0  0  0  0  0  0
   57.4676   23.1899   46.5141 H   0  0  0  0  0  0  0  0  0  0  0  0
   58.5722   24.4338   45.9023 H   0  0  0  0  0  0  0  0  0  0  0  0
   56.8910   25.4900   47.7500 H   0  0  0  0  0  0  0  0  0  0  0  0
   55.1380   28.1440   44.9310 H   0  0  0  0  0  0  0  0  0  0  0  0
   56.2858   32.2853   43.4555 H   0  0  0  0  0  0  0  0  0  0  0  0
   58.6181   32.6159   44.2119 H   0  0  0  0  0  0  0  0  0  0  0  0
  1  2  1  0
  2  3  1  0
  3  4  2  0
  4  5  1  0
  5  6  2  0
  6  7  1  0
  7  8  2  0
  8  9  1  0
  9 10  1  0
 10 11  1  0
 11 12  2  0
 12 13  1  0
 13 14  1  0
 14 15  2  0
 15 16  1  0
 16 17  1  0
 17 18  1  0
 14 19  1  0
 19 20  1  0
 20 21  2  0
 21 22  1  0
 22 23  2  0
 23 24  1  0
 24 25  2  0
  8  3  1  0
 25 12  1  0
 25 20  1  0
  1 26  1  0
  1 27  1  0
  1 28  1  0
  4 29  1  0
  5 30  1  0
  6 31  1  0
  7 32  1  0
  9 33  1  0
  9 34  1  0
 10 35  1  0
 10 36  1  0
 13 37  1  0
 16 38  1  0
 16 39  1  0
 17 40  1  0
 17 41  1  0
 18 42  1  0
 19 43  1  0
 22 44  1  0
 23 45  1  0
M  END
>  <smiles>  (16) 
COc1ccccc1CCN=c1[nH]c(=NCCO)[nH]c2nccnc12

>  <score_type>  (16) 
oracle

>  <origin>  (16) 
adg

>  <m_score__min__energy>  (16) 
-7.7400000000000002

>  <m_primary>  (16) 
energy

$$$$
16:0
     RDKit          3D

 56 59  0  0  0  0  0  0  0  0999 V2000
   53.7210   28.1250   55.9790 C   0  0  0  0  0  0  0  0  0  0  0  0
   53.9100   29.3790   55.3350 O   0  0  0  0  0  0  0  0  0  0  0  0
   53.3680   29.7290   54.0920 C   0  0  0  0  0  0  0  0  0  0  0  0
   51.9990   30.0140   53.9280 C   0  0  0  0  0  0  0  0  0  0  0  0
   51.4880   30.3290   52.6660 C   0  0  0  0  0  0  0  0  0  0  0  0
   52.3340   30.3690   51.5500 C   0  0  0  0  0  0  0  0  0  0  0  0
   51.7700   30.6500   50.1860 C   0  0  0  0  0  0  0  0  0  0  0  0
   51.0730   31.9670   50.1870 C   0  0  0  0  0  0  0  0  0  0  0  0
   51.0210   32.6490   51.2470 O   0  0  0  0  0  0  0  0  0  0  0  0
   50.5790   32.4910   48.9970 O   0  0  0  0  0  0  0  0  0  0  0  0
   53.7000   30.0900   51.7120 C   0  0  0  0  0  0  0  0  0  0  0  0
   54.2210   29.7870   52.9780 C   0  0  0  0  0  0  0  0  0  0  0  0
   55.6650   29.5110   53.1230 C   0  0  0  0  0  0  0  0  0  0  0  0
   56.0620   28.2480   53.5800 C   0  0  0  0  0  0  0  0  0  0  0  0
   57.4160   27.9600   53.7780 C   0  0  0  0  0  0  0  0  0  0  0  0
   58.3890   28.9100   53.4790 C   0  0  0  0  0  0  0  0  0  0  0  0
   59.7010   28.6080   53.6950 F   0  0  0  0  0  0  0  0  0  0  0  0
   58.0110   30.1650   52.9720 C   0  0  0  0  0  0  0  0  0  0  0  0
   56.6460   30.4880   52.8190 C   0  0  0  0  0  0  0  0  0  0  0  0
   56.2360   31.8710   52.3480 C   0  0  0  0  0  0  0  0  0  0  0  0
   57.3860   32.7490   51.7960 C   0  0  0  0  0  0  0  0  0  0  0  0
   58.5890   31.9670   51.4400 N   0  0  1  0  0  0  0  0  0  0  0  0
   59.6480   32.8520   50.9820 C   0  0  0  0  0  0  0  0  0  0  0  0
   60.1600   33.6510   51.7580 O   0  0  0  0  0  0  0  0  0  0  0  0
   60.1830   32.7860   49.5620 C   0  0  0  0  0  0  0  0  0  0  0  0
   61.7140   32.8370   49.4730 C   0  0  0  0  0  0  0  0  0  0  0  0
   62.0500   33.8440   48.3740 C   0  0  0  0  0  0  0  0  0  0  0  0
   60.7470   34.1330   47.6490 C   0  0  0  0  0  0  0  0  0  0  0  0
   59.6630   33.9240   48.6880 C   0  0  0  0  0  0  0  0  0  0  0  0
   59.0520   31.1800   52.5970 C   0  0  0  0  0  0  0  0  0  0  0  0
   53.7423   28.2661   57.0697 H   0  0  0  0  0  0  0  0  0  0  0  0
   52.7492   27.7034   55.6827 H   0  0  0  0  0  0  0  0  0  0  0  0
   54.5254   27.4357   55.6827 H   0  0  0  0  0  0  0  0  0  0  0  0
   51.3274   29.9886   54.7988 H   0  0  0  0  0  0  0  0  0  0  0  0
   50.4162   30.5466   52.5483 H   0  0  0  0  0  0  0  0  0  0  0  0
   52.5876   30.6706   49.4504 H   0  0  0  0  0  0  0  0  0  0  0  0
   51.0516   29.8602   49.9214 H   0  0  0  0  0  0  0  0  0  0  0  0
   54.3677   30.1092   50.8381 H   0  0  0  0  0  0  0  0  0  0  0  0
   55.3039   27.4777   53.7845 H   0  0  0  0  0  0  0  0  0  0  0  0
   57.7141   26.9773   54.1722 H   0  0  0  0  0  0  0  0  0  0  0  0
   55.4874   31.7507   51.5510 H   0  0  0  0  0  0  0  0  0  0  0  0
   55.8529   32.3942   53.2365 H   0  0  0  0  0  0  0  0  0  0  0  0
   57.0280   33.2708   50.8962 H   0  0  0  0  0  0  0  0  0  0  0  0
   57.6739   33.4526   52.5910 H   0  0  0  0  0  0  0  0  0  0  0  0
   58.3340   31.3030   50.6670 H   0  0  0  0  0  0  0  0  0  0  0  0
   59.8218   31.8115   49.2015 H   0  0  0  0  0  0  0  0  0  0  0  0
   62.1400   33.1652   50.4326 H   0  0  0  0  0  0  0  0  0  0  0  0
   62.1331   31.8455   49.2465 H   0  0  0  0  0  0  0  0  0  0  0  0
   62.4541   34.7676   48.8141 H   0  0  0  0  0  0  0  0  0  0  0  0
   62.8110   33.4467   47.6863 H   0  0  0  0  0  0  0  0  0  0  0  0
   60.7325   35.1687   47.2786 H   0  0  0  0  0  0  0  0  0  0  0  0
   60.6094   33.4823   46.7728 H   0  0  0  0  0  0  0  0  0  0  0  0
   59.5159   34.8362   49.2849 H   0  0  0  0  0  0  0  0  0  0  0  0
   58.6889   33.6900   48.2338 H   0  0  0  0  0  0  0  0  0  0  0  0
   59.9879   30.6639   52.3365 H   0  0  0  0  0  0  0  0  0  0  0  0
   59.2248   31.8543   53.4488 H   0  0  0  0  0  0  0  0  0  0  0  0
  1  2  1  0
  2  3  1  0
  3  4  2  0
  4  5  1  0
  5  6  2  0
  6  7  1  0
  7  8  1  0
  8  9  2  0
  8 10  1  0
  6 11  1  0
 11 12  2  0
 12 13  1  0
 13 14  2  0
 14 15  1  0
 15 16  2  0
 16 17  1  0
 16 18  1  0
 18 19  2  0
 19 20  1  0
 20 21  1  0
 21 22  1  0
 22 23  1  0
 23 24  2  0
 23 25  1  0
 25 26  1  0
 26 27  1  0
 27 28  1  0
 28 29  1  0
 22 30  1  0
 12  3  1  0
 19 13  1  0
 29 25  1  0
 30 18  1  0
  1 31  1  0
  1 32  1  0
  1 33  1  0
  4 34  1  0
  5 35  1  0
  7 36  1  0
  7 37  1  0
 11 38  1  0
 14 39  1  0
 15 40  1  0
 20 41  1  0
 20 42  1  0
 21 43  1  0
 21 44  1  0
 22 45  1  6
 25 46  1  0
 26 47  1  0
 26 48  1  0
 27 49  1  0
 27 50  1  0
 28 51  1  0
 28 52  1  0
 29 53  1  0
 29 54  1  0
 30 55  1  0
 30 56  1  0
M  CHG  2  10  -1  22   1
M  END
>  <UniqueID>  (17) 
16

>  <SMILES>  (17) 
COc1ccc(CC(=O)[O-])cc1-c1ccc(F)c2c1CC[N@@H+](C(=O)C1CCCC1)C2

>  <Energy>  (17) 
72.15930528725623

>  <Genealogy>  (17) 
COc1ccc(CC(=O)[O-])cc1-c1ccc(F)c2c1CC[NH+](C(=O)C1CCCC1)C2 (protonated)
COc1ccc(CC(=O)[O-])cc1-c1ccc(F)c2c1CC[N@@H+](C(=O)C1CCCC1)C2 (chirality)
COc1ccc(CC(=O)[O-])cc1-c1ccc(F)c2c1CC[N@@H+](C(=O)C1CCCC1)C2 (3D coordinates assigned)
COc1ccc(CC(=O)[O-])cc1-c1ccc(F)c2c1CC[N@@H+](C(=O)C1CCCC1)C2 (nonaromatic ring conformer: 72.15930528725623 kcal/mol)

>  <smiles>  (17) 
COc1ccc(CC(=O)O)cc1-c1ccc(F)c2c1CCN(C(=O)C1CCCC1)C2

>  <score_type>  (17) 
oracle

>  <origin>  (17) 
adg

>  <m_score__min__energy>  (17) 
-10.25

>  <m_primary>  (17) 
energy

$$$$
17:0
     RDKit          3D

 47 50  0  0  0  0  0  0  0  0999 V2000
   58.2390   21.5720   43.8730 C   0  0  0  0  0  0  0  0  0  0  0  0
   56.4690   21.6160   43.6860 S   0  0  0  0  0  0  0  0  0  0  0  0
   55.8610   20.3140   44.1280 O   0  0  0  0  0  0  0  0  0  0  0  0
   56.1430   21.8350   42.2360 O   0  0  0  0  0  0  0  0  0  0  0  0
   55.8040   22.9260   44.6090 N   0  0  0  0  0  0  0  0  0  0  0  0
   56.5470   24.0070   45.1900 C   0  0  0  0  0  0  0  0  0  0  0  0
   56.7500   24.1210   46.5760 C   0  0  0  0  0  0  0  0  0  0  0  0
   57.4810   25.1930   47.0970 C   0  0  0  0  0  0  0  0  0  0  0  0
   58.0240   26.1700   46.2440 C   0  0  0  0  0  0  0  0  0  0  0  0
   58.8010   27.3070   46.7970 C   0  0  0  0  0  0  0  0  0  0  0  0
   59.9520   27.0750   47.5660 C   0  0  0  0  0  0  0  0  0  0  0  0
   60.6840   28.1410   48.0880 C   0  0  0  0  0  0  0  0  0  0  0  0
   60.2820   29.4640   47.8530 C   0  0  0  0  0  0  0  0  0  0  0  0
   61.0060   30.4940   48.3670 N   0  0  0  0  0  0  0  0  0  0  0  0
   60.6370   31.7860   48.1830 C   0  0  0  0  0  0  0  0  0  0  0  0
   59.5010   32.1110   47.4340 C   0  0  0  0  0  0  0  0  0  0  0  0
   59.1140   33.5020   47.4190 C   0  0  0  0  0  0  0  0  0  0  0  0
   58.8150   34.6210   47.4040 N   0  0  0  0  0  0  0  0  0  0  0  0
   58.7390   31.0670   46.8320 C   0  0  0  0  0  0  0  0  0  0  0  0
   57.6890   31.2770   46.0770 N   0  0  0  0  0  0  0  0  0  0  0  0
   57.5900   31.3520   44.6490 C   0  0  0  0  0  0  0  0  0  0  0  0
   56.8110   30.4240   43.9390 C   0  0  0  0  0  0  0  0  0  0  0  0
   56.6680   30.5430   42.5540 C   0  0  0  0  0  0  0  0  0  0  0  0
   57.2810   31.6010   41.8760 C   0  0  0  0  0  0  0  0  0  0  0  0
   58.0290   32.5460   42.5840 C   0  0  0  0  0  0  0  0  0  0  0  0
   58.1720   32.4300   43.9710 C   0  0  0  0  0  0  0  0  0  0  0  0
   59.1250   29.7240   47.0790 C   0  0  0  0  0  0  0  0  0  0  0  0
   58.3970   28.6320   46.5560 C   0  0  0  0  0  0  0  0  0  0  0  0
   57.8160   26.0520   44.8580 C   0  0  0  0  0  0  0  0  0  0  0  0
   57.0840   24.9810   44.3410 C   0  0  0  0  0  0  0  0  0  0  0  0
   58.4946   21.5656   44.9429 H   0  0  0  0  0  0  0  0  0  0  0  0
   58.6357   20.6637   43.3958 H   0  0  0  0  0  0  0  0  0  0  0  0
   58.6803   22.4595   43.3958 H   0  0  0  0  0  0  0  0  0  0  0  0
   56.3316   23.3629   47.2544 H   0  0  0  0  0  0  0  0  0  0  0  0
   57.6326   25.2727   48.1836 H   0  0  0  0  0  0  0  0  0  0  0  0
   60.2797   26.0428   47.7587 H   0  0  0  0  0  0  0  0  0  0  0  0
   61.5838   27.9427   48.6888 H   0  0  0  0  0  0  0  0  0  0  0  0
   61.8600   30.3020   48.9380 H   0  0  0  0  0  0  0  0  0  0  0  0
   61.2400   32.5905   48.6294 H   0  0  0  0  0  0  0  0  0  0  0  0
   56.3126   29.6021   44.4739 H   0  0  0  0  0  0  0  0  0  0  0  0
   56.0730   29.8041   41.9971 H   0  0  0  0  0  0  0  0  0  0  0  0
   57.1746   31.6898   40.7848 H   0  0  0  0  0  0  0  0  0  0  0  0
   58.5056   33.3815   42.0503 H   0  0  0  0  0  0  0  0  0  0  0  0
   58.7424   33.1867   44.5295 H   0  0  0  0  0  0  0  0  0  0  0  0
   57.4988   28.8216   45.9499 H   0  0  0  0  0  0  0  0  0  0  0  0
   58.2327   26.8084   44.1767 H   0  0  0  0  0  0  0  0  0  0  0  0
   56.9279   24.9023   43.2550 H   0  0  0  0  0  0  0  0  0  0  0  0
  1  2  1  0
  2  3  2  0
  2  4  2  0
  2  5  1  0
  5  6  1  0
  6  7  2  0
  7  8  1  0
  8  9  2  0
  9 10  1  0
 10 11  2  0
 11 12  1  0
 12 13  2  0
 13 14  1  0
 14 15  1  0
 15 16  2  0
 16 17  1  0
 17 18  3  0
 16 19  1  0
 19 20  2  3
 20 21  1  0
 21 22  2  0
 22 23  1  0
 23 24  2  0
 24 25  1  0
 25 26  2  0
 19 27  1  0
 27 28  2  0
  9 29  1  0
 29 30  2  0
 30  6  1  0
 28 10  1  0
 27 13  1  0
 26 21  1  0
  1 31  1  0
  1 32  1  0
  1 33  1  0
  7 34  1  0
  8 35  1  0
 11 36  1  0
 12 37  1  0
 14 38  1  0
 15 39  1  0
 22 40  1  0
 23 41  1  0
 24 42  1  0
 25 43  1  0
 26 44  1  0
 28 45  1  0
 29 46  1  0
 30 47  1  0
M  CHG  1   5  -1
M  END
>  <UniqueID>  (18) 
17

>  <SMILES>  (18) 
CS(=O)(=O)[N-]c1ccc(-c2ccc3[nH]cc(C#N)c(=Nc4ccccc4)c3c2)cc1

>  <Energy>  (18) 
76.61567046254207

>  <Genealogy>  (18) 
CS(=O)(=O)[N-]c1ccc(-c2ccc3[nH]cc(C#N)c(=Nc4ccccc4)c3c2)cc1 (protonated)
CS(=O)(=O)[N-]c1ccc(-c2ccc3[nH]cc(C#N)c(=Nc4ccccc4)c3c2)cc1 (3D coordinates assigned)
CS(=O)(=O)[N-]c1ccc(-c2ccc3[nH]cc(C#N)c(=Nc4ccccc4)c3c2)cc1 (optimized conformer: 76.61567046254207 kcal/mol)

>  <smiles>  (18) 
CS(=O)(=O)Nc1ccc(-c2ccc3[nH]cc(C#N)c(=Nc4ccccc4)c3c2)cc1

>  <score_type>  (18) 
oracle

>  <origin>  (18) 
adg

>  <m_score__min__energy>  (18) 
-10.369999999999999

>  <m_primary>  (18) 
energy

$$$$
18:0
     RDKit          3D

 58 60  0  0  0  0  0  0  0  0999 V2000
   55.3402   31.1627   43.3029 H   0  0  0  0  0  0  0  0  0  0  0  0
   56.3380   30.7770   43.5590 C   0  0  0  0  0  0  0  0  0  0  0  0
   56.4530   29.3950   44.0730 C   0  0  0  0  0  0  0  0  0  0  0  0
   55.5870   28.9950   44.8950 O   0  0  0  0  0  0  0  0  0  0  0  0
   57.5350   28.4570   43.6890 C   0  0  0  0  0  0  0  0  0  0  0  0
   57.4355   27.9508   42.7175 H   0  0  0  0  0  0  0  0  0  0  0  0
   58.6270   28.1680   44.4190 C   0  0  0  0  0  0  0  0  0  0  0  0
   59.2843   27.3678   44.0480 H   0  0  0  0  0  0  0  0  0  0  0  0
   59.0180   28.8370   45.6800 C   0  0  0  0  0  0  0  0  0  0  0  0
   58.5640   28.3140   46.8950 C   0  0  0  0  0  0  0  0  0  0  0  0
   57.9746   27.3853   46.9041 H   0  0  0  0  0  0  0  0  0  0  0  0
   58.8540   28.9630   48.0960 C   0  0  0  0  0  0  0  0  0  0  0  0
   58.4746   28.5516   49.0430 H   0  0  0  0  0  0  0  0  0  0  0  0
   59.6280   30.1400   48.1070 C   0  0  0  0  0  0  0  0  0  0  0  0
   59.8980   30.8310   49.2980 O   0  0  0  0  0  0  0  0  0  0  0  0
   61.0470   30.6220   50.1130 C   0  0  0  0  0  0  0  0  0  0  0  0
   60.7589   30.6744   51.1733 H   0  0  0  0  0  0  0  0  0  0  0  0
   61.4741   29.6314   49.8976 H   0  0  0  0  0  0  0  0  0  0  0  0
   61.7955   31.3987   49.8976 H   0  0  0  0  0  0  0  0  0  0  0  0
   60.1430   30.6340   46.8890 C   0  0  0  0  0  0  0  0  0  0  0  0
   60.9760   31.8930   46.8390 C   0  0  0  0  0  0  0  0  0  0  0  0
   60.9005   32.3368   45.8353 H   0  0  0  0  0  0  0  0  0  0  0  0
   60.6000   32.5972   47.5958 H   0  0  0  0  0  0  0  0  0  0  0  0
   62.3430   31.6020   47.1210 O   0  0  0  0  0  0  0  0  0  0  0  0
   63.3070   32.5910   47.3560 C   0  0  0  0  0  0  0  0  0  0  0  0
   63.9350   33.1040   46.3900 O   0  0  0  0  0  0  0  0  0  0  0  0
   63.5810   33.0330   48.7410 C   0  0  0  0  0  0  0  0  0  0  0  0
   62.6300   33.7900   49.4450 C   0  0  0  0  0  0  0  0  0  0  0  0
   61.6770   34.0541   48.9633 H   0  0  0  0  0  0  0  0  0  0  0  0
   62.8860   34.2100   50.7530 C   0  0  0  0  0  0  0  0  0  0  0  0
   62.1323   34.7979   51.2974 H   0  0  0  0  0  0  0  0  0  0  0  0
   64.0950   33.8860   51.3710 C   0  0  0  0  0  0  0  0  0  0  0  0
   64.2868   34.2104   52.4044 H   0  0  0  0  0  0  0  0  0  0  0  0
   65.0660   33.1480   50.6780 C   0  0  0  0  0  0  0  0  0  0  0  0
   66.3520   32.7700   51.3520 C   0  0  0  0  0  0  0  0  0  0  0  0
   66.2193   32.8090   52.4433 H   0  0  0  0  0  0  0  0  0  0  0  0
   66.6365   31.7502   51.0534 H   0  0  0  0  0  0  0  0  0  0  0  0
   67.1431   33.4736   51.0534 H   0  0  0  0  0  0  0  0  0  0  0  0
   64.7990   32.7090   49.3720 C   0  0  0  0  0  0  0  0  0  0  0  0
   65.5471   32.1066   48.8359 H   0  0  0  0  0  0  0  0  0  0  0  0
   59.8380   29.9760   45.6870 C   0  0  0  0  0  0  0  0  0  0  0  0
   60.2465   30.3576   44.7396 H   0  0  0  0  0  0  0  0  0  0  0  0
   57.4000   31.5800   43.3920 C   0  0  0  0  0  0  0  0  0  0  0  0
   57.9329   31.5468   42.4302 H   0  0  0  0  0  0  0  0  0  0  0  0
   57.8920   32.5090   44.4360 C   0  0  0  0  0  0  0  0  0  0  0  0
   57.4120   32.3580   45.7480 C   0  0  0  0  0  0  0  0  0  0  0  0
   56.6644   31.5821   45.9695 H   0  0  0  0  0  0  0  0  0  0  0  0
   57.8770   33.1860   46.7740 C   0  0  0  0  0  0  0  0  0  0  0  0
   57.5108   33.0423   47.8012 H   0  0  0  0  0  0  0  0  0  0  0  0
   58.8070   34.1980   46.5010 C   0  0  0  0  0  0  0  0  0  0  0  0
   59.3370   35.0590   47.6080 C   0  0  0  0  0  0  0  0  0  0  0  0
   59.0652   34.6174   48.5781 H   0  0  0  0  0  0  0  0  0  0  0  0
   60.4322   35.1248   47.5290 H   0  0  0  0  0  0  0  0  0  0  0  0
   58.9025   36.0665   47.5290 H   0  0  0  0  0  0  0  0  0  0  0  0
   59.2880   34.3550   45.1930 C   0  0  0  0  0  0  0  0  0  0  0  0
   60.0310   35.1360   44.9738 H   0  0  0  0  0  0  0  0  0  0  0  0
   58.8290   33.5250   44.1660 C   0  0  0  0  0  0  0  0  0  0  0  0
   59.2020   33.6664   43.1409 H   0  0  0  0  0  0  0  0  0  0  0  0
  1  2  1  0
  2  3  1  0
  3  4  2  0
  3  5  1  0
  5  6  1  0
  5  7  2  0
  7  8  1  0
  7  9  1  0
  9 10  2  0
 10 11  1  0
 10 12  1  0
 12 13  1  0
 12 14  2  0
 14 15  1  0
 15 16  1  0
 16 17  1  0
 16 18  1  0
 16 19  1  0
 14 20  1  0
 20 21  1  0
 21 22  1  0
 21 23  1  0
 21 24  1  0
 24 25  1  0
 25 26  2  0
 25 27  1  0
 27 28  2  0
 28 29  1  0
 28 30  1  0
 30 31  1  0
 30 32  2  0
 32 33  1  0
 32 34  1  0
 34 35  1  0
 35 36  1  0
 35 37  1  0
 35 38  1  0
 34 39  2  0
 39 40  1  0
 20 41  2  0
 41 42  1  0
  2 43  2  3
 43 44  1  0
 43 45  1  0
 45 46  2  0
 46 47  1  0
 46 48  1  0
 48 49  1  0
 48 50  2  0
 50 51  1  0
 51 52  1  0
 51 53  1  0
 51 54  1  0
 50 55  1  0
 55 56  1  0
 55 57  2  0
 57 58  1  0
 41  9  1  0
 57 45  1  0
 39 27  1  0
M  END
>  <UniqueID>  (19) 
18

>  <SMILES>  (19) 
COc1ccc(/C=C\C(=O)C=Cc2ccc(C)cc2)cc1COC(=O)c1cccc(C)c1

>  <Energy>  (19) 
67.35467117710284

>  <Genealogy>  (19) 
COc1ccc(/C=C\C(=O)C=Cc2ccc(C)cc2)cc1COC(=O)c1cccc(C)c1 (cis-trans isomerization)
COc1ccc(/C=C\C(=O)C=Cc2ccc(C)cc2)cc1COC(=O)c1cccc(C)c1 (3D coordinates assigned)
COc1ccc(/C=C\C(=O)C=Cc2ccc(C)cc2)cc1COC(=O)c1cccc(C)c1 (optimized conformer: 67.35467117710284 kcal/mol)

>  <smiles>  (19) 
COc1ccc(C=CC(=O)C=Cc2ccc(C)cc2)cc1COC(=O)c1cccc(C)c1

>  <score_type>  (19) 
oracle

>  <origin>  (19) 
adg

>  <m_score__min__energy>  (19) 
-8.9900000000000002

>  <m_primary>  (19) 
energy

$$$$
19:0
     RDKit          3D

 37 38  0  0  0  0  0  0  0  0999 V2000
   55.1450   27.9780   44.9480 H   0  0  0  0  0  0  0  0  0  0  0  0
   55.8820   28.7160   44.9930 N   0  0  0  0  0  0  0  0  0  0  0  0
   57.0040   28.5580   45.6250 C   0  0  0  0  0  0  0  0  0  0  0  0
   57.3750   27.4180   46.3140 C   0  0  0  0  0  0  0  0  0  0  0  0
   56.6460   26.1480   46.4390 C   0  0  0  0  0  0  0  0  0  0  0  0
   57.1860   25.1710   47.0260 O   0  0  0  0  0  0  0  0  0  0  0  0
   55.3580   26.0310   45.9080 O   0  0  0  0  0  0  0  0  0  0  0  0
   54.8570   24.8140   45.3630 C   0  0  0  0  0  0  0  0  0  0  0  0
   54.6047   24.1236   46.1813 H   0  0  0  0  0  0  0  0  0  0  0  0
   53.9570   25.0255   44.7669 H   0  0  0  0  0  0  0  0  0  0  0  0
   55.9150   24.1760   44.4700 C   0  0  0  0  0  0  0  0  0  0  0  0
   56.2874   24.9227   43.7532 H   0  0  0  0  0  0  0  0  0  0  0  0
   56.7472   23.8144   45.0919 H   0  0  0  0  0  0  0  0  0  0  0  0
   55.3490   23.0870   43.7640 O   0  0  0  0  0  0  0  0  0  0  0  0
   56.3370   22.4040   43.0220 C   0  0  0  0  0  0  0  0  0  0  0  0
   55.9203   21.4627   42.6342 H   0  0  0  0  0  0  0  0  0  0  0  0
   56.6653   23.0312   42.1801 H   0  0  0  0  0  0  0  0  0  0  0  0
   57.5230   22.1010   43.9250 C   0  0  0  0  0  0  0  0  0  0  0  0
   57.2124   22.1804   44.9772 H   0  0  0  0  0  0  0  0  0  0  0  0
   57.8848   21.0816   43.7254 H   0  0  0  0  0  0  0  0  0  0  0  0
   58.3295   22.8220   43.7254 H   0  0  0  0  0  0  0  0  0  0  0  0
   58.5860   27.7470   46.9020 C   0  0  0  0  0  0  0  0  0  0  0  0
   59.1901   27.0835   47.5383 H   0  0  0  0  0  0  0  0  0  0  0  0
   58.9020   29.0140   46.5660 N   0  0  0  0  0  0  0  0  0  0  0  0
   59.7660   29.5250   46.8560 H   0  0  0  0  0  0  0  0  0  0  0  0
   57.9510   29.5090   45.7850 N   0  0  0  0  0  0  0  0  0  0  0  0
   57.9900   30.8330   45.2270 C   0  0  0  0  0  0  0  0  0  0  0  0
   58.1350   31.9570   46.0570 C   0  0  0  0  0  0  0  0  0  0  0  0
   58.2412   31.8249   47.1439 H   0  0  0  0  0  0  0  0  0  0  0  0
   58.1450   33.2430   45.5080 C   0  0  0  0  0  0  0  0  0  0  0  0
   58.2678   34.1190   46.1619 H   0  0  0  0  0  0  0  0  0  0  0  0
   57.9990   33.4160   44.1280 C   0  0  0  0  0  0  0  0  0  0  0  0
   58.0133   34.4275   43.6959 H   0  0  0  0  0  0  0  0  0  0  0  0
   57.8350   32.3040   43.2980 C   0  0  0  0  0  0  0  0  0  0  0  0
   57.7136   32.4410   42.2133 H   0  0  0  0  0  0  0  0  0  0  0  0
   57.8250   31.0170   43.8450 C   0  0  0  0  0  0  0  0  0  0  0  0
   57.6872   30.1446   43.1893 H   0  0  0  0  0  0  0  0  0  0  0  0
  1  2  1  0
  2  3  2  0
  3  4  1  0
  4  5  1  0
  5  6  2  0
  5  7  1  0
  7  8  1  0
  8  9  1  0
  8 10  1  0
  8 11  1  0
 11 12  1  0
 11 13  1  0
 11 14  1  0
 14 15  1  0
 15 16  1  0
 15 17  1  0
 15 18  1  0
 18 19  1  0
 18 20  1  0
 18 21  1  0
  4 22  2  0
 22 23  1  0
 22 24  1  0
 24 25  1  0
 24 26  1  0
 26 27  1  0
 27 28  2  0
 28 29  1  0
 28 30  1  0
 30 31  1  0
 30 32  2  0
 32 33  1  0
 32 34  1  0
 34 35  1  0
 34 36  2  0
 36 37  1  0
 26  3  1  0
 36 27  1  0
M  END
>  <UniqueID>  (20) 
19

>  <SMILES>  (20) 
[H]/N=c1/c(C(=O)OCCOCC)c[nH]n1-c1ccccc1

>  <Energy>  (20) 
70.27262073539136

>  <Genealogy>  (20) 
[H]/N=c1/c(C(=O)OCCOCC)c[nH]n1-c1ccccc1 (cis-trans isomerization)
[H]/N=c1/c(C(=O)OCCOCC)c[nH]n1-c1ccccc1 (3D coordinates assigned)
[H]/N=c1/c(C(=O)OCCOCC)c[nH]n1-c1ccccc1 (optimized conformer: 70.27262073539136 kcal/mol)

>  <smiles>  (20) 
CCOCCOC(=O)c1c[nH]n(-c2ccccc2)c1=N

>  <score_type>  (20) 
oracle

>  <origin>  (20) 
adg

>  <m_score__min__energy>  (20) 
-6.1500000000000004

>  <m_primary>  (20) 
energy

$$$$
20:0
     RDKit          3D

 31 32  0  0  1  0  0  0  0  0999 V2000
   57.7170   32.3160   41.5850 C   0  0  0  0  0  0  0  0  0  0  0  0
   57.0170   31.1970   42.2800 C   0  0  0  0  0  0  0  0  0  0  0  0
   57.8630   30.6960   43.3310 N   0  0  0  0  0  0  0  0  0  0  0  0
   57.2800   30.3680   44.5760 C   0  0  0  0  0  0  0  0  0  0  0  0
   56.0540   30.4830   44.8350 O   0  0  0  0  0  0  0  0  0  0  0  0
   58.2100   29.8380   45.6720 C   0  0  0  0  0  0  0  0  0  0  0  0
   58.1540   30.8550   46.6860 N   0  0  0  0  0  0  0  0  0  0  0  0
   58.3540   32.0740   46.4130 C   0  0  0  0  0  0  0  0  0  0  0  0
   57.2920   32.8040   45.9960 N   0  0  0  0  0  0  0  0  0  0  0  0
   57.3790   34.1060   45.6770 C   0  0  0  0  0  0  0  0  0  0  0  0
   58.5790   34.7450   45.7680 N   0  0  0  0  0  0  0  0  0  0  0  0
   59.6480   34.0280   46.1820 C   0  0  0  0  0  0  0  0  0  0  0  0
   60.8920   34.3990   46.3520 O   0  0  0  0  0  0  0  0  0  0  0  0
   61.6180   33.3870   46.7690 C   0  0  0  0  0  0  0  0  0  0  0  0
   63.0720   33.4890   47.0530 C   0  0  0  0  0  0  0  0  0  0  0  0
   60.7980   32.2530   46.8890 C   0  0  0  0  0  0  0  0  0  0  0  0
   59.5650   32.6910   46.5120 C   0  0  0  0  0  0  0  0  0  0  0  0
   58.1453   33.0007   42.3318 H   0  0  0  0  0  0  0  0  0  0  0  0
   58.5224   31.9099   40.9553 H   0  0  0  0  0  0  0  0  0  0  0  0
   56.9995   32.8626   40.9553 H   0  0  0  0  0  0  0  0  0  0  0  0
   56.0727   31.5628   42.7095 H   0  0  0  0  0  0  0  0  0  0  0  0
   56.7994   30.3921   41.5625 H   0  0  0  0  0  0  0  0  0  0  0  0
   58.9070   30.5620   43.2130 H   0  0  0  0  0  0  0  0  0  0  0  0
   57.8484   28.8750   46.0617 H   0  0  0  0  0  0  0  0  0  0  0  0
   59.2321   29.6513   45.3109 H   0  0  0  0  0  0  0  0  0  0  0  0
   56.3610   32.3420   45.9170 H   0  0  0  0  0  0  0  0  0  0  0  0
   56.4853   34.6540   45.3437 H   0  0  0  0  0  0  0  0  0  0  0  0
   63.2332   33.5003   48.1411 H   0  0  0  0  0  0  0  0  0  0  0  0
   63.5928   32.6252   46.6142 H   0  0  0  0  0  0  0  0  0  0  0  0
   63.4671   34.4171   46.6142 H   0  0  0  0  0  0  0  0  0  0  0  0
   61.0860   31.2421   47.2134 H   0  0  0  0  0  0  0  0  0  0  0  0
  1  2  1  0
  2  3  1  0
  3  4  1  0
  4  5  2  0
  4  6  1  0
  6  7  1  0
  7  8  2  0
  8  9  1  0
  9 10  1  0
 10 11  2  0
 11 12  1  0
 12 13  1  0
 13 14  1  0
 14 15  1  0
 14 16  2  0
 16 17  1  0
 17  8  1  0
 17 12  2  0
  1 18  1  0
  1 19  1  0
  1 20  1  0
  2 21  1  0
  2 22  1  0
  3 23  1  0
  6 24  1  0
  6 25  1  0
  9 26  1  0
 10 27  1  0
 15 28  1  0
 15 29  1  0
 15 30  1  0
 16 31  1  0
M  END
>  <smiles>  (21) 
CCNC(=O)CN=c1[nH]cnc2oc(C)cc12

>  <score_type>  (21) 
oracle

>  <origin>  (21) 
adg

>  <m_score__min__energy>  (21) 
-6.0199999999999996

>  <m_primary>  (21) 
energy

$$$$
21:0
     RDKit          3D

 44 48  0  0  0  0  0  0  0  0999 V2000
   58.3290   21.9200   44.7270 C   0  0  0  0  0  0  0  0  0  0  0  0
   57.8810   22.8400   45.7170 O   0  0  0  0  0  0  0  0  0  0  0  0
   57.9410   24.2350   45.5860 C   0  0  0  0  0  0  0  0  0  0  0  0
   57.7130   24.8910   44.3540 C   0  0  0  0  0  0  0  0  0  0  0  0
   57.7770   26.2920   44.2620 C   0  0  0  0  0  0  0  0  0  0  0  0
   58.0160   27.0540   45.4190 C   0  0  0  0  0  0  0  0  0  0  0  0
   58.3150   26.3820   46.6080 C   0  0  0  0  0  0  0  0  0  0  0  0
   58.2640   24.9950   46.7180 C   0  0  0  0  0  0  0  0  0  0  0  0
   58.8380   27.4550   47.7920 S   0  0  0  0  0  0  0  0  0  0  0  0
   58.6610   28.7990   46.8000 C   0  0  0  0  0  0  0  0  0  0  0  0
   59.0140   30.0610   47.1330 N   0  0  0  0  0  0  0  0  0  0  0  0
   58.8590   31.0790   46.2460 C   0  0  0  0  0  0  0  0  0  0  0  0
   59.2650   32.3950   46.6390 N   0  0  0  0  0  0  0  0  0  0  0  0
   60.6730   32.6700   46.9280 C   0  0  0  0  0  0  0  0  0  0  0  0
   61.1070   34.0370   46.3530 C   0  0  0  0  0  0  0  0  0  0  0  0
   60.0080   35.0140   46.2040 N   0  0  0  0  0  0  0  0  0  0  0  0
   58.9030   34.7760   47.1390 C   0  0  0  0  0  0  0  0  0  0  0  0
   58.2450   33.4250   46.8490 C   0  0  0  0  0  0  0  0  0  0  0  0
   58.2540   30.8380   44.9850 C   0  0  0  0  0  0  0  0  0  0  0  0
   58.0220   31.8900   44.0790 C   0  0  0  0  0  0  0  0  0  0  0  0
   57.3200   31.6640   42.8970 C   0  0  0  0  0  0  0  0  0  0  0  0
   56.8060   30.4010   42.6220 C   0  0  0  0  0  0  0  0  0  0  0  0
   57.0370   29.3380   43.4970 C   0  0  0  0  0  0  0  0  0  0  0  0
   57.8310   29.5140   44.6500 C   0  0  0  0  0  0  0  0  0  0  0  0
   58.1440   28.4640   45.5500 C   0  0  0  0  0  0  0  0  0  0  0  0
   58.7601   21.0347   45.2174 H   0  0  0  0  0  0  0  0  0  0  0  0
   57.4790   21.6140   44.0994 H   0  0  0  0  0  0  0  0  0  0  0  0
   59.0940   22.4005   44.0994 H   0  0  0  0  0  0  0  0  0  0  0  0
   57.4828   24.2975   43.4569 H   0  0  0  0  0  0  0  0  0  0  0  0
   57.6409   26.7894   43.2904 H   0  0  0  0  0  0  0  0  0  0  0  0
   58.4741   24.5032   47.6792 H   0  0  0  0  0  0  0  0  0  0  0  0
   60.8205   32.6765   48.0180 H   0  0  0  0  0  0  0  0  0  0  0  0
   61.2839   31.8855   46.4576 H   0  0  0  0  0  0  0  0  0  0  0  0
   61.8624   34.4690   47.0259 H   0  0  0  0  0  0  0  0  0  0  0  0
   61.4938   33.8433   45.3416 H   0  0  0  0  0  0  0  0  0  0  0  0
   59.6350   34.9560   45.2270 H   0  0  0  0  0  0  0  0  0  0  0  0
   59.2915   34.7772   48.1681 H   0  0  0  0  0  0  0  0  0  0  0  0
   58.1540   35.5725   47.0187 H   0  0  0  0  0  0  0  0  0  0  0  0
   57.6119   33.1396   47.7021 H   0  0  0  0  0  0  0  0  0  0  0  0
   57.6345   33.5136   45.9383 H   0  0  0  0  0  0  0  0  0  0  0  0
   58.3979   32.8985   44.3060 H   0  0  0  0  0  0  0  0  0  0  0  0
   57.1720   32.4853   42.1804 H   0  0  0  0  0  0  0  0  0  0  0  0
   56.2138   30.2388   41.7093 H   0  0  0  0  0  0  0  0  0  0  0  0
   56.5954   28.3530   43.2854 H   0  0  0  0  0  0  0  0  0  0  0  0
  1  2  1  0
  2  3  1  0
  3  4  2  0
  4  5  1  0
  5  6  2  0
  6  7  1  0
  7  8  2  0
  7  9  1  0
  9 10  1  0
 10 11  2  0
 11 12  1  0
 12 13  1  0
 13 14  1  0
 14 15  1  0
 15 16  1  0
 16 17  1  0
 17 18  1  0
 12 19  2  0
 19 20  1  0
 20 21  2  0
 21 22  1  0
 22 23  2  0
 23 24  1  0
 24 25  2  0
  8  3  1  0
 25 10  1  0
 25  6  1  0
 18 13  1  0
 24 19  1  0
  1 26  1  0
  1 27  1  0
  1 28  1  0
  4 29  1  0
  5 30  1  0
  8 31  1  0
 14 32  1  0
 14 33  1  0
 15 34  1  0
 15 35  1  0
 16 36  1  0
 17 37  1  0
 17 38  1  0
 18 39  1  0
 18 40  1  0
 20 41  1  0
 21 42  1  0
 22 43  1  0
 23 44  1  0
M  END
>  <UniqueID>  (22) 
20

>  <SMILES>  (22) 
COc1ccc2c(c1)sc1nc(N3CCNCC3)c3ccccc3c12

>  <Energy>  (22) 
110.96738527401347

>  <Genealogy>  (22) 
COc1ccc2c(c1)sc1nc(N3CCNCC3)c3ccccc3c12 (3D coordinates assigned)
COc1ccc2c(c1)sc1nc(N3CCNCC3)c3ccccc3c12 (nonaromatic ring conformer: 110.96738527401347 kcal/mol)

>  <smiles>  (22) 
COc1ccc2c(c1)sc1nc(N3CCNCC3)c3ccccc3c12

>  <score_type>  (22) 
oracle

>  <origin>  (22) 
adg

>  <m_score__min__energy>  (22) 
-7.7400000000000002

>  <m_primary>  (22) 
energy

$$$$
22:0
     RDKit          3D

 21 22  0  0  0  0  0  0  0  0999 V2000
   57.6280   32.3330   41.5100 C   0  0  0  0  0  0  0  0  0  0  0  0
   57.8300   32.0360   42.9660 C   0  0  0  0  0  0  0  0  0  0  0  0
   57.8100   33.0890   43.9080 C   0  0  0  0  0  0  0  0  0  0  0  0
   58.0340   32.8230   45.2740 C   0  0  0  0  0  0  0  0  0  0  0  0
   58.0090   33.9340   46.2850 C   0  0  0  0  0  0  0  0  0  0  0  0
   58.2850   31.4950   45.6520 C   0  0  0  0  0  0  0  0  0  0  0  0
   58.5380   31.0060   46.9420 C   0  0  0  0  0  0  0  0  0  0  0  0
   58.7560   29.6280   46.9640 C   0  0  0  0  0  0  0  0  0  0  0  0
   58.6390   29.0170   45.3900 S   0  0  0  0  0  0  0  0  0  0  0  0
   58.3090   30.5040   44.6880 C   0  0  0  0  0  0  0  0  0  0  0  0
   58.0940   30.7570   43.3740 N   0  0  0  0  0  0  0  0  0  0  0  0
   57.0123   33.2382   41.4024 H   0  0  0  0  0  0  0  0  0  0  0  0
   58.6044   32.4944   41.0298 H   0  0  0  0  0  0  0  0  0  0  0  0
   57.1191   31.4842   41.0298 H   0  0  0  0  0  0  0  0  0  0  0  0
   57.6190   34.1196   43.5743 H   0  0  0  0  0  0  0  0  0  0  0  0
   58.0186   33.5074   47.2989 H   0  0  0  0  0  0  0  0  0  0  0  0
   58.8930   34.5742   46.1482 H   0  0  0  0  0  0  0  0  0  0  0  0
   57.0971   34.5338   46.1482 H   0  0  0  0  0  0  0  0  0  0  0  0
   58.5620   31.6408   47.8401 H   0  0  0  0  0  0  0  0  0  0  0  0
   58.9703   29.0321   47.8634 H   0  0  0  0  0  0  0  0  0  0  0  0
   58.1330   29.9740   42.6840 H   0  0  0  0  0  0  0  0  0  0  0  0
  1  2  1  0
  2  3  2  0
  3  4  1  0
  4  5  1  0
  4  6  2  0
  6  7  1  0
  7  8  2  0
  8  9  1  0
  9 10  1  0
 10 11  2  0
 11  2  1  0
 10  6  1  0
  1 12  1  0
  1 13  1  0
  1 14  1  0
  3 15  1  0
  5 16  1  0
  5 17  1  0
  5 18  1  0
  7 19  1  0
  8 20  1  0
 11 21  1  0
M  CHG  1  11   1
M  END
>  <UniqueID>  (23) 
21

>  <SMILES>  (23) 
Cc1cc(C)c2ccsc2[nH+]1

>  <Energy>  (23) 
51.72697093108806

>  <Genealogy>  (23) 
Cc1cc(C)c2ccsc2[nH+]1 (protonated)
Cc1cc(C)c2ccsc2[nH+]1 (3D coordinates assigned)
Cc1cc(C)c2ccsc2[nH+]1 (optimized conformer: 51.72697093108806 kcal/mol)

>  <smiles>  (23) 
Cc1cc(C)c2ccsc2n1

>  <score_type>  (23) 
oracle

>  <origin>  (23) 
adg

>  <m_score__min__energy>  (23) 
-3.79

>  <m_primary>  (23) 
energy

$$$$
23:0
     RDKit          3D

 49 51  0  0  0  0  0  0  0  0999 V2000
   57.1400   31.5060   42.4410 O   0  0  0  0  0  0  0  0  0  0  0  0
   57.0740   31.0890   43.6300 C   0  0  0  0  0  0  0  0  0  0  0  0
   56.4920   29.7200   43.9070 C   0  0  0  0  0  0  0  0  0  0  0  0
   57.3910   28.6360   43.4670 N   0  0  0  0  0  0  0  0  0  0  0  0
   58.2260   28.1220   44.5760 C   0  0  0  0  0  0  0  0  0  0  0  0
   57.5570   28.3630   45.9630 C   0  0  0  0  0  0  0  0  0  0  0  0
   58.5640   28.5110   47.1210 C   0  0  0  0  0  0  0  0  0  0  0  0
   59.8360   27.6990   46.8690 C   0  0  0  0  0  0  0  0  0  0  0  0
   60.5690   28.1740   45.5980 C   0  0  0  0  0  0  0  0  0  0  0  0
   59.6270   28.7690   44.5320 C   0  0  0  0  0  0  0  0  0  0  0  0
   57.5210   31.9360   44.7090 N   0  0  0  0  0  0  0  0  0  0  0  0
   56.6590   32.9990   45.2390 C   0  0  0  0  0  0  0  0  0  0  0  0
   57.4550   33.9130   46.1730 C   0  0  0  0  0  0  0  0  0  0  0  0
   58.0920   33.1760   47.1990 O   0  0  0  0  0  0  0  0  0  0  0  0
   58.9360   32.1260   46.7220 C   0  0  2  0  0  0  0  0  0  0  0  0
   60.3560   32.3560   47.1810 C   0  0  0  0  0  0  0  0  0  0  0  0
   61.2780   31.2940   47.1920 C   0  0  0  0  0  0  0  0  0  0  0  0
   62.6030   31.5090   47.5840 C   0  0  0  0  0  0  0  0  0  0  0  0
   63.0230   32.7890   47.9590 C   0  0  0  0  0  0  0  0  0  0  0  0
   64.3080   32.9960   48.3370 F   0  0  0  0  0  0  0  0  0  0  0  0
   62.1190   33.8550   47.9380 C   0  0  0  0  0  0  0  0  0  0  0  0
   60.7940   33.6430   47.5460 C   0  0  0  0  0  0  0  0  0  0  0  0
   58.9010   31.8580   45.1970 C   0  0  0  0  0  0  0  0  0  0  0  0
   56.3189   29.6203   44.9887 H   0  0  0  0  0  0  0  0  0  0  0  0
   55.5519   29.6308   43.3428 H   0  0  0  0  0  0  0  0  0  0  0  0
   58.0040   28.9780   42.6880 H   0  0  0  0  0  0  0  0  0  0  0  0
   56.8000   27.8510   43.1040 H   0  0  0  0  0  0  0  0  0  0  0  0
   58.3273   27.0347   44.4435 H   0  0  0  0  0  0  0  0  0  0  0  0
   56.9581   29.2838   45.9041 H   0  0  0  0  0  0  0  0  0  0  0  0
   56.9442   27.4762   46.1821 H   0  0  0  0  0  0  0  0  0  0  0  0
   58.8331   29.5723   47.2265 H   0  0  0  0  0  0  0  0  0  0  0  0
   58.0906   28.1325   48.0389 H   0  0  0  0  0  0  0  0  0  0  0  0
   60.5084   27.8115   47.7322 H   0  0  0  0  0  0  0  0  0  0  0  0
   59.5504   26.6460   46.7288 H   0  0  0  0  0  0  0  0  0  0  0  0
   61.3007   28.9436   45.8849 H   0  0  0  0  0  0  0  0  0  0  0  0
   61.0475   27.2903   45.1506 H   0  0  0  0  0  0  0  0  0  0  0  0
   59.5254   29.8496   44.7106 H   0  0  0  0  0  0  0  0  0  0  0  0
   60.0635   28.5699   43.5421 H   0  0  0  0  0  0  0  0  0  0  0  0
   56.2601   33.5929   44.4035 H   0  0  0  0  0  0  0  0  0  0  0  0
   55.8337   32.5415   45.8043 H   0  0  0  0  0  0  0  0  0  0  0  0
   58.2193   34.4447   45.5872 H   0  0  0  0  0  0  0  0  0  0  0  0
   56.7564   34.6228   46.6400 H   0  0  0  0  0  0  0  0  0  0  0  0
   58.5168   31.2113   47.1664 H   0  0  0  0  0  0  0  0  0  0  0  0
   60.9545   30.2869   46.8901 H   0  0  0  0  0  0  0  0  0  0  0  0
   63.3152   30.6708   47.5974 H   0  0  0  0  0  0  0  0  0  0  0  0
   62.4507   34.8622   48.2304 H   0  0  0  0  0  0  0  0  0  0  0  0
   60.0892   34.4872   47.5226 H   0  0  0  0  0  0  0  0  0  0  0  0
   59.5139   32.6110   44.6800 H   0  0  0  0  0  0  0  0  0  0  0  0
   59.3001   30.8528   44.9964 H   0  0  0  0  0  0  0  0  0  0  0  0
  1  2  2  0
  2  3  1  0
  3  4  1  0
  4  5  1  0
  5  6  1  0
  6  7  1  0
  7  8  1  0
  8  9  1  0
  9 10  1  0
  2 11  1  0
 11 12  1  0
 12 13  1  0
 13 14  1  0
 14 15  1  0
 15 16  1  0
 16 17  2  0
 17 18  1  0
 18 19  2  0
 19 20  1  0
 19 21  1  0
 21 22  2  0
 15 23  1  0
 10  5  1  0
 23 11  1  0
 22 16  1  0
  3 24  1  0
  3 25  1  0
  4 26  1  0
  4 27  1  0
  5 28  1  0
  6 29  1  0
  6 30  1  0
  7 31  1  0
  7 32  1  0
  8 33  1  0
  8 34  1  0
  9 35  1  0
  9 36  1  0
 10 37  1  0
 10 38  1  0
 12 39  1  0
 12 40  1  0
 13 41  1  0
 13 42  1  0
 15 43  1  1
 17 44  1  0
 18 45  1  0
 21 46  1  0
 22 47  1  0
 23 48  1  0
 23 49  1  0
M  CHG  1   4   1
M  END
>  <UniqueID>  (24) 
22

>  <SMILES>  (24) 
O=C(C[NH2+]C1CCCCC1)N1CCO[C@H](c2ccc(F)cc2)C1

>  <Energy>  (24) 
60.824048549716636

>  <Genealogy>  (24) 
O=C(C[NH2+]C1CCCCC1)N1CCOC(c2ccc(F)cc2)C1 (protonated)
O=C(C[NH2+]C1CCCCC1)N1CCO[C@H](c2ccc(F)cc2)C1 (chirality)
O=C(C[NH2+]C1CCCCC1)N1CCO[C@H](c2ccc(F)cc2)C1 (3D coordinates assigned)
O=C(C[NH2+]C1CCCCC1)N1CCO[C@H](c2ccc(F)cc2)C1 (nonaromatic ring conformer: 60.824048549716636 kcal/mol)

>  <smiles>  (24) 
O=C(CNC1CCCCC1)N1CCOC(c2ccc(F)cc2)C1

>  <score_type>  (24) 
oracle

>  <origin>  (24) 
adg

>  <m_score__min__energy>  (24) 
-7.0300000000000002

>  <m_primary>  (24) 
energy

$$$$
24:0
     RDKit          3D

 50 53  0  0  0  0  0  0  0  0999 V2000
   57.3570   24.1780   47.9060 C   0  0  0  0  0  0  0  0  0  0  0  0
   58.3000   24.5580   46.7670 C   0  0  0  0  0  0  0  0  0  0  0  0
   58.2460   26.0480   46.4880 C   0  0  0  0  0  0  0  0  0  0  0  0
   57.0990   26.6480   45.9270 C   0  0  0  0  0  0  0  0  0  0  0  0
   55.9040   25.8310   45.6170 C   0  0  0  0  0  0  0  0  0  0  0  0
   54.7720   26.2770   45.9530 O   0  0  0  0  0  0  0  0  0  0  0  0
   56.0120   24.5250   44.9160 C   0  0  0  0  0  0  0  0  0  0  0  0
   56.7000   24.4340   43.6920 C   0  0  0  0  0  0  0  0  0  0  0  0
   56.7940   23.2120   43.0190 C   0  0  0  0  0  0  0  0  0  0  0  0
   56.2100   22.0670   43.5600 C   0  0  0  0  0  0  0  0  0  0  0  0
   55.5290   22.1420   44.7750 C   0  0  0  0  0  0  0  0  0  0  0  0
   55.4300   23.3630   45.4520 C   0  0  0  0  0  0  0  0  0  0  0  0
   57.0850   27.9980   45.6910 N   0  0  0  0  0  0  0  0  0  0  0  0
   55.9900   28.5990   45.1010 O   0  0  0  0  0  0  0  0  0  0  0  0
   58.1650   28.7730   46.0160 C   0  0  0  0  0  0  0  0  0  0  0  0
   58.1630   30.1610   45.7780 C   0  0  0  0  0  0  0  0  0  0  0  0
   59.2650   30.9530   46.1330 C   0  0  0  0  0  0  0  0  0  0  0  0
   59.2250   32.3830   45.9420 N   0  0  0  0  0  0  0  0  0  0  0  0
   58.0740   32.9500   45.2230 C   0  0  0  0  0  0  0  0  0  0  0  0
   58.1490   34.4670   45.1470 C   0  0  0  0  0  0  0  0  0  0  0  0
   58.5350   34.9820   46.4000 O   0  0  0  0  0  0  0  0  0  0  0  0
   59.9160   34.7360   46.5920 C   0  0  0  0  0  0  0  0  0  0  0  0
   60.2580   33.2210   46.5910 C   0  0  0  0  0  0  0  0  0  0  0  0
   60.3740   30.3520   46.7410 C   0  0  0  0  0  0  0  0  0  0  0  0
   60.3940   28.9800   46.9700 C   0  0  0  0  0  0  0  0  0  0  0  0
   59.2970   28.1780   46.6100 C   0  0  0  0  0  0  0  0  0  0  0  0
   59.3100   26.8340   46.8310 N   0  0  0  0  0  0  0  0  0  0  0  0
   60.4130   26.2600   47.4130 O   0  0  0  0  0  0  0  0  0  0  0  0
   57.8482   24.3759   48.8702 H   0  0  0  0  0  0  0  0  0  0  0  0
   56.4360   24.7752   47.8342 H   0  0  0  0  0  0  0  0  0  0  0  0
   57.1074   23.1091   47.8342 H   0  0  0  0  0  0  0  0  0  0  0  0
   59.3279   24.2813   47.0441 H   0  0  0  0  0  0  0  0  0  0  0  0
   57.9865   24.0209   45.8597 H   0  0  0  0  0  0  0  0  0  0  0  0
   57.1677   25.3315   43.2611 H   0  0  0  0  0  0  0  0  0  0  0  0
   57.3300   23.1536   42.0602 H   0  0  0  0  0  0  0  0  0  0  0  0
   56.2863   21.1064   43.0295 H   0  0  0  0  0  0  0  0  0  0  0  0
   55.0685   21.2390   45.2023 H   0  0  0  0  0  0  0  0  0  0  0  0
   54.8928   23.4138   46.4106 H   0  0  0  0  0  0  0  0  0  0  0  0
   55.1430   28.0960   44.8770 H   0  0  0  0  0  0  0  0  0  0  0  0
   57.2862   30.6301   45.3078 H   0  0  0  0  0  0  0  0  0  0  0  0
   58.0561   32.5425   44.2014 H   0  0  0  0  0  0  0  0  0  0  0  0
   57.1600   32.6793   45.7719 H   0  0  0  0  0  0  0  0  0  0  0  0
   58.8882   34.7598   44.3868 H   0  0  0  0  0  0  0  0  0  0  0  0
   57.1624   34.8694   44.8736 H   0  0  0  0  0  0  0  0  0  0  0  0
   60.4770   35.2244   45.7816 H   0  0  0  0  0  0  0  0  0  0  0  0
   60.1927   35.1396   47.5771 H   0  0  0  0  0  0  0  0  0  0  0  0
   61.2084   33.0790   46.0557 H   0  0  0  0  0  0  0  0  0  0  0  0
   60.3196   32.9025   47.6421 H   0  0  0  0  0  0  0  0  0  0  0  0
   61.2347   30.9686   47.0394 H   0  0  0  0  0  0  0  0  0  0  0  0
   61.2764   28.5184   47.4371 H   0  0  0  0  0  0  0  0  0  0  0  0
  1  2  1  0
  2  3  1  0
  3  4  2  0
  4  5  1  0
  5  6  2  0
  5  7  1  0
  7  8  2  0
  8  9  1  0
  9 10  2  0
 10 11  1  0
 11 12  2  0
  4 13  1  0
 13 14  1  0
 13 15  2  0
 15 16  1  0
 16 17  2  0
 17 18  1  0
 18 19  1  0
 19 20  1  0
 20 21  1  0
 21 22  1  0
 22 23  1  0
 17 24  1  0
 24 25  2  0
 25 26  1  0
 26 27  2  0
 27 28  1  0
 27  3  1  0
 12  7  1  0
 26 15  1  0
 23 18  1  0
  1 29  1  0
  1 30  1  0
  1 31  1  0
  2 32  1  0
  2 33  1  0
  8 34  1  0
  9 35  1  0
 10 36  1  0
 11 37  1  0
 12 38  1  0
 14 39  1  0
 16 40  1  0
 19 41  1  0
 19 42  1  0
 20 43  1  0
 20 44  1  0
 22 45  1  0
 22 46  1  0
 23 47  1  0
 23 48  1  0
 24 49  1  0
 25 50  1  0
M  CHG  3  13   1  27   1  28  -1
M  END
>  <UniqueID>  (25) 
23

>  <SMILES>  (25) 
CCc1c(C(=O)c2ccccc2)[n+](O)c2cc(N3CCOCC3)ccc2[n+]1[O-]

>  <Energy>  (25) 
79.29882931928736

>  <Genealogy>  (25) 
CCc1c(C(=O)c2ccccc2)[n+](O)c2cc(N3CCOCC3)ccc2[n+]1[O-] (protonated)
CCc1c(C(=O)c2ccccc2)[n+](O)c2cc(N3CCOCC3)ccc2[n+]1[O-] (3D coordinates assigned)
CCc1c(C(=O)c2ccccc2)[n+](O)c2cc(N3CCOCC3)ccc2[n+]1[O-] (nonaromatic ring conformer: 79.29882931928736 kcal/mol)

>  <smiles>  (25) 
CCc1c(C(=O)c2ccccc2)[n+]([O-])c2cc(N3CCOCC3)ccc2[n+]1[O-]

>  <score_type>  (25) 
oracle

>  <origin>  (25) 
adg

>  <m_score__min__energy>  (25) 
-7.0499999999999998

>  <m_primary>  (25) 
energy

$$$$
25:0
     RDKit          3D

 40 41  0  0  0  0  0  0  0  0999 V2000
   60.0997   35.1778   45.2248 H   0  0  0  0  0  0  0  0  0  0  0  0
   59.4230   34.6580   45.9190 C   0  0  0  0  0  0  0  0  0  0  0  0
   58.2650   33.9270   45.3630 C   0  0  0  0  0  0  0  0  0  0  0  0
   57.3930   34.5870   44.7360 O   0  0  0  0  0  0  0  0  0  0  0  0
   58.0970   32.4580   45.4920 C   0  0  0  0  0  0  0  0  0  0  0  0
   58.8450   31.7510   46.4410 C   0  0  0  0  0  0  0  0  0  0  0  0
   59.5612   32.2913   47.0774 H   0  0  0  0  0  0  0  0  0  0  0  0
   58.6950   30.3580   46.5940 C   0  0  0  0  0  0  0  0  0  0  0  0
   59.4530   29.6530   47.5420 O   0  0  0  0  0  0  0  0  0  0  0  0
   60.7000   30.0840   48.0790 C   0  0  0  0  0  0  0  0  0  0  0  0
   60.6515   30.0672   49.1778 H   0  0  0  0  0  0  0  0  0  0  0  0
   61.4991   29.4099   47.7369 H   0  0  0  0  0  0  0  0  0  0  0  0
   60.9123   31.1077   47.7369 H   0  0  0  0  0  0  0  0  0  0  0  0
   57.7620   29.6690   45.7760 C   0  0  0  0  0  0  0  0  0  0  0  0
   57.5410   28.2790   45.8440 O   0  0  0  0  0  0  0  0  0  0  0  0
   58.1210   27.2850   45.0060 C   0  0  0  0  0  0  0  0  0  0  0  0
   58.5780   26.5017   45.6285 H   0  0  0  0  0  0  0  0  0  0  0  0
   57.3408   26.8400   44.3710 H   0  0  0  0  0  0  0  0  0  0  0  0
   58.8923   27.7453   44.3710 H   0  0  0  0  0  0  0  0  0  0  0  0
   56.9990   30.3810   44.8360 C   0  0  0  0  0  0  0  0  0  0  0  0
   56.0840   29.6680   44.0460 O   0  0  0  0  0  0  0  0  0  0  0  0
   56.2550   29.3920   42.6590 C   0  0  0  0  0  0  0  0  0  0  0  0
   56.8309   28.4626   42.5384 H   0  0  0  0  0  0  0  0  0  0  0  0
   55.2696   29.2771   42.1838 H   0  0  0  0  0  0  0  0  0  0  0  0
   56.7966   30.2232   42.1838 H   0  0  0  0  0  0  0  0  0  0  0  0
   57.1630   31.7710   44.7070 C   0  0  0  0  0  0  0  0  0  0  0  0
   56.5504   32.3256   43.9809 H   0  0  0  0  0  0  0  0  0  0  0  0
   59.6840   34.7150   47.2300 C   0  0  0  0  0  0  0  0  0  0  0  0
   58.9630   35.2147   47.8937 H   0  0  0  0  0  0  0  0  0  0  0  0
   60.9070   34.1300   47.8170 C   0  0  0  0  0  0  0  0  0  0  0  0
   62.0050   33.9120   46.9690 C   0  0  0  0  0  0  0  0  0  0  0  0
   61.9303   34.1712   45.9026 H   0  0  0  0  0  0  0  0  0  0  0  0
   63.1910   33.3690   47.4680 C   0  0  0  0  0  0  0  0  0  0  0  0
   64.0491   33.2143   46.7974 H   0  0  0  0  0  0  0  0  0  0  0  0
   63.2890   33.0220   48.8180 C   0  0  0  0  0  0  0  0  0  0  0  0
   64.7790   32.3370   49.4410 Cl  0  0  0  0  0  0  0  0  0  0  0  0
   62.1940   33.2060   49.6660 C   0  0  0  0  0  0  0  0  0  0  0  0
   62.2702   32.9216   50.7259 H   0  0  0  0  0  0  0  0  0  0  0  0
   61.0000   33.7500   49.1760 C   0  0  0  0  0  0  0  0  0  0  0  0
   59.6280   33.8510   50.2760 Cl  0  0  0  0  0  0  0  0  0  0  0  0
  1  2  1  0
  2  3  1  0
  3  4  2  0
  3  5  1  0
  5  6  2  0
  6  7  1  0
  6  8  1  0
  8  9  1  0
  9 10  1  0
 10 11  1  0
 10 12  1  0
 10 13  1  0
  8 14  2  0
 14 15  1  0
 15 16  1  0
 16 17  1  0
 16 18  1  0
 16 19  1  0
 14 20  1  0
 20 21  1  0
 21 22  1  0
 22 23  1  0
 22 24  1  0
 22 25  1  0
 20 26  2  0
 26 27  1  0
  2 28  2  0
 28 29  1  0
 28 30  1  0
 30 31  2  0
 31 32  1  0
 31 33  1  0
 33 34  1  0
 33 35  2  0
 35 36  1  0
 35 37  1  0
 37 38  1  0
 37 39  2  0
 39 40  1  0
 26  5  1  0
 39 30  1  0
M  END
>  <UniqueID>  (26) 
24

>  <SMILES>  (26) 
COc1cc(C(=O)/C=C/c2ccc(Cl)cc2Cl)cc(OC)c1OC

>  <Energy>  (26) 
52.352097529903666

>  <Genealogy>  (26) 
COc1cc(C(=O)/C=C/c2ccc(Cl)cc2Cl)cc(OC)c1OC (cis-trans isomerization)
COc1cc(C(=O)/C=C/c2ccc(Cl)cc2Cl)cc(OC)c1OC (3D coordinates assigned)
COc1cc(C(=O)/C=C/c2ccc(Cl)cc2Cl)cc(OC)c1OC (optimized conformer: 52.352097529903666 kcal/mol)

>  <smiles>  (26) 
COc1cc(C(=O)C=Cc2ccc(Cl)cc2Cl)cc(OC)c1OC

>  <score_type>  (26) 
oracle

>  <origin>  (26) 
adg

>  <m_score__min__energy>  (26) 
-7.4400000000000004

>  <m_primary>  (26) 
energy

$$$$
26:0
     RDKit          3D

 35 37  0  0  0  0  0  0  0  0999 V2000
   59.1880   29.2530   46.6990 C   0  0  0  0  0  0  0  0  0  0  0  0
   57.8840   29.4320   45.9750 C   0  0  0  0  0  0  0  0  0  0  0  0
   56.9770   28.4490   45.6020 C   0  0  0  0  0  0  0  0  0  0  0  0
   57.0020   27.0030   45.8850 C   0  0  0  0  0  0  0  0  0  0  0  0
   55.9470   26.4490   46.2980 O   0  0  0  0  0  0  0  0  0  0  0  0
   58.1800   26.2150   45.6610 N   0  0  0  0  0  0  0  0  0  0  0  0
   58.2720   24.8150   46.0680 C   0  0  0  0  0  0  0  0  0  0  0  0
   57.7320   23.9280   44.9920 C   0  0  0  0  0  0  0  0  0  0  0  0
   58.0260   22.5810   44.8270 C   0  0  0  0  0  0  0  0  0  0  0  0
   57.3970   22.0140   43.7120 C   0  0  0  0  0  0  0  0  0  0  0  0
   56.6140   22.9110   42.9970 C   0  0  0  0  0  0  0  0  0  0  0  0
   56.7040   24.4120   43.7520 S   0  0  0  0  0  0  0  0  0  0  0  0
   55.9880   29.0430   44.9020 N   0  0  0  0  0  0  0  0  0  0  0  0
   56.2850   30.3320   44.8240 N   0  0  0  0  0  0  0  0  0  0  0  0
   57.4170   30.5890   45.4600 N   0  0  0  0  0  0  0  0  0  0  0  0
   57.9960   31.8980   45.5350 C   0  0  0  0  0  0  0  0  0  0  0  0
   58.1520   32.6780   44.3780 C   0  0  0  0  0  0  0  0  0  0  0  0
   58.7460   33.9410   44.4550 C   0  0  0  0  0  0  0  0  0  0  0  0
   59.2000   34.4270   45.6850 C   0  0  0  0  0  0  0  0  0  0  0  0
   59.0690   33.6460   46.8380 C   0  0  0  0  0  0  0  0  0  0  0  0
   59.6520   34.2500   48.3780 Cl  0  0  0  0  0  0  0  0  0  0  0  0
   58.4750   32.3810   46.7620 C   0  0  0  0  0  0  0  0  0  0  0  0
   59.0111   29.2773   47.7844 H   0  0  0  0  0  0  0  0  0  0  0  0
   59.6317   28.2855   46.4214 H   0  0  0  0  0  0  0  0  0  0  0  0
   59.8760   30.0651   46.4214 H   0  0  0  0  0  0  0  0  0  0  0  0
   58.9660   26.6080   45.0990 H   0  0  0  0  0  0  0  0  0  0  0  0
   59.3254   24.5594   46.2550 H   0  0  0  0  0  0  0  0  0  0  0  0
   57.6816   24.6680   46.9844 H   0  0  0  0  0  0  0  0  0  0  0  0
   58.6855   22.0171   45.5030 H   0  0  0  0  0  0  0  0  0  0  0  0
   57.5122   20.9573   43.4289 H   0  0  0  0  0  0  0  0  0  0  0  0
   56.0339   22.6796   42.0915 H   0  0  0  0  0  0  0  0  0  0  0  0
   57.8055   32.2937   43.4073 H   0  0  0  0  0  0  0  0  0  0  0  0
   58.8563   34.5529   43.5476 H   0  0  0  0  0  0  0  0  0  0  0  0
   59.6605   35.4241   45.7459 H   0  0  0  0  0  0  0  0  0  0  0  0
   58.3834   31.7633   47.6676 H   0  0  0  0  0  0  0  0  0  0  0  0
  1  2  1  0
  2  3  2  0
  3  4  1  0
  4  5  2  0
  4  6  1  0
  6  7  1  0
  7  8  1  0
  8  9  2  0
  9 10  1  0
 10 11  2  0
 11 12  1  0
  3 13  1  0
 13 14  2  0
 14 15  1  0
 15 16  1  0
 16 17  2  0
 17 18  1  0
 18 19  2  0
 19 20  1  0
 20 21  1  0
 20 22  2  0
 15  2  1  0
 22 16  1  0
 12  8  1  0
  1 23  1  0
  1 24  1  0
  1 25  1  0
  6 26  1  0
  7 27  1  0
  7 28  1  0
  9 29  1  0
 10 30  1  0
 11 31  1  0
 17 32  1  0
 18 33  1  0
 19 34  1  0
 22 35  1  0
M  END
>  <UniqueID>  (27) 
25

>  <SMILES>  (27) 
Cc1c(C(=O)NCc2cccs2)nnn1-c1cccc(Cl)c1

>  <Energy>  (27) 
104.01809440325785

>  <Genealogy>  (27) 
Cc1c(C(=O)NCc2cccs2)nnn1-c1cccc(Cl)c1 (3D coordinates assigned)
Cc1c(C(=O)NCc2cccs2)nnn1-c1cccc(Cl)c1 (optimized conformer: 104.01809440325785 kcal/mol)

>  <smiles>  (27) 
Cc1c(C(=O)NCc2cccs2)nnn1-c1cccc(Cl)c1

>  <score_type>  (27) 
oracle

>  <origin>  (27) 
adg

>  <m_score__min__energy>  (27) 
-8.4299999999999997

>  <m_primary>  (27) 
energy

$$$$
27:0
     RDKit          3D

 63 66  0  0  0  0  0  0  0  0999 V2000
   55.5520   29.0720   45.1150 O   0  0  0  0  0  0  0  0  0  0  0  0
   55.7460   29.7970   43.9310 C   0  0  0  0  0  0  0  0  0  0  0  0
   57.2330   30.1910   43.7560 C   0  0  0  0  0  0  0  0  0  0  0  0
   58.1320   29.8330   44.9900 C   0  0  2  0  0  0  0  0  0  0  0  0
   58.6480   31.1270   45.6890 C   0  0  0  0  0  0  0  0  0  0  0  0
   58.5280   31.0520   47.1670 N   0  0  0  0  0  0  0  0  0  0  0  0
   58.1710   32.3790   47.7200 C   0  0  0  0  0  0  0  0  0  0  0  0
   58.3430   33.4540   46.6770 C   0  0  0  0  0  0  0  0  0  0  0  0
   57.3610   33.8060   45.7700 C   0  0  0  0  0  0  0  0  0  0  0  0
   57.9490   34.6690   44.8660 C   0  0  0  0  0  0  0  0  0  0  0  0
   59.2680   34.8010   45.2480 C   0  0  0  0  0  0  0  0  0  0  0  0
   59.5040   34.0700   46.3540 N   0  0  0  0  0  0  0  0  0  0  0  0
   60.7850   33.9430   46.9890 C   0  0  0  0  0  0  0  0  0  0  0  0
   60.9350   34.1950   48.3610 C   0  0  0  0  0  0  0  0  0  0  0  0
   62.1990   34.0810   48.9430 C   0  0  0  0  0  0  0  0  0  0  0  0
   63.2980   33.7340   48.1560 C   0  0  0  0  0  0  0  0  0  0  0  0
   63.1160   33.5120   46.7890 C   0  0  0  0  0  0  0  0  0  0  0  0
   61.8780   33.6250   46.2400 N   0  0  0  0  0  0  0  0  0  0  0  0
   59.7610   30.5420   47.8090 C   0  0  0  0  0  0  0  0  0  0  0  0
   60.2100   29.2210   47.1600 C   0  0  0  0  0  0  0  0  0  0  0  0
   60.4460   29.2880   45.6280 C   0  0  0  0  0  0  0  0  0  0  0  0
   59.2890   28.8670   44.7810 N   0  0  1  0  0  0  0  0  0  0  0  0
   58.9730   27.3940   44.8980 C   0  0  0  0  0  0  0  0  0  0  0  0
   58.0700   26.8370   43.7520 C   0  0  0  0  0  0  0  0  0  0  0  0
   57.5790   25.4200   44.0700 C   0  0  0  0  0  0  0  0  0  0  0  0
   56.6870   25.3870   45.3250 C   0  0  0  0  0  0  0  0  0  0  0  0
   56.8680   26.6180   46.2270 C   0  0  0  0  0  0  0  0  0  0  0  0
   58.3360   27.0550   46.2940 C   0  0  0  0  0  0  0  0  0  0  0  0
   55.1220   28.2140   44.8540 H   0  0  0  0  0  0  0  0  0  0  0  0
   55.4352   29.1786   43.0760 H   0  0  0  0  0  0  0  0  0  0  0  0
   55.1446   30.7166   43.9819 H   0  0  0  0  0  0  0  0  0  0  0  0
   57.6294   29.6662   42.8743 H   0  0  0  0  0  0  0  0  0  0  0  0
   57.2636   31.2848   43.6439 H   0  0  0  0  0  0  0  0  0  0  0  0
   57.4380   29.2655   45.6273 H   0  0  0  0  0  0  0  0  0  0  0  0
   59.7061   31.2736   45.4265 H   0  0  0  0  0  0  0  0  0  0  0  0
   58.0293   31.9678   45.3422 H   0  0  0  0  0  0  0  0  0  0  0  0
   57.1223   32.3619   48.0516 H   0  0  0  0  0  0  0  0  0  0  0  0
   58.8356   32.5994   48.5684 H   0  0  0  0  0  0  0  0  0  0  0  0
   56.3151   33.4652   45.7685 H   0  0  0  0  0  0  0  0  0  0  0  0
   57.4609   35.1559   44.0089 H   0  0  0  0  0  0  0  0  0  0  0  0
   60.0174   35.4138   44.7255 H   0  0  0  0  0  0  0  0  0  0  0  0
   60.0656   34.4795   48.9720 H   0  0  0  0  0  0  0  0  0  0  0  0
   62.3284   34.2644   50.0199 H   0  0  0  0  0  0  0  0  0  0  0  0
   64.2965   33.6364   48.6072 H   0  0  0  0  0  0  0  0  0  0  0  0
   63.9755   33.2455   46.1563 H   0  0  0  0  0  0  0  0  0  0  0  0
   60.5610   31.2887   47.6972 H   0  0  0  0  0  0  0  0  0  0  0  0
   59.5537   30.3587   48.8736 H   0  0  0  0  0  0  0  0  0  0  0  0
   61.1512   28.9097   47.6366 H   0  0  0  0  0  0  0  0  0  0  0  0
   59.3857   28.5088   47.3124 H   0  0  0  0  0  0  0  0  0  0  0  0
   60.6958   30.3273   45.3685 H   0  0  0  0  0  0  0  0  0  0  0  0
   61.2534   28.5721   45.4147 H   0  0  0  0  0  0  0  0  0  0  0  0
   59.6430   28.9580   43.8010 H   0  0  0  0  0  0  0  0  0  0  0  0
   59.9453   26.8887   44.8012 H   0  0  0  0  0  0  0  0  0  0  0  0
   57.1999   27.4984   43.6275 H   0  0  0  0  0  0  0  0  0  0  0  0
   58.6650   26.7995   42.8276 H   0  0  0  0  0  0  0  0  0  0  0  0
   57.0007   25.0438   43.2132 H   0  0  0  0  0  0  0  0  0  0  0  0
   58.4600   24.7902   44.2625 H   0  0  0  0  0  0  0  0  0  0  0  0
   55.6355   25.3387   45.0057 H   0  0  0  0  0  0  0  0  0  0  0  0
   56.9805   24.5045   45.9124 H   0  0  0  0  0  0  0  0  0  0  0  0
   56.2664   27.4468   45.8255 H   0  0  0  0  0  0  0  0  0  0  0  0
   56.5404   26.3524   47.2430 H   0  0  0  0  0  0  0  0  0  0  0  0
   58.4003   27.9509   46.9289 H   0  0  0  0  0  0  0  0  0  0  0  0
   58.9007   26.2027   46.6998 H   0  0  0  0  0  0  0  0  0  0  0  0
  1  2  1  0
  2  3  1  0
  3  4  1  0
  4  5  1  0
  5  6  1  0
  6  7  1  0
  7  8  1  0
  8  9  2  0
  9 10  1  0
 10 11  2  0
 11 12  1  0
 12 13  1  0
 13 14  2  0
 14 15  1  0
 15 16  2  0
 16 17  1  0
 17 18  2  0
  6 19  1  0
 19 20  1  0
 20 21  1  0
 21 22  1  0
 22 23  1  0
 23 24  1  0
 24 25  1  0
 25 26  1  0
 26 27  1  0
 27 28  1  0
 22  4  1  0
 28 23  1  0
 12  8  1  0
 18 13  1  0
  1 29  1  0
  2 30  1  0
  2 31  1  0
  3 32  1  0
  3 33  1  0
  4 34  1  1
  5 35  1  0
  5 36  1  0
  7 37  1  0
  7 38  1  0
  9 39  1  0
 10 40  1  0
 11 41  1  0
 14 42  1  0
 15 43  1  0
 16 44  1  0
 17 45  1  0
 19 46  1  0
 19 47  1  0
 20 48  1  0
 20 49  1  0
 21 50  1  0
 21 51  1  0
 22 52  1  6
 23 53  1  0
 24 54  1  0
 24 55  1  0
 25 56  1  0
 25 57  1  0
 26 58  1  0
 26 59  1  0
 27 60  1  0
 27 61  1  0
 28 62  1  0
 28 63  1  0
M  CHG  1  22   1
M  END
>  <UniqueID>  (28) 
26

>  <SMILES>  (28) 
OCC[C@@H]1CN(Cc2cccn2-c2ccccn2)CCC[N@H+]1C1CCCCC1

>  <Energy>  (28) 
138.48984565476252

>  <Genealogy>  (28) 
OCCC1CN(Cc2cccn2-c2ccccn2)CCC[NH+]1C1CCCCC1 (protonated)
OCC[C@@H]1CN(Cc2cccn2-c2ccccn2)CCC[N@H+]1C1CCCCC1 (chirality)
OCC[C@@H]1CN(Cc2cccn2-c2ccccn2)CCC[N@H+]1C1CCCCC1 (3D coordinates assigned)
OCC[C@@H]1CN(Cc2cccn2-c2ccccn2)CCC[N@H+]1C1CCCCC1 (nonaromatic ring conformer: 138.48984565476252 kcal/mol)

>  <smiles>  (28) 
OCCC1CN(Cc2cccn2-c2ccccn2)CCCN1C1CCCCC1

>  <score_type>  (28) 
oracle

>  <origin>  (28) 
adg

>  <m_score__min__energy>  (28) 
-6.7300000000000004

>  <m_primary>  (28) 
energy

$$$$
28:0
     RDKit          3D

 32 34  0  0  0  0  0  0  0  0999 V2000
   58.2800   22.7850   45.1570 C   0  0  0  0  0  0  0  0  0  0  0  0
   58.0130   23.7190   46.1980 O   0  0  0  0  0  0  0  0  0  0  0  0
   57.9110   25.1060   46.0140 C   0  0  0  0  0  0  0  0  0  0  0  0
   59.0290   25.9080   45.7170 C   0  0  0  0  0  0  0  0  0  0  0  0
   58.8840   27.2860   45.5400 C   0  0  0  0  0  0  0  0  0  0  0  0
   57.6230   27.8910   45.6550 C   0  0  0  0  0  0  0  0  0  0  0  0
   57.4700   29.3510   45.4690 C   0  0  0  0  0  0  0  0  0  0  0  0
   56.4150   29.9230   44.8540 N   0  0  0  0  0  0  0  0  0  0  0  0
   56.6550   31.1980   44.8940 O   0  0  0  0  0  0  0  0  0  0  0  0
   57.7970   31.4150   45.5020 C   0  0  0  0  0  0  0  0  0  0  0  0
   58.3790   32.7530   45.7260 C   0  0  0  0  0  0  0  0  0  0  0  0
   58.7360   33.1590   47.0240 C   0  0  0  0  0  0  0  0  0  0  0  0
   59.2870   34.4260   47.2400 C   0  0  0  0  0  0  0  0  0  0  0  0
   59.4860   35.2970   46.1650 C   0  0  0  0  0  0  0  0  0  0  0  0
   59.1340   34.9020   44.8720 C   0  0  0  0  0  0  0  0  0  0  0  0
   58.5820   33.6350   44.6510 C   0  0  0  0  0  0  0  0  0  0  0  0
   58.3710   30.2610   45.8970 N   0  0  0  0  0  0  0  0  0  0  0  0
   56.5070   27.0910   45.9520 C   0  0  0  0  0  0  0  0  0  0  0  0
   56.6500   25.7060   46.1300 C   0  0  0  0  0  0  0  0  0  0  0  0
   55.5380   24.9190   46.4240 O   0  0  0  0  0  0  0  0  0  0  0  0
   58.5572   21.8154   45.5965 H   0  0  0  0  0  0  0  0  0  0  0  0
   57.3810   22.6621   44.5351 H   0  0  0  0  0  0  0  0  0  0  0  0
   59.1081   23.1559   44.5351 H   0  0  0  0  0  0  0  0  0  0  0  0
   60.0232   25.4467   45.6237 H   0  0  0  0  0  0  0  0  0  0  0  0
   59.7655   27.9020   45.3086 H   0  0  0  0  0  0  0  0  0  0  0  0
   58.5812   32.4771   47.8731 H   0  0  0  0  0  0  0  0  0  0  0  0
   59.5643   34.7378   48.2578 H   0  0  0  0  0  0  0  0  0  0  0  0
   59.9196   36.2932   46.3371 H   0  0  0  0  0  0  0  0  0  0  0  0
   59.2909   35.5878   44.0264 H   0  0  0  0  0  0  0  0  0  0  0  0
   58.3059   33.3283   43.6314 H   0  0  0  0  0  0  0  0  0  0  0  0
   55.5134   27.5536   46.0458 H   0  0  0  0  0  0  0  0  0  0  0  0
   55.6200   23.9200   46.5740 H   0  0  0  0  0  0  0  0  0  0  0  0
  1  2  1  0
  2  3  1  0
  3  4  2  0
  4  5  1  0
  5  6  2  0
  6  7  1  0
  7  8  2  0
  8  9  1  0
  9 10  1  0
 10 11  1  0
 11 12  2  0
 12 13  1  0
 13 14  2  0
 14 15  1  0
 15 16  2  0
 10 17  2  0
  6 18  1  0
 18 19  2  0
 19 20  1  0
 19  3  1  0
 17  7  1  0
 16 11  1  0
  1 21  1  0
  1 22  1  0
  1 23  1  0
  4 24  1  0
  5 25  1  0
 12 26  1  0
 13 27  1  0
 14 28  1  0
 15 29  1  0
 16 30  1  0
 18 31  1  0
 20 32  1  0
M  END
>  <UniqueID>  (29) 
27

>  <SMILES>  (29) 
COc1ccc(-c2noc(-c3ccccc3)n2)cc1O

>  <Energy>  (29) 
67.59168749096308

>  <Genealogy>  (29) 
COc1ccc(-c2noc(-c3ccccc3)n2)cc1O (3D coordinates assigned)
COc1ccc(-c2noc(-c3ccccc3)n2)cc1O (optimized conformer: 67.59168749096308 kcal/mol)

>  <smiles>  (29) 
COc1ccc(-c2noc(-c3ccccc3)n2)cc1O

>  <score_type>  (29) 
oracle

>  <origin>  (29) 
adg

>  <m_score__min__energy>  (29) 
-7.3099999999999996

>  <m_primary>  (29) 
energy

$$$$
29:0
     RDKit          3D

 27 28  0  0  0  0  0  0  0  0999 V2000
   56.3210   29.3410   42.6550 N   0  0  0  0  0  0  0  0  0  0  0  0
   56.2640   29.4180   44.0810 C   0  0  0  0  0  0  0  0  0  0  0  0
   55.1470   29.3330   44.6570 O   0  0  0  0  0  0  0  0  0  0  0  0
   57.4760   29.6340   44.8920 C   0  0  0  0  0  0  0  0  0  0  0  0
   58.1150   28.4850   45.9430 S   0  0  0  0  0  0  0  0  0  0  0  0
   59.4370   29.3870   46.4510 C   0  0  0  0  0  0  0  0  0  0  0  0
   59.4090   30.6050   45.7870 C   0  0  0  0  0  0  0  0  0  0  0  0
   58.3270   30.7440   44.9060 C   0  0  0  0  0  0  0  0  0  0  0  0
   58.1560   32.1940   43.8570 S   0  0  0  0  0  0  0  0  0  0  0  0
   57.2880   33.2070   45.1080 C   0  0  0  0  0  0  0  0  0  0  0  0
   58.2160   33.5930   46.2290 C   0  0  0  0  0  0  0  0  0  0  0  0
   58.0900   32.9690   47.4810 C   0  0  0  0  0  0  0  0  0  0  0  0
   58.9190   33.3430   48.5430 C   0  0  0  0  0  0  0  0  0  0  0  0
   59.8790   34.3420   48.3630 C   0  0  0  0  0  0  0  0  0  0  0  0
   60.0130   34.9670   47.1220 C   0  0  0  0  0  0  0  0  0  0  0  0
   59.1870   34.5980   46.0540 C   0  0  0  0  0  0  0  0  0  0  0  0
   59.3270   35.2320   44.8630 F   0  0  0  0  0  0  0  0  0  0  0  0
   57.1720   29.6370   42.1320 H   0  0  0  0  0  0  0  0  0  0  0  0
   55.4640   29.0960   42.1130 H   0  0  0  0  0  0  0  0  0  0  0  0
   60.1936   29.0678   47.1829 H   0  0  0  0  0  0  0  0  0  0  0  0
   60.1656   31.3891   45.9378 H   0  0  0  0  0  0  0  0  0  0  0  0
   56.9042   34.1196   44.6285 H   0  0  0  0  0  0  0  0  0  0  0  0
   56.4612   32.6142   45.5263 H   0  0  0  0  0  0  0  0  0  0  0  0
   57.3353   32.1821   47.6268 H   0  0  0  0  0  0  0  0  0  0  0  0
   58.8153   32.8503   49.5210 H   0  0  0  0  0  0  0  0  0  0  0  0
   60.5297   34.6362   49.1997 H   0  0  0  0  0  0  0  0  0  0  0  0
   60.7705   35.7524   46.9829 H   0  0  0  0  0  0  0  0  0  0  0  0
  1  2  1  0
  2  3  2  0
  2  4  1  0
  4  5  1  0
  5  6  1  0
  6  7  2  0
  7  8  1  0
  8  9  1  0
  9 10  1  0
 10 11  1  0
 11 12  2  0
 12 13  1  0
 13 14  2  0
 14 15  1  0
 15 16  2  0
 16 17  1  0
  8  4  2  0
 16 11  1  0
  1 18  1  0
  1 19  1  0
  6 20  1  0
  7 21  1  0
 10 22  1  0
 10 23  1  0
 12 24  1  0
 13 25  1  0
 14 26  1  0
 15 27  1  0
M  END
>  <UniqueID>  (30) 
28

>  <SMILES>  (30) 
NC(=O)c1sccc1SCc1ccccc1F

>  <Energy>  (30) 
49.14763865176085

>  <Genealogy>  (30) 
NC(=O)c1sccc1SCc1ccccc1F (3D coordinates assigned)
NC(=O)c1sccc1SCc1ccccc1F (optimized conformer: 49.14763865176085 kcal/mol)

>  <smiles>  (30) 
NC(=O)c1sccc1SCc1ccccc1F

>  <score_type>  (30) 
oracle

>  <origin>  (30) 
adg

>  <m_score__min__energy>  (30) 
-7.21

>  <m_primary>  (30) 
energy

$$$$
30:0
     RDKit          3D

 46 48  0  0  0  0  0  0  0  0999 V2000
   61.4480   34.1640   48.7800 C   0  0  0  0  0  0  0  0  0  0  0  0
   60.1060   34.4450   48.3960 O   0  0  0  0  0  0  0  0  0  0  0  0
   59.4850   33.9440   47.2400 C   0  0  0  0  0  0  0  0  0  0  0  0
   59.4340   34.6880   46.0460 C   0  0  0  0  0  0  0  0  0  0  0  0
   58.7800   34.1840   44.9220 C   0  0  0  0  0  0  0  0  0  0  0  0
   58.1550   32.9320   44.9670 C   0  0  0  0  0  0  0  0  0  0  0  0
   57.4810   32.3730   43.7440 C   0  0  0  0  0  0  0  0  0  0  0  0
   56.9970   30.9820   44.0150 C   0  0  0  0  0  0  0  0  0  0  0  0
   55.8540   30.8110   44.5210 O   0  0  0  0  0  0  0  0  0  0  0  0
   57.8460   29.8590   43.7440 N   0  0  0  0  0  0  0  0  0  0  0  0
   57.4310   28.4810   44.0350 C   0  0  0  0  0  0  0  0  0  0  0  0
   57.0270   28.3300   45.4980 C   0  0  0  0  0  0  0  0  0  0  0  0
   58.3100   28.0100   46.2530 C   0  0  0  0  0  0  0  0  0  0  0  0
   59.3000   27.4660   45.2230 C   0  0  0  0  0  0  0  0  0  0  0  0
   58.6060   27.5230   43.8660 C   0  0  0  0  0  0  0  0  0  0  0  0
   58.2170   32.1750   46.1460 C   0  0  0  0  0  0  0  0  0  0  0  0
   58.8800   32.6680   47.2830 C   0  0  0  0  0  0  0  0  0  0  0  0
   58.9330   31.8360   48.5110 C   0  0  0  0  0  0  0  0  0  0  0  0
   58.4980   32.3600   49.7410 C   0  0  0  0  0  0  0  0  0  0  0  0
   58.5370   31.5730   50.8960 C   0  0  0  0  0  0  0  0  0  0  0  0
   59.0050   30.2590   50.8340 C   0  0  0  0  0  0  0  0  0  0  0  0
   59.4310   29.7260   49.6150 C   0  0  0  0  0  0  0  0  0  0  0  0
   59.8770   28.4470   49.5540 F   0  0  0  0  0  0  0  0  0  0  0  0
   59.3940   30.5080   48.4560 C   0  0  0  0  0  0  0  0  0  0  0  0
   61.5198   34.1490   49.8775 H   0  0  0  0  0  0  0  0  0  0  0  0
   61.7464   33.1839   48.3796 H   0  0  0  0  0  0  0  0  0  0  0  0
   62.1145   34.9421   48.3796 H   0  0  0  0  0  0  0  0  0  0  0  0
   59.9146   35.6764   45.9991 H   0  0  0  0  0  0  0  0  0  0  0  0
   58.7551   34.7741   43.9940 H   0  0  0  0  0  0  0  0  0  0  0  0
   56.6254   33.0105   43.4764 H   0  0  0  0  0  0  0  0  0  0  0  0
   58.2026   32.3484   42.9142 H   0  0  0  0  0  0  0  0  0  0  0  0
   58.7990   30.0430   43.3540 H   0  0  0  0  0  0  0  0  0  0  0  0
   56.6001   28.2580   43.3495 H   0  0  0  0  0  0  0  0  0  0  0  0
   56.5860   29.2658   45.8719 H   0  0  0  0  0  0  0  0  0  0  0  0
   56.2726   27.5404   45.6298 H   0  0  0  0  0  0  0  0  0  0  0  0
   58.7118   28.9207   46.7213 H   0  0  0  0  0  0  0  0  0  0  0  0
   58.1270   27.2769   47.0524 H   0  0  0  0  0  0  0  0  0  0  0  0
   60.2092   28.0850   45.2089 H   0  0  0  0  0  0  0  0  0  0  0  0
   59.5975   26.4361   45.4694 H   0  0  0  0  0  0  0  0  0  0  0  0
   59.2982   27.8988   43.0981 H   0  0  0  0  0  0  0  0  0  0  0  0
   58.2704   26.5266   43.5428 H   0  0  0  0  0  0  0  0  0  0  0  0
   57.7412   31.1839   46.1813 H   0  0  0  0  0  0  0  0  0  0  0  0
   58.1254   33.3936   49.7949 H   0  0  0  0  0  0  0  0  0  0  0  0
   58.1982   31.9901   51.8558 H   0  0  0  0  0  0  0  0  0  0  0  0
   59.0383   29.6435   51.7450 H   0  0  0  0  0  0  0  0  0  0  0  0
   59.7267   30.0829   47.4976 H   0  0  0  0  0  0  0  0  0  0  0  0
  1  2  1  0
  2  3  1  0
  3  4  2  0
  4  5  1  0
  5  6  2  0
  6  7  1  0
  7  8  1  0
  8  9  2  0
  8 10  1  0
 10 11  1  0
 11 12  1  0
 12 13  1  0
 13 14  1  0
 14 15  1  0
  6 16  1  0
 16 17  2  0
 17 18  1  0
 18 19  2  0
 19 20  1  0
 20 21  2  0
 21 22  1  0
 22 23  1  0
 22 24  2  0
 17  3  1  0
 24 18  1  0
 15 11  1  0
  1 25  1  0
  1 26  1  0
  1 27  1  0
  4 28  1  0
  5 29  1  0
  7 30  1  0
  7 31  1  0
 10 32  1  0
 11 33  1  0
 12 34  1  0
 12 35  1  0
 13 36  1  0
 13 37  1  0
 14 38  1  0
 14 39  1  0
 15 40  1  0
 15 41  1  0
 16 42  1  0
 19 43  1  0
 20 44  1  0
 21 45  1  0
 24 46  1  0
M  END
>  <UniqueID>  (31) 
29

>  <SMILES>  (31) 
COc1ccc(CC(=O)NC2CCCC2)cc1-c1cccc(F)c1

>  <Energy>  (31) 
49.0397291157652

>  <Genealogy>  (31) 
COc1ccc(CC(=O)NC2CCCC2)cc1-c1cccc(F)c1 (3D coordinates assigned)
COc1ccc(CC(=O)NC2CCCC2)cc1-c1cccc(F)c1 (nonaromatic ring conformer: 49.0397291157652 kcal/mol)

>  <smiles>  (31) 
COc1ccc(CC(=O)NC2CCCC2)cc1-c1cccc(F)c1

>  <score_type>  (31) 
oracle

>  <origin>  (31) 
adg

>  <m_score__min__energy>  (31) 
-8.1699999999999999

>  <m_primary>  (31) 
energy

$$$$
31:0
     RDKit          3D

 43 45  0  0  0  0  0  0  0  0999 V2000
   64.6430   32.9630   49.0160 C   0  0  0  0  0  0  0  0  0  0  0  0
   63.2470   32.9720   48.4680 C   0  0  0  0  0  0  0  0  0  0  0  0
   62.4720   34.1420   48.5280 C   0  0  0  0  0  0  0  0  0  0  0  0
   61.1580   34.1450   48.0520 C   0  0  0  0  0  0  0  0  0  0  0  0
   60.6040   32.9760   47.5230 C   0  0  0  0  0  0  0  0  0  0  0  0
   59.3310   32.9670   47.0630 N   0  0  0  0  0  0  0  0  0  0  0  0
   58.7670   31.8460   46.5360 C   0  0  0  0  0  0  0  0  0  0  0  0
   57.4370   31.8650   46.0980 O   0  0  0  0  0  0  0  0  0  0  0  0
   57.0210   32.3830   44.8350 C   0  0  0  0  0  0  0  0  0  0  0  0
   58.2200   32.5440   43.8940 C   0  0  0  0  0  0  0  0  0  0  0  0
   58.1430   31.5930   42.7630 N   0  0  0  0  0  0  0  0  0  0  0  0
   58.0200   32.3050   41.4800 C   0  0  0  0  0  0  0  0  0  0  0  0
   57.0000   30.6820   42.9320 C   0  0  0  0  0  0  0  0  0  0  0  0
   59.5290   30.6610   46.4630 C   0  0  0  0  0  0  0  0  0  0  0  0
   58.9750   29.4200   45.8760 C   0  0  0  0  0  0  0  0  0  0  0  0
   57.8590   28.7110   46.3180 C   0  0  0  0  0  0  0  0  0  0  0  0
   57.5660   27.5950   45.5240 C   0  0  0  0  0  0  0  0  0  0  0  0
   56.4550   26.7200   45.7840 C   0  0  0  0  0  0  0  0  0  0  0  0
   55.5600   26.0170   45.9940 N   0  0  0  0  0  0  0  0  0  0  0  0
   58.4320   27.4150   44.4540 C   0  0  0  0  0  0  0  0  0  0  0  0
   59.5640   28.6560   44.4940 S   0  0  0  0  0  0  0  0  0  0  0  0
   60.8060   30.6640   46.9500 N   0  0  0  0  0  0  0  0  0  0  0  0
   61.3650   31.7930   47.4710 C   0  0  0  0  0  0  0  0  0  0  0  0
   62.6840   31.7930   47.9510 C   0  0  0  0  0  0  0  0  0  0  0  0
   64.6054   32.9632   50.1154 H   0  0  0  0  0  0  0  0  0  0  0  0
   65.1680   32.0615   48.6673 H   0  0  0  0  0  0  0  0  0  0  0  0
   65.1796   33.8577   48.6673 H   0  0  0  0  0  0  0  0  0  0  0  0
   62.9019   35.0614   48.9522 H   0  0  0  0  0  0  0  0  0  0  0  0
   60.5599   35.0673   48.0937 H   0  0  0  0  0  0  0  0  0  0  0  0
   56.2966   31.6905   44.3816 H   0  0  0  0  0  0  0  0  0  0  0  0
   56.5596   33.3692   44.9918 H   0  0  0  0  0  0  0  0  0  0  0  0
   58.2314   33.5708   43.4995 H   0  0  0  0  0  0  0  0  0  0  0  0
   59.1391   32.3369   44.4618 H   0  0  0  0  0  0  0  0  0  0  0  0
   57.8355   33.3728   41.6694 H   0  0  0  0  0  0  0  0  0  0  0  0
   58.9513   32.1900   40.9061 H   0  0  0  0  0  0  0  0  0  0  0  0
   57.1813   31.8842   40.9061 H   0  0  0  0  0  0  0  0  0  0  0  0
   56.8083   30.5292   44.0043 H   0  0  0  0  0  0  0  0  0  0  0  0
   56.1088   31.1202   42.4590 H   0  0  0  0  0  0  0  0  0  0  0  0
   57.2284   29.7155   42.4590 H   0  0  0  0  0  0  0  0  0  0  0  0
   57.2687   28.9987   47.2005 H   0  0  0  0  0  0  0  0  0  0  0  0
   58.3854   26.6042   43.7121 H   0  0  0  0  0  0  0  0  0  0  0  0
   61.3780   29.7900   46.8990 H   0  0  0  0  0  0  0  0  0  0  0  0
   63.2783   30.8678   47.9224 H   0  0  0  0  0  0  0  0  0  0  0  0
  1  2  1  0
  2  3  2  0
  3  4  1  0
  4  5  2  0
  5  6  1  0
  6  7  2  0
  7  8  1  0
  8  9  1  0
  9 10  1  0
 10 11  1  0
 11 12  1  0
 11 13  1  0
  7 14  1  0
 14 15  1  0
 15 16  2  0
 16 17  1  0
 17 18  1  0
 18 19  3  0
 17 20  2  0
 20 21  1  0
 14 22  2  0
 22 23  1  0
 23 24  2  0
 24  2  1  0
 23  5  1  0
 21 15  1  0
  1 25  1  0
  1 26  1  0
  1 27  1  0
  3 28  1  0
  4 29  1  0
  9 30  1  0
  9 31  1  0
 10 32  1  0
 10 33  1  0
 12 34  1  0
 12 35  1  0
 12 36  1  0
 13 37  1  0
 13 38  1  0
 13 39  1  0
 16 40  1  0
 20 41  1  0
 22 42  1  0
 24 43  1  0
M  CHG  1  22   1
M  END
>  <UniqueID>  (32) 
30

>  <SMILES>  (32) 
Cc1ccc2nc(OCCN(C)C)c(-c3cc(C#N)cs3)[nH+]c2c1

>  <Energy>  (32) 
73.36962980624986

>  <Genealogy>  (32) 
Cc1ccc2nc(OCCN(C)C)c(-c3cc(C#N)cs3)[nH+]c2c1 (protonated)
Cc1ccc2nc(OCCN(C)C)c(-c3cc(C#N)cs3)[nH+]c2c1 (3D coordinates assigned)
Cc1ccc2nc(OCCN(C)C)c(-c3cc(C#N)cs3)[nH+]c2c1 (optimized conformer: 73.36962980624986 kcal/mol)

>  <smiles>  (32) 
Cc1ccc2nc(OCCN(C)C)c(-c3cc(C#N)cs3)nc2c1

>  <score_type>  (32) 
oracle

>  <origin>  (32) 
adg

>  <m_score__min__energy>  (32) 
-6.0499999999999998

>  <m_primary>  (32) 
energy

$$$$
32:0
     RDKit          3D

 34 36  0  0  0  0  0  0  0  0999 V2000
   57.3850   31.6410   42.0650 C   0  0  0  0  0  0  0  0  0  0  0  0
   56.6980   30.3970   42.6100 C   0  0  0  0  0  0  0  0  0  0  0  0
   56.6660   30.4010   44.3960 S   0  0  0  0  0  0  0  0  0  0  0  0
   56.2580   31.7690   44.8690 O   0  0  0  0  0  0  0  0  0  0  0  0
   55.6590   29.4070   44.9000 O   0  0  0  0  0  0  0  0  0  0  0  0
   58.2410   30.0320   45.0260 N   0  0  0  0  0  0  0  0  0  0  0  0
   58.8650   28.8780   44.8230 N   0  0  0  0  0  0  0  0  0  0  0  0
   60.0620   28.8980   45.4510 C   0  0  0  0  0  0  0  0  0  0  0  0
   60.1830   30.1220   46.0760 C   0  0  0  0  0  0  0  0  0  0  0  0
   61.1980   30.6620   46.8590 C   0  0  0  0  0  0  0  0  0  0  0  0
   61.0170   31.9680   47.3750 C   0  0  0  0  0  0  0  0  0  0  0  0
   62.0670   32.5940   48.2170 C   0  0  0  0  0  0  0  0  0  0  0  0
   63.3900   32.1190   48.1830 C   0  0  0  0  0  0  0  0  0  0  0  0
   64.3640   32.7240   48.9830 C   0  0  0  0  0  0  0  0  0  0  0  0
   64.0330   33.7650   49.7900 N   0  0  0  0  0  0  0  0  0  0  0  0
   62.7640   34.2480   49.8460 C   0  0  0  0  0  0  0  0  0  0  0  0
   61.7600   33.6730   49.0640 C   0  0  0  0  0  0  0  0  0  0  0  0
   59.8170   32.6740   47.0800 C   0  0  0  0  0  0  0  0  0  0  0  0
   58.8120   32.0930   46.2840 C   0  0  0  0  0  0  0  0  0  0  0  0
   59.0330   30.8080   45.7930 C   0  0  0  0  0  0  0  0  0  0  0  0
   57.7300   32.2658   42.9020 H   0  0  0  0  0  0  0  0  0  0  0  0
   58.2470   31.3440   41.4495 H   0  0  0  0  0  0  0  0  0  0  0  0
   56.6745   32.2123   41.4495 H   0  0  0  0  0  0  0  0  0  0  0  0
   55.6650   30.3644   42.2334 H   0  0  0  0  0  0  0  0  0  0  0  0
   57.2629   29.5144   42.2755 H   0  0  0  0  0  0  0  0  0  0  0  0
   58.4800   28.0820   44.2660 H   0  0  0  0  0  0  0  0  0  0  0  0
   60.8043   28.0863   45.4617 H   0  0  0  0  0  0  0  0  0  0  0  0
   62.1141   30.0913   47.0710 H   0  0  0  0  0  0  0  0  0  0  0  0
   63.6575   31.2752   47.5299 H   0  0  0  0  0  0  0  0  0  0  0  0
   65.4004   32.3561   48.9588 H   0  0  0  0  0  0  0  0  0  0  0  0
   62.5272   35.0935   50.5086 H   0  0  0  0  0  0  0  0  0  0  0  0
   60.7325   34.0631   49.1107 H   0  0  0  0  0  0  0  0  0  0  0  0
   59.6728   33.6885   47.4799 H   0  0  0  0  0  0  0  0  0  0  0  0
   57.8825   32.6357   46.0570 H   0  0  0  0  0  0  0  0  0  0  0  0
  1  2  1  0
  2  3  1  0
  3  4  2  0
  3  5  2  0
  3  6  1  0
  6  7  1  0
  7  8  2  0
  8  9  1  0
  9 10  2  0
 10 11  1  0
 11 12  1  0
 12 13  2  0
 13 14  1  0
 14 15  2  0
 15 16  1  0
 16 17  2  0
 11 18  2  0
 18 19  1  0
 19 20  2  0
 20  6  1  0
 20  9  1  0
 17 12  1  0
  1 21  1  0
  1 22  1  0
  1 23  1  0
  2 24  1  0
  2 25  1  0
  7 26  1  0
  8 27  1  0
 10 28  1  0
 13 29  1  0
 14 30  1  0
 16 31  1  0
 17 32  1  0
 18 33  1  0
 19 34  1  0
M  CHG  1   7   1
M  END
>  <UniqueID>  (33) 
31

>  <SMILES>  (33) 
CCS(=O)(=O)n1[nH+]cc2cc(-c3ccncc3)ccc21

>  <Energy>  (33) 
76.38859458779847

>  <Genealogy>  (33) 
CCS(=O)(=O)n1[nH+]cc2cc(-c3ccncc3)ccc21 (protonated)
CCS(=O)(=O)n1[nH+]cc2cc(-c3ccncc3)ccc21 (3D coordinates assigned)
CCS(=O)(=O)n1[nH+]cc2cc(-c3ccncc3)ccc21 (optimized conformer: 76.38859458779847 kcal/mol)

>  <smiles>  (33) 
CCS(=O)(=O)n1ncc2cc(-c3ccncc3)ccc21

>  <score_type>  (33) 
oracle

>  <origin>  (33) 
adg

>  <m_score__min__energy>  (33) 
-6.2199999999999998

>  <m_primary>  (33) 
energy

$$$$
33:0
     RDKit          3D

 31 32  0  0  1  0  0  0  0  0999 V2000
   60.4080   27.4870   48.7880 C   0  0  0  0  0  0  0  0  0  0  0  0
   59.9880   26.7620   47.6570 O   0  0  0  0  0  0  0  0  0  0  0  0
   58.9650   27.1330   46.8060 C   0  0  0  0  0  0  0  0  0  0  0  0
   59.1710   28.1320   45.8800 C   0  0  0  0  0  0  0  0  0  0  0  0
   58.1820   28.5360   45.0130 C   0  0  0  0  0  0  0  0  0  0  0  0
   58.3830   29.4860   44.1330 N   0  0  0  0  0  0  0  0  0  0  0  0
   57.2020   30.7470   43.9980 S   0  0  0  0  0  0  0  0  0  0  0  0
   57.0170   31.1730   42.5750 O   0  0  0  0  0  0  0  0  0  0  0  0
   55.9010   30.3410   44.6290 O   0  0  0  0  0  0  0  0  0  0  0  0
   57.7990   32.1210   44.9070 C   0  0  0  0  0  0  0  0  0  0  0  0
   57.9660   33.3710   44.3450 C   0  0  0  0  0  0  0  0  0  0  0  0
   58.4380   34.4220   45.1000 C   0  0  0  0  0  0  0  0  0  0  0  0
   58.7600   34.2600   46.4490 C   0  0  0  0  0  0  0  0  0  0  0  0
   59.2450   35.3180   47.2430 N   0  0  0  0  0  0  0  0  0  0  0  0
   58.5970   33.0250   47.0090 C   0  0  0  0  0  0  0  0  0  0  0  0
   58.1260   31.9780   46.2600 C   0  0  0  0  0  0  0  0  0  0  0  0
   56.9920   27.9140   45.1020 N   0  0  0  0  0  0  0  0  0  0  0  0
   56.7620   26.9220   46.0110 C   0  0  0  0  0  0  0  0  0  0  0  0
   57.7450   26.5320   46.8630 N   0  0  0  0  0  0  0  0  0  0  0  0
   60.0997   26.9548   49.7000 H   0  0  0  0  0  0  0  0  0  0  0  0
   61.5034   27.5862   48.7740 H   0  0  0  0  0  0  0  0  0  0  0  0
   59.9491   28.4866   48.7740 H   0  0  0  0  0  0  0  0  0  0  0  0
   60.1551   28.6211   45.8324 H   0  0  0  0  0  0  0  0  0  0  0  0
   57.7199   33.5290   43.2846 H   0  0  0  0  0  0  0  0  0  0  0  0
   58.5638   35.4089   44.6307 H   0  0  0  0  0  0  0  0  0  0  0  0
   58.6240   36.1130   47.5130 H   0  0  0  0  0  0  0  0  0  0  0  0
   60.2450   35.3160   47.5740 H   0  0  0  0  0  0  0  0  0  0  0  0
   58.8456   32.8693   48.0692 H   0  0  0  0  0  0  0  0  0  0  0  0
   58.0012   30.9949   46.7374 H   0  0  0  0  0  0  0  0  0  0  0  0
   56.2320   28.1950   44.4650 H   0  0  0  0  0  0  0  0  0  0  0  0
   55.7760   26.4363   46.0536 H   0  0  0  0  0  0  0  0  0  0  0  0
  1  2  1  0
  2  3  1  0
  3  4  2  0
  4  5  1  0
  5  6  2  0
  6  7  1  0
  7  8  2  0
  7  9  2  0
  7 10  1  0
 10 11  2  0
 11 12  1  0
 12 13  2  0
 13 14  1  0
 13 15  1  0
 15 16  2  0
  5 17  1  0
 17 18  1  0
 18 19  2  0
 19  3  1  0
 16 10  1  0
  1 20  1  0
  1 21  1  0
  1 22  1  0
  4 23  1  0
 11 24  1  0
 12 25  1  0
 14 26  1  0
 14 27  1  0
 15 28  1  0
 16 29  1  0
 17 30  1  0
 18 31  1  0
M  END
>  <smiles>  (34) 
COc1cc(=NS(=O)(=O)c2ccc(N)cc2)[nH]cn1

>  <score_type>  (34) 
oracle

>  <origin>  (34) 
adg

>  <m_score__min__energy>  (34) 
-6.9000000000000004

>  <m_primary>  (34) 
energy

$$$$
34:0
     RDKit          3D

 45 48  0  0  0  0  0  0  0  0999 V2000
   55.3850   20.9320   45.6260 C   0  0  0  0  0  0  0  0  0  0  0  0
   54.2820   21.3060   46.6040 C   0  0  0  0  0  0  0  0  0  0  0  0
   53.2020   21.9790   45.8910 N   0  0  0  0  0  0  0  0  0  0  0  0
   53.2830   23.3190   45.3950 C   0  0  0  0  0  0  0  0  0  0  0  0
   52.5720   23.6520   44.4120 O   0  0  0  0  0  0  0  0  0  0  0  0
   54.1180   24.3030   46.0170 N   0  0  0  0  0  0  0  0  0  0  0  0
   55.3370   24.8130   45.4610 C   0  0  0  0  0  0  0  0  0  0  0  0
   56.0320   24.0380   44.5250 C   0  0  0  0  0  0  0  0  0  0  0  0
   57.2390   24.4950   43.9910 C   0  0  0  0  0  0  0  0  0  0  0  0
   57.7630   25.7260   44.3920 C   0  0  0  0  0  0  0  0  0  0  0  0
   57.0800   26.5150   45.3300 C   0  0  0  0  0  0  0  0  0  0  0  0
   57.6580   27.8040   45.7740 C   0  0  0  0  0  0  0  0  0  0  0  0
   58.4440   27.9960   46.8980 C   0  0  0  0  0  0  0  0  0  0  0  0
   58.7810   29.3020   47.0060 N   0  0  0  0  0  0  0  0  0  0  0  0
   58.1920   29.8770   45.9350 C   0  0  0  0  0  0  0  0  0  0  0  0
   58.2810   31.2310   45.5770 C   0  0  0  0  0  0  0  0  0  0  0  0
   59.0140   32.2170   46.4040 C   0  0  0  0  0  0  0  0  0  0  0  0
   60.3370   31.9520   46.7980 C   0  0  0  0  0  0  0  0  0  0  0  0
   61.0400   32.8740   47.5790 C   0  0  0  0  0  0  0  0  0  0  0  0
   60.4330   34.0700   47.9680 C   0  0  0  0  0  0  0  0  0  0  0  0
   61.1170   34.9630   48.7250 F   0  0  0  0  0  0  0  0  0  0  0  0
   59.1210   34.3490   47.5720 C   0  0  0  0  0  0  0  0  0  0  0  0
   58.4120   33.4300   46.7910 C   0  0  0  0  0  0  0  0  0  0  0  0
   57.1560   33.7440   46.3840 F   0  0  0  0  0  0  0  0  0  0  0  0
   57.6630   31.6190   44.3710 C   0  0  0  0  0  0  0  0  0  0  0  0
   56.9870   30.6760   43.5780 C   0  0  0  0  0  0  0  0  0  0  0  0
   56.9260   29.3400   43.9920 C   0  0  0  0  0  0  0  0  0  0  0  0
   57.5180   28.9990   45.1680 N   0  0  0  0  0  0  0  0  0  0  0  0
   55.8780   26.0420   45.8800 C   0  0  0  0  0  0  0  0  0  0  0  0
   56.2825   20.6277   46.1844 H   0  0  0  0  0  0  0  0  0  0  0  0
   55.0467   20.0983   44.9931 H   0  0  0  0  0  0  0  0  0  0  0  0
   55.6235   21.7995   44.9931 H   0  0  0  0  0  0  0  0  0  0  0  0
   53.8928   20.3951   47.0824 H   0  0  0  0  0  0  0  0  0  0  0  0
   54.6885   21.9808   47.3718 H   0  0  0  0  0  0  0  0  0  0  0  0
   55.6261   23.0657   44.2090 H   0  0  0  0  0  0  0  0  0  0  0  0
   57.7784   23.8837   43.2525 H   0  0  0  0  0  0  0  0  0  0  0  0
   58.7158   26.0787   43.9704 H   0  0  0  0  0  0  0  0  0  0  0  0
   58.7489   27.2047   47.5986 H   0  0  0  0  0  0  0  0  0  0  0  0
   60.8219   31.0139   46.4901 H   0  0  0  0  0  0  0  0  0  0  0  0
   62.0733   32.6570   47.8877 H   0  0  0  0  0  0  0  0  0  0  0  0
   58.6454   35.2933   47.8754 H   0  0  0  0  0  0  0  0  0  0  0  0
   57.7103   32.6693   44.0476 H   0  0  0  0  0  0  0  0  0  0  0  0
   56.5085   30.9859   42.6373 H   0  0  0  0  0  0  0  0  0  0  0  0
   56.4115   28.5840   43.3806 H   0  0  0  0  0  0  0  0  0  0  0  0
   55.3556   26.6366   46.6439 H   0  0  0  0  0  0  0  0  0  0  0  0
  1  2  1  0
  2  3  1  0
  3  4  1  0
  4  5  2  0
  4  6  1  0
  6  7  1  0
  7  8  2  0
  8  9  1  0
  9 10  2  0
 10 11  1  0
 11 12  1  0
 12 13  2  0
 13 14  1  0
 14 15  2  0
 15 16  1  0
 16 17  1  0
 17 18  2  0
 18 19  1  0
 19 20  2  0
 20 21  1  0
 20 22  1  0
 22 23  2  0
 23 24  1  0
 16 25  2  0
 25 26  1  0
 26 27  2  0
 27 28  1  0
 11 29  2  0
 29  7  1  0
 28 12  1  0
 28 15  1  0
 23 17  1  0
  1 30  1  0
  1 31  1  0
  1 32  1  0
  2 33  1  0
  2 34  1  0
  8 35  1  0
  9 36  1  0
 10 37  1  0
 13 38  1  0
 18 39  1  0
 19 40  1  0
 22 41  1  0
 25 42  1  0
 26 43  1  0
 27 44  1  0
 29 45  1  0
M  CHG  2   3  -1   6  -1
M  END
>  <UniqueID>  (35) 
32

>  <SMILES>  (35) 
CC[N-]C(=O)[N-]c1cccc(-c2cnc3c(-c4ccc(F)cc4F)cccn23)c1

>  <Energy>  (35) 
96.81808527359091

>  <Genealogy>  (35) 
CC[N-]C(=O)[N-]c1cccc(-c2cnc3c(-c4ccc(F)cc4F)cccn23)c1 (protonated)
CC[N-]C(=O)[N-]c1cccc(-c2cnc3c(-c4ccc(F)cc4F)cccn23)c1 (3D coordinates assigned)
CC[N-]C(=O)[N-]c1cccc(-c2cnc3c(-c4ccc(F)cc4F)cccn23)c1 (optimized conformer: 96.81808527359091 kcal/mol)

>  <smiles>  (35) 
CCNC(=O)Nc1cccc(-c2cnc3c(-c4ccc(F)cc4F)cccn23)c1

>  <score_type>  (35) 
oracle

>  <origin>  (35) 
adg

>  <m_score__min__energy>  (35) 
-12.390000000000001

>  <m_primary>  (35) 
energy

$$$$
35:0
     RDKit          3D

 38 40  0  0  0  0  0  0  0  0999 V2000
   57.0020   23.1060   47.1930 C   0  0  0  0  0  0  0  0  0  0  0  0
   57.3860   24.3560   47.7550 O   0  0  0  0  0  0  0  0  0  0  0  0
   57.4190   25.5690   47.0500 C   0  0  0  0  0  0  0  0  0  0  0  0
   58.5590   26.3930   47.0330 C   0  0  0  0  0  0  0  0  0  0  0  0
   58.5550   27.5940   46.3230 C   0  0  0  0  0  0  0  0  0  0  0  0
   57.4110   28.0040   45.6170 C   0  0  0  0  0  0  0  0  0  0  0  0
   57.3900   29.2740   44.8460 C   0  0  0  0  0  0  0  0  0  0  0  0
   56.9420   29.3320   43.5160 C   0  0  0  0  0  0  0  0  0  0  0  0
   56.9620   30.5190   42.8550 N   0  0  0  0  0  0  0  0  0  0  0  0
   57.3980   31.6580   43.4510 C   0  0  0  0  0  0  0  0  0  0  0  0
   57.8490   31.6150   44.7810 C   0  0  0  0  0  0  0  0  0  0  0  0
   58.3560   32.8210   45.4830 C   0  0  0  0  0  0  0  0  0  0  0  0
   58.4200   32.8820   46.8900 C   0  0  0  0  0  0  0  0  0  0  0  0
   58.9090   34.0260   47.5290 C   0  0  0  0  0  0  0  0  0  0  0  0
   59.3430   35.1190   46.7760 C   0  0  0  0  0  0  0  0  0  0  0  0
   59.2950   35.0690   45.3820 C   0  0  0  0  0  0  0  0  0  0  0  0
   58.8080   33.9270   44.7370 C   0  0  0  0  0  0  0  0  0  0  0  0
   57.8360   30.4190   45.4290 N   0  0  0  0  0  0  0  0  0  0  0  0
   56.2760   27.1730   45.6250 C   0  0  0  0  0  0  0  0  0  0  0  0
   56.2740   25.9590   46.3400 C   0  0  0  0  0  0  0  0  0  0  0  0
   55.1530   25.1150   46.3720 O   0  0  0  0  0  0  0  0  0  0  0  0
   54.6320   24.4200   45.2420 C   0  0  0  0  0  0  0  0  0  0  0  0
   56.7828   22.3925   48.0010 H   0  0  0  0  0  0  0  0  0  0  0  0
   56.1047   23.2434   46.5718 H   0  0  0  0  0  0  0  0  0  0  0  0
   57.8217   22.7160   46.5718 H   0  0  0  0  0  0  0  0  0  0  0  0
   59.4609   26.0880   47.5840 H   0  0  0  0  0  0  0  0  0  0  0  0
   59.4554   28.2258   46.3157 H   0  0  0  0  0  0  0  0  0  0  0  0
   56.5779   28.4237   43.0136 H   0  0  0  0  0  0  0  0  0  0  0  0
   57.3982   32.6081   42.8966 H   0  0  0  0  0  0  0  0  0  0  0  0
   58.0829   32.0236   47.4896 H   0  0  0  0  0  0  0  0  0  0  0  0
   58.9518   34.0649   48.6275 H   0  0  0  0  0  0  0  0  0  0  0  0
   59.7226   36.0192   47.2814 H   0  0  0  0  0  0  0  0  0  0  0  0
   59.6406   35.9289   44.7895 H   0  0  0  0  0  0  0  0  0  0  0  0
   58.7778   33.8925   43.6380 H   0  0  0  0  0  0  0  0  0  0  0  0
   55.3782   27.4750   45.0657 H   0  0  0  0  0  0  0  0  0  0  0  0
   54.0048   23.5833   45.5833 H   0  0  0  0  0  0  0  0  0  0  0  0
   54.0259   25.1089   44.6353 H   0  0  0  0  0  0  0  0  0  0  0  0
   55.4632   24.0314   44.6353 H   0  0  0  0  0  0  0  0  0  0  0  0
  1  2  1  0
  2  3  1  0
  3  4  2  0
  4  5  1  0
  5  6  2  0
  6  7  1  0
  7  8  2  0
  8  9  1  0
  9 10  2  0
 10 11  1  0
 11 12  1  0
 12 13  2  0
 13 14  1  0
 14 15  2  0
 15 16  1  0
 16 17  2  0
 11 18  2  0
  6 19  1  0
 19 20  2  0
 20 21  1  0
 21 22  1  0
 20  3  1  0
 18  7  1  0
 17 12  1  0
  1 23  1  0
  1 24  1  0
  1 25  1  0
  4 26  1  0
  5 27  1  0
  8 28  1  0
 10 29  1  0
 13 30  1  0
 14 31  1  0
 15 32  1  0
 16 33  1  0
 17 34  1  0
 19 35  1  0
 22 36  1  0
 22 37  1  0
 22 38  1  0
M  END
>  <UniqueID>  (36) 
33

>  <SMILES>  (36) 
COc1ccc(-c2cncc(-c3ccccc3)n2)cc1OC

>  <Energy>  (36) 
49.03915993731426

>  <Genealogy>  (36) 
COc1ccc(-c2cncc(-c3ccccc3)n2)cc1OC (3D coordinates assigned)
COc1ccc(-c2cncc(-c3ccccc3)n2)cc1OC (optimized conformer: 49.03915993731426 kcal/mol)

>  <smiles>  (36) 
COc1ccc(-c2cncc(-c3ccccc3)n2)cc1OC

>  <score_type>  (36) 
oracle

>  <origin>  (36) 
adg

>  <m_score__min__energy>  (36) 
-7.2699999999999996

>  <m_primary>  (36) 
energy

$$$$
36:0
     RDKit          3D

 32 34  0  0  0  0  0  0  0  0999 V2000
   56.9640   33.0580   46.3230 O   0  0  0  0  0  0  0  0  0  0  0  0
   58.2510   32.7430   45.8380 C   0  0  1  0  0  0  0  0  0  0  0  0
   59.3300   33.2600   46.7990 C   0  0  0  0  0  0  0  0  0  0  0  0
   58.9740   33.9640   47.9680 C   0  0  0  0  0  0  0  0  0  0  0  0
   59.9560   34.4740   48.8210 C   0  0  0  0  0  0  0  0  0  0  0  0
   61.3070   34.3100   48.5150 C   0  0  0  0  0  0  0  0  0  0  0  0
   62.2510   34.8120   49.3500 F   0  0  0  0  0  0  0  0  0  0  0  0
   61.6810   33.6440   47.3430 C   0  0  0  0  0  0  0  0  0  0  0  0
   63.3790   33.4550   46.9350 Cl  0  0  0  0  0  0  0  0  0  0  0  0
   60.7010   33.1330   46.4860 C   0  0  0  0  0  0  0  0  0  0  0  0
   58.3400   31.2250   45.7050 C   0  0  0  0  0  0  0  0  0  0  0  0
   57.2360   30.4590   45.4810 N   0  0  0  0  0  0  0  0  0  0  0  0
   57.7250   29.2070   45.4880 C   0  0  0  0  0  0  0  0  0  0  0  0
   57.0230   28.0180   45.3080 C   0  0  0  0  0  0  0  0  0  0  0  0
   57.7510   26.8120   45.3690 C   0  0  0  0  0  0  0  0  0  0  0  0
   56.9140   25.2860   45.1490 Cl  0  0  0  0  0  0  0  0  0  0  0  0
   59.1480   26.8320   45.6070 C   0  0  0  0  0  0  0  0  0  0  0  0
   59.8470   25.6720   45.6670 F   0  0  0  0  0  0  0  0  0  0  0  0
   59.8210   28.0570   45.7860 C   0  0  0  0  0  0  0  0  0  0  0  0
   59.0650   29.2240   45.7160 C   0  0  0  0  0  0  0  0  0  0  0  0
   59.4760   30.4900   45.8600 N   0  0  0  0  0  0  0  0  0  0  0  0
   58.4100   33.4670   44.4790 C   0  0  0  0  0  0  0  0  0  0  0  0
   58.5470   32.5430   43.4580 F   0  0  0  0  0  0  0  0  0  0  0  0
   57.2850   34.2320   44.2210 F   0  0  0  0  0  0  0  0  0  0  0  0
   59.5120   34.3060   44.4860 F   0  0  0  0  0  0  0  0  0  0  0  0
   56.3280   32.3680   45.9970 H   0  0  0  0  0  0  0  0  0  0  0  0
   57.9116   34.1132   48.2109 H   0  0  0  0  0  0  0  0  0  0  0  0
   59.6626   35.0069   49.7375 H   0  0  0  0  0  0  0  0  0  0  0  0
   61.0018   32.6262   45.5572 H   0  0  0  0  0  0  0  0  0  0  0  0
   55.9384   28.0195   45.1246 H   0  0  0  0  0  0  0  0  0  0  0  0
   60.9043   28.0900   45.9742 H   0  0  0  0  0  0  0  0  0  0  0  0
   60.4490   30.8090   46.0570 H   0  0  0  0  0  0  0  0  0  0  0  0
  2  1  1  1
  2  3  1  0
  3  4  2  0
  4  5  1  0
  5  6  2  0
  6  7  1  0
  6  8  1  0
  8  9  1  0
  8 10  2  0
  2 11  1  0
 11 12  2  0
 12 13  1  0
 13 14  2  0
 14 15  1  0
 15 16  1  0
 15 17  2  0
 17 18  1  0
 17 19  1  0
 19 20  2  0
 20 21  1  0
  2 22  1  0
 22 23  1  0
 22 24  1  0
 22 25  1  0
 10  3  1  0
 21 11  1  0
 20 13  1  0
  1 26  1  0
  4 27  1  0
  5 28  1  0
 10 29  1  0
 14 30  1  0
 19 31  1  0
 21 32  1  0
M  END
>  <UniqueID>  (37) 
34

>  <SMILES>  (37) 
O[C@@](c1ccc(F)c(Cl)c1)(c1nc2cc(Cl)c(F)cc2[nH]1)C(F)(F)F

>  <Energy>  (37) 
76.92243638818908

>  <Genealogy>  (37) 
O[C@@](c1ccc(F)c(Cl)c1)(c1nc2cc(Cl)c(F)cc2[nH]1)C(F)(F)F (chirality)
O[C@@](c1ccc(F)c(Cl)c1)(c1nc2cc(Cl)c(F)cc2[nH]1)C(F)(F)F (3D coordinates assigned)
O[C@@](c1ccc(F)c(Cl)c1)(c1nc2cc(Cl)c(F)cc2[nH]1)C(F)(F)F (optimized conformer: 76.92243638818908 kcal/mol)

>  <smiles>  (37) 
OC(c1ccc(F)c(Cl)c1)(c1nc2cc(Cl)c(F)cc2[nH]1)C(F)(F)F

>  <score_type>  (37) 
oracle

>  <origin>  (37) 
adg

>  <m_score__min__energy>  (37) 
-6.6100000000000003

>  <m_primary>  (37) 
energy

$$$$
37:0
     RDKit          3D

 40 42  0  0  0  0  0  0  0  0999 V2000
   56.2800   24.9200   45.0270 C   0  0  0  0  0  0  0  0  0  0  0  0
   57.4800   25.6460   45.5800 C   0  0  0  0  0  0  0  0  0  0  0  0
   58.6690   24.9310   45.8430 C   0  0  0  0  0  0  0  0  0  0  0  0
   58.7970   23.2010   45.5260 Cl  0  0  0  0  0  0  0  0  0  0  0  0
   59.7880   25.5900   46.3620 C   0  0  0  0  0  0  0  0  0  0  0  0
   59.7410   26.9600   46.6150 C   0  0  0  0  0  0  0  0  0  0  0  0
   58.5740   27.6790   46.3610 C   0  0  0  0  0  0  0  0  0  0  0  0
   57.4300   27.0300   45.8690 C   0  0  0  0  0  0  0  0  0  0  0  0
   56.2450   27.7880   45.5870 N   0  0  0  0  0  0  0  0  0  0  0  0
   56.1880   29.0070   44.8320 C   0  0  0  0  0  0  0  0  0  0  0  0
   55.1540   29.7210   44.9140 O   0  0  0  0  0  0  0  0  0  0  0  0
   57.3590   29.5070   44.0250 C   0  0  0  0  0  0  0  0  0  0  0  0
   57.1450   30.9440   43.5290 C   0  0  0  0  0  0  0  0  0  0  0  0
   57.7160   31.9580   44.4860 C   0  0  0  0  0  0  0  0  0  0  0  0
   57.7760   33.3160   44.1240 C   0  0  0  0  0  0  0  0  0  0  0  0
   58.2720   34.2650   45.0230 C   0  0  0  0  0  0  0  0  0  0  0  0
   58.7070   33.8640   46.2890 C   0  0  0  0  0  0  0  0  0  0  0  0
   58.6240   32.5180   46.6670 C   0  0  0  0  0  0  0  0  0  0  0  0
   58.1420   31.5650   45.7670 C   0  0  0  0  0  0  0  0  0  0  0  0
   59.0270   32.1490   47.9550 O   0  0  0  0  0  0  0  0  0  0  0  0
   59.2410   33.1310   48.9720 C   0  0  0  0  0  0  0  0  0  0  0  0
   59.9120   34.3790   48.3780 C   0  0  0  0  0  0  0  0  0  0  0  0
   59.2230   34.7970   47.1950 O   0  0  0  0  0  0  0  0  0  0  0  0
   55.6627   24.5465   45.8573 H   0  0  0  0  0  0  0  0  0  0  0  0
   55.6860   25.6103   44.4101 H   0  0  0  0  0  0  0  0  0  0  0  0
   56.6158   24.0734   44.4101 H   0  0  0  0  0  0  0  0  0  0  0  0
   60.7085   25.0253   46.5713 H   0  0  0  0  0  0  0  0  0  0  0  0
   60.6266   27.4748   47.0159 H   0  0  0  0  0  0  0  0  0  0  0  0
   58.5491   28.7628   46.5474 H   0  0  0  0  0  0  0  0  0  0  0  0
   58.2612   29.4791   44.6537 H   0  0  0  0  0  0  0  0  0  0  0  0
   57.4669   28.8565   43.1445 H   0  0  0  0  0  0  0  0  0  0  0  0
   57.6369   31.0602   42.5520 H   0  0  0  0  0  0  0  0  0  0  0  0
   56.0621   31.1205   43.4504 H   0  0  0  0  0  0  0  0  0  0  0  0
   57.4310   33.6329   43.1287 H   0  0  0  0  0  0  0  0  0  0  0  0
   58.3197   35.3254   44.7343 H   0  0  0  0  0  0  0  0  0  0  0  0
   58.0956   30.5059   46.0606 H   0  0  0  0  0  0  0  0  0  0  0  0
   58.2734   33.4143   49.4118 H   0  0  0  0  0  0  0  0  0  0  0  0
   59.8978   32.7065   49.7456 H   0  0  0  0  0  0  0  0  0  0  0  0
   59.8873   35.1918   49.1188 H   0  0  0  0  0  0  0  0  0  0  0  0
   60.9534   34.1369   48.1193 H   0  0  0  0  0  0  0  0  0  0  0  0
  1  2  1  0
  2  3  2  0
  3  4  1  0
  3  5  1  0
  5  6  2  0
  6  7  1  0
  7  8  2  0
  8  9  1  0
  9 10  1  0
 10 11  2  0
 10 12  1  0
 12 13  1  0
 13 14  1  0
 14 15  2  0
 15 16  1  0
 16 17  2  0
 17 18  1  0
 18 19  2  0
 18 20  1  0
 20 21  1  0
 21 22  1  0
 22 23  1  0
  8  2  1  0
 19 14  1  0
 23 17  1  0
  1 24  1  0
  1 25  1  0
  1 26  1  0
  5 27  1  0
  6 28  1  0
  7 29  1  0
 12 30  1  0
 12 31  1  0
 13 32  1  0
 13 33  1  0
 15 34  1  0
 16 35  1  0
 19 36  1  0
 21 37  1  0
 21 38  1  0
 22 39  1  0
 22 40  1  0
M  CHG  1   9  -1
M  END
>  <UniqueID>  (38) 
35

>  <SMILES>  (38) 
Cc1c(Cl)cccc1[N-]C(=O)CCc1ccc2c(c1)OCCO2

>  <Energy>  (38) 
45.78347337046397

>  <Genealogy>  (38) 
Cc1c(Cl)cccc1[N-]C(=O)CCc1ccc2c(c1)OCCO2 (protonated)
Cc1c(Cl)cccc1[N-]C(=O)CCc1ccc2c(c1)OCCO2 (3D coordinates assigned)
Cc1c(Cl)cccc1[N-]C(=O)CCc1ccc2c(c1)OCCO2 (nonaromatic ring conformer: 45.78347337046397 kcal/mol)

>  <smiles>  (38) 
Cc1c(Cl)cccc1NC(=O)CCc1ccc2c(c1)OCCO2

>  <score_type>  (38) 
oracle

>  <origin>  (38) 
adg

>  <m_score__min__energy>  (38) 
-9.9299999999999997

>  <m_primary>  (38) 
energy

$$$$
38:0
     RDKit          3D

 42 44  0  0  0  0  0  0  0  0999 V2000
   59.6300   33.3830   50.5760 C   0  0  0  0  0  0  0  0  0  0  0  0
   59.4220   33.4340   49.0880 C   0  0  0  0  0  0  0  0  0  0  0  0
   59.2620   34.6280   48.4560 N   0  0  0  0  0  0  0  0  0  0  0  0
   59.0800   34.6870   47.1380 N   0  0  0  0  0  0  0  0  0  0  0  0
   59.0490   33.5640   46.3740 C   0  0  0  0  0  0  0  0  0  0  0  0
   58.8350   33.7110   44.8930 C   0  0  0  0  0  0  0  0  0  0  0  0
   59.2200   32.3390   46.9650 N   0  0  0  0  0  0  0  0  0  0  0  0
   59.2090   31.1320   46.1790 C   0  0  0  0  0  0  0  0  0  0  0  0
   60.3920   30.4040   45.9920 C   0  0  0  0  0  0  0  0  0  0  0  0
   60.3790   29.2260   45.2410 C   0  0  0  0  0  0  0  0  0  0  0  0
   59.1860   28.7700   44.6720 C   0  0  0  0  0  0  0  0  0  0  0  0
   57.9980   29.4990   44.8400 C   0  0  0  0  0  0  0  0  0  0  0  0
   56.7110   28.9860   44.2510 C   0  0  0  0  0  0  0  0  0  0  0  0
   55.9100   28.3400   45.2830 N   0  0  0  0  0  0  0  0  0  0  0  0
   56.2500   27.0840   45.8840 C   0  0  0  0  0  0  0  0  0  0  0  0
   55.3760   26.1830   45.9990 O   0  0  0  0  0  0  0  0  0  0  0  0
   57.6200   26.8320   46.3640 C   0  0  0  0  0  0  0  0  0  0  0  0
   58.4370   25.8560   45.7690 C   0  0  0  0  0  0  0  0  0  0  0  0
   59.7280   25.6500   46.2570 C   0  0  0  0  0  0  0  0  0  0  0  0
   60.1960   26.4130   47.3280 C   0  0  0  0  0  0  0  0  0  0  0  0
   59.3620   27.3770   47.8960 C   0  0  0  0  0  0  0  0  0  0  0  0
   58.1070   27.5630   47.4080 N   0  0  0  0  0  0  0  0  0  0  0  0
   58.0150   30.6810   45.5980 C   0  0  0  0  0  0  0  0  0  0  0  0
   59.4030   32.2610   48.3200 C   0  0  0  0  0  0  0  0  0  0  0  0
   59.5610   31.1400   48.8810 O   0  0  0  0  0  0  0  0  0  0  0  0
   58.6837   33.6150   51.0867 H   0  0  0  0  0  0  0  0  0  0  0  0
   59.9653   32.3760   50.8651 H   0  0  0  0  0  0  0  0  0  0  0  0
   60.3931   34.1206   50.8651 H   0  0  0  0  0  0  0  0  0  0  0  0
   59.2780   35.5200   48.9980 H   0  0  0  0  0  0  0  0  0  0  0  0
   57.9408   34.3252   44.7109 H   0  0  0  0  0  0  0  0  0  0  0  0
   59.7123   34.1980   44.4423 H   0  0  0  0  0  0  0  0  0  0  0  0
   58.6953   32.7173   44.4423 H   0  0  0  0  0  0  0  0  0  0  0  0
   61.3324   30.7608   46.4374 H   0  0  0  0  0  0  0  0  0  0  0  0
   61.3089   28.6563   45.0971 H   0  0  0  0  0  0  0  0  0  0  0  0
   59.1782   27.8364   44.0904 H   0  0  0  0  0  0  0  0  0  0  0  0
   56.1451   29.8275   43.8248 H   0  0  0  0  0  0  0  0  0  0  0  0
   56.9423   28.2534   43.4637 H   0  0  0  0  0  0  0  0  0  0  0  0
   58.0618   25.2588   44.9249 H   0  0  0  0  0  0  0  0  0  0  0  0
   60.3754   24.8880   45.7986 H   0  0  0  0  0  0  0  0  0  0  0  0
   61.2116   26.2561   47.7202 H   0  0  0  0  0  0  0  0  0  0  0  0
   59.7202   27.9864   48.7388 H   0  0  0  0  0  0  0  0  0  0  0  0
   57.0874   31.2558   45.7367 H   0  0  0  0  0  0  0  0  0  0  0  0
  1  2  1  0
  2  3  2  0
  3  4  1  0
  4  5  2  0
  5  6  1  0
  5  7  1  0
  7  8  1  0
  8  9  2  0
  9 10  1  0
 10 11  2  0
 11 12  1  0
 12 13  1  0
 13 14  1  0
 14 15  1  0
 15 16  2  0
 15 17  1  0
 17 18  2  0
 18 19  1  0
 19 20  2  0
 20 21  1  0
 21 22  2  0
 12 23  2  0
  7 24  1  0
 24 25  2  0
 24  2  1  0
 23  8  1  0
 22 17  1  0
  1 26  1  0
  1 27  1  0
  1 28  1  0
  3 29  1  0
  6 30  1  0
  6 31  1  0
  6 32  1  0
  9 33  1  0
 10 34  1  0
 11 35  1  0
 13 36  1  0
 13 37  1  0
 18 38  1  0
 19 39  1  0
 20 40  1  0
 21 41  1  0
 23 42  1  0
M  CHG  2   3   1  14  -1
M  END
>  <UniqueID>  (39) 
36

>  <SMILES>  (39) 
Cc1[nH+]nc(C)n(-c2cccc(C[N-]C(=O)c3ccccn3)c2)c1=O

>  <Energy>  (39) 
52.00877867873607

>  <Genealogy>  (39) 
Cc1[nH+]nc(C)n(-c2cccc(C[N-]C(=O)c3ccccn3)c2)c1=O (protonated)
Cc1[nH+]nc(C)n(-c2cccc(C[N-]C(=O)c3ccccn3)c2)c1=O (3D coordinates assigned)
Cc1[nH+]nc(C)n(-c2cccc(C[N-]C(=O)c3ccccn3)c2)c1=O (optimized conformer: 52.00877867873607 kcal/mol)

>  <smiles>  (39) 
Cc1nnc(C)n(-c2cccc(CNC(=O)c3ccccn3)c2)c1=O

>  <score_type>  (39) 
oracle

>  <origin>  (39) 
adg

>  <m_score__min__energy>  (39) 
-8.7699999999999996

>  <m_primary>  (39) 
energy

$$$$
39:0
     RDKit          3D

 39 40  0  0  0  0  0  0  0  0999 V2000
   61.6980   31.7840   47.4570 C   0  0  0  0  0  0  0  0  0  0  0  0
   60.5390   30.8890   47.1710 C   0  0  0  0  0  0  0  0  0  0  0  0
   59.5420   30.5100   48.0500 C   0  0  0  0  0  0  0  0  0  0  0  0
   58.7420   29.6090   47.4450 N   0  0  0  0  0  0  0  0  0  0  0  0
   59.2090   29.4170   46.2210 N   0  0  0  0  0  0  0  0  0  0  0  0
   58.6490   28.4510   45.2810 C   0  0  0  0  0  0  0  0  0  0  0  0
   57.5550   29.1080   44.4390 C   0  0  0  0  0  0  0  0  0  0  0  0
   56.8060   30.0830   45.2500 N   0  0  0  0  0  0  0  0  0  0  0  0
   56.3980   31.2670   44.4790 C   0  0  0  0  0  0  0  0  0  0  0  0
   57.4900   32.3010   44.4600 C   0  0  0  0  0  0  0  0  0  0  0  0
   58.2060   32.7670   43.3670 C   0  0  0  0  0  0  0  0  0  0  0  0
   58.0600   32.3240   41.9480 C   0  0  0  0  0  0  0  0  0  0  0  0
   59.0190   33.7710   43.7520 N   0  0  0  0  0  0  0  0  0  0  0  0
   58.8530   33.9450   45.0540 N   0  0  0  0  0  0  0  0  0  0  0  0
   59.5460   34.9740   45.8220 C   0  0  0  0  0  0  0  0  0  0  0  0
   57.9430   33.0650   45.5230 C   0  0  0  0  0  0  0  0  0  0  0  0
   57.4040   33.0480   46.9220 C   0  0  0  0  0  0  0  0  0  0  0  0
   60.3130   30.1620   46.0230 C   0  0  0  0  0  0  0  0  0  0  0  0
   61.8255   31.8824   48.5451 H   0  0  0  0  0  0  0  0  0  0  0  0
   62.6104   31.3538   47.0184 H   0  0  0  0  0  0  0  0  0  0  0  0
   61.5126   32.7756   47.0184 H   0  0  0  0  0  0  0  0  0  0  0  0
   59.4207   30.8833   49.0776 H   0  0  0  0  0  0  0  0  0  0  0  0
   59.4467   28.0842   44.6183 H   0  0  0  0  0  0  0  0  0  0  0  0
   58.2139   27.6123   45.8443 H   0  0  0  0  0  0  0  0  0  0  0  0
   58.0154   29.6242   43.5837 H   0  0  0  0  0  0  0  0  0  0  0  0
   56.8628   28.3318   44.0807 H   0  0  0  0  0  0  0  0  0  0  0  0
   57.4380   30.4190   46.0160 H   0  0  0  0  0  0  0  0  0  0  0  0
   56.1723   30.9633   43.4461 H   0  0  0  0  0  0  0  0  0  0  0  0
   55.5086   31.7056   44.9551 H   0  0  0  0  0  0  0  0  0  0  0  0
   57.7158   31.2795   41.9235 H   0  0  0  0  0  0  0  0  0  0  0  0
   57.3253   32.9642   41.4377 H   0  0  0  0  0  0  0  0  0  0  0  0
   59.0314   32.4020   41.4377 H   0  0  0  0  0  0  0  0  0  0  0  0
   59.4152   34.7798   46.8968 H   0  0  0  0  0  0  0  0  0  0  0  0
   60.6176   34.9573   45.5741 H   0  0  0  0  0  0  0  0  0  0  0  0
   59.1277   35.9607   45.5741 H   0  0  0  0  0  0  0  0  0  0  0  0
   58.2394   33.0743   47.6371 H   0  0  0  0  0  0  0  0  0  0  0  0
   56.7603   33.9263   47.0776 H   0  0  0  0  0  0  0  0  0  0  0  0
   56.8169   32.1309   47.0776 H   0  0  0  0  0  0  0  0  0  0  0  0
   60.9245   30.1858   45.1089 H   0  0  0  0  0  0  0  0  0  0  0  0
  1  2  1  0
  2  3  1  0
  3  4  2  0
  4  5  1  0
  5  6  1  0
  6  7  1  0
  7  8  1  0
  8  9  1  0
  9 10  1  0
 10 11  1  0
 11 12  1  0
 11 13  2  0
 13 14  1  0
 14 15  1  0
 14 16  1  0
 16 17  1  0
  5 18  1  0
 18  2  2  0
 16 10  2  0
  1 19  1  0
  1 20  1  0
  1 21  1  0
  3 22  1  0
  6 23  1  0
  6 24  1  0
  7 25  1  0
  7 26  1  0
  8 27  1  0
  9 28  1  0
  9 29  1  0
 12 30  1  0
 12 31  1  0
 12 32  1  0
 15 33  1  0
 15 34  1  0
 15 35  1  0
 17 36  1  0
 17 37  1  0
 17 38  1  0
 18 39  1  0
M  END
>  <UniqueID>  (40) 
37

>  <SMILES>  (40) 
Cc1cnn(CCNCc2c(C)nn(C)c2C)c1

>  <Energy>  (40) 
90.1532222569062

>  <Genealogy>  (40) 
Cc1cnn(CCNCc2c(C)nn(C)c2C)c1 (3D coordinates assigned)
Cc1cnn(CCNCc2c(C)nn(C)c2C)c1 (optimized conformer: 90.1532222569062 kcal/mol)

>  <smiles>  (40) 
Cc1cnn(CCNCc2c(C)nn(C)c2C)c1

>  <score_type>  (40) 
oracle

>  <origin>  (40) 
adg

>  <m_score__min__energy>  (40) 
-6.6799999999999997

>  <m_primary>  (40) 
energy

$$$$
40:0
     RDKit          3D

 32 33  0  0  0  0  0  0  0  0999 V2000
   54.0240   25.1000   45.6140 C   0  0  0  0  0  0  0  0  0  0  0  0
   54.7530   26.3070   45.9780 N   0  0  0  0  0  0  0  0  0  0  0  0
   56.1470   26.3470   46.3090 C   0  0  0  0  0  0  0  0  0  0  0  0
   56.5640   25.6440   47.2670 O   0  0  0  0  0  0  0  0  0  0  0  0
   57.1010   27.2060   45.5780 C   0  0  0  0  0  0  0  0  0  0  0  0
   57.1050   28.5910   45.8020 C   0  0  0  0  0  0  0  0  0  0  0  0
   57.9970   29.4300   45.1140 C   0  0  0  0  0  0  0  0  0  0  0  0
   58.0000   30.8950   45.3610 C   0  0  0  0  0  0  0  0  0  0  0  0
   57.5190   31.7870   44.3840 C   0  0  0  0  0  0  0  0  0  0  0  0
   57.5230   33.1660   44.6210 C   0  0  0  0  0  0  0  0  0  0  0  0
   58.0050   33.6680   45.8310 C   0  0  0  0  0  0  0  0  0  0  0  0
   58.4840   32.7930   46.8090 C   0  0  0  0  0  0  0  0  0  0  0  0
   58.4830   31.4140   46.5770 C   0  0  0  0  0  0  0  0  0  0  0  0
   58.8810   28.8640   44.1830 C   0  0  0  0  0  0  0  0  0  0  0  0
   58.8710   27.4890   43.9390 C   0  0  0  0  0  0  0  0  0  0  0  0
   57.9800   26.6470   44.6300 C   0  0  0  0  0  0  0  0  0  0  0  0
   57.9520   25.2590   44.4110 O   0  0  0  0  0  0  0  0  0  0  0  0
   57.0300   24.5950   43.5520 C   0  0  0  0  0  0  0  0  0  0  0  0
   53.7064   24.5742   46.5265 H   0  0  0  0  0  0  0  0  0  0  0  0
   53.1387   25.3714   45.0203 H   0  0  0  0  0  0  0  0  0  0  0  0
   54.6763   24.4427   45.0203 H   0  0  0  0  0  0  0  0  0  0  0  0
   56.4002   29.0256   46.5261 H   0  0  0  0  0  0  0  0  0  0  0  0
   57.1377   31.3976   43.4285 H   0  0  0  0  0  0  0  0  0  0  0  0
   57.1455   33.8561   43.8521 H   0  0  0  0  0  0  0  0  0  0  0  0
   58.0077   34.7526   46.0144 H   0  0  0  0  0  0  0  0  0  0  0  0
   58.8624   33.1893   47.7628 H   0  0  0  0  0  0  0  0  0  0  0  0
   58.8624   30.7299   47.3503 H   0  0  0  0  0  0  0  0  0  0  0  0
   59.5881   29.5089   43.6406 H   0  0  0  0  0  0  0  0  0  0  0  0
   59.5651   27.0607   43.2008 H   0  0  0  0  0  0  0  0  0  0  0  0
   56.2851   24.0586   44.1582 H   0  0  0  0  0  0  0  0  0  0  0  0
   56.5215   25.3356   42.9172 H   0  0  0  0  0  0  0  0  0  0  0  0
   57.5713   23.8780   42.9172 H   0  0  0  0  0  0  0  0  0  0  0  0
  1  2  1  0
  2  3  1  0
  3  4  2  0
  3  5  1  0
  5  6  2  0
  6  7  1  0
  7  8  1  0
  8  9  2  0
  9 10  1  0
 10 11  2  0
 11 12  1  0
 12 13  2  0
  7 14  2  0
 14 15  1  0
 15 16  2  0
 16 17  1  0
 17 18  1  0
 16  5  1  0
 13  8  1  0
  1 19  1  0
  1 20  1  0
  1 21  1  0
  6 22  1  0
  9 23  1  0
 10 24  1  0
 11 25  1  0
 12 26  1  0
 13 27  1  0
 14 28  1  0
 15 29  1  0
 18 30  1  0
 18 31  1  0
 18 32  1  0
M  CHG  1   2  -1
M  END
>  <UniqueID>  (41) 
38

>  <SMILES>  (41) 
C[N-]C(=O)c1cc(-c2ccccc2)ccc1OC

>  <Energy>  (41) 
41.30698763470674

>  <Genealogy>  (41) 
C[N-]C(=O)c1cc(-c2ccccc2)ccc1OC (protonated)
C[N-]C(=O)c1cc(-c2ccccc2)ccc1OC (3D coordinates assigned)
C[N-]C(=O)c1cc(-c2ccccc2)ccc1OC (optimized conformer: 41.30698763470674 kcal/mol)

>  <smiles>  (41) 
CNC(=O)c1cc(-c2ccccc2)ccc1OC

>  <score_type>  (41) 
oracle

>  <origin>  (41) 
adg

>  <m_score__min__energy>  (41) 
-8.6600000000000001

>  <m_primary>  (41) 
energy

$$$$
41:0
     RDKit          3D

 42 44  0  0  0  0  0  0  0  0999 V2000
   59.6250   35.3320   46.0260 C   0  0  0  0  0  0  0  0  0  0  0  0
   58.9170   34.6240   44.8720 C   0  0  0  0  0  0  0  0  0  0  0  0
   57.4720   34.2300   45.2130 C   0  0  0  0  0  0  0  0  0  0  0  0
   57.3830   33.3330   46.4600 C   0  0  0  0  0  0  0  0  0  0  0  0
   57.9520   31.9450   46.2380 C   0  0  0  0  0  0  0  0  0  0  0  0
   57.4390   31.1700   45.2440 N   0  0  0  0  0  0  0  0  0  0  0  0
   57.8870   29.9140   45.0140 C   0  0  0  0  0  0  0  0  0  0  0  0
   57.3390   29.1550   43.9720 C   0  0  0  0  0  0  0  0  0  0  0  0
   57.8020   27.8570   43.7330 C   0  0  0  0  0  0  0  0  0  0  0  0
   58.8110   27.3150   44.5340 C   0  0  0  0  0  0  0  0  0  0  0  0
   59.3610   28.0650   45.5770 C   0  0  0  0  0  0  0  0  0  0  0  0
   58.9020   29.3730   45.8240 C   0  0  0  0  0  0  0  0  0  0  0  0
   59.4140   30.1680   46.8610 C   0  0  0  0  0  0  0  0  0  0  0  0
   60.3180   29.7090   47.6180 O   0  0  0  0  0  0  0  0  0  0  0  0
   58.9340   31.4390   47.0570 N   0  0  0  0  0  0  0  0  0  0  0  0
   59.4600   32.2270   48.1420 C   0  0  0  0  0  0  0  0  0  0  0  0
   58.7260   32.3390   49.3310 C   0  0  0  0  0  0  0  0  0  0  0  0
   59.2170   33.0960   50.3970 C   0  0  0  0  0  0  0  0  0  0  0  0
   60.4490   33.7440   50.2830 C   0  0  0  0  0  0  0  0  0  0  0  0
   61.1900   33.6410   49.1030 C   0  0  0  0  0  0  0  0  0  0  0  0
   60.7030   32.8900   48.0210 C   0  0  0  0  0  0  0  0  0  0  0  0
   61.5120   32.7800   46.7580 C   0  0  0  0  0  0  0  0  0  0  0  0
   59.2410   34.9480   46.9826 H   0  0  0  0  0  0  0  0  0  0  0  0
   60.7070   35.1438   45.9631 H   0  0  0  0  0  0  0  0  0  0  0  0
   59.4368   36.4140   45.9631 H   0  0  0  0  0  0  0  0  0  0  0  0
   58.9019   35.2976   44.0025 H   0  0  0  0  0  0  0  0  0  0  0  0
   59.4720   33.6980   44.6608 H   0  0  0  0  0  0  0  0  0  0  0  0
   56.8906   35.1458   45.3953 H   0  0  0  0  0  0  0  0  0  0  0  0
   57.0722   33.6590   44.3621 H   0  0  0  0  0  0  0  0  0  0  0  0
   57.9413   33.8134   47.2770 H   0  0  0  0  0  0  0  0  0  0  0  0
   56.3167   33.2147   46.7027 H   0  0  0  0  0  0  0  0  0  0  0  0
   56.5442   29.5800   43.3414 H   0  0  0  0  0  0  0  0  0  0  0  0
   57.3716   27.2622   42.9139 H   0  0  0  0  0  0  0  0  0  0  0  0
   59.1735   26.2942   44.3427 H   0  0  0  0  0  0  0  0  0  0  0  0
   60.1535   27.6330   46.2058 H   0  0  0  0  0  0  0  0  0  0  0  0
   57.7568   31.8272   49.4250 H   0  0  0  0  0  0  0  0  0  0  0  0
   58.6338   33.1818   51.3257 H   0  0  0  0  0  0  0  0  0  0  0  0
   60.8369   34.3370   51.1244 H   0  0  0  0  0  0  0  0  0  0  0  0
   62.1610   34.1514   49.0210 H   0  0  0  0  0  0  0  0  0  0  0  0
   62.5723   32.6358   47.0131 H   0  0  0  0  0  0  0  0  0  0  0  0
   61.1567   31.9219   46.1686 H   0  0  0  0  0  0  0  0  0  0  0  0
   61.3987   33.7018   46.1686 H   0  0  0  0  0  0  0  0  0  0  0  0
  1  2  1  0
  2  3  1  0
  3  4  1  0
  4  5  1  0
  5  6  2  0
  6  7  1  0
  7  8  2  0
  8  9  1  0
  9 10  2  0
 10 11  1  0
 11 12  2  0
 12 13  1  0
 13 14  2  0
 13 15  1  0
 15 16  1  0
 16 17  2  0
 17 18  1  0
 18 19  2  0
 19 20  1  0
 20 21  2  0
 21 22  1  0
 15  5  1  0
 21 16  1  0
 12  7  1  0
  1 23  1  0
  1 24  1  0
  1 25  1  0
  2 26  1  0
  2 27  1  0
  3 28  1  0
  3 29  1  0
  4 30  1  0
  4 31  1  0
  8 32  1  0
  9 33  1  0
 10 34  1  0
 11 35  1  0
 17 36  1  0
 18 37  1  0
 19 38  1  0
 20 39  1  0
 22 40  1  0
 22 41  1  0
 22 42  1  0
M  END
>  <UniqueID>  (42) 
39

>  <SMILES>  (42) 
CCCCc1nc2ccccc2c(=O)n1-c1ccccc1C

>  <Energy>  (42) 
52.945292700203765

>  <Genealogy>  (42) 
CCCCc1nc2ccccc2c(=O)n1-c1ccccc1C (3D coordinates assigned)
CCCCc1nc2ccccc2c(=O)n1-c1ccccc1C (optimized conformer: 52.945292700203765 kcal/mol)

>  <smiles>  (42) 
CCCCc1nc2ccccc2c(=O)n1-c1ccccc1C

>  <score_type>  (42) 
oracle

>  <origin>  (42) 
adg

>  <m_score__min__energy>  (42) 
-7.2699999999999996

>  <m_primary>  (42) 
energy

$$$$
42:0
     RDKit          3D

 37 40  0  0  1  0  0  0  0  0999 V2000
   56.4460   30.4800   43.0800 C   0  0  0  0  0  0  0  0  0  0  0  0
   56.1460   30.3150   44.5000 N   0  0  0  0  0  0  0  0  0  0  0  0
   56.8610   29.4530   45.1370 C   0  0  0  0  0  0  0  0  0  0  0  0
   56.4740   28.1770   45.2460 N   0  0  0  0  0  0  0  0  0  0  0  0
   57.3120   27.3530   45.9450 C   0  0  0  0  0  0  0  0  0  0  0  0
   56.8500   25.9600   46.0410 C   0  0  0  0  0  0  0  0  0  0  0  0
   57.6990   24.8920   46.1830 C   0  0  0  0  0  0  0  0  0  0  0  0
   57.2250   23.5800   46.2700 C   0  0  0  0  0  0  0  0  0  0  0  0
   55.8740   23.3320   46.2150 C   0  0  0  0  0  0  0  0  0  0  0  0
   55.0430   24.4210   46.0720 C   0  0  0  0  0  0  0  0  0  0  0  0
   55.5260   25.6700   45.9910 N   0  0  0  0  0  0  0  0  0  0  0  0
   58.4480   27.7520   46.4980 N   0  0  0  0  0  0  0  0  0  0  0  0
   58.8930   29.0590   46.4150 C   0  0  0  0  0  0  0  0  0  0  0  0
   60.0100   29.5830   46.9240 C   0  0  0  0  0  0  0  0  0  0  0  0
   60.2200   30.8980   46.7040 C   0  0  0  0  0  0  0  0  0  0  0  0
   61.3680   31.7550   47.1450 C   0  0  0  0  0  0  0  0  0  0  0  0
   62.3310   31.2060   47.9580 C   0  0  0  0  0  0  0  0  0  0  0  0
   63.3910   31.9730   48.3730 C   0  0  0  0  0  0  0  0  0  0  0  0
   63.4510   33.2790   47.9550 C   0  0  0  0  0  0  0  0  0  0  0  0
   62.4710   33.8350   47.1290 C   0  0  0  0  0  0  0  0  0  0  0  0
   61.4100   33.0590   46.7160 C   0  0  0  0  0  0  0  0  0  0  0  0
   58.8350   31.4620   45.7560 S   0  0  0  0  0  0  0  0  0  0  0  0
   58.0810   29.8970   45.7270 C   0  0  0  0  0  0  0  0  0  0  0  0
   57.4047   31.0073   42.9666 H   0  0  0  0  0  0  0  0  0  0  0  0
   56.5124   29.4915   42.6020 H   0  0  0  0  0  0  0  0  0  0  0  0
   55.6468   31.0655   42.6020 H   0  0  0  0  0  0  0  0  0  0  0  0
   58.7830   25.0731   46.2297 H   0  0  0  0  0  0  0  0  0  0  0  0
   57.9331   22.7458   46.3825 H   0  0  0  0  0  0  0  0  0  0  0  0
   55.4744   22.3093   46.2822 H   0  0  0  0  0  0  0  0  0  0  0  0
   53.9556   24.2626   46.0229 H   0  0  0  0  0  0  0  0  0  0  0  0
   59.0150   27.0480   47.0090 H   0  0  0  0  0  0  0  0  0  0  0  0
   60.7249   28.9726   47.4952 H   0  0  0  0  0  0  0  0  0  0  0  0
   62.2524   30.1556   48.2749 H   0  0  0  0  0  0  0  0  0  0  0  0
   64.1718   31.5521   49.0235 H   0  0  0  0  0  0  0  0  0  0  0  0
   64.2947   33.9057   48.2796 H   0  0  0  0  0  0  0  0  0  0  0  0
   62.5459   34.8852   46.8105 H   0  0  0  0  0  0  0  0  0  0  0  0
   60.6239   33.4696   46.0653 H   0  0  0  0  0  0  0  0  0  0  0  0
  1  2  1  0
  2  3  2  0
  3  4  1  0
  4  5  2  0
  5  6  1  0
  6  7  2  0
  7  8  1  0
  8  9  2  0
  9 10  1  0
 10 11  2  0
  5 12  1  0
 12 13  1  0
 13 14  1  0
 14 15  2  0
 15 16  1  0
 16 17  2  0
 17 18  1  0
 18 19  2  0
 19 20  1  0
 20 21  2  0
 15 22  1  0
 22 23  1  0
 23  3  1  0
 11  6  1  0
 23 13  2  0
 21 16  1  0
  1 24  1  0
  1 25  1  0
  1 26  1  0
  7 27  1  0
  8 28  1  0
  9 29  1  0
 10 30  1  0
 12 31  1  0
 14 32  1  0
 17 33  1  0
 18 34  1  0
 19 35  1  0
 20 36  1  0
 21 37  1  0
M  END
>  <smiles>  (43) 
CN=c1nc(-c2ccccn2)[nH]c2cc(-c3ccccc3)sc12

>  <score_type>  (43) 
oracle

>  <origin>  (43) 
adg

>  <m_score__min__energy>  (43) 
-7.8200000000000003

>  <m_primary>  (43) 
energy

$$$$
43:0
     RDKit          3D

 47 50  0  0  0  0  0  0  0  0999 V2000
   57.7210   33.8370   45.7690 C   0  0  0  0  0  0  0  0  0  0  0  0
   58.4980   33.7640   47.0450 C   0  0  0  0  0  0  0  0  0  0  0  0
   59.3910   34.7570   47.4450 C   0  0  0  0  0  0  0  0  0  0  0  0
   60.1190   34.2510   48.8770 S   0  0  0  0  0  0  0  0  0  0  0  0
   59.2720   32.8030   48.9280 C   0  0  0  0  0  0  0  0  0  0  0  0
   59.4470   31.8340   49.9220 O   0  0  0  0  0  0  0  0  0  0  0  0
   58.4750   31.4670   50.8630 C   0  0  0  0  0  0  0  0  0  0  0  0
   58.1770   30.1210   51.1390 C   0  0  0  0  0  0  0  0  0  0  0  0
   57.1890   29.7940   52.0730 C   0  0  0  0  0  0  0  0  0  0  0  0
   56.4830   30.8070   52.7390 C   0  0  0  0  0  0  0  0  0  0  0  0
   55.3910   30.4660   53.7180 C   0  0  0  0  0  0  0  0  0  0  0  0
   54.0820   30.4230   53.0340 N   0  0  0  0  0  0  0  0  0  0  0  0
   54.1910   30.8970   51.6320 C   0  0  0  0  0  0  0  0  0  0  0  0
   52.9370   30.5690   50.7910 C   0  0  0  0  0  0  0  0  0  0  0  0
   51.7100   30.2550   51.6640 C   0  0  0  0  0  0  0  0  0  0  0  0
   51.2190   31.5020   52.3620 C   0  0  0  0  0  0  0  0  0  0  0  0
   50.7990   31.5750   53.6690 C   0  0  0  0  0  0  0  0  0  0  0  0
   50.3560   32.8180   53.9190 N   0  0  0  0  0  0  0  0  0  0  0  0
   50.5150   33.4670   52.7460 C   0  0  0  0  0  0  0  0  0  0  0  0
   51.0310   32.6950   51.7680 N   0  0  0  0  0  0  0  0  0  0  0  0
   52.0210   29.1070   52.6540 C   0  0  0  0  0  0  0  0  0  0  0  0
   53.5000   29.0710   53.0880 C   0  0  0  0  0  0  0  0  0  0  0  0
   56.7650   32.1500   52.4440 C   0  0  0  0  0  0  0  0  0  0  0  0
   57.7510   32.4750   51.5090 C   0  0  0  0  0  0  0  0  0  0  0  0
   58.4480   32.6780   47.8620 N   0  0  0  0  0  0  0  0  0  0  0  0
   56.6497   33.9377   45.9973 H   0  0  0  0  0  0  0  0  0  0  0  0
   58.0550   34.7077   45.1856 H   0  0  0  0  0  0  0  0  0  0  0  0
   57.8869   32.9193   45.1856 H   0  0  0  0  0  0  0  0  0  0  0  0
   59.5856   35.7031   46.9187 H   0  0  0  0  0  0  0  0  0  0  0  0
   58.7236   29.3213   50.6177 H   0  0  0  0  0  0  0  0  0  0  0  0
   56.9645   28.7385   52.2863 H   0  0  0  0  0  0  0  0  0  0  0  0
   55.5989   29.4827   54.1651 H   0  0  0  0  0  0  0  0  0  0  0  0
   55.3596   31.2379   54.5011 H   0  0  0  0  0  0  0  0  0  0  0  0
   54.3339   31.9877   51.6396 H   0  0  0  0  0  0  0  0  0  0  0  0
   55.0443   30.3774   51.1716 H   0  0  0  0  0  0  0  0  0  0  0  0
   52.7040   31.4338   50.1524 H   0  0  0  0  0  0  0  0  0  0  0  0
   53.1600   29.6737   50.1922 H   0  0  0  0  0  0  0  0  0  0  0  0
   50.8926   29.9061   51.0159 H   0  0  0  0  0  0  0  0  0  0  0  0
   50.8221   30.7479   54.3938 H   0  0  0  0  0  0  0  0  0  0  0  0
   50.2491   34.5246   52.6017 H   0  0  0  0  0  0  0  0  0  0  0  0
   51.3958   29.2373   53.5496 H   0  0  0  0  0  0  0  0  0  0  0  0
   51.8060   28.1597   52.1379 H   0  0  0  0  0  0  0  0  0  0  0  0
   53.5669   28.6880   54.1170 H   0  0  0  0  0  0  0  0  0  0  0  0
   54.0575   28.4140   52.4042 H   0  0  0  0  0  0  0  0  0  0  0  0
   56.2069   32.9506   52.9515 H   0  0  0  0  0  0  0  0  0  0  0  0
   57.9595   33.5303   51.2792 H   0  0  0  0  0  0  0  0  0  0  0  0
   57.8690   31.8320   47.6630 H   0  0  0  0  0  0  0  0  0  0  0  0
  1  2  1  0
  2  3  2  0
  3  4  1  0
  4  5  1  0
  5  6  1  0
  6  7  1  0
  7  8  2  0
  8  9  1  0
  9 10  2  0
 10 11  1  0
 11 12  1  0
 12 13  1  0
 13 14  1  0
 14 15  1  0
 15 16  1  0
 16 17  2  0
 17 18  1  0
 18 19  2  0
 19 20  1  0
 15 21  1  0
 21 22  1  0
 10 23  1  0
 23 24  2  0
  5 25  2  0
 25  2  1  0
 24  7  1  0
 22 12  1  0
 20 16  1  0
  1 26  1  0
  1 27  1  0
  1 28  1  0
  3 29  1  0
  8 30  1  0
  9 31  1  0
 11 32  1  0
 11 33  1  0
 13 34  1  0
 13 35  1  0
 14 36  1  0
 14 37  1  0
 15 38  1  0
 17 39  1  0
 19 40  1  0
 21 41  1  0
 21 42  1  0
 22 43  1  0
 22 44  1  0
 23 45  1  0
 24 46  1  0
 25 47  1  0
M  CHG  2  20  -1  25   1
M  END
>  <UniqueID>  (44) 
40

>  <SMILES>  (44) 
Cc1csc(Oc2ccc(CN3CCC(c4cnc[n-]4)CC3)cc2)[nH+]1

>  <Energy>  (44) 
115.96105353279891

>  <Genealogy>  (44) 
Cc1csc(Oc2ccc(CN3CCC(c4cnc[n-]4)CC3)cc2)[nH+]1 (protonated)
Cc1csc(Oc2ccc(CN3CCC(c4cnc[n-]4)CC3)cc2)[nH+]1 (3D coordinates assigned)
Cc1csc(Oc2ccc(CN3CCC(c4cnc[n-]4)CC3)cc2)[nH+]1 (nonaromatic ring conformer: 115.96105353279891 kcal/mol)

>  <smiles>  (44) 
Cc1csc(Oc2ccc(CN3CCC(c4cnc[nH]4)CC3)cc2)n1

>  <score_type>  (44) 
oracle

>  <origin>  (44) 
adg

>  <m_score__min__energy>  (44) 
-8.2699999999999996

>  <m_primary>  (44) 
energy

$$$$
44:0
     RDKit          3D

 49 52  0  0  0  0  0  0  0  0999 V2000
   64.4620   31.9800   50.0270 C   0  0  0  0  0  0  0  0  0  0  0  0
   64.3770   32.8240   48.8820 O   0  0  0  0  0  0  0  0  0  0  0  0
   63.1770   33.3270   48.3580 C   0  0  0  0  0  0  0  0  0  0  0  0
   62.1470   33.8320   49.1770 C   0  0  0  0  0  0  0  0  0  0  0  0
   60.9690   34.3200   48.6040 C   0  0  0  0  0  0  0  0  0  0  0  0
   60.8060   34.3110   47.2140 C   0  0  0  0  0  0  0  0  0  0  0  0
   59.2900   34.9300   46.4820 S   0  0  0  0  0  0  0  0  0  0  0  0
   58.7390   33.2880   46.0180 C   0  0  0  0  0  0  0  0  0  0  0  0
   58.0200   33.1000   44.8390 C   0  0  0  0  0  0  0  0  0  0  0  0
   57.5750   31.8270   44.4820 C   0  0  0  0  0  0  0  0  0  0  0  0
   57.8210   30.7090   45.3110 C   0  0  0  0  0  0  0  0  0  0  0  0
   58.6170   30.9040   46.4770 C   0  0  0  0  0  0  0  0  0  0  0  0
   59.0440   32.1940   46.8290 C   0  0  0  0  0  0  0  0  0  0  0  0
   59.0050   29.7540   47.3800 C   0  0  0  0  0  0  0  0  0  0  0  0
   58.8500   28.4020   46.6610 C   0  0  2  0  0  0  0  0  0  0  0  0
   59.9280   28.2690   45.5440 C   0  0  0  0  0  0  0  0  0  0  0  0
   59.3720   28.0040   44.1340 C   0  0  0  0  0  0  0  0  0  0  0  0
   58.1710   28.7900   43.7760 N   0  0  0  0  0  0  0  0  0  0  0  0
   57.3340   29.2960   44.8930 C   0  0  2  0  0  0  0  0  0  0  0  0
   55.8670   29.3640   44.4090 C   0  0  0  0  0  0  0  0  0  0  0  0
   57.4080   28.3370   46.1190 C   0  0  1  0  0  0  0  0  0  0  0  0
   56.9230   26.8890   45.8620 C   0  0  0  0  0  0  0  0  0  0  0  0
   61.8270   33.8150   46.3970 C   0  0  0  0  0  0  0  0  0  0  0  0
   63.0060   33.3250   46.9680 C   0  0  0  0  0  0  0  0  0  0  0  0
   64.4004   32.5920   50.9390 H   0  0  0  0  0  0  0  0  0  0  0  0
   63.6320   31.2583   50.0129 H   0  0  0  0  0  0  0  0  0  0  0  0
   65.4192   31.4383   50.0129 H   0  0  0  0  0  0  0  0  0  0  0  0
   62.2705   33.8421   50.2700 H   0  0  0  0  0  0  0  0  0  0  0  0
   60.1678   34.7123   49.2475 H   0  0  0  0  0  0  0  0  0  0  0  0
   57.8025   33.9590   44.1872 H   0  0  0  0  0  0  0  0  0  0  0  0
   57.0236   31.6911   43.5399 H   0  0  0  0  0  0  0  0  0  0  0  0
   59.6238   32.3438   47.7517 H   0  0  0  0  0  0  0  0  0  0  0  0
   60.0537   29.8781   47.6878 H   0  0  0  0  0  0  0  0  0  0  0  0
   58.3393   29.7601   48.2557 H   0  0  0  0  0  0  0  0  0  0  0  0
   59.0113   27.5527   47.3411 H   0  0  0  0  0  0  0  0  0  0  0  0
   60.5051   29.2049   45.5132 H   0  0  0  0  0  0  0  0  0  0  0  0
   60.5359   27.3904   45.8056 H   0  0  0  0  0  0  0  0  0  0  0  0
   60.1626   28.2388   43.4061 H   0  0  0  0  0  0  0  0  0  0  0  0
   59.0632   26.9483   44.1194 H   0  0  0  0  0  0  0  0  0  0  0  0
   58.4440   29.5720   43.1340 H   0  0  0  0  0  0  0  0  0  0  0  0
   55.1949   29.3952   45.2792 H   0  0  0  0  0  0  0  0  0  0  0  0
   55.7229   30.2698   43.8017 H   0  0  0  0  0  0  0  0  0  0  0  0
   55.6397   28.4754   43.8017 H   0  0  0  0  0  0  0  0  0  0  0  0
   56.6871   28.6852   46.8734 H   0  0  0  0  0  0  0  0  0  0  0  0
   56.7535   26.3829   46.8239 H   0  0  0  0  0  0  0  0  0  0  0  0
   55.9839   26.9130   45.2898 H   0  0  0  0  0  0  0  0  0  0  0  0
   57.6871   26.3425   45.2898 H   0  0  0  0  0  0  0  0  0  0  0  0
   61.7026   33.8102   45.3041 H   0  0  0  0  0  0  0  0  0  0  0  0
   63.8051   32.9351   46.3204 H   0  0  0  0  0  0  0  0  0  0  0  0
  1  2  1  0
  2  3  1  0
  3  4  2  0
  4  5  1  0
  5  6  2  0
  6  7  1  0
  7  8  1  0
  8  9  2  0
  9 10  1  0
 10 11  2  0
 11 12  1  0
 12 13  2  0
 12 14  1  0
 14 15  1  0
 15 16  1  0
 16 17  1  0
 17 18  1  0
 18 19  1  0
 19 20  1  6
 19 21  1  0
 21 22  1  0
  6 23  1  0
 23 24  2  0
 24  3  1  0
 13  8  1  0
 21 15  1  0
 19 11  1  0
  1 25  1  0
  1 26  1  0
  1 27  1  0
  4 28  1  0
  5 29  1  0
  9 30  1  0
 10 31  1  0
 13 32  1  0
 14 33  1  0
 14 34  1  0
 15 35  1  1
 16 36  1  0
 16 37  1  0
 17 38  1  0
 17 39  1  0
 18 40  1  0
 20 41  1  0
 20 42  1  0
 20 43  1  0
 21 44  1  1
 22 45  1  0
 22 46  1  0
 22 47  1  0
 23 48  1  0
 24 49  1  0
M  END
>  <UniqueID>  (45) 
41

>  <SMILES>  (45) 
COc1ccc(Sc2ccc3c(c2)C[C@@H]2CCN[C@@]3(C)C2C)cc1

>  <Energy>  (45) 
68.54945478299678

>  <Genealogy>  (45) 
COc1ccc(Sc2ccc3c(c2)C[C@@H]2CCN[C@@]3(C)C2C)cc1 (chirality)
COc1ccc(Sc2ccc3c(c2)C[C@@H]2CCN[C@@]3(C)C2C)cc1 (3D coordinates assigned)
COc1ccc(Sc2ccc3c(c2)C[C@@H]2CCN[C@@]3(C)C2C)cc1 (nonaromatic ring conformer: 68.54945478299678 kcal/mol)

>  <smiles>  (45) 
COc1ccc(Sc2ccc3c(c2)CC2CCNC3(C)C2C)cc1

>  <score_type>  (45) 
oracle

>  <origin>  (45) 
adg

>  <m_score__min__energy>  (45) 
-9.0600000000000005

>  <m_primary>  (45) 
energy

$$$$
45:0
     RDKit          3D

 47 50  0  0  0  0  0  0  0  0999 V2000
   58.4960   30.9540   50.4540 C   0  0  0  0  0  0  0  0  0  0  0  0
   58.4920   32.1630   49.5190 C   0  0  0  0  0  0  0  0  0  0  0  0
   58.9680   31.8090   48.1750 N   0  0  0  0  0  0  0  0  0  0  0  0
   58.8520   32.7450   47.0870 C   0  0  0  0  0  0  0  0  0  0  0  0
   59.3410   34.0630   47.2140 C   0  0  0  0  0  0  0  0  0  0  0  0
   59.3590   34.9300   46.1060 C   0  0  0  0  0  0  0  0  0  0  0  0
   58.8930   34.4930   44.8590 C   0  0  0  0  0  0  0  0  0  0  0  0
   58.4100   33.1910   44.7540 C   0  0  0  0  0  0  0  0  0  0  0  0
   58.3860   32.3310   45.8300 C   0  0  0  0  0  0  0  0  0  0  0  0
   57.6500   31.0710   45.4510 C   0  0  1  0  0  0  0  0  0  0  0  0
   57.3790   31.3460   43.9830 C   0  0  0  0  0  0  0  0  0  0  0  0
   57.7980   32.5510   43.6140 C   0  0  0  0  0  0  0  0  0  0  0  0
   58.3970   29.7120   45.7440 C   0  0  1  0  0  0  0  0  0  0  0  0
   57.5160   28.5670   45.1630 C   0  0  0  0  0  0  0  0  0  0  0  0
   59.8040   29.6590   45.0500 C   0  0  0  0  0  0  0  0  0  0  0  0
   60.9910   29.6940   46.0200 C   0  0  0  0  0  0  0  0  0  0  0  0
   60.7870   30.7160   47.0540 N   0  0  0  0  0  0  0  0  0  0  0  0
   62.0070   30.8910   47.8590 C   0  0  0  0  0  0  0  0  0  0  0  0
   59.5910   30.5000   47.9170 C   0  0  2  0  0  0  0  0  0  0  0  0
   58.5190   29.5420   47.3040 C   0  0  2  0  0  0  0  0  0  0  0  0
   58.7190   28.0820   47.7890 C   0  0  0  0  0  0  0  0  0  0  0  0
   58.4949   31.2984   51.4987 H   0  0  0  0  0  0  0  0  0  0  0  0
   57.5999   30.3438   50.2681 H   0  0  0  0  0  0  0  0  0  0  0  0
   59.3961   30.3497   50.2681 H   0  0  0  0  0  0  0  0  0  0  0  0
   57.4660   32.5523   49.4433 H   0  0  0  0  0  0  0  0  0  0  0  0
   59.1705   32.9221   49.9354 H   0  0  0  0  0  0  0  0  0  0  0  0
   59.7113   34.4155   48.1880 H   0  0  0  0  0  0  0  0  0  0  0  0
   59.7406   35.9554   46.2193 H   0  0  0  0  0  0  0  0  0  0  0  0
   58.9083   35.1612   43.9853 H   0  0  0  0  0  0  0  0  0  0  0  0
   56.7512   30.8921   46.0595 H   0  0  0  0  0  0  0  0  0  0  0  0
   56.8923   30.6305   43.3039 H   0  0  0  0  0  0  0  0  0  0  0  0
   57.6959   32.9876   42.6095 H   0  0  0  0  0  0  0  0  0  0  0  0
   57.0726   27.9907   45.9884 H   0  0  0  0  0  0  0  0  0  0  0  0
   56.7147   28.9984   44.5451 H   0  0  0  0  0  0  0  0  0  0  0  0
   58.1384   27.9030   44.5451 H   0  0  0  0  0  0  0  0  0  0  0  0
   59.8645   28.7289   44.4658 H   0  0  0  0  0  0  0  0  0  0  0  0
   59.8809   30.5626   44.4274 H   0  0  0  0  0  0  0  0  0  0  0  0
   61.0937   28.7098   46.5005 H   0  0  0  0  0  0  0  0  0  0  0  0
   61.9021   29.9400   45.4548 H   0  0  0  0  0  0  0  0  0  0  0  0
   61.7495   30.8541   48.9278 H   0  0  0  0  0  0  0  0  0  0  0  0
   62.7191   30.0858   47.6254 H   0  0  0  0  0  0  0  0  0  0  0  0
   62.4640   31.8639   47.6254 H   0  0  0  0  0  0  0  0  0  0  0  0
   59.9456   30.0132   48.8375 H   0  0  0  0  0  0  0  0  0  0  0  0
   57.5311   29.8369   47.6876 H   0  0  0  0  0  0  0  0  0  0  0  0
   58.7223   28.0582   48.8887 H   0  0  0  0  0  0  0  0  0  0  0  0
   57.8984   27.4544   47.4111 H   0  0  0  0  0  0  0  0  0  0  0  0
   59.6781   27.6982   47.4111 H   0  0  0  0  0  0  0  0  0  0  0  0
  1  2  1  0
  2  3  1  0
  3  4  1  0
  4  5  2  0
  5  6  1  0
  6  7  2  0
  7  8  1  0
  8  9  2  0
  9 10  1  0
 10 11  1  0
 11 12  2  0
 10 13  1  0
 13 14  1  6
 13 15  1  0
 15 16  1  0
 16 17  1  0
 17 18  1  0
 17 19  1  0
 19 20  1  0
 20 21  1  0
 19  3  1  0
  9  4  1  0
 20 13  1  0
 12  8  1  0
  1 22  1  0
  1 23  1  0
  1 24  1  0
  2 25  1  0
  2 26  1  0
  5 27  1  0
  6 28  1  0
  7 29  1  0
 10 30  1  1
 11 31  1  0
 12 32  1  0
 14 33  1  0
 14 34  1  0
 14 35  1  0
 15 36  1  0
 15 37  1  0
 16 38  1  0
 16 39  1  0
 18 40  1  0
 18 41  1  0
 18 42  1  0
 19 43  1  1
 20 44  1  1
 21 45  1  0
 21 46  1  0
 21 47  1  0
M  END
>  <UniqueID>  (46) 
42

>  <SMILES>  (46) 
CCN1c2cccc3c2[C@@H](C=C3)[C@@]2(C)CCN(C)C1C2C

>  <Energy>  (46) 
90.11600268711543

>  <Genealogy>  (46) 
CCN1c2cccc3c2[C@@H](C=C3)[C@@]2(C)CCN(C)C1C2C (chirality)
CCN1c2cccc3c2[C@@H](C=C3)[C@@]2(C)CCN(C)C1C2C (3D coordinates assigned)
CCN1c2cccc3c2[C@@H](C=C3)[C@@]2(C)CCN(C)C1C2C (nonaromatic ring conformer: 90.11600268711543 kcal/mol)

>  <smiles>  (46) 
CCN1c2cccc3c2C(C=C3)C2(C)CCN(C)C1C2C

>  <score_type>  (46) 
oracle

>  <origin>  (46) 
adg

>  <m_score__min__energy>  (46) 
-6.8899999999999997

>  <m_primary>  (46) 
energy

$$$$
46:0
     RDKit          3D

 30 31  0  0  0  0  0  0  0  0999 V2000
   59.8280   28.1570   45.6010 C   0  0  0  0  0  0  0  0  0  0  0  0
   59.3490   28.3880   44.1660 C   0  0  0  0  0  0  0  0  0  0  0  0
   57.9050   27.9020   43.9390 C   0  0  0  0  0  0  0  0  0  0  0  0
   56.9860   28.9750   43.3290 C   0  0  0  0  0  0  0  0  0  0  0  0
   57.3920   30.3340   43.7230 N   0  0  0  0  0  0  0  0  0  0  0  0
   57.7670   31.2000   42.7700 N   0  0  0  0  0  0  0  0  0  0  0  0
   58.1720   32.4630   43.0630 C   0  0  0  0  0  0  0  0  0  0  0  0
   58.2090   32.8900   44.3880 C   0  0  0  0  0  0  0  0  0  0  0  0
   58.6280   34.1880   44.7160 C   0  0  0  0  0  0  0  0  0  0  0  0
   58.6590   34.5980   46.0520 C   0  0  0  0  0  0  0  0  0  0  0  0
   58.2710   33.7170   47.0640 C   0  0  0  0  0  0  0  0  0  0  0  0
   57.8520   32.4210   46.7470 C   0  0  0  0  0  0  0  0  0  0  0  0
   57.8170   31.9960   45.4050 C   0  0  0  0  0  0  0  0  0  0  0  0
   57.4030   30.7020   45.0450 C   0  0  0  0  0  0  0  0  0  0  0  0
   57.0450   29.8830   45.9370 O   0  0  0  0  0  0  0  0  0  0  0  0
   59.0668   28.5241   46.3052 H   0  0  0  0  0  0  0  0  0  0  0  0
   59.9906   27.0815   45.7646 H   0  0  0  0  0  0  0  0  0  0  0  0
   60.7709   28.6994   45.7646 H   0  0  0  0  0  0  0  0  0  0  0  0
   59.3969   29.4650   43.9475 H   0  0  0  0  0  0  0  0  0  0  0  0
   60.0045   27.8095   43.4984 H   0  0  0  0  0  0  0  0  0  0  0  0
   57.9311   27.0380   43.2587 H   0  0  0  0  0  0  0  0  0  0  0  0
   57.4914   27.6436   44.9250 H   0  0  0  0  0  0  0  0  0  0  0  0
   57.0258   28.8958   42.2326 H   0  0  0  0  0  0  0  0  0  0  0  0
   55.9658   28.8023   43.7023 H   0  0  0  0  0  0  0  0  0  0  0  0
   57.7610   30.9140   41.7650 H   0  0  0  0  0  0  0  0  0  0  0  0
   58.4702   33.1473   42.2551 H   0  0  0  0  0  0  0  0  0  0  0  0
   58.9326   34.8842   43.9207 H   0  0  0  0  0  0  0  0  0  0  0  0
   58.9894   35.6158   46.3067 H   0  0  0  0  0  0  0  0  0  0  0  0
   58.2951   34.0437   48.1141 H   0  0  0  0  0  0  0  0  0  0  0  0
   57.5488   31.7314   47.5486 H   0  0  0  0  0  0  0  0  0  0  0  0
  1  2  1  0
  2  3  1  0
  3  4  1  0
  4  5  1  0
  5  6  1  0
  6  7  2  0
  7  8  1  0
  8  9  2  0
  9 10  1  0
 10 11  2  0
 11 12  1  0
 12 13  2  0
 13 14  1  0
 14 15  2  0
 14  5  1  0
 13  8  1  0
  1 16  1  0
  1 17  1  0
  1 18  1  0
  2 19  1  0
  2 20  1  0
  3 21  1  0
  3 22  1  0
  4 23  1  0
  4 24  1  0
  6 25  1  0
  7 26  1  0
  9 27  1  0
 10 28  1  0
 11 29  1  0
 12 30  1  0
M  CHG  1   6   1
M  END
>  <UniqueID>  (47) 
43

>  <SMILES>  (47) 
CCCCn1[nH+]cc2ccccc2c1=O

>  <Energy>  (47) 
31.160233387711507

>  <Genealogy>  (47) 
CCCCn1[nH+]cc2ccccc2c1=O (protonated)
CCCCn1[nH+]cc2ccccc2c1=O (3D coordinates assigned)
CCCCn1[nH+]cc2ccccc2c1=O (optimized conformer: 31.160233387711507 kcal/mol)

>  <smiles>  (47) 
CCCCn1ncc2ccccc2c1=O

>  <score_type>  (47) 
oracle

>  <origin>  (47) 
adg

>  <m_score__min__energy>  (47) 
-4.5700000000000003

>  <m_primary>  (47) 
energy

$$$$
47:0
     RDKit          3D

 46 48  0  0  0  0  0  0  0  0999 V2000
   58.0980   26.1210   42.8760 O   0  0  0  0  0  0  0  0  0  0  0  0
   58.1440   26.7950   43.9400 C   0  0  0  0  0  0  0  0  0  0  0  0
   58.1610   26.1310   45.2150 N   0  0  0  0  0  0  0  0  0  0  0  0
   57.8160   24.7460   45.3970 C   0  0  0  0  0  0  0  0  0  0  0  0
   57.4590   23.9360   44.3060 C   0  0  0  0  0  0  0  0  0  0  0  0
   57.0850   22.5980   44.5040 C   0  0  0  0  0  0  0  0  0  0  0  0
   56.7540   21.7110   43.3290 C   0  0  0  0  0  0  0  0  0  0  0  0
   55.9590   20.6520   43.7280 F   0  0  0  0  0  0  0  0  0  0  0  0
   57.9090   21.1970   42.7620 F   0  0  0  0  0  0  0  0  0  0  0  0
   56.0770   22.4520   42.3780 F   0  0  0  0  0  0  0  0  0  0  0  0
   57.1060   22.0840   45.8090 C   0  0  0  0  0  0  0  0  0  0  0  0
   57.4350   22.8850   46.8550 N   0  0  0  0  0  0  0  0  0  0  0  0
   57.7740   24.1890   46.6870 C   0  0  0  0  0  0  0  0  0  0  0  0
   58.0660   24.8870   47.6940 O   0  0  0  0  0  0  0  0  0  0  0  0
   58.2470   28.2990   43.8490 C   0  0  0  0  0  0  0  0  0  0  0  0
   56.8680   28.9670   43.6130 C   0  0  0  0  0  0  0  0  0  0  0  0
   56.3550   29.7080   44.8580 C   0  0  0  0  0  0  0  0  0  0  0  0
   57.3080   30.7350   45.3530 N   0  0  0  0  0  0  0  0  0  0  0  0
   56.9990   32.0740   44.8040 C   0  0  0  0  0  0  0  0  0  0  0  0
   57.9040   33.1230   45.4010 C   0  0  0  0  0  0  0  0  0  0  0  0
   57.8280   33.4290   46.7710 C   0  0  0  0  0  0  0  0  0  0  0  0
   58.6510   34.4170   47.3190 C   0  0  0  0  0  0  0  0  0  0  0  0
   59.5520   35.1100   46.5060 C   0  0  0  0  0  0  0  0  0  0  0  0
   59.6300   34.8160   45.1420 C   0  0  0  0  0  0  0  0  0  0  0  0
   58.8100   33.8280   44.5870 C   0  0  0  0  0  0  0  0  0  0  0  0
   58.8940   33.5620   43.2600 F   0  0  0  0  0  0  0  0  0  0  0  0
   58.7410   30.3850   45.1610 C   0  0  0  0  0  0  0  0  0  0  0  0
   58.9700   28.8710   45.0820 C   0  0  0  0  0  0  0  0  0  0  0  0
   58.5090   26.6610   46.0430 H   0  0  0  0  0  0  0  0  0  0  0  0
   57.4728   24.3539   43.2886 H   0  0  0  0  0  0  0  0  0  0  0  0
   56.8549   21.0277   45.9858 H   0  0  0  0  0  0  0  0  0  0  0  0
   58.8556   28.5402   42.9650 H   0  0  0  0  0  0  0  0  0  0  0  0
   56.9611   29.6871   42.7867 H   0  0  0  0  0  0  0  0  0  0  0  0
   56.1464   28.1716   43.3751 H   0  0  0  0  0  0  0  0  0  0  0  0
   55.4055   30.2028   44.6056 H   0  0  0  0  0  0  0  0  0  0  0  0
   56.2283   28.9627   45.6570 H   0  0  0  0  0  0  0  0  0  0  0  0
   57.1384   32.0568   43.7130 H   0  0  0  0  0  0  0  0  0  0  0  0
   55.9577   32.3246   45.0546 H   0  0  0  0  0  0  0  0  0  0  0  0
   57.1179   32.8887   47.4144 H   0  0  0  0  0  0  0  0  0  0  0  0
   58.5894   34.6495   48.3924 H   0  0  0  0  0  0  0  0  0  0  0  0
   60.1994   35.8865   46.9395 H   0  0  0  0  0  0  0  0  0  0  0  0
   60.3385   35.3633   44.5028 H   0  0  0  0  0  0  0  0  0  0  0  0
   59.0942   30.8445   44.2260 H   0  0  0  0  0  0  0  0  0  0  0  0
   59.2969   30.7622   46.0321 H   0  0  0  0  0  0  0  0  0  0  0  0
   60.0481   28.6683   45.0001 H   0  0  0  0  0  0  0  0  0  0  0  0
   58.5719   28.3951   45.9903 H   0  0  0  0  0  0  0  0  0  0  0  0
  1  2  2  0
  2  3  1  0
  3  4  1  0
  4  5  2  0
  5  6  1  0
  6  7  1  0
  7  8  1  0
  7  9  1  0
  7 10  1  0
  6 11  2  0
 11 12  1  0
 12 13  1  0
 13 14  2  0
  2 15  1  0
 15 16  1  0
 16 17  1  0
 17 18  1  0
 18 19  1  0
 19 20  1  0
 20 21  2  0
 21 22  1  0
 22 23  2  0
 23 24  1  0
 24 25  2  0
 25 26  1  0
 18 27  1  0
 27 28  1  0
 13  4  1  0
 28 15  1  0
 25 20  1  0
  3 29  1  0
  5 30  1  0
 11 31  1  0
 15 32  1  0
 16 33  1  0
 16 34  1  0
 17 35  1  0
 17 36  1  0
 19 37  1  0
 19 38  1  0
 21 39  1  0
 22 40  1  0
 23 41  1  0
 24 42  1  0
 27 43  1  0
 27 44  1  0
 28 45  1  0
 28 46  1  0
M  CHG  1  12  -1
M  END
>  <UniqueID>  (48) 
44

>  <SMILES>  (48) 
O=C(Nc1cc(C(F)(F)F)c[n-]c1=O)C1CCN(Cc2ccccc2F)CC1

>  <Energy>  (48) 
61.52275555910558

>  <Genealogy>  (48) 
O=C(Nc1cc(C(F)(F)F)c[n-]c1=O)C1CCN(Cc2ccccc2F)CC1 (protonated)
O=C(Nc1cc(C(F)(F)F)c[n-]c1=O)C1CCN(Cc2ccccc2F)CC1 (3D coordinates assigned)
O=C(Nc1cc(C(F)(F)F)c[n-]c1=O)C1CCN(Cc2ccccc2F)CC1 (nonaromatic ring conformer: 61.52275555910558 kcal/mol)

>  <smiles>  (48) 
O=C(Nc1cc(C(F)(F)F)c[nH]c1=O)C1CCN(Cc2ccccc2F)CC1

>  <score_type>  (48) 
oracle

>  <origin>  (48) 
adg

>  <m_score__min__energy>  (48) 
-10.380000000000001

>  <m_primary>  (48) 
energy

$$$$
48:0
     RDKit          3D

 30 31  0  0  0  0  0  0  0  0999 V2000
   57.5510   34.3440   45.0950 C   0  0  0  0  0  0  0  0  0  0  0  0
   58.7830   34.0840   45.8480 N   0  0  0  0  0  0  0  0  0  0  0  0
   59.6090   35.2090   46.3040 C   0  0  0  0  0  0  0  0  0  0  0  0
   59.1600   32.7140   46.1260 C   0  0  0  0  0  0  0  0  0  0  0  0
   60.1130   32.3900   47.1110 C   0  0  0  0  0  0  0  0  0  0  0  0
   60.4410   31.0540   47.3410 C   0  0  0  0  0  0  0  0  0  0  0  0
   59.8280   30.0460   46.5990 C   0  0  0  0  0  0  0  0  0  0  0  0
   58.8810   30.3900   45.6220 C   0  0  0  0  0  0  0  0  0  0  0  0
   58.1870   29.3350   44.7910 C   0  0  1  0  0  0  0  0  0  0  0  0
   57.3390   28.3720   45.6640 C   0  0  0  0  0  0  0  0  0  0  0  0
   55.9650   28.5580   45.2450 N   0  0  0  0  0  0  0  0  0  0  0  0
   55.9090   29.4460   44.1520 C   0  0  0  0  0  0  0  0  0  0  0  0
   54.8310   29.7510   43.5780 O   0  0  0  0  0  0  0  0  0  0  0  0
   57.2320   29.9570   43.7460 C   0  0  0  0  0  0  0  0  0  0  0  0
   58.5790   31.7020   45.4180 N   0  0  0  0  0  0  0  0  0  0  0  0
   56.7223   34.5189   45.7969 H   0  0  0  0  0  0  0  0  0  0  0  0
   57.6890   35.2328   44.4618 H   0  0  0  0  0  0  0  0  0  0  0  0
   57.3180   33.4752   44.4618 H   0  0  0  0  0  0  0  0  0  0  0  0
   59.6247   35.2303   47.4037 H   0  0  0  0  0  0  0  0  0  0  0  0
   60.6345   35.0882   45.9250 H   0  0  0  0  0  0  0  0  0  0  0  0
   59.1866   36.1513   45.9250 H   0  0  0  0  0  0  0  0  0  0  0  0
   60.5962   33.1865   47.6959 H   0  0  0  0  0  0  0  0  0  0  0  0
   61.1847   30.7955   48.1092 H   0  0  0  0  0  0  0  0  0  0  0  0
   60.0839   28.9912   46.7774 H   0  0  0  0  0  0  0  0  0  0  0  0
   58.9966   28.7842   44.2898 H   0  0  0  0  0  0  0  0  0  0  0  0
   57.6515   27.3305   45.4980 H   0  0  0  0  0  0  0  0  0  0  0  0
   57.4653   28.5836   46.7360 H   0  0  0  0  0  0  0  0  0  0  0  0
   55.1430   28.0560   45.6500 H   0  0  0  0  0  0  0  0  0  0  0  0
   57.4886   29.6238   42.7296 H   0  0  0  0  0  0  0  0  0  0  0  0
   57.2800   31.0556   43.7178 H   0  0  0  0  0  0  0  0  0  0  0  0
  1  2  1  0
  2  3  1  0
  2  4  1  0
  4  5  2  0
  5  6  1  0
  6  7  2  0
  7  8  1  0
  8  9  1  0
  9 10  1  0
 10 11  1  0
 11 12  1  0
 12 13  2  0
 12 14  1  0
  8 15  2  0
 15  4  1  0
 14  9  1  0
  1 16  1  0
  1 17  1  0
  1 18  1  0
  3 19  1  0
  3 20  1  0
  3 21  1  0
  5 22  1  0
  6 23  1  0
  7 24  1  0
  9 25  1  6
 10 26  1  0
 10 27  1  0
 11 28  1  0
 14 29  1  0
 14 30  1  0
M  END
>  <UniqueID>  (49) 
45

>  <SMILES>  (49) 
CN(C)c1cccc([C@H]2CNC(=O)C2)n1

>  <Energy>  (49) 
36.27332061885591

>  <Genealogy>  (49) 
CN(C)c1cccc([C@H]2CNC(=O)C2)n1 (chirality)
CN(C)c1cccc([C@H]2CNC(=O)C2)n1 (3D coordinates assigned)
CN(C)c1cccc([C@H]2CNC(=O)C2)n1 (nonaromatic ring conformer: 36.27332061885591 kcal/mol)

>  <smiles>  (49) 
CN(C)c1cccc(C2CNC(=O)C2)n1

>  <score_type>  (49) 
oracle

>  <origin>  (49) 
adg

>  <m_score__min__energy>  (49) 
-5.9299999999999997

>  <m_primary>  (49) 
energy

$$$$
