0:0
     RDKit          3D

 49 51  0  0  0  0  0  0  0  0999 V2000
   58.9110   32.6150   50.6740 C   0  0  0  0  0  0  0  0  0  0  0  0
   58.2160   31.4160   51.3110 C   0  0  0  0  0  0  0  0  0  0  0  0
   59.0840   30.2830   51.3370 O   0  0  0  0  0  0  0  0  0  0  0  0
   59.3810   29.4530   50.2420 C   0  0  0  0  0  0  0  0  0  0  0  0
   60.2550   28.3820   50.4470 C   0  0  0  0  0  0  0  0  0  0  0  0
   60.6060   27.5360   49.3920 C   0  0  0  0  0  0  0  0  0  0  0  0
   60.0950   27.7500   48.1040 C   0  0  0  0  0  0  0  0  0  0  0  0
   59.2050   28.8330   47.8870 C   0  0  0  0  0  0  0  0  0  0  0  0
   58.8520   29.6710   48.9570 C   0  0  0  0  0  0  0  0  0  0  0  0
   58.7340   29.1580   46.4830 C   0  0  1  0  0  0  0  0  0  0  0  0
   59.8160   30.0880   45.8530 C   0  0  0  0  0  0  0  0  0  0  0  0
   59.5990   31.5280   46.2480 C   0  0  0  0  0  0  0  0  0  0  0  0
   60.5650   32.2150   47.0020 C   0  0  0  0  0  0  0  0  0  0  0  0
   60.3340   33.5320   47.4120 C   0  0  0  0  0  0  0  0  0  0  0  0
   59.1400   34.1720   47.0690 C   0  0  0  0  0  0  0  0  0  0  0  0
   58.9170   35.4480   47.4690 F   0  0  0  0  0  0  0  0  0  0  0  0
   58.1740   33.4960   46.3170 C   0  0  0  0  0  0  0  0  0  0  0  0
   58.4000   32.1770   45.9090 C   0  0  0  0  0  0  0  0  0  0  0  0
   58.5010   27.7930   45.7690 C   0  0  1  0  0  0  0  0  0  0  0  0
   57.6470   27.7850   44.5550 N   0  0  0  0  0  0  0  0  0  0  0  0
   57.3300   29.0560   43.8920 C   0  0  0  0  0  0  0  0  0  0  0  0
   56.1090   29.7040   44.4710 C   0  0  0  0  0  0  0  0  0  0  0  0
   55.1490   28.9990   44.8750 O   0  0  0  0  0  0  0  0  0  0  0  0
   56.0000   31.0880   44.4920 O   0  0  0  0  0  0  0  0  0  0  0  0
   59.8240   27.0320   45.6180 C   0  0  0  0  0  0  0  0  0  0  0  0
   60.4590   26.7580   47.0040 C   0  0  0  0  0  0  0  0  0  0  0  0
   59.2953   33.2780   51.4632 H   0  0  0  0  0  0  0  0  0  0  0  0
   59.7465   32.2655   50.0497 H   0  0  0  0  0  0  0  0  0  0  0  0
   58.1924   33.1663   50.0497 H   0  0  0  0  0  0  0  0  0  0  0  0
   57.9261   31.6721   52.3407 H   0  0  0  0  0  0  0  0  0  0  0  0
   57.3265   31.1656   50.7143 H   0  0  0  0  0  0  0  0  0  0  0  0
   60.6710   28.2032   51.4495 H   0  0  0  0  0  0  0  0  0  0  0  0
   61.2899   26.6938   49.5736 H   0  0  0  0  0  0  0  0  0  0  0  0
   58.1554   30.5056   48.7888 H   0  0  0  0  0  0  0  0  0  0  0  0
   57.7837   29.7074   46.4121 H   0  0  0  0  0  0  0  0  0  0  0  0
   60.8096   29.7674   46.1993 H   0  0  0  0  0  0  0  0  0  0  0  0
   59.7426   30.0137   44.7580 H   0  0  0  0  0  0  0  0  0  0  0  0
   61.5071   31.7149   47.2711 H   0  0  0  0  0  0  0  0  0  0  0  0
   61.0925   34.0643   48.0047 H   0  0  0  0  0  0  0  0  0  0  0  0
   57.2355   34.0018   46.0460 H   0  0  0  0  0  0  0  0  0  0  0  0
   57.6366   31.6465   45.3210 H   0  0  0  0  0  0  0  0  0  0  0  0
   57.8477   27.2328   46.4541 H   0  0  0  0  0  0  0  0  0  0  0  0
   56.7340   27.3400   44.8120 H   0  0  0  0  0  0  0  0  0  0  0  0
   58.1837   29.7397   44.0088 H   0  0  0  0  0  0  0  0  0  0  0  0
   57.1307   28.8445   42.8311 H   0  0  0  0  0  0  0  0  0  0  0  0
   59.6338   26.0739   45.1121 H   0  0  0  0  0  0  0  0  0  0  0  0
   60.5190   27.6450   45.0254 H   0  0  0  0  0  0  0  0  0  0  0  0
   60.1389   25.7577   47.3310 H   0  0  0  0  0  0  0  0  0  0  0  0
   61.5455   26.8529   46.8610 H   0  0  0  0  0  0  0  0  0  0  0  0
  1  2  1  0
  2  3  1  0
  3  4  1  0
  4  5  2  0
  5  6  1  0
  6  7  2  0
  7  8  1  0
  8  9  2  0
  8 10  1  0
 10 11  1  0
 11 12  1  0
 12 13  2  0
 13 14  1  0
 14 15  2  0
 15 16  1  0
 15 17  1  0
 17 18  2  0
 10 19  1  0
 19 20  1  0
 20 21  1  0
 21 22  1  0
 22 23  2  0
 22 24  1  0
 19 25  1  0
 25 26  1  0
  9  4  1  0
 18 12  1  0
 26  7  1  0
  1 27  1  0
  1 28  1  0
  1 29  1  0
  2 30  1  0
  2 31  1  0
  5 32  1  0
  6 33  1  0
  9 34  1  0
 10 35  1  1
 11 36  1  0
 11 37  1  0
 13 38  1  0
 14 39  1  0
 17 40  1  0
 18 41  1  0
 19 42  1  1
 20 43  1  0
 21 44  1  0
 21 45  1  0
 25 46  1  0
 25 47  1  0
 26 48  1  0
 26 49  1  0
M  CHG  1  24  -1
M  END
>  <UniqueID>  (1) 
1

>  <SMILES>  (1) 
CCOc1ccc2c(c1)[C@@H](Cc1ccc(F)cc1)[C@@H](NCC(=O)[O-])CC2

>  <Energy>  (1) 
63.91009317128195

>  <Genealogy>  (1) 
CCOc1ccc2c(c1)C(Cc1ccc(F)cc1)C(NCC(=O)[O-])CC2 (protonated)
CCOc1ccc2c(c1)[C@@H](Cc1ccc(F)cc1)[C@@H](NCC(=O)[O-])CC2 (chirality)
CCOc1ccc2c(c1)[C@@H](Cc1ccc(F)cc1)[C@@H](NCC(=O)[O-])CC2 (3D coordinates assigned)
CCOc1ccc2c(c1)[C@@H](Cc1ccc(F)cc1)[C@@H](NCC(=O)[O-])CC2 (nonaromatic ring conformer: 63.91009317128195 kcal/mol)

>  <smiles>  (1) 
CCOc1ccc2c(c1)C(Cc1ccc(F)cc1)C(NCC(=O)O)CC2

>  <score_type>  (1) 
oracle

>  <origin>  (1) 
adg

>  <m_score__min__energy>  (1) 
-10.83

>  <m_primary>  (1) 
energy

$$$$
1:0
     RDKit          3D

 33 35  0  0  0  0  0  0  0  0999 V2000
   64.5583   33.2227   47.1738 H   0  0  0  0  0  0  0  0  0  0  0  0
   63.7530   33.0830   47.9100 C   0  0  0  0  0  0  0  0  0  0  0  0
   64.0660   33.2030   49.2060 C   0  0  0  0  0  0  0  0  0  0  0  0
   63.3433   33.7038   49.8669 H   0  0  0  0  0  0  0  0  0  0  0  0
   65.3410   32.6970   49.8130 C   0  0  0  0  0  0  0  0  0  0  0  0
   65.2626   32.7281   50.9098 H   0  0  0  0  0  0  0  0  0  0  0  0
   65.5164   31.6611   49.4872 H   0  0  0  0  0  0  0  0  0  0  0  0
   66.1790   33.3307   49.4872 H   0  0  0  0  0  0  0  0  0  0  0  0
   62.4010   32.7760   47.4000 C   0  0  0  0  0  0  0  0  0  0  0  0
   61.9930   31.4440   47.1570 C   0  0  0  0  0  0  0  0  0  0  0  0
   62.6774   30.6099   47.3712 H   0  0  0  0  0  0  0  0  0  0  0  0
   60.7130   31.1890   46.6420 C   0  0  0  0  0  0  0  0  0  0  0  0
   60.3793   30.1593   46.4461 H   0  0  0  0  0  0  0  0  0  0  0  0
   59.8950   32.2460   46.3910 N   0  0  0  0  0  0  0  0  0  0  0  0
   58.6530   32.3030   45.8720 C   0  0  0  0  0  0  0  0  0  0  0  0
   57.8050   31.1510   45.5040 C   0  0  0  0  0  0  0  0  0  0  0  0
   56.7080   31.3480   44.7230 N   0  0  0  0  0  0  0  0  0  0  0  0
   55.8930   30.3160   44.3810 C   0  0  0  0  0  0  0  0  0  0  0  0
   55.0156   30.4968   43.7426 H   0  0  0  0  0  0  0  0  0  0  0  0
   56.1610   29.0610   44.8270 N   0  0  0  0  0  0  0  0  0  0  0  0
   57.2360   28.8190   45.6200 C   0  0  0  0  0  0  0  0  0  0  0  0
   57.4388   27.7979   45.9753 H   0  0  0  0  0  0  0  0  0  0  0  0
   58.0830   29.8650   45.9840 C   0  0  0  0  0  0  0  0  0  0  0  0
   58.9514   29.6840   46.6345 H   0  0  0  0  0  0  0  0  0  0  0  0
   58.3270   33.6480   45.7410 C   0  0  0  0  0  0  0  0  0  0  0  0
   57.0530   34.2040   45.1910 C   0  0  0  0  0  0  0  0  0  0  0  0
   56.3908   34.4930   46.0204 H   0  0  0  0  0  0  0  0  0  0  0  0
   57.2746   35.0872   44.5739 H   0  0  0  0  0  0  0  0  0  0  0  0
   56.5561   33.4409   44.5739 H   0  0  0  0  0  0  0  0  0  0  0  0
   59.3490   34.4230   46.1750 N   0  0  0  0  0  0  0  0  0  0  0  0
   60.2780   33.5250   46.5630 C   0  0  0  0  0  0  0  0  0  0  0  0
   61.5390   33.8360   47.0680 C   0  0  0  0  0  0  0  0  0  0  0  0
   61.8514   34.8820   47.2032 H   0  0  0  0  0  0  0  0  0  0  0  0
  1  2  1  0
  2  3  2  0
  3  4  1  0
  3  5  1  0
  5  6  1  0
  5  7  1  0
  5  8  1  0
  2  9  1  0
  9 10  1  0
 10 11  1  0
 10 12  2  0
 12 13  1  0
 12 14  1  0
 14 15  1  0
 15 16  1  0
 16 17  2  0
 17 18  1  0
 18 19  1  0
 18 20  2  0
 20 21  1  0
 21 22  1  0
 21 23  2  0
 23 24  1  0
 15 25  2  0
 25 26  1  0
 26 27  1  0
 26 28  1  0
 26 29  1  0
 25 30  1  0
 30 31  2  0
 31 32  1  0
 32 33  1  0
 32  9  2  0
 31 14  1  0
 23 16  1  0
M  END
>  <UniqueID>  (2) 
2

>  <SMILES>  (2) 
C/C=C\c1ccn2c(-c3ccncn3)c(C)nc2c1

>  <Energy>  (2) 
79.05556284474584

>  <Genealogy>  (2) 
C/C=C\c1ccn2c(-c3ccncn3)c(C)nc2c1 (cis-trans isomerization)
C/C=C\c1ccn2c(-c3ccncn3)c(C)nc2c1 (3D coordinates assigned)
C/C=C\c1ccn2c(-c3ccncn3)c(C)nc2c1 (optimized conformer: 79.05556284474584 kcal/mol)

>  <smiles>  (2) 
CC=Cc1ccn2c(-c3ccncn3)c(C)nc2c1

>  <score_type>  (2) 
oracle

>  <origin>  (2) 
adg

>  <m_score__min__energy>  (2) 
-6.8499999999999996

>  <m_primary>  (2) 
energy

$$$$
2:0
     RDKit          3D

 51 53  0  0  0  0  0  0  0  0999 V2000
   55.9590   29.7210   43.1190 C   0  0  0  0  0  0  0  0  0  0  0  0
   56.5640   30.9050   43.8810 C   0  0  0  0  0  0  0  0  0  0  0  0
   57.7280   31.4970   43.0730 C   0  0  0  0  0  0  0  0  0  0  0  0
   57.0290   30.4540   45.2090 N   0  0  0  0  0  0  0  0  0  0  0  0
   58.1530   29.5040   45.1300 C   0  0  0  0  0  0  0  0  0  0  0  0
   58.7680   29.2180   46.5140 C   0  0  0  0  0  0  0  0  0  0  0  0
   58.5170   30.3100   47.4760 N   0  0  0  0  0  0  0  0  0  0  0  0
   59.6890   31.1560   47.6620 C   0  0  0  0  0  0  0  0  0  0  0  0
   59.8300   32.3470   46.9020 C   0  0  0  0  0  0  0  0  0  0  0  0
   60.9420   33.1860   47.1070 C   0  0  0  0  0  0  0  0  0  0  0  0
   61.9830   32.7850   47.9090 N   0  0  0  0  0  0  0  0  0  0  0  0
   63.2730   33.5070   47.8480 C   0  0  0  0  0  0  0  0  0  0  0  0
   61.8300   31.7020   48.7510 C   0  0  0  0  0  0  0  0  0  0  0  0
   62.7800   31.4270   49.7670 C   0  0  0  0  0  0  0  0  0  0  0  0
   62.6630   30.3070   50.5840 C   0  0  0  0  0  0  0  0  0  0  0  0
   63.8620   29.9910   51.8250 Cl  0  0  0  0  0  0  0  0  0  0  0  0
   61.5950   29.4370   50.4160 C   0  0  0  0  0  0  0  0  0  0  0  0
   60.6230   29.6970   49.4550 C   0  0  0  0  0  0  0  0  0  0  0  0
   60.6960   30.8440   48.6230 C   0  0  0  0  0  0  0  0  0  0  0  0
   60.9490   34.5270   46.3850 C   0  0  0  0  0  0  0  0  0  0  0  0
   59.5520   35.1630   46.4060 C   0  0  0  0  0  0  0  0  0  0  0  0
   58.4350   34.2140   45.9230 C   0  0  0  0  0  0  0  0  0  0  0  0
   58.8800   32.7510   45.7820 C   0  0  0  0  0  0  0  0  0  0  0  0
   55.5796   28.9785   43.8365 H   0  0  0  0  0  0  0  0  0  0  0  0
   55.1318   30.0760   42.4868 H   0  0  0  0  0  0  0  0  0  0  0  0
   56.7313   29.2586   42.4868 H   0  0  0  0  0  0  0  0  0  0  0  0
   55.8007   31.6845   44.0213 H   0  0  0  0  0  0  0  0  0  0  0  0
   58.4923   31.8857   43.7620 H   0  0  0  0  0  0  0  0  0  0  0  0
   58.1699   30.7141   42.4391 H   0  0  0  0  0  0  0  0  0  0  0  0
   57.3556   32.3152   42.4391 H   0  0  0  0  0  0  0  0  0  0  0  0
   56.2500   30.0170   45.7570 H   0  0  0  0  0  0  0  0  0  0  0  0
   57.7891   28.5586   44.7013 H   0  0  0  0  0  0  0  0  0  0  0  0
   58.9334   29.9539   44.4987 H   0  0  0  0  0  0  0  0  0  0  0  0
   58.3304   28.2899   46.9105 H   0  0  0  0  0  0  0  0  0  0  0  0
   59.8567   29.1265   46.3858 H   0  0  0  0  0  0  0  0  0  0  0  0
   58.1380   29.9260   48.3660 H   0  0  0  0  0  0  0  0  0  0  0  0
   57.7180   30.8910   47.1390 H   0  0  0  0  0  0  0  0  0  0  0  0
   63.6300   33.7068   48.8691 H   0  0  0  0  0  0  0  0  0  0  0  0
   64.0127   32.8917   47.3148 H   0  0  0  0  0  0  0  0  0  0  0  0
   63.1354   34.4592   47.3148 H   0  0  0  0  0  0  0  0  0  0  0  0
   63.6271   32.1135   49.9123 H   0  0  0  0  0  0  0  0  0  0  0  0
   61.5166   28.5381   51.0452 H   0  0  0  0  0  0  0  0  0  0  0  0
   59.7808   28.9991   49.3379 H   0  0  0  0  0  0  0  0  0  0  0  0
   61.6603   35.2017   46.8838 H   0  0  0  0  0  0  0  0  0  0  0  0
   61.2469   34.3634   45.3388 H   0  0  0  0  0  0  0  0  0  0  0  0
   59.3253   35.4708   47.4374 H   0  0  0  0  0  0  0  0  0  0  0  0
   59.5746   36.0154   45.7111 H   0  0  0  0  0  0  0  0  0  0  0  0
   57.6076   34.2562   46.6466 H   0  0  0  0  0  0  0  0  0  0  0  0
   58.1369   34.5553   44.9207 H   0  0  0  0  0  0  0  0  0  0  0  0
   57.9922   32.1024   45.8148 H   0  0  0  0  0  0  0  0  0  0  0  0
   59.4091   32.6416   44.8238 H   0  0  0  0  0  0  0  0  0  0  0  0
  1  2  1  0
  2  3  1  0
  2  4  1  0
  4  5  1  0
  5  6  1  0
  6  7  1  0
  7  8  1  0
  8  9  2  0
  9 10  1  0
 10 11  2  0
 11 12  1  0
 11 13  1  0
 13 14  2  0
 14 15  1  0
 15 16  1  0
 15 17  2  0
 17 18  1  0
 18 19  2  0
 10 20  1  0
 20 21  1  0
 21 22  1  0
 22 23  1  0
 19  8  1  0
 23  9  1  0
 19 13  1  0
  1 24  1  0
  1 25  1  0
  1 26  1  0
  2 27  1  0
  3 28  1  0
  3 29  1  0
  3 30  1  0
  4 31  1  0
  5 32  1  0
  5 33  1  0
  6 34  1  0
  6 35  1  0
  7 36  1  0
  7 37  1  0
 12 38  1  0
 12 39  1  0
 12 40  1  0
 14 41  1  0
 17 42  1  0
 18 43  1  0
 20 44  1  0
 20 45  1  0
 21 46  1  0
 21 47  1  0
 22 48  1  0
 22 49  1  0
 23 50  1  0
 23 51  1  0
M  CHG  2   7   1  11   1
M  END
>  <UniqueID>  (3) 
3

>  <SMILES>  (3) 
CC(C)NCC[NH2+]c1c2c([n+](C)c3cc(Cl)ccc13)CCCC2

>  <Energy>  (3) 
77.49798997233108

>  <Genealogy>  (3) 
CC(C)NCC[NH2+]c1c2c([n+](C)c3cc(Cl)ccc13)CCCC2 (protonated)
CC(C)NCC[NH2+]c1c2c([n+](C)c3cc(Cl)ccc13)CCCC2 (3D coordinates assigned)
CC(C)NCC[NH2+]c1c2c([n+](C)c3cc(Cl)ccc13)CCCC2 (nonaromatic ring conformer: 77.49798997233108 kcal/mol)

>  <smiles>  (3) 
CC(C)NCCNc1c2c([n+](C)c3cc(Cl)ccc13)CCCC2

>  <score_type>  (3) 
oracle

>  <origin>  (3) 
adg

>  <m_score__min__energy>  (3) 
-4.6799999999999997

>  <m_primary>  (3) 
energy

$$$$
3:0
     RDKit          3D

 46 49  0  0  0  0  0  0  0  0999 V2000
   57.7600   32.1930   44.4240 C   0  0  0  0  0  0  0  0  0  0  0  0
   58.1690   33.6320   44.7090 C   0  0  0  0  0  0  0  0  0  0  0  0
   59.0900   33.6870   45.8550 N   0  0  0  0  0  0  0  0  0  0  0  0
   60.4070   33.7980   45.6250 N   0  0  0  0  0  0  0  0  0  0  0  0
   61.3100   33.8430   46.6450 C   0  0  0  0  0  0  0  0  0  0  0  0
   60.8670   33.7830   47.9600 C   0  0  0  0  0  0  0  0  0  0  0  0
   59.5030   33.6590   48.2130 C   0  0  0  0  0  0  0  0  0  0  0  0
   58.6160   33.5960   47.1390 C   0  0  0  0  0  0  0  0  0  0  0  0
   57.3820   33.4580   47.3660 O   0  0  0  0  0  0  0  0  0  0  0  0
   61.8900   33.8510   49.0560 C   0  0  0  0  0  0  0  0  0  0  0  0
   63.0720   33.0210   48.7280 N   0  0  0  0  0  0  0  0  0  0  0  0
   62.9440   31.6090   49.1580 C   0  0  0  0  0  0  0  0  0  0  0  0
   61.8540   30.8640   48.4200 C   0  0  0  0  0  0  0  0  0  0  0  0
   61.8700   30.7150   47.0690 N   0  0  0  0  0  0  0  0  0  0  0  0
   60.7100   30.0870   46.8130 C   0  0  0  0  0  0  0  0  0  0  0  0
   60.2120   29.7070   45.5710 C   0  0  0  0  0  0  0  0  0  0  0  0
   58.9540   29.0790   45.5330 C   0  0  0  0  0  0  0  0  0  0  0  0
   58.2290   28.8600   46.7250 C   0  0  0  0  0  0  0  0  0  0  0  0
   58.7610   29.2570   47.9670 C   0  0  0  0  0  0  0  0  0  0  0  0
   60.0200   29.8660   47.9690 C   0  0  0  0  0  0  0  0  0  0  0  0
   60.7400   30.3360   49.0030 N   0  0  0  0  0  0  0  0  0  0  0  0
   60.3830   30.3260   50.4230 C   0  0  0  0  0  0  0  0  0  0  0  0
   63.6350   33.1870   47.3570 C   0  0  0  0  0  0  0  0  0  0  0  0
   62.7760   34.0380   46.3940 C   0  0  0  0  0  0  0  0  0  0  0  0
   57.6085   31.6598   45.3742 H   0  0  0  0  0  0  0  0  0  0  0  0
   56.8241   32.1854   43.8460 H   0  0  0  0  0  0  0  0  0  0  0  0
   58.5520   31.6943   43.8460 H   0  0  0  0  0  0  0  0  0  0  0  0
   58.6688   34.0490   43.8222 H   0  0  0  0  0  0  0  0  0  0  0  0
   57.2689   34.2179   44.9467 H   0  0  0  0  0  0  0  0  0  0  0  0
   60.7600   33.8570   44.6410 H   0  0  0  0  0  0  0  0  0  0  0  0
   59.1303   33.6114   49.2468 H   0  0  0  0  0  0  0  0  0  0  0  0
   62.2086   34.8957   49.1869 H   0  0  0  0  0  0  0  0  0  0  0  0
   61.4380   33.4681   49.9829 H   0  0  0  0  0  0  0  0  0  0  0  0
   63.9017   31.0991   48.9770 H   0  0  0  0  0  0  0  0  0  0  0  0
   62.6764   31.6125   50.2250 H   0  0  0  0  0  0  0  0  0  0  0  0
   60.7831   29.8915   44.6491 H   0  0  0  0  0  0  0  0  0  0  0  0
   58.5325   28.7566   44.5694 H   0  0  0  0  0  0  0  0  0  0  0  0
   57.2421   28.3760   46.6830 H   0  0  0  0  0  0  0  0  0  0  0  0
   58.2059   29.0939   48.9025 H   0  0  0  0  0  0  0  0  0  0  0  0
   61.2990   30.3517   51.0315 H   0  0  0  0  0  0  0  0  0  0  0  0
   59.7658   31.2072   50.6521 H   0  0  0  0  0  0  0  0  0  0  0  0
   59.8161   29.4116   50.6521 H   0  0  0  0  0  0  0  0  0  0  0  0
   64.6205   33.6670   47.4491 H   0  0  0  0  0  0  0  0  0  0  0  0
   63.6780   32.1787   46.9194 H   0  0  0  0  0  0  0  0  0  0  0  0
   63.0248   35.0999   46.5371 H   0  0  0  0  0  0  0  0  0  0  0  0
   62.9947   33.7193   45.3641 H   0  0  0  0  0  0  0  0  0  0  0  0
  1  2  1  0
  2  3  1  0
  3  4  1  0
  4  5  2  0
  5  6  1  0
  6  7  2  0
  7  8  1  0
  8  9  2  0
  6 10  1  0
 10 11  1  0
 11 12  1  0
 12 13  1  0
 13 14  2  0
 14 15  1  0
 15 16  2  0
 16 17  1  0
 17 18  2  0
 18 19  1  0
 19 20  2  0
 20 21  1  0
 21 22  1  0
 11 23  1  0
 23 24  1  0
  8  3  1  0
 21 13  1  0
 24  5  1  0
 20 15  1  0
  1 25  1  0
  1 26  1  0
  1 27  1  0
  2 28  1  0
  2 29  1  0
  4 30  1  0
  7 31  1  0
 10 32  1  0
 10 33  1  0
 12 34  1  0
 12 35  1  0
 16 36  1  0
 17 37  1  0
 18 38  1  0
 19 39  1  0
 22 40  1  0
 22 41  1  0
 22 42  1  0
 23 43  1  0
 23 44  1  0
 24 45  1  0
 24 46  1  0
M  CHG  1   4   1
M  END
>  <UniqueID>  (4) 
4

>  <SMILES>  (4) 
CCn1[nH+]c2c(cc1=O)CN(Cc1nc3ccccc3n1C)CC2

>  <Energy>  (4) 
94.02475347449356

>  <Genealogy>  (4) 
CCn1[nH+]c2c(cc1=O)CN(Cc1nc3ccccc3n1C)CC2 (protonated)
CCn1[nH+]c2c(cc1=O)CN(Cc1nc3ccccc3n1C)CC2 (3D coordinates assigned)
CCn1[nH+]c2c(cc1=O)CN(Cc1nc3ccccc3n1C)CC2 (nonaromatic ring conformer: 94.02475347449356 kcal/mol)

>  <smiles>  (4) 
CCn1nc2c(cc1=O)CN(Cc1nc3ccccc3n1C)CC2

>  <score_type>  (4) 
oracle

>  <origin>  (4) 
adg

>  <m_score__min__energy>  (4) 
-6.3099999999999996

>  <m_primary>  (4) 
energy

$$$$
4:0
     RDKit          3D

 44 44  0  0  0  0  0  0  0  0999 V2000
   60.9494   34.5461   48.8534 H   0  0  0  0  0  0  0  0  0  0  0  0
   60.9800   34.2590   47.7920 C   0  0  0  0  0  0  0  0  0  0  0  0
   61.8770   33.3140   47.4270 C   0  0  0  0  0  0  0  0  0  0  0  0
   61.5030   31.8670   47.6200 C   0  0  0  0  0  0  0  0  0  0  0  0
   61.4452   31.6435   48.6955 H   0  0  0  0  0  0  0  0  0  0  0  0
   60.5258   31.6754   47.1527 H   0  0  0  0  0  0  0  0  0  0  0  0
   62.2649   31.2259   47.1527 H   0  0  0  0  0  0  0  0  0  0  0  0
   63.2320   33.6510   46.8270 C   0  0  0  0  0  0  0  0  0  0  0  0
   63.2620   33.2835   45.7906 H   0  0  0  0  0  0  0  0  0  0  0  0
   63.3577   34.7430   46.8679 H   0  0  0  0  0  0  0  0  0  0  0  0
   64.3410   33.0390   47.5800 N   0  0  0  0  0  0  0  0  0  0  0  0
   65.2540   33.4630   47.2940 H   0  0  0  0  0  0  0  0  0  0  0  0
   64.3670   32.0190   47.3490 H   0  0  0  0  0  0  0  0  0  0  0  0
   64.1670   33.1920   49.0350 C   0  0  0  0  0  0  0  0  0  0  0  0
   63.9943   34.2532   49.2674 H   0  0  0  0  0  0  0  0  0  0  0  0
   63.3066   32.5843   49.3518 H   0  0  0  0  0  0  0  0  0  0  0  0
   65.4070   32.7110   49.7860 C   0  0  0  0  0  0  0  0  0  0  0  0
   65.2293   32.7799   50.8694 H   0  0  0  0  0  0  0  0  0  0  0  0
   65.6176   31.6660   49.5147 H   0  0  0  0  0  0  0  0  0  0  0  0
   66.2672   33.3407   49.5147 H   0  0  0  0  0  0  0  0  0  0  0  0
   60.0180   34.9500   46.8560 C   0  0  0  0  0  0  0  0  0  0  0  0
   60.5893   35.4545   46.0628 H   0  0  0  0  0  0  0  0  0  0  0  0
   59.4314   35.6783   47.4352 H   0  0  0  0  0  0  0  0  0  0  0  0
   59.0670   33.9650   46.2260 C   0  0  0  0  0  0  0  0  0  0  0  0
   58.6460   32.8270   46.9310 C   0  0  0  0  0  0  0  0  0  0  0  0
   59.0053   32.6550   47.9564 H   0  0  0  0  0  0  0  0  0  0  0  0
   57.7730   31.9110   46.3380 C   0  0  0  0  0  0  0  0  0  0  0  0
   57.4443   31.0263   46.9031 H   0  0  0  0  0  0  0  0  0  0  0  0
   57.3130   32.1100   45.0300 C   0  0  0  0  0  0  0  0  0  0  0  0
   56.4370   31.1630   44.4810 O   0  0  0  0  0  0  0  0  0  0  0  0
   56.6890   30.4300   43.2850 C   0  0  0  0  0  0  0  0  0  0  0  0
   57.4025   30.9846   42.6579 H   0  0  0  0  0  0  0  0  0  0  0  0
   55.7478   30.2921   42.7327 H   0  0  0  0  0  0  0  0  0  0  0  0
   57.2770   29.0650   43.6420 C   0  0  0  0  0  0  0  0  0  0  0  0
   58.3632   29.0862   43.4696 H   0  0  0  0  0  0  0  0  0  0  0  0
   56.7981   28.3035   43.0089 H   0  0  0  0  0  0  0  0  0  0  0  0
   57.0120   28.7140   45.1030 C   0  0  0  0  0  0  0  0  0  0  0  0
   57.5467   29.4222   45.7530 H   0  0  0  0  0  0  0  0  0  0  0  0
   55.9323   28.7745   45.3046 H   0  0  0  0  0  0  0  0  0  0  0  0
   57.3659   27.6922   45.3046 H   0  0  0  0  0  0  0  0  0  0  0  0
   57.7450   33.2420   44.3160 C   0  0  0  0  0  0  0  0  0  0  0  0
   57.3941   33.4065   43.2865 H   0  0  0  0  0  0  0  0  0  0  0  0
   58.6180   34.1590   44.9080 C   0  0  0  0  0  0  0  0  0  0  0  0
   58.9558   35.0378   44.3392 H   0  0  0  0  0  0  0  0  0  0  0  0
  1  2  1  0
  2  3  2  0
  3  4  1  0
  4  5  1  0
  4  6  1  0
  4  7  1  0
  3  8  1  0
  8  9  1  0
  8 10  1  0
  8 11  1  0
 11 12  1  0
 11 13  1  0
 11 14  1  0
 14 15  1  0
 14 16  1  0
 14 17  1  0
 17 18  1  0
 17 19  1  0
 17 20  1  0
  2 21  1  0
 21 22  1  0
 21 23  1  0
 21 24  1  0
 24 25  2  0
 25 26  1  0
 25 27  1  0
 27 28  1  0
 27 29  2  0
 29 30  1  0
 30 31  1  0
 31 32  1  0
 31 33  1  0
 31 34  1  0
 34 35  1  0
 34 36  1  0
 34 37  1  0
 37 38  1  0
 37 39  1  0
 37 40  1  0
 29 41  1  0
 41 42  1  0
 41 43  2  0
 43 44  1  0
 43 24  1  0
M  CHG  1  11   1
M  END
>  <UniqueID>  (5) 
5

>  <SMILES>  (5) 
CCCOc1ccc(C/C=C(/C)C[NH2+]CC)cc1

>  <Energy>  (5) 
29.573021471680654

>  <Genealogy>  (5) 
CCCOc1ccc(CC=C(C)C[NH2+]CC)cc1 (protonated)
CCCOc1ccc(C/C=C(/C)C[NH2+]CC)cc1 (cis-trans isomerization)
CCCOc1ccc(C/C=C(/C)C[NH2+]CC)cc1 (3D coordinates assigned)
CCCOc1ccc(C/C=C(/C)C[NH2+]CC)cc1 (optimized conformer: 29.573021471680654 kcal/mol)

>  <smiles>  (5) 
CCCOc1ccc(CC=C(C)CNCC)cc1

>  <score_type>  (5) 
oracle

>  <origin>  (5) 
adg

>  <m_score__min__energy>  (5) 
-5.21

>  <m_primary>  (5) 
energy

$$$$
5:0
     RDKit          3D

 44 46  0  0  0  0  0  0  0  0999 V2000
   58.5430   28.6950   44.5060 C   0  0  0  0  0  0  0  0  0  0  0  0
   57.6960   29.3690   45.5770 C   0  0  0  0  0  0  0  0  0  0  0  0
   57.9530   30.8060   45.5920 N   0  0  0  0  0  0  0  0  0  0  0  0
   59.1270   31.3950   45.8830 C   0  0  0  0  0  0  0  0  0  0  0  0
   58.9780   32.7560   45.7120 C   0  0  0  0  0  0  0  0  0  0  0  0
   60.0100   33.7790   45.9470 C   0  0  0  0  0  0  0  0  0  0  0  0
   59.9770   34.8490   45.2810 O   0  0  0  0  0  0  0  0  0  0  0  0
   61.0340   33.5910   46.9380 N   0  0  0  0  0  0  0  0  0  0  0  0
   60.6560   33.1330   48.2830 C   0  0  0  0  0  0  0  0  0  0  0  0
   61.7770   33.3730   49.3010 C   0  0  0  0  0  0  0  0  0  0  0  0
   63.0720   32.9250   48.7670 N   0  0  0  0  0  0  0  0  0  0  0  0
   64.0700   32.3710   49.6510 C   0  0  0  0  0  0  0  0  0  0  0  0
   63.7900   31.2200   50.4120 C   0  0  0  0  0  0  0  0  0  0  0  0
   64.7580   30.6830   51.2660 C   0  0  0  0  0  0  0  0  0  0  0  0
   66.0150   31.2830   51.3680 C   0  0  0  0  0  0  0  0  0  0  0  0
   66.3070   32.4240   50.6160 C   0  0  0  0  0  0  0  0  0  0  0  0
   67.8880   33.1750   50.7410 Cl  0  0  0  0  0  0  0  0  0  0  0  0
   65.3420   32.9660   49.7600 C   0  0  0  0  0  0  0  0  0  0  0  0
   63.4170   33.1830   47.3590 C   0  0  0  0  0  0  0  0  0  0  0  0
   62.3880   34.0920   46.6820 C   0  0  0  0  0  0  0  0  0  0  0  0
   57.6540   32.9230   45.3290 C   0  0  0  0  0  0  0  0  0  0  0  0
   56.9320   34.2100   45.0810 C   0  0  0  0  0  0  0  0  0  0  0  0
   57.0560   31.7180   45.2480 N   0  0  0  0  0  0  0  0  0  0  0  0
   59.3177   28.0785   44.9853 H   0  0  0  0  0  0  0  0  0  0  0  0
   57.9023   28.0570   43.8795 H   0  0  0  0  0  0  0  0  0  0  0  0
   59.0208   29.4626   43.8795 H   0  0  0  0  0  0  0  0  0  0  0  0
   56.6316   29.1924   45.3631 H   0  0  0  0  0  0  0  0  0  0  0  0
   57.9565   28.9473   46.5590 H   0  0  0  0  0  0  0  0  0  0  0  0
   60.0458   30.8810   46.2018 H   0  0  0  0  0  0  0  0  0  0  0  0
   59.7581   33.6800   48.6063 H   0  0  0  0  0  0  0  0  0  0  0  0
   60.4633   32.0511   48.2347 H   0  0  0  0  0  0  0  0  0  0  0  0
   61.8332   34.4477   49.5289 H   0  0  0  0  0  0  0  0  0  0  0  0
   61.5541   32.7994   50.2128 H   0  0  0  0  0  0  0  0  0  0  0  0
   62.8033   30.7401   50.3341 H   0  0  0  0  0  0  0  0  0  0  0  0
   64.5289   29.7854   51.8592 H   0  0  0  0  0  0  0  0  0  0  0  0
   66.7749   30.8576   52.0400 H   0  0  0  0  0  0  0  0  0  0  0  0
   65.5783   33.8627   49.1683 H   0  0  0  0  0  0  0  0  0  0  0  0
   64.4036   33.6677   47.3166 H   0  0  0  0  0  0  0  0  0  0  0  0
   63.4278   32.2206   46.8264 H   0  0  0  0  0  0  0  0  0  0  0  0
   62.4816   35.1116   47.0841 H   0  0  0  0  0  0  0  0  0  0  0  0
   62.5714   34.1015   45.5974 H   0  0  0  0  0  0  0  0  0  0  0  0
   56.6710   34.6753   46.0430 H   0  0  0  0  0  0  0  0  0  0  0  0
   57.5804   34.8898   44.5089 H   0  0  0  0  0  0  0  0  0  0  0  0
   56.0138   34.0110   44.5089 H   0  0  0  0  0  0  0  0  0  0  0  0
  1  2  1  0
  2  3  1  0
  3  4  1  0
  4  5  2  0
  5  6  1  0
  6  7  2  0
  6  8  1  0
  8  9  1  0
  9 10  1  0
 10 11  1  0
 11 12  1  0
 12 13  2  0
 13 14  1  0
 14 15  2  0
 15 16  1  0
 16 17  1  0
 16 18  2  0
 11 19  1  0
 19 20  1  0
  5 21  1  0
 21 22  1  0
 21 23  2  0
 23  3  1  0
 20  8  1  0
 18 12  1  0
  1 24  1  0
  1 25  1  0
  1 26  1  0
  2 27  1  0
  2 28  1  0
  4 29  1  0
  9 30  1  0
  9 31  1  0
 10 32  1  0
 10 33  1  0
 13 34  1  0
 14 35  1  0
 15 36  1  0
 18 37  1  0
 19 38  1  0
 19 39  1  0
 20 40  1  0
 20 41  1  0
 22 42  1  0
 22 43  1  0
 22 44  1  0
M  END
>  <UniqueID>  (6) 
6

>  <SMILES>  (6) 
CCn1cc(C(=O)N2CCN(c3cccc(Cl)c3)CC2)c(C)n1

>  <Energy>  (6) 
78.10136031377152

>  <Genealogy>  (6) 
CCn1cc(C(=O)N2CCN(c3cccc(Cl)c3)CC2)c(C)n1 (3D coordinates assigned)
CCn1cc(C(=O)N2CCN(c3cccc(Cl)c3)CC2)c(C)n1 (nonaromatic ring conformer: 78.10136031377152 kcal/mol)

>  <smiles>  (6) 
CCn1cc(C(=O)N2CCN(c3cccc(Cl)c3)CC2)c(C)n1

>  <score_type>  (6) 
oracle

>  <origin>  (6) 
adg

>  <m_score__min__energy>  (6) 
-7.2000000000000002

>  <m_primary>  (6) 
energy

$$$$
6:0
     RDKit          3D

 79 82  0  0  0  0  0  0  0  0999 V2000
   59.6370   34.9040   45.8080 C   0  0  0  0  0  0  0  0  0  0  0  0
   60.0550   33.5180   46.3220 C   0  0  0  0  0  0  0  0  0  0  0  0
   61.2660   33.5210   47.1830 N   0  0  0  0  0  0  0  0  0  0  0  0
   61.1230   34.3550   48.4030 C   0  0  0  0  0  0  0  0  0  0  0  0
   59.8090   34.0790   49.1340 C   0  0  0  0  0  0  0  0  0  0  0  0
   62.4820   33.8600   46.4030 C   0  0  0  0  0  0  0  0  0  0  0  0
   63.7880   33.3840   47.0720 C   0  0  0  0  0  0  0  0  0  0  0  0
   63.7290   32.0230   47.6520 N   0  0  0  0  0  0  0  0  0  0  0  0
   63.4100   31.9880   49.0760 C   0  0  0  0  0  0  0  0  0  0  0  0
   64.3410   32.4440   50.0540 C   0  0  0  0  0  0  0  0  0  0  0  0
   65.6560   32.8580   49.7140 C   0  0  0  0  0  0  0  0  0  0  0  0
   66.5650   33.2590   50.6900 C   0  0  0  0  0  0  0  0  0  0  0  0
   66.2040   33.2400   52.0260 C   0  0  0  0  0  0  0  0  0  0  0  0
   64.9220   32.8460   52.3980 C   0  0  0  0  0  0  0  0  0  0  0  0
   63.9540   32.4770   51.4270 C   0  0  0  0  0  0  0  0  0  0  0  0
   62.6680   32.1490   51.7990 N   0  0  0  0  0  0  0  0  0  0  0  0
   62.1820   32.5020   53.1540 C   0  0  0  0  0  0  0  0  0  0  0  0
   61.8250   31.5270   50.9040 C   0  0  0  0  0  0  0  0  0  0  0  0
   60.6190   30.9150   51.3350 C   0  0  0  0  0  0  0  0  0  0  0  0
   59.7100   30.3640   50.4250 C   0  0  0  0  0  0  0  0  0  0  0  0
   58.4480   29.7080   50.9170 C   0  0  0  0  0  0  0  0  0  0  0  0
   60.0170   30.3630   49.0640 C   0  0  0  0  0  0  0  0  0  0  0  0
   59.1390   29.7760   48.1470 O   0  0  0  0  0  0  0  0  0  0  0  0
   59.5910   28.9390   47.0840 C   0  0  0  0  0  0  0  0  0  0  0  0
   58.4020   28.2820   46.3430 C   0  0  0  0  0  0  0  0  0  0  0  0
   58.1950   28.6690   44.9040 N   0  0  0  0  0  0  0  0  0  0  0  0
   58.4980   27.5140   44.0130 C   0  0  0  0  0  0  0  0  0  0  0  0
   56.7370   29.0080   44.7410 C   0  0  0  0  0  0  0  0  0  0  0  0
   56.4700   30.0350   43.6300 C   0  0  0  0  0  0  0  0  0  0  0  0
   57.1640   31.3720   43.9430 C   0  0  0  0  0  0  0  0  0  0  0  0
   58.4350   31.1890   44.7900 C   0  0  0  0  0  0  0  0  0  0  0  0
   59.0780   29.8220   44.5140 C   0  0  0  0  0  0  0  0  0  0  0  0
   61.2050   30.9500   48.6190 C   0  0  0  0  0  0  0  0  0  0  0  0
   62.1520   31.4880   49.5210 C   0  0  0  0  0  0  0  0  0  0  0  0
   59.4370   35.5670   46.6626 H   0  0  0  0  0  0  0  0  0  0  0  0
   60.4472   35.3280   45.1967 H   0  0  0  0  0  0  0  0  0  0  0  0
   58.7274   34.8094   45.1967 H   0  0  0  0  0  0  0  0  0  0  0  0
   59.2201   33.1011   46.9044 H   0  0  0  0  0  0  0  0  0  0  0  0
   60.3025   32.9163   45.4350 H   0  0  0  0  0  0  0  0  0  0  0  0
   61.9601   34.1369   49.0825 H   0  0  0  0  0  0  0  0  0  0  0  0
   61.1255   35.4110   48.0951 H   0  0  0  0  0  0  0  0  0  0  0  0
   59.9792   34.1147   50.2202 H   0  0  0  0  0  0  0  0  0  0  0  0
   59.0666   34.8408   48.8539 H   0  0  0  0  0  0  0  0  0  0  0  0
   59.4358   33.0829   48.8539 H   0  0  0  0  0  0  0  0  0  0  0  0
   62.4046   33.3875   45.4127 H   0  0  0  0  0  0  0  0  0  0  0  0
   62.5310   34.9569   46.3360 H   0  0  0  0  0  0  0  0  0  0  0  0
   64.5855   33.3987   46.3145 H   0  0  0  0  0  0  0  0  0  0  0  0
   63.9735   34.0702   47.9114 H   0  0  0  0  0  0  0  0  0  0  0  0
   63.1040   31.4240   47.0730 H   0  0  0  0  0  0  0  0  0  0  0  0
   64.6550   31.5630   47.5080 H   0  0  0  0  0  0  0  0  0  0  0  0
   65.9631   32.8621   48.6578 H   0  0  0  0  0  0  0  0  0  0  0  0
   67.5722   33.5916   50.3984 H   0  0  0  0  0  0  0  0  0  0  0  0
   66.9319   33.5369   52.7955 H   0  0  0  0  0  0  0  0  0  0  0  0
   64.6536   32.8200   53.4644 H   0  0  0  0  0  0  0  0  0  0  0  0
   62.8289   32.0321   53.9095 H   0  0  0  0  0  0  0  0  0  0  0  0
   62.2060   33.5946   53.2791 H   0  0  0  0  0  0  0  0  0  0  0  0
   61.1504   32.1412   53.2791 H   0  0  0  0  0  0  0  0  0  0  0  0
   60.3934   30.8728   52.4108 H   0  0  0  0  0  0  0  0  0  0  0  0
   58.4414   29.7045   52.0170 H   0  0  0  0  0  0  0  0  0  0  0  0
   57.5759   30.2669   50.5468 H   0  0  0  0  0  0  0  0  0  0  0  0
   58.4044   28.6731   50.5468 H   0  0  0  0  0  0  0  0  0  0  0  0
   60.1673   29.5458   46.3701 H   0  0  0  0  0  0  0  0  0  0  0  0
   60.2176   28.1422   47.5112 H   0  0  0  0  0  0  0  0  0  0  0  0
   58.5522   27.1928   46.3752 H   0  0  0  0  0  0  0  0  0  0  0  0
   57.5047   28.6426   46.8673 H   0  0  0  0  0  0  0  0  0  0  0  0
   58.7300   26.6298   44.6249 H   0  0  0  0  0  0  0  0  0  0  0  0
   57.6251   27.3018   43.3781 H   0  0  0  0  0  0  0  0  0  0  0  0
   59.3626   27.7576   43.3781 H   0  0  0  0  0  0  0  0  0  0  0  0
   56.1890   28.0848   44.5015 H   0  0  0  0  0  0  0  0  0  0  0  0
   56.4004   29.4577   45.6868 H   0  0  0  0  0  0  0  0  0  0  0  0
   56.8550   29.6434   42.6769 H   0  0  0  0  0  0  0  0  0  0  0  0
   55.3857   30.2079   43.5631 H   0  0  0  0  0  0  0  0  0  0  0  0
   57.4382   31.8581   42.9951 H   0  0  0  0  0  0  0  0  0  0  0  0
   56.4604   31.9874   44.5229 H   0  0  0  0  0  0  0  0  0  0  0  0
   59.1535   31.9834   44.5395 H   0  0  0  0  0  0  0  0  0  0  0  0
   58.1621   31.2435   45.8542 H   0  0  0  0  0  0  0  0  0  0  0  0
   59.2968   29.7481   43.4385 H   0  0  0  0  0  0  0  0  0  0  0  0
   59.9914   29.7584   45.1236 H   0  0  0  0  0  0  0  0  0  0  0  0
   61.4086   30.9946   47.5389 H   0  0  0  0  0  0  0  0  0  0  0  0
  1  2  1  0
  2  3  1  0
  3  4  1  0
  4  5  1  0
  3  6  1  0
  6  7  1  0
  7  8  1  0
  8  9  1  0
  9 10  2  0
 10 11  1  0
 11 12  2  0
 12 13  1  0
 13 14  2  0
 14 15  1  0
 15 16  2  0
 16 17  1  0
 16 18  1  0
 18 19  2  0
 19 20  1  0
 20 21  1  0
 20 22  2  0
 22 23  1  0
 23 24  1  0
 24 25  1  0
 25 26  1  0
 26 27  1  0
 26 28  1  0
 28 29  1  0
 29 30  1  0
 30 31  1  0
 31 32  1  0
 22 33  1  0
 33 34  2  0
 34  9  1  0
 15 10  1  0
 34 18  1  0
 32 26  1  0
  1 35  1  0
  1 36  1  0
  1 37  1  0
  2 38  1  0
  2 39  1  0
  4 40  1  0
  4 41  1  0
  5 42  1  0
  5 43  1  0
  5 44  1  0
  6 45  1  0
  6 46  1  0
  7 47  1  0
  7 48  1  0
  8 49  1  0
  8 50  1  0
 11 51  1  0
 12 52  1  0
 13 53  1  0
 14 54  1  0
 17 55  1  0
 17 56  1  0
 17 57  1  0
 19 58  1  0
 21 59  1  0
 21 60  1  0
 21 61  1  0
 24 62  1  0
 24 63  1  0
 25 64  1  0
 25 65  1  0
 27 66  1  0
 27 67  1  0
 27 68  1  0
 28 69  1  0
 28 70  1  0
 29 71  1  0
 29 72  1  0
 30 73  1  0
 30 74  1  0
 31 75  1  0
 31 76  1  0
 32 77  1  0
 32 78  1  0
 33 79  1  0
M  CHG  3   8   1  16   1  26   1
M  END
>  <UniqueID>  (7) 
7

>  <SMILES>  (7) 
CCN(CC)CC[NH2+]c1c2ccccc2[n+](C)c2cc(C)c(OCC[N+]3(C)CCCCC3)cc12

>  <Energy>  (7) 
132.00846241408692

>  <Genealogy>  (7) 
CCN(CC)CC[NH2+]c1c2ccccc2[n+](C)c2cc(C)c(OCC[N+]3(C)CCCCC3)cc12 (protonated)
CCN(CC)CC[NH2+]c1c2ccccc2[n+](C)c2cc(C)c(OCC[N+]3(C)CCCCC3)cc12 (3D coordinates assigned)
CCN(CC)CC[NH2+]c1c2ccccc2[n+](C)c2cc(C)c(OCC[N+]3(C)CCCCC3)cc12 (nonaromatic ring conformer: 132.00846241408692 kcal/mol)

>  <smiles>  (7) 
CCN(CC)CCNc1c2ccccc2[n+](C)c2cc(C)c(OCC[N+]3(C)CCCCC3)cc12

>  <score_type>  (7) 
oracle

>  <origin>  (7) 
adg

>  <m_score__min__energy>  (7) 
-4.29

>  <m_primary>  (7) 
energy

$$$$
7:0
     RDKit          3D

 53 57  0  0  0  0  0  0  0  0999 V2000
   57.2190   32.6420   40.6160 C   0  0  0  0  0  0  0  0  0  0  0  0
   58.4210   32.3720   41.5190 C   0  0  0  0  0  0  0  0  0  0  0  0
   58.0270   31.5770   42.6910 N   0  0  0  0  0  0  0  0  0  0  0  0
   56.6410   31.1020   42.5520 C   0  0  0  0  0  0  0  0  0  0  0  0
   56.4910   29.6540   43.0450 C   0  0  0  0  0  0  0  0  0  0  0  0
   57.7750   29.0910   43.4710 N   0  0  0  0  0  0  0  0  0  0  0  0
   58.2140   29.0630   44.8420 C   0  0  0  0  0  0  0  0  0  0  0  0
   58.2680   27.8600   45.5890 C   0  0  0  0  0  0  0  0  0  0  0  0
   57.8880   26.6270   45.0200 C   0  0  0  0  0  0  0  0  0  0  0  0
   57.9800   25.4450   45.7540 C   0  0  0  0  0  0  0  0  0  0  0  0
   58.4560   25.4660   47.0600 C   0  0  0  0  0  0  0  0  0  0  0  0
   58.8580   26.6660   47.6450 C   0  0  0  0  0  0  0  0  0  0  0  0
   58.7850   27.8840   46.9300 C   0  0  0  0  0  0  0  0  0  0  0  0
   59.2220   29.0720   47.4930 N   0  0  0  0  0  0  0  0  0  0  0  0
   60.1920   29.0400   48.6030 C   0  0  0  0  0  0  0  0  0  0  0  0
   58.9410   30.2390   46.8290 C   0  0  0  0  0  0  0  0  0  0  0  0
   58.5710   30.2360   45.5010 C   0  0  0  0  0  0  0  0  0  0  0  0
   58.6190   31.4470   44.9930 O   0  0  0  0  0  0  0  0  0  0  0  0
   58.9860   32.2580   45.9590 C   0  0  0  0  0  0  0  0  0  0  0  0
   59.1980   33.6270   45.8450 C   0  0  0  0  0  0  0  0  0  0  0  0
   59.5450   34.3450   46.9970 C   0  0  0  0  0  0  0  0  0  0  0  0
   59.5680   33.7080   48.2570 C   0  0  0  0  0  0  0  0  0  0  0  0
   59.7820   34.4630   49.4220 C   0  0  0  0  0  0  0  0  0  0  0  0
   59.6480   33.8690   50.6780 C   0  0  0  0  0  0  0  0  0  0  0  0
   59.2590   32.5330   50.7840 C   0  0  0  0  0  0  0  0  0  0  0  0
   59.0590   31.7640   49.6340 C   0  0  0  0  0  0  0  0  0  0  0  0
   59.2980   32.3100   48.3620 C   0  0  0  0  0  0  0  0  0  0  0  0
   59.1380   31.5850   47.1600 C   0  0  0  0  0  0  0  0  0  0  0  0
   56.3323   32.8412   41.2357 H   0  0  0  0  0  0  0  0  0  0  0  0
   57.4264   33.5159   39.9810 H   0  0  0  0  0  0  0  0  0  0  0  0
   57.0327   31.7633   39.9810 H   0  0  0  0  0  0  0  0  0  0  0  0
   59.1832   31.8204   40.9491 H   0  0  0  0  0  0  0  0  0  0  0  0
   58.8238   33.3349   41.8661 H   0  0  0  0  0  0  0  0  0  0  0  0
   58.6690   30.7550   42.7820 H   0  0  0  0  0  0  0  0  0  0  0  0
   58.1060   32.1750   43.5470 H   0  0  0  0  0  0  0  0  0  0  0  0
   55.9792   31.7516   43.1437 H   0  0  0  0  0  0  0  0  0  0  0  0
   56.3698   31.1342   41.4864 H   0  0  0  0  0  0  0  0  0  0  0  0
   55.7945   29.6375   43.8962 H   0  0  0  0  0  0  0  0  0  0  0  0
   56.1093   29.0458   42.2117 H   0  0  0  0  0  0  0  0  0  0  0  0
   58.4180   28.7470   42.7240 H   0  0  0  0  0  0  0  0  0  0  0  0
   57.5149   26.5973   43.9856 H   0  0  0  0  0  0  0  0  0  0  0  0
   57.6746   24.4918   45.2977 H   0  0  0  0  0  0  0  0  0  0  0  0
   58.5158   24.5303   47.6352 H   0  0  0  0  0  0  0  0  0  0  0  0
   59.2374   26.6654   48.6775 H   0  0  0  0  0  0  0  0  0  0  0  0
   59.6529   29.0578   49.5617 H   0  0  0  0  0  0  0  0  0  0  0  0
   60.7938   28.1215   48.5377 H   0  0  0  0  0  0  0  0  0  0  0  0
   60.8530   29.9168   48.5377 H   0  0  0  0  0  0  0  0  0  0  0  0
   59.0959   34.1342   44.8743 H   0  0  0  0  0  0  0  0  0  0  0  0
   59.8012   35.4119   46.9194 H   0  0  0  0  0  0  0  0  0  0  0  0
   60.0560   35.5255   49.3443 H   0  0  0  0  0  0  0  0  0  0  0  0
   59.8495   34.4555   51.5865 H   0  0  0  0  0  0  0  0  0  0  0  0
   59.1092   32.0832   51.7766 H   0  0  0  0  0  0  0  0  0  0  0  0
   58.7121   30.7242   49.7257 H   0  0  0  0  0  0  0  0  0  0  0  0
  1  2  1  0
  2  3  1  0
  3  4  1  0
  4  5  1  0
  5  6  1  0
  6  7  1  0
  7  8  2  0
  8  9  1  0
  9 10  2  0
 10 11  1  0
 11 12  2  0
 12 13  1  0
 13 14  2  0
 14 15  1  0
 14 16  1  0
 16 17  2  0
 17 18  1  0
 18 19  1  0
 19 20  2  0
 20 21  1  0
 21 22  2  0
 22 23  1  0
 23 24  2  0
 24 25  1  0
 25 26  2  0
 26 27  1  0
 27 28  2  0
 17  7  1  0
 28 19  1  0
 13  8  1  0
 28 16  1  0
 27 22  1  0
  1 29  1  0
  1 30  1  0
  1 31  1  0
  2 32  1  0
  2 33  1  0
  3 34  1  0
  3 35  1  0
  4 36  1  0
  4 37  1  0
  5 38  1  0
  5 39  1  0
  6 40  1  0
  9 41  1  0
 10 42  1  0
 11 43  1  0
 12 44  1  0
 15 45  1  0
 15 46  1  0
 15 47  1  0
 20 48  1  0
 21 49  1  0
 23 50  1  0
 24 51  1  0
 25 52  1  0
 26 53  1  0
M  CHG  2   3   1  14   1
M  END
>  <UniqueID>  (8) 
8

>  <SMILES>  (8) 
CC[NH2+]CCNc1c2ccccc2[n+](C)c2c1oc1ccc3ccccc3c12

>  <Energy>  (8) 
126.47572376968567

>  <Genealogy>  (8) 
CC[NH2+]CCNc1c2ccccc2[n+](C)c2c1oc1ccc3ccccc3c12 (protonated)
CC[NH2+]CCNc1c2ccccc2[n+](C)c2c1oc1ccc3ccccc3c12 (3D coordinates assigned)
CC[NH2+]CCNc1c2ccccc2[n+](C)c2c1oc1ccc3ccccc3c12 (optimized conformer: 126.47572376968567 kcal/mol)

>  <smiles>  (8) 
CCNCCNc1c2ccccc2[n+](C)c2c1oc1ccc3ccccc3c12

>  <score_type>  (8) 
oracle

>  <origin>  (8) 
adg

>  <m_score__min__energy>  (8) 
-5.2400000000000002

>  <m_primary>  (8) 
energy

$$$$
8:0
     RDKit          3D

 23 23  0  0  0  0  0  0  0  0999 V2000
   57.5430   32.3360   41.1800 C   0  0  0  0  0  0  0  0  0  0  0  0
   57.0570   31.3880   42.2740 C   0  0  0  0  0  0  0  0  0  0  0  0
   57.5750   31.8160   43.6290 C   0  0  0  0  0  0  0  0  0  0  0  0
   58.1360   33.1020   43.7420 C   0  0  0  0  0  0  0  0  0  0  0  0
   58.6650   33.5460   44.9530 C   0  0  0  0  0  0  0  0  0  0  0  0
   58.6470   32.7150   46.0690 C   0  0  0  0  0  0  0  0  0  0  0  0
   58.1020   31.4330   45.9790 C   0  0  0  0  0  0  0  0  0  0  0  0
   57.5640   30.9640   44.7670 C   0  0  0  0  0  0  0  0  0  0  0  0
   56.8720   29.3320   44.7230 S   0  0  0  0  0  0  0  0  0  0  0  0
   57.5070   28.4280   43.3910 N   0  0  0  0  0  0  0  0  0  0  0  0
   57.2080   28.6090   45.9990 O   0  0  0  0  0  0  0  0  0  0  0  0
   55.3790   29.4170   44.5710 O   0  0  0  0  0  0  0  0  0  0  0  0
   57.9987   33.2248   41.6408 H   0  0  0  0  0  0  0  0  0  0  0  0
   58.2895   31.8233   40.5555 H   0  0  0  0  0  0  0  0  0  0  0  0
   56.6910   32.6428   40.5555 H   0  0  0  0  0  0  0  0  0  0  0  0
   55.9571   31.3919   42.2913 H   0  0  0  0  0  0  0  0  0  0  0  0
   57.4345   30.3779   42.0567 H   0  0  0  0  0  0  0  0  0  0  0  0
   58.1573   33.7646   42.8642 H   0  0  0  0  0  0  0  0  0  0  0  0
   59.0973   34.5548   45.0264 H   0  0  0  0  0  0  0  0  0  0  0  0
   59.0630   33.0689   47.0238 H   0  0  0  0  0  0  0  0  0  0  0  0
   58.0932   30.7823   46.8659 H   0  0  0  0  0  0  0  0  0  0  0  0
   56.7150   27.8740   42.9910 H   0  0  0  0  0  0  0  0  0  0  0  0
   57.7850   29.1190   42.6580 H   0  0  0  0  0  0  0  0  0  0  0  0
  1  2  1  0
  2  3  1  0
  3  4  2  0
  4  5  1  0
  5  6  2  0
  6  7  1  0
  7  8  2  0
  8  9  1  0
  9 10  1  0
  9 11  2  0
  9 12  2  0
  8  3  1  0
  1 13  1  0
  1 14  1  0
  1 15  1  0
  2 16  1  0
  2 17  1  0
  4 18  1  0
  5 19  1  0
  6 20  1  0
  7 21  1  0
 10 22  1  0
 10 23  1  0
M  END
>  <UniqueID>  (9) 
9

>  <SMILES>  (9) 
CCc1ccccc1S(N)(=O)=O

>  <Energy>  (9) 
19.83432405191428

>  <Genealogy>  (9) 
CCc1ccccc1S(N)(=O)=O (3D coordinates assigned)
CCc1ccccc1S(N)(=O)=O (optimized conformer: 19.83432405191428 kcal/mol)

>  <smiles>  (9) 
CCc1ccccc1S(N)(=O)=O

>  <score_type>  (9) 
oracle

>  <origin>  (9) 
adg

>  <m_score__min__energy>  (9) 
-6.3799999999999999

>  <m_primary>  (9) 
energy

$$$$
9:0
     RDKit          3D

 44 46  0  0  0  0  0  0  0  0999 V2000
   58.1870   32.6140   51.5660 C   0  0  0  0  0  0  0  0  0  0  0  0
   57.4560   31.2710   51.4940 C   0  0  0  0  0  0  0  0  0  0  0  0
   58.1050   30.3750   50.5250 N   0  0  0  0  0  0  0  0  0  0  0  0
   58.7160   31.1450   49.4300 C   0  0  0  0  0  0  0  0  0  0  0  0
   58.8170   30.2910   48.1820 C   0  0  0  0  0  0  0  0  0  0  0  0
   58.9170   28.9540   48.3300 C   0  0  0  0  0  0  0  0  0  0  0  0
   58.9190   27.9560   47.2290 C   0  0  0  0  0  0  0  0  0  0  0  0
   59.2570   26.6290   47.5420 C   0  0  0  0  0  0  0  0  0  0  0  0
   59.2320   25.6390   46.5620 C   0  0  0  0  0  0  0  0  0  0  0  0
   58.8540   25.9500   45.2590 C   0  0  0  0  0  0  0  0  0  0  0  0
   58.4970   27.2640   44.9160 C   0  0  0  0  0  0  0  0  0  0  0  0
   58.1120   27.5600   43.4890 C   0  0  0  0  0  0  0  0  0  0  0  0
   58.5490   28.2780   45.9050 C   0  0  0  0  0  0  0  0  0  0  0  0
   58.1370   29.9440   45.5420 S   0  0  0  0  0  0  0  0  0  0  0  0
   56.6510   30.0920   45.3710 O   0  0  0  0  0  0  0  0  0  0  0  0
   58.8510   30.3920   44.2960 O   0  0  0  0  0  0  0  0  0  0  0  0
   58.6730   30.9000   46.8780 N   0  0  0  0  0  0  0  0  0  0  0  0
   59.0720   32.2580   46.6300 C   0  0  0  0  0  0  0  0  0  0  0  0
   60.3940   32.6620   46.8730 C   0  0  0  0  0  0  0  0  0  0  0  0
   60.7880   33.9780   46.6090 C   0  0  0  0  0  0  0  0  0  0  0  0
   59.8670   34.8950   46.0940 C   0  0  0  0  0  0  0  0  0  0  0  0
   58.5520   34.4950   45.8430 C   0  0  0  0  0  0  0  0  0  0  0  0
   58.1550   33.1800   46.1050 C   0  0  0  0  0  0  0  0  0  0  0  0
   58.3388   32.8928   52.6192 H   0  0  0  0  0  0  0  0  0  0  0  0
   59.1626   32.5277   51.0653 H   0  0  0  0  0  0  0  0  0  0  0  0
   57.5849   33.3865   51.0653 H   0  0  0  0  0  0  0  0  0  0  0  0
   57.4701   30.7989   52.4874 H   0  0  0  0  0  0  0  0  0  0  0  0
   56.4201   31.4501   51.1701 H   0  0  0  0  0  0  0  0  0  0  0  0
   57.3890   29.7190   50.1300 H   0  0  0  0  0  0  0  0  0  0  0  0
   58.8550   29.8240   51.0140 H   0  0  0  0  0  0  0  0  0  0  0  0
   58.0958   32.0281   49.2167 H   0  0  0  0  0  0  0  0  0  0  0  0
   59.7259   31.4593   49.7324 H   0  0  0  0  0  0  0  0  0  0  0  0
   59.0048   28.5684   49.3564 H   0  0  0  0  0  0  0  0  0  0  0  0
   59.5444   26.3688   48.5714 H   0  0  0  0  0  0  0  0  0  0  0  0
   59.5123   24.6069   46.8192 H   0  0  0  0  0  0  0  0  0  0  0  0
   58.8348   25.1610   44.4927 H   0  0  0  0  0  0  0  0  0  0  0  0
   57.2400   28.2304   43.4760 H   0  0  0  0  0  0  0  0  0  0  0  0
   58.9549   28.0448   42.9748 H   0  0  0  0  0  0  0  0  0  0  0  0
   57.8601   26.6208   42.9748 H   0  0  0  0  0  0  0  0  0  0  0  0
   61.1228   31.9413   47.2724 H   0  0  0  0  0  0  0  0  0  0  0  0
   61.8236   34.2916   46.8068 H   0  0  0  0  0  0  0  0  0  0  0  0
   60.1771   35.9298   45.8867 H   0  0  0  0  0  0  0  0  0  0  0  0
   57.8270   35.2165   45.4382 H   0  0  0  0  0  0  0  0  0  0  0  0
   57.1206   32.8679   45.8987 H   0  0  0  0  0  0  0  0  0  0  0  0
  1  2  1  0
  2  3  1  0
  3  4  1  0
  4  5  1  0
  5  6  2  0
  6  7  1  0
  7  8  2  0
  8  9  1  0
  9 10  2  0
 10 11  1  0
 11 12  1  0
 11 13  2  0
 13 14  1  0
 14 15  2  0
 14 16  2  0
 14 17  1  0
 17 18  1  0
 18 19  2  0
 19 20  1  0
 20 21  2  0
 21 22  1  0
 22 23  2  0
 17  5  1  0
 23 18  1  0
 13  7  1  0
  1 24  1  0
  1 25  1  0
  1 26  1  0
  2 27  1  0
  2 28  1  0
  3 29  1  0
  3 30  1  0
  4 31  1  0
  4 32  1  0
  6 33  1  0
  8 34  1  0
  9 35  1  0
 10 36  1  0
 12 37  1  0
 12 38  1  0
 12 39  1  0
 19 40  1  0
 20 41  1  0
 21 42  1  0
 22 43  1  0
 23 44  1  0
M  CHG  1   3   1
M  END
>  <UniqueID>  (10) 
10

>  <SMILES>  (10) 
CC[NH2+]CC1=Cc2cccc(C)c2S(=O)(=O)N1c1ccccc1

>  <Energy>  (10) 
55.872367785493516

>  <Genealogy>  (10) 
CC[NH2+]CC1=Cc2cccc(C)c2S(=O)(=O)N1c1ccccc1 (protonated)
CC[NH2+]CC1=Cc2cccc(C)c2S(=O)(=O)N1c1ccccc1 (3D coordinates assigned)
CC[NH2+]CC1=Cc2cccc(C)c2S(=O)(=O)N1c1ccccc1 (nonaromatic ring conformer: 55.872367785493516 kcal/mol)

>  <smiles>  (10) 
CCNCC1=Cc2cccc(C)c2S(=O)(=O)N1c1ccccc1

>  <score_type>  (10) 
oracle

>  <origin>  (10) 
adg

>  <m_score__min__energy>  (10) 
-6.75

>  <m_primary>  (10) 
energy

$$$$
10:0
     RDKit          3D

 59 62  0  0  0  0  0  0  0  0999 V2000
   56.8400   30.3670   44.2520 C   0  0  0  0  0  0  0  0  0  0  0  0
   58.2680   30.8920   44.1310 C   0  0  0  0  0  0  0  0  0  0  0  0
   58.4190   32.1620   44.8700 N   0  0  0  0  0  0  0  0  0  0  0  0
   57.9920   32.0030   46.2760 C   0  0  0  0  0  0  0  0  0  0  0  0
   57.7870   33.3620   46.9830 C   0  0  0  0  0  0  0  0  0  0  0  0
   58.4810   34.4710   46.2940 N   0  0  0  0  0  0  0  0  0  0  0  0
   59.9550   34.3940   46.4080 C   0  0  0  0  0  0  0  0  0  0  0  0
   60.3650   33.2590   47.3100 C   0  0  0  0  0  0  0  0  0  0  0  0
   60.1040   33.3270   48.6870 C   0  0  0  0  0  0  0  0  0  0  0  0
   60.4530   32.2640   49.5230 C   0  0  0  0  0  0  0  0  0  0  0  0
   61.0570   31.1120   48.9950 C   0  0  0  0  0  0  0  0  0  0  0  0
   61.4230   29.9790   49.8740 C   0  0  0  0  0  0  0  0  0  0  0  0
   62.3040   30.0570   50.9360 C   0  0  0  0  0  0  0  0  0  0  0  0
   62.2410   28.8080   51.5220 C   0  0  0  0  0  0  0  0  0  0  0  0
   63.0540   28.3490   52.6910 C   0  0  0  0  0  0  0  0  0  0  0  0
   62.6030   28.9590   53.8470 F   0  0  0  0  0  0  0  0  0  0  0  0
   64.3800   28.6810   52.4870 F   0  0  0  0  0  0  0  0  0  0  0  0
   62.9450   26.9780   52.8350 F   0  0  0  0  0  0  0  0  0  0  0  0
   61.3990   28.0160   50.8320 N   0  0  0  0  0  0  0  0  0  0  0  0
   60.9000   28.7300   49.8340 N   0  0  0  0  0  0  0  0  0  0  0  0
   60.0170   28.1690   48.8480 C   0  0  0  0  0  0  0  0  0  0  0  0
   60.2760   26.8950   48.3210 C   0  0  0  0  0  0  0  0  0  0  0  0
   59.4300   26.3450   47.3530 C   0  0  0  0  0  0  0  0  0  0  0  0
   58.3200   27.0660   46.8950 C   0  0  0  0  0  0  0  0  0  0  0  0
   57.2640   26.3740   45.6680 S   0  0  0  0  0  0  0  0  0  0  0  0
   55.6150   26.6710   46.0910 N   0  0  0  0  0  0  0  0  0  0  0  0
   57.5610   26.9960   44.3320 O   0  0  0  0  0  0  0  0  0  0  0  0
   57.4960   24.8920   45.5710 O   0  0  0  0  0  0  0  0  0  0  0  0
   58.0740   28.3500   47.3960 C   0  0  0  0  0  0  0  0  0  0  0  0
   58.9200   28.9020   48.3630 C   0  0  0  0  0  0  0  0  0  0  0  0
   61.3360   31.0540   47.6200 C   0  0  0  0  0  0  0  0  0  0  0  0
   60.9870   32.1160   46.7820 C   0  0  0  0  0  0  0  0  0  0  0  0
   58.0260   34.6030   44.8870 C   0  0  0  0  0  0  0  0  0  0  0  0
   57.6650   33.2550   44.2310 C   0  0  0  0  0  0  0  0  0  0  0  0
   56.5741   30.2692   45.3149 H   0  0  0  0  0  0  0  0  0  0  0  0
   56.1484   31.0697   43.7642 H   0  0  0  0  0  0  0  0  0  0  0  0
   56.7683   29.3837   43.7642 H   0  0  0  0  0  0  0  0  0  0  0  0
   58.9633   30.1474   44.5458 H   0  0  0  0  0  0  0  0  0  0  0  0
   58.4914   31.0708   43.0689 H   0  0  0  0  0  0  0  0  0  0  0  0
   57.0434   31.4465   46.2970 H   0  0  0  0  0  0  0  0  0  0  0  0
   58.7867   31.4617   46.8103 H   0  0  0  0  0  0  0  0  0  0  0  0
   56.7102   33.5847   47.0132 H   0  0  0  0  0  0  0  0  0  0  0  0
   58.2123   33.2794   47.9941 H   0  0  0  0  0  0  0  0  0  0  0  0
   60.3858   34.2337   45.4086 H   0  0  0  0  0  0  0  0  0  0  0  0
   60.3243   35.3365   46.8384 H   0  0  0  0  0  0  0  0  0  0  0  0
   59.6226   34.2211   49.1098 H   0  0  0  0  0  0  0  0  0  0  0  0
   60.2532   32.3299   50.6027 H   0  0  0  0  0  0  0  0  0  0  0  0
   62.9158   30.9176   51.2442 H   0  0  0  0  0  0  0  0  0  0  0  0
   61.1495   26.3255   48.6712 H   0  0  0  0  0  0  0  0  0  0  0  0
   59.6369   25.3427   46.9498 H   0  0  0  0  0  0  0  0  0  0  0  0
   55.1480   27.0570   45.2400 H   0  0  0  0  0  0  0  0  0  0  0  0
   57.2125   28.9264   47.0278 H   0  0  0  0  0  0  0  0  0  0  0  0
   58.7261   29.9148   48.7460 H   0  0  0  0  0  0  0  0  0  0  0  0
   61.8325   30.1668   47.2000 H   0  0  0  0  0  0  0  0  0  0  0  0
   61.2002   32.0566   45.7045 H   0  0  0  0  0  0  0  0  0  0  0  0
   57.1363   35.2496   44.8675 H   0  0  0  0  0  0  0  0  0  0  0  0
   58.8625   35.0293   44.3139 H   0  0  0  0  0  0  0  0  0  0  0  0
   56.5870   33.0704   44.3486 H   0  0  0  0  0  0  0  0  0  0  0  0
   57.9240   33.2941   43.1626 H   0  0  0  0  0  0  0  0  0  0  0  0
  1  2  1  0
  2  3  1  0
  3  4  1  0
  4  5  1  0
  5  6  1  0
  6  7  1  0
  7  8  1  0
  8  9  2  0
  9 10  1  0
 10 11  2  0
 11 12  1  0
 12 13  2  0
 13 14  1  0
 14 15  1  0
 15 16  1  0
 15 17  1  0
 15 18  1  0
 14 19  2  0
 19 20  1  0
 20 21  1  0
 21 22  2  0
 22 23  1  0
 23 24  2  0
 24 25  1  0
 25 26  1  0
 25 27  2  0
 25 28  2  0
 24 29  1  0
 29 30  2  0
 11 31  1  0
 31 32  2  0
  6 33  1  0
 33 34  1  0
 34  3  1  0
 32  8  1  0
 20 12  1  0
 30 21  1  0
  1 35  1  0
  1 36  1  0
  1 37  1  0
  2 38  1  0
  2 39  1  0
  4 40  1  0
  4 41  1  0
  5 42  1  0
  5 43  1  0
  7 44  1  0
  7 45  1  0
  9 46  1  0
 10 47  1  0
 13 48  1  0
 22 49  1  0
 23 50  1  0
 26 51  1  0
 29 52  1  0
 30 53  1  0
 31 54  1  0
 32 55  1  0
 33 56  1  0
 33 57  1  0
 34 58  1  0
 34 59  1  0
M  CHG  1  26  -1
M  END
>  <UniqueID>  (11) 
11

>  <SMILES>  (11) 
CCN1CCN(Cc2ccc(-c3cc(C(F)(F)F)nn3-c3ccc(S([NH-])(=O)=O)cc3)cc2)CC1

>  <Energy>  (11) 
109.03929971753169

>  <Genealogy>  (11) 
CCN1CCN(Cc2ccc(-c3cc(C(F)(F)F)nn3-c3ccc(S([NH-])(=O)=O)cc3)cc2)CC1 (protonated)
CCN1CCN(Cc2ccc(-c3cc(C(F)(F)F)nn3-c3ccc(S([NH-])(=O)=O)cc3)cc2)CC1 (3D coordinates assigned)
CCN1CCN(Cc2ccc(-c3cc(C(F)(F)F)nn3-c3ccc(S([NH-])(=O)=O)cc3)cc2)CC1 (nonaromatic ring conformer: 109.03929971753169 kcal/mol)

>  <smiles>  (11) 
CCN1CCN(Cc2ccc(-c3cc(C(F)(F)F)nn3-c3ccc(S(N)(=O)=O)cc3)cc2)CC1

>  <score_type>  (11) 
oracle

>  <origin>  (11) 
adg

>  <m_score__min__energy>  (11) 
-10.74

>  <m_primary>  (11) 
energy

$$$$
11:0
     RDKit          3D

 46 49  0  0  0  0  0  0  0  0999 V2000
   55.8960   29.7270   43.4650 C   0  0  0  0  0  0  0  0  0  0  0  0
   56.9980   30.7750   43.5840 C   0  0  0  0  0  0  0  0  0  0  0  0
   56.6800   31.7340   44.6520 N   0  0  0  0  0  0  0  0  0  0  0  0
   57.4130   32.9960   44.4800 C   0  0  0  0  0  0  0  0  0  0  0  0
   57.2390   33.8880   45.7140 C   0  0  0  0  0  0  0  0  0  0  0  0
   57.5630   33.1540   46.9380 N   0  0  0  0  0  0  0  0  0  0  0  0
   58.8970   32.7150   47.2410 C   0  0  0  0  0  0  0  0  0  0  0  0
   59.8130   33.6340   47.7520 C   0  0  0  0  0  0  0  0  0  0  0  0
   61.1180   33.2520   48.0640 C   0  0  0  0  0  0  0  0  0  0  0  0
   62.0090   34.2130   48.5720 C   0  0  0  0  0  0  0  0  0  0  0  0
   63.3190   33.8620   48.8910 C   0  0  0  0  0  0  0  0  0  0  0  0
   63.7530   32.5540   48.7050 C   0  0  0  0  0  0  0  0  0  0  0  0
   62.8820   31.5840   48.2010 C   0  0  0  0  0  0  0  0  0  0  0  0
   61.5420   31.9090   47.8690 C   0  0  0  0  0  0  0  0  0  0  0  0
   60.6080   30.9550   47.3560 C   0  0  0  0  0  0  0  0  0  0  0  0
   60.9370   29.5960   47.1600 C   0  0  0  0  0  0  0  0  0  0  0  0
   59.9810   28.6890   46.6870 C   0  0  0  0  0  0  0  0  0  0  0  0
   60.3280   27.3390   46.5110 C   0  0  0  0  0  0  0  0  0  0  0  0
   59.3730   26.4370   46.0490 C   0  0  0  0  0  0  0  0  0  0  0  0
   58.0840   26.8790   45.7660 C   0  0  0  0  0  0  0  0  0  0  0  0
   57.7650   28.2250   45.9480 C   0  0  0  0  0  0  0  0  0  0  0  0
   58.7060   29.1130   46.4010 N   0  0  0  0  0  0  0  0  0  0  0  0
   58.3570   30.4210   46.5700 C   0  0  0  0  0  0  0  0  0  0  0  0
   59.2850   31.3710   47.0410 C   0  0  0  0  0  0  0  0  0  0  0  0
   55.5725   29.4193   44.4703 H   0  0  0  0  0  0  0  0  0  0  0  0
   55.0415   30.1538   42.9194 H   0  0  0  0  0  0  0  0  0  0  0  0
   56.2794   28.8521   42.9194 H   0  0  0  0  0  0  0  0  0  0  0  0
   57.9498   30.2753   43.8172 H   0  0  0  0  0  0  0  0  0  0  0  0
   57.0794   31.3171   42.6303 H   0  0  0  0  0  0  0  0  0  0  0  0
   55.6570   31.9510   44.5950 H   0  0  0  0  0  0  0  0  0  0  0  0
   58.4818   32.7778   44.3384 H   0  0  0  0  0  0  0  0  0  0  0  0
   57.0146   33.5227   43.6003 H   0  0  0  0  0  0  0  0  0  0  0  0
   57.9076   34.7572   45.6274 H   0  0  0  0  0  0  0  0  0  0  0  0
   56.1899   34.2145   45.7669 H   0  0  0  0  0  0  0  0  0  0  0  0
   56.8050   32.9950   47.6390 H   0  0  0  0  0  0  0  0  0  0  0  0
   59.5016   34.6768   47.9116 H   0  0  0  0  0  0  0  0  0  0  0  0
   61.6698   35.2491   48.7187 H   0  0  0  0  0  0  0  0  0  0  0  0
   64.0099   34.6194   49.2899 H   0  0  0  0  0  0  0  0  0  0  0  0
   64.7885   32.2810   48.9562 H   0  0  0  0  0  0  0  0  0  0  0  0
   63.2409   30.5538   48.0598 H   0  0  0  0  0  0  0  0  0  0  0  0
   61.9560   29.2458   47.3814 H   0  0  0  0  0  0  0  0  0  0  0  0
   61.3486   26.9964   46.7369 H   0  0  0  0  0  0  0  0  0  0  0  0
   59.6366   25.3784   45.9082 H   0  0  0  0  0  0  0  0  0  0  0  0
   57.3231   26.1730   45.4019 H   0  0  0  0  0  0  0  0  0  0  0  0
   56.7471   28.5776   45.7255 H   0  0  0  0  0  0  0  0  0  0  0  0
   57.3311   30.7402   46.3340 H   0  0  0  0  0  0  0  0  0  0  0  0
  1  2  1  0
  2  3  1  0
  3  4  1  0
  4  5  1  0
  5  6  1  0
  6  7  1  0
  7  8  2  0
  8  9  1  0
  9 10  2  0
 10 11  1  0
 11 12  2  0
 12 13  1  0
 13 14  2  0
 14 15  1  0
 15 16  2  0
 16 17  1  0
 17 18  2  0
 18 19  1  0
 19 20  2  0
 20 21  1  0
 21 22  2  0
 22 23  1  0
 23 24  2  0
 24  7  1  0
 14  9  1  0
 24 15  1  0
 22 17  1  0
  1 25  1  0
  1 26  1  0
  1 27  1  0
  2 28  1  0
  2 29  1  0
  3 30  1  0
  4 31  1  0
  4 32  1  0
  5 33  1  0
  5 34  1  0
  6 35  1  0
  8 36  1  0
 10 37  1  0
 11 38  1  0
 12 39  1  0
 13 40  1  0
 16 41  1  0
 18 42  1  0
 19 43  1  0
 20 44  1  0
 21 45  1  0
 23 46  1  0
M  CHG  1  22   1
M  END
>  <UniqueID>  (12) 
12

>  <SMILES>  (12) 
CCNCCNc1cc2ccccc2c2cc3cccc[n+]3cc12

>  <Energy>  (12) 
62.21923044365725

>  <Genealogy>  (12) 
CCNCCNc1cc2ccccc2c2cc3cccc[n+]3cc12 (3D coordinates assigned)
CCNCCNc1cc2ccccc2c2cc3cccc[n+]3cc12 (optimized conformer: 62.21923044365725 kcal/mol)

>  <smiles>  (12) 
CCNCCNc1cc2ccccc2c2cc3cccc[n+]3cc12

>  <score_type>  (12) 
oracle

>  <origin>  (12) 
adg

>  <m_score__min__energy>  (12) 
-6.2999999999999998

>  <m_primary>  (12) 
energy

$$$$
12:0
     RDKit          3D

 66 68  0  0  0  0  0  0  0  0999 V2000
   64.0713   32.8206   47.0623 H   0  0  0  0  0  0  0  0  0  0  0  0
   63.0190   32.9260   47.3650 C   0  0  0  0  0  0  0  0  0  0  0  0
   62.5270   32.1660   48.3670 N   0  0  0  0  0  0  0  0  0  0  0  0
   61.2350   32.2570   48.7740 C   0  0  0  0  0  0  0  0  0  0  0  0
   60.8090   31.4220   49.8130 C   0  0  0  0  0  0  0  0  0  0  0  0
   61.5207   30.7260   50.2810 H   0  0  0  0  0  0  0  0  0  0  0  0
   59.4920   31.4660   50.2580 C   0  0  0  0  0  0  0  0  0  0  0  0
   58.9660   30.4110   51.5590 Cl  0  0  0  0  0  0  0  0  0  0  0  0
   58.5920   32.3450   49.6640 C   0  0  0  0  0  0  0  0  0  0  0  0
   57.5501   32.3782   50.0153 H   0  0  0  0  0  0  0  0  0  0  0  0
   59.0000   33.1870   48.6240 C   0  0  0  0  0  0  0  0  0  0  0  0
   58.2698   33.8690   48.1639 H   0  0  0  0  0  0  0  0  0  0  0  0
   60.3360   33.1780   48.1520 C   0  0  0  0  0  0  0  0  0  0  0  0
   60.8580   34.0040   47.0910 C   0  0  0  0  0  0  0  0  0  0  0  0
   60.2140   34.9260   46.4170 N   0  0  0  0  0  0  0  0  0  0  0  0
   59.2980   34.9320   45.2800 C   0  0  0  0  0  0  0  0  0  0  0  0
   59.7374   34.3386   44.4646 H   0  0  0  0  0  0  0  0  0  0  0  0
   59.1441   35.9756   44.9682 H   0  0  0  0  0  0  0  0  0  0  0  0
   57.9290   34.3340   45.6510 C   0  0  0  0  0  0  0  0  0  0  0  0
   57.1914   35.1492   45.6886 H   0  0  0  0  0  0  0  0  0  0  0  0
   58.0468   33.8336   46.6235 H   0  0  0  0  0  0  0  0  0  0  0  0
   57.4340   33.2760   44.6550 C   0  0  0  0  0  0  0  0  0  0  0  0
   58.1352   33.2187   43.8094 H   0  0  0  0  0  0  0  0  0  0  0  0
   56.4335   33.5629   44.2990 H   0  0  0  0  0  0  0  0  0  0  0  0
   57.3480   31.9470   45.3090 N   0  0  0  0  0  0  0  0  0  0  0  0
   58.6170   31.5770   45.9790 C   0  0  0  0  0  0  0  0  0  0  0  0
   58.6922   32.1200   46.9327 H   0  0  0  0  0  0  0  0  0  0  0  0
   59.4542   31.8440   45.3174 H   0  0  0  0  0  0  0  0  0  0  0  0
   58.6720   30.0700   46.2540 C   0  0  0  0  0  0  0  0  0  0  0  0
   57.7939   29.7816   46.8504 H   0  0  0  0  0  0  0  0  0  0  0  0
   59.6007   29.8486   46.8003 H   0  0  0  0  0  0  0  0  0  0  0  0
   58.6740   29.2950   44.9890 N   0  0  0  0  0  0  0  0  0  0  0  0
   58.2490   27.8900   45.2050 C   0  0  0  0  0  0  0  0  0  0  0  0
   58.7260   27.5064   46.1190 H   0  0  0  0  0  0  0  0  0  0  0  0
   58.5532   27.2938   44.3321 H   0  0  0  0  0  0  0  0  0  0  0  0
   56.7230   27.7930   45.3560 C   0  0  0  0  0  0  0  0  0  0  0  0
   56.2867   27.6102   44.3629 H   0  0  0  0  0  0  0  0  0  0  0  0
   56.3826   28.7420   45.7959 H   0  0  0  0  0  0  0  0  0  0  0  0
   56.2670   26.6740   46.2980 C   0  0  0  0  0  0  0  0  0  0  0  0
   56.3191   27.0300   47.3375 H   0  0  0  0  0  0  0  0  0  0  0  0
   56.9256   25.8028   46.1667 H   0  0  0  0  0  0  0  0  0  0  0  0
   54.8930   26.2850   45.9890 N   0  0  0  0  0  0  0  0  0  0  0  0
   54.8270   24.5840   45.6420 S   0  0  0  0  0  0  0  0  0  0  0  0
   54.9170   23.7900   46.9150 O   0  0  0  0  0  0  0  0  0  0  0  0
   53.5310   24.2620   44.9510 O   0  0  0  0  0  0  0  0  0  0  0  0
   56.1790   24.1390   44.5590 C   0  0  0  0  0  0  0  0  0  0  0  0
   56.9001   23.5336   45.1277 H   0  0  0  0  0  0  0  0  0  0  0  0
   56.6300   25.0726   44.1916 H   0  0  0  0  0  0  0  0  0  0  0  0
   55.7200   23.3330   43.3330 C   0  0  0  0  0  0  0  0  0  0  0  0
   55.6912   24.0067   42.4639 H   0  0  0  0  0  0  0  0  0  0  0  0
   54.7297   22.9173   43.5704 H   0  0  0  0  0  0  0  0  0  0  0  0
   56.6450   22.1430   42.9990 C   0  0  0  0  0  0  0  0  0  0  0  0
   57.1513   22.3462   42.0438 H   0  0  0  0  0  0  0  0  0  0  0  0
   56.0210   21.2391   42.9397 H   0  0  0  0  0  0  0  0  0  0  0  0
   57.7040   21.9090   44.0760 C   0  0  0  0  0  0  0  0  0  0  0  0
   57.2445   22.0105   45.0703 H   0  0  0  0  0  0  0  0  0  0  0  0
   58.1210   20.8970   43.9664 H   0  0  0  0  0  0  0  0  0  0  0  0
   58.5086   22.6510   43.9664 H   0  0  0  0  0  0  0  0  0  0  0  0
   57.9280   29.9610   43.8890 C   0  0  0  0  0  0  0  0  0  0  0  0
   57.4729   29.1886   43.2517 H   0  0  0  0  0  0  0  0  0  0  0  0
   58.6415   30.5785   43.3236 H   0  0  0  0  0  0  0  0  0  0  0  0
   56.8190   30.8850   44.4140 C   0  0  0  0  0  0  0  0  0  0  0  0
   56.0903   30.2806   44.9741 H   0  0  0  0  0  0  0  0  0  0  0  0
   56.3514   31.3762   43.5479 H   0  0  0  0  0  0  0  0  0  0  0  0
   62.2000   33.8400   46.7160 C   0  0  0  0  0  0  0  0  0  0  0  0
   62.6100   34.4456   45.8943 H   0  0  0  0  0  0  0  0  0  0  0  0
  1  2  1  0
  2  3  1  0
  3  4  1  0
  4  5  2  0
  5  6  1  0
  5  7  1  0
  7  8  1  0
  7  9  2  0
  9 10  1  0
  9 11  1  0
 11 12  1  0
 11 13  2  0
 13 14  1  0
 14 15  2  0
 15 16  1  0
 16 17  1  0
 16 18  1  0
 16 19  1  0
 19 20  1  0
 19 21  1  0
 19 22  1  0
 22 23  1  0
 22 24  1  0
 22 25  1  0
 25 26  1  0
 26 27  1  0
 26 28  1  0
 26 29  1  0
 29 30  1  0
 29 31  1  0
 29 32  1  0
 32 33  1  0
 33 34  1  0
 33 35  1  0
 33 36  1  0
 36 37  1  0
 36 38  1  0
 36 39  1  0
 39 40  1  0
 39 41  1  0
 39 42  1  0
 42 43  1  0
 43 44  2  0
 43 45  2  0
 43 46  1  0
 46 47  1  0
 46 48  1  0
 46 49  1  0
 49 50  1  0
 49 51  1  0
 49 52  1  0
 52 53  1  0
 52 54  1  0
 52 55  1  0
 55 56  1  0
 55 57  1  0
 55 58  1  0
 32 59  1  0
 59 60  1  0
 59 61  1  0
 59 62  1  0
 62 63  1  0
 62 64  1  0
 14 65  1  0
 65 66  1  0
 65  2  2  0
 13  4  1  0
 62 25  1  0
M  CHG  2   3  -1  42  -1
M  END
>  <UniqueID>  (13) 
13

>  <SMILES>  (13) 
CCCCS(=O)(=O)[N-]CCCN1CCN(CCC/N=c2/cc[n-]c3cc(Cl)ccc23)CC1

>  <Energy>  (13) 
87.95947714408467

>  <Genealogy>  (13) 
CCCCS(=O)(=O)[N-]CCCN1CCN(CCCN=c2cc[n-]c3cc(Cl)ccc23)CC1 (protonated)
CCCCS(=O)(=O)[N-]CCCN1CCN(CCC/N=c2/cc[n-]c3cc(Cl)ccc23)CC1 (cis-trans isomerization)
CCCCS(=O)(=O)[N-]CCCN1CCN(CCC/N=c2/cc[n-]c3cc(Cl)ccc23)CC1 (3D coordinates assigned)
CCCCS(=O)(=O)[N-]CCCN1CCN(CCC/N=c2/cc[n-]c3cc(Cl)ccc23)CC1 (nonaromatic ring conformer: 87.95947714408467 kcal/mol)

>  <smiles>  (13) 
CCCCS(=O)(=O)NCCCN1CCN(CCCN=c2cc[nH]c3cc(Cl)ccc23)CC1

>  <score_type>  (13) 
oracle

>  <origin>  (13) 
adg

>  <m_score__min__energy>  (13) 
-12.359999999999999

>  <m_primary>  (13) 
energy

$$$$
13:0
     RDKit          3D

 61 63  0  0  0  0  0  0  0  0999 V2000
   65.3930   33.6380   51.1720 C   0  0  0  0  0  0  0  0  0  0  0  0
   63.8820   33.5940   50.9030 C   0  0  0  0  0  0  0  0  0  0  0  0
   63.5000   32.5660   49.8980 N   0  0  2  0  0  0  0  0  0  0  0  0
   63.7130   31.2260   50.4870 C   0  0  0  0  0  0  0  0  0  0  0  0
   64.2750   32.7360   48.6400 C   0  0  0  0  0  0  0  0  0  0  0  0
   63.3890   32.8840   47.3840 C   0  0  0  0  0  0  0  0  0  0  0  0
   62.0120   32.8810   47.7180 O   0  0  0  0  0  0  0  0  0  0  0  0
   61.5190   34.1890   47.9560 C   0  0  0  0  0  0  0  0  0  0  0  0
   60.6310   34.1820   49.1970 C   0  0  0  0  0  0  0  0  0  0  0  0
   60.9150   33.0510   50.0010 O   0  0  0  0  0  0  0  0  0  0  0  0
   59.7700   32.6360   50.7150 C   0  0  0  0  0  0  0  0  0  0  0  0
   58.9250   31.7190   49.8310 C   0  0  0  0  0  0  0  0  0  0  0  0
   59.6130   31.4080   48.5740 N   0  0  0  0  0  0  0  0  0  0  0  0
   58.8910   31.1430   47.3570 C   0  0  0  0  0  0  0  0  0  0  0  0
   58.4810   32.1980   46.5250 C   0  0  0  0  0  0  0  0  0  0  0  0
   58.5810   33.5380   46.9550 C   0  0  0  0  0  0  0  0  0  0  0  0
   58.1400   34.5810   46.1440 C   0  0  0  0  0  0  0  0  0  0  0  0
   57.5750   34.3070   44.9030 C   0  0  0  0  0  0  0  0  0  0  0  0
   57.4560   32.9900   44.4620 C   0  0  0  0  0  0  0  0  0  0  0  0
   57.9240   31.9070   45.2510 C   0  0  0  0  0  0  0  0  0  0  0  0
   57.8350   30.5980   44.8160 N   0  0  0  0  0  0  0  0  0  0  0  0
   57.5460   30.3100   43.3930 C   0  0  0  0  0  0  0  0  0  0  0  0
   58.0380   29.5600   45.7070 C   0  0  0  0  0  0  0  0  0  0  0  0
   57.7040   28.2200   45.3830 C   0  0  0  0  0  0  0  0  0  0  0  0
   57.9610   27.1760   46.2740 C   0  0  0  0  0  0  0  0  0  0  0  0
   57.5220   25.3790   45.7970 Br  0  0  0  0  0  0  0  0  0  0  0  0
   58.5350   27.4410   47.5130 C   0  0  0  0  0  0  0  0  0  0  0  0
   58.8360   28.7510   47.8750 C   0  0  0  0  0  0  0  0  0  0  0  0
   58.5880   29.8200   46.9900 C   0  0  0  0  0  0  0  0  0  0  0  0
   65.5722   33.6432   52.2573 H   0  0  0  0  0  0  0  0  0  0  0  0
   65.8708   32.7534   50.7257 H   0  0  0  0  0  0  0  0  0  0  0  0
   65.8185   34.5489   50.7257 H   0  0  0  0  0  0  0  0  0  0  0  0
   63.3642   33.3703   51.8474 H   0  0  0  0  0  0  0  0  0  0  0  0
   63.5914   34.5744   50.4975 H   0  0  0  0  0  0  0  0  0  0  0  0
   62.4770   32.6650   49.6910 H   0  0  0  0  0  0  0  0  0  0  0  0
   63.7010   31.3017   51.5843 H   0  0  0  0  0  0  0  0  0  0  0  0
   62.9112   30.5489   50.1573 H   0  0  0  0  0  0  0  0  0  0  0  0
   64.6852   30.8309   50.1573 H   0  0  0  0  0  0  0  0  0  0  0  0
   64.8981   33.6376   48.7344 H   0  0  0  0  0  0  0  0  0  0  0  0
   64.8761   31.8246   48.5055 H   0  0  0  0  0  0  0  0  0  0  0  0
   63.6336   33.8325   46.8835 H   0  0  0  0  0  0  0  0  0  0  0  0
   63.5854   32.0295   46.7198 H   0  0  0  0  0  0  0  0  0  0  0  0
   62.3637   34.8758   48.1138 H   0  0  0  0  0  0  0  0  0  0  0  0
   60.9316   34.5222   47.0877 H   0  0  0  0  0  0  0  0  0  0  0  0
   60.8154   35.0965   49.7798 H   0  0  0  0  0  0  0  0  0  0  0  0
   59.5779   34.1405   48.8820 H   0  0  0  0  0  0  0  0  0  0  0  0
   60.0789   32.0913   51.6193 H   0  0  0  0  0  0  0  0  0  0  0  0
   59.1774   33.5168   51.0030 H   0  0  0  0  0  0  0  0  0  0  0  0
   58.7272   30.7821   50.3725 H   0  0  0  0  0  0  0  0  0  0  0  0
   57.9843   32.2371   49.5928 H   0  0  0  0  0  0  0  0  0  0  0  0
   60.6550   31.4820   48.5360 H   0  0  0  0  0  0  0  0  0  0  0  0
   59.0122   33.7616   47.9420 H   0  0  0  0  0  0  0  0  0  0  0  0
   58.2386   35.6221   46.4852 H   0  0  0  0  0  0  0  0  0  0  0  0
   57.2210   35.1321   44.2675 H   0  0  0  0  0  0  0  0  0  0  0  0
   56.9915   32.7866   43.4859 H   0  0  0  0  0  0  0  0  0  0  0  0
   56.7683   29.5350   43.3264 H   0  0  0  0  0  0  0  0  0  0  0  0
   57.1935   31.2267   42.8976 H   0  0  0  0  0  0  0  0  0  0  0  0
   58.4615   29.9543   42.8976 H   0  0  0  0  0  0  0  0  0  0  0  0
   57.2344   27.9995   44.4130 H   0  0  0  0  0  0  0  0  0  0  0  0
   58.7511   26.6153   48.2069 H   0  0  0  0  0  0  0  0  0  0  0  0
   59.2728   28.9546   48.8638 H   0  0  0  0  0  0  0  0  0  0  0  0
  1  2  1  0
  2  3  1  0
  3  4  1  0
  3  5  1  0
  5  6  1  0
  6  7  1  0
  7  8  1  0
  8  9  1  0
  9 10  1  0
 10 11  1  0
 11 12  1  0
 12 13  1  0
 13 14  1  0
 14 15  2  0
 15 16  1  0
 16 17  2  0
 17 18  1  0
 18 19  2  0
 19 20  1  0
 20 21  2  0
 21 22  1  0
 21 23  1  0
 23 24  2  0
 24 25  1  0
 25 26  1  0
 25 27  2  0
 27 28  1  0
 28 29  2  0
 29 14  1  0
 20 15  1  0
 29 23  1  0
  1 30  1  0
  1 31  1  0
  1 32  1  0
  2 33  1  0
  2 34  1  0
  3 35  1  6
  4 36  1  0
  4 37  1  0
  4 38  1  0
  5 39  1  0
  5 40  1  0
  6 41  1  0
  6 42  1  0
  8 43  1  0
  8 44  1  0
  9 45  1  0
  9 46  1  0
 11 47  1  0
 11 48  1  0
 12 49  1  0
 12 50  1  0
 13 51  1  0
 16 52  1  0
 17 53  1  0
 18 54  1  0
 19 55  1  0
 22 56  1  0
 22 57  1  0
 22 58  1  0
 24 59  1  0
 27 60  1  0
 28 61  1  0
M  CHG  2   3   1  21   1
M  END
>  <UniqueID>  (14) 
14

>  <SMILES>  (14) 
CC[N@H+](C)CCOCCOCCNc1c2ccccc2[n+](C)c2cc(Br)ccc12

>  <Energy>  (14) 
89.55744063393847

>  <Genealogy>  (14) 
CC[NH+](C)CCOCCOCCNc1c2ccccc2[n+](C)c2cc(Br)ccc12 (protonated)
CC[N@H+](C)CCOCCOCCNc1c2ccccc2[n+](C)c2cc(Br)ccc12 (chirality)
CC[N@H+](C)CCOCCOCCNc1c2ccccc2[n+](C)c2cc(Br)ccc12 (3D coordinates assigned)
CC[N@H+](C)CCOCCOCCNc1c2ccccc2[n+](C)c2cc(Br)ccc12 (optimized conformer: 89.55744063393847 kcal/mol)

>  <smiles>  (14) 
CCN(C)CCOCCOCCNc1c2ccccc2[n+](C)c2cc(Br)ccc12

>  <score_type>  (14) 
oracle

>  <origin>  (14) 
adg

>  <m_score__min__energy>  (14) 
-4.6399999999999997

>  <m_primary>  (14) 
energy

$$$$
14:0
     RDKit          3D

 55 57  0  0  0  0  0  0  0  0999 V2000
   60.3510   28.9830   45.0700 C   0  0  0  0  0  0  0  0  0  0  0  0
   59.3300   27.9630   44.5640 C   0  0  0  0  0  0  0  0  0  0  0  0
   58.2560   28.5850   43.7750 N   0  0  0  0  0  0  0  0  0  0  0  0
   57.1470   29.1030   44.6000 C   0  0  0  0  0  0  0  0  0  0  0  0
   56.6480   30.4690   44.1010 C   0  0  0  0  0  0  0  0  0  0  0  0
   57.4690   31.5830   44.6970 C   0  0  0  0  0  0  0  0  0  0  0  0
   57.7520   32.7240   43.9350 C   0  0  0  0  0  0  0  0  0  0  0  0
   58.5310   33.7510   44.4650 C   0  0  0  0  0  0  0  0  0  0  0  0
   59.0450   33.6570   45.7620 C   0  0  0  0  0  0  0  0  0  0  0  0
   60.0260   34.9950   46.3500 Cl  0  0  0  0  0  0  0  0  0  0  0  0
   58.7830   32.5080   46.5430 C   0  0  0  0  0  0  0  0  0  0  0  0
   59.2790   32.3780   47.9720 C   0  0  0  0  0  0  0  0  0  0  0  0
   59.9120   31.0600   48.2130 N   0  0  2  0  0  0  0  0  0  0  0  0
   59.1250   30.2760   49.1540 C   0  0  0  0  0  0  0  0  0  0  0  0
   58.7850   29.1390   48.8500 O   0  0  0  0  0  0  0  0  0  0  0  0
   58.6580   30.8030   50.5080 C   0  0  1  0  0  0  0  0  0  0  0  0
   57.7660   32.0630   50.4630 C   0  0  0  0  0  0  0  0  0  0  0  0
   57.5340   32.6060   51.8150 N   0  0  0  0  0  0  0  0  0  0  0  0
   57.5350   31.5820   52.8760 C   0  0  0  0  0  0  0  0  0  0  0  0
   57.1190   30.2000   52.3510 C   0  0  0  0  0  0  0  0  0  0  0  0
   58.0090   29.7200   51.2770 N   0  0  0  0  0  0  0  0  0  0  0  0
   61.2590   31.2660   48.7880 C   0  0  0  0  0  0  0  0  0  0  0  0
   61.8000   32.6860   48.6730 C   0  0  0  0  0  0  0  0  0  0  0  0
   62.3450   31.5900   47.7690 C   0  0  0  0  0  0  0  0  0  0  0  0
   57.9990   31.4720   45.9960 C   0  0  0  0  0  0  0  0  0  0  0  0
   57.7400   30.3580   46.7310 F   0  0  0  0  0  0  0  0  0  0  0  0
   60.3530   28.9850   46.1700 H   0  0  0  0  0  0  0  0  0  0  0  0
   61.3519   28.7134   44.7020 H   0  0  0  0  0  0  0  0  0  0  0  0
   60.0824   29.9842   44.7020 H   0  0  0  0  0  0  0  0  0  0  0  0
   59.8498   27.2266   43.9335 H   0  0  0  0  0  0  0  0  0  0  0  0
   58.8678   27.4888   45.4424 H   0  0  0  0  0  0  0  0  0  0  0  0
   58.6560   29.3220   43.1470 H   0  0  0  0  0  0  0  0  0  0  0  0
   56.3135   28.3860   44.5653 H   0  0  0  0  0  0  0  0  0  0  0  0
   57.5186   29.2313   45.6273 H   0  0  0  0  0  0  0  0  0  0  0  0
   56.7305   30.5057   43.0047 H   0  0  0  0  0  0  0  0  0  0  0  0
   55.5996   30.5975   44.4080 H   0  0  0  0  0  0  0  0  0  0  0  0
   57.3569   32.8099   42.9120 H   0  0  0  0  0  0  0  0  0  0  0  0
   58.7433   34.6433   43.8577 H   0  0  0  0  0  0  0  0  0  0  0  0
   60.0177   33.1695   48.1667 H   0  0  0  0  0  0  0  0  0  0  0  0
   58.4146   32.4723   48.6457 H   0  0  0  0  0  0  0  0  0  0  0  0
   59.9950   30.5710   47.2960 H   0  0  0  0  0  0  0  0  0  0  0  0
   59.5725   31.1403   51.0178 H   0  0  0  0  0  0  0  0  0  0  0  0
   58.2607   32.8301   49.8491 H   0  0  0  0  0  0  0  0  0  0  0  0
   56.7940   31.7841   50.0301 H   0  0  0  0  0  0  0  0  0  0  0  0
   56.6060   33.0900   51.8160 H   0  0  0  0  0  0  0  0  0  0  0  0
   58.5485   31.5101   53.2976 H   0  0  0  0  0  0  0  0  0  0  0  0
   56.8037   31.8867   53.6392 H   0  0  0  0  0  0  0  0  0  0  0  0
   57.1489   29.4814   53.1833 H   0  0  0  0  0  0  0  0  0  0  0  0
   56.1049   30.2887   51.9343 H   0  0  0  0  0  0  0  0  0  0  0  0
   57.4300   29.1290   50.6330 H   0  0  0  0  0  0  0  0  0  0  0  0
   61.1457   30.5398   49.6064 H   0  0  0  0  0  0  0  0  0  0  0  0
   61.1687   33.4825   48.2523 H   0  0  0  0  0  0  0  0  0  0  0  0
   62.2441   33.4080   49.3741 H   0  0  0  0  0  0  0  0  0  0  0  0
   62.1076   31.5944   46.6949 H   0  0  0  0  0  0  0  0  0  0  0  0
   63.3460   31.1919   47.5463 H   0  0  0  0  0  0  0  0  0  0  0  0
  1  2  1  0
  2  3  1  0
  3  4  1  0
  4  5  1  0
  5  6  1  0
  6  7  2  0
  7  8  1  0
  8  9  2  0
  9 10  1  0
  9 11  1  0
 11 12  1  0
 12 13  1  0
 13 14  1  0
 14 15  2  0
 14 16  1  0
 16 17  1  0
 17 18  1  0
 18 19  1  0
 19 20  1  0
 20 21  1  0
 13 22  1  0
 22 23  1  0
 23 24  1  0
 11 25  2  0
 25 26  1  0
 25  6  1  0
 21 16  1  0
 24 22  1  0
  1 27  1  0
  1 28  1  0
  1 29  1  0
  2 30  1  0
  2 31  1  0
  3 32  1  0
  4 33  1  0
  4 34  1  0
  5 35  1  0
  5 36  1  0
  7 37  1  0
  8 38  1  0
 12 39  1  0
 12 40  1  0
 13 41  1  6
 16 42  1  1
 17 43  1  0
 17 44  1  0
 18 45  1  0
 19 46  1  0
 19 47  1  0
 20 48  1  0
 20 49  1  0
 21 50  1  0
 22 51  1  0
 23 52  1  0
 23 53  1  0
 24 54  1  0
 24 55  1  0
M  CHG  1  13   1
M  END
>  <UniqueID>  (15) 
15

>  <SMILES>  (15) 
CCNCCc1ccc(Cl)c(C[N@H+](C(=O)[C@H]2CNCCN2)C2CC2)c1F

>  <Energy>  (15) 
330.5111167423925

>  <Genealogy>  (15) 
CCNCCc1ccc(Cl)c(C[NH+](C(=O)C2CNCCN2)C2CC2)c1F (protonated)
CCNCCc1ccc(Cl)c(C[N@H+](C(=O)[C@H]2CNCCN2)C2CC2)c1F (chirality)
CCNCCc1ccc(Cl)c(C[N@H+](C(=O)[C@H]2CNCCN2)C2CC2)c1F (3D coordinates assigned)
CCNCCc1ccc(Cl)c(C[N@H+](C(=O)[C@H]2CNCCN2)C2CC2)c1F (nonaromatic ring conformer: 330.5111167423925 kcal/mol)

>  <smiles>  (15) 
CCNCCc1ccc(Cl)c(CN(C(=O)C2CNCCN2)C2CC2)c1F

>  <score_type>  (15) 
oracle

>  <origin>  (15) 
adg

>  <m_score__min__energy>  (15) 
-6.6600000000000001

>  <m_primary>  (15) 
energy

$$$$
15:0
     RDKit          3D

 79 82  0  0  0  0  0  0  0  0999 V2000
   58.7460   34.0420   52.3910 C   0  0  0  0  0  0  0  0  0  0  0  0
   59.3280   33.4530   51.1000 C   0  0  0  0  0  0  0  0  0  0  0  0
   58.9920   32.0230   50.8770 N   0  0  0  0  0  0  0  0  0  0  0  0
   58.2200   31.4610   52.0110 C   0  0  0  0  0  0  0  0  0  0  0  0
   56.7600   31.2690   51.6210 C   0  0  0  0  0  0  0  0  0  0  0  0
   60.1600   31.1660   50.5510 C   0  0  0  0  0  0  0  0  0  0  0  0
   60.0960   30.5510   49.1420 C   0  0  0  0  0  0  0  0  0  0  0  0
   58.8500   30.8940   48.4520 N   0  0  0  0  0  0  0  0  0  0  0  0
   58.7480   30.9220   47.0190 C   0  0  0  0  0  0  0  0  0  0  0  0
   58.6220   29.7120   46.3170 C   0  0  0  0  0  0  0  0  0  0  0  0
   58.8880   28.4760   46.9450 C   0  0  0  0  0  0  0  0  0  0  0  0
   58.7990   27.2830   46.2320 C   0  0  0  0  0  0  0  0  0  0  0  0
   58.4500   27.3000   44.8860 C   0  0  0  0  0  0  0  0  0  0  0  0
   58.1570   28.5090   44.2540 C   0  0  0  0  0  0  0  0  0  0  0  0
   58.1990   29.7340   44.9660 C   0  0  0  0  0  0  0  0  0  0  0  0
   57.8220   30.9270   44.3840 N   0  0  0  0  0  0  0  0  0  0  0  0
   57.0310   30.9190   43.1340 C   0  0  0  0  0  0  0  0  0  0  0  0
   58.1690   32.1260   44.9800 C   0  0  0  0  0  0  0  0  0  0  0  0
   58.0330   33.3540   44.2920 C   0  0  0  0  0  0  0  0  0  0  0  0
   58.3630   34.5600   44.8970 C   0  0  0  0  0  0  0  0  0  0  0  0
   58.9030   34.5770   46.1740 C   0  0  0  0  0  0  0  0  0  0  0  0
   59.1120   33.3850   46.8810 C   0  0  0  0  0  0  0  0  0  0  0  0
   59.8850   33.4280   48.0930 N   0  0  0  0  0  0  0  0  0  0  0  0
   61.1730   34.1240   48.1800 C   0  0  0  0  0  0  0  0  0  0  0  0
   62.3030   33.3260   47.5140 C   0  0  0  0  0  0  0  0  0  0  0  0
   63.7200   33.4480   48.1480 C   0  0  0  0  0  0  0  0  0  0  0  0
   63.9220   32.9250   49.5470 N   0  0  0  0  0  0  0  0  0  0  0  0
   65.3980   32.8030   49.7320 C   0  0  0  0  0  0  0  0  0  0  0  0
   63.3980   33.9100   50.5620 C   0  0  0  0  0  0  0  0  0  0  0  0
   62.6230   33.2750   51.7350 C   0  0  0  0  0  0  0  0  0  0  0  0
   63.3180   32.0130   52.2400 C   0  0  0  0  0  0  0  0  0  0  0  0
   63.5060   30.9730   51.1200 C   0  0  0  0  0  0  0  0  0  0  0  0
   63.3160   31.5660   49.7080 C   0  0  0  0  0  0  0  0  0  0  0  0
   58.6860   32.1450   46.3100 C   0  0  0  0  0  0  0  0  0  0  0  0
   59.2204   33.5619   53.2595 H   0  0  0  0  0  0  0  0  0  0  0  0
   58.9389   35.1246   52.4197 H   0  0  0  0  0  0  0  0  0  0  0  0
   57.6612   33.8620   52.4197 H   0  0  0  0  0  0  0  0  0  0  0  0
   58.9411   34.0348   50.2504 H   0  0  0  0  0  0  0  0  0  0  0  0
   60.4227   33.5097   51.1923 H   0  0  0  0  0  0  0  0  0  0  0  0
   58.6496   30.4889   52.2946 H   0  0  0  0  0  0  0  0  0  0  0  0
   58.2724   32.1610   52.8579 H   0  0  0  0  0  0  0  0  0  0  0  0
   56.1453   31.1882   52.5297 H   0  0  0  0  0  0  0  0  0  0  0  0
   56.4231   32.1306   51.0259 H   0  0  0  0  0  0  0  0  0  0  0  0
   56.6573   30.3496   51.0259 H   0  0  0  0  0  0  0  0  0  0  0  0
   61.0714   31.7777   50.6228 H   0  0  0  0  0  0  0  0  0  0  0  0
   60.1595   30.3320   51.2683 H   0  0  0  0  0  0  0  0  0  0  0  0
   60.9446   30.9265   48.5513 H   0  0  0  0  0  0  0  0  0  0  0  0
   60.1381   29.4567   49.2456 H   0  0  0  0  0  0  0  0  0  0  0  0
   58.0250   31.1770   49.0260 H   0  0  0  0  0  0  0  0  0  0  0  0
   59.1685   28.4550   48.0084 H   0  0  0  0  0  0  0  0  0  0  0  0
   59.0050   26.3262   46.7341 H   0  0  0  0  0  0  0  0  0  0  0  0
   58.4048   26.3587   44.3186 H   0  0  0  0  0  0  0  0  0  0  0  0
   57.8894   28.5115   43.1871 H   0  0  0  0  0  0  0  0  0  0  0  0
   55.9586   30.9082   43.3787 H   0  0  0  0  0  0  0  0  0  0  0  0
   57.2640   31.8195   42.5469 H   0  0  0  0  0  0  0  0  0  0  0  0
   57.2822   30.0233   42.5469 H   0  0  0  0  0  0  0  0  0  0  0  0
   57.6586   33.3541   43.2577 H   0  0  0  0  0  0  0  0  0  0  0  0
   58.1952   35.5057   44.3607 H   0  0  0  0  0  0  0  0  0  0  0  0
   59.1707   35.5378   46.6379 H   0  0  0  0  0  0  0  0  0  0  0  0
   59.5050   32.9490   48.9380 H   0  0  0  0  0  0  0  0  0  0  0  0
   61.0842   35.0996   47.6796 H   0  0  0  0  0  0  0  0  0  0  0  0
   61.4233   34.2446   49.2443 H   0  0  0  0  0  0  0  0  0  0  0  0
   62.0185   32.2637   47.5381 H   0  0  0  0  0  0  0  0  0  0  0  0
   62.4019   33.7554   46.5061 H   0  0  0  0  0  0  0  0  0  0  0  0
   64.4180   32.9058   47.4932 H   0  0  0  0  0  0  0  0  0  0  0  0
   63.8869   34.5317   48.2356 H   0  0  0  0  0  0  0  0  0  0  0  0
   65.6325   32.7836   50.8065 H   0  0  0  0  0  0  0  0  0  0  0  0
   65.7507   31.8726   49.2629 H   0  0  0  0  0  0  0  0  0  0  0  0
   65.8986   33.6628   49.2629 H   0  0  0  0  0  0  0  0  0  0  0  0
   64.2537   34.4634   50.9761 H   0  0  0  0  0  0  0  0  0  0  0  0
   62.6831   34.5545   50.0296 H   0  0  0  0  0  0  0  0  0  0  0  0
   62.5588   34.0024   52.5577 H   0  0  0  0  0  0  0  0  0  0  0  0
   61.6190   33.0001   51.3796 H   0  0  0  0  0  0  0  0  0  0  0  0
   64.3053   32.2868   52.6403 H   0  0  0  0  0  0  0  0  0  0  0  0
   62.6846   31.5638   53.0191 H   0  0  0  0  0  0  0  0  0  0  0  0
   64.5228   30.5597   51.1926 H   0  0  0  0  0  0  0  0  0  0  0  0
   62.7370   30.1986   51.2577 H   0  0  0  0  0  0  0  0  0  0  0  0
   63.7833   30.8874   48.9792 H   0  0  0  0  0  0  0  0  0  0  0  0
   62.2335   31.6718   49.5435 H   0  0  0  0  0  0  0  0  0  0  0  0
  1  2  1  0
  2  3  1  0
  3  4  1  0
  4  5  1  0
  3  6  1  0
  6  7  1  0
  7  8  1  0
  8  9  1  0
  9 10  2  0
 10 11  1  0
 11 12  2  0
 12 13  1  0
 13 14  2  0
 14 15  1  0
 15 16  2  0
 16 17  1  0
 16 18  1  0
 18 19  2  0
 19 20  1  0
 20 21  2  0
 21 22  1  0
 22 23  1  0
 23 24  1  0
 24 25  1  0
 25 26  1  0
 26 27  1  0
 27 28  1  0
 27 29  1  0
 29 30  1  0
 30 31  1  0
 31 32  1  0
 32 33  1  0
 22 34  2  0
 34  9  1  0
 15 10  1  0
 34 18  1  0
 33 27  1  0
  1 35  1  0
  1 36  1  0
  1 37  1  0
  2 38  1  0
  2 39  1  0
  4 40  1  0
  4 41  1  0
  5 42  1  0
  5 43  1  0
  5 44  1  0
  6 45  1  0
  6 46  1  0
  7 47  1  0
  7 48  1  0
  8 49  1  0
 11 50  1  0
 12 51  1  0
 13 52  1  0
 14 53  1  0
 17 54  1  0
 17 55  1  0
 17 56  1  0
 19 57  1  0
 20 58  1  0
 21 59  1  0
 23 60  1  0
 24 61  1  0
 24 62  1  0
 25 63  1  0
 25 64  1  0
 26 65  1  0
 26 66  1  0
 28 67  1  0
 28 68  1  0
 28 69  1  0
 29 70  1  0
 29 71  1  0
 30 72  1  0
 30 73  1  0
 31 74  1  0
 31 75  1  0
 32 76  1  0
 32 77  1  0
 33 78  1  0
 33 79  1  0
M  CHG  2  16   1  27   1
M  END
>  <UniqueID>  (16) 
16

>  <SMILES>  (16) 
CCN(CC)CCNc1c2ccccc2[n+](C)c2cccc(NCCC[N+]3(C)CCCCC3)c12

>  <Energy>  (16) 
130.03552269143765

>  <Genealogy>  (16) 
CCN(CC)CCNc1c2ccccc2[n+](C)c2cccc(NCCC[N+]3(C)CCCCC3)c12 (3D coordinates assigned)
CCN(CC)CCNc1c2ccccc2[n+](C)c2cccc(NCCC[N+]3(C)CCCCC3)c12 (nonaromatic ring conformer: 130.03552269143765 kcal/mol)

>  <smiles>  (16) 
CCN(CC)CCNc1c2ccccc2[n+](C)c2cccc(NCCC[N+]3(C)CCCCC3)c12

>  <score_type>  (16) 
oracle

>  <origin>  (16) 
adg

>  <m_score__min__energy>  (16) 
-4.9299999999999997

>  <m_primary>  (16) 
energy

$$$$
16:0
     RDKit          3D

 56 59  0  0  0  0  0  0  0  0999 V2000
   59.4260   29.3450   49.1870 C   0  0  0  0  0  0  0  0  0  0  0  0
   59.0310   29.3700   50.6670 C   0  0  0  0  0  0  0  0  0  0  0  0
   57.7710   30.0940   50.9040 N   0  0  0  0  0  0  0  0  0  0  0  0
   57.4150   30.1360   52.3280 C   0  0  0  0  0  0  0  0  0  0  0  0
   56.8370   31.5070   52.6770 C   0  0  0  0  0  0  0  0  0  0  0  0
   57.6830   32.5630   52.1060 N   0  0  0  0  0  0  0  0  0  0  0  0
   58.7360   33.0030   53.0340 C   0  0  0  0  0  0  0  0  0  0  0  0
   60.1340   33.0120   52.3800 C   0  0  0  0  0  0  0  0  0  0  0  0
   60.2680   31.9760   51.3380 N   0  0  0  0  0  0  0  0  0  0  0  0
   60.9610   32.4730   50.1630 C   0  0  0  0  0  0  0  0  0  0  0  0
   60.2570   32.7980   48.9910 C   0  0  0  0  0  0  0  0  0  0  0  0
   60.9130   33.2630   47.8600 C   0  0  0  0  0  0  0  0  0  0  0  0
   62.2800   33.3070   47.7850 N   0  0  0  0  0  0  0  0  0  0  0  0
   62.9420   33.4620   46.4790 C   0  0  0  0  0  0  0  0  0  0  0  0
   63.0140   33.1290   48.9450 C   0  0  0  0  0  0  0  0  0  0  0  0
   64.4040   33.4010   48.9820 C   0  0  0  0  0  0  0  0  0  0  0  0
   65.1500   33.1780   50.1370 C   0  0  0  0  0  0  0  0  0  0  0  0
   64.5370   32.6920   51.2840 C   0  0  0  0  0  0  0  0  0  0  0  0
   63.1650   32.4490   51.2980 C   0  0  0  0  0  0  0  0  0  0  0  0
   62.3730   32.6780   50.1490 C   0  0  0  0  0  0  0  0  0  0  0  0
   59.8990   33.5900   46.8270 C   0  0  0  0  0  0  0  0  0  0  0  0
   59.9960   34.2810   45.6090 C   0  0  0  0  0  0  0  0  0  0  0  0
   58.8240   34.5170   44.8710 C   0  0  0  0  0  0  0  0  0  0  0  0
   57.5720   34.1090   45.3670 C   0  0  0  0  0  0  0  0  0  0  0  0
   57.4790   33.4830   46.6190 C   0  0  0  0  0  0  0  0  0  0  0  0
   58.6560   33.2460   47.3280 C   0  0  0  0  0  0  0  0  0  0  0  0
   58.8200   32.7410   48.6790 C   0  0  0  0  0  0  0  0  0  0  0  0
   57.8860   32.3420   49.4230 O   0  0  0  0  0  0  0  0  0  0  0  0
   60.5204   29.2757   49.1007 H   0  0  0  0  0  0  0  0  0  0  0  0
   58.9639   28.4743   48.6988 H   0  0  0  0  0  0  0  0  0  0  0  0
   59.0773   30.2670   48.6988 H   0  0  0  0  0  0  0  0  0  0  0  0
   58.9136   28.3341   51.0180 H   0  0  0  0  0  0  0  0  0  0  0  0
   59.8262   29.8962   51.2155 H   0  0  0  0  0  0  0  0  0  0  0  0
   57.8600   31.0730   50.5430 H   0  0  0  0  0  0  0  0  0  0  0  0
   56.6657   29.3591   52.5402 H   0  0  0  0  0  0  0  0  0  0  0  0
   58.3161   29.9571   52.9330 H   0  0  0  0  0  0  0  0  0  0  0  0
   55.8205   31.5905   52.2649 H   0  0  0  0  0  0  0  0  0  0  0  0
   56.8037   31.6196   53.7707 H   0  0  0  0  0  0  0  0  0  0  0  0
   58.1230   32.2120   51.2220 H   0  0  0  0  0  0  0  0  0  0  0  0
   58.5006   34.0211   53.3775 H   0  0  0  0  0  0  0  0  0  0  0  0
   58.7631   32.2900   53.8712 H   0  0  0  0  0  0  0  0  0  0  0  0
   60.3053   33.9980   51.9234 H   0  0  0  0  0  0  0  0  0  0  0  0
   60.8754   32.8001   53.1645 H   0  0  0  0  0  0  0  0  0  0  0  0
   60.7360   31.1350   51.7390 H   0  0  0  0  0  0  0  0  0  0  0  0
   59.3210   31.6280   51.0660 H   0  0  0  0  0  0  0  0  0  0  0  0
   64.0025   33.7103   46.6327 H   0  0  0  0  0  0  0  0  0  0  0  0
   62.8638   32.5213   45.9143 H   0  0  0  0  0  0  0  0  0  0  0  0
   62.4543   34.2702   45.9143 H   0  0  0  0  0  0  0  0  0  0  0  0
   64.9022   33.7948   48.0838 H   0  0  0  0  0  0  0  0  0  0  0  0
   66.2298   33.3879   50.1404 H   0  0  0  0  0  0  0  0  0  0  0  0
   65.1369   32.4980   52.1854 H   0  0  0  0  0  0  0  0  0  0  0  0
   62.6908   32.0734   52.2167 H   0  0  0  0  0  0  0  0  0  0  0  0
   60.9711   34.6311   45.2394 H   0  0  0  0  0  0  0  0  0  0  0  0
   58.8857   35.0250   43.8973 H   0  0  0  0  0  0  0  0  0  0  0  0
   56.6635   34.2814   44.7713 H   0  0  0  0  0  0  0  0  0  0  0  0
   56.5029   33.1868   47.0307 H   0  0  0  0  0  0  0  0  0  0  0  0
  1  2  1  0
  2  3  1  0
  3  4  1  0
  4  5  1  0
  5  6  1  0
  6  7  1  0
  7  8  1  0
  8  9  1  0
  9 10  1  0
 10 11  2  0
 11 12  1  0
 12 13  2  0
 13 14  1  0
 13 15  1  0
 15 16  2  0
 16 17  1  0
 17 18  2  0
 18 19  1  0
 19 20  2  0
 12 21  1  0
 21 22  2  0
 22 23  1  0
 23 24  2  0
 24 25  1  0
 25 26  2  0
 26 27  1  0
 27 28  2  0
 20 10  1  0
 26 21  1  0
 27 11  1  0
 20 15  1  0
  1 29  1  0
  1 30  1  0
  1 31  1  0
  2 32  1  0
  2 33  1  0
  3 34  1  0
  4 35  1  0
  4 36  1  0
  5 37  1  0
  5 38  1  0
  6 39  1  0
  7 40  1  0
  7 41  1  0
  8 42  1  0
  8 43  1  0
  9 44  1  0
  9 45  1  0
 14 46  1  0
 14 47  1  0
 14 48  1  0
 16 49  1  0
 17 50  1  0
 18 51  1  0
 19 52  1  0
 22 53  1  0
 23 54  1  0
 24 55  1  0
 25 56  1  0
M  CHG  2   9   1  13   1
M  END
>  <UniqueID>  (17) 
17

>  <SMILES>  (17) 
CCNCCNCC[NH2+]c1c2c([n+](C)c3ccccc13)-c1ccccc1C2=O

>  <Energy>  (17) 
108.63561569613927

>  <Genealogy>  (17) 
CCNCCNCC[NH2+]c1c2c([n+](C)c3ccccc13)-c1ccccc1C2=O (protonated)
CCNCCNCC[NH2+]c1c2c([n+](C)c3ccccc13)-c1ccccc1C2=O (3D coordinates assigned)
CCNCCNCC[NH2+]c1c2c([n+](C)c3ccccc13)-c1ccccc1C2=O (nonaromatic ring conformer: 108.63561569613927 kcal/mol)

>  <smiles>  (17) 
CCNCCNCCNc1c2c([n+](C)c3ccccc13)-c1ccccc1C2=O

>  <score_type>  (17) 
oracle

>  <origin>  (17) 
adg

>  <m_score__min__energy>  (17) 
-4.3300000000000001

>  <m_primary>  (17) 
energy

$$$$
17:0
     RDKit          3D

 53 55  0  0  0  0  0  0  0  0999 V2000
   57.6780   31.8720   51.3780 C   0  0  0  0  0  0  0  0  0  0  0  0
   58.5130   31.5860   50.1350 C   0  0  0  0  0  0  0  0  0  0  0  0
   58.1290   32.4780   49.0400 N   0  0  0  0  0  0  0  0  0  0  0  0
   59.0800   33.0360   48.1160 C   0  0  0  0  0  0  0  0  0  0  0  0
   60.3540   33.4160   48.5730 C   0  0  0  0  0  0  0  0  0  0  0  0
   61.2740   34.0070   47.7050 C   0  0  0  0  0  0  0  0  0  0  0  0
   60.9320   34.2310   46.3720 C   0  0  0  0  0  0  0  0  0  0  0  0
   59.6740   33.8560   45.9000 C   0  0  0  0  0  0  0  0  0  0  0  0
   58.7410   33.2420   46.7550 C   0  0  0  0  0  0  0  0  0  0  0  0
   57.4170   32.7930   46.1710 C   0  0  0  0  0  0  0  0  0  0  0  0
   57.5320   31.4310   45.6090 N   0  0  0  0  0  0  0  0  0  0  0  0
   57.2770   31.4260   44.1570 C   0  0  0  0  0  0  0  0  0  0  0  0
   57.0760   29.9810   43.7040 C   0  0  0  0  0  0  0  0  0  0  0  0
   58.0490   29.0960   44.3520 N   0  0  0  0  0  0  0  0  0  0  0  0
   57.8880   27.6750   44.2390 C   0  0  0  0  0  0  0  0  0  0  0  0
   57.9330   27.0830   42.9690 C   0  0  0  0  0  0  0  0  0  0  0  0
   57.7600   25.7070   42.8220 C   0  0  0  0  0  0  0  0  0  0  0  0
   57.5520   24.8960   43.9450 C   0  0  0  0  0  0  0  0  0  0  0  0
   57.3200   23.4230   43.7820 C   0  0  0  0  0  0  0  0  0  0  0  0
   57.4940   25.4830   45.2180 C   0  0  0  0  0  0  0  0  0  0  0  0
   57.6810   26.8670   45.3800 C   0  0  0  0  0  0  0  0  0  0  0  0
   57.6190   27.4650   46.7590 C   0  0  0  0  0  0  0  0  0  0  0  0
   59.2310   29.6520   45.0210 C   0  0  0  0  0  0  0  0  0  0  0  0
   58.8600   30.8520   45.9210 C   0  0  0  0  0  0  0  0  0  0  0  0
   58.2771   31.6668   52.2774 H   0  0  0  0  0  0  0  0  0  0  0  0
   57.3682   32.9275   51.3767 H   0  0  0  0  0  0  0  0  0  0  0  0
   56.7862   31.2281   51.3767 H   0  0  0  0  0  0  0  0  0  0  0  0
   59.5764   31.7398   50.3706 H   0  0  0  0  0  0  0  0  0  0  0  0
   58.3391   30.5457   49.8226 H   0  0  0  0  0  0  0  0  0  0  0  0
   57.1140   32.6900   48.9160 H   0  0  0  0  0  0  0  0  0  0  0  0
   60.6286   33.2461   49.6245 H   0  0  0  0  0  0  0  0  0  0  0  0
   62.2695   34.2962   48.0730 H   0  0  0  0  0  0  0  0  0  0  0  0
   61.6553   34.7041   45.6915 H   0  0  0  0  0  0  0  0  0  0  0  0
   59.4090   34.0423   44.8488 H   0  0  0  0  0  0  0  0  0  0  0  0
   56.6535   32.7941   46.9629 H   0  0  0  0  0  0  0  0  0  0  0  0
   57.1310   33.4860   45.3660 H   0  0  0  0  0  0  0  0  0  0  0  0
   56.3729   32.0127   43.9372 H   0  0  0  0  0  0  0  0  0  0  0  0
   58.1291   31.8726   43.6236 H   0  0  0  0  0  0  0  0  0  0  0  0
   56.0592   29.6569   43.9705 H   0  0  0  0  0  0  0  0  0  0  0  0
   57.2195   29.9280   42.6147 H   0  0  0  0  0  0  0  0  0  0  0  0
   58.1062   27.7089   42.0812 H   0  0  0  0  0  0  0  0  0  0  0  0
   57.7870   25.2562   41.8190 H   0  0  0  0  0  0  0  0  0  0  0  0
   57.2458   22.9516   44.7731 H   0  0  0  0  0  0  0  0  0  0  0  0
   56.3848   23.2583   43.2267 H   0  0  0  0  0  0  0  0  0  0  0  0
   58.1593   22.9789   43.2267 H   0  0  0  0  0  0  0  0  0  0  0  0
   57.3001   24.8535   46.0990 H   0  0  0  0  0  0  0  0  0  0  0  0
   57.7019   26.6652   47.5096 H   0  0  0  0  0  0  0  0  0  0  0  0
   58.4482   28.1762   46.8879 H   0  0  0  0  0  0  0  0  0  0  0  0
   56.6615   27.9909   46.8879 H   0  0  0  0  0  0  0  0  0  0  0  0
   59.6921   28.8692   45.6411 H   0  0  0  0  0  0  0  0  0  0  0  0
   59.9315   30.0031   44.2489 H   0  0  0  0  0  0  0  0  0  0  0  0
   58.8566   30.5150   46.9681 H   0  0  0  0  0  0  0  0  0  0  0  0
   59.6083   31.6378   45.7406 H   0  0  0  0  0  0  0  0  0  0  0  0
  1  2  1  0
  2  3  1  0
  3  4  1  0
  4  5  2  0
  5  6  1  0
  6  7  2  0
  7  8  1  0
  8  9  2  0
  9 10  1  0
 10 11  1  0
 11 12  1  0
 12 13  1  0
 13 14  1  0
 14 15  1  0
 15 16  2  0
 16 17  1  0
 17 18  2  0
 18 19  1  0
 18 20  1  0
 20 21  2  0
 21 22  1  0
 14 23  1  0
 23 24  1  0
  9  4  1  0
 24 11  1  0
 21 15  1  0
  1 25  1  0
  1 26  1  0
  1 27  1  0
  2 28  1  0
  2 29  1  0
  3 30  1  0
  5 31  1  0
  6 32  1  0
  7 33  1  0
  8 34  1  0
 10 35  1  0
 10 36  1  0
 12 37  1  0
 12 38  1  0
 13 39  1  0
 13 40  1  0
 16 41  1  0
 17 42  1  0
 19 43  1  0
 19 44  1  0
 19 45  1  0
 20 46  1  0
 22 47  1  0
 22 48  1  0
 22 49  1  0
 23 50  1  0
 23 51  1  0
 24 52  1  0
 24 53  1  0
M  END
>  <UniqueID>  (18) 
18

>  <SMILES>  (18) 
CCNc1ccccc1CN1CCN(c2ccc(C)cc2C)CC1

>  <Energy>  (18) 
63.78850154725411

>  <Genealogy>  (18) 
CCNc1ccccc1CN1CCN(c2ccc(C)cc2C)CC1 (3D coordinates assigned)
CCNc1ccccc1CN1CCN(c2ccc(C)cc2C)CC1 (nonaromatic ring conformer: 63.78850154725411 kcal/mol)

>  <smiles>  (18) 
CCNc1ccccc1CN1CCN(c2ccc(C)cc2C)CC1

>  <score_type>  (18) 
oracle

>  <origin>  (18) 
adg

>  <m_score__min__energy>  (18) 
-7.3499999999999996

>  <m_primary>  (18) 
energy

$$$$
18:0
     RDKit          3D

 59 61  0  0  0  0  0  0  0  0999 V2000
   59.3790   34.8150   45.7060 C   0  0  0  0  0  0  0  0  0  0  0  0
   58.4280   34.2510   46.7620 C   0  0  0  0  0  0  0  0  0  0  0  0
   57.5130   33.2760   46.1570 N   0  0  0  0  0  0  0  0  0  0  0  0
   57.7890   33.0600   44.7240 C   0  0  0  0  0  0  0  0  0  0  0  0
   57.4850   31.6100   44.3650 C   0  0  0  0  0  0  0  0  0  0  0  0
   57.3090   30.8420   45.5430 O   0  0  0  0  0  0  0  0  0  0  0  0
   58.2810   29.8180   45.6600 C   0  0  0  0  0  0  0  0  0  0  0  0
   59.5050   30.2100   46.5290 C   0  0  0  0  0  0  0  0  0  0  0  0
   59.4090   31.5370   47.1830 N   0  0  0  0  0  0  0  0  0  0  0  0
   60.2900   31.7150   48.3320 C   0  0  0  0  0  0  0  0  0  0  0  0
   61.6050   32.2490   48.1600 C   0  0  0  0  0  0  0  0  0  0  0  0
   62.0830   32.6690   46.8900 C   0  0  0  0  0  0  0  0  0  0  0  0
   63.3320   33.2710   46.7510 C   0  0  0  0  0  0  0  0  0  0  0  0
   64.1340   33.4780   47.8630 C   0  0  0  0  0  0  0  0  0  0  0  0
   63.7140   33.0420   49.1170 C   0  0  0  0  0  0  0  0  0  0  0  0
   62.4690   32.3760   49.2890 C   0  0  0  0  0  0  0  0  0  0  0  0
   62.0860   31.8690   50.5190 N   0  0  0  0  0  0  0  0  0  0  0  0
   63.0940   31.6800   51.5920 C   0  0  0  0  0  0  0  0  0  0  0  0
   60.7690   31.5140   50.7420 C   0  0  0  0  0  0  0  0  0  0  0  0
   60.2840   31.2810   52.0570 C   0  0  0  0  0  0  0  0  0  0  0  0
   58.9720   30.8540   52.3110 C   0  0  0  0  0  0  0  0  0  0  0  0
   58.5180   30.6140   53.6200 O   0  0  0  0  0  0  0  0  0  0  0  0
   58.3110   31.6010   54.6270 C   0  0  0  0  0  0  0  0  0  0  0  0
   58.0870   30.6670   51.2260 C   0  0  0  0  0  0  0  0  0  0  0  0
   56.7590   30.2100   51.3590 O   0  0  0  0  0  0  0  0  0  0  0  0
   55.7080   30.8270   52.0860 C   0  0  0  0  0  0  0  0  0  0  0  0
   58.5340   30.9490   49.9310 C   0  0  0  0  0  0  0  0  0  0  0  0
   59.8550   31.3900   49.6560 C   0  0  0  0  0  0  0  0  0  0  0  0
   60.2232   35.3156   46.2027 H   0  0  0  0  0  0  0  0  0  0  0  0
   59.7572   33.9951   45.0778 H   0  0  0  0  0  0  0  0  0  0  0  0
   58.8409   35.5401   45.0778 H   0  0  0  0  0  0  0  0  0  0  0  0
   59.0141   33.7571   47.5510 H   0  0  0  0  0  0  0  0  0  0  0  0
   57.8391   35.0760   47.1894 H   0  0  0  0  0  0  0  0  0  0  0  0
   57.6310   32.3640   46.6590 H   0  0  0  0  0  0  0  0  0  0  0  0
   57.1547   33.7281   44.1229 H   0  0  0  0  0  0  0  0  0  0  0  0
   58.8471   33.2769   44.5159 H   0  0  0  0  0  0  0  0  0  0  0  0
   56.5648   31.5696   43.7637 H   0  0  0  0  0  0  0  0  0  0  0  0
   58.3272   31.1979   43.7897 H   0  0  0  0  0  0  0  0  0  0  0  0
   57.8030   28.9366   46.1124 H   0  0  0  0  0  0  0  0  0  0  0  0
   58.6593   29.6193   44.6464 H   0  0  0  0  0  0  0  0  0  0  0  0
   59.6230   29.4497   47.3152 H   0  0  0  0  0  0  0  0  0  0  0  0
   60.3636   30.2661   45.8437 H   0  0  0  0  0  0  0  0  0  0  0  0
   59.5110   32.2920   46.4720 H   0  0  0  0  0  0  0  0  0  0  0  0
   58.4170   31.6840   47.4880 H   0  0  0  0  0  0  0  0  0  0  0  0
   61.4554   32.5162   45.9996 H   0  0  0  0  0  0  0  0  0  0  0  0
   63.6828   33.5829   45.7562 H   0  0  0  0  0  0  0  0  0  0  0  0
   65.1030   33.9872   47.7545 H   0  0  0  0  0  0  0  0  0  0  0  0
   64.3577   33.2161   49.9918 H   0  0  0  0  0  0  0  0  0  0  0  0
   62.6061   31.7715   52.5736 H   0  0  0  0  0  0  0  0  0  0  0  0
   63.5459   30.6815   51.4988 H   0  0  0  0  0  0  0  0  0  0  0  0
   63.8770   32.4470   51.4988 H   0  0  0  0  0  0  0  0  0  0  0  0
   60.9626   31.4414   52.9077 H   0  0  0  0  0  0  0  0  0  0  0  0
   58.4082   31.1377   55.6199 H   0  0  0  0  0  0  0  0  0  0  0  0
   59.0616   32.3979   54.5191 H   0  0  0  0  0  0  0  0  0  0  0  0
   57.3035   32.0292   54.5191 H   0  0  0  0  0  0  0  0  0  0  0  0
   55.8946   30.7174   53.1645 H   0  0  0  0  0  0  0  0  0  0  0  0
   55.6621   31.8955   51.8285 H   0  0  0  0  0  0  0  0  0  0  0  0
   54.7526   30.3464   51.8285 H   0  0  0  0  0  0  0  0  0  0  0  0
   57.8338   30.8240   49.0919 H   0  0  0  0  0  0  0  0  0  0  0  0
  1  2  1  0
  2  3  1  0
  3  4  1  0
  4  5  1  0
  5  6  1  0
  6  7  1  0
  7  8  1  0
  8  9  1  0
  9 10  1  0
 10 11  2  0
 11 12  1  0
 12 13  2  0
 13 14  1  0
 14 15  2  0
 15 16  1  0
 16 17  2  0
 17 18  1  0
 17 19  1  0
 19 20  2  0
 20 21  1  0
 21 22  1  0
 22 23  1  0
 21 24  2  0
 24 25  1  0
 25 26  1  0
 24 27  1  0
 27 28  2  0
 28 10  1  0
 16 11  1  0
 28 19  1  0
  1 29  1  0
  1 30  1  0
  1 31  1  0
  2 32  1  0
  2 33  1  0
  3 34  1  0
  4 35  1  0
  4 36  1  0
  5 37  1  0
  5 38  1  0
  7 39  1  0
  7 40  1  0
  8 41  1  0
  8 42  1  0
  9 43  1  0
  9 44  1  0
 12 45  1  0
 13 46  1  0
 14 47  1  0
 15 48  1  0
 18 49  1  0
 18 50  1  0
 18 51  1  0
 20 52  1  0
 23 53  1  0
 23 54  1  0
 23 55  1  0
 26 56  1  0
 26 57  1  0
 26 58  1  0
 27 59  1  0
M  CHG  2   9   1  17   1
M  END
>  <UniqueID>  (19) 
19

>  <SMILES>  (19) 
CCNCCOCC[NH2+]c1c2ccccc2[n+](C)c2cc(OC)c(OC)cc12

>  <Energy>  (19) 
92.08171922271019

>  <Genealogy>  (19) 
CCNCCOCC[NH2+]c1c2ccccc2[n+](C)c2cc(OC)c(OC)cc12 (protonated)
CCNCCOCC[NH2+]c1c2ccccc2[n+](C)c2cc(OC)c(OC)cc12 (3D coordinates assigned)
CCNCCOCC[NH2+]c1c2ccccc2[n+](C)c2cc(OC)c(OC)cc12 (optimized conformer: 92.08171922271019 kcal/mol)

>  <smiles>  (19) 
CCNCCOCCNc1c2ccccc2[n+](C)c2cc(OC)c(OC)cc12

>  <score_type>  (19) 
oracle

>  <origin>  (19) 
adg

>  <m_score__min__energy>  (19) 
-3.8199999999999998

>  <m_primary>  (19) 
energy

$$$$
19:0
     RDKit          3D

 45 46  0  0  0  0  0  0  0  0999 V2000
   55.5120   29.7870   44.1070 C   0  0  0  0  0  0  0  0  0  0  0  0
   56.9920   30.1480   44.0060 C   0  0  0  0  0  0  0  0  0  0  0  0
   57.4520   30.7750   45.2660 N   0  0  0  0  0  0  0  0  0  0  0  0
   57.4390   32.2520   45.1680 C   0  0  0  0  0  0  0  0  0  0  0  0
   57.7200   32.8730   46.5330 C   0  0  0  0  0  0  0  0  0  0  0  0
   58.7910   30.2720   45.6580 C   0  0  0  0  0  0  0  0  0  0  0  0
   58.8230   29.9100   47.1520 C   0  0  0  0  0  0  0  0  0  0  0  0
   58.2370   28.5200   47.4440 C   0  0  0  0  0  0  0  0  0  0  0  0
   57.5700   27.9550   46.2680 N   0  0  0  0  0  0  0  0  0  0  0  0
   57.4720   26.5330   46.0790 C   0  0  0  0  0  0  0  0  0  0  0  0
   58.6380   25.7570   45.9630 C   0  0  0  0  0  0  0  0  0  0  0  0
   59.9360   26.3910   46.0530 C   0  0  0  0  0  0  0  0  0  0  0  0
   60.9730   26.8980   46.1260 N   0  0  0  0  0  0  0  0  0  0  0  0
   58.5530   24.4050   45.7770 N   0  0  0  0  0  0  0  0  0  0  0  0
   59.7430   23.7120   45.6220 O   0  0  0  0  0  0  0  0  0  0  0  0
   57.3240   23.7850   45.7340 C   0  0  0  0  0  0  0  0  0  0  0  0
   57.1870   22.3820   45.6180 C   0  0  0  0  0  0  0  0  0  0  0  0
   55.9230   21.7920   45.5570 C   0  0  0  0  0  0  0  0  0  0  0  0
   54.7760   22.5780   45.6170 C   0  0  0  0  0  0  0  0  0  0  0  0
   54.8830   23.9600   45.7540 C   0  0  0  0  0  0  0  0  0  0  0  0
   56.1470   24.5780   45.8240 C   0  0  0  0  0  0  0  0  0  0  0  0
   56.2530   25.9300   45.9830 N   0  0  0  0  0  0  0  0  0  0  0  0
   55.1140   26.7070   46.0040 O   0  0  0  0  0  0  0  0  0  0  0  0
   55.2232   29.7166   45.1661 H   0  0  0  0  0  0  0  0  0  0  0  0
   54.9104   30.5647   43.6138 H   0  0  0  0  0  0  0  0  0  0  0  0
   55.3361   28.8196   43.6138 H   0  0  0  0  0  0  0  0  0  0  0  0
   57.5769   29.2352   43.8196 H   0  0  0  0  0  0  0  0  0  0  0  0
   57.1326   30.8592   43.1787 H   0  0  0  0  0  0  0  0  0  0  0  0
   58.2120   32.5757   44.4554 H   0  0  0  0  0  0  0  0  0  0  0  0
   56.4479   32.5801   44.8215 H   0  0  0  0  0  0  0  0  0  0  0  0
   57.4050   32.1769   47.3244 H   0  0  0  0  0  0  0  0  0  0  0  0
   58.7971   33.0746   46.6294 H   0  0  0  0  0  0  0  0  0  0  0  0
   57.1605   33.8152   46.6294 H   0  0  0  0  0  0  0  0  0  0  0  0
   59.0275   29.3763   45.0649 H   0  0  0  0  0  0  0  0  0  0  0  0
   59.5329   31.0623   45.4710 H   0  0  0  0  0  0  0  0  0  0  0  0
   59.8679   29.9294   47.4954 H   0  0  0  0  0  0  0  0  0  0  0  0
   58.2032   30.6473   47.6833 H   0  0  0  0  0  0  0  0  0  0  0  0
   59.0515   27.8468   47.7496 H   0  0  0  0  0  0  0  0  0  0  0  0
   57.4901   28.6241   48.2448 H   0  0  0  0  0  0  0  0  0  0  0  0
   57.3840   28.5690   45.4420 H   0  0  0  0  0  0  0  0  0  0  0  0
   59.9750   23.1560   44.8120 H   0  0  0  0  0  0  0  0  0  0  0  0
   58.0857   21.7491   45.5754 H   0  0  0  0  0  0  0  0  0  0  0  0
   55.8332   20.6999   45.4610 H   0  0  0  0  0  0  0  0  0  0  0  0
   53.7837   22.1072   45.5562 H   0  0  0  0  0  0  0  0  0  0  0  0
   53.9722   24.5744   45.8080 H   0  0  0  0  0  0  0  0  0  0  0  0
  1  2  1  0
  2  3  1  0
  3  4  1  0
  4  5  1  0
  3  6  1  0
  6  7  1  0
  7  8  1  0
  8  9  1  0
  9 10  1  0
 10 11  2  0
 11 12  1  0
 12 13  3  0
 11 14  1  0
 14 15  1  0
 14 16  2  0
 16 17  1  0
 17 18  2  0
 18 19  1  0
 19 20  2  0
 20 21  1  0
 21 22  2  0
 22 23  1  0
 22 10  1  0
 21 16  1  0
  1 24  1  0
  1 25  1  0
  1 26  1  0
  2 27  1  0
  2 28  1  0
  4 29  1  0
  4 30  1  0
  5 31  1  0
  5 32  1  0
  5 33  1  0
  6 34  1  0
  6 35  1  0
  7 36  1  0
  7 37  1  0
  8 38  1  0
  8 39  1  0
  9 40  1  0
 15 41  1  0
 17 42  1  0
 18 43  1  0
 19 44  1  0
 20 45  1  0
M  CHG  3  14   1  22   1  23  -1
M  END
>  <UniqueID>  (20) 
20

>  <SMILES>  (20) 
CCN(CC)CCCNc1c(C#N)[n+](O)c2ccccc2[n+]1[O-]

>  <Energy>  (20) 
54.6245004432108

>  <Genealogy>  (20) 
CCN(CC)CCCNc1c(C#N)[n+](O)c2ccccc2[n+]1[O-] (protonated)
CCN(CC)CCCNc1c(C#N)[n+](O)c2ccccc2[n+]1[O-] (3D coordinates assigned)
CCN(CC)CCCNc1c(C#N)[n+](O)c2ccccc2[n+]1[O-] (optimized conformer: 54.6245004432108 kcal/mol)

>  <smiles>  (20) 
CCN(CC)CCCNc1c(C#N)[n+]([O-])c2ccccc2[n+]1[O-]

>  <score_type>  (20) 
oracle

>  <origin>  (20) 
adg

>  <m_score__min__energy>  (20) 
-5.79

>  <m_primary>  (20) 
energy

$$$$
20:0
     RDKit          3D

 49 50  0  0  0  0  0  0  0  0999 V2000
   58.7324   35.5024   47.1611 H   0  0  0  0  0  0  0  0  0  0  0  0
   59.3760   34.8690   46.5330 C   0  0  0  0  0  0  0  0  0  0  0  0
   58.9840   34.6470   45.2690 C   0  0  0  0  0  0  0  0  0  0  0  0
   59.0859   35.4748   44.5517 H   0  0  0  0  0  0  0  0  0  0  0  0
   58.4250   33.3720   44.7680 C   0  0  0  0  0  0  0  0  0  0  0  0
   58.3660   33.0920   43.3910 C   0  0  0  0  0  0  0  0  0  0  0  0
   58.7421   33.8283   42.6654 H   0  0  0  0  0  0  0  0  0  0  0  0
   57.8310   31.8810   42.9410 C   0  0  0  0  0  0  0  0  0  0  0  0
   57.8030   31.6622   41.8633 H   0  0  0  0  0  0  0  0  0  0  0  0
   57.3300   30.9440   43.8560 C   0  0  0  0  0  0  0  0  0  0  0  0
   56.7970   29.6170   43.3700 C   0  0  0  0  0  0  0  0  0  0  0  0
   57.2264   29.4038   42.3800 H   0  0  0  0  0  0  0  0  0  0  0  0
   55.7004   29.6900   43.3232 H   0  0  0  0  0  0  0  0  0  0  0  0
   57.1380   28.5140   44.2820 N   0  0  0  0  0  0  0  0  0  0  0  0
   56.2910   27.9160   44.4300 H   0  0  0  0  0  0  0  0  0  0  0  0
   58.2240   27.6770   43.7490 C   0  0  0  0  0  0  0  0  0  0  0  0
   58.3732   27.9120   42.6848 H   0  0  0  0  0  0  0  0  0  0  0  0
   57.9490   26.6187   43.8687 H   0  0  0  0  0  0  0  0  0  0  0  0
   59.5290   27.9400   44.5120 C   0  0  0  0  0  0  0  0  0  0  0  0
   60.3378   28.1191   43.7883 H   0  0  0  0  0  0  0  0  0  0  0  0
   59.7522   27.0603   45.1336 H   0  0  0  0  0  0  0  0  0  0  0  0
   59.4040   29.1150   45.3940 N   0  0  0  0  0  0  0  0  0  0  0  0
   58.4770   29.0800   45.8800 H   0  0  0  0  0  0  0  0  0  0  0  0
   59.4430   29.9950   44.8300 H   0  0  0  0  0  0  0  0  0  0  0  0
   60.4490   29.1460   46.4340 C   0  0  0  0  0  0  0  0  0  0  0  0
   61.3839   28.7552   46.0060 H   0  0  0  0  0  0  0  0  0  0  0  0
   60.1002   28.5300   47.2759 H   0  0  0  0  0  0  0  0  0  0  0  0
   60.7060   30.5580   46.9670 C   0  0  0  0  0  0  0  0  0  0  0  0
   60.7029   30.5409   48.0669 H   0  0  0  0  0  0  0  0  0  0  0  0
   61.6835   30.9130   46.6085 H   0  0  0  0  0  0  0  0  0  0  0  0
   59.9163   31.2346   46.6085 H   0  0  0  0  0  0  0  0  0  0  0  0
   57.3650   31.2350   45.2300 C   0  0  0  0  0  0  0  0  0  0  0  0
   56.9729   30.5061   45.9545 H   0  0  0  0  0  0  0  0  0  0  0  0
   57.8960   32.4470   45.6800 C   0  0  0  0  0  0  0  0  0  0  0  0
   57.8991   32.6768   46.7557 H   0  0  0  0  0  0  0  0  0  0  0  0
   60.6090   34.3260   47.1460 C   0  0  0  0  0  0  0  0  0  0  0  0
   61.6950   33.9010   46.3580 C   0  0  0  0  0  0  0  0  0  0  0  0
   61.6385   33.9777   45.2621 H   0  0  0  0  0  0  0  0  0  0  0  0
   62.8450   33.3820   46.9600 C   0  0  0  0  0  0  0  0  0  0  0  0
   63.6917   33.0588   46.3366 H   0  0  0  0  0  0  0  0  0  0  0  0
   62.9230   33.2720   48.3560 C   0  0  0  0  0  0  0  0  0  0  0  0
   64.1400   32.6830   49.0050 C   0  0  0  0  0  0  0  0  0  0  0  0
   64.0336   32.7345   50.0986 H   0  0  0  0  0  0  0  0  0  0  0  0
   64.2483   31.6328   48.6962 H   0  0  0  0  0  0  0  0  0  0  0  0
   65.0308   33.2497   48.6962 H   0  0  0  0  0  0  0  0  0  0  0  0
   61.8230   33.6500   49.1400 C   0  0  0  0  0  0  0  0  0  0  0  0
   61.8652   33.5369   50.2334 H   0  0  0  0  0  0  0  0  0  0  0  0
   60.6730   34.1700   48.5380 C   0  0  0  0  0  0  0  0  0  0  0  0
   59.8131   34.4585   49.1604 H   0  0  0  0  0  0  0  0  0  0  0  0
  1  2  1  0
  2  3  2  0
  3  4  1  0
  3  5  1  0
  5  6  2  0
  6  7  1  0
  6  8  1  0
  8  9  1  0
  8 10  2  0
 10 11  1  0
 11 12  1  0
 11 13  1  0
 11 14  1  0
 14 15  1  0
 14 16  1  0
 16 17  1  0
 16 18  1  0
 16 19  1  0
 19 20  1  0
 19 21  1  0
 19 22  1  0
 22 23  1  0
 22 24  1  0
 22 25  1  0
 25 26  1  0
 25 27  1  0
 25 28  1  0
 28 29  1  0
 28 30  1  0
 28 31  1  0
 10 32  1  0
 32 33  1  0
 32 34  2  0
 34 35  1  0
  2 36  1  0
 36 37  2  0
 37 38  1  0
 37 39  1  0
 39 40  1  0
 39 41  2  0
 41 42  1  0
 42 43  1  0
 42 44  1  0
 42 45  1  0
 41 46  1  0
 46 47  1  0
 46 48  2  0
 48 49  1  0
 34  5  1  0
 48 36  1  0
M  CHG  1  22   1
M  END
>  <UniqueID>  (21) 
21

>  <SMILES>  (21) 
CC[NH2+]CCNCc1ccc(/C=C\c2ccc(C)cc2)cc1

>  <Energy>  (21) 
52.57516063765641

>  <Genealogy>  (21) 
CC[NH2+]CCNCc1ccc(C=Cc2ccc(C)cc2)cc1 (protonated)
CC[NH2+]CCNCc1ccc(/C=C\c2ccc(C)cc2)cc1 (cis-trans isomerization)
CC[NH2+]CCNCc1ccc(/C=C\c2ccc(C)cc2)cc1 (3D coordinates assigned)
CC[NH2+]CCNCc1ccc(/C=C\c2ccc(C)cc2)cc1 (optimized conformer: 52.57516063765641 kcal/mol)

>  <smiles>  (21) 
CCNCCNCc1ccc(C=Cc2ccc(C)cc2)cc1

>  <score_type>  (21) 
oracle

>  <origin>  (21) 
adg

>  <m_score__min__energy>  (21) 
-6.4400000000000004

>  <m_primary>  (21) 
energy

$$$$
21:0
     RDKit          3D

 58 61  0  0  0  0  0  0  0  0999 V2000
   55.2130   23.4100   45.2520 C   0  0  0  0  0  0  0  0  0  0  0  0
   55.7400   24.8380   45.0480 C   0  0  0  0  0  0  0  0  0  0  0  0
   57.1310   24.7780   44.3970 C   0  0  0  0  0  0  0  0  0  0  0  0
   55.8260   25.5470   46.3400 N   0  0  0  0  0  0  0  0  0  0  0  0
   56.2990   24.6620   47.4150 C   0  0  0  0  0  0  0  0  0  0  0  0
   57.7080   25.0620   47.8620 C   0  0  0  0  0  0  0  0  0  0  0  0
   58.2210   26.1630   47.0470 N   0  0  0  0  0  0  0  0  0  0  0  0
   59.0340   27.2290   47.5710 C   0  0  0  0  0  0  0  0  0  0  0  0
   60.0150   26.9610   48.5790 C   0  0  0  0  0  0  0  0  0  0  0  0
   60.7850   28.0000   49.1550 C   0  0  0  0  0  0  0  0  0  0  0  0
   60.5440   29.2990   48.7120 C   0  0  0  0  0  0  0  0  0  0  0  0
   59.6120   29.5340   47.7610 C   0  0  0  0  0  0  0  0  0  0  0  0
   59.6170   30.8650   47.5160 C   0  0  0  0  0  0  0  0  0  0  0  0
   60.5440   31.4420   48.3130 N   0  0  0  0  0  0  0  0  0  0  0  0
   61.1040   30.4850   49.0580 N   0  0  0  0  0  0  0  0  0  0  0  0
   62.1910   30.7140   50.0110 C   0  0  0  0  0  0  0  0  0  0  0  0
   63.3070   31.6050   49.4230 C   0  0  0  0  0  0  0  0  0  0  0  0
   62.8460   32.7570   48.6120 N   0  0  0  0  0  0  0  0  0  0  0  0
   63.5080   32.8600   47.3040 C   0  0  0  0  0  0  0  0  0  0  0  0
   62.8660   34.0390   49.3320 C   0  0  0  0  0  0  0  0  0  0  0  0
   58.7290   31.4430   46.4970 C   0  0  0  0  0  0  0  0  0  0  0  0
   58.6830   32.8110   46.2110 C   0  0  0  0  0  0  0  0  0  0  0  0
   57.8120   33.2770   45.2230 C   0  0  0  0  0  0  0  0  0  0  0  0
   57.0000   32.3700   44.5340 C   0  0  0  0  0  0  0  0  0  0  0  0
   57.0560   31.0410   44.8220 N   0  0  0  0  0  0  0  0  0  0  0  0
   57.8900   30.5500   45.7790 C   0  0  0  0  0  0  0  0  0  0  0  0
   57.9290   29.0770   46.0660 C   0  0  0  0  0  0  0  0  0  0  0  0
   57.2290   28.2880   45.3780 O   0  0  0  0  0  0  0  0  0  0  0  0
   58.8380   28.5730   47.1430 C   0  0  0  0  0  0  0  0  0  0  0  0
   55.1349   23.1983   46.3286 H   0  0  0  0  0  0  0  0  0  0  0  0
   54.2207   23.3154   44.7868 H   0  0  0  0  0  0  0  0  0  0  0  0
   55.9059   22.6935   44.7868 H   0  0  0  0  0  0  0  0  0  0  0  0
   55.0456   25.3852   44.3935 H   0  0  0  0  0  0  0  0  0  0  0  0
   57.9017   24.7448   45.1812 H   0  0  0  0  0  0  0  0  0  0  0  0
   57.2047   23.8758   43.7720 H   0  0  0  0  0  0  0  0  0  0  0  0
   57.2821   25.6705   43.7720 H   0  0  0  0  0  0  0  0  0  0  0  0
   56.5230   26.3280   46.2640 H   0  0  0  0  0  0  0  0  0  0  0  0
   55.6133   24.7358   48.2720 H   0  0  0  0  0  0  0  0  0  0  0  0
   56.3266   23.6292   47.0375 H   0  0  0  0  0  0  0  0  0  0  0  0
   57.6757   25.3781   48.9151 H   0  0  0  0  0  0  0  0  0  0  0  0
   58.3744   24.1952   47.7415 H   0  0  0  0  0  0  0  0  0  0  0  0
   57.9670   26.1670   46.0340 H   0  0  0  0  0  0  0  0  0  0  0  0
   60.1738   25.9251   48.9131 H   0  0  0  0  0  0  0  0  0  0  0  0
   61.5443   27.7900   49.9227 H   0  0  0  0  0  0  0  0  0  0  0  0
   60.8040   32.4530   48.3400 H   0  0  0  0  0  0  0  0  0  0  0  0
   61.7800   31.2055   50.9052 H   0  0  0  0  0  0  0  0  0  0  0  0
   62.6341   29.7378   50.2575 H   0  0  0  0  0  0  0  0  0  0  0  0
   63.9032   31.9973   50.2600 H   0  0  0  0  0  0  0  0  0  0  0  0
   63.8754   30.9612   48.7356 H   0  0  0  0  0  0  0  0  0  0  0  0
   64.5852   33.0276   47.4504 H   0  0  0  0  0  0  0  0  0  0  0  0
   63.3552   31.9273   46.7413 H   0  0  0  0  0  0  0  0  0  0  0  0
   63.0790   33.7022   46.7413 H   0  0  0  0  0  0  0  0  0  0  0  0
   62.8631   33.8509   50.4158 H   0  0  0  0  0  0  0  0  0  0  0  0
   63.7730   34.5985   49.0594 H   0  0  0  0  0  0  0  0  0  0  0  0
   61.9769   34.6265   49.0594 H   0  0  0  0  0  0  0  0  0  0  0  0
   59.3271   33.5143   46.7592 H   0  0  0  0  0  0  0  0  0  0  0  0
   57.7651   34.3507   44.9883 H   0  0  0  0  0  0  0  0  0  0  0  0
   56.3127   32.7327   43.7555 H   0  0  0  0  0  0  0  0  0  0  0  0
  1  2  1  0
  2  3  1  0
  2  4  1  0
  4  5  1  0
  5  6  1  0
  6  7  1  0
  7  8  1  0
  8  9  2  0
  9 10  1  0
 10 11  2  0
 11 12  1  0
 12 13  1  0
 13 14  2  0
 14 15  1  0
 15 16  1  0
 16 17  1  0
 17 18  1  0
 18 19  1  0
 18 20  1  0
 13 21  1  0
 21 22  2  0
 22 23  1  0
 23 24  2  0
 24 25  1  0
 25 26  2  0
 26 27  1  0
 27 28  2  0
 27 29  1  0
 29  8  1  0
 15 11  1  0
 26 21  1  0
 29 12  2  0
  1 30  1  0
  1 31  1  0
  1 32  1  0
  2 33  1  0
  3 34  1  0
  3 35  1  0
  3 36  1  0
  4 37  1  0
  5 38  1  0
  5 39  1  0
  6 40  1  0
  6 41  1  0
  7 42  1  0
  9 43  1  0
 10 44  1  0
 14 45  1  0
 16 46  1  0
 16 47  1  0
 17 48  1  0
 17 49  1  0
 19 50  1  0
 19 51  1  0
 19 52  1  0
 20 53  1  0
 20 54  1  0
 20 55  1  0
 22 56  1  0
 23 57  1  0
 24 58  1  0
M  CHG  1  14   1
M  END
>  <UniqueID>  (22) 
22

>  <SMILES>  (22) 
CC(C)NCCNc1ccc2c3c([nH+]n2CCN(C)C)-c2cccnc2C(=O)c13

>  <Energy>  (22) 
114.22300920724348

>  <Genealogy>  (22) 
CC(C)NCCNc1ccc2c3c([nH+]n2CCN(C)C)-c2cccnc2C(=O)c13 (protonated)
CC(C)NCCNc1ccc2c3c([nH+]n2CCN(C)C)-c2cccnc2C(=O)c13 (3D coordinates assigned)
CC(C)NCCNc1ccc2c3c([nH+]n2CCN(C)C)-c2cccnc2C(=O)c13 (nonaromatic ring conformer: 114.22300920724348 kcal/mol)

>  <smiles>  (22) 
CC(C)NCCNc1ccc2c3c(nn2CCN(C)C)-c2cccnc2C(=O)c13

>  <score_type>  (22) 
oracle

>  <origin>  (22) 
adg

>  <m_score__min__energy>  (22) 
-6.29

>  <m_primary>  (22) 
energy

$$$$
22:0
     RDKit          3D

 70 72  0  0  0  0  0  0  0  0999 V2000
   59.6560   35.3300   46.0170 C   0  0  0  0  0  0  0  0  0  0  0  0
   60.3220   33.9610   46.1030 C   0  0  0  0  0  0  0  0  0  0  0  0
   60.7690   33.6960   47.4890 N   0  0  0  0  0  0  0  0  0  0  0  0
   59.7920   34.1840   48.4950 C   0  0  0  0  0  0  0  0  0  0  0  0
   60.1470   33.8220   49.9440 C   0  0  0  0  0  0  0  0  0  0  0  0
   62.1570   34.1690   47.7120 C   0  0  0  0  0  0  0  0  0  0  0  0
   63.1230   33.6300   46.6460 C   0  0  0  0  0  0  0  0  0  0  0  0
   64.0490   32.6450   47.2280 N   0  0  0  0  0  0  0  0  0  0  0  0
   63.4730   32.0480   48.4230 C   0  0  0  0  0  0  0  0  0  0  0  0
   64.0140   32.3310   49.7060 C   0  0  0  0  0  0  0  0  0  0  0  0
   65.2060   33.0800   49.8640 C   0  0  0  0  0  0  0  0  0  0  0  0
   65.6700   33.4380   51.1260 C   0  0  0  0  0  0  0  0  0  0  0  0
   64.9610   33.0660   52.2590 C   0  0  0  0  0  0  0  0  0  0  0  0
   63.8150   32.2860   52.1380 C   0  0  0  0  0  0  0  0  0  0  0  0
   63.3490   31.8510   50.8700 C   0  0  0  0  0  0  0  0  0  0  0  0
   62.2730   30.9930   50.7550 N   0  0  0  0  0  0  0  0  0  0  0  0
   61.7830   30.2640   51.9490 C   0  0  0  0  0  0  0  0  0  0  0  0
   61.6910   30.7650   49.5250 C   0  0  0  0  0  0  0  0  0  0  0  0
   60.4540   30.0810   49.4100 C   0  0  0  0  0  0  0  0  0  0  0  0
   59.9130   29.7650   48.1680 C   0  0  0  0  0  0  0  0  0  0  0  0
   60.5750   30.1270   46.9980 C   0  0  0  0  0  0  0  0  0  0  0  0
   60.0060   29.7510   45.6520 C   0  0  0  0  0  0  0  0  0  0  0  0
   58.4700   29.7840   45.6140 C   0  0  0  0  0  0  0  0  0  0  0  0
   57.9750   30.5620   44.4480 N   0  0  0  0  0  0  0  0  0  0  0  0
   56.9980   29.7770   43.6450 C   0  0  0  0  0  0  0  0  0  0  0  0
   55.5710   30.0470   44.1180 C   0  0  0  0  0  0  0  0  0  0  0  0
   57.4050   31.8540   44.9070 C   0  0  0  0  0  0  0  0  0  0  0  0
   57.8720   33.0350   44.0560 C   0  0  0  0  0  0  0  0  0  0  0  0
   61.7770   30.8380   47.0840 C   0  0  0  0  0  0  0  0  0  0  0  0
   62.3200   31.2230   48.3350 C   0  0  0  0  0  0  0  0  0  0  0  0
   59.4703   35.7118   47.0318 H   0  0  0  0  0  0  0  0  0  0  0  0
   60.3163   36.0258   45.4786 H   0  0  0  0  0  0  0  0  0  0  0  0
   58.7010   35.2400   45.4786 H   0  0  0  0  0  0  0  0  0  0  0  0
   59.6019   33.1869   45.7992 H   0  0  0  0  0  0  0  0  0  0  0  0
   61.1956   33.9443   45.4348 H   0  0  0  0  0  0  0  0  0  0  0  0
   59.7349   35.2798   48.4172 H   0  0  0  0  0  0  0  0  0  0  0  0
   58.8347   33.6905   48.2713 H   0  0  0  0  0  0  0  0  0  0  0  0
   59.5464   34.4344   50.6326 H   0  0  0  0  0  0  0  0  0  0  0  0
   59.9332   32.7572   50.1188 H   0  0  0  0  0  0  0  0  0  0  0  0
   61.2157   34.0149   50.1188 H   0  0  0  0  0  0  0  0  0  0  0  0
   62.1679   35.2684   47.6787 H   0  0  0  0  0  0  0  0  0  0  0  0
   62.4902   33.7991   48.6929 H   0  0  0  0  0  0  0  0  0  0  0  0
   62.5432   33.1496   45.8441 H   0  0  0  0  0  0  0  0  0  0  0  0
   63.7091   34.4701   46.2451 H   0  0  0  0  0  0  0  0  0  0  0  0
   64.9710   33.0880   47.4380 H   0  0  0  0  0  0  0  0  0  0  0  0
   64.2990   31.9170   46.5230 H   0  0  0  0  0  0  0  0  0  0  0  0
   65.7750   33.3840   48.9730 H   0  0  0  0  0  0  0  0  0  0  0  0
   66.6002   34.0167   51.2255 H   0  0  0  0  0  0  0  0  0  0  0  0
   65.3048   33.3877   53.2531 H   0  0  0  0  0  0  0  0  0  0  0  0
   63.2591   32.0008   53.0433 H   0  0  0  0  0  0  0  0  0  0  0  0
   62.1278   30.7770   52.8589 H   0  0  0  0  0  0  0  0  0  0  0  0
   60.6834   30.2380   51.9371 H   0  0  0  0  0  0  0  0  0  0  0  0
   62.1742   29.2360   51.9371 H   0  0  0  0  0  0  0  0  0  0  0  0
   59.9107   29.7942   50.3225 H   0  0  0  0  0  0  0  0  0  0  0  0
   58.9561   29.2257   48.1100 H   0  0  0  0  0  0  0  0  0  0  0  0
   60.3896   30.4569   44.9006 H   0  0  0  0  0  0  0  0  0  0  0  0
   60.3162   28.7165   45.4431 H   0  0  0  0  0  0  0  0  0  0  0  0
   58.0911   28.7537   45.5442 H   0  0  0  0  0  0  0  0  0  0  0  0
   58.1104   30.2695   46.5332 H   0  0  0  0  0  0  0  0  0  0  0  0
   57.0879   30.0628   42.5866 H   0  0  0  0  0  0  0  0  0  0  0  0
   57.2159   28.7061   43.7706 H   0  0  0  0  0  0  0  0  0  0  0  0
   55.5440   30.0521   45.2177 H   0  0  0  0  0  0  0  0  0  0  0  0
   55.2376   31.0242   43.7385 H   0  0  0  0  0  0  0  0  0  0  0  0
   54.9037   29.2592   43.7385 H   0  0  0  0  0  0  0  0  0  0  0  0
   56.3079   31.7938   44.8552 H   0  0  0  0  0  0  0  0  0  0  0  0
   57.7524   32.0257   45.9365 H   0  0  0  0  0  0  0  0  0  0  0  0
   58.1963   33.8551   44.7134 H   0  0  0  0  0  0  0  0  0  0  0  0
   58.7131   32.7196   43.4211 H   0  0  0  0  0  0  0  0  0  0  0  0
   57.0426   33.3801   43.4211 H   0  0  0  0  0  0  0  0  0  0  0  0
   62.3121   31.1039   46.1604 H   0  0  0  0  0  0  0  0  0  0  0  0
  1  2  1  0
  2  3  1  0
  3  4  1  0
  4  5  1  0
  3  6  1  0
  6  7  1  0
  7  8  1  0
  8  9  1  0
  9 10  2  0
 10 11  1  0
 11 12  2  0
 12 13  1  0
 13 14  2  0
 14 15  1  0
 15 16  2  0
 16 17  1  0
 16 18  1  0
 18 19  2  0
 19 20  1  0
 20 21  2  0
 21 22  1  0
 22 23  1  0
 23 24  1  0
 24 25  1  0
 25 26  1  0
 24 27  1  0
 27 28  1  0
 21 29  1  0
 29 30  2  0
 30  9  1  0
 15 10  1  0
 30 18  1  0
  1 31  1  0
  1 32  1  0
  1 33  1  0
  2 34  1  0
  2 35  1  0
  4 36  1  0
  4 37  1  0
  5 38  1  0
  5 39  1  0
  5 40  1  0
  6 41  1  0
  6 42  1  0
  7 43  1  0
  7 44  1  0
  8 45  1  0
  8 46  1  0
 11 47  1  0
 12 48  1  0
 13 49  1  0
 14 50  1  0
 17 51  1  0
 17 52  1  0
 17 53  1  0
 19 54  1  0
 20 55  1  0
 22 56  1  0
 22 57  1  0
 23 58  1  0
 23 59  1  0
 25 60  1  0
 25 61  1  0
 26 62  1  0
 26 63  1  0
 26 64  1  0
 27 65  1  0
 27 66  1  0
 28 67  1  0
 28 68  1  0
 28 69  1  0
 29 70  1  0
M  CHG  2   8   1  16   1
M  END
>  <UniqueID>  (23) 
23

>  <SMILES>  (23) 
CCN(CC)CC[NH2+]c1c2ccccc2[n+](C)c2ccc(CCN(CC)CC)cc12

>  <Energy>  (23) 
98.26141916885722

>  <Genealogy>  (23) 
CCN(CC)CC[NH2+]c1c2ccccc2[n+](C)c2ccc(CCN(CC)CC)cc12 (protonated)
CCN(CC)CC[NH2+]c1c2ccccc2[n+](C)c2ccc(CCN(CC)CC)cc12 (3D coordinates assigned)
CCN(CC)CC[NH2+]c1c2ccccc2[n+](C)c2ccc(CCN(CC)CC)cc12 (optimized conformer: 98.26141916885722 kcal/mol)

>  <smiles>  (23) 
CCN(CC)CCNc1c2ccccc2[n+](C)c2ccc(CCN(CC)CC)cc12

>  <score_type>  (23) 
oracle

>  <origin>  (23) 
adg

>  <m_score__min__energy>  (23) 
-5.7400000000000002

>  <m_primary>  (23) 
energy

$$$$
23:0
     RDKit          3D

 74 77  0  0  0  0  0  0  0  0999 V2000
   58.5090   33.8630   52.3930 C   0  0  0  0  0  0  0  0  0  0  0  0
   59.6440   32.9210   52.8200 C   0  0  0  0  0  0  0  0  0  0  0  0
   59.6650   31.6060   52.1240 N   0  0  0  0  0  0  0  0  0  0  0  0
   60.5690   30.6070   52.7400 C   0  0  0  0  0  0  0  0  0  0  0  0
   61.8150   30.3550   51.8880 C   0  0  0  0  0  0  0  0  0  0  0  0
   58.3140   31.0380   51.8980 C   0  0  0  0  0  0  0  0  0  0  0  0
   58.1850   30.4430   50.4830 C   0  0  0  0  0  0  0  0  0  0  0  0
   59.4500   30.5480   49.7300 N   0  0  0  0  0  0  0  0  0  0  0  0
   59.1850   30.7370   48.3110 C   0  0  0  0  0  0  0  0  0  0  0  0
   58.8650   29.6010   47.5100 C   0  0  0  0  0  0  0  0  0  0  0  0
   58.9130   28.2790   48.0300 C   0  0  0  0  0  0  0  0  0  0  0  0
   58.5230   27.1840   47.2640 C   0  0  0  0  0  0  0  0  0  0  0  0
   58.0700   27.3700   45.9680 C   0  0  0  0  0  0  0  0  0  0  0  0
   58.0510   28.6450   45.4150 C   0  0  0  0  0  0  0  0  0  0  0  0
   58.4910   29.7770   46.1530 C   0  0  0  0  0  0  0  0  0  0  0  0
   58.5410   31.0240   45.5750 N   0  0  0  0  0  0  0  0  0  0  0  0
   58.4670   31.1530   44.1000 C   0  0  0  0  0  0  0  0  0  0  0  0
   58.7130   32.1490   46.3540 C   0  0  0  0  0  0  0  0  0  0  0  0
   58.4430   33.4310   45.8200 C   0  0  0  0  0  0  0  0  0  0  0  0
   58.7230   34.5810   46.5310 C   0  0  0  0  0  0  0  0  0  0  0  0
   59.2960   34.4980   47.7840 C   0  0  0  0  0  0  0  0  0  0  0  0
   59.5350   33.2510   48.3950 C   0  0  0  0  0  0  0  0  0  0  0  0
   60.1790   33.2210   49.6460 O   0  0  0  0  0  0  0  0  0  0  0  0
   61.1260   34.1870   50.1110 C   0  0  0  0  0  0  0  0  0  0  0  0
   62.4970   33.5220   50.3840 C   0  0  0  0  0  0  0  0  0  0  0  0
   63.1830   32.9250   49.1930 N   0  0  0  0  0  0  0  0  0  0  0  0
   64.6110   32.7310   49.5700 C   0  0  0  0  0  0  0  0  0  0  0  0
   62.5860   31.5870   48.8580 C   0  0  0  0  0  0  0  0  0  0  0  0
   62.5980   31.2870   47.3470 C   0  0  0  0  0  0  0  0  0  0  0  0
   63.7670   31.8070   46.7580 O   0  0  0  0  0  0  0  0  0  0  0  0
   63.7230   33.2250   46.7380 C   0  0  0  0  0  0  0  0  0  0  0  0
   63.1210   33.8500   48.0230 C   0  0  0  0  0  0  0  0  0  0  0  0
   59.1520   32.0420   47.7130 C   0  0  0  0  0  0  0  0  0  0  0  0
   58.0161   34.2721   53.2872 H   0  0  0  0  0  0  0  0  0  0  0  0
   58.9225   34.6870   51.7929 H   0  0  0  0  0  0  0  0  0  0  0  0
   57.7753   33.3047   51.7929 H   0  0  0  0  0  0  0  0  0  0  0  0
   60.6003   33.4272   52.6220 H   0  0  0  0  0  0  0  0  0  0  0  0
   59.4779   32.7025   53.8852 H   0  0  0  0  0  0  0  0  0  0  0  0
   60.8833   30.9747   53.7279 H   0  0  0  0  0  0  0  0  0  0  0  0
   60.0185   29.6583   52.8237 H   0  0  0  0  0  0  0  0  0  0  0  0
   62.6795   30.1802   52.5454 H   0  0  0  0  0  0  0  0  0  0  0  0
   61.6525   29.4715   51.2531 H   0  0  0  0  0  0  0  0  0  0  0  0
   62.0086   31.2322   51.2531 H   0  0  0  0  0  0  0  0  0  0  0  0
   58.1306   30.2450   52.6380 H   0  0  0  0  0  0  0  0  0  0  0  0
   57.5760   31.8470   52.0024 H   0  0  0  0  0  0  0  0  0  0  0  0
   57.9066   29.3821   50.5663 H   0  0  0  0  0  0  0  0  0  0  0  0
   57.4147   31.0110   49.9408 H   0  0  0  0  0  0  0  0  0  0  0  0
   60.0330   31.3340   50.0900 H   0  0  0  0  0  0  0  0  0  0  0  0
   60.0740   29.7360   49.9090 H   0  0  0  0  0  0  0  0  0  0  0  0
   59.2657   28.1178   49.0594 H   0  0  0  0  0  0  0  0  0  0  0  0
   58.5745   26.1703   47.6880 H   0  0  0  0  0  0  0  0  0  0  0  0
   57.7254   26.5088   45.3768 H   0  0  0  0  0  0  0  0  0  0  0  0
   57.6881   28.7806   44.3855 H   0  0  0  0  0  0  0  0  0  0  0  0
   57.9352   32.0800   43.8392 H   0  0  0  0  0  0  0  0  0  0  0  0
   59.4845   31.1843   43.6832 H   0  0  0  0  0  0  0  0  0  0  0  0
   57.9264   30.2905   43.6832 H   0  0  0  0  0  0  0  0  0  0  0  0
   58.0003   33.5134   44.8164 H   0  0  0  0  0  0  0  0  0  0  0  0
   58.4891   35.5649   46.0982 H   0  0  0  0  0  0  0  0  0  0  0  0
   59.5709   35.4214   48.3148 H   0  0  0  0  0  0  0  0  0  0  0  0
   61.2495   34.9684   49.3467 H   0  0  0  0  0  0  0  0  0  0  0  0
   60.7527   34.6254   51.0483 H   0  0  0  0  0  0  0  0  0  0  0  0
   63.1639   34.2866   50.8090 H   0  0  0  0  0  0  0  0  0  0  0  0
   62.2903   32.6805   51.0616 H   0  0  0  0  0  0  0  0  0  0  0  0
   64.7024   32.7186   50.6661 H   0  0  0  0  0  0  0  0  0  0  0  0
   64.9716   31.7756   49.1611 H   0  0  0  0  0  0  0  0  0  0  0  0
   65.2135   33.5555   49.1611 H   0  0  0  0  0  0  0  0  0  0  0  0
   63.1623   30.8060   49.3756 H   0  0  0  0  0  0  0  0  0  0  0  0
   61.5353   31.6034   49.1831 H   0  0  0  0  0  0  0  0  0  0  0  0
   62.5663   30.1984   47.1923 H   0  0  0  0  0  0  0  0  0  0  0  0
   61.7204   31.7580   46.8802 H   0  0  0  0  0  0  0  0  0  0  0  0
   64.7491   33.6022   46.6166 H   0  0  0  0  0  0  0  0  0  0  0  0
   63.0672   33.5137   45.9034 H   0  0  0  0  0  0  0  0  0  0  0  0
   63.6819   34.7644   48.2664 H   0  0  0  0  0  0  0  0  0  0  0  0
   62.0609   34.0660   47.8241 H   0  0  0  0  0  0  0  0  0  0  0  0
  1  2  1  0
  2  3  1  0
  3  4  1  0
  4  5  1  0
  3  6  1  0
  6  7  1  0
  7  8  1  0
  8  9  1  0
  9 10  2  0
 10 11  1  0
 11 12  2  0
 12 13  1  0
 13 14  2  0
 14 15  1  0
 15 16  2  0
 16 17  1  0
 16 18  1  0
 18 19  2  0
 19 20  1  0
 20 21  2  0
 21 22  1  0
 22 23  1  0
 23 24  1  0
 24 25  1  0
 25 26  1  0
 26 27  1  0
 26 28  1  0
 28 29  1  0
 29 30  1  0
 30 31  1  0
 31 32  1  0
 22 33  2  0
 33  9  1  0
 15 10  1  0
 33 18  1  0
 32 26  1  0
  1 34  1  0
  1 35  1  0
  1 36  1  0
  2 37  1  0
  2 38  1  0
  4 39  1  0
  4 40  1  0
  5 41  1  0
  5 42  1  0
  5 43  1  0
  6 44  1  0
  6 45  1  0
  7 46  1  0
  7 47  1  0
  8 48  1  0
  8 49  1  0
 11 50  1  0
 12 51  1  0
 13 52  1  0
 14 53  1  0
 17 54  1  0
 17 55  1  0
 17 56  1  0
 19 57  1  0
 20 58  1  0
 21 59  1  0
 24 60  1  0
 24 61  1  0
 25 62  1  0
 25 63  1  0
 27 64  1  0
 27 65  1  0
 27 66  1  0
 28 67  1  0
 28 68  1  0
 29 69  1  0
 29 70  1  0
 31 71  1  0
 31 72  1  0
 32 73  1  0
 32 74  1  0
M  CHG  3   8   1  16   1  26   1
M  END
>  <UniqueID>  (24) 
24

>  <SMILES>  (24) 
CCN(CC)CC[NH2+]c1c2ccccc2[n+](C)c2cccc(OCC[N+]3(C)CCOCC3)c12

>  <Energy>  (24) 
132.31043021885517

>  <Genealogy>  (24) 
CCN(CC)CC[NH2+]c1c2ccccc2[n+](C)c2cccc(OCC[N+]3(C)CCOCC3)c12 (protonated)
CCN(CC)CC[NH2+]c1c2ccccc2[n+](C)c2cccc(OCC[N+]3(C)CCOCC3)c12 (3D coordinates assigned)
CCN(CC)CC[NH2+]c1c2ccccc2[n+](C)c2cccc(OCC[N+]3(C)CCOCC3)c12 (nonaromatic ring conformer: 132.31043021885517 kcal/mol)

>  <smiles>  (24) 
CCN(CC)CCNc1c2ccccc2[n+](C)c2cccc(OCC[N+]3(C)CCOCC3)c12

>  <score_type>  (24) 
oracle

>  <origin>  (24) 
adg

>  <m_score__min__energy>  (24) 
-3.75

>  <m_primary>  (24) 
energy

$$$$
24:0
     RDKit          3D

 60 63  0  0  0  0  0  0  0  0999 V2000
   57.0690   30.8540   51.6180 C   0  0  0  0  0  0  0  0  0  0  0  0
   57.5110   32.3020   51.7710 C   0  0  0  0  0  0  0  0  0  0  0  0
   58.5270   32.6190   50.7640 N   0  0  0  0  0  0  0  0  0  0  0  0
   59.6410   33.3810   51.3420 C   0  0  0  0  0  0  0  0  0  0  0  0
   60.9930   32.8530   50.8510 C   0  0  0  0  0  0  0  0  0  0  0  0
   60.8430   32.2210   49.5290 N   0  0  0  0  0  0  0  0  0  0  0  0
   61.0570   30.7680   49.5910 C   0  0  0  0  0  0  0  0  0  0  0  0
   60.2200   30.0840   48.5080 C   0  0  0  0  0  0  0  0  0  0  0  0
   58.9200   30.7500   48.2900 N   0  0  0  0  0  0  0  0  0  0  0  0
   58.7520   31.1850   46.9160 C   0  0  0  0  0  0  0  0  0  0  0  0
   58.8950   32.5550   46.5210 C   0  0  0  0  0  0  0  0  0  0  0  0
   59.1840   33.5810   47.4570 C   0  0  0  0  0  0  0  0  0  0  0  0
   59.3640   34.9000   47.0520 C   0  0  0  0  0  0  0  0  0  0  0  0
   59.2650   35.2420   45.7130 C   0  0  0  0  0  0  0  0  0  0  0  0
   58.9640   34.2710   44.7640 C   0  0  0  0  0  0  0  0  0  0  0  0
   58.7420   32.9200   45.1370 C   0  0  0  0  0  0  0  0  0  0  0  0
   58.3880   31.9730   44.1950 N   0  0  0  0  0  0  0  0  0  0  0  0
   58.0750   32.3570   42.8030 C   0  0  0  0  0  0  0  0  0  0  0  0
   58.3220   30.6610   44.5770 C   0  0  0  0  0  0  0  0  0  0  0  0
   58.1110   29.6060   43.7530 N   0  0  0  0  0  0  0  0  0  0  0  0
   58.0930   28.5270   44.5520 C   0  0  0  0  0  0  0  0  0  0  0  0
   57.8960   27.2100   44.1430 C   0  0  0  0  0  0  0  0  0  0  0  0
   57.8880   26.2050   45.1200 C   0  0  0  0  0  0  0  0  0  0  0  0
   58.0700   26.5310   46.4900 C   0  0  0  0  0  0  0  0  0  0  0  0
   58.0430   25.5560   47.4980 O   0  0  0  0  0  0  0  0  0  0  0  0
   57.1240   24.4670   47.5410 C   0  0  0  0  0  0  0  0  0  0  0  0
   58.2780   27.8710   46.8680 C   0  0  0  0  0  0  0  0  0  0  0  0
   58.2930   28.8650   45.8750 C   0  0  0  0  0  0  0  0  0  0  0  0
   58.4660   30.2550   45.8950 C   0  0  0  0  0  0  0  0  0  0  0  0
   56.9321   30.4054   52.6130 H   0  0  0  0  0  0  0  0  0  0  0  0
   56.1187   30.8172   51.0652 H   0  0  0  0  0  0  0  0  0  0  0  0
   57.8367   30.2927   51.0652 H   0  0  0  0  0  0  0  0  0  0  0  0
   56.6436   32.9649   51.6361 H   0  0  0  0  0  0  0  0  0  0  0  0
   57.9362   32.4482   52.7749 H   0  0  0  0  0  0  0  0  0  0  0  0
   58.9110   31.7130   50.4100 H   0  0  0  0  0  0  0  0  0  0  0  0
   59.5418   34.4370   51.0504 H   0  0  0  0  0  0  0  0  0  0  0  0
   59.6036   33.2733   52.4361 H   0  0  0  0  0  0  0  0  0  0  0  0
   61.7038   33.6891   50.7754 H   0  0  0  0  0  0  0  0  0  0  0  0
   61.3671   32.1052   51.5658 H   0  0  0  0  0  0  0  0  0  0  0  0
   59.8670   32.3880   49.1870 H   0  0  0  0  0  0  0  0  0  0  0  0
   62.1218   30.5466   49.4263 H   0  0  0  0  0  0  0  0  0  0  0  0
   60.7542   30.3940   50.5802 H   0  0  0  0  0  0  0  0  0  0  0  0
   60.7855   30.0976   47.5646 H   0  0  0  0  0  0  0  0  0  0  0  0
   60.0159   29.0566   48.8438 H   0  0  0  0  0  0  0  0  0  0  0  0
   58.8360   31.5800   48.9150 H   0  0  0  0  0  0  0  0  0  0  0  0
   58.1460   30.1400   48.6270 H   0  0  0  0  0  0  0  0  0  0  0  0
   59.2675   33.3288   48.5244 H   0  0  0  0  0  0  0  0  0  0  0  0
   59.5862   35.6759   47.7994 H   0  0  0  0  0  0  0  0  0  0  0  0
   59.4249   36.2843   45.3998 H   0  0  0  0  0  0  0  0  0  0  0  0
   58.8967   34.5558   43.7036 H   0  0  0  0  0  0  0  0  0  0  0  0
   57.3800   33.2096   42.8053 H   0  0  0  0  0  0  0  0  0  0  0  0
   59.0022   32.6411   42.2837 H   0  0  0  0  0  0  0  0  0  0  0  0
   57.6098   31.5062   42.2837 H   0  0  0  0  0  0  0  0  0  0  0  0
   58.0140   29.5880   42.7150 H   0  0  0  0  0  0  0  0  0  0  0  0
   57.7505   26.9650   43.0805 H   0  0  0  0  0  0  0  0  0  0  0  0
   57.7397   25.1562   44.8233 H   0  0  0  0  0  0  0  0  0  0  0  0
   56.9078   24.2108   48.5887 H   0  0  0  0  0  0  0  0  0  0  0  0
   56.1911   24.7542   47.0338 H   0  0  0  0  0  0  0  0  0  0  0  0
   57.5639   23.5957   47.0338 H   0  0  0  0  0  0  0  0  0  0  0  0
   58.4266   28.1360   47.9252 H   0  0  0  0  0  0  0  0  0  0  0  0
  1  2  1  0
  2  3  1  0
  3  4  1  0
  4  5  1  0
  5  6  1  0
  6  7  1  0
  7  8  1  0
  8  9  1  0
  9 10  1  0
 10 11  2  0
 11 12  1  0
 12 13  2  0
 13 14  1  0
 14 15  2  0
 15 16  1  0
 16 17  2  0
 17 18  1  0
 17 19  1  0
 19 20  1  0
 20 21  1  0
 21 22  2  0
 22 23  1  0
 23 24  2  0
 24 25  1  0
 25 26  1  0
 24 27  1  0
 27 28  2  0
 28 29  1  0
 29 10  1  0
 16 11  1  0
 29 19  2  0
 28 21  1  0
  1 30  1  0
  1 31  1  0
  1 32  1  0
  2 33  1  0
  2 34  1  0
  3 35  1  0
  4 36  1  0
  4 37  1  0
  5 38  1  0
  5 39  1  0
  6 40  1  0
  7 41  1  0
  7 42  1  0
  8 43  1  0
  8 44  1  0
  9 45  1  0
  9 46  1  0
 12 47  1  0
 13 48  1  0
 14 49  1  0
 15 50  1  0
 18 51  1  0
 18 52  1  0
 18 53  1  0
 20 54  1  0
 22 55  1  0
 23 56  1  0
 26 57  1  0
 26 58  1  0
 26 59  1  0
 27 60  1  0
M  CHG  2   9   1  17   1
M  END
>  <UniqueID>  (25) 
25

>  <SMILES>  (25) 
CCNCCNCC[NH2+]c1c2ccccc2[n+](C)c2[nH]c3ccc(OC)cc3c12

>  <Energy>  (25) 
113.10040424063786

>  <Genealogy>  (25) 
CCNCCNCC[NH2+]c1c2ccccc2[n+](C)c2[nH]c3ccc(OC)cc3c12 (protonated)
CCNCCNCC[NH2+]c1c2ccccc2[n+](C)c2[nH]c3ccc(OC)cc3c12 (3D coordinates assigned)
CCNCCNCC[NH2+]c1c2ccccc2[n+](C)c2[nH]c3ccc(OC)cc3c12 (optimized conformer: 113.10040424063786 kcal/mol)

>  <smiles>  (25) 
CCNCCNCCNc1c2ccccc2[n+](C)c2[nH]c3ccc(OC)cc3c12

>  <score_type>  (25) 
oracle

>  <origin>  (25) 
adg

>  <m_score__min__energy>  (25) 
-4.2400000000000002

>  <m_primary>  (25) 
energy

$$$$
25:0
     RDKit          3D

 49 50  0  0  0  0  0  0  0  0999 V2000
   63.5700   33.1740   47.1000 C   0  0  0  0  0  0  0  0  0  0  0  0
   62.3540   32.3230   47.4590 C   0  0  0  0  0  0  0  0  0  0  0  0
   61.1120   33.1120   47.4640 N   0  0  0  0  0  0  0  0  0  0  0  0
   61.0690   34.2070   46.4780 C   0  0  0  0  0  0  0  0  0  0  0  0
   59.6490   34.6500   46.0620 C   0  0  0  0  0  0  0  0  0  0  0  0
   58.6160   33.6990   46.5020 N   0  0  0  0  0  0  0  0  0  0  0  0
   58.2900   32.7950   45.4280 C   0  0  0  0  0  0  0  0  0  0  0  0
   58.0820   33.2710   44.1140 C   0  0  0  0  0  0  0  0  0  0  0  0
   57.7710   32.3780   43.0700 C   0  0  0  0  0  0  0  0  0  0  0  0
   57.6840   30.9990   43.3160 C   0  0  0  0  0  0  0  0  0  0  0  0
   57.9310   30.5340   44.6130 C   0  0  0  0  0  0  0  0  0  0  0  0
   58.2120   31.4090   45.6300 C   0  0  0  0  0  0  0  0  0  0  0  0
   58.3450   30.6190   46.8340 C   0  0  0  0  0  0  0  0  0  0  0  0
   58.1350   29.3500   46.4860 C   0  0  0  0  0  0  0  0  0  0  0  0
   57.8770   29.1650   45.0680 N   0  0  1  0  0  0  0  0  0  0  0  0
   56.6290   28.6440   44.8570 O   0  0  0  0  0  0  0  0  0  0  0  0
   58.9300   28.3390   44.4160 C   0  0  0  0  0  0  0  0  0  0  0  0
   59.4260   27.1410   45.2580 C   0  0  0  0  0  0  0  0  0  0  0  0
   58.4390   25.9600   45.2970 C   0  0  0  0  0  0  0  0  0  0  0  0
   57.4780   25.9890   44.1830 N   0  0  0  0  0  0  0  0  0  0  0  0
   57.0800   24.6440   43.7600 C   0  0  0  0  0  0  0  0  0  0  0  0
   64.0617   33.5181   48.0218 H   0  0  0  0  0  0  0  0  0  0  0  0
   64.2771   32.5726   46.5098 H   0  0  0  0  0  0  0  0  0  0  0  0
   63.2471   34.0443   46.5098 H   0  0  0  0  0  0  0  0  0  0  0  0
   62.2572   31.5127   46.7214 H   0  0  0  0  0  0  0  0  0  0  0  0
   62.5064   31.9223   48.4720 H   0  0  0  0  0  0  0  0  0  0  0  0
   60.9580   33.4990   48.4240 H   0  0  0  0  0  0  0  0  0  0  0  0
   61.5858   35.0767   46.9100 H   0  0  0  0  0  0  0  0  0  0  0  0
   61.5521   33.8225   45.5676 H   0  0  0  0  0  0  0  0  0  0  0  0
   59.4394   35.6324   46.5103 H   0  0  0  0  0  0  0  0  0  0  0  0
   59.6189   34.6951   44.9633 H   0  0  0  0  0  0  0  0  0  0  0  0
   58.9530   33.1560   47.3320 H   0  0  0  0  0  0  0  0  0  0  0  0
   57.7530   34.2190   46.7840 H   0  0  0  0  0  0  0  0  0  0  0  0
   58.1636   34.3478   43.9046 H   0  0  0  0  0  0  0  0  0  0  0  0
   57.5951   32.7640   42.0551 H   0  0  0  0  0  0  0  0  0  0  0  0
   57.4273   30.2989   42.5073 H   0  0  0  0  0  0  0  0  0  0  0  0
   58.5751   30.9934   47.8424 H   0  0  0  0  0  0  0  0  0  0  0  0
   58.1551   28.5187   47.2061 H   0  0  0  0  0  0  0  0  0  0  0  0
   56.6800   27.9960   44.1010 H   0  0  0  0  0  0  0  0  0  0  0  0
   58.5232   27.9487   43.4715 H   0  0  0  0  0  0  0  0  0  0  0  0
   59.7984   28.9990   44.2737 H   0  0  0  0  0  0  0  0  0  0  0  0
   60.3755   26.7859   44.8309 H   0  0  0  0  0  0  0  0  0  0  0  0
   59.5385   27.4998   46.2918 H   0  0  0  0  0  0  0  0  0  0  0  0
   59.0103   25.0214   45.2451 H   0  0  0  0  0  0  0  0  0  0  0  0
   57.8664   26.0350   46.2332 H   0  0  0  0  0  0  0  0  0  0  0  0
   56.6230   26.5220   44.4660 H   0  0  0  0  0  0  0  0  0  0  0  0
   56.8954   24.0203   44.6471 H   0  0  0  0  0  0  0  0  0  0  0  0
   56.1616   24.7058   43.1577 H   0  0  0  0  0  0  0  0  0  0  0  0
   57.8841   24.1961   43.1577 H   0  0  0  0  0  0  0  0  0  0  0  0
  1  2  1  0
  2  3  1  0
  3  4  1  0
  4  5  1  0
  5  6  1  0
  6  7  1  0
  7  8  2  0
  8  9  1  0
  9 10  2  0
 10 11  1  0
 11 12  2  0
 12 13  1  0
 13 14  2  0
 14 15  1  0
 15 16  1  1
 15 17  1  0
 17 18  1  0
 18 19  1  0
 19 20  1  0
 20 21  1  0
 12  7  1  0
 15 11  1  0
  1 22  1  0
  1 23  1  0
  1 24  1  0
  2 25  1  0
  2 26  1  0
  3 27  1  0
  4 28  1  0
  4 29  1  0
  5 30  1  0
  5 31  1  0
  6 32  1  0
  6 33  1  0
  8 34  1  0
  9 35  1  0
 10 36  1  0
 13 37  1  0
 14 38  1  0
 16 39  1  0
 17 40  1  0
 17 41  1  0
 18 42  1  0
 18 43  1  0
 19 44  1  0
 19 45  1  0
 20 46  1  0
 21 47  1  0
 21 48  1  0
 21 49  1  0
M  CHG  2   6   1  15   1
M  END
>  <UniqueID>  (26) 
26

>  <SMILES>  (26) 
CCNCC[NH2+]c1cccc2c1C=C[N@+]2(O)CCCNC

>  <Energy>  (26) 
76.43684257131795

>  <Genealogy>  (26) 
CCNCC[NH2+]c1cccc2c1C=C[N+]2(O)CCCNC (protonated)
CCNCC[NH2+]c1cccc2c1C=C[N@+]2(O)CCCNC (chirality)
CCNCC[NH2+]c1cccc2c1C=C[N@+]2(O)CCCNC (3D coordinates assigned)
CCNCC[NH2+]c1cccc2c1C=C[N@+]2(O)CCCNC (nonaromatic ring conformer: 76.43684257131795 kcal/mol)

>  <smiles>  (26) 
CCNCCNc1cccc2c1C=C[N+]2([O-])CCCNC

>  <score_type>  (26) 
oracle

>  <origin>  (26) 
adg

>  <m_score__min__energy>  (26) 
-3.4500000000000002

>  <m_primary>  (26) 
energy

$$$$
26:0
     RDKit          3D

 83 85  0  0  0  0  0  0  0  0999 V2000
   57.4130   28.6300   43.9390 C   0  0  0  0  0  0  0  0  0  0  0  0
   56.3780   29.7430   44.0590 C   0  0  0  0  0  0  0  0  0  0  0  0
   56.9160   30.8400   44.8940 N   0  0  0  0  0  0  0  0  0  0  0  0
   57.4460   31.9510   44.0880 C   0  0  0  0  0  0  0  0  0  0  0  0
   57.8640   30.3700   45.9330 C   0  0  0  0  0  0  0  0  0  0  0  0
   59.3510   30.5020   45.5460 C   0  0  0  0  0  0  0  0  0  0  0  0
   60.0710   31.0220   46.6510 O   0  0  0  0  0  0  0  0  0  0  0  0
   61.0180   30.0960   47.1510 C   0  0  0  0  0  0  0  0  0  0  0  0
   60.9650   30.0120   48.6830 C   0  0  0  0  0  0  0  0  0  0  0  0
   60.2780   28.8490   49.1050 O   0  0  0  0  0  0  0  0  0  0  0  0
   58.8810   29.0460   49.0540 C   0  0  0  0  0  0  0  0  0  0  0  0
   58.5670   30.4640   49.5440 C   0  0  0  0  0  0  0  0  0  0  0  0
   57.9080   30.4810   50.8600 N   0  0  0  0  0  0  0  0  0  0  0  0
   58.2930   29.3320   51.6940 C   0  0  0  0  0  0  0  0  0  0  0  0
   59.7090   29.5270   52.2240 C   0  0  0  0  0  0  0  0  0  0  0  0
   59.8950   30.8730   52.6120 O   0  0  0  0  0  0  0  0  0  0  0  0
   59.4380   31.0750   53.9360 C   0  0  0  0  0  0  0  0  0  0  0  0
   58.7840   32.4470   54.0720 C   0  0  0  0  0  0  0  0  0  0  0  0
   59.6470   33.4310   53.5360 O   0  0  0  0  0  0  0  0  0  0  0  0
   58.9270   34.3410   52.7250 C   0  0  0  0  0  0  0  0  0  0  0  0
   59.2220   34.1170   51.2340 C   0  0  0  0  0  0  0  0  0  0  0  0
   59.9980   32.8860   51.0150 N   0  0  0  0  0  0  0  0  0  0  0  0
   60.8760   33.0350   49.8640 C   0  0  0  0  0  0  0  0  0  0  0  0
   62.2830   32.8920   49.9980 C   0  0  0  0  0  0  0  0  0  0  0  0
   62.8740   32.4630   51.2140 C   0  0  0  0  0  0  0  0  0  0  0  0
   64.2580   32.4220   51.3650 C   0  0  0  0  0  0  0  0  0  0  0  0
   65.0830   32.8100   50.3200 C   0  0  0  0  0  0  0  0  0  0  0  0
   64.5320   33.1830   49.0980 C   0  0  0  0  0  0  0  0  0  0  0  0
   63.1280   33.1750   48.8880 C   0  0  0  0  0  0  0  0  0  0  0  0
   62.5860   33.4430   47.6450 N   0  0  0  0  0  0  0  0  0  0  0  0
   63.4560   33.4480   46.4450 C   0  0  0  0  0  0  0  0  0  0  0  0
   61.2260   33.6490   47.5090 C   0  0  0  0  0  0  0  0  0  0  0  0
   60.6720   34.1420   46.2970 C   0  0  0  0  0  0  0  0  0  0  0  0
   59.2960   34.2490   46.1230 C   0  0  0  0  0  0  0  0  0  0  0  0
   58.4350   33.8830   47.1460 C   0  0  0  0  0  0  0  0  0  0  0  0
   58.9460   33.4620   48.3700 C   0  0  0  0  0  0  0  0  0  0  0  0
   60.3440   33.3810   48.5930 C   0  0  0  0  0  0  0  0  0  0  0  0
   57.7175   28.3025   44.9440 H   0  0  0  0  0  0  0  0  0  0  0  0
   56.9764   27.7806   43.3932 H   0  0  0  0  0  0  0  0  0  0  0  0
   58.2918   29.0038   43.3932 H   0  0  0  0  0  0  0  0  0  0  0  0
   56.1398   30.1298   43.0572 H   0  0  0  0  0  0  0  0  0  0  0  0
   55.4670   29.3428   44.5280 H   0  0  0  0  0  0  0  0  0  0  0  0
   57.8227   32.7406   44.7548 H   0  0  0  0  0  0  0  0  0  0  0  0
   58.2664   31.5848   43.4533 H   0  0  0  0  0  0  0  0  0  0  0  0
   56.6451   32.3582   43.4533 H   0  0  0  0  0  0  0  0  0  0  0  0
   57.6928   30.9586   46.8464 H   0  0  0  0  0  0  0  0  0  0  0  0
   57.6701   29.2962   46.0718 H   0  0  0  0  0  0  0  0  0  0  0  0
   59.7513   29.5133   45.2772 H   0  0  0  0  0  0  0  0  0  0  0  0
   59.4523   31.1787   44.6847 H   0  0  0  0  0  0  0  0  0  0  0  0
   60.8034   29.1024   46.7305 H   0  0  0  0  0  0  0  0  0  0  0  0
   62.0223   30.4356   46.8576 H   0  0  0  0  0  0  0  0  0  0  0  0
   61.9916   29.9860   49.0773 H   0  0  0  0  0  0  0  0  0  0  0  0
   60.4275   30.8932   49.0633 H   0  0  0  0  0  0  0  0  0  0  0  0
   58.5276   28.9250   48.0194 H   0  0  0  0  0  0  0  0  0  0  0  0
   58.3746   28.3077   49.6931 H   0  0  0  0  0  0  0  0  0  0  0  0
   59.5090   31.0275   49.6156 H   0  0  0  0  0  0  0  0  0  0  0  0
   57.8733   30.9177   48.8209 H   0  0  0  0  0  0  0  0  0  0  0  0
   58.1560   31.3670   51.3610 H   0  0  0  0  0  0  0  0  0  0  0  0
   57.5955   29.2455   52.5402 H   0  0  0  0  0  0  0  0  0  0  0  0
   58.2565   28.4154   51.0869 H   0  0  0  0  0  0  0  0  0  0  0  0
   59.8669   28.8715   53.0931 H   0  0  0  0  0  0  0  0  0  0  0  0
   60.4303   29.2747   51.4328 H   0  0  0  0  0  0  0  0  0  0  0  0
   58.7025   30.2968   54.1878 H   0  0  0  0  0  0  0  0  0  0  0  0
   60.2969   31.0208   54.6211 H   0  0  0  0  0  0  0  0  0  0  0  0
   57.8308   32.4558   53.5231 H   0  0  0  0  0  0  0  0  0  0  0  0
   58.5949   32.6616   55.1342 H   0  0  0  0  0  0  0  0  0  0  0  0
   57.8500   34.2031   52.9015 H   0  0  0  0  0  0  0  0  0  0  0  0
   59.2381   35.3622   52.9900 H   0  0  0  0  0  0  0  0  0  0  0  0
   58.2695   34.0404   50.6891 H   0  0  0  0  0  0  0  0  0  0  0  0
   59.8158   34.9679   50.8688 H   0  0  0  0  0  0  0  0  0  0  0  0
   59.3570   32.0710   50.9040 H   0  0  0  0  0  0  0  0  0  0  0  0
   60.5490   32.6330   51.8640 H   0  0  0  0  0  0  0  0  0  0  0  0
   62.2290   32.1578   52.0511 H   0  0  0  0  0  0  0  0  0  0  0  0
   64.6972   32.0815   52.3143 H   0  0  0  0  0  0  0  0  0  0  0  0
   66.1743   32.8229   50.4573 H   0  0  0  0  0  0  0  0  0  0  0  0
   65.1978   33.4903   48.2780 H   0  0  0  0  0  0  0  0  0  0  0  0
   64.5108   33.4541   46.7569 H   0  0  0  0  0  0  0  0  0  0  0  0
   63.2566   32.5487   45.8438 H   0  0  0  0  0  0  0  0  0  0  0  0
   63.2462   34.3450   45.8438 H   0  0  0  0  0  0  0  0  0  0  0  0
   61.3441   34.4449   45.4806 H   0  0  0  0  0  0  0  0  0  0  0  0
   58.8904   34.6247   45.1720 H   0  0  0  0  0  0  0  0  0  0  0  0
   57.3469   33.9254   46.9901 H   0  0  0  0  0  0  0  0  0  0  0  0
   58.2531   33.1872   49.1789 H   0  0  0  0  0  0  0  0  0  0  0  0
  1  2  1  0
  2  3  1  0
  3  4  1  0
  3  5  1  0
  5  6  1  0
  6  7  1  0
  7  8  1  0
  8  9  1  0
  9 10  1  0
 10 11  1  0
 11 12  1  0
 12 13  1  0
 13 14  1  0
 14 15  1  0
 15 16  1  0
 16 17  1  0
 17 18  1  0
 18 19  1  0
 19 20  1  0
 20 21  1  0
 21 22  1  0
 22 23  1  0
 23 24  2  0
 24 25  1  0
 25 26  2  0
 26 27  1  0
 27 28  2  0
 28 29  1  0
 29 30  2  0
 30 31  1  0
 30 32  1  0
 32 33  2  0
 33 34  1  0
 34 35  2  0
 35 36  1  0
 36 37  2  0
 37 23  1  0
 29 24  1  0
 37 32  1  0
  1 38  1  0
  1 39  1  0
  1 40  1  0
  2 41  1  0
  2 42  1  0
  4 43  1  0
  4 44  1  0
  4 45  1  0
  5 46  1  0
  5 47  1  0
  6 48  1  0
  6 49  1  0
  8 50  1  0
  8 51  1  0
  9 52  1  0
  9 53  1  0
 11 54  1  0
 11 55  1  0
 12 56  1  0
 12 57  1  0
 13 58  1  0
 14 59  1  0
 14 60  1  0
 15 61  1  0
 15 62  1  0
 17 63  1  0
 17 64  1  0
 18 65  1  0
 18 66  1  0
 20 67  1  0
 20 68  1  0
 21 69  1  0
 21 70  1  0
 22 71  1  0
 22 72  1  0
 25 73  1  0
 26 74  1  0
 27 75  1  0
 28 76  1  0
 31 77  1  0
 31 78  1  0
 31 79  1  0
 33 80  1  0
 34 81  1  0
 35 82  1  0
 36 83  1  0
M  CHG  2  22   1  30   1
M  END
>  <UniqueID>  (27) 
27

>  <SMILES>  (27) 
CCN(C)CCOCCOCCNCCOCCOCC[NH2+]c1c2ccccc2[n+](C)c2ccccc12

>  <Energy>  (27) 
114.47296790605809

>  <Genealogy>  (27) 
CCN(C)CCOCCOCCNCCOCCOCC[NH2+]c1c2ccccc2[n+](C)c2ccccc12 (protonated)
CCN(C)CCOCCOCCNCCOCCOCC[NH2+]c1c2ccccc2[n+](C)c2ccccc12 (3D coordinates assigned)
CCN(C)CCOCCOCCNCCOCCOCC[NH2+]c1c2ccccc2[n+](C)c2ccccc12 (optimized conformer: 114.47296790605809 kcal/mol)

>  <smiles>  (27) 
CCN(C)CCOCCOCCNCCOCCOCCNc1c2ccccc2[n+](C)c2ccccc12

>  <score_type>  (27) 
oracle

>  <origin>  (27) 
adg

>  <m_score__min__energy>  (27) 
-3.9500000000000002

>  <m_primary>  (27) 
energy

$$$$
27:0
     RDKit          3D

 52 56  0  0  0  0  0  0  0  0999 V2000
   57.0330   31.0220   44.2910 C   0  0  0  0  0  0  0  0  0  0  0  0
   58.1540   31.2480   45.2190 N   0  0  0  0  0  0  0  0  0  0  0  0
   58.6900   30.1960   45.9220 C   0  0  0  0  0  0  0  0  0  0  0  0
   59.5180   30.3920   47.0100 C   0  0  0  0  0  0  0  0  0  0  0  0
   59.9310   31.6690   47.3710 C   0  0  0  0  0  0  0  0  0  0  0  0
   60.7830   31.8470   48.5070 N   0  0  0  0  0  0  0  0  0  0  0  0
   62.1100   31.2310   48.5410 C   0  0  0  0  0  0  0  0  0  0  0  0
   62.9530   31.6010   47.2960 C   0  0  0  0  0  0  0  0  0  0  0  0
   63.7700   32.8360   47.4270 N   0  0  0  0  0  0  0  0  0  0  0  0
   63.7970   33.3620   48.8020 C   0  0  0  0  0  0  0  0  0  0  0  0
   63.3730   33.8870   46.4680 C   0  0  0  0  0  0  0  0  0  0  0  0
   59.5340   32.7530   46.5580 C   0  0  0  0  0  0  0  0  0  0  0  0
   60.0140   34.0540   46.8070 C   0  0  0  0  0  0  0  0  0  0  0  0
   59.6450   35.1140   45.9820 C   0  0  0  0  0  0  0  0  0  0  0  0
   58.8110   34.8950   44.8900 C   0  0  0  0  0  0  0  0  0  0  0  0
   58.3220   33.6160   44.6210 C   0  0  0  0  0  0  0  0  0  0  0  0
   58.6480   32.5210   45.4570 C   0  0  0  0  0  0  0  0  0  0  0  0
   59.8500   29.1060   47.7080 C   0  0  0  0  0  0  0  0  0  0  0  0
   59.1600   28.1200   46.8230 C   0  0  0  0  0  0  0  0  0  0  0  0
   59.2060   26.7210   46.9350 C   0  0  0  0  0  0  0  0  0  0  0  0
   58.5760   25.9950   45.9230 C   0  0  0  0  0  0  0  0  0  0  0  0
   57.9650   26.6010   44.8650 C   0  0  0  0  0  0  0  0  0  0  0  0
   57.9120   27.9920   44.7260 C   0  0  0  0  0  0  0  0  0  0  0  0
   58.4920   28.7490   45.7660 C   0  0  0  0  0  0  0  0  0  0  0  0
   57.4640   25.6370   44.0120 O   0  0  0  0  0  0  0  0  0  0  0  0
   57.7660   24.3490   44.5700 C   0  0  0  0  0  0  0  0  0  0  0  0
   58.4780   24.6250   45.7840 O   0  0  0  0  0  0  0  0  0  0  0  0
   56.1133   30.8366   44.8652 H   0  0  0  0  0  0  0  0  0  0  0  0
   56.8967   31.9107   43.6573 H   0  0  0  0  0  0  0  0  0  0  0  0
   57.2517   30.1499   43.6573 H   0  0  0  0  0  0  0  0  0  0  0  0
   60.4720   32.4990   49.2610 H   0  0  0  0  0  0  0  0  0  0  0  0
   62.6382   31.5748   49.4426 H   0  0  0  0  0  0  0  0  0  0  0  0
   61.9777   30.1390   48.5496 H   0  0  0  0  0  0  0  0  0  0  0  0
   63.6343   30.7634   47.0856 H   0  0  0  0  0  0  0  0  0  0  0  0
   62.2329   31.7966   46.4878 H   0  0  0  0  0  0  0  0  0  0  0  0
   64.7560   32.5690   47.1860 H   0  0  0  0  0  0  0  0  0  0  0  0
   63.7541   32.5258   49.5154 H   0  0  0  0  0  0  0  0  0  0  0  0
   64.7255   33.9305   48.9589 H   0  0  0  0  0  0  0  0  0  0  0  0
   62.9316   34.0226   48.9589 H   0  0  0  0  0  0  0  0  0  0  0  0
   63.0365   34.7778   47.0187 H   0  0  0  0  0  0  0  0  0  0  0  0
   64.2336   34.1503   45.8355 H   0  0  0  0  0  0  0  0  0  0  0  0
   62.5532   33.5156   45.8355 H   0  0  0  0  0  0  0  0  0  0  0  0
   60.6854   34.2341   47.6595 H   0  0  0  0  0  0  0  0  0  0  0  0
   60.0144   36.1281   46.1946 H   0  0  0  0  0  0  0  0  0  0  0  0
   58.5356   35.7348   44.2351 H   0  0  0  0  0  0  0  0  0  0  0  0
   57.6738   33.4563   43.7467 H   0  0  0  0  0  0  0  0  0  0  0  0
   60.9356   28.9312   47.7395 H   0  0  0  0  0  0  0  0  0  0  0  0
   59.5388   29.0669   48.7623 H   0  0  0  0  0  0  0  0  0  0  0  0
   59.7117   26.2236   47.7757 H   0  0  0  0  0  0  0  0  0  0  0  0
   57.4434   28.4699   43.8530 H   0  0  0  0  0  0  0  0  0  0  0  0
   56.8406   23.7938   44.7828 H   0  0  0  0  0  0  0  0  0  0  0  0
   58.3552   23.7284   43.8788 H   0  0  0  0  0  0  0  0  0  0  0  0
  1  2  1  0
  2  3  2  0
  3  4  1  0
  4  5  2  0
  5  6  1  0
  6  7  1  0
  7  8  1  0
  8  9  1  0
  9 10  1  0
  9 11  1  0
  5 12  1  0
 12 13  2  0
 13 14  1  0
 14 15  2  0
 15 16  1  0
 16 17  2  0
  4 18  1  0
 18 19  1  0
 19 20  2  0
 20 21  1  0
 21 22  2  0
 22 23  1  0
 23 24  2  0
 22 25  1  0
 25 26  1  0
 26 27  1  0
 17  2  1  0
 24 19  1  0
 24  3  1  0
 17 12  1  0
 27 21  1  0
  1 28  1  0
  1 29  1  0
  1 30  1  0
  6 31  1  0
  7 32  1  0
  7 33  1  0
  8 34  1  0
  8 35  1  0
  9 36  1  0
 10 37  1  0
 10 38  1  0
 10 39  1  0
 11 40  1  0
 11 41  1  0
 11 42  1  0
 13 43  1  0
 14 44  1  0
 15 45  1  0
 16 46  1  0
 18 47  1  0
 18 48  1  0
 20 49  1  0
 23 50  1  0
 26 51  1  0
 26 52  1  0
M  CHG  2   2   1   9   1
M  END
>  <UniqueID>  (28) 
28

>  <SMILES>  (28) 
C[n+]1c2c(c(NCC[NH+](C)C)c3ccccc31)Cc1cc3c(cc1-2)OCO3

>  <Energy>  (28) 
130.13600632191716

>  <Genealogy>  (28) 
C[n+]1c2c(c(NCC[NH+](C)C)c3ccccc31)Cc1cc3c(cc1-2)OCO3 (protonated)
C[n+]1c2c(c(NCC[NH+](C)C)c3ccccc31)Cc1cc3c(cc1-2)OCO3 (3D coordinates assigned)
C[n+]1c2c(c(NCC[NH+](C)C)c3ccccc31)Cc1cc3c(cc1-2)OCO3 (nonaromatic ring conformer: 130.13600632191716 kcal/mol)

>  <smiles>  (28) 
CN(C)CCNc1c2c([n+](C)c3ccccc13)-c1cc3c(cc1C2)OCO3

>  <score_type>  (28) 
oracle

>  <origin>  (28) 
adg

>  <m_score__min__energy>  (28) 
-5.0999999999999996

>  <m_primary>  (28) 
energy

$$$$
28:0
     RDKit          3D

 67 70  0  0  0  0  0  0  0  0999 V2000
   63.2030   32.6200   47.1400 C   0  0  0  0  0  0  0  0  0  0  0  0
   63.5080   32.4100   48.6210 C   0  0  0  0  0  0  0  0  0  0  0  0
   62.7130   31.2920   49.1480 N   0  0  0  0  0  0  0  0  0  0  0  0
   63.1600   30.9480   50.5050 C   0  0  0  0  0  0  0  0  0  0  0  0
   62.0450   30.1920   51.2450 C   0  0  0  0  0  0  0  0  0  0  0  0
   60.8030   30.1090   50.4600 N   0  0  0  0  0  0  0  0  0  0  0  0
   60.7920   28.9470   49.5580 C   0  0  0  0  0  0  0  0  0  0  0  0
   60.4030   29.3660   48.1370 C   0  0  0  0  0  0  0  0  0  0  0  0
   59.5020   30.5230   48.1480 N   0  0  0  0  0  0  0  0  0  0  0  0
   59.0600   31.1190   46.9210 C   0  0  0  0  0  0  0  0  0  0  0  0
   58.4170   30.3120   45.9650 C   0  0  0  0  0  0  0  0  0  0  0  0
   58.1830   28.9440   46.2220 C   0  0  0  0  0  0  0  0  0  0  0  0
   57.5000   28.1550   45.2990 C   0  0  0  0  0  0  0  0  0  0  0  0
   57.0220   28.7170   44.1220 C   0  0  0  0  0  0  0  0  0  0  0  0
   57.2540   30.0620   43.8420 C   0  0  0  0  0  0  0  0  0  0  0  0
   57.9920   30.8780   44.7390 C   0  0  0  0  0  0  0  0  0  0  0  0
   58.2810   32.1960   44.4480 N   0  0  0  0  0  0  0  0  0  0  0  0
   58.1260   32.7000   43.0650 C   0  0  0  0  0  0  0  0  0  0  0  0
   58.7700   33.0320   45.4320 C   0  0  0  0  0  0  0  0  0  0  0  0
   58.8080   34.4310   45.2390 C   0  0  0  0  0  0  0  0  0  0  0  0
   59.4060   35.2680   46.1710 C   0  0  0  0  0  0  0  0  0  0  0  0
   59.9620   34.7450   47.3290 C   0  0  0  0  0  0  0  0  0  0  0  0
   59.8770   33.3690   47.6120 C   0  0  0  0  0  0  0  0  0  0  0  0
   60.4140   32.8340   48.8010 O   0  0  0  0  0  0  0  0  0  0  0  0
   60.6540   33.5030   50.0410 C   0  0  0  0  0  0  0  0  0  0  0  0
   59.7570   32.9230   51.1430 C   0  0  1  0  0  0  0  0  0  0  0  0
   58.9000   33.9650   51.8450 C   0  0  0  0  0  0  0  0  0  0  0  0
   57.7130   33.1740   52.3570 C   0  0  0  0  0  0  0  0  0  0  0  0
   57.7250   31.8660   51.5670 C   0  0  0  0  0  0  0  0  0  0  0  0
   58.8390   31.9120   50.6170 N   0  0  0  0  0  0  0  0  0  0  0  0
   59.2370   32.5030   46.6720 C   0  0  0  0  0  0  0  0  0  0  0  0
   62.3011   33.2410   47.0359 H   0  0  0  0  0  0  0  0  0  0  0  0
   64.0534   33.1249   46.6585 H   0  0  0  0  0  0  0  0  0  0  0  0
   63.0347   31.6454   46.6585 H   0  0  0  0  0  0  0  0  0  0  0  0
   64.5777   32.1850   48.7436 H   0  0  0  0  0  0  0  0  0  0  0  0
   63.2517   33.3256   49.1742 H   0  0  0  0  0  0  0  0  0  0  0  0
   61.7180   31.6170   49.2140 H   0  0  0  0  0  0  0  0  0  0  0  0
   64.0548   30.3111   50.4442 H   0  0  0  0  0  0  0  0  0  0  0  0
   63.3985   31.8712   51.0535 H   0  0  0  0  0  0  0  0  0  0  0  0
   62.3943   29.1716   51.4614 H   0  0  0  0  0  0  0  0  0  0  0  0
   61.8205   30.7471   52.1678 H   0  0  0  0  0  0  0  0  0  0  0  0
   60.6900   30.9890   49.9050 H   0  0  0  0  0  0  0  0  0  0  0  0
   61.7949   28.4954   49.5392 H   0  0  0  0  0  0  0  0  0  0  0  0
   60.0524   28.2210   49.9268 H   0  0  0  0  0  0  0  0  0  0  0  0
   61.3142   29.6272   47.5788 H   0  0  0  0  0  0  0  0  0  0  0  0
   59.8801   28.5246   47.6589 H   0  0  0  0  0  0  0  0  0  0  0  0
   59.3440   31.0660   49.0290 H   0  0  0  0  0  0  0  0  0  0  0  0
   58.5434   28.4965   47.1600 H   0  0  0  0  0  0  0  0  0  0  0  0
   57.3391   27.0860   45.5024 H   0  0  0  0  0  0  0  0  0  0  0  0
   56.4583   28.0980   43.4085 H   0  0  0  0  0  0  0  0  0  0  0  0
   56.8595   30.4979   42.9123 H   0  0  0  0  0  0  0  0  0  0  0  0
   57.8028   33.7511   43.0919 H   0  0  0  0  0  0  0  0  0  0  0  0
   59.0885   32.6257   42.5377 H   0  0  0  0  0  0  0  0  0  0  0  0
   57.3716   32.0977   42.5377 H   0  0  0  0  0  0  0  0  0  0  0  0
   58.3560   34.8644   44.3347 H   0  0  0  0  0  0  0  0  0  0  0  0
   59.4391   36.3525   45.9901 H   0  0  0  0  0  0  0  0  0  0  0  0
   60.4758   35.4140   48.0350 H   0  0  0  0  0  0  0  0  0  0  0  0
   61.7085   33.3722   50.3255 H   0  0  0  0  0  0  0  0  0  0  0  0
   60.4255   34.5722   49.9202 H   0  0  0  0  0  0  0  0  0  0  0  0
   60.4658   32.4879   51.8630 H   0  0  0  0  0  0  0  0  0  0  0  0
   59.4502   34.4283   52.6773 H   0  0  0  0  0  0  0  0  0  0  0  0
   58.6055   34.7905   51.1803 H   0  0  0  0  0  0  0  0  0  0  0  0
   57.8192   32.9743   53.4335 H   0  0  0  0  0  0  0  0  0  0  0  0
   56.7687   33.7225   52.2253 H   0  0  0  0  0  0  0  0  0  0  0  0
   57.8574   31.0176   52.2545 H   0  0  0  0  0  0  0  0  0  0  0  0
   56.7737   31.7395   51.0294 H   0  0  0  0  0  0  0  0  0  0  0  0
   58.4550   32.2520   49.7050 H   0  0  0  0  0  0  0  0  0  0  0  0
  1  2  1  0
  2  3  1  0
  3  4  1  0
  4  5  1  0
  5  6  1  0
  6  7  1  0
  7  8  1  0
  8  9  1  0
  9 10  1  0
 10 11  2  0
 11 12  1  0
 12 13  2  0
 13 14  1  0
 14 15  2  0
 15 16  1  0
 16 17  2  0
 17 18  1  0
 17 19  1  0
 19 20  2  0
 20 21  1  0
 21 22  2  0
 22 23  1  0
 23 24  1  0
 24 25  1  0
 25 26  1  0
 26 27  1  0
 27 28  1  0
 28 29  1  0
 29 30  1  0
 23 31  2  0
 31 10  1  0
 16 11  1  0
 31 19  1  0
 30 26  1  0
  1 32  1  0
  1 33  1  0
  1 34  1  0
  2 35  1  0
  2 36  1  0
  3 37  1  0
  4 38  1  0
  4 39  1  0
  5 40  1  0
  5 41  1  0
  6 42  1  0
  7 43  1  0
  7 44  1  0
  8 45  1  0
  8 46  1  0
  9 47  1  0
 12 48  1  0
 13 49  1  0
 14 50  1  0
 15 51  1  0
 18 52  1  0
 18 53  1  0
 18 54  1  0
 20 55  1  0
 21 56  1  0
 22 57  1  0
 25 58  1  0
 25 59  1  0
 26 60  1  1
 27 61  1  0
 27 62  1  0
 28 63  1  0
 28 64  1  0
 29 65  1  0
 29 66  1  0
 30 67  1  0
M  CHG  1  17   1
M  END
>  <UniqueID>  (29) 
29

>  <SMILES>  (29) 
CCNCCNCCNc1c2ccccc2[n+](C)c2cccc(OC[C@H]3CCCN3)c12

>  <Energy>  (29) 
92.50803859051629

>  <Genealogy>  (29) 
CCNCCNCCNc1c2ccccc2[n+](C)c2cccc(OC[C@H]3CCCN3)c12 (chirality)
CCNCCNCCNc1c2ccccc2[n+](C)c2cccc(OC[C@H]3CCCN3)c12 (3D coordinates assigned)
CCNCCNCCNc1c2ccccc2[n+](C)c2cccc(OC[C@H]3CCCN3)c12 (nonaromatic ring conformer: 92.50803859051629 kcal/mol)

>  <smiles>  (29) 
CCNCCNCCNc1c2ccccc2[n+](C)c2cccc(OCC3CCCN3)c12

>  <score_type>  (29) 
oracle

>  <origin>  (29) 
adg

>  <m_score__min__energy>  (29) 
-4.8700000000000001

>  <m_primary>  (29) 
energy

$$$$
29:0
     RDKit          3D

 54 57  0  0  0  0  0  0  0  0999 V2000
   56.3010   23.4410   43.3700 C   0  0  0  0  0  0  0  0  0  0  0  0
   55.6050   24.0970   44.5620 C   0  0  0  0  0  0  0  0  0  0  0  0
   56.4860   25.1120   45.1790 N   0  0  0  0  0  0  0  0  0  0  0  0
   56.4480   24.9880   46.6470 C   0  0  0  0  0  0  0  0  0  0  0  0
   57.8780   25.0040   44.6820 C   0  0  0  0  0  0  0  0  0  0  0  0
   58.3420   26.3580   44.1290 C   0  0  0  0  0  0  0  0  0  0  0  0
   57.3950   27.4520   44.4330 N   0  0  0  0  0  0  0  0  0  0  0  0
   58.0480   28.5900   45.0720 C   0  0  0  0  0  0  0  0  0  0  0  0
   58.7730   28.4350   46.2900 C   0  0  0  0  0  0  0  0  0  0  0  0
   58.9450   27.1740   46.9210 C   0  0  0  0  0  0  0  0  0  0  0  0
   59.6490   27.0500   48.1160 C   0  0  0  0  0  0  0  0  0  0  0  0
   60.2040   28.1700   48.7170 C   0  0  0  0  0  0  0  0  0  0  0  0
   60.0640   29.4180   48.1230 C   0  0  0  0  0  0  0  0  0  0  0  0
   59.3540   29.5730   46.9050 C   0  0  0  0  0  0  0  0  0  0  0  0
   59.2240   30.8440   46.3000 C   0  0  0  0  0  0  0  0  0  0  0  0
   59.8420   32.0220   46.9650 C   0  0  0  0  0  0  0  0  0  0  0  0
   59.0510   32.9010   47.7200 C   0  0  0  0  0  0  0  0  0  0  0  0
   59.6350   34.0080   48.3440 C   0  0  0  0  0  0  0  0  0  0  0  0
   61.0070   34.2410   48.2160 C   0  0  0  0  0  0  0  0  0  0  0  0
   61.7990   33.3680   47.4630 C   0  0  0  0  0  0  0  0  0  0  0  0
   61.2200   32.2600   46.8370 C   0  0  0  0  0  0  0  0  0  0  0  0
   58.5410   30.9880   45.1100 N   0  0  0  0  0  0  0  0  0  0  0  0
   58.4350   32.2370   44.5310 C   0  0  0  0  0  0  0  0  0  0  0  0
   57.7630   32.4310   43.3310 C   0  0  0  0  0  0  0  0  0  0  0  0
   57.1860   31.3520   42.6930 C   0  0  0  0  0  0  0  0  0  0  0  0
   57.2790   30.0890   43.2580 C   0  0  0  0  0  0  0  0  0  0  0  0
   57.9610   29.8930   44.4870 C   0  0  0  0  0  0  0  0  0  0  0  0
   57.0566   22.7288   43.7330 H   0  0  0  0  0  0  0  0  0  0  0  0
   55.5576   22.9074   42.7595 H   0  0  0  0  0  0  0  0  0  0  0  0
   56.7897   24.2146   42.7595 H   0  0  0  0  0  0  0  0  0  0  0  0
   54.6787   24.5813   44.2193 H   0  0  0  0  0  0  0  0  0  0  0  0
   55.3733   23.3240   45.3095 H   0  0  0  0  0  0  0  0  0  0  0  0
   56.7412   25.9449   47.1035 H   0  0  0  0  0  0  0  0  0  0  0  0
   55.4285   24.7264   46.9666 H   0  0  0  0  0  0  0  0  0  0  0  0
   57.1459   24.2001   46.9666 H   0  0  0  0  0  0  0  0  0  0  0  0
   58.5380   24.7022   45.5086 H   0  0  0  0  0  0  0  0  0  0  0  0
   57.9187   24.2523   43.8800 H   0  0  0  0  0  0  0  0  0  0  0  0
   59.3181   26.6038   44.5727 H   0  0  0  0  0  0  0  0  0  0  0  0
   58.4047   26.2666   43.0346 H   0  0  0  0  0  0  0  0  0  0  0  0
   56.5820   27.0860   44.9690 H   0  0  0  0  0  0  0  0  0  0  0  0
   56.9360   27.7650   43.5490 H   0  0  0  0  0  0  0  0  0  0  0  0
   58.5127   26.2760   46.4555 H   0  0  0  0  0  0  0  0  0  0  0  0
   59.7652   26.0615   48.5844 H   0  0  0  0  0  0  0  0  0  0  0  0
   60.7549   28.0701   49.6638 H   0  0  0  0  0  0  0  0  0  0  0  0
   60.5109   30.3000   48.6050 H   0  0  0  0  0  0  0  0  0  0  0  0
   57.9708   32.7194   47.8212 H   0  0  0  0  0  0  0  0  0  0  0  0
   59.0138   34.6960   48.9362 H   0  0  0  0  0  0  0  0  0  0  0  0
   61.4646   35.1120   48.7080 H   0  0  0  0  0  0  0  0  0  0  0  0
   62.8787   33.5534   47.3632 H   0  0  0  0  0  0  0  0  0  0  0  0
   61.8438   31.5748   46.2443 H   0  0  0  0  0  0  0  0  0  0  0  0
   58.8948   33.1010   45.0332 H   0  0  0  0  0  0  0  0  0  0  0  0
   57.6913   33.4373   42.8925 H   0  0  0  0  0  0  0  0  0  0  0  0
   56.6545   31.4931   41.7403 H   0  0  0  0  0  0  0  0  0  0  0  0
   56.8191   29.2297   42.7480 H   0  0  0  0  0  0  0  0  0  0  0  0
  1  2  1  0
  2  3  1  0
  3  4  1  0
  3  5  1  0
  5  6  1  0
  6  7  1  0
  7  8  1  0
  8  9  2  0
  9 10  1  0
 10 11  2  0
 11 12  1  0
 12 13  2  0
 13 14  1  0
 14 15  2  0
 15 16  1  0
 16 17  2  0
 17 18  1  0
 18 19  2  0
 19 20  1  0
 20 21  2  0
 15 22  1  0
 22 23  2  0
 23 24  1  0
 24 25  2  0
 25 26  1  0
 26 27  2  0
 27  8  1  0
 14  9  1  0
 21 16  1  0
 27 22  1  0
  1 28  1  0
  1 29  1  0
  1 30  1  0
  2 31  1  0
  2 32  1  0
  4 33  1  0
  4 34  1  0
  4 35  1  0
  5 36  1  0
  5 37  1  0
  6 38  1  0
  6 39  1  0
  7 40  1  0
  7 41  1  0
 10 42  1  0
 11 43  1  0
 12 44  1  0
 13 45  1  0
 17 46  1  0
 18 47  1  0
 19 48  1  0
 20 49  1  0
 21 50  1  0
 23 51  1  0
 24 52  1  0
 25 53  1  0
 26 54  1  0
M  CHG  2   7   1  22   1
M  END
>  <UniqueID>  (30) 
30

>  <SMILES>  (30) 
CCN(C)CC[NH2+]c1c2ccccc2c(-c2ccccc2)[n+]2ccccc12

>  <Energy>  (30) 
88.6102014833007

>  <Genealogy>  (30) 
CCN(C)CC[NH2+]c1c2ccccc2c(-c2ccccc2)[n+]2ccccc12 (protonated)
CCN(C)CC[NH2+]c1c2ccccc2c(-c2ccccc2)[n+]2ccccc12 (3D coordinates assigned)
CCN(C)CC[NH2+]c1c2ccccc2c(-c2ccccc2)[n+]2ccccc12 (optimized conformer: 88.6102014833007 kcal/mol)

>  <smiles>  (30) 
CCN(C)CCNc1c2ccccc2c(-c2ccccc2)[n+]2ccccc12

>  <score_type>  (30) 
oracle

>  <origin>  (30) 
adg

>  <m_score__min__energy>  (30) 
-5.2699999999999996

>  <m_primary>  (30) 
energy

$$$$
30:0
     RDKit          3D

 53 55  0  0  0  0  0  0  0  0999 V2000
   63.7420   32.3130   48.5680 C   0  0  0  0  0  0  0  0  0  0  0  0
   62.8510   32.5790   47.3440 C   0  0  0  0  0  0  0  0  0  0  0  0
   62.1290   33.8720   47.3840 N   0  0  0  0  0  0  0  0  0  0  0  0
   61.6440   34.2200   48.7290 C   0  0  0  0  0  0  0  0  0  0  0  0
   61.0730   33.9870   46.3540 C   0  0  0  0  0  0  0  0  0  0  0  0
   59.8750   34.7790   46.8960 C   0  0  0  0  0  0  0  0  0  0  0  0
   58.5920   34.5820   46.0640 C   0  0  0  0  0  0  0  0  0  0  0  0
   57.7440   33.5240   46.6170 N   0  0  0  0  0  0  0  0  0  0  0  0
   58.1490   32.1450   46.6430 C   0  0  0  0  0  0  0  0  0  0  0  0
   58.7740   31.6190   47.7840 C   0  0  0  0  0  0  0  0  0  0  0  0
   58.9070   32.3860   48.9600 C   0  0  0  0  0  0  0  0  0  0  0  0
   59.5290   31.8550   50.0890 C   0  0  0  0  0  0  0  0  0  0  0  0
   60.0180   30.5530   50.0670 C   0  0  0  0  0  0  0  0  0  0  0  0
   59.9070   29.7820   48.9100 C   0  0  0  0  0  0  0  0  0  0  0  0
   59.3080   30.3060   47.7390 C   0  0  0  0  0  0  0  0  0  0  0  0
   59.2540   29.5790   46.5660 N   0  0  0  0  0  0  0  0  0  0  0  0
   60.1960   28.4560   46.3730 C   0  0  0  0  0  0  0  0  0  0  0  0
   58.4030   29.9720   45.5470 C   0  0  0  0  0  0  0  0  0  0  0  0
   58.0060   29.0880   44.4950 C   0  0  0  0  0  0  0  0  0  0  0  0
   58.3290   27.7210   44.5590 O   0  0  0  0  0  0  0  0  0  0  0  0
   58.1400   26.7820   43.5060 C   0  0  0  0  0  0  0  0  0  0  0  0
   57.2360   29.5810   43.4260 C   0  0  0  0  0  0  0  0  0  0  0  0
   56.7800   30.8920   43.4230 C   0  0  0  0  0  0  0  0  0  0  0  0
   57.0700   31.7340   44.4870 C   0  0  0  0  0  0  0  0  0  0  0  0
   57.8790   31.2960   45.5530 C   0  0  0  0  0  0  0  0  0  0  0  0
   63.1632   32.4858   49.4873 H   0  0  0  0  0  0  0  0  0  0  0  0
   64.0933   31.2708   48.5463 H   0  0  0  0  0  0  0  0  0  0  0  0
   64.6071   32.9920   48.5463 H   0  0  0  0  0  0  0  0  0  0  0  0
   63.4866   32.5671   46.4463 H   0  0  0  0  0  0  0  0  0  0  0  0
   62.0841   31.7905   47.3358 H   0  0  0  0  0  0  0  0  0  0  0  0
   62.2933   33.7541   49.4848 H   0  0  0  0  0  0  0  0  0  0  0  0
   61.6617   35.3128   48.8538 H   0  0  0  0  0  0  0  0  0  0  0  0
   60.6145   33.8533   48.8538 H   0  0  0  0  0  0  0  0  0  0  0  0
   61.4811   34.5056   45.4739 H   0  0  0  0  0  0  0  0  0  0  0  0
   60.7353   32.9773   46.0775 H   0  0  0  0  0  0  0  0  0  0  0  0
   59.6769   34.4517   47.9273 H   0  0  0  0  0  0  0  0  0  0  0  0
   60.1377   35.8460   46.8452 H   0  0  0  0  0  0  0  0  0  0  0  0
   58.0251   35.5246   46.0547 H   0  0  0  0  0  0  0  0  0  0  0  0
   58.8859   34.2882   45.0455 H   0  0  0  0  0  0  0  0  0  0  0  0
   56.8230   33.7840   47.0390 H   0  0  0  0  0  0  0  0  0  0  0  0
   58.5159   33.4138   48.9867 H   0  0  0  0  0  0  0  0  0  0  0  0
   59.6331   32.4660   50.9978 H   0  0  0  0  0  0  0  0  0  0  0  0
   60.4935   30.1303   50.9644 H   0  0  0  0  0  0  0  0  0  0  0  0
   60.2907   28.7511   48.9073 H   0  0  0  0  0  0  0  0  0  0  0  0
   60.5166   28.0738   47.3534 H   0  0  0  0  0  0  0  0  0  0  0  0
   59.6980   27.6521   45.8110 H   0  0  0  0  0  0  0  0  0  0  0  0
   61.0742   28.8065   45.8110 H   0  0  0  0  0  0  0  0  0  0  0  0
   57.9399   25.7880   43.9326 H   0  0  0  0  0  0  0  0  0  0  0  0
   57.2865   27.0934   42.8858 H   0  0  0  0  0  0  0  0  0  0  0  0
   59.0475   26.7390   42.8858 H   0  0  0  0  0  0  0  0  0  0  0  0
   56.9922   28.9193   42.5818 H   0  0  0  0  0  0  0  0  0  0  0  0
   56.1870   31.2645   42.5747 H   0  0  0  0  0  0  0  0  0  0  0  0
   56.6631   32.7559   44.4979 H   0  0  0  0  0  0  0  0  0  0  0  0
  1  2  1  0
  2  3  1  0
  3  4  1  0
  3  5  1  0
  5  6  1  0
  6  7  1  0
  7  8  1  0
  8  9  1  0
  9 10  2  0
 10 11  1  0
 11 12  2  0
 12 13  1  0
 13 14  2  0
 14 15  1  0
 15 16  2  0
 16 17  1  0
 16 18  1  0
 18 19  2  0
 19 20  1  0
 20 21  1  0
 19 22  1  0
 22 23  2  0
 23 24  1  0
 24 25  2  0
 25  9  1  0
 15 10  1  0
 25 18  1  0
  1 26  1  0
  1 27  1  0
  1 28  1  0
  2 29  1  0
  2 30  1  0
  4 31  1  0
  4 32  1  0
  4 33  1  0
  5 34  1  0
  5 35  1  0
  6 36  1  0
  6 37  1  0
  7 38  1  0
  7 39  1  0
  8 40  1  0
 11 41  1  0
 12 42  1  0
 13 43  1  0
 14 44  1  0
 17 45  1  0
 17 46  1  0
 17 47  1  0
 21 48  1  0
 21 49  1  0
 21 50  1  0
 22 51  1  0
 23 52  1  0
 24 53  1  0
M  CHG  1  16   1
M  END
>  <UniqueID>  (31) 
31

>  <SMILES>  (31) 
CCN(C)CCCNc1c2ccccc2[n+](C)c2c(OC)cccc12

>  <Energy>  (31) 
82.35121319840691

>  <Genealogy>  (31) 
CCN(C)CCCNc1c2ccccc2[n+](C)c2c(OC)cccc12 (3D coordinates assigned)
CCN(C)CCCNc1c2ccccc2[n+](C)c2c(OC)cccc12 (optimized conformer: 82.35121319840691 kcal/mol)

>  <smiles>  (31) 
CCN(C)CCCNc1c2ccccc2[n+](C)c2c(OC)cccc12

>  <score_type>  (31) 
oracle

>  <origin>  (31) 
adg

>  <m_score__min__energy>  (31) 
-5.2699999999999996

>  <m_primary>  (31) 
energy

$$$$
31:0
     RDKit          3D

 21 21  0  0  0  0  0  0  0  0999 V2000
   55.3520   26.6310   46.0070 N   0  0  0  0  0  0  0  0  0  0  0  0
   56.6920   27.1220   45.7060 C   0  0  0  0  0  0  0  0  0  0  0  0
   56.6260   28.5560   45.2810 C   0  0  0  0  0  0  0  0  0  0  0  0
   55.5100   29.0620   44.9840 O   0  0  0  0  0  0  0  0  0  0  0  0
   57.8340   29.3150   45.1310 N   0  0  0  0  0  0  0  0  0  0  0  0
   57.8560   30.7240   44.8490 C   0  0  0  0  0  0  0  0  0  0  0  0
   57.7360   31.1580   43.5190 C   0  0  0  0  0  0  0  0  0  0  0  0
   57.7670   32.5210   43.2150 C   0  0  0  0  0  0  0  0  0  0  0  0
   57.9360   33.4620   44.2350 C   0  0  0  0  0  0  0  0  0  0  0  0
   58.0840   33.0400   45.5580 C   0  0  0  0  0  0  0  0  0  0  0  0
   58.2740   33.9560   46.5410 F   0  0  0  0  0  0  0  0  0  0  0  0
   58.0530   31.6760   45.8690 C   0  0  0  0  0  0  0  0  0  0  0  0
   58.2630   31.2840   47.1520 F   0  0  0  0  0  0  0  0  0  0  0  0
   54.7700   27.4510   46.2940 H   0  0  0  0  0  0  0  0  0  0  0  0
   54.9310   26.2650   45.1210 H   0  0  0  0  0  0  0  0  0  0  0  0
   57.3220   27.0363   46.6037 H   0  0  0  0  0  0  0  0  0  0  0  0
   57.1227   26.5222   44.8907 H   0  0  0  0  0  0  0  0  0  0  0  0
   58.7390   28.7910   45.0930 H   0  0  0  0  0  0  0  0  0  0  0  0
   57.6169   30.4203   42.7118 H   0  0  0  0  0  0  0  0  0  0  0  0
   57.6584   32.8542   42.1723 H   0  0  0  0  0  0  0  0  0  0  0  0
   57.9524   34.5355   43.9953 H   0  0  0  0  0  0  0  0  0  0  0  0
  1  2  1  0
  2  3  1  0
  3  4  2  0
  3  5  1  0
  5  6  1  0
  6  7  2  0
  7  8  1  0
  8  9  2  0
  9 10  1  0
 10 11  1  0
 10 12  2  0
 12 13  1  0
 12  6  1  0
  1 14  1  0
  1 15  1  0
  2 16  1  0
  2 17  1  0
  5 18  1  0
  7 19  1  0
  8 20  1  0
  9 21  1  0
M  END
>  <UniqueID>  (32) 
32

>  <SMILES>  (32) 
NCC(=O)Nc1cccc(F)c1F

>  <Energy>  (32) 
21.14458763503179

>  <Genealogy>  (32) 
NCC(=O)Nc1cccc(F)c1F (3D coordinates assigned)
NCC(=O)Nc1cccc(F)c1F (optimized conformer: 21.14458763503179 kcal/mol)

>  <smiles>  (32) 
NCC(=O)Nc1cccc(F)c1F

>  <score_type>  (32) 
oracle

>  <origin>  (32) 
adg

>  <m_score__min__energy>  (32) 
-5.6100000000000003

>  <m_primary>  (32) 
energy

$$$$
32:0
     RDKit          3D

 74 77  0  0  0  0  0  0  0  0999 V2000
   56.0640   31.2190   52.0160 C   0  0  0  0  0  0  0  0  0  0  0  0
   57.3270   32.0610   52.1470 C   0  0  0  0  0  0  0  0  0  0  0  0
   58.4830   31.1920   52.4040 N   0  0  0  0  0  0  0  0  0  0  0  0
   58.2760   29.8450   51.8510 C   0  0  0  0  0  0  0  0  0  0  0  0
   58.7560   29.7860   50.4030 C   0  0  0  0  0  0  0  0  0  0  0  0
   59.7230   30.8090   50.1780 O   0  0  0  0  0  0  0  0  0  0  0  0
   59.5510   31.8850   49.2910 C   0  0  0  0  0  0  0  0  0  0  0  0
   59.2220   31.6770   47.9390 C   0  0  0  0  0  0  0  0  0  0  0  0
   59.1040   32.7590   47.0530 C   0  0  0  0  0  0  0  0  0  0  0  0
   58.7720   32.5710   45.6960 C   0  0  0  0  0  0  0  0  0  0  0  0
   58.4880   31.2650   45.1740 N   0  0  0  0  0  0  0  0  0  0  0  0
   57.2570   31.0310   44.4200 C   0  0  0  0  0  0  0  0  0  0  0  0
   56.6440   29.6750   44.8130 C   0  0  0  0  0  0  0  0  0  0  0  0
   57.6370   28.5800   44.9900 N   0  0  0  0  0  0  0  0  0  0  0  0
   57.5910   28.0110   46.3480 C   0  0  0  0  0  0  0  0  0  0  0  0
   59.0180   28.9270   44.5890 C   0  0  0  0  0  0  0  0  0  0  0  0
   59.5080   30.2200   45.2570 C   0  0  0  0  0  0  0  0  0  0  0  0
   58.6970   33.6800   44.8470 C   0  0  0  0  0  0  0  0  0  0  0  0
   58.9470   34.9560   45.3510 C   0  0  0  0  0  0  0  0  0  0  0  0
   59.2580   35.1280   46.6650 N   0  0  0  0  0  0  0  0  0  0  0  0
   59.3420   34.0710   47.5230 C   0  0  0  0  0  0  0  0  0  0  0  0
   59.6610   34.2770   48.8720 C   0  0  0  0  0  0  0  0  0  0  0  0
   59.7340   33.2010   49.7630 C   0  0  0  0  0  0  0  0  0  0  0  0
   60.0630   33.4680   51.1330 N   0  0  0  0  0  0  0  0  0  0  0  0
   61.2860   33.1220   51.7950 C   0  0  0  0  0  0  0  0  0  0  0  0
   61.2800   32.1760   52.6250 O   0  0  0  0  0  0  0  0  0  0  0  0
   62.5840   33.8280   51.4930 C   0  0  0  0  0  0  0  0  0  0  0  0
   63.6460   32.8410   50.9890 C   0  0  0  0  0  0  0  0  0  0  0  0
   63.6780   32.7960   49.5110 N   0  0  0  0  0  0  0  0  0  0  0  0
   63.1020   34.0360   48.9500 C   0  0  0  0  0  0  0  0  0  0  0  0
   63.3720   34.1210   47.4370 C   0  0  0  0  0  0  0  0  0  0  0  0
   63.5060   32.7360   46.7840 C   0  0  0  0  0  0  0  0  0  0  0  0
   62.6130   31.7150   47.4890 C   0  0  0  0  0  0  0  0  0  0  0  0
   62.9680   31.6000   48.9870 C   0  0  0  0  0  0  0  0  0  0  0  0
   55.6859   30.9669   53.0177 H   0  0  0  0  0  0  0  0  0  0  0  0
   55.2989   31.7884   51.4678 H   0  0  0  0  0  0  0  0  0  0  0  0
   56.2953   30.2938   51.4678 H   0  0  0  0  0  0  0  0  0  0  0  0
   57.4912   32.6198   51.2139 H   0  0  0  0  0  0  0  0  0  0  0  0
   57.2086   32.7634   52.9853 H   0  0  0  0  0  0  0  0  0  0  0  0
   59.3090   31.6130   51.9160 H   0  0  0  0  0  0  0  0  0  0  0  0
   58.8411   29.1161   52.4504 H   0  0  0  0  0  0  0  0  0  0  0  0
   57.2024   29.6073   51.8816 H   0  0  0  0  0  0  0  0  0  0  0  0
   59.2103   28.8034   50.2076 H   0  0  0  0  0  0  0  0  0  0  0  0
   57.9006   29.9368   49.7280 H   0  0  0  0  0  0  0  0  0  0  0  0
   59.0552   30.6536   47.5718 H   0  0  0  0  0  0  0  0  0  0  0  0
   56.5373   31.8330   44.6409 H   0  0  0  0  0  0  0  0  0  0  0  0
   57.4901   31.0220   43.3450 H   0  0  0  0  0  0  0  0  0  0  0  0
   56.1017   29.8044   45.7612 H   0  0  0  0  0  0  0  0  0  0  0  0
   55.9889   29.3738   43.9823 H   0  0  0  0  0  0  0  0  0  0  0  0
   57.6566   28.8223   47.0879 H   0  0  0  0  0  0  0  0  0  0  0  0
   56.6458   27.4653   46.4851 H   0  0  0  0  0  0  0  0  0  0  0  0
   58.4363   27.3205   46.4851 H   0  0  0  0  0  0  0  0  0  0  0  0
   59.6881   28.1035   44.8769 H   0  0  0  0  0  0  0  0  0  0  0  0
   59.0240   29.0858   43.5005 H   0  0  0  0  0  0  0  0  0  0  0  0
   59.7317   30.0173   46.3148 H   0  0  0  0  0  0  0  0  0  0  0  0
   60.4119   30.5666   44.7347 H   0  0  0  0  0  0  0  0  0  0  0  0
   58.4417   33.5461   43.7854 H   0  0  0  0  0  0  0  0  0  0  0  0
   58.8926   35.8283   44.6831 H   0  0  0  0  0  0  0  0  0  0  0  0
   59.4340   36.0990   47.0080 H   0  0  0  0  0  0  0  0  0  0  0  0
   59.8563   35.2970   49.2346 H   0  0  0  0  0  0  0  0  0  0  0  0
   62.4068   34.5905   50.7203 H   0  0  0  0  0  0  0  0  0  0  0  0
   62.9518   34.2940   52.4191 H   0  0  0  0  0  0  0  0  0  0  0  0
   64.6327   33.1559   51.3595 H   0  0  0  0  0  0  0  0  0  0  0  0
   63.3929   31.8376   51.3620 H   0  0  0  0  0  0  0  0  0  0  0  0
   62.0160   34.0416   49.1245 H   0  0  0  0  0  0  0  0  0  0  0  0
   63.5705   34.9002   49.4435 H   0  0  0  0  0  0  0  0  0  0  0  0
   62.5384   34.6569   46.9595 H   0  0  0  0  0  0  0  0  0  0  0  0
   64.3262   34.6501   47.2971 H   0  0  0  0  0  0  0  0  0  0  0  0
   63.2096   32.8054   45.7270 H   0  0  0  0  0  0  0  0  0  0  0  0
   64.5522   32.4065   46.8673 H   0  0  0  0  0  0  0  0  0  0  0  0
   61.5634   32.0297   47.3925 H   0  0  0  0  0  0  0  0  0  0  0  0
   62.7694   30.7331   47.0185 H   0  0  0  0  0  0  0  0  0  0  0  0
   62.0374   31.4670   49.5582 H   0  0  0  0  0  0  0  0  0  0  0  0
   63.6458   30.7409   49.0986 H   0  0  0  0  0  0  0  0  0  0  0  0
  1  2  1  0
  2  3  1  0
  3  4  1  0
  4  5  1  0
  5  6  1  0
  6  7  1  0
  7  8  2  0
  8  9  1  0
  9 10  2  0
 10 11  1  0
 11 12  1  0
 12 13  1  0
 13 14  1  0
 14 15  1  0
 14 16  1  0
 16 17  1  0
 10 18  1  0
 18 19  2  0
 19 20  1  0
 20 21  2  0
 21 22  1  0
 22 23  2  0
 23 24  1  0
 24 25  1  0
 25 26  2  0
 25 27  1  0
 27 28  1  0
 28 29  1  0
 29 30  1  0
 30 31  1  0
 31 32  1  0
 32 33  1  0
 33 34  1  0
 23  7  1  0
 34 29  1  0
 21  9  1  0
 17 11  1  0
  1 35  1  0
  1 36  1  0
  1 37  1  0
  2 38  1  0
  2 39  1  0
  3 40  1  0
  4 41  1  0
  4 42  1  0
  5 43  1  0
  5 44  1  0
  8 45  1  0
 12 46  1  0
 12 47  1  0
 13 48  1  0
 13 49  1  0
 15 50  1  0
 15 51  1  0
 15 52  1  0
 16 53  1  0
 16 54  1  0
 17 55  1  0
 17 56  1  0
 18 57  1  0
 19 58  1  0
 20 59  1  0
 22 60  1  0
 27 61  1  0
 27 62  1  0
 28 63  1  0
 28 64  1  0
 30 65  1  0
 30 66  1  0
 31 67  1  0
 31 68  1  0
 32 69  1  0
 32 70  1  0
 33 71  1  0
 33 72  1  0
 34 73  1  0
 34 74  1  0
M  CHG  2  20   1  24  -1
M  END
>  <UniqueID>  (33) 
33

>  <SMILES>  (33) 
CCNCCOc1cc2c(N3CCN(C)CC3)cc[nH+]c2cc1[N-]C(=O)CCN1CCCCC1

>  <Energy>  (33) 
91.76954197415009

>  <Genealogy>  (33) 
CCNCCOc1cc2c(N3CCN(C)CC3)cc[nH+]c2cc1[N-]C(=O)CCN1CCCCC1 (protonated)
CCNCCOc1cc2c(N3CCN(C)CC3)cc[nH+]c2cc1[N-]C(=O)CCN1CCCCC1 (3D coordinates assigned)
CCNCCOc1cc2c(N3CCN(C)CC3)cc[nH+]c2cc1[N-]C(=O)CCN1CCCCC1 (nonaromatic ring conformer: 91.76954197415009 kcal/mol)

>  <smiles>  (33) 
CCNCCOc1cc2c(N3CCN(C)CC3)ccnc2cc1NC(=O)CCN1CCCCC1

>  <score_type>  (33) 
oracle

>  <origin>  (33) 
adg

>  <m_score__min__energy>  (33) 
-9.5800000000000001

>  <m_primary>  (33) 
energy

$$$$
33:0
     RDKit          3D

 36 38  0  0  0  0  0  0  0  0999 V2000
   63.3870   33.8930   46.2860 C   0  0  0  0  0  0  0  0  0  0  0  0
   64.1120   33.3070   47.5020 C   0  0  0  0  0  0  0  0  0  0  0  0
   63.6790   31.9290   47.8050 N   0  0  0  0  0  0  0  0  0  0  0  0
   62.9680   31.7980   49.0920 C   0  0  0  0  0  0  0  0  0  0  0  0
   61.5180   31.2900   48.9560 C   0  0  0  0  0  0  0  0  0  0  0  0
   60.7970   31.9660   47.8760 N   0  0  0  0  0  0  0  0  0  0  0  0
   60.6240   33.7410   47.8520 S   0  0  0  0  0  0  0  0  0  0  0  0
   59.2570   33.5390   46.7100 C   0  0  0  0  0  0  0  0  0  0  0  0
   58.4970   34.5580   46.1350 C   0  0  0  0  0  0  0  0  0  0  0  0
   57.4900   34.2150   45.2150 C   0  0  0  0  0  0  0  0  0  0  0  0
   57.2490   32.8660   44.8830 C   0  0  0  0  0  0  0  0  0  0  0  0
   58.0110   31.8400   45.4850 C   0  0  0  0  0  0  0  0  0  0  0  0
   57.8540   30.4540   45.2240 C   0  0  0  0  0  0  0  0  0  0  0  0
   56.8100   29.9600   44.3680 N   0  0  0  0  0  0  0  0  0  0  0  0
   55.6710   29.7500   44.8330 O   0  0  0  0  0  0  0  0  0  0  0  0
   56.9820   29.9480   43.0030 O   0  0  0  0  0  0  0  0  0  0  0  0
   58.7380   29.5350   45.8410 C   0  0  0  0  0  0  0  0  0  0  0  0
   59.7380   29.9710   46.7270 C   0  0  0  0  0  0  0  0  0  0  0  0
   59.8590   31.3400   46.9930 C   0  0  0  0  0  0  0  0  0  0  0  0
   59.0190   32.2280   46.3780 C   0  0  0  0  0  0  0  0  0  0  0  0
   62.5734   34.5506   46.6260 H   0  0  0  0  0  0  0  0  0  0  0  0
   64.0981   34.4730   45.6795 H   0  0  0  0  0  0  0  0  0  0  0  0
   62.9690   33.0760   45.6795 H   0  0  0  0  0  0  0  0  0  0  0  0
   65.1932   33.3011   47.2996 H   0  0  0  0  0  0  0  0  0  0  0  0
   63.8682   33.9342   48.3722 H   0  0  0  0  0  0  0  0  0  0  0  0
   64.5160   31.3000   47.8230 H   0  0  0  0  0  0  0  0  0  0  0  0
   63.0750   31.5810   47.0260 H   0  0  0  0  0  0  0  0  0  0  0  0
   63.5247   31.0912   49.7249 H   0  0  0  0  0  0  0  0  0  0  0  0
   62.9136   32.8052   49.5307 H   0  0  0  0  0  0  0  0  0  0  0  0
   61.5385   30.2102   48.7473 H   0  0  0  0  0  0  0  0  0  0  0  0
   60.9940   31.5041   49.8992 H   0  0  0  0  0  0  0  0  0  0  0  0
   58.6820   35.6104   46.3964 H   0  0  0  0  0  0  0  0  0  0  0  0
   56.8845   35.0069   44.7499 H   0  0  0  0  0  0  0  0  0  0  0  0
   56.4658   32.6119   44.1536 H   0  0  0  0  0  0  0  0  0  0  0  0
   58.6400   28.4613   45.6228 H   0  0  0  0  0  0  0  0  0  0  0  0
   60.4153   29.2475   47.2042 H   0  0  0  0  0  0  0  0  0  0  0  0
  1  2  1  0
  2  3  1  0
  3  4  1  0
  4  5  1  0
  5  6  1  0
  6  7  1  0
  7  8  1  0
  8  9  2  0
  9 10  1  0
 10 11  2  0
 11 12  1  0
 12 13  2  0
 13 14  1  0
 14 15  2  0
 14 16  1  0
 13 17  1  0
 17 18  2  0
 18 19  1  0
 19 20  2  0
 19  6  1  0
 20  8  1  0
 20 12  1  0
  1 21  1  0
  1 22  1  0
  1 23  1  0
  2 24  1  0
  2 25  1  0
  3 26  1  0
  3 27  1  0
  4 28  1  0
  4 29  1  0
  5 30  1  0
  5 31  1  0
  9 32  1  0
 10 33  1  0
 11 34  1  0
 17 35  1  0
 18 36  1  0
M  CHG  3   3   1  14   1  16  -1
M  END
>  <UniqueID>  (34) 
34

>  <SMILES>  (34) 
CC[NH2+]CCN1Sc2cccc3c([N+](=O)[O-])ccc1c23

>  <Energy>  (34) 
69.27578057181604

>  <Genealogy>  (34) 
CC[NH2+]CCN1Sc2cccc3c([N+](=O)[O-])ccc1c23 (protonated)
CC[NH2+]CCN1Sc2cccc3c([N+](=O)[O-])ccc1c23 (3D coordinates assigned)
CC[NH2+]CCN1Sc2cccc3c([N+](=O)[O-])ccc1c23 (nonaromatic ring conformer: 69.27578057181604 kcal/mol)

>  <smiles>  (34) 
CCNCCN1Sc2cccc3c([N+](=O)[O-])ccc1c23

>  <score_type>  (34) 
oracle

>  <origin>  (34) 
adg

>  <m_score__min__energy>  (34) 
-6.2199999999999998

>  <m_primary>  (34) 
energy

$$$$
