0:0
     RDKit          3D

 53 55  0  0  0  0  0  0  0  0999 V2000
   58.0150   26.8960   45.0680 C   0  0  0  0  0  0  0  0  0  0  0  0
   58.4660   27.7900   46.1400 N   0  0  0  0  0  0  0  0  0  0  0  0
   57.7020   29.0180   46.4150 C   0  0  0  0  0  0  0  0  0  0  0  0
   57.4640   29.7880   45.1340 C   0  0  0  0  0  0  0  0  0  0  0  0
   58.5200   30.5740   44.6340 C   0  0  0  0  0  0  0  0  0  0  0  0
   58.3870   31.2710   43.4320 C   0  0  0  0  0  0  0  0  0  0  0  0
   57.1990   31.1930   42.7080 C   0  0  0  0  0  0  0  0  0  0  0  0
   56.1410   30.4200   43.1860 C   0  0  0  0  0  0  0  0  0  0  0  0
   56.2540   29.7170   44.3920 C   0  0  0  0  0  0  0  0  0  0  0  0
   55.1440   28.9760   44.8080 O   0  0  0  0  0  0  0  0  0  0  0  0
   59.6820   27.5050   46.8720 C   0  0  0  0  0  0  0  0  0  0  0  0
   60.6170   26.8650   46.3200 O   0  0  0  0  0  0  0  0  0  0  0  0
   59.8860   27.9770   48.2880 C   0  0  0  0  0  0  0  0  0  0  0  0
   60.8480   29.1010   48.3310 N   0  0  0  0  0  0  0  0  0  0  0  0
   61.0460   29.6660   49.6820 C   0  0  0  0  0  0  0  0  0  0  0  0
   59.8490   30.5060   50.1580 C   0  0  0  0  0  0  0  0  0  0  0  0
   59.4330   31.5090   49.1650 N   0  0  0  0  0  0  0  0  0  0  0  0
   59.9540   32.8850   49.3410 C   0  0  0  0  0  0  0  0  0  0  0  0
   61.3050   33.1310   48.6980 C   0  0  0  0  0  0  0  0  0  0  0  0
   62.4700   32.7860   49.4120 C   0  0  0  0  0  0  0  0  0  0  0  0
   63.7370   33.0050   48.8650 C   0  0  0  0  0  0  0  0  0  0  0  0
   65.1730   32.5990   49.7860 Cl  0  0  0  0  0  0  0  0  0  0  0  0
   63.8580   33.5470   47.5850 C   0  0  0  0  0  0  0  0  0  0  0  0
   62.7170   33.8510   46.8440 C   0  0  0  0  0  0  0  0  0  0  0  0
   61.4410   33.6360   47.3810 C   0  0  0  0  0  0  0  0  0  0  0  0
   59.9410   33.9920   46.2380 Br  0  0  0  0  0  0  0  0  0  0  0  0
   59.3150   31.0040   47.7840 C   0  0  0  0  0  0  0  0  0  0  0  0
   60.5300   30.1600   47.3580 C   0  0  0  0  0  0  0  0  0  0  0  0
   57.5609   25.9959   45.5080 H   0  0  0  0  0  0  0  0  0  0  0  0
   57.2711   27.4154   44.4461 H   0  0  0  0  0  0  0  0  0  0  0  0
   58.8748   26.6063   44.4461 H   0  0  0  0  0  0  0  0  0  0  0  0
   56.7334   28.7500   46.8623 H   0  0  0  0  0  0  0  0  0  0  0  0
   58.2769   29.6485   47.1093 H   0  0  0  0  0  0  0  0  0  0  0  0
   59.4621   30.6396   45.1981 H   0  0  0  0  0  0  0  0  0  0  0  0
   59.2206   31.8823   43.0560 H   0  0  0  0  0  0  0  0  0  0  0  0
   57.0956   31.7409   41.7598 H   0  0  0  0  0  0  0  0  0  0  0  0
   55.2065   30.3618   42.6087 H   0  0  0  0  0  0  0  0  0  0  0  0
   55.1450   27.9780   44.9540 H   0  0  0  0  0  0  0  0  0  0  0  0
   58.9221   28.3106   48.6999 H   0  0  0  0  0  0  0  0  0  0  0  0
   60.2879   27.1444   48.8840 H   0  0  0  0  0  0  0  0  0  0  0  0
   61.1983   28.8382   50.3903 H   0  0  0  0  0  0  0  0  0  0  0  0
   61.9208   30.3314   49.6377 H   0  0  0  0  0  0  0  0  0  0  0  0
   59.0019   29.8326   50.3552 H   0  0  0  0  0  0  0  0  0  0  0  0
   60.1586   31.0438   51.0662 H   0  0  0  0  0  0  0  0  0  0  0  0
   59.2302   33.5859   48.8994 H   0  0  0  0  0  0  0  0  0  0  0  0
   60.0898   33.0330   50.4225 H   0  0  0  0  0  0  0  0  0  0  0  0
   62.3808   32.3385   50.4129 H   0  0  0  0  0  0  0  0  0  0  0  0
   64.8551   33.7347   47.1600 H   0  0  0  0  0  0  0  0  0  0  0  0
   62.8194   34.2631   45.8293 H   0  0  0  0  0  0  0  0  0  0  0  0
   58.4108   30.3817   47.7122 H   0  0  0  0  0  0  0  0  0  0  0  0
   59.2617   31.8745   47.1137 H   0  0  0  0  0  0  0  0  0  0  0  0
   60.3122   29.6928   46.3862 H   0  0  0  0  0  0  0  0  0  0  0  0
   61.3994   30.8312   47.2972 H   0  0  0  0  0  0  0  0  0  0  0  0
  1  2  1  0
  2  3  1  0
  3  4  1  0
  4  5  2  0
  5  6  1  0
  6  7  2  0
  7  8  1  0
  8  9  2  0
  9 10  1  0
  2 11  1  0
 11 12  2  0
 11 13  1  0
 13 14  1  0
 14 15  1  0
 15 16  1  0
 16 17  1  0
 17 18  1  0
 18 19  1  0
 19 20  2  0
 20 21  1  0
 21 22  1  0
 21 23  2  0
 23 24  1  0
 24 25  2  0
 25 26  1  0
 17 27  1  0
 27 28  1  0
  9  4  1  0
 28 14  1  0
 25 19  1  0
  1 29  1  0
  1 30  1  0
  1 31  1  0
  3 32  1  0
  3 33  1  0
  5 34  1  0
  6 35  1  0
  7 36  1  0
  8 37  1  0
 10 38  1  0
 13 39  1  0
 13 40  1  0
 15 41  1  0
 15 42  1  0
 16 43  1  0
 16 44  1  0
 18 45  1  0
 18 46  1  0
 20 47  1  0
 23 48  1  0
 24 49  1  0
 27 50  1  0
 27 51  1  0
 28 52  1  0
 28 53  1  0
M  END
>  <UniqueID>  (1) 
1

>  <SMILES>  (1) 
CN(Cc1ccccc1O)C(=O)CN1CCN(Cc2cc(Cl)ccc2Br)CC1

>  <Energy>  (1) 
69.75654799615756

>  <Genealogy>  (1) 
CN(Cc1ccccc1O)C(=O)CN1CCN(Cc2cc(Cl)ccc2Br)CC1 (3D coordinates assigned)
CN(Cc1ccccc1O)C(=O)CN1CCN(Cc2cc(Cl)ccc2Br)CC1 (nonaromatic ring conformer: 69.75654799615756 kcal/mol)

>  <smiles>  (1) 
CN(Cc1ccccc1O)C(=O)CN1CCN(Cc2cc(Cl)ccc2Br)CC1

>  <score_type>  (1) 
oracle

>  <origin>  (1) 
adg

>  <m_score__min__energy>  (1) 
-11.32

>  <m_primary>  (1) 
energy

$$$$
1:0
     RDKit          3D

 15 16  0  0  0  0  0  0  0  0999 V2000
   56.6430   19.5850   43.4490 H   0  0  0  0  0  0  0  0  0  0  0  0
   56.4410   20.4960   42.9800 N   0  0  0  0  0  0  0  0  0  0  0  0
   56.5580   21.6160   43.6160 C   0  0  0  0  0  0  0  0  0  0  0  0
   55.5050   22.4370   43.8420 N   0  0  0  0  0  0  0  0  0  0  0  0
   55.9050   23.5390   44.5280 C   0  0  0  0  0  0  0  0  0  0  0  0
   55.0560   24.5780   44.9150 C   0  0  0  0  0  0  0  0  0  0  0  0
   53.9840   24.5463   44.6704 H   0  0  0  0  0  0  0  0  0  0  0  0
   55.5970   25.6650   45.6230 C   0  0  0  0  0  0  0  0  0  0  0  0
   54.7720   26.7110   46.0200 O   0  0  0  0  0  0  0  0  0  0  0  0
   56.9720   25.7000   45.9330 C   0  0  0  0  0  0  0  0  0  0  0  0
   57.3853   26.5554   46.4875 H   0  0  0  0  0  0  0  0  0  0  0  0
   57.8170   24.6510   45.5390 C   0  0  0  0  0  0  0  0  0  0  0  0
   58.8910   24.6699   45.7760 H   0  0  0  0  0  0  0  0  0  0  0  0
   57.2560   23.5850   44.8390 C   0  0  0  0  0  0  0  0  0  0  0  0
   58.0140   22.2070   44.2460 S   0  0  0  0  0  0  0  0  0  0  0  0
  1  2  1  0
  2  3  2  0
  3  4  1  0
  4  5  1  0
  5  6  2  0
  6  7  1  0
  6  8  1  0
  8  9  1  0
  8 10  2  0
 10 11  1  0
 10 12  1  0
 12 13  1  0
 12 14  2  0
 14 15  1  0
 15  3  1  0
 14  5  1  0
M  CHG  2   4  -1   9  -1
M  END
>  <UniqueID>  (2) 
2

>  <SMILES>  (2) 
[H]/N=c1/[n-]c2cc([O-])ccc2s1

>  <Energy>  (2) 
50.401411426031736

>  <Genealogy>  (2) 
N=c1[n-]c2cc([O-])ccc2s1 (protonated)
[H]/N=c1/[n-]c2cc([O-])ccc2s1 (cis-trans isomerization)
[H]/N=c1/[n-]c2cc([O-])ccc2s1 (3D coordinates assigned)
[H]/N=c1/[n-]c2cc([O-])ccc2s1 (optimized conformer: 50.401411426031736 kcal/mol)

>  <smiles>  (2) 
N=c1[nH]c2cc(O)ccc2s1

>  <score_type>  (2) 
oracle

>  <origin>  (2) 
adg

>  <m_score__min__energy>  (2) 
-9.9900000000000002

>  <m_primary>  (2) 
energy

$$$$
2:0
     RDKit          3D

 42 44  0  0  1  0  0  0  0  0999 V2000
   59.2480   34.2580   44.9180 C   0  0  0  0  0  0  0  0  0  0  0  0
   58.0550   33.6080   44.5290 N   0  0  0  0  0  0  0  0  0  0  0  0
   57.0290   33.7110   45.5010 C   0  0  0  0  0  0  0  0  0  0  0  0
   58.1450   32.4160   43.7770 C   0  0  0  0  0  0  0  0  0  0  0  0
   56.9910   31.4630   43.9950 C   0  0  0  0  0  0  0  0  0  0  0  0
   57.1520   30.8050   45.2410 N   0  0  0  0  0  0  0  0  0  0  0  0
   58.2720   30.4680   45.7610 C   0  0  0  0  0  0  0  0  0  0  0  0
   59.1270   31.3840   46.2340 N   0  0  0  0  0  0  0  0  0  0  0  0
   60.2940   31.0000   46.7540 C   0  0  0  0  0  0  0  0  0  0  0  0
   61.2660   31.9480   47.2760 C   0  0  0  0  0  0  0  0  0  0  0  0
   62.6280   31.7670   47.1670 C   0  0  0  0  0  0  0  0  0  0  0  0
   63.5020   32.7070   47.6920 C   0  0  0  0  0  0  0  0  0  0  0  0
   63.0490   33.8430   48.3340 C   0  0  0  0  0  0  0  0  0  0  0  0
   61.6990   34.0320   48.4470 C   0  0  0  0  0  0  0  0  0  0  0  0
   60.8370   33.0890   47.9210 C   0  0  0  0  0  0  0  0  0  0  0  0
   60.5710   29.6850   46.7820 N   0  0  0  0  0  0  0  0  0  0  0  0
   59.7620   28.7370   46.3270 C   0  0  0  0  0  0  0  0  0  0  0  0
   60.0900   27.3900   46.3750 C   0  0  0  0  0  0  0  0  0  0  0  0
   59.2460   26.4210   45.9010 C   0  0  0  0  0  0  0  0  0  0  0  0
   58.0370   26.8480   45.3670 C   0  0  0  0  0  0  0  0  0  0  0  0
   57.6830   28.1640   45.3050 C   0  0  0  0  0  0  0  0  0  0  0  0
   58.5570   29.0970   45.7890 C   0  0  0  0  0  0  0  0  0  0  0  0
   59.3069   34.2901   46.0160 H   0  0  0  0  0  0  0  0  0  0  0  0
   60.1126   33.7063   44.5204 H   0  0  0  0  0  0  0  0  0  0  0  0
   59.2532   35.2836   44.5204 H   0  0  0  0  0  0  0  0  0  0  0  0
   57.4713   33.6666   46.5072 H   0  0  0  0  0  0  0  0  0  0  0  0
   56.4993   34.6668   45.3752 H   0  0  0  0  0  0  0  0  0  0  0  0
   56.3199   32.8795   45.3752 H   0  0  0  0  0  0  0  0  0  0  0  0
   58.1775   32.6817   42.7101 H   0  0  0  0  0  0  0  0  0  0  0  0
   59.0548   31.8962   44.1118 H   0  0  0  0  0  0  0  0  0  0  0  0
   56.0458   32.0256   43.9966 H   0  0  0  0  0  0  0  0  0  0  0  0
   56.9721   30.7180   43.1859 H   0  0  0  0  0  0  0  0  0  0  0  0
   58.8500   32.3710   46.1850 H   0  0  0  0  0  0  0  0  0  0  0  0
   63.0232   30.8735   46.6616 H   0  0  0  0  0  0  0  0  0  0  0  0
   64.5854   32.5435   47.5945 H   0  0  0  0  0  0  0  0  0  0  0  0
   63.7569   34.5781   48.7446 H   0  0  0  0  0  0  0  0  0  0  0  0
   61.3036   34.9259   48.9516 H   0  0  0  0  0  0  0  0  0  0  0  0
   59.7545   33.2567   48.0217 H   0  0  0  0  0  0  0  0  0  0  0  0
   61.0567   27.0912   46.8066 H   0  0  0  0  0  0  0  0  0  0  0  0
   59.5131   25.3547   45.9413 H   0  0  0  0  0  0  0  0  0  0  0  0
   57.3364   26.0943   44.9782 H   0  0  0  0  0  0  0  0  0  0  0  0
   56.7168   28.4673   44.8755 H   0  0  0  0  0  0  0  0  0  0  0  0
  1  2  1  0
  2  3  1  0
  2  4  1  0
  4  5  1  0
  5  6  1  0
  6  7  2  0
  7  8  1  0
  8  9  1  0
  9 10  1  0
 10 11  2  0
 11 12  1  0
 12 13  2  0
 13 14  1  0
 14 15  2  0
  9 16  2  0
 16 17  1  0
 17 18  2  0
 18 19  1  0
 19 20  2  0
 20 21  1  0
 21 22  2  0
 22  7  1  0
 15 10  1  0
 22 17  1  0
  1 23  1  0
  1 24  1  0
  1 25  1  0
  3 26  1  0
  3 27  1  0
  3 28  1  0
  4 29  1  0
  4 30  1  0
  5 31  1  0
  5 32  1  0
  8 33  1  0
 11 34  1  0
 12 35  1  0
 13 36  1  0
 14 37  1  0
 15 38  1  0
 18 39  1  0
 19 40  1  0
 20 41  1  0
 21 42  1  0
M  END
>  <smiles>  (3) 
CN(C)CCN=c1[nH]c(-c2ccccc2)nc2ccccc12

>  <score_type>  (3) 
oracle

>  <origin>  (3) 
adg

>  <m_score__min__energy>  (3) 
-6.7400000000000002

>  <m_primary>  (3) 
energy

$$$$
3:0
     RDKit          3D

 44 46  0  0  0  0  0  0  0  0999 V2000
   56.6490   30.4100   43.5670 C   0  0  0  0  0  0  0  0  0  0  0  0
   57.2200   29.9970   45.2460 S   0  0  0  0  0  0  0  0  0  0  0  0
   57.7480   31.6830   45.6110 C   0  0  0  0  0  0  0  0  0  0  0  0
   57.0400   32.7080   44.9690 C   0  0  0  0  0  0  0  0  0  0  0  0
   57.3750   34.0430   45.1730 C   0  0  0  0  0  0  0  0  0  0  0  0
   56.6810   35.0210   44.5390 F   0  0  0  0  0  0  0  0  0  0  0  0
   58.4220   34.3760   46.0270 C   0  0  0  0  0  0  0  0  0  0  0  0
   59.1450   33.3730   46.6900 C   0  0  0  0  0  0  0  0  0  0  0  0
   60.1530   33.7200   47.5320 N   0  0  0  0  0  0  0  0  0  0  0  0
   60.8730   32.7860   48.2060 C   0  0  0  0  0  0  0  0  0  0  0  0
   61.9140   33.2570   49.1440 C   0  0  0  0  0  0  0  0  0  0  0  0
   61.7350   33.4420   50.5000 C   0  0  0  0  0  0  0  0  0  0  0  0
   62.9820   33.8300   50.9510 C   0  0  0  0  0  0  0  0  0  0  0  0
   63.3530   34.0820   52.3740 C   0  0  0  0  0  0  0  0  0  0  0  0
   63.8640   33.8370   49.9320 N   0  0  0  0  0  0  0  0  0  0  0  0
   63.2060   33.5040   48.8310 N   0  0  0  0  0  0  0  0  0  0  0  0
   63.8580   33.2830   47.5350 C   0  0  0  0  0  0  0  0  0  0  0  0
   63.7370   31.8150   47.1200 C   0  0  0  0  0  0  0  0  0  0  0  0
   63.2440   34.2050   46.4800 C   0  0  0  0  0  0  0  0  0  0  0  0
   60.6240   31.4490   48.0140 N   0  0  0  0  0  0  0  0  0  0  0  0
   61.4310   30.4180   48.6970 C   0  0  0  0  0  0  0  0  0  0  0  0
   59.5880   31.0530   47.2030 C   0  0  0  0  0  0  0  0  0  0  0  0
   59.3250   29.8240   47.0960 O   0  0  0  0  0  0  0  0  0  0  0  0
   58.8190   32.0100   46.4970 C   0  0  0  0  0  0  0  0  0  0  0  0
   55.7592   31.0536   43.6303 H   0  0  0  0  0  0  0  0  0  0  0  0
   57.4478   30.9407   43.0282 H   0  0  0  0  0  0  0  0  0  0  0  0
   56.3951   29.4852   43.0282 H   0  0  0  0  0  0  0  0  0  0  0  0
   56.2086   32.4538   44.2950 H   0  0  0  0  0  0  0  0  0  0  0  0
   58.6845   35.4327   46.1833 H   0  0  0  0  0  0  0  0  0  0  0  0
   60.3720   34.7330   47.6840 H   0  0  0  0  0  0  0  0  0  0  0  0
   60.8132   33.3109   51.0858 H   0  0  0  0  0  0  0  0  0  0  0  0
   62.6260   33.5882   53.0355 H   0  0  0  0  0  0  0  0  0  0  0  0
   64.3579   33.6789   52.5678 H   0  0  0  0  0  0  0  0  0  0  0  0
   63.3486   35.1648   52.5678 H   0  0  0  0  0  0  0  0  0  0  0  0
   64.9281   33.5213   47.6249 H   0  0  0  0  0  0  0  0  0  0  0  0
   63.6849   31.1830   48.0188 H   0  0  0  0  0  0  0  0  0  0  0  0
   62.8244   31.6772   46.5214 H   0  0  0  0  0  0  0  0  0  0  0  0
   64.6147   31.5296   46.5214 H   0  0  0  0  0  0  0  0  0  0  0  0
   62.7004   35.0213   46.9781 H   0  0  0  0  0  0  0  0  0  0  0  0
   64.0426   34.6262   45.8516 H   0  0  0  0  0  0  0  0  0  0  0  0
   62.5475   33.6305   45.8516 H   0  0  0  0  0  0  0  0  0  0  0  0
   61.3357   30.5397   49.7861 H   0  0  0  0  0  0  0  0  0  0  0  0
   61.0720   29.4196   48.4068 H   0  0  0  0  0  0  0  0  0  0  0  0
   62.4865   30.5267   48.4068 H   0  0  0  0  0  0  0  0  0  0  0  0
  1  2  1  0
  2  3  1  0
  3  4  2  0
  4  5  1  0
  5  6  1  0
  5  7  2  0
  7  8  1  0
  8  9  1  0
  9 10  2  0
 10 11  1  0
 11 12  2  0
 12 13  1  0
 13 14  1  0
 13 15  2  0
 15 16  1  0
 16 17  1  0
 17 18  1  0
 17 19  1  0
 10 20  1  0
 20 21  1  0
 20 22  1  0
 22 23  2  0
 22 24  1  0
 24  3  1  0
 24  8  2  0
 16 11  1  0
  1 25  1  0
  1 26  1  0
  1 27  1  0
  4 28  1  0
  7 29  1  0
  9 30  1  0
 12 31  1  0
 14 32  1  0
 14 33  1  0
 14 34  1  0
 17 35  1  0
 18 36  1  0
 18 37  1  0
 18 38  1  0
 19 39  1  0
 19 40  1  0
 19 41  1  0
 21 42  1  0
 21 43  1  0
 21 44  1  0
M  CHG  1   9   1
M  END
>  <UniqueID>  (4) 
3

>  <SMILES>  (4) 
CSc1cc(F)cc2[nH+]c(-c3cc(C)nn3C(C)C)n(C)c(=O)c12

>  <Energy>  (4) 
84.58616844505622

>  <Genealogy>  (4) 
CSc1cc(F)cc2[nH+]c(-c3cc(C)nn3C(C)C)n(C)c(=O)c12 (protonated)
CSc1cc(F)cc2[nH+]c(-c3cc(C)nn3C(C)C)n(C)c(=O)c12 (3D coordinates assigned)
CSc1cc(F)cc2[nH+]c(-c3cc(C)nn3C(C)C)n(C)c(=O)c12 (optimized conformer: 84.58616844505622 kcal/mol)

>  <smiles>  (4) 
CSc1cc(F)cc2nc(-c3cc(C)nn3C(C)C)n(C)c(=O)c12

>  <score_type>  (4) 
oracle

>  <origin>  (4) 
adg

>  <m_score__min__energy>  (4) 
-5.5099999999999998

>  <m_primary>  (4) 
energy

$$$$
4:0
     RDKit          3D

 33 35  0  0  0  0  0  0  0  0999 V2000
   58.9020   30.5250   49.2640 C   0  0  0  0  0  0  0  0  0  0  0  0
   59.2680   29.5730   48.1530 C   0  0  0  0  0  0  0  0  0  0  0  0
   60.0040   28.4240   48.4950 C   0  0  0  0  0  0  0  0  0  0  0  0
   60.3670   27.4910   47.5250 C   0  0  0  0  0  0  0  0  0  0  0  0
   61.0670   26.3840   47.8770 F   0  0  0  0  0  0  0  0  0  0  0  0
   60.0050   27.6910   46.1960 C   0  0  0  0  0  0  0  0  0  0  0  0
   59.2930   28.8320   45.8290 C   0  0  0  0  0  0  0  0  0  0  0  0
   58.9320   29.8060   46.7830 C   0  0  0  0  0  0  0  0  0  0  0  0
   58.1540   31.0260   46.2810 C   0  0  1  0  0  0  0  0  0  0  0  0
   58.9530   32.3250   46.3150 C   0  0  0  0  0  0  0  0  0  0  0  0
   60.3030   32.3880   46.7160 C   0  0  0  0  0  0  0  0  0  0  0  0
   60.9740   33.6130   46.7090 C   0  0  0  0  0  0  0  0  0  0  0  0
   60.3310   34.7430   46.3170 N   0  0  0  0  0  0  0  0  0  0  0  0
   59.0300   34.7210   45.9260 C   0  0  0  0  0  0  0  0  0  0  0  0
   58.3200   33.5180   45.9200 C   0  0  0  0  0  0  0  0  0  0  0  0
   57.4660   30.7770   44.9610 C   0  0  0  0  0  0  0  0  0  0  0  0
   56.3120   30.0790   44.8620 N   0  0  0  0  0  0  0  0  0  0  0  0
   55.8660   30.0020   43.5790 C   0  0  0  0  0  0  0  0  0  0  0  0
   56.6570   30.6460   42.6370 C   0  0  0  0  0  0  0  0  0  0  0  0
   57.9580   31.3360   43.4460 S   0  0  0  0  0  0  0  0  0  0  0  0
   59.0872   30.0434   50.2355 H   0  0  0  0  0  0  0  0  0  0  0  0
   59.5143   31.4353   49.1834 H   0  0  0  0  0  0  0  0  0  0  0  0
   57.8376   30.7907   49.1834 H   0  0  0  0  0  0  0  0  0  0  0  0
   60.2971   28.2595   49.5424 H   0  0  0  0  0  0  0  0  0  0  0  0
   60.2812   26.9474   45.4339 H   0  0  0  0  0  0  0  0  0  0  0  0
   59.0076   28.9752   44.7764 H   0  0  0  0  0  0  0  0  0  0  0  0
   57.3488   31.1798   47.0145 H   0  0  0  0  0  0  0  0  0  0  0  0
   60.8268   31.4744   47.0337 H   0  0  0  0  0  0  0  0  0  0  0  0
   62.0273   33.6626   47.0222 H   0  0  0  0  0  0  0  0  0  0  0  0
   58.5348   35.6522   45.6136 H   0  0  0  0  0  0  0  0  0  0  0  0
   57.2658   33.5033   45.6064 H   0  0  0  0  0  0  0  0  0  0  0  0
   54.9439   29.4673   43.3072 H   0  0  0  0  0  0  0  0  0  0  0  0
   56.4661   30.6956   41.5548 H   0  0  0  0  0  0  0  0  0  0  0  0
  1  2  1  0
  2  3  2  0
  3  4  1  0
  4  5  1  0
  4  6  2  0
  6  7  1  0
  7  8  2  0
  8  9  1  0
  9 10  1  0
 10 11  2  0
 11 12  1  0
 12 13  2  0
 13 14  1  0
 14 15  2  0
  9 16  1  0
 16 17  2  0
 17 18  1  0
 18 19  2  0
 19 20  1  0
  8  2  1  0
 15 10  1  0
 20 16  1  0
  1 21  1  0
  1 22  1  0
  1 23  1  0
  3 24  1  0
  6 25  1  0
  7 26  1  0
  9 27  1  1
 11 28  1  0
 12 29  1  0
 14 30  1  0
 15 31  1  0
 18 32  1  0
 19 33  1  0
M  END
>  <UniqueID>  (5) 
4

>  <SMILES>  (5) 
Cc1cc(F)ccc1[C@@H](c1ccncc1)c1nccs1

>  <Energy>  (5) 
73.72255050215945

>  <Genealogy>  (5) 
Cc1cc(F)ccc1[C@@H](c1ccncc1)c1nccs1 (chirality)
Cc1cc(F)ccc1[C@@H](c1ccncc1)c1nccs1 (3D coordinates assigned)
Cc1cc(F)ccc1[C@@H](c1ccncc1)c1nccs1 (optimized conformer: 73.72255050215945 kcal/mol)

>  <smiles>  (5) 
Cc1cc(F)ccc1C(c1ccncc1)c1nccs1

>  <score_type>  (5) 
oracle

>  <origin>  (5) 
adg

>  <m_score__min__energy>  (5) 
-6.7999999999999998

>  <m_primary>  (5) 
energy

$$$$
5:0
     RDKit          3D

 55 58  0  0  0  0  0  0  0  0999 V2000
   56.7440   30.6440   43.6150 C   0  0  0  0  0  0  0  0  0  0  0  0
   56.9330   31.1330   44.9380 O   0  0  0  0  0  0  0  0  0  0  0  0
   57.7680   32.2090   45.2820 C   0  0  0  0  0  0  0  0  0  0  0  0
   57.3770   33.5460   45.0690 C   0  0  0  0  0  0  0  0  0  0  0  0
   58.2120   34.5970   45.4520 C   0  0  0  0  0  0  0  0  0  0  0  0
   59.4430   34.3300   46.0510 C   0  0  0  0  0  0  0  0  0  0  0  0
   59.8460   33.0110   46.2630 C   0  0  0  0  0  0  0  0  0  0  0  0
   59.0220   31.9410   45.8740 C   0  0  0  0  0  0  0  0  0  0  0  0
   59.4640   30.5860   46.0870 N   0  0  0  0  0  0  0  0  0  0  0  0
   59.5620   29.6570   44.9560 C   0  0  0  0  0  0  0  0  0  0  0  0
   60.6240   28.5930   45.2550 C   0  0  0  0  0  0  0  0  0  0  0  0
   60.3710   27.8600   46.5250 N   0  0  0  0  0  0  0  0  0  0  0  0
   59.9630   26.4460   46.3330 C   0  0  0  0  0  0  0  0  0  0  0  0
   58.4430   26.3580   46.1310 C   0  0  0  0  0  0  0  0  0  0  0  0
   57.7360   25.5240   47.2110 C   0  0  0  0  0  0  0  0  0  0  0  0
   56.2820   25.5370   47.0690 N   0  0  0  0  0  0  0  0  0  0  0  0
   55.5330   25.2690   45.8750 C   0  0  0  0  0  0  0  0  0  0  0  0
   54.5060   25.9570   45.6400 O   0  0  0  0  0  0  0  0  0  0  0  0
   55.9410   24.2370   44.9050 C   0  0  0  0  0  0  0  0  0  0  0  0
   56.2320   24.5330   43.6080 N   0  0  0  0  0  0  0  0  0  0  0  0
   56.6380   23.1070   42.8510 S   0  0  0  0  0  0  0  0  0  0  0  0
   56.4610   22.0850   44.1510 C   0  0  0  0  0  0  0  0  0  0  0  0
   56.6370   20.7070   44.2390 C   0  0  0  0  0  0  0  0  0  0  0  0
   56.4100   20.0960   45.4820 C   0  0  0  0  0  0  0  0  0  0  0  0
   56.0210   20.8680   46.5950 C   0  0  0  0  0  0  0  0  0  0  0  0
   55.8530   22.2590   46.4760 C   0  0  0  0  0  0  0  0  0  0  0  0
   56.0770   22.8650   45.2330 C   0  0  0  0  0  0  0  0  0  0  0  0
   59.4870   28.5610   47.4880 C   0  0  0  0  0  0  0  0  0  0  0  0
   59.6750   30.0810   47.4490 C   0  0  0  0  0  0  0  0  0  0  0  0
   56.3477   29.6187   43.6562 H   0  0  0  0  0  0  0  0  0  0  0  0
   56.0313   31.2915   43.0831 H   0  0  0  0  0  0  0  0  0  0  0  0
   57.7068   30.6439   43.0831 H   0  0  0  0  0  0  0  0  0  0  0  0
   56.4071   33.7629   44.5977 H   0  0  0  0  0  0  0  0  0  0  0  0
   57.8987   35.6375   45.2811 H   0  0  0  0  0  0  0  0  0  0  0  0
   60.0968   35.1601   46.3566 H   0  0  0  0  0  0  0  0  0  0  0  0
   60.8167   32.8070   46.7385 H   0  0  0  0  0  0  0  0  0  0  0  0
   58.5890   29.1688   44.7979 H   0  0  0  0  0  0  0  0  0  0  0  0
   59.8466   30.2128   44.0504 H   0  0  0  0  0  0  0  0  0  0  0  0
   60.6361   27.8677   44.4281 H   0  0  0  0  0  0  0  0  0  0  0  0
   61.5885   29.1113   45.3607 H   0  0  0  0  0  0  0  0  0  0  0  0
   60.4719   26.0375   45.4475 H   0  0  0  0  0  0  0  0  0  0  0  0
   60.2417   25.8665   47.2255 H   0  0  0  0  0  0  0  0  0  0  0  0
   58.0284   27.3767   46.1488 H   0  0  0  0  0  0  0  0  0  0  0  0
   58.2698   25.8582   45.1665 H   0  0  0  0  0  0  0  0  0  0  0  0
   58.0876   24.4842   47.1395 H   0  0  0  0  0  0  0  0  0  0  0  0
   57.9793   25.9684   48.1874 H   0  0  0  0  0  0  0  0  0  0  0  0
   56.2440   25.4810   43.1720 H   0  0  0  0  0  0  0  0  0  0  0  0
   56.9439   20.1164   43.3632 H   0  0  0  0  0  0  0  0  0  0  0  0
   56.5364   19.0084   45.5880 H   0  0  0  0  0  0  0  0  0  0  0  0
   55.8474   20.3785   47.5647 H   0  0  0  0  0  0  0  0  0  0  0  0
   55.5505   22.8617   47.3451 H   0  0  0  0  0  0  0  0  0  0  0  0
   58.4405   28.3275   47.2423 H   0  0  0  0  0  0  0  0  0  0  0  0
   59.7489   28.2151   48.4988 H   0  0  0  0  0  0  0  0  0  0  0  0
   58.9498   30.5538   48.1276 H   0  0  0  0  0  0  0  0  0  0  0  0
   60.7004   30.3228   47.7652 H   0  0  0  0  0  0  0  0  0  0  0  0
  1  2  1  0
  2  3  1  0
  3  4  2  0
  4  5  1  0
  5  6  2  0
  6  7  1  0
  7  8  2  0
  8  9  1  0
  9 10  1  0
 10 11  1  0
 11 12  1  0
 12 13  1  0
 13 14  1  0
 14 15  1  0
 15 16  1  0
 16 17  1  0
 17 18  2  0
 17 19  1  0
 19 20  2  0
 20 21  1  0
 21 22  1  0
 22 23  2  0
 23 24  1  0
 24 25  2  0
 25 26  1  0
 26 27  2  0
 12 28  1  0
 28 29  1  0
  8  3  1  0
 29  9  1  0
 27 19  1  0
 27 22  1  0
  1 30  1  0
  1 31  1  0
  1 32  1  0
  4 33  1  0
  5 34  1  0
  6 35  1  0
  7 36  1  0
 10 37  1  0
 10 38  1  0
 11 39  1  0
 11 40  1  0
 13 41  1  0
 13 42  1  0
 14 43  1  0
 14 44  1  0
 15 45  1  0
 15 46  1  0
 20 47  1  0
 23 48  1  0
 24 49  1  0
 25 50  1  0
 26 51  1  0
 28 52  1  0
 28 53  1  0
 29 54  1  0
 29 55  1  0
M  CHG  2  16  -1  20   1
M  END
>  <UniqueID>  (6) 
5

>  <SMILES>  (6) 
COc1ccccc1N1CCN(CCC[N-]C(=O)c2[nH+]sc3ccccc23)CC1

>  <Energy>  (6) 
109.18333256929469

>  <Genealogy>  (6) 
COc1ccccc1N1CCN(CCC[N-]C(=O)c2[nH+]sc3ccccc23)CC1 (protonated)
COc1ccccc1N1CCN(CCC[N-]C(=O)c2[nH+]sc3ccccc23)CC1 (3D coordinates assigned)
COc1ccccc1N1CCN(CCC[N-]C(=O)c2[nH+]sc3ccccc23)CC1 (nonaromatic ring conformer: 109.18333256929469 kcal/mol)

>  <smiles>  (6) 
COc1ccccc1N1CCN(CCCNC(=O)c2nsc3ccccc23)CC1

>  <score_type>  (6) 
oracle

>  <origin>  (6) 
adg

>  <m_score__min__energy>  (6) 
-9.6099999999999994

>  <m_primary>  (6) 
energy

$$$$
6:0
     RDKit          3D

 43 45  0  0  0  0  0  0  0  0999 V2000
   66.6630   32.2170   50.4820 C   0  0  0  0  0  0  0  0  0  0  0  0
   65.3060   31.7890   50.5360 O   0  0  0  0  0  0  0  0  0  0  0  0
   64.2630   32.3650   49.7960 C   0  0  0  0  0  0  0  0  0  0  0  0
   64.4880   33.0810   48.6060 C   0  0  0  0  0  0  0  0  0  0  0  0
   63.4160   33.6380   47.9020 C   0  0  0  0  0  0  0  0  0  0  0  0
   62.0980   33.4900   48.3720 C   0  0  0  0  0  0  0  0  0  0  0  0
   60.9470   34.0750   47.6410 C   0  0  0  0  0  0  0  0  0  0  0  0
   60.0590   34.9240   48.2020 N   0  0  0  0  0  0  0  0  0  0  0  0
   59.2180   35.2210   47.2550 O   0  0  0  0  0  0  0  0  0  0  0  0
   59.5500   34.5930   46.1540 C   0  0  0  0  0  0  0  0  0  0  0  0
   58.8260   34.7250   44.8500 C   0  0  0  0  0  0  0  0  0  0  0  0
   57.6260   33.7590   44.7680 C   0  0  0  0  0  0  0  0  0  0  0  0
   57.3320   33.1190   46.1490 C   0  0  0  0  0  0  0  0  0  0  0  0
   57.9510   31.7210   46.2580 C   0  0  0  0  0  0  0  0  0  0  0  0
   57.3740   30.7880   45.2590 N   0  0  0  0  0  0  0  0  0  0  0  0
   58.2660   29.6340   45.0650 C   0  0  0  0  0  0  0  0  0  0  0  0
   57.0180   31.4220   43.9630 C   0  0  0  0  0  0  0  0  0  0  0  0
   57.8450   32.6830   43.6740 C   0  0  0  0  0  0  0  0  0  0  0  0
   60.6510   33.8470   46.3440 N   0  0  0  0  0  0  0  0  0  0  0  0
   61.8820   32.7730   49.5620 C   0  0  0  0  0  0  0  0  0  0  0  0
   62.9540   32.2180   50.2640 C   0  0  0  0  0  0  0  0  0  0  0  0
   67.0499   32.3390   51.5044 H   0  0  0  0  0  0  0  0  0  0  0  0
   67.2638   31.4647   49.9499 H   0  0  0  0  0  0  0  0  0  0  0  0
   66.7235   33.1778   49.9499 H   0  0  0  0  0  0  0  0  0  0  0  0
   65.5134   33.2033   48.2272 H   0  0  0  0  0  0  0  0  0  0  0  0
   63.6045   34.1964   46.9732 H   0  0  0  0  0  0  0  0  0  0  0  0
   58.4611   35.7576   44.7469 H   0  0  0  0  0  0  0  0  0  0  0  0
   59.5265   34.4740   44.0399 H   0  0  0  0  0  0  0  0  0  0  0  0
   56.7399   34.3431   44.4787 H   0  0  0  0  0  0  0  0  0  0  0  0
   57.7529   33.7598   46.9378 H   0  0  0  0  0  0  0  0  0  0  0  0
   56.2419   33.0260   46.2636 H   0  0  0  0  0  0  0  0  0  0  0  0
   59.0355   31.7969   46.0907 H   0  0  0  0  0  0  0  0  0  0  0  0
   57.7347   31.3266   47.2618 H   0  0  0  0  0  0  0  0  0  0  0  0
   58.5719   29.2382   46.0447 H   0  0  0  0  0  0  0  0  0  0  0  0
   57.7359   28.8512   44.5026 H   0  0  0  0  0  0  0  0  0  0  0  0
   59.1571   29.9498   44.5026 H   0  0  0  0  0  0  0  0  0  0  0  0
   57.1912   30.6948   43.1560 H   0  0  0  0  0  0  0  0  0  0  0  0
   55.9614   31.7229   44.0191 H   0  0  0  0  0  0  0  0  0  0  0  0
   58.9111   32.4139   43.6436 H   0  0  0  0  0  0  0  0  0  0  0  0
   57.5223   33.0977   42.7076 H   0  0  0  0  0  0  0  0  0  0  0  0
   61.1460   33.2550   45.6410 H   0  0  0  0  0  0  0  0  0  0  0  0
   60.8580   32.6479   49.9439 H   0  0  0  0  0  0  0  0  0  0  0  0
   62.7667   31.6602   51.1934 H   0  0  0  0  0  0  0  0  0  0  0  0
  1  2  1  0
  2  3  1  0
  3  4  2  0
  4  5  1  0
  5  6  2  0
  6  7  1  0
  7  8  2  0
  8  9  1  0
  9 10  1  0
 10 11  1  0
 11 12  1  0
 12 13  1  0
 13 14  1  0
 14 15  1  0
 15 16  1  0
 15 17  1  0
 17 18  1  0
 10 19  2  0
  6 20  1  0
 20 21  2  0
 21  3  1  0
 19  7  1  0
 18 12  1  0
  1 22  1  0
  1 23  1  0
  1 24  1  0
  4 25  1  0
  5 26  1  0
 11 27  1  0
 11 28  1  0
 12 29  1  0
 13 30  1  0
 13 31  1  0
 14 32  1  0
 14 33  1  0
 16 34  1  0
 16 35  1  0
 16 36  1  0
 17 37  1  0
 17 38  1  0
 18 39  1  0
 18 40  1  0
 19 41  1  0
 20 42  1  0
 21 43  1  0
M  CHG  1  19   1
M  END
>  <UniqueID>  (7) 
6

>  <SMILES>  (7) 
COc1ccc(-c2noc(CC3CCN(C)CC3)[nH+]2)cc1

>  <Energy>  (7) 
84.21902449104512

>  <Genealogy>  (7) 
COc1ccc(-c2noc(CC3CCN(C)CC3)[nH+]2)cc1 (protonated)
COc1ccc(-c2noc(CC3CCN(C)CC3)[nH+]2)cc1 (3D coordinates assigned)
COc1ccc(-c2noc(CC3CCN(C)CC3)[nH+]2)cc1 (nonaromatic ring conformer: 84.21902449104512 kcal/mol)

>  <smiles>  (7) 
COc1ccc(-c2noc(CC3CCN(C)CC3)n2)cc1

>  <score_type>  (7) 
oracle

>  <origin>  (7) 
adg

>  <m_score__min__energy>  (7) 
-6.2000000000000002

>  <m_primary>  (7) 
energy

$$$$
7:0
     RDKit          3D

 37 39  0  0  0  0  0  0  0  0999 V2000
   54.9170   24.8670   45.6240 C   0  0  0  0  0  0  0  0  0  0  0  0
   55.1300   26.2280   45.9850 O   0  0  0  0  0  0  0  0  0  0  0  0
   56.3890   26.8420   46.0480 C   0  0  0  0  0  0  0  0  0  0  0  0
   57.3710   26.2660   46.8640 C   0  0  0  0  0  0  0  0  0  0  0  0
   58.6410   26.8410   46.9610 C   0  0  0  0  0  0  0  0  0  0  0  0
   58.9500   28.0020   46.2360 C   0  0  0  0  0  0  0  0  0  0  0  0
   60.3060   28.6420   46.3550 C   0  0  0  0  0  0  0  0  0  0  0  0
   60.2130   30.0770   46.0930 N   0  0  0  0  0  0  0  0  0  0  0  0
   59.4220   30.9570   46.9070 C   0  0  0  0  0  0  0  0  0  0  0  0
   58.8510   30.5070   47.9380 O   0  0  0  0  0  0  0  0  0  0  0  0
   59.2620   32.3800   46.5380 C   0  0  0  0  0  0  0  0  0  0  0  0
   60.1010   33.6550   47.2530 S   0  0  0  0  0  0  0  0  0  0  0  0
   59.4780   34.8780   46.2890 C   0  0  0  0  0  0  0  0  0  0  0  0
   58.6000   34.3070   45.3810 C   0  0  0  0  0  0  0  0  0  0  0  0
   58.4560   32.9150   45.5230 C   0  0  0  0  0  0  0  0  0  0  0  0
   57.5740   32.0990   44.6170 C   0  0  0  0  0  0  0  0  0  0  0  0
   57.7660   32.3740   43.1300 C   0  0  0  0  0  0  0  0  0  0  0  0
   58.2960   31.0870   43.7340 C   0  0  0  0  0  0  0  0  0  0  0  0
   57.9680   28.5850   45.4230 C   0  0  0  0  0  0  0  0  0  0  0  0
   56.6970   28.0110   45.3250 C   0  0  0  0  0  0  0  0  0  0  0  0
   54.8215   24.2568   46.5343 H   0  0  0  0  0  0  0  0  0  0  0  0
   53.9951   24.7853   45.0294 H   0  0  0  0  0  0  0  0  0  0  0  0
   55.7698   24.5076   45.0294 H   0  0  0  0  0  0  0  0  0  0  0  0
   57.1406   25.3534   47.4333 H   0  0  0  0  0  0  0  0  0  0  0  0
   59.4020   26.3813   47.6087 H   0  0  0  0  0  0  0  0  0  0  0  0
   60.6946   28.4829   47.3717 H   0  0  0  0  0  0  0  0  0  0  0  0
   60.9833   28.1862   45.6178 H   0  0  0  0  0  0  0  0  0  0  0  0
   60.7570   30.4620   45.2890 H   0  0  0  0  0  0  0  0  0  0  0  0
   59.7236   35.9476   46.3643 H   0  0  0  0  0  0  0  0  0  0  0  0
   58.0639   34.8902   44.6178 H   0  0  0  0  0  0  0  0  0  0  0  0
   56.7171   32.0564   45.3054 H   0  0  0  0  0  0  0  0  0  0  0  0
   56.9017   32.3468   42.4501 H   0  0  0  0  0  0  0  0  0  0  0  0
   58.2038   33.1940   42.5419 H   0  0  0  0  0  0  0  0  0  0  0  0
   57.8156   30.1275   43.4917 H   0  0  0  0  0  0  0  0  0  0  0  0
   59.2764   30.5891   43.7645 H   0  0  0  0  0  0  0  0  0  0  0  0
   58.1991   29.5003   44.8583 H   0  0  0  0  0  0  0  0  0  0  0  0
   55.9348   28.4739   44.6810 H   0  0  0  0  0  0  0  0  0  0  0  0
  1  2  1  0
  2  3  1  0
  3  4  2  0
  4  5  1  0
  5  6  2  0
  6  7  1  0
  7  8  1  0
  8  9  1  0
  9 10  2  0
  9 11  1  0
 11 12  1  0
 12 13  1  0
 13 14  2  0
 14 15  1  0
 15 16  1  0
 16 17  1  0
 17 18  1  0
  6 19  1  0
 19 20  2  0
 20  3  1  0
 15 11  2  0
 18 16  1  0
  1 21  1  0
  1 22  1  0
  1 23  1  0
  4 24  1  0
  5 25  1  0
  7 26  1  0
  7 27  1  0
  8 28  1  0
 13 29  1  0
 14 30  1  0
 16 31  1  0
 17 32  1  0
 17 33  1  0
 18 34  1  0
 18 35  1  0
 19 36  1  0
 20 37  1  0
M  END
>  <UniqueID>  (8) 
7

>  <SMILES>  (8) 
COc1ccc(CNC(=O)c2sccc2C2CC2)cc1

>  <Energy>  (8) 
324.9257919396168

>  <Genealogy>  (8) 
COc1ccc(CNC(=O)c2sccc2C2CC2)cc1 (3D coordinates assigned)
COc1ccc(CNC(=O)c2sccc2C2CC2)cc1 (nonaromatic ring conformer: 324.9257919396168 kcal/mol)

>  <smiles>  (8) 
COc1ccc(CNC(=O)c2sccc2C2CC2)cc1

>  <score_type>  (8) 
oracle

>  <origin>  (8) 
adg

>  <m_score__min__energy>  (8) 
-7.1600000000000001

>  <m_primary>  (8) 
energy

$$$$
8:0
     RDKit          3D

 48 51  0  0  0  0  0  0  0  0999 V2000
   64.4890   33.4980   50.6260 C   0  0  0  0  0  0  0  0  0  0  0  0
   63.4240   34.3810   50.2870 O   0  0  0  0  0  0  0  0  0  0  0  0
   62.4630   34.1200   49.2990 C   0  0  0  0  0  0  0  0  0  0  0  0
   61.1100   34.2100   49.6470 C   0  0  0  0  0  0  0  0  0  0  0  0
   60.1140   33.9590   48.6990 C   0  0  0  0  0  0  0  0  0  0  0  0
   60.4590   33.6210   47.3810 C   0  0  0  0  0  0  0  0  0  0  0  0
   59.4320   33.3560   46.4050 N   0  0  0  0  0  0  0  0  0  0  0  0
   58.8220   34.4140   45.7890 C   0  0  0  0  0  0  0  0  0  0  0  0
   57.8180   34.2080   44.8460 C   0  0  0  0  0  0  0  0  0  0  0  0
   57.4260   32.9100   44.5340 C   0  0  0  0  0  0  0  0  0  0  0  0
   58.0360   31.8210   45.1680 C   0  0  0  0  0  0  0  0  0  0  0  0
   57.5880   30.4490   44.8230 C   0  0  0  0  0  0  0  0  0  0  0  0
   56.4480   30.0880   45.2320 O   0  0  0  0  0  0  0  0  0  0  0  0
   58.3900   29.5580   43.9890 N   0  0  2  0  0  0  0  0  0  0  0  0
   57.6860   28.3010   43.6350 C   0  0  0  0  0  0  0  0  0  0  0  0
   57.3840   27.4160   44.8640 C   0  0  0  0  0  0  0  0  0  0  0  0
   58.4800   27.4350   45.8980 C   0  0  0  0  0  0  0  0  0  0  0  0
   58.3890   26.5800   47.0080 C   0  0  0  0  0  0  0  0  0  0  0  0
   59.3640   26.6140   48.0080 C   0  0  0  0  0  0  0  0  0  0  0  0
   60.4350   27.5040   47.9100 C   0  0  0  0  0  0  0  0  0  0  0  0
   60.5350   28.3630   46.8140 C   0  0  0  0  0  0  0  0  0  0  0  0
   59.5520   28.3460   45.8120 C   0  0  0  0  0  0  0  0  0  0  0  0
   59.6990   29.2310   44.6000 C   0  0  0  0  0  0  0  0  0  0  0  0
   59.0700   32.0660   46.0970 C   0  0  0  0  0  0  0  0  0  0  0  0
   59.6800   31.0960   46.6240 O   0  0  0  0  0  0  0  0  0  0  0  0
   61.8150   33.5260   47.0300 C   0  0  0  0  0  0  0  0  0  0  0  0
   62.8110   33.7750   47.9790 C   0  0  0  0  0  0  0  0  0  0  0  0
   64.5731   33.4282   51.7206 H   0  0  0  0  0  0  0  0  0  0  0  0
   64.2849   32.5005   50.2096 H   0  0  0  0  0  0  0  0  0  0  0  0
   65.4314   33.8833   50.2096 H   0  0  0  0  0  0  0  0  0  0  0  0
   60.8283   34.4806   50.6753 H   0  0  0  0  0  0  0  0  0  0  0  0
   59.0546   34.0267   48.9872 H   0  0  0  0  0  0  0  0  0  0  0  0
   59.1281   35.4399   46.0415 H   0  0  0  0  0  0  0  0  0  0  0  0
   57.3383   35.0655   44.3514 H   0  0  0  0  0  0  0  0  0  0  0  0
   56.6357   32.7392   43.7882 H   0  0  0  0  0  0  0  0  0  0  0  0
   58.5760   30.0600   43.0890 H   0  0  0  0  0  0  0  0  0  0  0  0
   56.7353   28.5571   43.1445 H   0  0  0  0  0  0  0  0  0  0  0  0
   58.3479   27.7276   42.9694 H   0  0  0  0  0  0  0  0  0  0  0  0
   56.4559   27.7750   45.3328 H   0  0  0  0  0  0  0  0  0  0  0  0
   57.2941   26.3803   44.5046 H   0  0  0  0  0  0  0  0  0  0  0  0
   57.5451   25.8793   47.0907 H   0  0  0  0  0  0  0  0  0  0  0  0
   59.2877   25.9390   48.8732 H   0  0  0  0  0  0  0  0  0  0  0  0
   61.2019   27.5285   48.6982 H   0  0  0  0  0  0  0  0  0  0  0  0
   61.3864   29.0550   46.7354 H   0  0  0  0  0  0  0  0  0  0  0  0
   60.1938   30.1662   44.9012 H   0  0  0  0  0  0  0  0  0  0  0  0
   60.2960   28.6873   43.8530 H   0  0  0  0  0  0  0  0  0  0  0  0
   62.0956   33.2539   46.0018 H   0  0  0  0  0  0  0  0  0  0  0  0
   63.8707   33.7011   47.6933 H   0  0  0  0  0  0  0  0  0  0  0  0
  1  2  1  0
  2  3  1  0
  3  4  2  0
  4  5  1  0
  5  6  2  0
  6  7  1  0
  7  8  1  0
  8  9  2  0
  9 10  1  0
 10 11  2  0
 11 12  1  0
 12 13  2  0
 12 14  1  0
 14 15  1  0
 15 16  1  0
 16 17  1  0
 17 18  2  0
 18 19  1  0
 19 20  2  0
 20 21  1  0
 21 22  2  0
 22 23  1  0
 11 24  1  0
 24 25  2  0
  6 26  1  0
 26 27  2  0
 27  3  1  0
 24  7  1  0
 23 14  1  0
 22 17  1  0
  1 28  1  0
  1 29  1  0
  1 30  1  0
  4 31  1  0
  5 32  1  0
  8 33  1  0
  9 34  1  0
 10 35  1  0
 14 36  1  6
 15 37  1  0
 15 38  1  0
 16 39  1  0
 16 40  1  0
 18 41  1  0
 19 42  1  0
 20 43  1  0
 21 44  1  0
 23 45  1  0
 23 46  1  0
 26 47  1  0
 27 48  1  0
M  CHG  1  14   1
M  END
>  <UniqueID>  (9) 
8

>  <SMILES>  (9) 
COc1ccc(-n2cccc(C(=O)[N@@H+]3CCc4ccccc4C3)c2=O)cc1

>  <Energy>  (9) 
75.65511830579823

>  <Genealogy>  (9) 
COc1ccc(-n2cccc(C(=O)[NH+]3CCc4ccccc4C3)c2=O)cc1 (protonated)
COc1ccc(-n2cccc(C(=O)[N@@H+]3CCc4ccccc4C3)c2=O)cc1 (chirality)
COc1ccc(-n2cccc(C(=O)[N@@H+]3CCc4ccccc4C3)c2=O)cc1 (3D coordinates assigned)
COc1ccc(-n2cccc(C(=O)[N@@H+]3CCc4ccccc4C3)c2=O)cc1 (nonaromatic ring conformer: 75.65511830579823 kcal/mol)

>  <smiles>  (9) 
COc1ccc(-n2cccc(C(=O)N3CCc4ccccc4C3)c2=O)cc1

>  <score_type>  (9) 
oracle

>  <origin>  (9) 
adg

>  <m_score__min__energy>  (9) 
-7.2699999999999996

>  <m_primary>  (9) 
energy

$$$$
9:0
     RDKit          3D

 25 27  0  0  0  0  0  0  0  0999 V2000
   56.9250   27.7930   45.5210 C   0  0  0  0  0  0  0  0  0  0  0  0
   56.1290   28.7800   44.8740 O   0  0  0  0  0  0  0  0  0  0  0  0
   56.6520   29.8840   44.1880 C   0  0  0  0  0  0  0  0  0  0  0  0
   56.4730   30.0880   42.7960 C   0  0  0  0  0  0  0  0  0  0  0  0
   57.0230   31.2220   42.1580 C   0  0  0  0  0  0  0  0  0  0  0  0
   57.7590   32.1700   42.8900 C   0  0  0  0  0  0  0  0  0  0  0  0
   57.9190   31.9460   44.2540 C   0  0  0  0  0  0  0  0  0  0  0  0
   57.3860   30.8420   44.8860 C   0  0  0  0  0  0  0  0  0  0  0  0
   57.6710   30.8480   46.1750 O   0  0  0  0  0  0  0  0  0  0  0  0
   58.3810   31.9380   46.3970 C   0  0  0  0  0  0  0  0  0  0  0  0
   58.9090   32.3720   47.6100 C   0  0  0  0  0  0  0  0  0  0  0  0
   59.6420   33.5750   47.6180 C   0  0  0  0  0  0  0  0  0  0  0  0
   60.3900   34.2190   49.2530 Br  0  0  0  0  0  0  0  0  0  0  0  0
   59.8290   34.3090   46.4220 C   0  0  0  0  0  0  0  0  0  0  0  0
   59.2850   33.8490   45.2090 C   0  0  0  0  0  0  0  0  0  0  0  0
   58.5660   32.6570   45.2360 C   0  0  0  0  0  0  0  0  0  0  0  0
   56.8341   27.9057   46.6114 H   0  0  0  0  0  0  0  0  0  0  0  0
   56.5789   26.7915   45.2258 H   0  0  0  0  0  0  0  0  0  0  0  0
   57.9771   27.9191   45.2258 H   0  0  0  0  0  0  0  0  0  0  0  0
   55.9003   29.3561   42.2074 H   0  0  0  0  0  0  0  0  0  0  0  0
   56.8739   31.3647   41.0775 H   0  0  0  0  0  0  0  0  0  0  0  0
   58.1923   33.0559   42.4027 H   0  0  0  0  0  0  0  0  0  0  0  0
   58.7585   31.7935   48.5334 H   0  0  0  0  0  0  0  0  0  0  0  0
   60.4042   35.2464   46.4414 H   0  0  0  0  0  0  0  0  0  0  0  0
   59.4227   34.4106   44.2732 H   0  0  0  0  0  0  0  0  0  0  0  0
  1  2  1  0
  2  3  1  0
  3  4  2  0
  4  5  1  0
  5  6  2  0
  6  7  1  0
  7  8  2  0
  8  9  1  0
  9 10  1  0
 10 11  2  0
 11 12  1  0
 12 13  1  0
 12 14  2  0
 14 15  1  0
 15 16  2  0
  8  3  1  0
 16 10  1  0
 16  7  1  0
  1 17  1  0
  1 18  1  0
  1 19  1  0
  4 20  1  0
  5 21  1  0
  6 22  1  0
 11 23  1  0
 14 24  1  0
 15 25  1  0
M  END
>  <UniqueID>  (10) 
9

>  <SMILES>  (10) 
COc1cccc2c1oc1cc(Br)ccc12

>  <Energy>  (10) 
68.27126433309492

>  <Genealogy>  (10) 
COc1cccc2c1oc1cc(Br)ccc12 (3D coordinates assigned)
COc1cccc2c1oc1cc(Br)ccc12 (optimized conformer: 68.27126433309492 kcal/mol)

>  <smiles>  (10) 
COc1cccc2c1oc1cc(Br)ccc12

>  <score_type>  (10) 
oracle

>  <origin>  (10) 
adg

>  <m_score__min__energy>  (10) 
-6.96

>  <m_primary>  (10) 
energy

$$$$
10:0
     RDKit          3D

 32 32  0  0  0  0  0  0  0  0999 V2000
   60.6280   28.6140   44.9110 C   0  0  0  0  0  0  0  0  0  0  0  0
   59.4060   29.5300   45.0330 C   0  0  0  0  0  0  0  0  0  0  0  0
   58.3930   29.2770   43.9820 N   0  0  0  0  0  0  0  0  0  0  0  0
   57.8050   27.9140   44.0010 C   0  0  0  0  0  0  0  0  0  0  0  0
   58.1200   27.0590   42.7650 C   0  0  0  0  0  0  0  0  0  0  0  0
   57.1550   30.5160   44.0420 S   0  0  0  0  0  0  0  0  0  0  0  0
   56.6630   30.8390   42.6590 O   0  0  0  0  0  0  0  0  0  0  0  0
   55.9880   30.0550   44.8720 O   0  0  0  0  0  0  0  0  0  0  0  0
   57.8360   31.9800   44.7510 C   0  0  0  0  0  0  0  0  0  0  0  0
   58.2030   33.0610   43.9390 C   0  0  0  0  0  0  0  0  0  0  0  0
   58.7240   34.2220   44.5100 C   0  0  0  0  0  0  0  0  0  0  0  0
   58.8800   34.3140   45.8970 C   0  0  0  0  0  0  0  0  0  0  0  0
   58.5100   33.2430   46.7280 C   0  0  0  0  0  0  0  0  0  0  0  0
   58.6660   33.3420   48.1550 N   0  0  0  0  0  0  0  0  0  0  0  0
   58.1300   32.5080   48.9140 O   0  0  0  0  0  0  0  0  0  0  0  0
   59.4090   34.3590   48.7090 O   0  0  0  0  0  0  0  0  0  0  0  0
   57.9850   32.0750   46.1410 C   0  0  0  0  0  0  0  0  0  0  0  0
   60.9865   28.3452   45.9156 H   0  0  0  0  0  0  0  0  0  0  0  0
   60.3487   27.7009   44.3649 H   0  0  0  0  0  0  0  0  0  0  0  0
   61.4261   29.1382   44.3649 H   0  0  0  0  0  0  0  0  0  0  0  0
   58.9408   29.3667   46.0163 H   0  0  0  0  0  0  0  0  0  0  0  0
   59.7552   30.5664   44.9145 H   0  0  0  0  0  0  0  0  0  0  0  0
   58.8640   29.3920   43.0540 H   0  0  0  0  0  0  0  0  0  0  0  0
   58.1889   27.3881   44.8876 H   0  0  0  0  0  0  0  0  0  0  0  0
   56.7133   28.0481   44.0144 H   0  0  0  0  0  0  0  0  0  0  0  0
   58.4838   26.0715   43.0853 H   0  0  0  0  0  0  0  0  0  0  0  0
   57.2082   26.9360   42.1622 H   0  0  0  0  0  0  0  0  0  0  0  0
   58.8937   27.5570   42.1622 H   0  0  0  0  0  0  0  0  0  0  0  0
   58.0799   32.9940   42.8480 H   0  0  0  0  0  0  0  0  0  0  0  0
   59.0129   35.0673   43.8681 H   0  0  0  0  0  0  0  0  0  0  0  0
   59.2952   35.2311   46.3403 H   0  0  0  0  0  0  0  0  0  0  0  0
   57.6893   31.2297   46.7798 H   0  0  0  0  0  0  0  0  0  0  0  0
  1  2  1  0
  2  3  1  0
  3  4  1  0
  4  5  1  0
  3  6  1  0
  6  7  2  0
  6  8  2  0
  6  9  1  0
  9 10  2  0
 10 11  1  0
 11 12  2  0
 12 13  1  0
 13 14  1  0
 14 15  2  0
 14 16  1  0
 13 17  2  0
 17  9  1  0
  1 18  1  0
  1 19  1  0
  1 20  1  0
  2 21  1  0
  2 22  1  0
  3 23  1  0
  4 24  1  0
  4 25  1  0
  5 26  1  0
  5 27  1  0
  5 28  1  0
 10 29  1  0
 11 30  1  0
 12 31  1  0
 17 32  1  0
M  CHG  3   3   1  14   1  16  -1
M  END
>  <UniqueID>  (11) 
10

>  <SMILES>  (11) 
CC[NH+](CC)S(=O)(=O)c1cccc([N+](=O)[O-])c1

>  <Energy>  (11) 
30.905563874303635

>  <Genealogy>  (11) 
CC[NH+](CC)S(=O)(=O)c1cccc([N+](=O)[O-])c1 (protonated)
CC[NH+](CC)S(=O)(=O)c1cccc([N+](=O)[O-])c1 (3D coordinates assigned)
CC[NH+](CC)S(=O)(=O)c1cccc([N+](=O)[O-])c1 (optimized conformer: 30.905563874303635 kcal/mol)

>  <smiles>  (11) 
CCN(CC)S(=O)(=O)c1cccc([N+](=O)[O-])c1

>  <score_type>  (11) 
oracle

>  <origin>  (11) 
adg

>  <m_score__min__energy>  (11) 
-5.5800000000000001

>  <m_primary>  (11) 
energy

$$$$
11:0
     RDKit          3D

 28 29  0  0  0  0  0  0  0  0999 V2000
   55.6660   30.6770   44.5220 O   0  0  0  0  0  0  0  0  0  0  0  0
   56.8510   30.3210   43.6700 S   0  0  0  0  0  0  0  0  0  0  0  0
   56.3540   29.7040   42.3920 O   0  0  0  0  0  0  0  0  0  0  0  0
   57.7820   31.7980   43.3000 C   0  0  0  0  0  0  0  0  0  0  0  0
   58.0350   32.5850   44.5560 C   0  0  0  0  0  0  0  0  0  0  0  0
   57.7700   32.0180   45.8150 C   0  0  0  0  0  0  0  0  0  0  0  0
   58.0590   32.7310   46.9830 C   0  0  0  0  0  0  0  0  0  0  0  0
   58.6180   34.0090   46.9030 C   0  0  0  0  0  0  0  0  0  0  0  0
   58.8920   34.5760   45.6560 C   0  0  0  0  0  0  0  0  0  0  0  0
   58.6060   33.8670   44.4850 C   0  0  0  0  0  0  0  0  0  0  0  0
   57.8700   29.1710   44.5310 C   0  0  0  0  0  0  0  0  0  0  0  0
   57.2880   28.1400   45.2830 C   0  0  0  0  0  0  0  0  0  0  0  0
   58.0970   27.2500   45.9980 C   0  0  0  0  0  0  0  0  0  0  0  0
   59.4870   27.3910   45.9720 C   0  0  0  0  0  0  0  0  0  0  0  0
   60.0720   28.4230   45.2310 C   0  0  0  0  0  0  0  0  0  0  0  0
   59.2660   29.3120   44.5130 C   0  0  0  0  0  0  0  0  0  0  0  0
   58.7447   31.5163   42.8484 H   0  0  0  0  0  0  0  0  0  0  0  0
   57.2039   32.4188   42.5997 H   0  0  0  0  0  0  0  0  0  0  0  0
   57.3339   31.0103   45.8816 H   0  0  0  0  0  0  0  0  0  0  0  0
   57.8460   32.2851   47.9657 H   0  0  0  0  0  0  0  0  0  0  0  0
   58.8425   34.5692   47.8227 H   0  0  0  0  0  0  0  0  0  0  0  0
   59.3334   35.5817   45.5951 H   0  0  0  0  0  0  0  0  0  0  0  0
   58.8288   34.3144   43.5051 H   0  0  0  0  0  0  0  0  0  0  0  0
   56.1938   28.0309   45.3107 H   0  0  0  0  0  0  0  0  0  0  0  0
   57.6381   26.4382   46.5814 H   0  0  0  0  0  0  0  0  0  0  0  0
   60.1213   26.6901   46.5345 H   0  0  0  0  0  0  0  0  0  0  0  0
   61.1661   28.5353   45.2130 H   0  0  0  0  0  0  0  0  0  0  0  0
   59.7277   30.1242   43.9324 H   0  0  0  0  0  0  0  0  0  0  0  0
  1  2  2  0
  2  3  2  0
  2  4  1  0
  4  5  1  0
  5  6  2  0
  6  7  1  0
  7  8  2  0
  8  9  1  0
  9 10  2  0
  2 11  1  0
 11 12  2  0
 12 13  1  0
 13 14  2  0
 14 15  1  0
 15 16  2  0
 10  5  1  0
 16 11  1  0
  4 17  1  0
  4 18  1  0
  6 19  1  0
  7 20  1  0
  8 21  1  0
  9 22  1  0
 10 23  1  0
 12 24  1  0
 13 25  1  0
 14 26  1  0
 15 27  1  0
 16 28  1  0
M  END
>  <UniqueID>  (12) 
11

>  <SMILES>  (12) 
O=S(=O)(Cc1ccccc1)c1ccccc1

>  <Energy>  (12) 
23.852752509843125

>  <Genealogy>  (12) 
O=S(=O)(Cc1ccccc1)c1ccccc1 (3D coordinates assigned)
O=S(=O)(Cc1ccccc1)c1ccccc1 (optimized conformer: 23.852752509843125 kcal/mol)

>  <smiles>  (12) 
O=S(=O)(Cc1ccccc1)c1ccccc1

>  <score_type>  (12) 
oracle

>  <origin>  (12) 
adg

>  <m_score__min__energy>  (12) 
-7.1100000000000003

>  <m_primary>  (12) 
energy

$$$$
12:0
     RDKit          3D

 39 42  0  0  0  0  0  0  0  0999 V2000
   53.5960   24.7319   45.6869 H   0  0  0  0  0  0  0  0  0  0  0  0
   54.6720   24.9400   45.5930 C   0  0  0  0  0  0  0  0  0  0  0  0
   55.2150   26.0160   46.2240 N   0  0  0  0  0  0  0  0  0  0  0  0
   56.5430   26.3120   46.1340 C   0  0  0  0  0  0  0  0  0  0  0  0
   57.0520   27.3380   46.7540 N   0  0  0  0  0  0  0  0  0  0  0  0
   58.0670   28.2260   46.2570 C   0  0  0  0  0  0  0  0  0  0  0  0
   59.2040   28.2850   46.8000 O   0  0  0  0  0  0  0  0  0  0  0  0
   57.7350   29.1550   45.1710 C   0  0  0  0  0  0  0  0  0  0  0  0
   57.4240   28.6220   43.8990 C   0  0  0  0  0  0  0  0  0  0  0  0
   57.5692   27.5479   43.7111 H   0  0  0  0  0  0  0  0  0  0  0  0
   56.9300   29.4480   42.8670 C   0  0  0  0  0  0  0  0  0  0  0  0
   56.6958   29.0123   41.8845 H   0  0  0  0  0  0  0  0  0  0  0  0
   56.7350   30.8210   43.0840 C   0  0  0  0  0  0  0  0  0  0  0  0
   56.3319   31.4717   42.2940 H   0  0  0  0  0  0  0  0  0  0  0  0
   57.0700   31.3280   44.3340 C   0  0  0  0  0  0  0  0  0  0  0  0
   57.0300   32.6060   44.7370 N   0  0  0  0  0  0  0  0  0  0  0  0
   57.5290   32.6110   45.9680 N   0  0  0  0  0  0  0  0  0  0  0  0
   57.8690   31.3860   46.3640 N   0  0  0  0  0  0  0  0  0  0  0  0
   58.6730   31.1620   47.5680 C   0  0  0  0  0  0  0  0  0  0  0  0
   58.1717   31.6240   48.4313 H   0  0  0  0  0  0  0  0  0  0  0  0
   58.7807   30.0797   47.7327 H   0  0  0  0  0  0  0  0  0  0  0  0
   60.0430   31.7750   47.3990 C   0  0  0  0  0  0  0  0  0  0  0  0
   60.1730   32.9740   46.6770 C   0  0  0  0  0  0  0  0  0  0  0  0
   59.2839   33.4348   46.2218 H   0  0  0  0  0  0  0  0  0  0  0  0
   61.4200   33.5860   46.5320 C   0  0  0  0  0  0  0  0  0  0  0  0
   61.5102   34.5207   45.9591 H   0  0  0  0  0  0  0  0  0  0  0  0
   62.5510   33.0130   47.1130 C   0  0  0  0  0  0  0  0  0  0  0  0
   63.7610   33.6100   46.9720 F   0  0  0  0  0  0  0  0  0  0  0  0
   62.4380   31.8260   47.8400 C   0  0  0  0  0  0  0  0  0  0  0  0
   63.3325   31.3772   48.2966 H   0  0  0  0  0  0  0  0  0  0  0  0
   61.1930   31.2040   47.9910 C   0  0  0  0  0  0  0  0  0  0  0  0
   61.1230   29.7110   48.9230 Cl  0  0  0  0  0  0  0  0  0  0  0  0
   57.5740   30.5490   45.3400 C   0  0  0  0  0  0  0  0  0  0  0  0
   57.3830   25.4860   45.3750 C   0  0  0  0  0  0  0  0  0  0  0  0
   58.4572   25.7095   45.2967 H   0  0  0  0  0  0  0  0  0  0  0  0
   56.8450   24.3770   44.7190 C   0  0  0  0  0  0  0  0  0  0  0  0
   57.4948   23.7230   44.1189 H   0  0  0  0  0  0  0  0  0  0  0  0
   55.4820   24.1000   44.8260 C   0  0  0  0  0  0  0  0  0  0  0  0
   55.0498   23.2290   44.3116 H   0  0  0  0  0  0  0  0  0  0  0  0
  1  2  1  0
  2  3  1  0
  3  4  1  0
  4  5  2  0
  5  6  1  0
  6  7  2  0
  6  8  1  0
  8  9  2  0
  9 10  1  0
  9 11  1  0
 11 12  1  0
 11 13  2  0
 13 14  1  0
 13 15  1  0
 15 16  1  0
 16 17  2  0
 17 18  1  0
 18 19  1  0
 19 20  1  0
 19 21  1  0
 19 22  1  0
 22 23  2  0
 23 24  1  0
 23 25  1  0
 25 26  1  0
 25 27  2  0
 27 28  1  0
 27 29  1  0
 29 30  1  0
 29 31  2  0
 31 32  1  0
 18 33  1  0
  4 34  1  0
 34 35  1  0
 34 36  2  0
 36 37  1  0
 36 38  1  0
 38 39  1  0
 38  2  2  0
 33  8  1  0
 33 15  2  0
 31 22  1  0
M  CHG  1   3  -1
M  END
>  <UniqueID>  (13) 
12

>  <SMILES>  (13) 
O=C(/N=c1/cccc[n-]1)c1cccc2nnn(Cc3ccc(F)cc3Cl)c12

>  <Energy>  (13) 
101.23693913749622

>  <Genealogy>  (13) 
O=C(N=c1cccc[n-]1)c1cccc2nnn(Cc3ccc(F)cc3Cl)c12 (protonated)
O=C(/N=c1/cccc[n-]1)c1cccc2nnn(Cc3ccc(F)cc3Cl)c12 (cis-trans isomerization)
O=C(/N=c1/cccc[n-]1)c1cccc2nnn(Cc3ccc(F)cc3Cl)c12 (3D coordinates assigned)
O=C(/N=c1/cccc[n-]1)c1cccc2nnn(Cc3ccc(F)cc3Cl)c12 (optimized conformer: 101.23693913749622 kcal/mol)

>  <smiles>  (13) 
O=C(N=c1cccc[nH]1)c1cccc2nnn(Cc3ccc(F)cc3Cl)c12

>  <score_type>  (13) 
oracle

>  <origin>  (13) 
adg

>  <m_score__min__energy>  (13) 
-10.18

>  <m_primary>  (13) 
energy

$$$$
13:0
     RDKit          3D

 27 27  0  0  1  0  0  0  0  0999 V2000
   55.8410   29.3910   42.4300 O   0  0  0  0  0  0  0  0  0  0  0  0
   56.6160   29.8870   43.4480 N   0  0  0  0  0  0  0  0  0  0  0  0
   56.7380   29.2820   44.5790 C   0  0  0  0  0  0  0  0  0  0  0  0
   55.5350   28.7870   45.1240 O   0  0  0  0  0  0  0  0  0  0  0  0
   57.9750   29.0740   45.3160 C   0  0  1  0  0  0  0  0  0  0  0  0
   58.6800   27.7700   45.0340 C   0  0  0  0  0  0  0  0  0  0  0  0
   58.1060   27.0630   43.4520 S   0  0  0  0  0  0  0  0  0  0  0  0
   58.9190   30.2240   45.3290 C   0  0  0  0  0  0  0  0  0  0  0  0
   58.4190   31.5620   45.4940 C   0  0  0  0  0  0  0  0  0  0  0  0
   58.1760   32.1560   46.7140 C   0  0  0  0  0  0  0  0  0  0  0  0
   57.6920   33.4480   46.8430 C   0  0  0  0  0  0  0  0  0  0  0  0
   57.4240   34.2120   45.7290 C   0  0  0  0  0  0  0  0  0  0  0  0
   57.6550   33.6460   44.5030 C   0  0  0  0  0  0  0  0  0  0  0  0
   58.1390   32.3610   44.3760 C   0  0  0  0  0  0  0  0  0  0  0  0
   55.1720   28.6610   42.6450 H   0  0  0  0  0  0  0  0  0  0  0  0
   54.7650   28.5790   44.5090 H   0  0  0  0  0  0  0  0  0  0  0  0
   57.5968   28.9962   46.3460 H   0  0  0  0  0  0  0  0  0  0  0  0
   59.7639   27.9490   44.9786 H   0  0  0  0  0  0  0  0  0  0  0  0
   58.4541   27.0607   45.8438 H   0  0  0  0  0  0  0  0  0  0  0  0
   56.9080   27.7280   43.1130 H   0  0  0  0  0  0  0  0  0  0  0  0
   59.6261   30.0453   46.1525 H   0  0  0  0  0  0  0  0  0  0  0  0
   59.3250   30.2298   44.3067 H   0  0  0  0  0  0  0  0  0  0  0  0
   58.3756   31.5773   47.6279 H   0  0  0  0  0  0  0  0  0  0  0  0
   57.5201   33.8676   47.8452 H   0  0  0  0  0  0  0  0  0  0  0  0
   57.0389   35.2383   45.8202 H   0  0  0  0  0  0  0  0  0  0  0  0
   57.4488   34.2324   43.5954 H   0  0  0  0  0  0  0  0  0  0  0  0
   58.3102   31.9512   43.3696 H   0  0  0  0  0  0  0  0  0  0  0  0
  1  2  1  0
  2  3  2  0
  3  4  1  0
  3  5  1  0
  5  6  1  0
  6  7  1  0
  5  8  1  0
  8  9  1  0
  9 10  2  0
 10 11  1  0
 11 12  2  0
 12 13  1  0
 13 14  2  0
 14  9  1  0
  1 15  1  0
  4 16  1  0
  5 17  1  1
  6 18  1  0
  6 19  1  0
  7 20  1  0
  8 21  1  0
  8 22  1  0
 10 23  1  0
 11 24  1  0
 12 25  1  0
 13 26  1  0
 14 27  1  0
M  END
>  <smiles>  (14) 
ON=C(O)C(CS)Cc1ccccc1

>  <score_type>  (14) 
oracle

>  <origin>  (14) 
adg

>  <m_score__min__energy>  (14) 
-7.6799999999999997

>  <m_primary>  (14) 
energy

$$$$
14:0
     RDKit          3D

 52 55  0  0  0  0  0  0  0  0999 V2000
   57.4910   31.1000   43.3600 C   0  0  0  0  0  0  0  0  0  0  0  0
   56.8300   30.1100   44.2730 C   0  0  0  0  0  0  0  0  0  0  0  0
   55.5930   30.2310   44.4950 O   0  0  0  0  0  0  0  0  0  0  0  0
   57.5900   29.0050   44.9150 C   0  0  0  0  0  0  0  0  0  0  0  0
   57.6730   27.7310   44.3180 C   0  0  0  0  0  0  0  0  0  0  0  0
   58.4040   26.7090   44.9280 C   0  0  0  0  0  0  0  0  0  0  0  0
   59.0490   26.9350   46.1450 C   0  0  0  0  0  0  0  0  0  0  0  0
   58.9500   28.1860   46.7750 C   0  0  0  0  0  0  0  0  0  0  0  0
   59.6470   28.4660   47.9990 N   0  0  0  0  0  0  0  0  0  0  0  0
   60.3460   29.5330   48.2650 C   0  0  0  0  0  0  0  0  0  0  0  0
   61.1710   30.4820   47.1380 S   0  0  0  0  0  0  0  0  0  0  0  0
   61.7560   31.5500   48.3020 C   0  0  0  0  0  0  0  0  0  0  0  0
   62.6560   32.7100   48.0090 C   0  0  0  0  0  0  0  0  0  0  0  0
   62.2590   33.8950   48.8300 C   0  0  0  0  0  0  0  0  0  0  0  0
   63.0280   34.3050   49.7390 O   0  0  0  0  0  0  0  0  0  0  0  0
   61.0440   34.5880   48.5250 N   0  0  0  0  0  0  0  0  0  0  0  0
   60.0210   34.1880   47.5980 C   0  0  0  0  0  0  0  0  0  0  0  0
   59.9960   34.6370   46.2640 C   0  0  0  0  0  0  0  0  0  0  0  0
   58.9660   34.2410   45.4050 C   0  0  0  0  0  0  0  0  0  0  0  0
   57.9490   33.4030   45.8690 C   0  0  0  0  0  0  0  0  0  0  0  0
   57.9520   32.9730   47.1990 C   0  0  0  0  0  0  0  0  0  0  0  0
   58.9790   33.3690   48.0610 C   0  0  0  0  0  0  0  0  0  0  0  0
   61.3130   31.1140   49.5560 C   0  0  0  0  0  0  0  0  0  0  0  0
   61.6280   31.7600   50.7520 O   0  0  0  0  0  0  0  0  0  0  0  0
   60.5360   29.9920   49.5290 N   0  0  0  0  0  0  0  0  0  0  0  0
   59.8980   29.4140   50.7170 C   0  0  0  0  0  0  0  0  0  0  0  0
   58.7280   30.2530   51.1190 C   0  0  0  0  0  0  0  0  0  0  0  0
   58.7240   31.6290   51.2470 C   0  0  0  0  0  0  0  0  0  0  0  0
   57.4320   31.9650   51.5800 C   0  0  0  0  0  0  0  0  0  0  0  0
   56.7270   30.7780   51.6320 C   0  0  0  0  0  0  0  0  0  0  0  0
   57.5270   29.7750   51.3510 O   0  0  0  0  0  0  0  0  0  0  0  0
   58.2490   29.2210   46.1420 C   0  0  0  0  0  0  0  0  0  0  0  0
   58.0030   31.8669   43.9598 H   0  0  0  0  0  0  0  0  0  0  0  0
   58.2243   30.5808   42.7254 H   0  0  0  0  0  0  0  0  0  0  0  0
   56.7304   31.5782   42.7254 H   0  0  0  0  0  0  0  0  0  0  0  0
   57.1584   27.5401   43.3647 H   0  0  0  0  0  0  0  0  0  0  0  0
   58.4716   25.7219   44.4473 H   0  0  0  0  0  0  0  0  0  0  0  0
   59.6366   26.1308   46.6119 H   0  0  0  0  0  0  0  0  0  0  0  0
   63.6935   32.4338   48.2483 H   0  0  0  0  0  0  0  0  0  0  0  0
   62.5712   32.9685   46.9432 H   0  0  0  0  0  0  0  0  0  0  0  0
   60.7905   35.3026   45.8955 H   0  0  0  0  0  0  0  0  0  0  0  0
   58.9565   34.5900   44.3619 H   0  0  0  0  0  0  0  0  0  0  0  0
   57.1467   33.0819   45.1884 H   0  0  0  0  0  0  0  0  0  0  0  0
   57.1454   32.3223   47.5678 H   0  0  0  0  0  0  0  0  0  0  0  0
   58.9705   33.0365   49.1095 H   0  0  0  0  0  0  0  0  0  0  0  0
   61.9870   32.7050   50.7790 H   0  0  0  0  0  0  0  0  0  0  0  0
   59.5552   28.3941   50.4883 H   0  0  0  0  0  0  0  0  0  0  0  0
   60.6248   29.3831   51.5421 H   0  0  0  0  0  0  0  0  0  0  0  0
   59.5752   32.3123   51.1111 H   0  0  0  0  0  0  0  0  0  0  0  0
   57.0394   32.9754   51.7672 H   0  0  0  0  0  0  0  0  0  0  0  0
   55.6575   30.6868   51.8724 H   0  0  0  0  0  0  0  0  0  0  0  0
   58.2125   30.2161   46.6093 H   0  0  0  0  0  0  0  0  0  0  0  0
  1  2  1  0
  2  3  2  0
  2  4  1  0
  4  5  2  0
  5  6  1  0
  6  7  2  0
  7  8  1  0
  8  9  1  0
  9 10  2  3
 10 11  1  0
 11 12  1  0
 12 13  1  0
 13 14  1  0
 14 15  2  0
 14 16  1  0
 16 17  1  0
 17 18  2  0
 18 19  1  0
 19 20  2  0
 20 21  1  0
 21 22  2  0
 12 23  2  0
 23 24  1  0
 23 25  1  0
 25 26  1  0
 26 27  1  0
 27 28  2  0
 28 29  1  0
 29 30  2  0
 30 31  1  0
  8 32  2  0
 32  4  1  0
 25 10  1  0
 31 27  1  0
 22 17  1  0
  1 33  1  0
  1 34  1  0
  1 35  1  0
  5 36  1  0
  6 37  1  0
  7 38  1  0
 13 39  1  0
 13 40  1  0
 18 41  1  0
 19 42  1  0
 20 43  1  0
 21 44  1  0
 22 45  1  0
 24 46  1  0
 26 47  1  0
 26 48  1  0
 28 49  1  0
 29 50  1  0
 30 51  1  0
 32 52  1  0
M  CHG  1  16  -1
M  END
>  <UniqueID>  (15) 
13

>  <SMILES>  (15) 
CC(=O)c1cccc(N=c2sc(CC(=O)[N-]c3ccccc3)c(O)n2Cc2ccco2)c1

>  <Energy>  (15) 
120.15162741319661

>  <Genealogy>  (15) 
CC(=O)c1cccc(N=c2sc(CC(=O)[N-]c3ccccc3)c(O)n2Cc2ccco2)c1 (protonated)
CC(=O)c1cccc(N=c2sc(CC(=O)[N-]c3ccccc3)c(O)n2Cc2ccco2)c1 (3D coordinates assigned)
CC(=O)c1cccc(N=c2sc(CC(=O)[N-]c3ccccc3)c(O)n2Cc2ccco2)c1 (optimized conformer: 120.15162741319661 kcal/mol)

>  <smiles>  (15) 
CC(=O)c1cccc(N=c2sc(CC(=O)Nc3ccccc3)c(O)n2Cc2ccco2)c1

>  <score_type>  (15) 
oracle

>  <origin>  (15) 
adg

>  <m_score__min__energy>  (15) 
-10.720000000000001

>  <m_primary>  (15) 
energy

$$$$
15:0
     RDKit          3D

 43 45  0  0  0  0  0  0  0  0999 V2000
   58.1940   33.4050   46.2670 C   0  0  0  0  0  0  0  0  0  0  0  0
   59.3560   32.6710   45.9000 O   0  0  0  0  0  0  0  0  0  0  0  0
   60.5630   32.6730   46.6180 C   0  0  0  0  0  0  0  0  0  0  0  0
   61.2930   33.8580   46.8310 C   0  0  0  0  0  0  0  0  0  0  0  0
   62.4730   33.8400   47.5770 C   0  0  0  0  0  0  0  0  0  0  0  0
   62.9390   32.6440   48.1340 C   0  0  0  0  0  0  0  0  0  0  0  0
   64.2280   32.6180   48.9030 C   0  0  0  0  0  0  0  0  0  0  0  0
   62.2300   31.4560   47.9060 C   0  0  0  0  0  0  0  0  0  0  0  0
   61.0450   31.4590   47.1520 C   0  0  0  0  0  0  0  0  0  0  0  0
   60.3370   30.2230   46.9300 N   0  0  0  0  0  0  0  0  0  0  0  0
   59.4940   29.6470   47.9850 C   0  0  0  0  0  0  0  0  0  0  0  0
   58.2840   28.9540   47.3540 C   0  0  0  0  0  0  0  0  0  0  0  0
   58.6870   27.8940   46.4000 N   0  0  0  0  0  0  0  0  0  0  0  0
   57.5950   27.4980   45.4850 C   0  0  0  0  0  0  0  0  0  0  0  0
   56.9780   28.6660   44.7610 C   0  0  0  0  0  0  0  0  0  0  0  0
   57.6270   29.5070   43.8780 C   0  0  0  0  0  0  0  0  0  0  0  0
   56.6830   30.4280   43.4810 C   0  0  0  0  0  0  0  0  0  0  0  0
   55.5190   30.0920   44.1410 C   0  0  0  0  0  0  0  0  0  0  0  0
   55.7270   29.0370   44.8950 O   0  0  0  0  0  0  0  0  0  0  0  0
   59.9950   28.0950   45.7270 C   0  0  0  0  0  0  0  0  0  0  0  0
   60.3860   29.5750   45.6130 C   0  0  0  0  0  0  0  0  0  0  0  0
   58.1207   33.4513   47.3636 H   0  0  0  0  0  0  0  0  0  0  0  0
   58.2610   34.4250   45.8606 H   0  0  0  0  0  0  0  0  0  0  0  0
   57.3017   32.9063   45.8606 H   0  0  0  0  0  0  0  0  0  0  0  0
   60.9306   34.8057   46.4062 H   0  0  0  0  0  0  0  0  0  0  0  0
   63.0393   34.7709   47.7277 H   0  0  0  0  0  0  0  0  0  0  0  0
   64.0117   32.6224   49.9815 H   0  0  0  0  0  0  0  0  0  0  0  0
   64.7903   31.7083   48.6455 H   0  0  0  0  0  0  0  0  0  0  0  0
   64.8265   33.5043   48.6455 H   0  0  0  0  0  0  0  0  0  0  0  0
   62.6064   30.5101   48.3227 H   0  0  0  0  0  0  0  0  0  0  0  0
   60.0776   28.9130   48.5601 H   0  0  0  0  0  0  0  0  0  0  0  0
   59.1481   30.4483   48.6546 H   0  0  0  0  0  0  0  0  0  0  0  0
   57.6775   28.5015   48.1524 H   0  0  0  0  0  0  0  0  0  0  0  0
   57.7101   29.7106   46.7990 H   0  0  0  0  0  0  0  0  0  0  0  0
   57.9997   26.7980   44.7392 H   0  0  0  0  0  0  0  0  0  0  0  0
   56.8055   27.0370   46.0967 H   0  0  0  0  0  0  0  0  0  0  0  0
   58.6782   29.4525   43.5586 H   0  0  0  0  0  0  0  0  0  0  0  0
   56.8279   31.2628   42.7795 H   0  0  0  0  0  0  0  0  0  0  0  0
   54.5620   30.6266   44.0496 H   0  0  0  0  0  0  0  0  0  0  0  0
   60.7709   27.5702   46.3037 H   0  0  0  0  0  0  0  0  0  0  0  0
   59.9055   27.6972   44.7054 H   0  0  0  0  0  0  0  0  0  0  0  0
   61.4070   29.6497   45.2106 H   0  0  0  0  0  0  0  0  0  0  0  0
   59.6758   30.0798   44.9416 H   0  0  0  0  0  0  0  0  0  0  0  0
  1  2  1  0
  2  3  1  0
  3  4  2  0
  4  5  1  0
  5  6  2  0
  6  7  1  0
  6  8  1  0
  8  9  2  0
  9 10  1  0
 10 11  1  0
 11 12  1  0
 12 13  1  0
 13 14  1  0
 14 15  1  0
 15 16  2  0
 16 17  1  0
 17 18  2  0
 18 19  1  0
 13 20  1  0
 20 21  1  0
  9  3  1  0
 21 10  1  0
 19 15  1  0
  1 22  1  0
  1 23  1  0
  1 24  1  0
  4 25  1  0
  5 26  1  0
  7 27  1  0
  7 28  1  0
  7 29  1  0
  8 30  1  0
 11 31  1  0
 11 32  1  0
 12 33  1  0
 12 34  1  0
 14 35  1  0
 14 36  1  0
 16 37  1  0
 17 38  1  0
 18 39  1  0
 20 40  1  0
 20 41  1  0
 21 42  1  0
 21 43  1  0
M  END
>  <UniqueID>  (16) 
14

>  <SMILES>  (16) 
COc1ccc(C)cc1N1CCN(Cc2ccco2)CC1

>  <Energy>  (16) 
80.62561359508192

>  <Genealogy>  (16) 
COc1ccc(C)cc1N1CCN(Cc2ccco2)CC1 (3D coordinates assigned)
COc1ccc(C)cc1N1CCN(Cc2ccco2)CC1 (nonaromatic ring conformer: 80.62561359508192 kcal/mol)

>  <smiles>  (16) 
COc1ccc(C)cc1N1CCN(Cc2ccco2)CC1

>  <score_type>  (16) 
oracle

>  <origin>  (16) 
adg

>  <m_score__min__energy>  (16) 
-6.9900000000000002

>  <m_primary>  (16) 
energy

$$$$
16:0
     RDKit          3D

 30 31  0  0  0  0  0  0  0  0999 V2000
   55.3100   24.0660   45.8720 C   0  0  0  0  0  0  0  0  0  0  0  0
   55.8350   25.1580   46.6180 O   0  0  0  0  0  0  0  0  0  0  0  0
   56.7900   26.0650   46.1330 C   0  0  0  0  0  0  0  0  0  0  0  0
   58.1370   25.6920   46.1730 C   0  0  0  0  0  0  0  0  0  0  0  0
   59.1240   26.5540   45.6940 C   0  0  0  0  0  0  0  0  0  0  0  0
   58.7750   27.8030   45.1770 C   0  0  0  0  0  0  0  0  0  0  0  0
   57.4300   28.2080   45.1390 C   0  0  0  0  0  0  0  0  0  0  0  0
   57.0740   29.5350   44.5830 C   0  0  0  0  0  0  0  0  0  0  0  0
   55.9570   30.0470   44.8730 O   0  0  0  0  0  0  0  0  0  0  0  0
   57.9700   30.2400   43.7050 N   0  0  0  0  0  0  0  0  0  0  0  0
   57.6860   31.5880   43.2230 C   0  0  0  0  0  0  0  0  0  0  0  0
   57.7420   32.5620   44.3570 C   0  0  0  0  0  0  0  0  0  0  0  0
   58.5820   33.6540   44.4470 C   0  0  0  0  0  0  0  0  0  0  0  0
   58.2960   34.2410   45.6600 C   0  0  0  0  0  0  0  0  0  0  0  0
   57.3040   33.4730   46.2340 C   0  0  0  0  0  0  0  0  0  0  0  0
   56.9960   32.4780   45.4340 O   0  0  0  0  0  0  0  0  0  0  0  0
   56.4380   27.3260   45.6110 C   0  0  0  0  0  0  0  0  0  0  0  0
   54.9391   23.2946   46.5629 H   0  0  0  0  0  0  0  0  0  0  0  0
   54.4831   24.4188   45.2382 H   0  0  0  0  0  0  0  0  0  0  0  0
   56.1020   23.6405   45.2382 H   0  0  0  0  0  0  0  0  0  0  0  0
   58.4205   24.7122   46.5849 H   0  0  0  0  0  0  0  0  0  0  0  0
   60.1803   26.2486   45.7238 H   0  0  0  0  0  0  0  0  0  0  0  0
   59.5585   28.4749   44.7967 H   0  0  0  0  0  0  0  0  0  0  0  0
   58.8260   29.7660   43.3430 H   0  0  0  0  0  0  0  0  0  0  0  0
   58.4327   31.8683   42.4655 H   0  0  0  0  0  0  0  0  0  0  0  0
   56.6789   31.6075   42.7811 H   0  0  0  0  0  0  0  0  0  0  0  0
   59.3239   33.9857   43.7057 H   0  0  0  0  0  0  0  0  0  0  0  0
   58.7643   35.1409   46.0853 H   0  0  0  0  0  0  0  0  0  0  0  0
   56.8412   33.6649   47.2133 H   0  0  0  0  0  0  0  0  0  0  0  0
   55.3799   27.6240   45.5718 H   0  0  0  0  0  0  0  0  0  0  0  0
  1  2  1  0
  2  3  1  0
  3  4  2  0
  4  5  1  0
  5  6  2  0
  6  7  1  0
  7  8  1  0
  8  9  2  0
  8 10  1  0
 10 11  1  0
 11 12  1  0
 12 13  2  0
 13 14  1  0
 14 15  2  0
 15 16  1  0
  7 17  2  0
 17  3  1  0
 16 12  1  0
  1 18  1  0
  1 19  1  0
  1 20  1  0
  4 21  1  0
  5 22  1  0
  6 23  1  0
 10 24  1  0
 11 25  1  0
 11 26  1  0
 13 27  1  0
 14 28  1  0
 15 29  1  0
 17 30  1  0
M  END
>  <UniqueID>  (17) 
15

>  <SMILES>  (17) 
COc1cccc(C(=O)NCc2ccco2)c1

>  <Energy>  (17) 
55.08141534093045

>  <Genealogy>  (17) 
COc1cccc(C(=O)NCc2ccco2)c1 (3D coordinates assigned)
COc1cccc(C(=O)NCc2ccco2)c1 (optimized conformer: 55.08141534093045 kcal/mol)

>  <smiles>  (17) 
COc1cccc(C(=O)NCc2ccco2)c1

>  <score_type>  (17) 
oracle

>  <origin>  (17) 
adg

>  <m_score__min__energy>  (17) 
-6.4400000000000004

>  <m_primary>  (17) 
energy

$$$$
17:0
     RDKit          3D

 51 53  0  0  0  0  0  0  0  0999 V2000
   67.2730   33.1210   50.4080 C   0  0  0  0  0  0  0  0  0  0  0  0
   66.2820   31.9620   50.4450 C   0  0  0  0  0  0  0  0  0  0  0  0
   65.1640   32.2230   49.5980 O   0  0  0  0  0  0  0  0  0  0  0  0
   64.2160   33.2220   49.8560 C   0  0  0  0  0  0  0  0  0  0  0  0
   64.0280   33.6260   51.0370 O   0  0  0  0  0  0  0  0  0  0  0  0
   63.4710   33.8690   48.7070 C   0  0  2  0  0  0  0  0  0  0  0  0
   61.9860   34.1110   49.0420 C   0  0  0  0  0  0  0  0  0  0  0  0
   61.1880   32.7890   49.0660 C   0  0  0  0  0  0  0  0  0  0  0  0
   61.3020   32.0440   47.7820 N   0  0  1  0  0  0  0  0  0  0  0  0
   60.6120   32.7240   46.6820 C   0  0  0  0  0  0  0  0  0  0  0  0
   61.2360   33.4720   45.9400 O   0  0  0  0  0  0  0  0  0  0  0  0
   59.1050   32.7100   46.5170 C   0  0  0  0  0  0  0  0  0  0  0  0
   58.6320   31.3420   46.2410 N   0  0  0  0  0  0  0  0  0  0  0  0
   58.6340   30.3780   47.3180 C   0  0  0  0  0  0  0  0  0  0  0  0
   59.0400   30.6980   48.4720 O   0  0  0  0  0  0  0  0  0  0  0  0
   58.2360   28.9560   47.0580 C   0  0  0  0  0  0  0  0  0  0  0  0
   57.3060   28.8640   45.9820 O   0  0  0  0  0  0  0  0  0  0  0  0
   57.3280   29.7380   44.8910 C   0  0  0  0  0  0  0  0  0  0  0  0
   56.6590   29.3780   43.7200 C   0  0  0  0  0  0  0  0  0  0  0  0
   56.6720   30.2250   42.6130 C   0  0  0  0  0  0  0  0  0  0  0  0
   57.3610   31.4440   42.6650 C   0  0  0  0  0  0  0  0  0  0  0  0
   57.3690   32.3530   41.4730 C   0  0  0  0  0  0  0  0  0  0  0  0
   58.0100   31.8220   43.8510 C   0  0  0  0  0  0  0  0  0  0  0  0
   58.0000   30.9750   44.9820 C   0  0  0  0  0  0  0  0  0  0  0  0
   62.7330   31.7500   47.5180 C   0  0  0  0  0  0  0  0  0  0  0  0
   63.5730   33.0350   47.4100 C   0  0  0  0  0  0  0  0  0  0  0  0
   67.5276   33.4187   51.4359 H   0  0  0  0  0  0  0  0  0  0  0  0
   68.1857   32.8064   49.8807 H   0  0  0  0  0  0  0  0  0  0  0  0
   66.8204   33.9737   49.8807 H   0  0  0  0  0  0  0  0  0  0  0  0
   66.7862   31.0456   50.1043 H   0  0  0  0  0  0  0  0  0  0  0  0
   65.9211   31.8400   51.4769 H   0  0  0  0  0  0  0  0  0  0  0  0
   63.9580   34.8416   48.5428 H   0  0  0  0  0  0  0  0  0  0  0  0
   61.9159   34.5887   50.0304 H   0  0  0  0  0  0  0  0  0  0  0  0
   61.5576   34.7584   48.2626 H   0  0  0  0  0  0  0  0  0  0  0  0
   61.5738   32.1563   49.8789 H   0  0  0  0  0  0  0  0  0  0  0  0
   60.1274   33.0357   49.2221 H   0  0  0  0  0  0  0  0  0  0  0  0
   60.8070   31.1290   47.9170 H   0  0  0  0  0  0  0  0  0  0  0  0
   58.6355   33.0763   47.4419 H   0  0  0  0  0  0  0  0  0  0  0  0
   58.8321   33.3595   45.6722 H   0  0  0  0  0  0  0  0  0  0  0  0
   59.1343   28.3736   46.8053 H   0  0  0  0  0  0  0  0  0  0  0  0
   57.7559   28.5599   47.9650 H   0  0  0  0  0  0  0  0  0  0  0  0
   56.1188   28.4211   43.6705 H   0  0  0  0  0  0  0  0  0  0  0  0
   56.1394   29.9354   41.6952 H   0  0  0  0  0  0  0  0  0  0  0  0
   57.3782   33.4000   41.8103 H   0  0  0  0  0  0  0  0  0  0  0  0
   58.2654   32.1551   40.8670 H   0  0  0  0  0  0  0  0  0  0  0  0
   56.4692   32.1709   40.8670 H   0  0  0  0  0  0  0  0  0  0  0  0
   58.5324   32.7888   43.9005 H   0  0  0  0  0  0  0  0  0  0  0  0
   63.1274   31.1356   48.3408 H   0  0  0  0  0  0  0  0  0  0  0  0
   62.7999   31.2176   46.5578 H   0  0  0  0  0  0  0  0  0  0  0  0
   64.6251   32.7644   47.2372 H   0  0  0  0  0  0  0  0  0  0  0  0
   63.1896   33.6371   46.5730 H   0  0  0  0  0  0  0  0  0  0  0  0
  1  2  1  0
  2  3  1  0
  3  4  1  0
  4  5  2  0
  4  6  1  0
  6  7  1  0
  7  8  1  0
  8  9  1  0
  9 10  1  0
 10 11  2  0
 10 12  1  0
 12 13  1  0
 13 14  1  0
 14 15  2  0
 14 16  1  0
 16 17  1  0
 17 18  1  0
 18 19  2  0
 19 20  1  0
 20 21  2  0
 21 22  1  0
 21 23  1  0
 23 24  2  0
  9 25  1  0
 25 26  1  0
 26  6  1  0
 24 13  1  0
 24 18  1  0
  1 27  1  0
  1 28  1  0
  1 29  1  0
  2 30  1  0
  2 31  1  0
  6 32  1  6
  7 33  1  0
  7 34  1  0
  8 35  1  0
  8 36  1  0
  9 37  1  1
 12 38  1  0
 12 39  1  0
 16 40  1  0
 16 41  1  0
 19 42  1  0
 20 43  1  0
 22 44  1  0
 22 45  1  0
 22 46  1  0
 23 47  1  0
 25 48  1  0
 25 49  1  0
 26 50  1  0
 26 51  1  0
M  CHG  1   9   1
M  END
>  <UniqueID>  (18) 
16

>  <SMILES>  (18) 
CCOC(=O)C1CC[NH+](C(=O)CN2C(=O)COc3ccc(C)cc32)CC1

>  <Energy>  (18) 
60.3991001364987

>  <Genealogy>  (18) 
CCOC(=O)C1CC[NH+](C(=O)CN2C(=O)COc3ccc(C)cc32)CC1 (protonated)
CCOC(=O)C1CC[NH+](C(=O)CN2C(=O)COc3ccc(C)cc32)CC1 (3D coordinates assigned)
CCOC(=O)C1CC[NH+](C(=O)CN2C(=O)COc3ccc(C)cc32)CC1 (nonaromatic ring conformer: 60.3991001364987 kcal/mol)

>  <smiles>  (18) 
CCOC(=O)C1CCN(C(=O)CN2C(=O)COc3ccc(C)cc32)CC1

>  <score_type>  (18) 
oracle

>  <origin>  (18) 
adg

>  <m_score__min__energy>  (18) 
-5.9699999999999998

>  <m_primary>  (18) 
energy

$$$$
18:0
     RDKit          3D

 37 39  0  0  0  0  0  0  0  0999 V2000
   56.6000   23.2030   43.2920 C   0  0  0  0  0  0  0  0  0  0  0  0
   57.5150   23.9170   44.2420 C   0  0  0  0  0  0  0  0  0  0  0  0
   58.3470   23.2330   44.8980 O   0  0  0  0  0  0  0  0  0  0  0  0
   57.4640   25.3920   44.4240 C   0  0  0  0  0  0  0  0  0  0  0  0
   57.0650   25.9670   45.6450 C   0  0  0  0  0  0  0  0  0  0  0  0
   57.0230   27.3550   45.8010 C   0  0  0  0  0  0  0  0  0  0  0  0
   57.3810   28.2070   44.7410 C   0  0  0  0  0  0  0  0  0  0  0  0
   57.3410   29.6420   44.8840 N   0  0  0  0  0  0  0  0  0  0  0  0
   58.2870   30.4510   45.4100 C   0  0  0  0  0  0  0  0  0  0  0  0
   57.8020   31.7440   45.3190 C   0  0  0  0  0  0  0  0  0  0  0  0
   58.4730   32.9920   45.7610 C   0  0  0  0  0  0  0  0  0  0  0  0
   58.6590   34.0610   44.8660 C   0  0  0  0  0  0  0  0  0  0  0  0
   59.2840   35.2370   45.2870 C   0  0  0  0  0  0  0  0  0  0  0  0
   59.7360   35.3620   46.6020 C   0  0  0  0  0  0  0  0  0  0  0  0
   59.5780   34.3020   47.5040 C   0  0  0  0  0  0  0  0  0  0  0  0
   60.0240   34.4500   48.9290 C   0  0  0  0  0  0  0  0  0  0  0  0
   58.9330   33.1270   47.0850 C   0  0  0  0  0  0  0  0  0  0  0  0
   56.5840   31.6700   44.7440 N   0  0  0  0  0  0  0  0  0  0  0  0
   56.3270   30.3980   44.4900 N   0  0  0  0  0  0  0  0  0  0  0  0
   57.7760   27.6330   43.5200 C   0  0  0  0  0  0  0  0  0  0  0  0
   57.8190   26.2450   43.3640 C   0  0  0  0  0  0  0  0  0  0  0  0
   55.8584   22.6243   43.8623 H   0  0  0  0  0  0  0  0  0  0  0  0
   56.0827   23.9386   42.6585 H   0  0  0  0  0  0  0  0  0  0  0  0
   57.1878   22.5224   42.6585 H   0  0  0  0  0  0  0  0  0  0  0  0
   56.7830   25.3165   46.4860 H   0  0  0  0  0  0  0  0  0  0  0  0
   56.7067   27.7855   46.7626 H   0  0  0  0  0  0  0  0  0  0  0  0
   59.2556   30.1416   45.8295 H   0  0  0  0  0  0  0  0  0  0  0  0
   58.3097   33.9702   43.8269 H   0  0  0  0  0  0  0  0  0  0  0  0
   59.4207   36.0681   44.5795 H   0  0  0  0  0  0  0  0  0  0  0  0
   60.2173   36.2950   46.9305 H   0  0  0  0  0  0  0  0  0  0  0  0
   59.1982   34.1760   49.6020 H   0  0  0  0  0  0  0  0  0  0  0  0
   60.8833   33.7888   49.1148 H   0  0  0  0  0  0  0  0  0  0  0  0
   60.3175   35.4937   49.1148 H   0  0  0  0  0  0  0  0  0  0  0  0
   58.7855   32.3032   47.7988 H   0  0  0  0  0  0  0  0  0  0  0  0
   55.9250   32.4510   44.5360 H   0  0  0  0  0  0  0  0  0  0  0  0
   58.0543   28.2838   42.6780 H   0  0  0  0  0  0  0  0  0  0  0  0
   58.1339   25.8151   42.4017 H   0  0  0  0  0  0  0  0  0  0  0  0
  1  2  1  0
  2  3  2  0
  2  4  1  0
  4  5  2  0
  5  6  1  0
  6  7  2  0
  7  8  1  0
  8  9  1  0
  9 10  2  0
 10 11  1  0
 11 12  2  0
 12 13  1  0
 13 14  2  0
 14 15  1  0
 15 16  1  0
 15 17  2  0
 10 18  1  0
 18 19  2  0
  7 20  1  0
 20 21  2  0
 21  4  1  0
 19  8  1  0
 17 11  1  0
  1 22  1  0
  1 23  1  0
  1 24  1  0
  5 25  1  0
  6 26  1  0
  9 27  1  0
 12 28  1  0
 13 29  1  0
 14 30  1  0
 16 31  1  0
 16 32  1  0
 16 33  1  0
 17 34  1  0
 18 35  1  0
 20 36  1  0
 21 37  1  0
M  CHG  1  18   1
M  END
>  <UniqueID>  (19) 
17

>  <SMILES>  (19) 
CC(=O)c1ccc(-n2cc(-c3cccc(C)c3)[nH+]n2)cc1

>  <Energy>  (19) 
79.20053257908305

>  <Genealogy>  (19) 
CC(=O)c1ccc(-n2cc(-c3cccc(C)c3)[nH+]n2)cc1 (protonated)
CC(=O)c1ccc(-n2cc(-c3cccc(C)c3)[nH+]n2)cc1 (3D coordinates assigned)
CC(=O)c1ccc(-n2cc(-c3cccc(C)c3)[nH+]n2)cc1 (optimized conformer: 79.20053257908305 kcal/mol)

>  <smiles>  (19) 
CC(=O)c1ccc(-n2cc(-c3cccc(C)c3)nn2)cc1

>  <score_type>  (19) 
oracle

>  <origin>  (19) 
adg

>  <m_score__min__energy>  (19) 
-6.4000000000000004

>  <m_primary>  (19) 
energy

$$$$
19:0
     RDKit          3D

 50 53  0  0  0  0  0  0  0  0999 V2000
   60.9230   30.6460   47.1950 C   0  0  0  0  0  0  0  0  0  0  0  0
   59.5880   31.2660   47.1880 N   0  0  0  0  0  0  0  0  0  0  0  0
   58.5270   30.2520   46.9300 C   0  0  0  0  0  0  0  0  0  0  0  0
   58.0110   30.2780   45.5140 C   0  0  0  0  0  0  0  0  0  0  0  0
   57.6390   29.1000   44.8470 C   0  0  0  0  0  0  0  0  0  0  0  0
   57.0840   29.1680   43.5650 C   0  0  0  0  0  0  0  0  0  0  0  0
   56.8820   30.4100   42.9540 C   0  0  0  0  0  0  0  0  0  0  0  0
   57.2360   31.5870   43.6210 C   0  0  0  0  0  0  0  0  0  0  0  0
   57.8050   31.5190   44.9010 C   0  0  0  0  0  0  0  0  0  0  0  0
   58.2060   32.7470   45.6560 C   0  0  0  0  0  0  0  0  0  0  0  0
   59.5690   32.4850   46.3280 C   0  0  1  0  0  0  0  0  0  0  0  0
   59.9940   33.6980   47.1230 C   0  0  0  0  0  0  0  0  0  0  0  0
   59.1650   34.6370   47.2760 O   0  0  0  0  0  0  0  0  0  0  0  0
   61.2890   33.7890   47.7530 N   0  0  0  0  0  0  0  0  0  0  0  0
   62.4930   33.3050   47.0560 C   0  0  0  0  0  0  0  0  0  0  0  0
   63.7700   33.6930   47.8050 C   0  0  0  0  0  0  0  0  0  0  0  0
   63.6110   33.3820   49.2300 N   0  0  0  0  0  0  0  0  0  0  0  0
   64.5530   32.5300   49.9080 C   0  0  0  0  0  0  0  0  0  0  0  0
   65.9310   32.8060   49.8520 C   0  0  0  0  0  0  0  0  0  0  0  0
   66.8470   31.9690   50.4980 C   0  0  0  0  0  0  0  0  0  0  0  0
   66.3960   30.8480   51.2010 C   0  0  0  0  0  0  0  0  0  0  0  0
   67.2850   30.0370   51.8260 F   0  0  0  0  0  0  0  0  0  0  0  0
   65.0290   30.5620   51.2560 C   0  0  0  0  0  0  0  0  0  0  0  0
   64.1110   31.3960   50.6110 C   0  0  0  0  0  0  0  0  0  0  0  0
   62.4190   33.8590   49.9480 C   0  0  0  0  0  0  0  0  0  0  0  0
   61.4260   34.5510   49.0040 C   0  0  0  0  0  0  0  0  0  0  0  0
   61.2511   30.4936   48.2338 H   0  0  0  0  0  0  0  0  0  0  0  0
   60.8795   29.6759   46.6782 H   0  0  0  0  0  0  0  0  0  0  0  0
   61.6361   31.3051   46.6782 H   0  0  0  0  0  0  0  0  0  0  0  0
   58.9414   29.2534   47.1326 H   0  0  0  0  0  0  0  0  0  0  0  0
   57.6802   30.4904   47.5904 H   0  0  0  0  0  0  0  0  0  0  0  0
   57.7840   28.1237   45.3326 H   0  0  0  0  0  0  0  0  0  0  0  0
   56.8061   28.2440   43.0368 H   0  0  0  0  0  0  0  0  0  0  0  0
   56.4436   30.4610   41.9464 H   0  0  0  0  0  0  0  0  0  0  0  0
   57.0686   32.5635   43.1430 H   0  0  0  0  0  0  0  0  0  0  0  0
   58.2912   33.5972   44.9632 H   0  0  0  0  0  0  0  0  0  0  0  0
   57.4494   32.9846   46.4183 H   0  0  0  0  0  0  0  0  0  0  0  0
   60.2871   32.2958   45.5165 H   0  0  0  0  0  0  0  0  0  0  0  0
   62.4440   32.2089   46.9774 H   0  0  0  0  0  0  0  0  0  0  0  0
   62.5239   33.7686   46.0589 H   0  0  0  0  0  0  0  0  0  0  0  0
   64.6208   33.1267   47.3982 H   0  0  0  0  0  0  0  0  0  0  0  0
   63.9560   34.7701   47.6819 H   0  0  0  0  0  0  0  0  0  0  0  0
   66.2905   33.6851   49.2970 H   0  0  0  0  0  0  0  0  0  0  0  0
   67.9230   32.1931   50.4528 H   0  0  0  0  0  0  0  0  0  0  0  0
   64.6748   29.6789   51.8079 H   0  0  0  0  0  0  0  0  0  0  0  0
   63.0367   31.1634   50.6539 H   0  0  0  0  0  0  0  0  0  0  0  0
   61.9210   33.0003   50.4218 H   0  0  0  0  0  0  0  0  0  0  0  0
   62.7432   34.5920   50.7014 H   0  0  0  0  0  0  0  0  0  0  0  0
   60.4447   34.6180   49.4965 H   0  0  0  0  0  0  0  0  0  0  0  0
   61.8012   35.5579   48.7684 H   0  0  0  0  0  0  0  0  0  0  0  0
  1  2  1  0
  2  3  1  0
  3  4  1  0
  4  5  2  0
  5  6  1  0
  6  7  2  0
  7  8  1  0
  8  9  2  0
  9 10  1  0
 10 11  1  0
 11 12  1  0
 12 13  2  0
 12 14  1  0
 14 15  1  0
 15 16  1  0
 16 17  1  0
 17 18  1  0
 18 19  2  0
 19 20  1  0
 20 21  2  0
 21 22  1  0
 21 23  1  0
 23 24  2  0
 17 25  1  0
 25 26  1  0
 11  2  1  0
 26 14  1  0
  9  4  1  0
 24 18  1  0
  1 27  1  0
  1 28  1  0
  1 29  1  0
  3 30  1  0
  3 31  1  0
  5 32  1  0
  6 33  1  0
  7 34  1  0
  8 35  1  0
 10 36  1  0
 10 37  1  0
 11 38  1  6
 15 39  1  0
 15 40  1  0
 16 41  1  0
 16 42  1  0
 19 43  1  0
 20 44  1  0
 23 45  1  0
 24 46  1  0
 25 47  1  0
 25 48  1  0
 26 49  1  0
 26 50  1  0
M  END
>  <UniqueID>  (20) 
18

>  <SMILES>  (20) 
CN1Cc2ccccc2C[C@H]1C(=O)N1CCN(c2ccc(F)cc2)CC1

>  <Energy>  (20) 
69.27782339216509

>  <Genealogy>  (20) 
CN1Cc2ccccc2C[C@H]1C(=O)N1CCN(c2ccc(F)cc2)CC1 (chirality)
CN1Cc2ccccc2C[C@H]1C(=O)N1CCN(c2ccc(F)cc2)CC1 (3D coordinates assigned)
CN1Cc2ccccc2C[C@H]1C(=O)N1CCN(c2ccc(F)cc2)CC1 (nonaromatic ring conformer: 69.27782339216509 kcal/mol)

>  <smiles>  (20) 
CN1Cc2ccccc2CC1C(=O)N1CCN(c2ccc(F)cc2)CC1

>  <score_type>  (20) 
oracle

>  <origin>  (20) 
adg

>  <m_score__min__energy>  (20) 
-7.9400000000000004

>  <m_primary>  (20) 
energy

$$$$
20:0
     RDKit          3D

 39 41  0  0  0  0  0  0  0  0999 V2000
   65.8730   32.6990   49.7470 C   0  0  0  0  0  0  0  0  0  0  0  0
   64.6450   33.4230   50.0910 N   0  0  0  0  0  0  0  0  0  0  0  0
   64.5360   34.0980   51.3900 C   0  0  0  0  0  0  0  0  0  0  0  0
   63.5300   33.4860   49.1700 C   0  0  0  0  0  0  0  0  0  0  0  0
   62.3300   33.9630   49.6010 N   0  0  0  0  0  0  0  0  0  0  0  0
   61.2560   34.0400   48.7760 C   0  0  0  0  0  0  0  0  0  0  0  0
   61.3600   33.6250   47.4430 C   0  0  0  0  0  0  0  0  0  0  0  0
   60.2000   33.7020   46.5190 C   0  0  0  0  0  0  0  0  0  0  0  0
   59.6390   34.9040   46.0830 C   0  0  0  0  0  0  0  0  0  0  0  0
   58.3480   34.5510   45.0680 S   0  0  0  0  0  0  0  0  0  0  0  0
   58.4730   32.8790   45.1700 C   0  0  0  0  0  0  0  0  0  0  0  0
   57.6060   31.9210   44.4600 C   0  0  0  0  0  0  0  0  0  0  0  0
   57.4100   32.0710   43.2250 O   0  0  0  0  0  0  0  0  0  0  0  0
   57.0200   30.7900   45.1180 N   0  0  0  0  0  0  0  0  0  0  0  0
   57.4850   29.4350   45.0430 C   0  0  0  0  0  0  0  0  0  0  0  0
   57.8680   28.7830   46.2230 C   0  0  0  0  0  0  0  0  0  0  0  0
   58.3330   27.4650   46.1810 C   0  0  0  0  0  0  0  0  0  0  0  0
   58.4330   26.7950   44.9580 C   0  0  0  0  0  0  0  0  0  0  0  0
   58.0770   27.4470   43.7750 C   0  0  0  0  0  0  0  0  0  0  0  0
   57.6130   28.7660   43.8130 C   0  0  0  0  0  0  0  0  0  0  0  0
   59.5500   32.5700   45.9940 C   0  0  0  0  0  0  0  0  0  0  0  0
   62.6030   33.1380   47.0130 C   0  0  0  0  0  0  0  0  0  0  0  0
   63.6550   33.0750   47.8720 N   0  0  0  0  0  0  0  0  0  0  0  0
   66.3896   32.3944   50.6691 H   0  0  0  0  0  0  0  0  0  0  0  0
   65.6191   31.8061   49.1569 H   0  0  0  0  0  0  0  0  0  0  0  0
   66.5314   33.3534   49.1569 H   0  0  0  0  0  0  0  0  0  0  0  0
   64.6551   33.3606   52.1975 H   0  0  0  0  0  0  0  0  0  0  0  0
   65.3223   34.8628   51.4729 H   0  0  0  0  0  0  0  0  0  0  0  0
   63.5490   34.5764   51.4729 H   0  0  0  0  0  0  0  0  0  0  0  0
   60.3000   34.4299   49.1557 H   0  0  0  0  0  0  0  0  0  0  0  0
   59.9841   35.9117   46.3577 H   0  0  0  0  0  0  0  0  0  0  0  0
   57.8025   29.3103   47.1862 H   0  0  0  0  0  0  0  0  0  0  0  0
   58.6206   26.9544   47.1119 H   0  0  0  0  0  0  0  0  0  0  0  0
   58.7916   25.7556   44.9273 H   0  0  0  0  0  0  0  0  0  0  0  0
   58.1617   26.9223   42.8119 H   0  0  0  0  0  0  0  0  0  0  0  0
   57.3475   29.2813   42.8781 H   0  0  0  0  0  0  0  0  0  0  0  0
   59.8637   31.5389   46.2142 H   0  0  0  0  0  0  0  0  0  0  0  0
   62.7278   32.8043   45.9723 H   0  0  0  0  0  0  0  0  0  0  0  0
   64.5560   32.7010   47.5060 H   0  0  0  0  0  0  0  0  0  0  0  0
  1  2  1  0
  2  3  1  0
  2  4  1  0
  4  5  2  0
  5  6  1  0
  6  7  2  0
  7  8  1  0
  8  9  2  0
  9 10  1  0
 10 11  1  0
 11 12  1  0
 12 13  2  0
 12 14  1  0
 14 15  1  0
 15 16  2  0
 16 17  1  0
 17 18  2  0
 18 19  1  0
 19 20  2  0
 11 21  2  0
  7 22  1  0
 22 23  2  0
 23  4  1  0
 21  8  1  0
 20 15  1  0
  1 24  1  0
  1 25  1  0
  1 26  1  0
  3 27  1  0
  3 28  1  0
  3 29  1  0
  6 30  1  0
  9 31  1  0
 16 32  1  0
 17 33  1  0
 18 34  1  0
 19 35  1  0
 20 36  1  0
 21 37  1  0
 22 38  1  0
 23 39  1  0
M  CHG  2  14  -1  23   1
M  END
>  <UniqueID>  (21) 
19

>  <SMILES>  (21) 
CN(C)c1ncc(-c2csc(C(=O)[N-]c3ccccc3)c2)c[nH+]1

>  <Energy>  (21) 
74.40136543889983

>  <Genealogy>  (21) 
CN(C)c1ncc(-c2csc(C(=O)[N-]c3ccccc3)c2)c[nH+]1 (protonated)
CN(C)c1ncc(-c2csc(C(=O)[N-]c3ccccc3)c2)c[nH+]1 (3D coordinates assigned)
CN(C)c1ncc(-c2csc(C(=O)[N-]c3ccccc3)c2)c[nH+]1 (optimized conformer: 74.40136543889983 kcal/mol)

>  <smiles>  (21) 
CN(C)c1ncc(-c2csc(C(=O)Nc3ccccc3)c2)cn1

>  <score_type>  (21) 
oracle

>  <origin>  (21) 
adg

>  <m_score__min__energy>  (21) 
-7.9000000000000004

>  <m_primary>  (21) 
energy

$$$$
21:0
     RDKit          3D

 39 41  0  0  1  0  0  0  0  0999 V2000
   58.4940   34.5210   44.9020 C   0  0  0  0  0  0  0  0  0  0  0  0
   57.5560   33.3380   44.8650 C   0  0  0  0  0  0  0  0  0  0  0  0
   57.8510   32.4890   43.6520 C   0  0  0  0  0  0  0  0  0  0  0  0
   57.0200   31.2250   43.6340 C   0  0  0  0  0  0  0  0  0  0  0  0
   60.3460   30.6290   47.8570 N   0  0  0  0  0  0  0  0  0  0  0  0
   59.6230   29.9760   47.0160 C   0  0  0  0  0  0  0  0  0  0  0  0
   58.6150   30.5570   46.3440 N   0  0  0  0  0  0  0  0  0  0  0  0
   57.8360   29.9070   45.4560 C   0  0  0  0  0  0  0  0  0  0  0  0
   56.9240   30.5440   44.8800 N   0  0  0  0  0  0  0  0  0  0  0  0
   61.2120   31.6890   47.4710 C   0  0  0  0  0  0  0  0  0  0  0  0
   60.5850   32.8570   47.0340 C   0  0  0  0  0  0  0  0  0  0  0  0
   61.3980   33.9000   46.6540 C   0  0  0  0  0  0  0  0  0  0  0  0
   62.7710   33.7950   46.7020 C   0  0  0  0  0  0  0  0  0  0  0  0
   63.3960   32.6360   47.1350 C   0  0  0  0  0  0  0  0  0  0  0  0
   62.5880   31.5890   47.5170 C   0  0  0  0  0  0  0  0  0  0  0  0
   59.8630   28.6750   46.7860 N   0  0  0  0  0  0  0  0  0  0  0  0
   59.1080   27.9960   45.9090 C   0  0  0  0  0  0  0  0  0  0  0  0
   59.1280   26.7340   45.5040 N   0  0  0  0  0  0  0  0  0  0  0  0
   58.1510   26.5470   44.6040 C   0  0  0  0  0  0  0  0  0  0  0  0
   57.4670   27.7210   44.4090 N   0  0  0  0  0  0  0  0  0  0  0  0
   58.0560   28.5910   45.2040 C   0  0  0  0  0  0  0  0  0  0  0  0
   58.7060   34.7883   45.9478 H   0  0  0  0  0  0  0  0  0  0  0  0
   59.4334   34.2602   44.3926 H   0  0  0  0  0  0  0  0  0  0  0  0
   58.0259   35.3762   44.3926 H   0  0  0  0  0  0  0  0  0  0  0  0
   57.6927   32.7350   45.7748 H   0  0  0  0  0  0  0  0  0  0  0  0
   56.5183   33.6989   44.8119 H   0  0  0  0  0  0  0  0  0  0  0  0
   57.6299   33.0731   42.7465 H   0  0  0  0  0  0  0  0  0  0  0  0
   58.9117   32.1998   43.6875 H   0  0  0  0  0  0  0  0  0  0  0  0
   56.0023   31.4916   43.3128 H   0  0  0  0  0  0  0  0  0  0  0  0
   57.5311   30.5340   42.9476 H   0  0  0  0  0  0  0  0  0  0  0  0
   58.4410   31.5600   46.5320 H   0  0  0  0  0  0  0  0  0  0  0  0
   59.4888   32.9400   46.9951 H   0  0  0  0  0  0  0  0  0  0  0  0
   60.9420   34.8380   46.3043 H   0  0  0  0  0  0  0  0  0  0  0  0
   63.3860   34.6516   46.3891 H   0  0  0  0  0  0  0  0  0  0  0  0
   64.4925   32.5562   47.1718 H   0  0  0  0  0  0  0  0  0  0  0  0
   63.0485   30.6531   47.8662 H   0  0  0  0  0  0  0  0  0  0  0  0
   60.6480   28.1930   47.3000 H   0  0  0  0  0  0  0  0  0  0  0  0
   57.9310   25.5954   44.0980 H   0  0  0  0  0  0  0  0  0  0  0  0
   56.6850   27.7150   43.7420 H   0  0  0  0  0  0  0  0  0  0  0  0
  1  2  1  0
  2  3  1  0
  3  4  1  0
  4  5  1  0
  5  6  2  0
  6  7  1  0
  7  8  1  0
  8  9  2  0
  9 10  1  0
 10 11  2  0
 11 12  1  0
 12 13  2  0
 13 14  1  0
 14 15  2  0
  8 16  1  0
 16 17  1  0
 17 18  1  0
 18 19  2  0
 19 20  1  0
 20 21  1  0
 21  6  1  0
 15 10  1  0
 21 17  2  0
  1 22  1  0
  1 23  1  0
  1 24  1  0
  2 25  1  0
  2 26  1  0
  3 27  1  0
  3 28  1  0
  4 29  1  0
  4 30  1  0
  7 31  1  0
 11 32  1  0
 12 33  1  0
 13 34  1  0
 14 35  1  0
 15 36  1  0
 16 37  1  0
 19 38  1  0
 20 39  1  0
M  END
>  <smiles>  (22) 
CCCCN=c1[nH]c(=Nc2ccccc2)[nH]c2nc[nH]c12

>  <score_type>  (22) 
oracle

>  <origin>  (22) 
adg

>  <m_score__min__energy>  (22) 
-6.9299999999999997

>  <m_primary>  (22) 
energy

$$$$
22:0
     RDKit          3D

 45 47  0  0  0  0  0  0  0  0999 V2000
   61.8720   33.4760   46.9150 C   0  0  0  0  0  0  0  0  0  0  0  0
   60.6950   33.6150   47.8750 C   0  0  0  0  0  0  0  0  0  0  0  0
   59.4450   33.8770   47.1230 N   0  0  0  0  0  0  0  0  0  0  0  0
   59.6840   33.7800   45.6670 C   0  0  0  0  0  0  0  0  0  0  0  0
   58.4450   33.3080   44.8830 C   0  0  0  0  0  0  0  0  0  0  0  0
   58.1750   31.7860   44.9130 C   0  0  0  0  0  0  0  0  0  0  0  0
   58.7960   31.0980   46.0610 N   0  0  0  0  0  0  0  0  0  0  0  0
   59.4440   29.8240   45.8550 C   0  0  0  0  0  0  0  0  0  0  0  0
   60.5450   29.7620   45.2430 O   0  0  0  0  0  0  0  0  0  0  0  0
   58.8100   28.5690   46.2910 C   0  0  0  0  0  0  0  0  0  0  0  0
   59.3960   27.8760   47.3050 N   0  0  0  0  0  0  0  0  0  0  0  0
   58.9330   26.6700   47.7220 C   0  0  0  0  0  0  0  0  0  0  0  0
   57.8170   26.0940   47.1060 C   0  0  0  0  0  0  0  0  0  0  0  0
   57.3300   24.7390   47.5240 C   0  0  0  0  0  0  0  0  0  0  0  0
   57.1950   26.7810   46.0570 C   0  0  0  0  0  0  0  0  0  0  0  0
   57.6640   28.0420   45.6520 C   0  0  0  0  0  0  0  0  0  0  0  0
   56.9430   28.7770   44.6460 N   0  0  0  0  0  0  0  0  0  0  0  0
   57.3200   28.8720   43.3790 N   0  0  0  0  0  0  0  0  0  0  0  0
   56.4370   29.6930   42.7850 C   0  0  0  0  0  0  0  0  0  0  0  0
   55.5260   30.0920   43.7380 C   0  0  0  0  0  0  0  0  0  0  0  0
   55.8690   29.5100   44.9020 N   0  0  0  0  0  0  0  0  0  0  0  0
   58.5410   31.5230   47.4540 C   0  0  0  0  0  0  0  0  0  0  0  0
   58.3210   33.0420   47.6160 C   0  0  0  0  0  0  0  0  0  0  0  0
   62.8032   33.3660   47.4901 H   0  0  0  0  0  0  0  0  0  0  0  0
   61.7255   32.5889   46.2813 H   0  0  0  0  0  0  0  0  0  0  0  0
   61.9362   34.3728   46.2813 H   0  0  0  0  0  0  0  0  0  0  0  0
   60.5840   32.6838   48.4500 H   0  0  0  0  0  0  0  0  0  0  0  0
   60.8862   34.4580   48.5553 H   0  0  0  0  0  0  0  0  0  0  0  0
   59.9781   34.7719   45.2934 H   0  0  0  0  0  0  0  0  0  0  0  0
   60.4752   33.0315   45.5130 H   0  0  0  0  0  0  0  0  0  0  0  0
   57.5647   33.8162   45.3035 H   0  0  0  0  0  0  0  0  0  0  0  0
   58.6422   33.5578   43.8300 H   0  0  0  0  0  0  0  0  0  0  0  0
   57.0876   31.6267   44.9589 H   0  0  0  0  0  0  0  0  0  0  0  0
   58.6222   31.3612   44.0022 H   0  0  0  0  0  0  0  0  0  0  0  0
   59.4368   26.1443   48.5465 H   0  0  0  0  0  0  0  0  0  0  0  0
   57.3087   24.6797   48.6222 H   0  0  0  0  0  0  0  0  0  0  0  0
   56.3168   24.5754   47.1282 H   0  0  0  0  0  0  0  0  0  0  0  0
   58.0072   23.9678   47.1282 H   0  0  0  0  0  0  0  0  0  0  0  0
   56.3319   26.3299   45.5455 H   0  0  0  0  0  0  0  0  0  0  0  0
   56.4411   29.9928   41.7266 H   0  0  0  0  0  0  0  0  0  0  0  0
   54.6714   30.7655   43.5766 H   0  0  0  0  0  0  0  0  0  0  0  0
   57.6417   31.0027   47.8154 H   0  0  0  0  0  0  0  0  0  0  0  0
   59.4398   31.2677   48.0345 H   0  0  0  0  0  0  0  0  0  0  0  0
   57.4145   33.3204   47.0586 H   0  0  0  0  0  0  0  0  0  0  0  0
   58.2345   33.2349   48.6955 H   0  0  0  0  0  0  0  0  0  0  0  0
  1  2  1  0
  2  3  1  0
  3  4  1  0
  4  5  1  0
  5  6  1  0
  6  7  1  0
  7  8  1  0
  8  9  2  0
  8 10  1  0
 10 11  2  0
 11 12  1  0
 12 13  2  0
 13 14  1  0
 13 15  1  0
 15 16  2  0
 16 17  1  0
 17 18  1  0
 18 19  2  0
 19 20  1  0
 20 21  2  0
  7 22  1  0
 22 23  1  0
 23  3  1  0
 16 10  1  0
 21 17  1  0
  1 24  1  0
  1 25  1  0
  1 26  1  0
  2 27  1  0
  2 28  1  0
  4 29  1  0
  4 30  1  0
  5 31  1  0
  5 32  1  0
  6 33  1  0
  6 34  1  0
 12 35  1  0
 14 36  1  0
 14 37  1  0
 14 38  1  0
 15 39  1  0
 19 40  1  0
 20 41  1  0
 22 42  1  0
 22 43  1  0
 23 44  1  0
 23 45  1  0
M  END
>  <UniqueID>  (23) 
20

>  <SMILES>  (23) 
CCN1CCCN(C(=O)c2ncc(C)cc2-n2nccn2)CC1

>  <Energy>  (23) 
99.44619820975598

>  <Genealogy>  (23) 
CCN1CCCN(C(=O)c2ncc(C)cc2-n2nccn2)CC1 (3D coordinates assigned)
CCN1CCCN(C(=O)c2ncc(C)cc2-n2nccn2)CC1 (nonaromatic ring conformer: 99.44619820975598 kcal/mol)

>  <smiles>  (23) 
CCN1CCCN(C(=O)c2ncc(C)cc2-n2nccn2)CC1

>  <score_type>  (23) 
oracle

>  <origin>  (23) 
adg

>  <m_score__min__energy>  (23) 
-4.7400000000000002

>  <m_primary>  (23) 
energy

$$$$
23:0
     RDKit          3D

 37 39  0  0  0  0  0  0  0  0999 V2000
   59.0030   33.5620   45.0490 C   0  0  0  0  0  0  0  0  0  0  0  0
   58.9180   32.1640   45.5900 C   0  0  0  0  0  0  0  0  0  0  0  0
   59.8400   31.7830   46.5210 N   0  0  0  0  0  0  0  0  0  0  0  0
   59.8520   30.5590   47.0500 N   0  0  0  0  0  0  0  0  0  0  0  0
   58.9110   29.6620   46.6840 C   0  0  0  0  0  0  0  0  0  0  0  0
   58.7800   28.0930   47.2450 S   0  0  0  0  0  0  0  0  0  0  0  0
   57.3950   27.7400   46.3470 C   0  0  0  0  0  0  0  0  0  0  0  0
   56.7170   26.4280   46.3390 C   0  0  0  0  0  0  0  0  0  0  0  0
   55.4920   26.3730   46.0570 O   0  0  0  0  0  0  0  0  0  0  0  0
   57.4060   25.2070   46.6390 N   0  0  0  0  0  0  0  0  0  0  0  0
   58.4680   24.6200   45.8330 C   0  0  0  0  0  0  0  0  0  0  0  0
   57.8710   23.6390   44.8640 C   0  0  0  0  0  0  0  0  0  0  0  0
   56.8250   24.0370   44.0130 C   0  0  0  0  0  0  0  0  0  0  0  0
   56.2880   23.1370   43.0880 C   0  0  0  0  0  0  0  0  0  0  0  0
   56.7960   21.8400   42.9960 C   0  0  0  0  0  0  0  0  0  0  0  0
   57.8480   21.4390   43.8260 C   0  0  0  0  0  0  0  0  0  0  0  0
   58.3900   22.3350   44.7540 C   0  0  0  0  0  0  0  0  0  0  0  0
   59.4200   21.9320   45.5410 F   0  0  0  0  0  0  0  0  0  0  0  0
   57.0240   28.8710   45.5970 C   0  0  0  0  0  0  0  0  0  0  0  0
   55.7790   28.9390   44.8900 N   0  0  0  0  0  0  0  0  0  0  0  0
   57.9170   29.9630   45.7690 C   0  0  0  0  0  0  0  0  0  0  0  0
   57.9440   31.2300   45.1350 C   0  0  0  0  0  0  0  0  0  0  0  0
   57.0200   31.5780   43.9920 C   0  0  0  0  0  0  0  0  0  0  0  0
   59.0464   34.2764   45.8843 H   0  0  0  0  0  0  0  0  0  0  0  0
   59.9089   33.6624   44.4332 H   0  0  0  0  0  0  0  0  0  0  0  0
   58.1159   33.7714   44.4332 H   0  0  0  0  0  0  0  0  0  0  0  0
   58.9896   25.4137   45.2780 H   0  0  0  0  0  0  0  0  0  0  0  0
   59.1843   24.1020   46.4877 H   0  0  0  0  0  0  0  0  0  0  0  0
   56.4276   25.0608   44.0753 H   0  0  0  0  0  0  0  0  0  0  0  0
   55.4635   23.4514   42.4313 H   0  0  0  0  0  0  0  0  0  0  0  0
   56.3686   21.1327   42.2701 H   0  0  0  0  0  0  0  0  0  0  0  0
   58.2498   20.4179   43.7491 H   0  0  0  0  0  0  0  0  0  0  0  0
   55.1270   28.1250   44.8690 H   0  0  0  0  0  0  0  0  0  0  0  0
   55.3850   29.8510   44.5800 H   0  0  0  0  0  0  0  0  0  0  0  0
   56.0612   31.9391   44.3925 H   0  0  0  0  0  0  0  0  0  0  0  0
   57.4795   32.3647   43.3755 H   0  0  0  0  0  0  0  0  0  0  0  0
   56.8464   30.6837   43.3755 H   0  0  0  0  0  0  0  0  0  0  0  0
  1  2  1  0
  2  3  2  0
  3  4  1  0
  4  5  2  0
  5  6  1  0
  6  7  1  0
  7  8  1  0
  8  9  2  0
  8 10  1  0
 10 11  1  0
 11 12  1  0
 12 13  2  0
 13 14  1  0
 14 15  2  0
 15 16  1  0
 16 17  2  0
 17 18  1  0
  7 19  2  0
 19 20  1  0
 19 21  1  0
 21 22  2  0
 22 23  1  0
 22  2  1  0
 21  5  1  0
 17 12  1  0
  1 24  1  0
  1 25  1  0
  1 26  1  0
 11 27  1  0
 11 28  1  0
 13 29  1  0
 14 30  1  0
 15 31  1  0
 16 32  1  0
 20 33  1  0
 20 34  1  0
 23 35  1  0
 23 36  1  0
 23 37  1  0
M  CHG  1  10  -1
M  END
>  <UniqueID>  (24) 
21

>  <SMILES>  (24) 
Cc1nnc2sc(C(=O)[N-]Cc3ccccc3F)c(N)c2c1C

>  <Energy>  (24) 
83.24731892097294

>  <Genealogy>  (24) 
Cc1nnc2sc(C(=O)[N-]Cc3ccccc3F)c(N)c2c1C (protonated)
Cc1nnc2sc(C(=O)[N-]Cc3ccccc3F)c(N)c2c1C (3D coordinates assigned)
Cc1nnc2sc(C(=O)[N-]Cc3ccccc3F)c(N)c2c1C (optimized conformer: 83.24731892097294 kcal/mol)

>  <smiles>  (24) 
Cc1nnc2sc(C(=O)NCc3ccccc3F)c(N)c2c1C

>  <score_type>  (24) 
oracle

>  <origin>  (24) 
adg

>  <m_score__min__energy>  (24) 
-9.3800000000000008

>  <m_primary>  (24) 
energy

$$$$
24:0
     RDKit          3D

 41 43  0  0  0  0  0  0  0  0999 V2000
   55.5410   25.3680   47.4890 H   0  0  0  0  0  0  0  0  0  0  0  0
   56.3130   25.5290   46.8020 N   0  0  0  0  0  0  0  0  0  0  0  0
   56.6810   26.7220   46.4650 C   0  0  0  0  0  0  0  0  0  0  0  0
   57.8380   27.2450   46.9480 N   0  0  0  0  0  0  0  0  0  0  0  0
   58.2380   28.4960   46.6030 C   0  0  0  0  0  0  0  0  0  0  0  0
   59.1813   28.8989   47.0004 H   0  0  0  0  0  0  0  0  0  0  0  0
   57.4530   29.2760   45.7420 C   0  0  0  0  0  0  0  0  0  0  0  0
   57.8790   30.6460   45.3640 C   0  0  0  0  0  0  0  0  0  0  0  0
   57.7120   31.1180   44.0400 C   0  0  0  0  0  0  0  0  0  0  0  0
   57.2624   30.4622   43.2799 H   0  0  0  0  0  0  0  0  0  0  0  0
   58.1150   32.4150   43.6890 C   0  0  0  0  0  0  0  0  0  0  0  0
   57.9580   32.8730   42.4230 F   0  0  0  0  0  0  0  0  0  0  0  0
   58.6750   33.2140   44.6810 C   0  0  0  0  0  0  0  0  0  0  0  0
   59.1220   34.4770   44.5130 N   0  0  0  0  0  0  0  0  0  0  0  0
   59.5730   34.8200   45.7430 C   0  0  0  0  0  0  0  0  0  0  0  0
   60.0210   35.7901   46.0042 H   0  0  0  0  0  0  0  0  0  0  0  0
   59.3860   33.7670   46.6230 C   0  0  0  0  0  0  0  0  0  0  0  0
   59.8000   33.7510   48.0680 C   0  0  0  0  0  0  0  0  0  0  0  0
   59.8687   34.7846   48.4382 H   0  0  0  0  0  0  0  0  0  0  0  0
   59.0517   33.1935   48.6505 H   0  0  0  0  0  0  0  0  0  0  0  0
   61.1160   33.0910   48.2130 N   0  0  0  0  0  0  0  0  0  0  0  0
   60.9540   31.6370   48.4490 C   0  0  0  0  0  0  0  0  0  0  0  0
   61.4959   31.3547   49.3636 H   0  0  0  0  0  0  0  0  0  0  0  0
   59.8839   31.4084   48.5611 H   0  0  0  0  0  0  0  0  0  0  0  0
   61.5110   30.8470   47.2690 C   0  0  0  0  0  0  0  0  0  0  0  0
   62.1072   30.0014   47.6426 H   0  0  0  0  0  0  0  0  0  0  0  0
   60.6797   30.4674   46.6568 H   0  0  0  0  0  0  0  0  0  0  0  0
   62.1478   31.5025   46.6568 H   0  0  0  0  0  0  0  0  0  0  0  0
   61.9720   33.3520   47.0340 C   0  0  0  0  0  0  0  0  0  0  0  0
   62.0037   32.4521   46.4022 H   0  0  0  0  0  0  0  0  0  0  0  0
   61.5524   34.1959   46.4668 H   0  0  0  0  0  0  0  0  0  0  0  0
   63.3900   33.7070   47.4770 C   0  0  0  0  0  0  0  0  0  0  0  0
   63.4386   33.7192   48.5759 H   0  0  0  0  0  0  0  0  0  0  0  0
   64.0944   32.9575   47.0871 H   0  0  0  0  0  0  0  0  0  0  0  0
   63.6582   34.7000   47.0871 H   0  0  0  0  0  0  0  0  0  0  0  0
   58.8210   32.7570   45.9360 N   0  0  0  0  0  0  0  0  0  0  0  0
   58.4470   31.5080   46.3240 C   0  0  0  0  0  0  0  0  0  0  0  0
   58.5848   31.1778   47.3642 H   0  0  0  0  0  0  0  0  0  0  0  0
   56.2630   28.7100   45.2530 C   0  0  0  0  0  0  0  0  0  0  0  0
   55.4760   29.3870   44.3790 F   0  0  0  0  0  0  0  0  0  0  0  0
   55.9070   27.4530   45.6220 N   0  0  0  0  0  0  0  0  0  0  0  0
  1  2  1  0
  2  3  2  0
  3  4  1  0
  4  5  2  0
  5  6  1  0
  5  7  1  0
  7  8  1  0
  8  9  1  0
  9 10  1  0
  9 11  2  0
 11 12  1  0
 11 13  1  0
 13 14  2  0
 14 15  1  0
 15 16  1  0
 15 17  2  0
 17 18  1  0
 18 19  1  0
 18 20  1  0
 18 21  1  0
 21 22  1  0
 22 23  1  0
 22 24  1  0
 22 25  1  0
 25 26  1  0
 25 27  1  0
 25 28  1  0
 21 29  1  0
 29 30  1  0
 29 31  1  0
 29 32  1  0
 32 33  1  0
 32 34  1  0
 32 35  1  0
 17 36  1  0
 36 37  1  0
 37 38  1  0
  7 39  2  0
 39 40  1  0
 39 41  1  0
 41  3  1  0
 37  8  2  0
 36 13  1  0
M  CHG  1  41  -1
M  END
>  <UniqueID>  (25) 
22

>  <SMILES>  (25) 
[H]/N=c1\ncc(-c2cc(F)c3ncc(CN(CC)CC)n3c2)c(F)[n-]1

>  <Energy>  (25) 
82.54388579834774

>  <Genealogy>  (25) 
CCN(CC)Cc1cnc2c(F)cc(-c3cnc(=N)[n-]c3F)cn12 (protonated)
[H]/N=c1\ncc(-c2cc(F)c3ncc(CN(CC)CC)n3c2)c(F)[n-]1 (cis-trans isomerization)
[H]/N=c1\ncc(-c2cc(F)c3ncc(CN(CC)CC)n3c2)c(F)[n-]1 (3D coordinates assigned)
[H]/N=c1\ncc(-c2cc(F)c3ncc(CN(CC)CC)n3c2)c(F)[n-]1 (optimized conformer: 82.54388579834774 kcal/mol)

>  <smiles>  (25) 
CCN(CC)Cc1cnc2c(F)cc(-c3cnc(=N)[nH]c3F)cn12

>  <score_type>  (25) 
oracle

>  <origin>  (25) 
adg

>  <m_score__min__energy>  (25) 
-8.7400000000000002

>  <m_primary>  (25) 
energy

$$$$
25:0
     RDKit          3D

 28 30  0  0  0  0  0  0  0  0999 V2000
   59.9030   35.3400   46.7150 C   0  0  0  0  0  0  0  0  0  0  0  0
   58.9720   34.5340   45.9390 N   0  0  0  0  0  0  0  0  0  0  0  0
   57.7350   34.1680   46.3240 C   0  0  0  0  0  0  0  0  0  0  0  0
   57.1970   33.3540   45.3500 C   0  0  0  0  0  0  0  0  0  0  0  0
   58.1920   33.2650   44.3960 C   0  0  0  0  0  0  0  0  0  0  0  0
   58.0950   32.3360   42.8710 S   0  0  0  0  0  0  0  0  0  0  0  0
   57.4360   30.8890   43.6970 C   0  0  0  0  0  0  0  0  0  0  0  0
   56.0530   30.6730   43.7350 C   0  0  0  0  0  0  0  0  0  0  0  0
   55.5320   29.5490   44.3830 C   0  0  0  0  0  0  0  0  0  0  0  0
   56.3920   28.6310   44.9950 C   0  0  0  0  0  0  0  0  0  0  0  0
   55.8950   27.5620   45.6130 O   0  0  0  0  0  0  0  0  0  0  0  0
   56.6670   26.6580   46.2110 C   0  0  0  0  0  0  0  0  0  0  0  0
   56.1390   25.6680   46.7800 O   0  0  0  0  0  0  0  0  0  0  0  0
   58.0580   26.8040   46.2120 C   0  0  0  0  0  0  0  0  0  0  0  0
   58.6230   27.9100   45.5750 C   0  0  0  0  0  0  0  0  0  0  0  0
   57.7880   28.8440   44.9550 C   0  0  0  0  0  0  0  0  0  0  0  0
   58.3060   29.9730   44.3030 C   0  0  0  0  0  0  0  0  0  0  0  0
   59.2690   33.9800   44.7740 N   0  0  0  0  0  0  0  0  0  0  0  0
   59.7195   35.1811   47.7879 H   0  0  0  0  0  0  0  0  0  0  0  0
   60.9344   35.0450   46.4718 H   0  0  0  0  0  0  0  0  0  0  0  0
   59.7587   36.4030   46.4718 H   0  0  0  0  0  0  0  0  0  0  0  0
   57.2375   34.4678   47.2581 H   0  0  0  0  0  0  0  0  0  0  0  0
   56.2029   32.8832   45.3358 H   0  0  0  0  0  0  0  0  0  0  0  0
   55.3733   31.3910   43.2528 H   0  0  0  0  0  0  0  0  0  0  0  0
   54.4445   29.3863   44.4116 H   0  0  0  0  0  0  0  0  0  0  0  0
   58.6972   26.0583   46.7074 H   0  0  0  0  0  0  0  0  0  0  0  0
   59.7146   28.0453   45.5610 H   0  0  0  0  0  0  0  0  0  0  0  0
   59.3929   30.1388   44.2676 H   0  0  0  0  0  0  0  0  0  0  0  0
  1  2  1  0
  2  3  1  0
  3  4  2  0
  4  5  1  0
  5  6  1  0
  6  7  1  0
  7  8  2  0
  8  9  1  0
  9 10  2  0
 10 11  1  0
 11 12  1  0
 12 13  2  0
 12 14  1  0
 14 15  2  0
 15 16  1  0
 16 17  2  0
  5 18  2  0
 18  2  1  0
 17  7  1  0
 16 10  1  0
  1 19  1  0
  1 20  1  0
  1 21  1  0
  3 22  1  0
  4 23  1  0
  8 24  1  0
  9 25  1  0
 14 26  1  0
 15 27  1  0
 17 28  1  0
M  END
>  <UniqueID>  (26) 
23

>  <SMILES>  (26) 
Cn1ccc(Sc2ccc3oc(=O)ccc3c2)n1

>  <Energy>  (26) 
58.699697059718744

>  <Genealogy>  (26) 
Cn1ccc(Sc2ccc3oc(=O)ccc3c2)n1 (3D coordinates assigned)
Cn1ccc(Sc2ccc3oc(=O)ccc3c2)n1 (optimized conformer: 58.699697059718744 kcal/mol)

>  <smiles>  (26) 
Cn1ccc(Sc2ccc3oc(=O)ccc3c2)n1

>  <score_type>  (26) 
oracle

>  <origin>  (26) 
adg

>  <m_score__min__energy>  (26) 
-7.3099999999999996

>  <m_primary>  (26) 
energy

$$$$
26:0
     RDKit          3D

 37 39  0  0  0  0  0  0  0  0999 V2000
   57.4010   32.3370   41.2310 C   0  0  0  0  0  0  0  0  0  0  0  0
   57.4100   31.6540   42.5670 C   0  0  0  0  0  0  0  0  0  0  0  0
   56.7300   30.4400   42.7430 C   0  0  0  0  0  0  0  0  0  0  0  0
   56.7110   29.8200   43.9940 C   0  0  0  0  0  0  0  0  0  0  0  0
   57.3590   30.4120   45.0810 C   0  0  0  0  0  0  0  0  0  0  0  0
   58.0300   31.6390   44.9270 C   0  0  0  0  0  0  0  0  0  0  0  0
   58.6890   32.2550   46.0500 N   0  0  0  0  0  0  0  0  0  0  0  0
   60.1030   32.0300   46.3690 C   0  0  2  0  0  0  0  0  0  0  0  0
   60.1690   31.1560   47.6470 C   0  0  0  0  0  0  0  0  0  0  0  0
   58.8950   31.2900   48.5180 C   0  0  0  0  0  0  0  0  0  0  0  0
   58.2750   32.7010   48.4480 C   0  0  0  0  0  0  0  0  0  0  0  0
   58.0050   33.1610   46.9790 C   0  0  1  0  0  0  0  0  0  0  0  0
   58.5380   34.5950   46.7260 C   0  0  0  0  0  0  0  0  0  0  0  0
   59.9540   34.5930   46.0980 C   0  0  0  0  0  0  0  0  0  0  0  0
   60.8140   33.4060   46.5790 C   0  0  0  0  0  0  0  0  0  0  0  0
   58.0440   32.2560   43.6640 C   0  0  0  0  0  0  0  0  0  0  0  0
   57.3866   33.4272   41.3766 H   0  0  0  0  0  0  0  0  0  0  0  0
   58.3030   32.0541   40.6685 H   0  0  0  0  0  0  0  0  0  0  0  0
   56.5068   32.0304   40.6685 H   0  0  0  0  0  0  0  0  0  0  0  0
   56.2099   29.9747   41.8927 H   0  0  0  0  0  0  0  0  0  0  0  0
   56.1845   28.8630   44.1240 H   0  0  0  0  0  0  0  0  0  0  0  0
   57.3445   29.9160   46.0627 H   0  0  0  0  0  0  0  0  0  0  0  0
   60.6192   31.5102   45.5484 H   0  0  0  0  0  0  0  0  0  0  0  0
   60.2851   30.1033   47.3499 H   0  0  0  0  0  0  0  0  0  0  0  0
   61.0241   31.5012   48.2466 H   0  0  0  0  0  0  0  0  0  0  0  0
   58.1503   30.5601   48.1678 H   0  0  0  0  0  0  0  0  0  0  0  0
   59.1844   31.1044   49.5629 H   0  0  0  0  0  0  0  0  0  0  0  0
   57.3220   32.6957   48.9973 H   0  0  0  0  0  0  0  0  0  0  0  0
   58.9931   33.4053   48.8933 H   0  0  0  0  0  0  0  0  0  0  0  0
   56.9166   33.1468   46.8201 H   0  0  0  0  0  0  0  0  0  0  0  0
   57.8488   35.1133   46.0431 H   0  0  0  0  0  0  0  0  0  0  0  0
   58.6012   35.1070   47.6975 H   0  0  0  0  0  0  0  0  0  0  0  0
   59.8543   34.5354   45.0040 H   0  0  0  0  0  0  0  0  0  0  0  0
   60.4588   35.5189   46.4109 H   0  0  0  0  0  0  0  0  0  0  0  0
   61.7595   33.4043   46.0168 H   0  0  0  0  0  0  0  0  0  0  0  0
   60.9863   33.5328   47.6580 H   0  0  0  0  0  0  0  0  0  0  0  0
   58.5571   33.2203   43.5346 H   0  0  0  0  0  0  0  0  0  0  0  0
  1  2  1  0
  2  3  2  0
  3  4  1  0
  4  5  2  0
  5  6  1  0
  6  7  1  0
  7  8  1  0
  8  9  1  0
  9 10  1  0
 10 11  1  0
 11 12  1  0
 12 13  1  0
 13 14  1  0
 14 15  1  0
  6 16  2  0
 16  2  1  0
 12  7  1  0
 15  8  1  0
  1 17  1  0
  1 18  1  0
  1 19  1  0
  3 20  1  0
  4 21  1  0
  5 22  1  0
  8 23  1  6
  9 24  1  0
  9 25  1  0
 10 26  1  0
 10 27  1  0
 11 28  1  0
 11 29  1  0
 12 30  1  6
 13 31  1  0
 13 32  1  0
 14 33  1  0
 14 34  1  0
 15 35  1  0
 15 36  1  0
 16 37  1  0
M  END
>  <UniqueID>  (27) 
24

>  <SMILES>  (27) 
Cc1cccc(N2C3CCCC2CCC3)c1

>  <Energy>  (27) 
54.215700462340195

>  <Genealogy>  (27) 
Cc1cccc(N2C3CCCC2CCC3)c1 (3D coordinates assigned)
Cc1cccc(N2C3CCCC2CCC3)c1 (nonaromatic ring conformer: 54.215700462340195 kcal/mol)

>  <smiles>  (27) 
Cc1cccc(N2C3CCCC2CCC3)c1

>  <score_type>  (27) 
oracle

>  <origin>  (27) 
adg

>  <m_score__min__energy>  (27) 
-6.7199999999999998

>  <m_primary>  (27) 
energy

$$$$
27:0
     RDKit          3D

 38 40  0  0  1  0  0  0  0  0999 V2000
   54.0050   25.0840   45.6190 C   0  0  0  0  0  0  0  0  0  0  0  0
   55.3000   25.5950   45.8350 O   0  0  0  0  0  0  0  0  0  0  0  0
   56.4630   24.8560   45.6540 C   0  0  0  0  0  0  0  0  0  0  0  0
   56.4340   23.6720   44.9070 C   0  0  0  0  0  0  0  0  0  0  0  0
   57.5650   22.9140   44.7060 C   0  0  0  0  0  0  0  0  0  0  0  0
   58.7720   23.3110   45.2440 C   0  0  0  0  0  0  0  0  0  0  0  0
   58.8230   24.4900   45.9930 C   0  0  0  0  0  0  0  0  0  0  0  0
   57.6870   25.2640   46.2020 C   0  0  0  0  0  0  0  0  0  0  0  0
   57.7610   26.5340   47.0170 C   0  0  0  0  0  0  0  0  0  0  0  0
   58.5150   27.4790   46.1920 N   0  0  0  0  0  0  0  0  0  0  0  0
   57.9150   28.5270   45.7190 C   0  0  0  0  0  0  0  0  0  0  0  0
   58.4590   29.8090   45.8640 C   0  0  0  0  0  0  0  0  0  0  0  0
   57.7390   30.8700   45.3400 C   0  0  0  0  0  0  0  0  0  0  0  0
   58.2160   32.2370   45.4270 C   0  0  0  0  0  0  0  0  0  0  0  0
   59.2180   32.5230   46.3380 C   0  0  0  0  0  0  0  0  0  0  0  0
   59.7220   33.8100   46.4960 C   0  0  0  0  0  0  0  0  0  0  0  0
   59.1930   34.8350   45.7060 C   0  0  0  0  0  0  0  0  0  0  0  0
   58.2140   34.5380   44.8190 N   0  0  0  0  0  0  0  0  0  0  0  0
   57.7340   33.2800   44.6760 C   0  0  0  0  0  0  0  0  0  0  0  0
   56.5630   30.6450   44.7190 N   0  0  0  0  0  0  0  0  0  0  0  0
   56.0530   29.3930   44.5890 C   0  0  0  0  0  0  0  0  0  0  0  0
   56.7410   28.3260   45.0950 N   0  0  0  0  0  0  0  0  0  0  0  0
   53.5201   24.8926   46.5876 H   0  0  0  0  0  0  0  0  0  0  0  0
   53.4122   25.8156   45.0504 H   0  0  0  0  0  0  0  0  0  0  0  0
   54.0716   24.1447   45.0504 H   0  0  0  0  0  0  0  0  0  0  0  0
   55.4816   23.3387   44.4690 H   0  0  0  0  0  0  0  0  0  0  0  0
   57.5065   21.9885   44.1144 H   0  0  0  0  0  0  0  0  0  0  0  0
   59.6793   22.7094   45.0860 H   0  0  0  0  0  0  0  0  0  0  0  0
   59.7815   24.8121   46.4260 H   0  0  0  0  0  0  0  0  0  0  0  0
   56.7515   26.9205   47.2206 H   0  0  0  0  0  0  0  0  0  0  0  0
   58.2410   26.3677   47.9927 H   0  0  0  0  0  0  0  0  0  0  0  0
   59.4206   29.9674   46.3741 H   0  0  0  0  0  0  0  0  0  0  0  0
   59.6275   31.7094   46.9547 H   0  0  0  0  0  0  0  0  0  0  0  0
   60.5186   34.0165   47.2259 H   0  0  0  0  0  0  0  0  0  0  0  0
   59.5658   35.8653   45.8034 H   0  0  0  0  0  0  0  0  0  0  0  0
   56.9387   33.0893   43.9404 H   0  0  0  0  0  0  0  0  0  0  0  0
   55.0908   29.2385   44.0789 H   0  0  0  0  0  0  0  0  0  0  0  0
   56.3080   27.3760   44.9680 H   0  0  0  0  0  0  0  0  0  0  0  0
  1  2  1  0
  2  3  1  0
  3  4  2  0
  4  5  1  0
  5  6  2  0
  6  7  1  0
  7  8  2  0
  8  9  1  0
  9 10  1  0
 10 11  2  0
 11 12  1  0
 12 13  2  0
 13 14  1  0
 14 15  2  0
 15 16  1  0
 16 17  2  0
 17 18  1  0
 18 19  2  0
 13 20  1  0
 20 21  2  0
 21 22  1  0
  8  3  1  0
 22 11  1  0
 19 14  1  0
  1 23  1  0
  1 24  1  0
  1 25  1  0
  4 26  1  0
  5 27  1  0
  6 28  1  0
  7 29  1  0
  9 30  1  0
  9 31  1  0
 12 32  1  0
 15 33  1  0
 16 34  1  0
 17 35  1  0
 19 36  1  0
 21 37  1  0
 22 38  1  0
M  END
>  <smiles>  (28) 
COc1ccccc1CN=c1cc(-c2cccnc2)nc[nH]1

>  <score_type>  (28) 
oracle

>  <origin>  (28) 
adg

>  <m_score__min__energy>  (28) 
-7.4900000000000002

>  <m_primary>  (28) 
energy

$$$$
28:0
     RDKit          3D

 43 45  0  0  0  0  0  0  0  0999 V2000
   56.6330   29.6850   45.6220 O   0  0  0  0  0  0  0  0  0  0  0  0
   57.3000   29.9830   44.5940 C   0  0  0  0  0  0  0  0  0  0  0  0
   57.0400   31.2830   43.8900 C   0  0  0  0  0  0  0  0  0  0  0  0
   56.7220   32.3210   44.8190 O   0  0  0  0  0  0  0  0  0  0  0  0
   57.6590   33.0890   45.5290 C   0  0  0  0  0  0  0  0  0  0  0  0
   57.9480   32.8650   46.8880 C   0  0  0  0  0  0  0  0  0  0  0  0
   58.8780   33.6710   47.5520 C   0  0  0  0  0  0  0  0  0  0  0  0
   59.5310   34.6990   46.8680 C   0  0  0  0  0  0  0  0  0  0  0  0
   59.2590   34.9180   45.5150 C   0  0  0  0  0  0  0  0  0  0  0  0
   58.3310   34.1130   44.8480 C   0  0  0  0  0  0  0  0  0  0  0  0
   58.2190   29.0370   44.0280 N   0  0  0  0  0  0  0  0  0  0  0  0
   58.2440   27.6640   44.4450 C   0  0  0  0  0  0  0  0  0  0  0  0
   57.7820   26.6780   43.5610 C   0  0  0  0  0  0  0  0  0  0  0  0
   57.7480   25.3360   43.9520 C   0  0  0  0  0  0  0  0  0  0  0  0
   58.1840   24.9690   45.2260 C   0  0  0  0  0  0  0  0  0  0  0  0
   58.6700   25.9380   46.1060 C   0  0  0  0  0  0  0  0  0  0  0  0
   58.7120   27.2890   45.7240 C   0  0  0  0  0  0  0  0  0  0  0  0
   59.3080   28.2590   46.5990 N   0  0  0  0  0  0  0  0  0  0  0  0
   60.4000   29.0830   46.0790 C   0  0  0  0  0  0  0  0  0  0  0  0
   60.5890   30.3250   46.9550 C   0  0  0  0  0  0  0  0  0  0  0  0
   60.6850   29.9760   48.3240 O   0  0  0  0  0  0  0  0  0  0  0  0
   59.4700   29.3970   48.7580 C   0  0  0  0  0  0  0  0  0  0  0  0
   59.2280   28.0640   48.0490 C   0  0  0  0  0  0  0  0  0  0  0  0
   57.9388   31.5707   43.3249 H   0  0  0  0  0  0  0  0  0  0  0  0
   56.1829   31.1469   43.2141 H   0  0  0  0  0  0  0  0  0  0  0  0
   57.4406   32.0532   47.4297 H   0  0  0  0  0  0  0  0  0  0  0  0
   59.0959   33.4950   48.6157 H   0  0  0  0  0  0  0  0  0  0  0  0
   60.2583   35.3352   47.3936 H   0  0  0  0  0  0  0  0  0  0  0  0
   59.7756   35.7246   44.9742 H   0  0  0  0  0  0  0  0  0  0  0  0
   58.1267   34.2846   43.7808 H   0  0  0  0  0  0  0  0  0  0  0  0
   58.6610   29.2730   43.1110 H   0  0  0  0  0  0  0  0  0  0  0  0
   57.4442   26.9623   42.5535 H   0  0  0  0  0  0  0  0  0  0  0  0
   57.3776   24.5694   43.2555 H   0  0  0  0  0  0  0  0  0  0  0  0
   58.1447   23.9147   45.5373 H   0  0  0  0  0  0  0  0  0  0  0  0
   59.0223   25.6414   47.1050 H   0  0  0  0  0  0  0  0  0  0  0  0
   61.3296   28.4950   46.0769 H   0  0  0  0  0  0  0  0  0  0  0  0
   60.1539   29.4002   45.0549 H   0  0  0  0  0  0  0  0  0  0  0  0
   61.5113   30.8417   46.6509 H   0  0  0  0  0  0  0  0  0  0  0  0
   59.7157   30.9807   46.8230 H   0  0  0  0  0  0  0  0  0  0  0  0
   59.5180   29.2260   49.8436 H   0  0  0  0  0  0  0  0  0  0  0  0
   58.6438   30.0825   48.5180 H   0  0  0  0  0  0  0  0  0  0  0  0
   59.9917   27.3376   48.3637 H   0  0  0  0  0  0  0  0  0  0  0  0
   58.2297   27.6849   48.3129 H   0  0  0  0  0  0  0  0  0  0  0  0
  1  2  2  0
  2  3  1  0
  3  4  1  0
  4  5  1  0
  5  6  2  0
  6  7  1  0
  7  8  2  0
  8  9  1  0
  9 10  2  0
  2 11  1  0
 11 12  1  0
 12 13  2  0
 13 14  1  0
 14 15  2  0
 15 16  1  0
 16 17  2  0
 17 18  1  0
 18 19  1  0
 19 20  1  0
 20 21  1  0
 21 22  1  0
 22 23  1  0
 10  5  1  0
 17 12  1  0
 23 18  1  0
  3 24  1  0
  3 25  1  0
  6 26  1  0
  7 27  1  0
  8 28  1  0
  9 29  1  0
 10 30  1  0
 11 31  1  0
 13 32  1  0
 14 33  1  0
 15 34  1  0
 16 35  1  0
 19 36  1  0
 19 37  1  0
 20 38  1  0
 20 39  1  0
 22 40  1  0
 22 41  1  0
 23 42  1  0
 23 43  1  0
M  END
>  <UniqueID>  (29) 
25

>  <SMILES>  (29) 
O=C(COc1ccccc1)Nc1ccccc1N1CCOCC1

>  <Energy>  (29) 
53.33330887767166

>  <Genealogy>  (29) 
O=C(COc1ccccc1)Nc1ccccc1N1CCOCC1 (3D coordinates assigned)
O=C(COc1ccccc1)Nc1ccccc1N1CCOCC1 (nonaromatic ring conformer: 53.33330887767166 kcal/mol)

>  <smiles>  (29) 
O=C(COc1ccccc1)Nc1ccccc1N1CCOCC1

>  <score_type>  (29) 
oracle

>  <origin>  (29) 
adg

>  <m_score__min__energy>  (29) 
-7.1900000000000004

>  <m_primary>  (29) 
energy

$$$$
29:0
     RDKit          3D

 48 51  0  0  0  0  0  0  0  0999 V2000
   56.9750   34.5910   44.8710 C   0  0  0  0  0  0  0  0  0  0  0  0
   58.0000   33.7610   45.5680 C   0  0  0  0  0  0  0  0  0  0  0  0
   59.1230   34.3390   46.0680 N   0  0  0  0  0  0  0  0  0  0  0  0
   60.0370   33.6220   46.7220 N   0  0  0  0  0  0  0  0  0  0  0  0
   59.8720   32.2790   46.9140 C   0  0  0  0  0  0  0  0  0  0  0  0
   60.8240   31.4850   47.5810 C   0  0  0  0  0  0  0  0  0  0  0  0
   62.1200   32.0220   48.0530 C   0  0  0  0  0  0  0  0  0  0  0  0
   62.8950   32.8360   47.2090 C   0  0  0  0  0  0  0  0  0  0  0  0
   64.1080   33.3640   47.6610 C   0  0  0  0  0  0  0  0  0  0  0  0
   64.5500   33.0930   48.9590 C   0  0  0  0  0  0  0  0  0  0  0  0
   63.7780   32.2960   49.8080 C   0  0  0  0  0  0  0  0  0  0  0  0
   62.5640   31.7650   49.3610 C   0  0  0  0  0  0  0  0  0  0  0  0
   60.5400   30.1280   47.7950 C   0  0  0  0  0  0  0  0  0  0  0  0
   59.3580   29.5700   47.3840 N   0  0  0  0  0  0  0  0  0  0  0  0
   59.1100   28.1420   47.6770 C   0  0  0  0  0  0  0  0  0  0  0  0
   59.1630   27.2240   46.4240 C   0  0  0  0  0  0  0  0  0  0  0  0
   57.7650   26.7100   45.9860 C   0  0  0  0  0  0  0  0  0  0  0  0
   57.8050   26.1600   44.5570 C   0  0  0  0  0  0  0  0  0  0  0  0
   58.1770   27.2620   43.5410 C   0  0  0  0  0  0  0  0  0  0  0  0
   59.0660   28.3710   44.1380 C   0  0  0  0  0  0  0  0  0  0  0  0
   59.9760   27.8250   45.2450 C   0  0  0  0  0  0  0  0  0  0  0  0
   58.4580   30.3190   46.6650 C   0  0  0  0  0  0  0  0  0  0  0  0
   57.4170   29.7900   46.1870 O   0  0  0  0  0  0  0  0  0  0  0  0
   58.6920   31.6810   46.4390 C   0  0  0  0  0  0  0  0  0  0  0  0
   57.7830   32.4380   45.7720 N   0  0  0  0  0  0  0  0  0  0  0  0
   56.3465   35.0999   45.6166 H   0  0  0  0  0  0  0  0  0  0  0  0
   57.4766   35.3405   44.2412 H   0  0  0  0  0  0  0  0  0  0  0  0
   56.3461   33.9445   44.2412 H   0  0  0  0  0  0  0  0  0  0  0  0
   60.8710   34.1250   47.0960 H   0  0  0  0  0  0  0  0  0  0  0  0
   62.5461   33.0583   46.1898 H   0  0  0  0  0  0  0  0  0  0  0  0
   64.7154   33.9936   46.9942 H   0  0  0  0  0  0  0  0  0  0  0  0
   65.5059   33.5073   49.3122 H   0  0  0  0  0  0  0  0  0  0  0  0
   64.1258   32.0858   50.8302 H   0  0  0  0  0  0  0  0  0  0  0  0
   61.9552   31.1446   50.0351 H   0  0  0  0  0  0  0  0  0  0  0  0
   61.2834   29.4973   48.3045 H   0  0  0  0  0  0  0  0  0  0  0  0
   59.8722   27.7975   48.3913 H   0  0  0  0  0  0  0  0  0  0  0  0
   58.0896   28.0715   48.0818 H   0  0  0  0  0  0  0  0  0  0  0  0
   59.7272   26.3366   46.7466 H   0  0  0  0  0  0  0  0  0  0  0  0
   57.4452   25.9104   46.6703 H   0  0  0  0  0  0  0  0  0  0  0  0
   57.0567   27.5510   46.0180 H   0  0  0  0  0  0  0  0  0  0  0  0
   58.5538   25.3560   44.5035 H   0  0  0  0  0  0  0  0  0  0  0  0
   56.8048   25.7783   44.3041 H   0  0  0  0  0  0  0  0  0  0  0  0
   58.7164   26.7960   42.7032 H   0  0  0  0  0  0  0  0  0  0  0  0
   57.2384   27.7367   43.2189 H   0  0  0  0  0  0  0  0  0  0  0  0
   59.6907   28.7974   43.3393 H   0  0  0  0  0  0  0  0  0  0  0  0
   58.4124   29.1399   44.5757 H   0  0  0  0  0  0  0  0  0  0  0  0
   60.6193   27.0400   44.8208 H   0  0  0  0  0  0  0  0  0  0  0  0
   60.5737   28.6614   45.6364 H   0  0  0  0  0  0  0  0  0  0  0  0
  1  2  1  0
  2  3  2  0
  3  4  1  0
  4  5  2  0
  5  6  1  0
  6  7  1  0
  7  8  2  0
  8  9  1  0
  9 10  2  0
 10 11  1  0
 11 12  2  0
  6 13  2  0
 13 14  1  0
 14 15  1  0
 15 16  1  0
 16 17  1  0
 17 18  1  0
 18 19  1  0
 19 20  1  0
 20 21  1  0
 14 22  1  0
 22 23  2  0
 22 24  1  0
 24 25  2  0
 25  2  1  0
 24  5  1  0
 12  7  1  0
 21 16  1  0
  1 26  1  0
  1 27  1  0
  1 28  1  0
  4 29  1  0
  8 30  1  0
  9 31  1  0
 10 32  1  0
 11 33  1  0
 12 34  1  0
 13 35  1  0
 15 36  1  0
 15 37  1  0
 16 38  1  0
 17 39  1  0
 17 40  1  0
 18 41  1  0
 18 42  1  0
 19 43  1  0
 19 44  1  0
 20 45  1  0
 20 46  1  0
 21 47  1  0
 21 48  1  0
M  CHG  1   4   1
M  END
>  <UniqueID>  (30) 
26

>  <SMILES>  (30) 
Cc1n[nH+]c2c(-c3ccccc3)cn(CC3CCCCC3)c(=O)c2n1

>  <Energy>  (30) 
67.4146691831905

>  <Genealogy>  (30) 
Cc1n[nH+]c2c(-c3ccccc3)cn(CC3CCCCC3)c(=O)c2n1 (protonated)
Cc1n[nH+]c2c(-c3ccccc3)cn(CC3CCCCC3)c(=O)c2n1 (3D coordinates assigned)
Cc1n[nH+]c2c(-c3ccccc3)cn(CC3CCCCC3)c(=O)c2n1 (nonaromatic ring conformer: 67.4146691831905 kcal/mol)

>  <smiles>  (30) 
Cc1nnc2c(-c3ccccc3)cn(CC3CCCCC3)c(=O)c2n1

>  <score_type>  (30) 
oracle

>  <origin>  (30) 
adg

>  <m_score__min__energy>  (30) 
-6.9500000000000002

>  <m_primary>  (30) 
energy

$$$$
30:0
     RDKit          3D

 39 41  0  0  0  0  0  0  0  0999 V2000
   58.5510   28.6390   48.5920 O   0  0  0  0  0  0  0  0  0  0  0  0
   59.1250   29.2250   47.6340 C   0  0  0  0  0  0  0  0  0  0  0  0
   58.5970   29.0170   46.2690 C   0  0  0  0  0  0  0  0  0  0  0  0
   58.9670   27.9940   45.4140 C   0  0  0  0  0  0  0  0  0  0  0  0
   58.2410   28.1870   44.2580 C   0  0  0  0  0  0  0  0  0  0  0  0
   57.4780   29.3140   44.4800 C   0  0  0  0  0  0  0  0  0  0  0  0
   56.2570   30.0910   43.2390 Br  0  0  0  0  0  0  0  0  0  0  0  0
   57.7110   29.7880   45.6810 O   0  0  0  0  0  0  0  0  0  0  0  0
   60.2650   30.0740   47.8980 N   0  0  0  0  0  0  0  0  0  0  0  0
   61.0240   29.9430   49.1480 C   0  0  0  0  0  0  0  0  0  0  0  0
   61.0720   31.2860   49.9000 C   0  0  0  0  0  0  0  0  0  0  0  0
   61.0870   32.4800   49.0090 N   0  0  0  0  0  0  0  0  0  0  0  0
   59.5300   33.2890   49.0110 S   0  0  0  0  0  0  0  0  0  0  0  0
   58.5020   32.4440   49.7110 O   0  0  0  0  0  0  0  0  0  0  0  0
   59.6500   34.5920   49.7520 O   0  0  0  0  0  0  0  0  0  0  0  0
   59.0000   33.6380   47.3660 C   0  0  0  0  0  0  0  0  0  0  0  0
   57.8840   32.9720   46.8410 C   0  0  0  0  0  0  0  0  0  0  0  0
   57.4430   33.2550   45.5440 C   0  0  0  0  0  0  0  0  0  0  0  0
   58.1130   34.2060   44.7680 C   0  0  0  0  0  0  0  0  0  0  0  0
   59.2250   34.8750   45.2890 C   0  0  0  0  0  0  0  0  0  0  0  0
   59.6690   34.5930   46.5850 C   0  0  0  0  0  0  0  0  0  0  0  0
   61.5510   32.1780   47.6380 C   0  0  0  0  0  0  0  0  0  0  0  0
   60.6730   31.1200   46.9500 C   0  0  0  0  0  0  0  0  0  0  0  0
   59.6917   27.1914   45.6153 H   0  0  0  0  0  0  0  0  0  0  0  0
   58.2653   27.5701   43.3476 H   0  0  0  0  0  0  0  0  0  0  0  0
   60.5406   29.1889   49.7865 H   0  0  0  0  0  0  0  0  0  0  0  0
   62.0524   29.6365   48.9064 H   0  0  0  0  0  0  0  0  0  0  0  0
   60.1866   31.3504   50.5496 H   0  0  0  0  0  0  0  0  0  0  0  0
   62.0150   31.2999   50.4661 H   0  0  0  0  0  0  0  0  0  0  0  0
   61.7640   33.1690   49.4130 H   0  0  0  0  0  0  0  0  0  0  0  0
   57.3538   32.2252   47.4502 H   0  0  0  0  0  0  0  0  0  0  0  0
   56.5683   32.7289   45.1341 H   0  0  0  0  0  0  0  0  0  0  0  0
   57.7655   34.4278   43.7482 H   0  0  0  0  0  0  0  0  0  0  0  0
   59.7511   35.6239   44.6788 H   0  0  0  0  0  0  0  0  0  0  0  0
   60.5439   35.1206   46.9927 H   0  0  0  0  0  0  0  0  0  0  0  0
   61.5242   33.1027   47.0428 H   0  0  0  0  0  0  0  0  0  0  0  0
   62.5730   31.7771   47.7070 H   0  0  0  0  0  0  0  0  0  0  0  0
   59.7743   31.6075   46.5442 H   0  0  0  0  0  0  0  0  0  0  0  0
   61.2566   30.6523   46.1433 H   0  0  0  0  0  0  0  0  0  0  0  0
  1  2  2  0
  2  3  1  0
  3  4  2  0
  4  5  1  0
  5  6  2  0
  6  7  1  0
  6  8  1  0
  2  9  1  0
  9 10  1  0
 10 11  1  0
 11 12  1  0
 12 13  1  0
 13 14  2  0
 13 15  2  0
 13 16  1  0
 16 17  2  0
 17 18  1  0
 18 19  2  0
 19 20  1  0
 20 21  2  0
 12 22  1  0
 22 23  1  0
  8  3  1  0
 23  9  1  0
 21 16  1  0
  4 24  1  0
  5 25  1  0
 10 26  1  0
 10 27  1  0
 11 28  1  0
 11 29  1  0
 12 30  1  0
 17 31  1  0
 18 32  1  0
 19 33  1  0
 20 34  1  0
 21 35  1  0
 22 36  1  0
 22 37  1  0
 23 38  1  0
 23 39  1  0
M  CHG  1  12   1
M  END
>  <UniqueID>  (31) 
27

>  <SMILES>  (31) 
O=C(c1ccc(Br)o1)N1CC[NH+](S(=O)(=O)c2ccccc2)CC1

>  <Energy>  (31) 
74.19628854153815

>  <Genealogy>  (31) 
O=C(c1ccc(Br)o1)N1CC[NH+](S(=O)(=O)c2ccccc2)CC1 (protonated)
O=C(c1ccc(Br)o1)N1CC[NH+](S(=O)(=O)c2ccccc2)CC1 (3D coordinates assigned)
O=C(c1ccc(Br)o1)N1CC[NH+](S(=O)(=O)c2ccccc2)CC1 (nonaromatic ring conformer: 74.19628854153815 kcal/mol)

>  <smiles>  (31) 
O=C(c1ccc(Br)o1)N1CCN(S(=O)(=O)c2ccccc2)CC1

>  <score_type>  (31) 
oracle

>  <origin>  (31) 
adg

>  <m_score__min__energy>  (31) 
-6.9699999999999998

>  <m_primary>  (31) 
energy

$$$$
31:0
     RDKit          3D

 40 43  0  0  0  0  0  0  0  0999 V2000
   60.0190   25.0560   46.0490 C   0  0  0  0  0  0  0  0  0  0  0  0
   58.6570   25.0830   46.6780 C   0  0  0  0  0  0  0  0  0  0  0  0
   57.8740   26.1900   46.1330 N   0  0  0  0  0  0  0  0  0  0  0  0
   56.5590   26.4080   46.2690 C   0  0  0  0  0  0  0  0  0  0  0  0
   56.2350   27.5340   45.6160 N   0  0  0  0  0  0  0  0  0  0  0  0
   57.3440   28.0760   45.0370 C   0  0  0  0  0  0  0  0  0  0  0  0
   57.2790   29.2970   44.2680 C   0  0  0  0  0  0  0  0  0  0  0  0
   56.6640   29.3770   43.0630 N   0  0  0  0  0  0  0  0  0  0  0  0
   56.7600   30.6230   42.5880 N   0  0  0  0  0  0  0  0  0  0  0  0
   57.4250   31.3790   43.4440 C   0  0  0  0  0  0  0  0  0  0  0  0
   57.7740   32.7090   43.4010 C   0  0  0  0  0  0  0  0  0  0  0  0
   58.4820   33.2030   44.4760 C   0  0  0  0  0  0  0  0  0  0  0  0
   58.8410   34.5170   44.4590 F   0  0  0  0  0  0  0  0  0  0  0  0
   58.8380   32.4270   45.5570 C   0  0  0  0  0  0  0  0  0  0  0  0
   59.5850   33.0210   46.6560 C   0  0  0  0  0  0  0  0  0  0  0  0
   58.9980   33.6050   47.7560 C   0  0  0  0  0  0  0  0  0  0  0  0
   59.7600   34.1510   48.7660 C   0  0  0  0  0  0  0  0  0  0  0  0
   61.1450   34.1010   48.6570 C   0  0  0  0  0  0  0  0  0  0  0  0
   61.7180   33.5120   47.5500 C   0  0  0  0  0  0  0  0  0  0  0  0
   63.1980   33.4260   47.3700 C   0  0  0  0  0  0  0  0  0  0  0  0
   60.9260   33.0080   46.6170 N   0  0  0  0  0  0  0  0  0  0  0  0
   58.4590   31.1060   45.5390 C   0  0  0  0  0  0  0  0  0  0  0  0
   57.7560   30.5600   44.5030 C   0  0  0  0  0  0  0  0  0  0  0  0
   58.3540   27.2230   45.3710 C   0  0  0  0  0  0  0  0  0  0  0  0
   60.7865   25.0408   46.8369 H   0  0  0  0  0  0  0  0  0  0  0  0
   60.1167   24.1557   45.4245 H   0  0  0  0  0  0  0  0  0  0  0  0
   60.1523   25.9517   45.4245 H   0  0  0  0  0  0  0  0  0  0  0  0
   58.1407   24.1345   46.4687 H   0  0  0  0  0  0  0  0  0  0  0  0
   58.7647   25.2187   47.7643 H   0  0  0  0  0  0  0  0  0  0  0  0
   55.8589   25.7677   46.8257 H   0  0  0  0  0  0  0  0  0  0  0  0
   56.1680   28.6430   42.5140 H   0  0  0  0  0  0  0  0  0  0  0  0
   57.5009   33.3485   42.5487 H   0  0  0  0  0  0  0  0  0  0  0  0
   57.9009   33.6363   47.8299 H   0  0  0  0  0  0  0  0  0  0  0  0
   59.2822   34.6168   49.6405 H   0  0  0  0  0  0  0  0  0  0  0  0
   61.7789   34.5282   49.4480 H   0  0  0  0  0  0  0  0  0  0  0  0
   63.6862   33.3976   48.3553 H   0  0  0  0  0  0  0  0  0  0  0  0
   63.4469   32.5119   46.8110 H   0  0  0  0  0  0  0  0  0  0  0  0
   63.5511   34.3051   46.8110 H   0  0  0  0  0  0  0  0  0  0  0  0
   58.7318   30.4649   46.3902 H   0  0  0  0  0  0  0  0  0  0  0  0
   59.4051   27.3465   45.0713 H   0  0  0  0  0  0  0  0  0  0  0  0
  1  2  1  0
  2  3  1  0
  3  4  1  0
  4  5  2  0
  5  6  1  0
  6  7  1  0
  7  8  1  0
  8  9  1  0
  9 10  2  0
 10 11  1  0
 11 12  2  0
 12 13  1  0
 12 14  1  0
 14 15  1  0
 15 16  2  0
 16 17  1  0
 17 18  2  0
 18 19  1  0
 19 20  1  0
 19 21  2  0
 14 22  2  0
 22 23  1  0
  6 24  2  0
 24  3  1  0
 23  7  2  0
 23 10  1  0
 21 15  1  0
  1 25  1  0
  1 26  1  0
  1 27  1  0
  2 28  1  0
  2 29  1  0
  4 30  1  0
  8 31  1  0
 11 32  1  0
 16 33  1  0
 17 34  1  0
 18 35  1  0
 20 36  1  0
 20 37  1  0
 20 38  1  0
 22 39  1  0
 24 40  1  0
M  END
>  <smiles>  (32) 
CCn1cnc(-c2[nH]nc3cc(F)c(-c4cccc(C)n4)cc23)c1

>  <score_type>  (32) 
oracle

>  <origin>  (32) 
adg

>  <m_score__min__energy>  (32) 
-7.7699999999999996

>  <m_primary>  (32) 
energy

$$$$
32:0
     RDKit          3D

 34 36  0  0  0  0  0  0  0  0999 V2000
   57.7410   34.2130   44.9580 C   0  0  0  0  0  0  0  0  0  0  0  0
   58.6860   33.8750   46.1090 C   0  0  0  0  0  0  0  0  0  0  0  0
   58.2060   32.6690   46.9240 C   0  0  0  0  0  0  0  0  0  0  0  0
   58.4980   31.4120   46.2340 N   0  0  0  0  0  0  0  0  0  0  0  0
   59.6120   30.6390   46.3250 C   0  0  0  0  0  0  0  0  0  0  0  0
   60.5760   30.9000   47.0950 O   0  0  0  0  0  0  0  0  0  0  0  0
   59.5920   29.5710   45.4860 N   0  0  0  0  0  0  0  0  0  0  0  0
   60.6670   28.6040   45.2570 C   0  0  0  0  0  0  0  0  0  0  0  0
   60.3710   27.3110   46.0240 C   0  0  0  0  0  0  0  0  0  0  0  0
   60.3170   27.4620   47.5350 C   0  0  0  0  0  0  0  0  0  0  0  0
   59.0340   27.2550   46.7450 C   0  0  0  0  0  0  0  0  0  0  0  0
   58.4230   29.6970   44.8230 C   0  0  0  0  0  0  0  0  0  0  0  0
   57.8810   28.9150   43.8060 C   0  0  0  0  0  0  0  0  0  0  0  0
   56.6400   29.3140   43.2790 C   0  0  0  0  0  0  0  0  0  0  0  0
   55.9990   30.4720   43.7820 C   0  0  0  0  0  0  0  0  0  0  0  0
   56.5760   31.2090   44.7790 N   0  0  0  0  0  0  0  0  0  0  0  0
   57.7700   30.8040   45.2810 C   0  0  0  0  0  0  0  0  0  0  0  0
   56.7781   34.5574   45.3632 H   0  0  0  0  0  0  0  0  0  0  0  0
   58.1846   35.0082   44.3408 H   0  0  0  0  0  0  0  0  0  0  0  0
   57.5796   33.3169   44.3408 H   0  0  0  0  0  0  0  0  0  0  0  0
   59.6798   33.6489   45.6953 H   0  0  0  0  0  0  0  0  0  0  0  0
   58.7181   34.7439   46.7828 H   0  0  0  0  0  0  0  0  0  0  0  0
   58.7154   32.6695   47.8990 H   0  0  0  0  0  0  0  0  0  0  0  0
   57.1167   32.7490   47.0546 H   0  0  0  0  0  0  0  0  0  0  0  0
   60.7372   28.3833   44.1817 H   0  0  0  0  0  0  0  0  0  0  0  0
   61.6189   29.0272   45.6103 H   0  0  0  0  0  0  0  0  0  0  0  0
   60.8969   26.6507   45.3187 H   0  0  0  0  0  0  0  0  0  0  0  0
   60.7001   26.6591   48.1820 H   0  0  0  0  0  0  0  0  0  0  0  0
   60.6746   28.2128   48.2550 H   0  0  0  0  0  0  0  0  0  0  0  0
   58.4891   26.3024   46.8204 H   0  0  0  0  0  0  0  0  0  0  0  0
   58.0792   27.7939   46.6566 H   0  0  0  0  0  0  0  0  0  0  0  0
   58.4022   28.0221   43.4305 H   0  0  0  0  0  0  0  0  0  0  0  0
   56.1678   28.7274   42.4772 H   0  0  0  0  0  0  0  0  0  0  0  0
   55.0284   30.7815   43.3672 H   0  0  0  0  0  0  0  0  0  0  0  0
  1  2  1  0
  2  3  1  0
  3  4  1  0
  4  5  1  0
  5  6  2  0
  5  7  1  0
  7  8  1  0
  8  9  1  0
  9 10  1  0
 10 11  1  0
  7 12  1  0
 12 13  2  0
 13 14  1  0
 14 15  2  0
 15 16  1  0
 16 17  2  0
 17  4  1  0
 11  9  1  0
 17 12  1  0
  1 18  1  0
  1 19  1  0
  1 20  1  0
  2 21  1  0
  2 22  1  0
  3 23  1  0
  3 24  1  0
  8 25  1  0
  8 26  1  0
  9 27  1  0
 10 28  1  0
 10 29  1  0
 11 30  1  0
 11 31  1  0
 13 32  1  0
 14 33  1  0
 15 34  1  0
M  END
>  <UniqueID>  (33) 
28

>  <SMILES>  (33) 
CCCn1c(=O)n(CC2CC2)c2cccnc21

>  <Energy>  (33) 
334.62235480945327

>  <Genealogy>  (33) 
CCCn1c(=O)n(CC2CC2)c2cccnc21 (3D coordinates assigned)
CCCn1c(=O)n(CC2CC2)c2cccnc21 (nonaromatic ring conformer: 334.62235480945327 kcal/mol)

>  <smiles>  (33) 
CCCn1c(=O)n(CC2CC2)c2cccnc21

>  <score_type>  (33) 
oracle

>  <origin>  (33) 
adg

>  <m_score__min__energy>  (33) 
-5.5999999999999996

>  <m_primary>  (33) 
energy

$$$$
33:0
     RDKit          3D

 51 53  0  0  1  0  0  0  0  0999 V2000
   57.3730   32.5070   40.7620 C   0  0  0  0  0  0  0  0  0  0  0  0
   57.5070   31.7860   42.0910 C   0  0  0  0  0  0  0  0  0  0  0  0
   57.9930   32.6900   43.1820 C   0  0  0  0  0  0  0  0  0  0  0  0
   57.8130   32.1620   44.5080 N   0  0  0  0  0  0  0  0  0  0  0  0
   57.1310   32.9950   45.4760 C   0  0  0  0  0  0  0  0  0  0  0  0
   58.0380   33.4130   46.5900 C   0  0  0  0  0  0  0  0  0  0  0  0
   58.7840   34.5610   46.3560 C   0  0  0  0  0  0  0  0  0  0  0  0
   59.6490   35.0120   47.3510 C   0  0  0  0  0  0  0  0  0  0  0  0
   59.7420   34.3110   48.5370 C   0  0  0  0  0  0  0  0  0  0  0  0
   58.9860   33.1580   48.7570 C   0  0  0  0  0  0  0  0  0  0  0  0
   58.1230   32.7030   47.7730 C   0  0  0  0  0  0  0  0  0  0  0  0
   58.2680   30.8940   44.9450 C   0  0  0  0  0  0  0  0  0  0  0  0
   59.4640   30.8860   45.6050 N   0  0  0  0  0  0  0  0  0  0  0  0
   59.9820   29.7380   46.0890 C   0  0  0  0  0  0  0  0  0  0  0  0
   61.1030   29.7530   46.7110 N   0  0  0  0  0  0  0  0  0  0  0  0
   61.1410   30.3760   48.0220 C   0  0  0  0  0  0  0  0  0  0  0  0
   62.0640   31.5610   47.8860 C   0  0  0  0  0  0  0  0  0  0  0  0
   61.8800   32.4930   46.8870 C   0  0  0  0  0  0  0  0  0  0  0  0
   62.6930   33.5930   46.7160 C   0  0  0  0  0  0  0  0  0  0  0  0
   63.7560   33.7820   47.5930 C   0  0  0  0  0  0  0  0  0  0  0  0
   63.9240   32.8370   48.5870 C   0  0  0  0  0  0  0  0  0  0  0  0
   63.1190   31.7490   48.7550 C   0  0  0  0  0  0  0  0  0  0  0  0
   59.3050   28.5690   45.9180 N   0  0  0  0  0  0  0  0  0  0  0  0
   58.1260   28.5650   45.2680 C   0  0  0  0  0  0  0  0  0  0  0  0
   57.5670   29.7390   44.7570 C   0  0  0  0  0  0  0  0  0  0  0  0
   56.3400   29.6250   44.0740 N   0  0  0  0  0  0  0  0  0  0  0  0
   56.1790   29.4470   42.8620 O   0  0  0  0  0  0  0  0  0  0  0  0
   55.1860   29.7220   44.8490 O   0  0  0  0  0  0  0  0  0  0  0  0
   57.1747   33.5739   40.9420 H   0  0  0  0  0  0  0  0  0  0  0  0
   58.3066   32.3989   40.1904 H   0  0  0  0  0  0  0  0  0  0  0  0
   56.5406   32.0707   40.1904 H   0  0  0  0  0  0  0  0  0  0  0  0
   56.5235   31.3844   42.3763 H   0  0  0  0  0  0  0  0  0  0  0  0
   58.2478   30.9827   41.9647 H   0  0  0  0  0  0  0  0  0  0  0  0
   59.0664   32.8730   43.0261 H   0  0  0  0  0  0  0  0  0  0  0  0
   57.3916   33.6091   43.1229 H   0  0  0  0  0  0  0  0  0  0  0  0
   56.7539   33.8948   44.9679 H   0  0  0  0  0  0  0  0  0  0  0  0
   56.3068   32.4092   45.9091 H   0  0  0  0  0  0  0  0  0  0  0  0
   58.6937   35.1037   45.4035 H   0  0  0  0  0  0  0  0  0  0  0  0
   60.2522   35.9182   47.1931 H   0  0  0  0  0  0  0  0  0  0  0  0
   60.4242   34.6675   49.3228 H   0  0  0  0  0  0  0  0  0  0  0  0
   59.0752   32.6127   49.7082 H   0  0  0  0  0  0  0  0  0  0  0  0
   57.5191   31.7971   47.9297 H   0  0  0  0  0  0  0  0  0  0  0  0
   60.1346   30.7062   48.3187 H   0  0  0  0  0  0  0  0  0  0  0  0
   61.4922   29.6752   48.7937 H   0  0  0  0  0  0  0  0  0  0  0  0
   61.0408   32.3515   46.1901 H   0  0  0  0  0  0  0  0  0  0  0  0
   62.5047   34.3078   45.9014 H   0  0  0  0  0  0  0  0  0  0  0  0
   64.4322   34.6446   47.4995 H   0  0  0  0  0  0  0  0  0  0  0  0
   64.7610   32.9709   49.2880 H   0  0  0  0  0  0  0  0  0  0  0  0
   63.3076   31.0338   49.5692 H   0  0  0  0  0  0  0  0  0  0  0  0
   59.7500   27.7120   46.3110 H   0  0  0  0  0  0  0  0  0  0  0  0
   57.5895   27.6138   45.1360 H   0  0  0  0  0  0  0  0  0  0  0  0
  1  2  1  0
  2  3  1  0
  3  4  1  0
  4  5  1  0
  5  6  1  0
  6  7  2  0
  7  8  1  0
  8  9  2  0
  9 10  1  0
 10 11  2  0
  4 12  1  0
 12 13  2  0
 13 14  1  0
 14 15  2  0
 15 16  1  0
 16 17  1  0
 17 18  2  0
 18 19  1  0
 19 20  2  0
 20 21  1  0
 21 22  2  0
 14 23  1  0
 23 24  1  0
 24 25  2  0
 25 26  1  0
 26 27  2  0
 26 28  1  0
 11  6  1  0
 25 12  1  0
 22 17  1  0
  1 29  1  0
  1 30  1  0
  1 31  1  0
  2 32  1  0
  2 33  1  0
  3 34  1  0
  3 35  1  0
  5 36  1  0
  5 37  1  0
  7 38  1  0
  8 39  1  0
  9 40  1  0
 10 41  1  0
 11 42  1  0
 16 43  1  0
 16 44  1  0
 18 45  1  0
 19 46  1  0
 20 47  1  0
 21 48  1  0
 22 49  1  0
 23 50  1  0
 24 51  1  0
M  CHG  2  26   1  28  -1
M  END
>  <smiles>  (34) 
CCCN(Cc1ccccc1)c1nc(=NCc2ccccc2)[nH]cc1[N+](=O)[O-]

>  <score_type>  (34) 
oracle

>  <origin>  (34) 
adg

>  <m_score__min__energy>  (34) 
-8.8900000000000006

>  <m_primary>  (34) 
energy

$$$$
34:0
     RDKit          3D

 39 41  0  0  0  0  0  0  0  0999 V2000
   57.7400   32.3460   41.5110 C   0  0  0  0  0  0  0  0  0  0  0  0
   57.3350   31.6690   42.6970 O   0  0  0  0  0  0  0  0  0  0  0  0
   57.7600   32.0040   43.9920 C   0  0  0  0  0  0  0  0  0  0  0  0
   57.3820   33.2130   44.6050 C   0  0  0  0  0  0  0  0  0  0  0  0
   57.8150   33.5220   45.8940 C   0  0  0  0  0  0  0  0  0  0  0  0
   58.6360   32.6330   46.6040 C   0  0  0  0  0  0  0  0  0  0  0  0
   59.0930   32.9610   47.9790 C   0  0  0  0  0  0  0  0  0  0  0  0
   60.1140   33.9080   48.1860 C   0  0  0  0  0  0  0  0  0  0  0  0
   60.5430   34.2150   49.4820 C   0  0  0  0  0  0  0  0  0  0  0  0
   59.9590   33.5810   50.5820 C   0  0  0  0  0  0  0  0  0  0  0  0
   58.9460   32.6400   50.3880 C   0  0  0  0  0  0  0  0  0  0  0  0
   58.5130   32.3300   49.0960 C   0  0  0  0  0  0  0  0  0  0  0  0
   59.0160   31.4260   45.9960 C   0  0  0  0  0  0  0  0  0  0  0  0
   58.5900   31.1020   44.6940 C   0  0  0  0  0  0  0  0  0  0  0  0
   58.9650   29.8350   44.1120 N   0  0  0  0  0  0  0  0  0  0  0  0
   58.6440   28.7630   45.0220 C   0  0  0  0  0  0  0  0  0  0  0  0
   57.3260   28.2820   45.1250 C   0  0  0  0  0  0  0  0  0  0  0  0
   57.0140   27.2610   46.0280 C   0  0  0  0  0  0  0  0  0  0  0  0
   58.0120   26.7120   46.8370 C   0  0  0  0  0  0  0  0  0  0  0  0
   59.3250   27.1820   46.7430 C   0  0  0  0  0  0  0  0  0  0  0  0
   59.6420   28.2020   45.8420 C   0  0  0  0  0  0  0  0  0  0  0  0
   58.2876   33.2613   41.7801 H   0  0  0  0  0  0  0  0  0  0  0  0
   58.3934   31.6887   40.9185 H   0  0  0  0  0  0  0  0  0  0  0  0
   56.8518   32.6108   40.9185 H   0  0  0  0  0  0  0  0  0  0  0  0
   56.7387   33.9211   44.0621 H   0  0  0  0  0  0  0  0  0  0  0  0
   57.5101   34.4714   46.3584 H   0  0  0  0  0  0  0  0  0  0  0  0
   60.5773   34.4096   47.3236 H   0  0  0  0  0  0  0  0  0  0  0  0
   61.3410   34.9564   49.6352 H   0  0  0  0  0  0  0  0  0  0  0  0
   60.2973   33.8233   51.6003 H   0  0  0  0  0  0  0  0  0  0  0  0
   58.4874   32.1412   51.2546 H   0  0  0  0  0  0  0  0  0  0  0  0
   57.7139   31.5882   48.9508 H   0  0  0  0  0  0  0  0  0  0  0  0
   59.6573   30.7217   46.5462 H   0  0  0  0  0  0  0  0  0  0  0  0
   59.9930   29.8220   43.9050 H   0  0  0  0  0  0  0  0  0  0  0  0
   58.4820   29.6970   43.1940 H   0  0  0  0  0  0  0  0  0  0  0  0
   56.5361   28.7117   44.4914 H   0  0  0  0  0  0  0  0  0  0  0  0
   55.9812   26.8895   46.1015 H   0  0  0  0  0  0  0  0  0  0  0  0
   57.7645   25.9099   47.5479 H   0  0  0  0  0  0  0  0  0  0  0  0
   60.1103   26.7481   47.3795 H   0  0  0  0  0  0  0  0  0  0  0  0
   60.6768   28.5687   45.7729 H   0  0  0  0  0  0  0  0  0  0  0  0
  1  2  1  0
  2  3  1  0
  3  4  2  0
  4  5  1  0
  5  6  2  0
  6  7  1  0
  7  8  2  0
  8  9  1  0
  9 10  2  0
 10 11  1  0
 11 12  2  0
  6 13  1  0
 13 14  2  0
 14 15  1  0
 15 16  1  0
 16 17  2  0
 17 18  1  0
 18 19  2  0
 19 20  1  0
 20 21  2  0
 14  3  1  0
 21 16  1  0
 12  7  1  0
  1 22  1  0
  1 23  1  0
  1 24  1  0
  4 25  1  0
  5 26  1  0
  8 27  1  0
  9 28  1  0
 10 29  1  0
 11 30  1  0
 12 31  1  0
 13 32  1  0
 15 33  1  0
 15 34  1  0
 17 35  1  0
 18 36  1  0
 19 37  1  0
 20 38  1  0
 21 39  1  0
M  CHG  1  15   1
M  END
>  <UniqueID>  (35) 
29

>  <SMILES>  (35) 
COc1ccc(-c2ccccc2)cc1[NH2+]c1ccccc1

>  <Energy>  (35) 
48.63531016141815

>  <Genealogy>  (35) 
COc1ccc(-c2ccccc2)cc1[NH2+]c1ccccc1 (protonated)
COc1ccc(-c2ccccc2)cc1[NH2+]c1ccccc1 (3D coordinates assigned)
COc1ccc(-c2ccccc2)cc1[NH2+]c1ccccc1 (optimized conformer: 48.63531016141815 kcal/mol)

>  <smiles>  (35) 
COc1ccc(-c2ccccc2)cc1Nc1ccccc1

>  <score_type>  (35) 
oracle

>  <origin>  (35) 
adg

>  <m_score__min__energy>  (35) 
-5.4199999999999999

>  <m_primary>  (35) 
energy

$$$$
35:0
     RDKit          3D

 35 37  0  0  0  0  0  0  0  0999 V2000
   55.2000   24.5030   45.4160 C   0  0  0  0  0  0  0  0  0  0  0  0
   55.4820   25.7700   46.0030 O   0  0  0  0  0  0  0  0  0  0  0  0
   56.6940   26.4620   45.8480 C   0  0  0  0  0  0  0  0  0  0  0  0
   57.8780   25.7200   45.7930 C   0  0  0  0  0  0  0  0  0  0  0  0
   59.1100   26.3610   45.6440 C   0  0  0  0  0  0  0  0  0  0  0  0
   59.1690   27.7510   45.5440 C   0  0  0  0  0  0  0  0  0  0  0  0
   57.9910   28.5170   45.5900 C   0  0  0  0  0  0  0  0  0  0  0  0
   58.0500   29.9980   45.4960 C   0  0  0  0  0  0  0  0  0  0  0  0
   59.1410   30.6920   46.0370 C   0  0  0  0  0  0  0  0  0  0  0  0
   59.2030   32.0880   45.9440 C   0  0  0  0  0  0  0  0  0  0  0  0
   60.2860   32.8240   46.4680 C   0  0  0  0  0  0  0  0  0  0  0  0
   61.3350   32.1410   47.1080 O   0  0  0  0  0  0  0  0  0  0  0  0
   62.6420   32.6710   47.3060 C   0  0  0  0  0  0  0  0  0  0  0  0
   60.2860   34.2270   46.3370 C   0  0  0  0  0  0  0  0  0  0  0  0
   59.2300   34.8810   45.6970 C   0  0  0  0  0  0  0  0  0  0  0  0
   58.1600   34.1490   45.1790 C   0  0  0  0  0  0  0  0  0  0  0  0
   58.1390   32.7580   45.2990 C   0  0  0  0  0  0  0  0  0  0  0  0
   57.1140   32.0710   44.8030 O   0  0  0  0  0  0  0  0  0  0  0  0
   57.0280   30.7470   44.8780 C   0  0  0  0  0  0  0  0  0  0  0  0
   56.0090   30.1760   44.4050 O   0  0  0  0  0  0  0  0  0  0  0  0
   56.7550   27.8650   45.7470 C   0  0  0  0  0  0  0  0  0  0  0  0
   55.0346   23.7598   46.2099 H   0  0  0  0  0  0  0  0  0  0  0  0
   54.2971   24.5806   44.7924 H   0  0  0  0  0  0  0  0  0  0  0  0
   56.0505   24.1903   44.7924 H   0  0  0  0  0  0  0  0  0  0  0  0
   57.8388   24.6232   45.8676 H   0  0  0  0  0  0  0  0  0  0  0  0
   60.0358   25.7683   45.6054 H   0  0  0  0  0  0  0  0  0  0  0  0
   60.1423   28.2504   45.4285 H   0  0  0  0  0  0  0  0  0  0  0  0
   59.9504   30.1388   46.5358 H   0  0  0  0  0  0  0  0  0  0  0  0
   62.8449   32.7533   48.3840 H   0  0  0  0  0  0  0  0  0  0  0  0
   63.3828   32.0022   46.8435 H   0  0  0  0  0  0  0  0  0  0  0  0
   62.7078   33.6669   46.8435 H   0  0  0  0  0  0  0  0  0  0  0  0
   61.1246   34.8124   46.7421 H   0  0  0  0  0  0  0  0  0  0  0  0
   59.2418   35.9767   45.6009 H   0  0  0  0  0  0  0  0  0  0  0  0
   57.3318   34.6691   44.6753 H   0  0  0  0  0  0  0  0  0  0  0  0
   55.8283   28.4559   45.7913 H   0  0  0  0  0  0  0  0  0  0  0  0
  1  2  1  0
  2  3  1  0
  3  4  2  0
  4  5  1  0
  5  6  2  0
  6  7  1  0
  7  8  1  0
  8  9  2  0
  9 10  1  0
 10 11  2  0
 11 12  1  0
 12 13  1  0
 11 14  1  0
 14 15  2  0
 15 16  1  0
 16 17  2  0
 17 18  1  0
 18 19  1  0
 19 20  2  0
  7 21  2  0
 21  3  1  0
 19  8  1  0
 17 10  1  0
  1 22  1  0
  1 23  1  0
  1 24  1  0
  4 25  1  0
  5 26  1  0
  6 27  1  0
  9 28  1  0
 13 29  1  0
 13 30  1  0
 13 31  1  0
 14 32  1  0
 15 33  1  0
 16 34  1  0
 21 35  1  0
M  END
>  <UniqueID>  (36) 
30

>  <SMILES>  (36) 
COc1cccc(-c2cc3c(OC)cccc3oc2=O)c1

>  <Energy>  (36) 
47.86168109992211

>  <Genealogy>  (36) 
COc1cccc(-c2cc3c(OC)cccc3oc2=O)c1 (3D coordinates assigned)
COc1cccc(-c2cc3c(OC)cccc3oc2=O)c1 (optimized conformer: 47.86168109992211 kcal/mol)

>  <smiles>  (36) 
COc1cccc(-c2cc3c(OC)cccc3oc2=O)c1

>  <score_type>  (36) 
oracle

>  <origin>  (36) 
adg

>  <m_score__min__energy>  (36) 
-7.46

>  <m_primary>  (36) 
energy

$$$$
36:0
     RDKit          3D

 32 34  0  0  0  0  0  0  0  0999 V2000
   58.2490   29.1690   46.4550 O   0  0  0  0  0  0  0  0  0  0  0  0
   57.2180   29.1720   45.7300 C   0  0  0  0  0  0  0  0  0  0  0  0
   56.7740   30.4110   45.1650 N   0  0  0  0  0  0  0  0  0  0  0  0
   57.4390   31.6760   45.2850 C   0  0  0  0  0  0  0  0  0  0  0  0
   57.6210   32.5230   44.1790 C   0  0  0  0  0  0  0  0  0  0  0  0
   58.2970   33.7380   44.3280 C   0  0  0  0  0  0  0  0  0  0  0  0
   58.8110   34.1130   45.5740 C   0  0  0  0  0  0  0  0  0  0  0  0
   59.6570   35.6480   45.7200 Cl  0  0  0  0  0  0  0  0  0  0  0  0
   58.6560   33.2570   46.6770 C   0  0  0  0  0  0  0  0  0  0  0  0
   59.3010   33.6810   48.2570 Cl  0  0  0  0  0  0  0  0  0  0  0  0
   57.9790   32.0400   46.5240 C   0  0  0  0  0  0  0  0  0  0  0  0
   56.4490   27.9700   45.5630 N   0  0  0  0  0  0  0  0  0  0  0  0
   56.9710   26.6490   45.7980 C   0  0  0  0  0  0  0  0  0  0  0  0
   58.3520   26.4430   45.9710 C   0  0  0  0  0  0  0  0  0  0  0  0
   58.8600   25.1570   46.1730 C   0  0  0  0  0  0  0  0  0  0  0  0
   58.0030   24.0550   46.1950 C   0  0  0  0  0  0  0  0  0  0  0  0
   56.6270   24.2350   46.0070 C   0  0  0  0  0  0  0  0  0  0  0  0
   55.7480   23.1450   46.0180 C   0  0  0  0  0  0  0  0  0  0  0  0
   54.3800   23.3520   45.8290 C   0  0  0  0  0  0  0  0  0  0  0  0
   53.9030   24.6510   45.6320 C   0  0  0  0  0  0  0  0  0  0  0  0
   52.6720   24.8520   45.4620 O   0  0  0  0  0  0  0  0  0  0  0  0
   54.7660   25.7010   45.6250 N   0  0  0  0  0  0  0  0  0  0  0  0
   56.1070   25.5360   45.8030 C   0  0  0  0  0  0  0  0  0  0  0  0
   57.2307   32.2297   43.1933 H   0  0  0  0  0  0  0  0  0  0  0  0
   58.4253   34.4025   43.4608 H   0  0  0  0  0  0  0  0  0  0  0  0
   57.8709   31.3644   47.3853 H   0  0  0  0  0  0  0  0  0  0  0  0
   55.4360   28.0720   45.3280 H   0  0  0  0  0  0  0  0  0  0  0  0
   59.0383   27.3023   45.9470 H   0  0  0  0  0  0  0  0  0  0  0  0
   59.9411   25.0121   46.3155 H   0  0  0  0  0  0  0  0  0  0  0  0
   58.4085   23.0458   46.3599 H   0  0  0  0  0  0  0  0  0  0  0  0
   56.1345   22.1272   46.1753 H   0  0  0  0  0  0  0  0  0  0  0  0
   53.6839   22.5003   45.8351 H   0  0  0  0  0  0  0  0  0  0  0  0
  1  2  2  0
  2  3  1  0
  3  4  1  0
  4  5  2  0
  5  6  1  0
  6  7  2  0
  7  8  1  0
  7  9  1  0
  9 10  1  0
  9 11  2  0
  2 12  1  0
 12 13  1  0
 13 14  2  0
 14 15  1  0
 15 16  2  0
 16 17  1  0
 17 18  1  0
 18 19  2  0
 19 20  1  0
 20 21  2  0
 20 22  1  0
 22 23  1  0
 11  4  1  0
 23 13  1  0
 23 17  2  0
  5 24  1  0
  6 25  1  0
 11 26  1  0
 12 27  1  0
 14 28  1  0
 15 29  1  0
 16 30  1  0
 18 31  1  0
 19 32  1  0
M  CHG  2   3  -1  22  -1
M  END
>  <UniqueID>  (37) 
31

>  <SMILES>  (37) 
O=C([N-]c1ccc(Cl)c(Cl)c1)Nc1cccc2ccc(=O)[n-]c12

>  <Energy>  (37) 
46.78903779580722

>  <Genealogy>  (37) 
O=C([N-]c1ccc(Cl)c(Cl)c1)Nc1cccc2ccc(=O)[n-]c12 (protonated)
O=C([N-]c1ccc(Cl)c(Cl)c1)Nc1cccc2ccc(=O)[n-]c12 (3D coordinates assigned)
O=C([N-]c1ccc(Cl)c(Cl)c1)Nc1cccc2ccc(=O)[n-]c12 (optimized conformer: 46.78903779580722 kcal/mol)

>  <smiles>  (37) 
O=C(Nc1ccc(Cl)c(Cl)c1)Nc1cccc2ccc(=O)[nH]c12

>  <score_type>  (37) 
oracle

>  <origin>  (37) 
adg

>  <m_score__min__energy>  (37) 
-11.83

>  <m_primary>  (37) 
energy

$$$$
37:0
     RDKit          3D

 40 42  0  0  0  0  0  0  0  0999 V2000
   56.5930   29.7480   42.8880 C   0  0  0  0  0  0  0  0  0  0  0  0
   55.5550   29.9770   43.9810 C   0  0  0  0  0  0  0  0  0  0  0  0
   55.9970   29.4290   45.2230 O   0  0  0  0  0  0  0  0  0  0  0  0
   57.2300   28.7920   45.4540 C   0  0  0  0  0  0  0  0  0  0  0  0
   57.3740   27.3920   45.3540 C   0  0  0  0  0  0  0  0  0  0  0  0
   58.6090   26.7860   45.5890 C   0  0  0  0  0  0  0  0  0  0  0  0
   59.7160   27.5610   45.9300 C   0  0  0  0  0  0  0  0  0  0  0  0
   59.5940   28.9470   46.0300 C   0  0  0  0  0  0  0  0  0  0  0  0
   58.3580   29.5780   45.7910 C   0  0  0  0  0  0  0  0  0  0  0  0
   58.2620   31.0530   45.9130 C   0  0  0  0  0  0  0  0  0  0  0  0
   58.8980   31.7650   46.8710 N   0  0  0  0  0  0  0  0  0  0  0  0
   58.5310   33.0340   46.6180 C   0  0  0  0  0  0  0  0  0  0  0  0
   58.8990   34.1970   47.4890 C   0  0  0  0  0  0  0  0  0  0  0  0
   59.7660   33.6290   48.9930 S   0  0  0  0  0  0  0  0  0  0  0  0
   61.3420   33.3790   48.1770 C   0  0  0  0  0  0  0  0  0  0  0  0
   62.2780   32.5670   48.7380 N   0  0  0  0  0  0  0  0  0  0  0  0
   63.4810   32.3760   48.1390 C   0  0  0  0  0  0  0  0  0  0  0  0
   63.7680   33.0150   46.9320 C   0  0  0  0  0  0  0  0  0  0  0  0
   62.7930   33.8400   46.3700 C   0  0  0  0  0  0  0  0  0  0  0  0
   61.6010   34.0040   46.9980 N   0  0  0  0  0  0  0  0  0  0  0  0
   57.6840   33.0480   45.5310 C   0  0  0  0  0  0  0  0  0  0  0  0
   57.0130   34.2320   44.9190 C   0  0  0  0  0  0  0  0  0  0  0  0
   57.5410   31.8160   45.1170 O   0  0  0  0  0  0  0  0  0  0  0  0
   57.5686   29.5328   43.3482 H   0  0  0  0  0  0  0  0  0  0  0  0
   56.2861   28.8960   42.2636 H   0  0  0  0  0  0  0  0  0  0  0  0
   56.6731   30.6501   42.2636 H   0  0  0  0  0  0  0  0  0  0  0  0
   55.3910   31.0580   44.1018 H   0  0  0  0  0  0  0  0  0  0  0  0
   54.6193   29.4780   43.6886 H   0  0  0  0  0  0  0  0  0  0  0  0
   56.5048   26.7724   45.0883 H   0  0  0  0  0  0  0  0  0  0  0  0
   58.7090   25.6938   45.5049 H   0  0  0  0  0  0  0  0  0  0  0  0
   60.6865   27.0795   46.1204 H   0  0  0  0  0  0  0  0  0  0  0  0
   60.4720   29.5530   46.2982 H   0  0  0  0  0  0  0  0  0  0  0  0
   59.5580   34.8749   46.9267 H   0  0  0  0  0  0  0  0  0  0  0  0
   57.9786   34.7200   47.7878 H   0  0  0  0  0  0  0  0  0  0  0  0
   64.2293   31.7179   48.6047 H   0  0  0  0  0  0  0  0  0  0  0  0
   64.7392   32.8718   46.4357 H   0  0  0  0  0  0  0  0  0  0  0  0
   62.9902   34.3568   45.4192 H   0  0  0  0  0  0  0  0  0  0  0  0
   56.6384   34.8930   45.7145 H   0  0  0  0  0  0  0  0  0  0  0  0
   57.7344   34.7807   44.2957 H   0  0  0  0  0  0  0  0  0  0  0  0
   56.1716   33.8951   44.2957 H   0  0  0  0  0  0  0  0  0  0  0  0
  1  2  1  0
  2  3  1  0
  3  4  1  0
  4  5  2  0
  5  6  1  0
  6  7  2  0
  7  8  1  0
  8  9  2  0
  9 10  1  0
 10 11  2  0
 11 12  1  0
 12 13  1  0
 13 14  1  0
 14 15  1  0
 15 16  2  0
 16 17  1  0
 17 18  2  0
 18 19  1  0
 19 20  2  0
 12 21  2  0
 21 22  1  0
 21 23  1  0
  9  4  1  0
 23 10  1  0
 20 15  1  0
  1 24  1  0
  1 25  1  0
  1 26  1  0
  2 27  1  0
  2 28  1  0
  5 29  1  0
  6 30  1  0
  7 31  1  0
  8 32  1  0
 13 33  1  0
 13 34  1  0
 17 35  1  0
 18 36  1  0
 19 37  1  0
 22 38  1  0
 22 39  1  0
 22 40  1  0
M  END
>  <UniqueID>  (38) 
32

>  <SMILES>  (38) 
CCOc1ccccc1-c1nc(CSc2ncccn2)c(C)o1

>  <Energy>  (38) 
65.56625102973531

>  <Genealogy>  (38) 
CCOc1ccccc1-c1nc(CSc2ncccn2)c(C)o1 (3D coordinates assigned)
CCOc1ccccc1-c1nc(CSc2ncccn2)c(C)o1 (optimized conformer: 65.56625102973531 kcal/mol)

>  <smiles>  (38) 
CCOc1ccccc1-c1nc(CSc2ncccn2)c(C)o1

>  <score_type>  (38) 
oracle

>  <origin>  (38) 
adg

>  <m_score__min__energy>  (38) 
-7.7599999999999998

>  <m_primary>  (38) 
energy

$$$$
38:0
     RDKit          3D

 50 52  0  0  0  0  0  0  0  0999 V2000
   63.8900   33.0950   47.9010 C   0  0  0  0  0  0  0  0  0  0  0  0
   63.0200   34.1510   48.5720 C   0  0  0  0  0  0  0  0  0  0  0  0
   61.6510   34.0670   48.0730 N   0  0  0  0  0  0  0  0  0  0  0  0
   61.2560   33.4240   46.9580 C   0  0  0  0  0  0  0  0  0  0  0  0
   59.8830   33.5170   46.8850 C   0  0  0  0  0  0  0  0  0  0  0  0
   58.9820   32.9240   45.8360 C   0  0  0  0  0  0  0  0  0  0  0  0
   58.5060   31.5710   46.2190 N   0  0  2  0  0  0  0  0  0  0  0  0
   59.5460   30.8300   47.0010 C   0  0  0  0  0  0  0  0  0  0  0  0
   60.3300   29.8050   46.1500 C   0  0  0  0  0  0  0  0  0  0  0  0
   59.4360   28.8010   45.5170 N   0  0  0  0  0  0  0  0  0  0  0  0
   59.5060   27.4460   46.1160 C   0  0  0  0  0  0  0  0  0  0  0  0
   58.5200   27.1830   47.2730 C   0  0  0  0  0  0  0  0  0  0  0  0
   57.2280   26.9210   46.7670 O   0  0  0  0  0  0  0  0  0  0  0  0
   57.2590   25.7540   45.9760 C   0  0  0  0  0  0  0  0  0  0  0  0
   58.0600   29.2960   45.2790 C   0  0  2  0  0  0  0  0  0  0  0  0
   57.4050   28.6330   44.0660 C   0  0  0  0  0  0  0  0  0  0  0  0
   56.1710   29.7930   43.5440 S   0  0  0  0  0  0  0  0  0  0  0  0
   54.7890   29.3400   43.9230 O   0  0  0  0  0  0  0  0  0  0  0  0
   56.2580   30.0630   42.0680 O   0  0  0  0  0  0  0  0  0  0  0  0
   56.6790   31.1970   44.4970 C   0  0  0  0  0  0  0  0  0  0  0  0
   58.0770   30.8160   45.0070 C   0  0  1  0  0  0  0  0  0  0  0  0
   59.5020   34.2300   48.0060 C   0  0  0  0  0  0  0  0  0  0  0  0
   60.6000   34.5480   48.7200 N   0  0  0  0  0  0  0  0  0  0  0  0
   64.3897   32.4885   48.6707 H   0  0  0  0  0  0  0  0  0  0  0  0
   63.2610   32.4460   47.2740 H   0  0  0  0  0  0  0  0  0  0  0  0
   64.6473   33.5882   47.2740 H   0  0  0  0  0  0  0  0  0  0  0  0
   63.0212   33.9855   49.6595 H   0  0  0  0  0  0  0  0  0  0  0  0
   63.4249   35.1479   48.3436 H   0  0  0  0  0  0  0  0  0  0  0  0
   61.9113   32.9158   46.2353 H   0  0  0  0  0  0  0  0  0  0  0  0
   58.1114   33.5826   45.7007 H   0  0  0  0  0  0  0  0  0  0  0  0
   59.5574   32.8326   44.9030 H   0  0  0  0  0  0  0  0  0  0  0  0
   57.6710   31.6820   46.8440 H   0  0  0  0  0  0  0  0  0  0  0  0
   60.2583   31.5591   47.4146 H   0  0  0  0  0  0  0  0  0  0  0  0
   59.0244   30.2694   47.7907 H   0  0  0  0  0  0  0  0  0  0  0  0
   60.8743   30.3430   45.3598 H   0  0  0  0  0  0  0  0  0  0  0  0
   61.0206   29.2691   46.8178 H   0  0  0  0  0  0  0  0  0  0  0  0
   59.3011   26.7128   45.3220 H   0  0  0  0  0  0  0  0  0  0  0  0
   60.5131   27.3576   46.5496 H   0  0  0  0  0  0  0  0  0  0  0  0
   58.8652   26.3147   47.8534 H   0  0  0  0  0  0  0  0  0  0  0  0
   58.4779   28.0743   47.9163 H   0  0  0  0  0  0  0  0  0  0  0  0
   57.2825   24.8690   46.6289 H   0  0  0  0  0  0  0  0  0  0  0  0
   56.3615   25.7175   45.3410 H   0  0  0  0  0  0  0  0  0  0  0  0
   58.1572   25.7652   45.3410 H   0  0  0  0  0  0  0  0  0  0  0  0
   57.4864   29.0529   46.1856 H   0  0  0  0  0  0  0  0  0  0  0  0
   58.1434   28.4646   43.2683 H   0  0  0  0  0  0  0  0  0  0  0  0
   56.9798   27.6471   44.3052 H   0  0  0  0  0  0  0  0  0  0  0  0
   56.7245   32.0994   43.8696 H   0  0  0  0  0  0  0  0  0  0  0  0
   55.9797   31.4288   45.3139 H   0  0  0  0  0  0  0  0  0  0  0  0
   58.8173   31.0847   44.2390 H   0  0  0  0  0  0  0  0  0  0  0  0
   58.4683   34.4954   48.2727 H   0  0  0  0  0  0  0  0  0  0  0  0
  1  2  1  0
  2  3  1  0
  3  4  1  0
  4  5  2  0
  5  6  1  0
  6  7  1  0
  7  8  1  0
  8  9  1  0
  9 10  1  0
 10 11  1  0
 11 12  1  0
 12 13  1  0
 13 14  1  0
 10 15  1  0
 15 16  1  0
 16 17  1  0
 17 18  2  0
 17 19  2  0
 17 20  1  0
 20 21  1  0
  5 22  1  0
 22 23  2  0
 23  3  1  0
 21  7  1  0
 21 15  1  0
  1 24  1  0
  1 25  1  0
  1 26  1  0
  2 27  1  0
  2 28  1  0
  4 29  1  0
  6 30  1  0
  6 31  1  0
  7 32  1  1
  8 33  1  0
  8 34  1  0
  9 35  1  0
  9 36  1  0
 11 37  1  0
 11 38  1  0
 12 39  1  0
 12 40  1  0
 14 41  1  0
 14 42  1  0
 14 43  1  0
 15 44  1  1
 16 45  1  0
 16 46  1  0
 20 47  1  0
 20 48  1  0
 21 49  1  6
 22 50  1  0
M  CHG  1   7   1
M  END
>  <UniqueID>  (39) 
33

>  <SMILES>  (39) 
CCn1cc(C[N@@H+]2CCN(CCOC)[C@@H]3CS(=O)(=O)CC32)cn1

>  <Energy>  (39) 
94.3471321155816

>  <Genealogy>  (39) 
CCn1cc(C[NH+]2CCN(CCOC)C3CS(=O)(=O)CC32)cn1 (protonated)
CCn1cc(C[N@@H+]2CCN(CCOC)[C@@H]3CS(=O)(=O)CC32)cn1 (chirality)
CCn1cc(C[N@@H+]2CCN(CCOC)[C@@H]3CS(=O)(=O)CC32)cn1 (3D coordinates assigned)
CCn1cc(C[N@@H+]2CCN(CCOC)[C@@H]3CS(=O)(=O)CC32)cn1 (nonaromatic ring conformer: 94.3471321155816 kcal/mol)

>  <smiles>  (39) 
CCn1cc(CN2CCN(CCOC)C3CS(=O)(=O)CC32)cn1

>  <score_type>  (39) 
oracle

>  <origin>  (39) 
adg

>  <m_score__min__energy>  (39) 
-5.6399999999999997

>  <m_primary>  (39) 
energy

$$$$
39:0
     RDKit          3D

 47 49  0  0  0  0  0  0  0  0999 V2000
   55.4080   25.1050   45.5800 C   0  0  0  0  0  0  0  0  0  0  0  0
   55.4960   26.4650   45.9980 O   0  0  0  0  0  0  0  0  0  0  0  0
   56.6870   27.2060   46.0440 C   0  0  0  0  0  0  0  0  0  0  0  0
   57.8460   26.7200   46.6780 C   0  0  0  0  0  0  0  0  0  0  0  0
   59.0150   27.4830   46.6930 C   0  0  0  0  0  0  0  0  0  0  0  0
   59.0470   28.7430   46.0830 C   0  0  0  0  0  0  0  0  0  0  0  0
   60.3320   29.5270   46.0390 C   0  0  0  0  0  0  0  0  0  0  0  0
   60.3820   30.4980   47.1440 N   0  0  0  0  0  0  0  0  0  0  0  0
   61.4890   30.4390   48.1080 C   0  0  0  0  0  0  0  0  0  0  0  0
   62.4370   31.5820   47.9060 C   0  0  0  0  0  0  0  0  0  0  0  0
   63.4750   31.9260   48.7470 C   0  0  0  0  0  0  0  0  0  0  0  0
   64.0630   33.0360   48.1770 C   0  0  0  0  0  0  0  0  0  0  0  0
   63.3540   33.2930   47.0220 C   0  0  0  0  0  0  0  0  0  0  0  0
   62.3940   32.4070   46.8860 O   0  0  0  0  0  0  0  0  0  0  0  0
   59.2380   31.3280   47.4340 C   0  0  0  0  0  0  0  0  0  0  0  0
   58.5560   31.1050   48.4710 O   0  0  0  0  0  0  0  0  0  0  0  0
   58.8530   32.4490   46.5480 C   0  0  0  0  0  0  0  0  0  0  0  0
   57.6180   32.4290   45.8790 C   0  0  0  0  0  0  0  0  0  0  0  0
   57.2460   33.4940   45.0520 C   0  0  0  0  0  0  0  0  0  0  0  0
   58.0970   34.5900   44.8950 C   0  0  0  0  0  0  0  0  0  0  0  0
   59.3210   34.6260   45.5680 C   0  0  0  0  0  0  0  0  0  0  0  0
   59.6970   33.5630   46.3950 C   0  0  0  0  0  0  0  0  0  0  0  0
   57.8900   29.2360   45.4610 C   0  0  0  0  0  0  0  0  0  0  0  0
   56.7100   28.4690   45.4310 C   0  0  0  0  0  0  0  0  0  0  0  0
   55.5430   28.9230   44.7960 O   0  0  0  0  0  0  0  0  0  0  0  0
   55.5250   29.7610   43.6460 C   0  0  0  0  0  0  0  0  0  0  0  0
   55.3657   24.4517   46.4640 H   0  0  0  0  0  0  0  0  0  0  0  0
   54.4989   24.9649   44.9767 H   0  0  0  0  0  0  0  0  0  0  0  0
   56.2915   24.8489   44.9767 H   0  0  0  0  0  0  0  0  0  0  0  0
   57.8305   25.7335   47.1644 H   0  0  0  0  0  0  0  0  0  0  0  0
   59.9166   27.0919   47.1871 H   0  0  0  0  0  0  0  0  0  0  0  0
   61.1818   28.8342   46.1273 H   0  0  0  0  0  0  0  0  0  0  0  0
   60.3839   30.0715   45.0846 H   0  0  0  0  0  0  0  0  0  0  0  0
   61.0807   30.4861   49.1283 H   0  0  0  0  0  0  0  0  0  0  0  0
   62.0370   29.4974   47.9559 H   0  0  0  0  0  0  0  0  0  0  0  0
   63.7718   31.4206   49.6779 H   0  0  0  0  0  0  0  0  0  0  0  0
   64.9230   33.6016   48.5649 H   0  0  0  0  0  0  0  0  0  0  0  0
   63.5612   34.1152   46.3212 H   0  0  0  0  0  0  0  0  0  0  0  0
   56.9403   31.5719   46.0061 H   0  0  0  0  0  0  0  0  0  0  0  0
   56.2812   33.4681   44.5243 H   0  0  0  0  0  0  0  0  0  0  0  0
   57.8038   35.4249   44.2416 H   0  0  0  0  0  0  0  0  0  0  0  0
   59.9893   35.4913   45.4471 H   0  0  0  0  0  0  0  0  0  0  0  0
   60.6582   33.5985   46.9287 H   0  0  0  0  0  0  0  0  0  0  0  0
   57.9051   30.2311   44.9924 H   0  0  0  0  0  0  0  0  0  0  0  0
   55.5024   30.8148   43.9605 H   0  0  0  0  0  0  0  0  0  0  0  0
   56.4273   29.5773   43.0443 H   0  0  0  0  0  0  0  0  0  0  0  0
   54.6314   29.5387   43.0443 H   0  0  0  0  0  0  0  0  0  0  0  0
  1  2  1  0
  2  3  1  0
  3  4  2  0
  4  5  1  0
  5  6  2  0
  6  7  1  0
  7  8  1  0
  8  9  1  0
  9 10  1  0
 10 11  2  0
 11 12  1  0
 12 13  2  0
 13 14  1  0
  8 15  1  0
 15 16  2  0
 15 17  1  0
 17 18  2  0
 18 19  1  0
 19 20  2  0
 20 21  1  0
 21 22  2  0
  6 23  1  0
 23 24  2  0
 24 25  1  0
 25 26  1  0
 24  3  1  0
 14 10  1  0
 22 17  1  0
  1 27  1  0
  1 28  1  0
  1 29  1  0
  4 30  1  0
  5 31  1  0
  7 32  1  0
  7 33  1  0
  9 34  1  0
  9 35  1  0
 11 36  1  0
 12 37  1  0
 13 38  1  0
 18 39  1  0
 19 40  1  0
 20 41  1  0
 21 42  1  0
 22 43  1  0
 23 44  1  0
 26 45  1  0
 26 46  1  0
 26 47  1  0
M  END
>  <UniqueID>  (40) 
34

>  <SMILES>  (40) 
COc1ccc(CN(Cc2ccco2)C(=O)c2ccccc2)cc1OC

>  <Energy>  (40) 
73.41112630614768

>  <Genealogy>  (40) 
COc1ccc(CN(Cc2ccco2)C(=O)c2ccccc2)cc1OC (3D coordinates assigned)
COc1ccc(CN(Cc2ccco2)C(=O)c2ccccc2)cc1OC (optimized conformer: 73.41112630614768 kcal/mol)

>  <smiles>  (40) 
COc1ccc(CN(Cc2ccco2)C(=O)c2ccccc2)cc1OC

>  <score_type>  (40) 
oracle

>  <origin>  (40) 
adg

>  <m_score__min__energy>  (40) 
-8.3699999999999992

>  <m_primary>  (40) 
energy

$$$$
40:0
     RDKit          3D

 34 36  0  0  0  0  0  0  0  0999 V2000
   58.8780   34.8040   46.2090 C   0  0  0  0  0  0  0  0  0  0  0  0
   58.2940   34.2600   44.9100 C   0  0  0  0  0  0  0  0  0  0  0  0
   58.0470   32.8250   45.0270 N   0  0  0  0  0  0  0  0  0  0  0  0
   57.0860   32.1180   44.3870 C   0  0  0  0  0  0  0  0  0  0  0  0
   57.2060   30.7590   44.6840 C   0  0  0  0  0  0  0  0  0  0  0  0
   56.3450   29.6820   44.1670 C   0  0  0  0  0  0  0  0  0  0  0  0
   55.1480   29.3350   44.8580 N   0  0  0  0  0  0  0  0  0  0  0  0
   56.6570   29.0600   43.1170 O   0  0  0  0  0  0  0  0  0  0  0  0
   58.2990   30.6580   45.5330 C   0  0  0  0  0  0  0  0  0  0  0  0
   58.9270   29.5730   46.1410 C   0  0  0  0  0  0  0  0  0  0  0  0
   60.0560   29.8320   46.9350 C   0  0  0  0  0  0  0  0  0  0  0  0
   60.5240   31.1660   47.0990 C   0  0  0  0  0  0  0  0  0  0  0  0
   61.7210   31.4740   47.9210 C   0  0  0  0  0  0  0  0  0  0  0  0
   61.8980   30.9180   49.2020 C   0  0  0  0  0  0  0  0  0  0  0  0
   63.0350   31.2400   49.9470 C   0  0  0  0  0  0  0  0  0  0  0  0
   63.9670   32.0930   49.4420 N   0  0  0  0  0  0  0  0  0  0  0  0
   63.8190   32.6550   48.2120 C   0  0  0  0  0  0  0  0  0  0  0  0
   62.6960   32.3600   47.4340 C   0  0  0  0  0  0  0  0  0  0  0  0
   59.8700   32.1890   46.4680 N   0  0  0  0  0  0  0  0  0  0  0  0
   58.7780   31.9260   45.7080 C   0  0  0  0  0  0  0  0  0  0  0  0
   58.3719   34.3325   47.0643 H   0  0  0  0  0  0  0  0  0  0  0  0
   59.9539   34.5788   46.2500 H   0  0  0  0  0  0  0  0  0  0  0  0
   58.7296   35.8932   46.2500 H   0  0  0  0  0  0  0  0  0  0  0  0
   57.3462   34.7750   44.6946 H   0  0  0  0  0  0  0  0  0  0  0  0
   59.0114   34.4343   44.0945 H   0  0  0  0  0  0  0  0  0  0  0  0
   56.3202   32.5521   43.7274 H   0  0  0  0  0  0  0  0  0  0  0  0
   55.1570   28.6310   45.6280 H   0  0  0  0  0  0  0  0  0  0  0  0
   58.5512   28.5483   46.0037 H   0  0  0  0  0  0  0  0  0  0  0  0
   60.5799   29.0018   47.4314 H   0  0  0  0  0  0  0  0  0  0  0  0
   61.1436   30.2323   49.6150 H   0  0  0  0  0  0  0  0  0  0  0  0
   63.1774   30.8021   50.9460 H   0  0  0  0  0  0  0  0  0  0  0  0
   64.8110   32.3240   50.0120 H   0  0  0  0  0  0  0  0  0  0  0  0
   64.5859   33.3440   47.8284 H   0  0  0  0  0  0  0  0  0  0  0  0
   62.5760   32.8207   46.4424 H   0  0  0  0  0  0  0  0  0  0  0  0
  1  2  1  0
  2  3  1  0
  3  4  1  0
  4  5  2  0
  5  6  1  0
  6  7  1  0
  6  8  2  0
  5  9  1  0
  9 10  2  0
 10 11  1  0
 11 12  2  0
 12 13  1  0
 13 14  2  0
 14 15  1  0
 15 16  2  0
 16 17  1  0
 17 18  2  0
 12 19  1  0
 19 20  2  0
 20  3  1  0
 20  9  1  0
 18 13  1  0
  1 21  1  0
  1 22  1  0
  1 23  1  0
  2 24  1  0
  2 25  1  0
  4 26  1  0
  7 27  1  0
 10 28  1  0
 11 29  1  0
 14 30  1  0
 15 31  1  0
 16 32  1  0
 17 33  1  0
 18 34  1  0
M  CHG  2   7  -1  16   1
M  END
>  <UniqueID>  (41) 
35

>  <SMILES>  (41) 
CCn1cc(C([NH-])=O)c2ccc(-c3cc[nH+]cc3)nc21

>  <Energy>  (41) 
71.60870107320538

>  <Genealogy>  (41) 
CCn1cc(C([NH-])=O)c2ccc(-c3cc[nH+]cc3)nc21 (protonated)
CCn1cc(C([NH-])=O)c2ccc(-c3cc[nH+]cc3)nc21 (3D coordinates assigned)
CCn1cc(C([NH-])=O)c2ccc(-c3cc[nH+]cc3)nc21 (optimized conformer: 71.60870107320538 kcal/mol)

>  <smiles>  (41) 
CCn1cc(C(N)=O)c2ccc(-c3ccncc3)nc21

>  <score_type>  (41) 
oracle

>  <origin>  (41) 
adg

>  <m_score__min__energy>  (41) 
-8.6500000000000004

>  <m_primary>  (41) 
energy

$$$$
41:0
     RDKit          3D

 36 38  0  0  0  0  0  0  0  0999 V2000
   60.5217   35.3903   46.0476 H   0  0  0  0  0  0  0  0  0  0  0  0
   60.1360   34.6030   46.7120 C   0  0  0  0  0  0  0  0  0  0  0  0
   60.5280   34.6090   47.9560 N   0  0  0  0  0  0  0  0  0  0  0  0
   61.7420   34.0580   48.4900 C   0  0  0  0  0  0  0  0  0  0  0  0
   62.6910   33.4330   47.6640 C   0  0  0  0  0  0  0  0  0  0  0  0
   62.5022   33.3430   46.5841 H   0  0  0  0  0  0  0  0  0  0  0  0
   63.8740   32.9250   48.2080 C   0  0  0  0  0  0  0  0  0  0  0  0
   64.5998   32.4173   47.5557 H   0  0  0  0  0  0  0  0  0  0  0  0
   64.1450   33.0570   49.5820 C   0  0  0  0  0  0  0  0  0  0  0  0
   65.3640   32.5300   50.1440 N   0  0  0  0  0  0  0  0  0  0  0  0
   66.5910   33.0910   50.1160 C   0  0  0  0  0  0  0  0  0  0  0  0
   66.8083   34.0576   49.6379 H   0  0  0  0  0  0  0  0  0  0  0  0
   67.5230   32.3380   50.7380 N   0  0  0  0  0  0  0  0  0  0  0  0
   66.8430   31.2580   51.1720 C   0  0  0  0  0  0  0  0  0  0  0  0
   67.2788   30.4162   51.7300 H   0  0  0  0  0  0  0  0  0  0  0  0
   65.5200   31.3700   50.8100 C   0  0  0  0  0  0  0  0  0  0  0  0
   64.7274   30.6388   51.0270 H   0  0  0  0  0  0  0  0  0  0  0  0
   63.2080   33.7200   50.3950 C   0  0  0  0  0  0  0  0  0  0  0  0
   63.4090   33.8429   51.4695 H   0  0  0  0  0  0  0  0  0  0  0  0
   62.0240   34.2240   49.8500 C   0  0  0  0  0  0  0  0  0  0  0  0
   61.3086   34.7551   50.4951 H   0  0  0  0  0  0  0  0  0  0  0  0
   59.2060   33.6060   46.1360 C   0  0  0  0  0  0  0  0  0  0  0  0
   58.0780   34.0490   45.4330 C   0  0  0  0  0  0  0  0  0  0  0  0
   57.9029   35.1274   45.3053 H   0  0  0  0  0  0  0  0  0  0  0  0
   57.1740   33.1310   44.8930 C   0  0  0  0  0  0  0  0  0  0  0  0
   56.2994   33.4907   44.3311 H   0  0  0  0  0  0  0  0  0  0  0  0
   57.3760   31.7470   45.0640 C   0  0  0  0  0  0  0  0  0  0  0  0
   56.4960   30.7930   44.5320 O   0  0  0  0  0  0  0  0  0  0  0  0
   56.6290   30.2050   43.2410 C   0  0  0  0  0  0  0  0  0  0  0  0
   56.8705   29.1372   43.3476 H   0  0  0  0  0  0  0  0  0  0  0  0
   55.6836   30.3138   42.6894 H   0  0  0  0  0  0  0  0  0  0  0  0
   57.4356   30.7101   42.6894 H   0  0  0  0  0  0  0  0  0  0  0  0
   58.4900   31.3050   45.7950 C   0  0  0  0  0  0  0  0  0  0  0  0
   58.7970   29.4370   46.0670 Br  0  0  0  0  0  0  0  0  0  0  0  0
   59.3900   32.2280   46.3370 C   0  0  0  0  0  0  0  0  0  0  0  0
   60.2487   31.8722   46.9253 H   0  0  0  0  0  0  0  0  0  0  0  0
  1  2  1  0
  2  3  2  0
  3  4  1  0
  4  5  2  0
  5  6  1  0
  5  7  1  0
  7  8  1  0
  7  9  2  0
  9 10  1  0
 10 11  1  0
 11 12  1  0
 11 13  2  0
 13 14  1  0
 14 15  1  0
 14 16  2  0
 16 17  1  0
  9 18  1  0
 18 19  1  0
 18 20  2  0
 20 21  1  0
  2 22  1  0
 22 23  2  0
 23 24  1  0
 23 25  1  0
 25 26  1  0
 25 27  2  0
 27 28  1  0
 28 29  1  0
 29 30  1  0
 29 31  1  0
 29 32  1  0
 27 33  1  0
 33 34  1  0
 33 35  2  0
 35 36  1  0
 20  4  1  0
 35 22  1  0
 16 10  1  0
M  END
>  <UniqueID>  (42) 
36

>  <SMILES>  (42) 
COc1ccc(/C=N\c2ccc(-n3ccnc3)cc2)cc1Br

>  <Energy>  (42) 
81.56841405900062

>  <Genealogy>  (42) 
COc1ccc(/C=N\c2ccc(-n3ccnc3)cc2)cc1Br (cis-trans isomerization)
COc1ccc(/C=N\c2ccc(-n3ccnc3)cc2)cc1Br (3D coordinates assigned)
COc1ccc(/C=N\c2ccc(-n3ccnc3)cc2)cc1Br (optimized conformer: 81.56841405900062 kcal/mol)

>  <smiles>  (42) 
COc1ccc(C=Nc2ccc(-n3ccnc3)cc2)cc1Br

>  <score_type>  (42) 
oracle

>  <origin>  (42) 
adg

>  <m_score__min__energy>  (42) 
-7.3399999999999999

>  <m_primary>  (42) 
energy

$$$$
42:0
     RDKit          3D

 26 28  0  0  0  0  0  0  0  0999 V2000
   58.6327   33.3158   47.7256 H   0  0  0  0  0  0  0  0  0  0  0  0
   58.4100   33.0160   46.6910 C   0  0  0  0  0  0  0  0  0  0  0  0
   57.7700   31.7980   46.4390 C   0  0  0  0  0  0  0  0  0  0  0  0
   57.4719   31.1513   47.2774 H   0  0  0  0  0  0  0  0  0  0  0  0
   57.5080   31.4000   45.1240 C   0  0  0  0  0  0  0  0  0  0  0  0
   56.7980   30.1810   44.8820 N   0  0  0  0  0  0  0  0  0  0  0  0
   57.0610   28.9840   45.3320 C   0  0  0  0  0  0  0  0  0  0  0  0
   58.2960   28.5370   45.9080 C   0  0  0  0  0  0  0  0  0  0  0  0
   59.4290   29.2830   46.2920 C   0  0  0  0  0  0  0  0  0  0  0  0
   59.4542   30.3721   46.1399 H   0  0  0  0  0  0  0  0  0  0  0  0
   60.5260   28.6220   46.8710 C   0  0  0  0  0  0  0  0  0  0  0  0
   61.4230   29.1956   47.1472 H   0  0  0  0  0  0  0  0  0  0  0  0
   60.4890   27.2350   47.1010 C   0  0  0  0  0  0  0  0  0  0  0  0
   61.3621   26.7281   47.5377 H   0  0  0  0  0  0  0  0  0  0  0  0
   59.3450   26.4980   46.7760 C   0  0  0  0  0  0  0  0  0  0  0  0
   59.2925   25.4171   46.9733 H   0  0  0  0  0  0  0  0  0  0  0  0
   58.2760   27.1730   46.1960 C   0  0  0  0  0  0  0  0  0  0  0  0
   56.7690   26.5960   45.8000 S   0  0  0  0  0  0  0  0  0  0  0  0
   56.1060   28.0170   45.2520 N   0  0  0  0  0  0  0  0  0  0  0  0
   55.1410   28.1340   44.8670 H   0  0  0  0  0  0  0  0  0  0  0  0
   57.8350   32.2580   44.0600 C   0  0  0  0  0  0  0  0  0  0  0  0
   57.5883   31.9715   43.0270 H   0  0  0  0  0  0  0  0  0  0  0  0
   58.4740   33.4760   44.3140 C   0  0  0  0  0  0  0  0  0  0  0  0
   58.7464   34.1382   43.4789 H   0  0  0  0  0  0  0  0  0  0  0  0
   58.7670   33.8530   45.6290 C   0  0  0  0  0  0  0  0  0  0  0  0
   59.6400   35.5160   45.9730 Br  0  0  0  0  0  0  0  0  0  0  0  0
  1  2  1  0
  2  3  2  0
  3  4  1  0
  3  5  1  0
  5  6  1  0
  6  7  2  0
  7  8  1  0
  8  9  2  0
  9 10  1  0
  9 11  1  0
 11 12  1  0
 11 13  2  0
 13 14  1  0
 13 15  1  0
 15 16  1  0
 15 17  2  0
 17 18  1  0
 18 19  1  0
 19 20  1  0
  5 21  2  0
 21 22  1  0
 21 23  1  0
 23 24  1  0
 23 25  2  0
 25 26  1  0
 25  2  1  0
 19  7  1  0
 17  8  1  0
M  END
>  <UniqueID>  (43) 
37

>  <SMILES>  (43) 
Brc1ccc(/N=c2/[nH]sc3ccccc23)cc1

>  <Energy>  (43) 
81.88710026814243

>  <Genealogy>  (43) 
Brc1ccc(/N=c2/[nH]sc3ccccc23)cc1 (cis-trans isomerization)
Brc1ccc(/N=c2/[nH]sc3ccccc23)cc1 (3D coordinates assigned)
Brc1ccc(/N=c2/[nH]sc3ccccc23)cc1 (optimized conformer: 81.88710026814243 kcal/mol)

>  <smiles>  (43) 
Brc1ccc(N=c2[nH]sc3ccccc23)cc1

>  <score_type>  (43) 
oracle

>  <origin>  (43) 
adg

>  <m_score__min__energy>  (43) 
-7.3099999999999996

>  <m_primary>  (43) 
energy

$$$$
43:0
     RDKit          3D

 45 47  0  0  0  0  0  0  0  0999 V2000
   60.7060   30.4130   46.7670 C   0  0  0  0  0  0  0  0  0  0  0  0
   60.2470   29.0730   46.2010 C   0  0  0  0  0  0  0  0  0  0  0  0
   59.6020   29.2140   44.8140 C   0  0  0  0  0  0  0  0  0  0  0  0
   58.1340   29.2540   44.8810 N   0  0  0  0  0  0  0  0  0  0  0  0
   57.3070   30.3210   45.0390 C   0  0  0  0  0  0  0  0  0  0  0  0
   57.7300   31.7260   45.1710 C   0  0  0  0  0  0  0  0  0  0  0  0
   57.7910   32.3450   46.4310 C   0  0  0  0  0  0  0  0  0  0  0  0
   58.1810   33.6840   46.5390 C   0  0  0  0  0  0  0  0  0  0  0  0
   58.5170   34.4100   45.3930 C   0  0  0  0  0  0  0  0  0  0  0  0
   58.4780   33.7950   44.1380 C   0  0  0  0  0  0  0  0  0  0  0  0
   58.0970   32.4540   44.0270 C   0  0  0  0  0  0  0  0  0  0  0  0
   56.0110   29.9450   45.0700 N   0  0  0  0  0  0  0  0  0  0  0  0
   56.0020   28.6310   44.9080 N   0  0  0  0  0  0  0  0  0  0  0  0
   57.2740   28.2150   44.7960 C   0  0  0  0  0  0  0  0  0  0  0  0
   57.7350   26.4970   44.5390 S   0  0  0  0  0  0  0  0  0  0  0  0
   57.1260   25.9560   46.1700 C   0  0  0  0  0  0  0  0  0  0  0  0
   55.7090   25.4740   46.0560 C   0  0  0  0  0  0  0  0  0  0  0  0
   54.7840   26.3250   45.9650 O   0  0  0  0  0  0  0  0  0  0  0  0
   55.3880   24.0850   45.9140 N   0  0  0  0  0  0  0  0  0  0  0  0
   55.9560   23.1720   44.9670 C   0  0  0  0  0  0  0  0  0  0  0  0
   56.6140   21.9990   45.3780 C   0  0  0  0  0  0  0  0  0  0  0  0
   57.1360   21.1150   44.4280 C   0  0  0  0  0  0  0  0  0  0  0  0
   56.9960   21.3900   43.0660 C   0  0  0  0  0  0  0  0  0  0  0  0
   56.3180   22.5420   42.6510 C   0  0  0  0  0  0  0  0  0  0  0  0
   55.7890   23.4220   43.6000 C   0  0  0  0  0  0  0  0  0  0  0  0
   60.6916   30.3710   47.8661 H   0  0  0  0  0  0  0  0  0  0  0  0
   61.7284   30.6261   46.4215 H   0  0  0  0  0  0  0  0  0  0  0  0
   60.0290   31.2082   46.4215 H   0  0  0  0  0  0  0  0  0  0  0  0
   61.1184   28.4067   46.1194 H   0  0  0  0  0  0  0  0  0  0  0  0
   59.4886   28.6623   46.8837 H   0  0  0  0  0  0  0  0  0  0  0  0
   59.9601   30.1452   44.3507 H   0  0  0  0  0  0  0  0  0  0  0  0
   59.8871   28.3332   44.2200 H   0  0  0  0  0  0  0  0  0  0  0  0
   57.5313   31.7749   47.3352 H   0  0  0  0  0  0  0  0  0  0  0  0
   58.2233   34.1660   47.5269 H   0  0  0  0  0  0  0  0  0  0  0  0
   58.8124   35.4661   45.4785 H   0  0  0  0  0  0  0  0  0  0  0  0
   58.7472   34.3663   43.2373 H   0  0  0  0  0  0  0  0  0  0  0  0
   58.0847   31.9676   43.0405 H   0  0  0  0  0  0  0  0  0  0  0  0
   55.1410   28.0390   44.8800 H   0  0  0  0  0  0  0  0  0  0  0  0
   57.7600   25.1378   46.5423 H   0  0  0  0  0  0  0  0  0  0  0  0
   57.1631   26.8049   46.8686 H   0  0  0  0  0  0  0  0  0  0  0  0
   56.7185   21.7760   46.4501 H   0  0  0  0  0  0  0  0  0  0  0  0
   57.6571   20.2027   44.7539 H   0  0  0  0  0  0  0  0  0  0  0  0
   57.4185   20.7014   42.3195 H   0  0  0  0  0  0  0  0  0  0  0  0
   56.2013   22.7550   41.5782 H   0  0  0  0  0  0  0  0  0  0  0  0
   55.2386   24.3156   43.2705 H   0  0  0  0  0  0  0  0  0  0  0  0
  1  2  1  0
  2  3  1  0
  3  4  1  0
  4  5  1  0
  5  6  1  0
  6  7  2  0
  7  8  1  0
  8  9  2  0
  9 10  1  0
 10 11  2  0
  5 12  2  0
 12 13  1  0
 13 14  2  0
 14 15  1  0
 15 16  1  0
 16 17  1  0
 17 18  2  0
 17 19  1  0
 19 20  1  0
 20 21  2  0
 21 22  1  0
 22 23  2  0
 23 24  1  0
 24 25  2  0
 14  4  1  0
 25 20  1  0
 11  6  1  0
  1 26  1  0
  1 27  1  0
  1 28  1  0
  2 29  1  0
  2 30  1  0
  3 31  1  0
  3 32  1  0
  7 33  1  0
  8 34  1  0
  9 35  1  0
 10 36  1  0
 11 37  1  0
 13 38  1  0
 16 39  1  0
 16 40  1  0
 21 41  1  0
 22 42  1  0
 23 43  1  0
 24 44  1  0
 25 45  1  0
M  CHG  2  13   1  19  -1
M  END
>  <UniqueID>  (44) 
38

>  <SMILES>  (44) 
CCCn1c(-c2ccccc2)n[nH+]c1SCC(=O)[N-]c1ccccc1

>  <Energy>  (44) 
83.70858445276195

>  <Genealogy>  (44) 
CCCn1c(-c2ccccc2)n[nH+]c1SCC(=O)[N-]c1ccccc1 (protonated)
CCCn1c(-c2ccccc2)n[nH+]c1SCC(=O)[N-]c1ccccc1 (3D coordinates assigned)
CCCn1c(-c2ccccc2)n[nH+]c1SCC(=O)[N-]c1ccccc1 (optimized conformer: 83.70858445276195 kcal/mol)

>  <smiles>  (44) 
CCCn1c(SCC(=O)Nc2ccccc2)nnc1-c1ccccc1

>  <score_type>  (44) 
oracle

>  <origin>  (44) 
adg

>  <m_score__min__energy>  (44) 
-9.3599999999999994

>  <m_primary>  (44) 
energy

$$$$
44:0
     RDKit          3D

 56 59  0  0  0  0  0  0  0  0999 V2000
   66.0987   33.1084   49.4195 H   0  0  0  0  0  0  0  0  0  0  0  0
   65.0110   32.9510   49.3730 C   0  0  0  0  0  0  0  0  0  0  0  0
   64.3620   32.2500   50.3940 C   0  0  0  0  0  0  0  0  0  0  0  0
   64.9391   31.8608   51.2457 H   0  0  0  0  0  0  0  0  0  0  0  0
   62.9810   32.0430   50.3340 C   0  0  0  0  0  0  0  0  0  0  0  0
   62.4714   31.4992   51.1431 H   0  0  0  0  0  0  0  0  0  0  0  0
   62.2440   32.5280   49.2430 C   0  0  0  0  0  0  0  0  0  0  0  0
   60.7790   32.3450   49.1910 C   0  0  0  0  0  0  0  0  0  0  0  0
   59.9120   33.2850   49.6690 C   0  0  0  0  0  0  0  0  0  0  0  0
   59.2120   33.0820   51.0070 C   0  0  0  0  0  0  0  0  0  0  0  0
   58.9880   34.3050   51.6100 F   0  0  0  0  0  0  0  0  0  0  0  0
   59.9980   32.3020   51.8370 F   0  0  0  0  0  0  0  0  0  0  0  0
   57.9910   32.4480   50.8680 F   0  0  0  0  0  0  0  0  0  0  0  0
   59.6260   34.5560   48.8730 C   0  0  0  0  0  0  0  0  0  0  0  0
   60.5608   35.1259   48.7668 H   0  0  0  0  0  0  0  0  0  0  0  0
   58.8661   35.1341   49.4192 H   0  0  0  0  0  0  0  0  0  0  0  0
   59.0810   34.2540   47.4980 C   0  0  0  0  0  0  0  0  0  0  0  0
   57.9810   33.3950   47.3380 C   0  0  0  0  0  0  0  0  0  0  0  0
   57.5221   32.9226   48.2191 H   0  0  0  0  0  0  0  0  0  0  0  0
   57.4670   33.1380   46.0630 C   0  0  0  0  0  0  0  0  0  0  0  0
   56.5994   32.4722   45.9450 H   0  0  0  0  0  0  0  0  0  0  0  0
   58.0530   33.7250   44.9390 C   0  0  0  0  0  0  0  0  0  0  0  0
   57.5520   33.4770   43.7030 F   0  0  0  0  0  0  0  0  0  0  0  0
   59.1620   34.5630   45.0870 C   0  0  0  0  0  0  0  0  0  0  0  0
   59.6285   35.0178   44.2007 H   0  0  0  0  0  0  0  0  0  0  0  0
   59.6790   34.8240   46.3580 C   0  0  0  0  0  0  0  0  0  0  0  0
   60.5569   35.4775   46.4687 H   0  0  0  0  0  0  0  0  0  0  0  0
   60.3100   31.0910   48.5640 C   0  0  0  0  0  0  0  0  0  0  0  0
   59.2100   30.4090   49.1060 C   0  0  0  0  0  0  0  0  0  0  0  0
   58.6896   30.8192   49.9840 H   0  0  0  0  0  0  0  0  0  0  0  0
   58.7730   29.2110   48.5350 C   0  0  0  0  0  0  0  0  0  0  0  0
   57.9149   28.6780   48.9703 H   0  0  0  0  0  0  0  0  0  0  0  0
   59.4260   28.6830   47.4050 C   0  0  0  0  0  0  0  0  0  0  0  0
   59.0340   27.4800   46.7970 O   0  0  0  0  0  0  0  0  0  0  0  0
   58.7610   27.3060   45.4060 C   0  0  0  0  0  0  0  0  0  0  0  0
   59.7112   27.2060   44.8609 H   0  0  0  0  0  0  0  0  0  0  0  0
   58.1500   26.4007   45.2752 H   0  0  0  0  0  0  0  0  0  0  0  0
   58.0010   28.4870   44.8630 C   0  0  0  0  0  0  0  0  0  0  0  0
   56.6040   28.5660   44.9970 C   0  0  0  0  0  0  0  0  0  0  0  0
   56.0535   27.7514   45.4904 H   0  0  0  0  0  0  0  0  0  0  0  0
   55.9120   29.6770   44.5050 C   0  0  0  0  0  0  0  0  0  0  0  0
   54.8178   29.7304   44.6049 H   0  0  0  0  0  0  0  0  0  0  0  0
   56.6070   30.7190   43.8870 C   0  0  0  0  0  0  0  0  0  0  0  0
   56.0605   31.5932   43.5034 H   0  0  0  0  0  0  0  0  0  0  0  0
   57.9970   30.6510   43.7560 C   0  0  0  0  0  0  0  0  0  0  0  0
   58.5440   31.4733   43.2716 H   0  0  0  0  0  0  0  0  0  0  0  0
   58.6930   29.5390   44.2400 C   0  0  0  0  0  0  0  0  0  0  0  0
   59.7865   29.4877   44.1325 H   0  0  0  0  0  0  0  0  0  0  0  0
   60.5070   29.3830   46.8530 C   0  0  0  0  0  0  0  0  0  0  0  0
   61.0148   28.9862   45.9615 H   0  0  0  0  0  0  0  0  0  0  0  0
   60.9460   30.5800   47.4240 C   0  0  0  0  0  0  0  0  0  0  0  0
   61.7925   31.1227   46.9781 H   0  0  0  0  0  0  0  0  0  0  0  0
   62.8960   33.2470   48.2300 C   0  0  0  0  0  0  0  0  0  0  0  0
   62.3192   33.6503   47.3846 H   0  0  0  0  0  0  0  0  0  0  0  0
   64.2780   33.4520   48.2930 C   0  0  0  0  0  0  0  0  0  0  0  0
   64.7885   34.0076   47.4925 H   0  0  0  0  0  0  0  0  0  0  0  0
  1  2  1  0
  2  3  2  0
  3  4  1  0
  3  5  1  0
  5  6  1  0
  5  7  2  0
  7  8  1  0
  8  9  2  0
  9 10  1  0
 10 11  1  0
 10 12  1  0
 10 13  1  0
  9 14  1  0
 14 15  1  0
 14 16  1  0
 14 17  1  0
 17 18  2  0
 18 19  1  0
 18 20  1  0
 20 21  1  0
 20 22  2  0
 22 23  1  0
 22 24  1  0
 24 25  1  0
 24 26  2  0
 26 27  1  0
  8 28  1  0
 28 29  2  0
 29 30  1  0
 29 31  1  0
 31 32  1  0
 31 33  2  0
 33 34  1  0
 34 35  1  0
 35 36  1  0
 35 37  1  0
 35 38  1  0
 38 39  2  0
 39 40  1  0
 39 41  1  0
 41 42  1  0
 41 43  2  0
 43 44  1  0
 43 45  1  0
 45 46  1  0
 45 47  2  0
 47 48  1  0
 33 49  1  0
 49 50  1  0
 49 51  2  0
 51 52  1  0
  7 53  1  0
 53 54  1  0
 53 55  2  0
 55 56  1  0
 55  2  1  0
 26 17  1  0
 51 28  1  0
 47 38  1  0
M  END
>  <UniqueID>  (45) 
39

>  <SMILES>  (45) 
Fc1ccc(C/C(=C(/c2ccccc2)c2ccc(OCc3ccccc3)cc2)C(F)(F)F)cc1

>  <Energy>  (45) 
71.97258339803388

>  <Genealogy>  (45) 
Fc1ccc(C/C(=C(/c2ccccc2)c2ccc(OCc3ccccc3)cc2)C(F)(F)F)cc1 (cis-trans isomerization)
Fc1ccc(C/C(=C(/c2ccccc2)c2ccc(OCc3ccccc3)cc2)C(F)(F)F)cc1 (3D coordinates assigned)
Fc1ccc(C/C(=C(/c2ccccc2)c2ccc(OCc3ccccc3)cc2)C(F)(F)F)cc1 (optimized conformer: 71.97258339803388 kcal/mol)

>  <smiles>  (45) 
Fc1ccc(CC(=C(c2ccccc2)c2ccc(OCc3ccccc3)cc2)C(F)(F)F)cc1

>  <score_type>  (45) 
oracle

>  <origin>  (45) 
adg

>  <m_score__min__energy>  (45) 
-8.5099999999999998

>  <m_primary>  (45) 
energy

$$$$
45:0
     RDKit          3D

 48 51  0  0  0  0  0  0  0  0999 V2000
   55.3460   29.3480   44.5770 F   0  0  0  0  0  0  0  0  0  0  0  0
   56.5530   29.3500   43.8990 C   0  0  0  0  0  0  0  0  0  0  0  0
   57.3970   28.4210   44.4800 F   0  0  0  0  0  0  0  0  0  0  0  0
   56.3120   28.9820   42.5860 F   0  0  0  0  0  0  0  0  0  0  0  0
   57.1950   30.7140   43.9670 C   0  0  0  0  0  0  0  0  0  0  0  0
   57.4000   31.4640   42.7990 C   0  0  0  0  0  0  0  0  0  0  0  0
   58.0330   32.7040   42.8630 C   0  0  0  0  0  0  0  0  0  0  0  0
   58.4890   33.2030   44.0840 C   0  0  0  0  0  0  0  0  0  0  0  0
   58.3320   32.4570   45.2700 C   0  0  0  0  0  0  0  0  0  0  0  0
   58.8180   32.9690   46.5390 N   0  0  0  0  0  0  0  0  0  0  0  0
   59.3490   32.1620   47.6270 C   0  0  2  0  0  0  0  0  0  0  0  0
   59.2650   33.0830   48.8500 C   0  0  0  0  0  0  0  0  0  0  0  0
   59.2770   34.4990   48.2670 C   0  0  0  0  0  0  0  0  0  0  0  0
   59.3870   34.2900   46.7520 C   0  0  1  0  0  0  0  0  0  0  0  0
   60.8610   34.2340   46.2850 C   0  0  0  0  0  0  0  0  0  0  0  0
   61.6860   33.0920   46.9790 C   0  0  1  0  0  0  0  0  0  0  0  0
   62.3380   33.5620   48.2280 N   0  0  0  0  0  0  0  0  0  0  0  0
   63.8080   33.4780   48.1780 C   0  0  0  0  0  0  0  0  0  0  0  0
   64.3390   32.5990   49.2770 C   0  0  0  0  0  0  0  0  0  0  0  0
   65.6380   32.7890   49.7700 C   0  0  0  0  0  0  0  0  0  0  0  0
   66.1100   31.9940   50.8160 C   0  0  0  0  0  0  0  0  0  0  0  0
   65.2760   31.0160   51.3620 C   0  0  0  0  0  0  0  0  0  0  0  0
   64.0170   30.8470   50.8780 N   0  0  0  0  0  0  0  0  0  0  0  0
   63.5340   31.6080   49.8600 C   0  0  0  0  0  0  0  0  0  0  0  0
   60.8190   31.8250   47.2800 C   0  0  0  0  0  0  0  0  0  0  0  0
   57.6800   31.2070   45.1910 C   0  0  0  0  0  0  0  0  0  0  0  0
   57.0598   31.0718   41.8292 H   0  0  0  0  0  0  0  0  0  0  0  0
   58.1741   33.2933   41.9450 H   0  0  0  0  0  0  0  0  0  0  0  0
   58.9760   34.1886   44.1214 H   0  0  0  0  0  0  0  0  0  0  0  0
   58.8145   31.2168   47.8028 H   0  0  0  0  0  0  0  0  0  0  0  0
   58.3359   32.9013   49.4102 H   0  0  0  0  0  0  0  0  0  0  0  0
   60.0910   32.9152   49.5568 H   0  0  0  0  0  0  0  0  0  0  0  0
   58.3481   35.0313   48.5196 H   0  0  0  0  0  0  0  0  0  0  0  0
   60.1013   35.1084   48.6659 H   0  0  0  0  0  0  0  0  0  0  0  0
   58.8922   35.1070   46.2065 H   0  0  0  0  0  0  0  0  0  0  0  0
   60.8774   34.0662   45.1980 H   0  0  0  0  0  0  0  0  0  0  0  0
   61.3286   35.1903   46.5622 H   0  0  0  0  0  0  0  0  0  0  0  0
   62.4666   32.8071   46.2582 H   0  0  0  0  0  0  0  0  0  0  0  0
   62.1150   34.5680   48.4060 H   0  0  0  0  0  0  0  0  0  0  0  0
   64.1109   33.0606   47.2064 H   0  0  0  0  0  0  0  0  0  0  0  0
   64.2199   34.4893   48.3104 H   0  0  0  0  0  0  0  0  0  0  0  0
   66.2847   33.5640   49.3328 H   0  0  0  0  0  0  0  0  0  0  0  0
   67.1286   32.1365   51.2062 H   0  0  0  0  0  0  0  0  0  0  0  0
   65.6382   30.3818   52.1845 H   0  0  0  0  0  0  0  0  0  0  0  0
   62.5099   31.4466   49.4924 H   0  0  0  0  0  0  0  0  0  0  0  0
   60.8288   31.1754   46.3923 H   0  0  0  0  0  0  0  0  0  0  0  0
   61.2575   31.3295   48.1587 H   0  0  0  0  0  0  0  0  0  0  0  0
   57.5491   30.6078   46.1042 H   0  0  0  0  0  0  0  0  0  0  0  0
  1  2  1  0
  2  3  1  0
  2  4  1  0
  2  5  1  0
  5  6  2  0
  6  7  1  0
  7  8  2  0
  8  9  1  0
  9 10  1  0
 10 11  1  0
 11 12  1  0
 12 13  1  0
 13 14  1  0
 14 15  1  0
 15 16  1  0
 16 17  1  0
 17 18  1  0
 18 19  1  0
 19 20  2  0
 20 21  1  0
 21 22  2  0
 22 23  1  0
 23 24  2  0
 16 25  1  0
  9 26  2  0
 26  5  1  0
 14 10  1  0
 24 19  1  0
 25 11  1  0
  6 27  1  0
  7 28  1  0
  8 29  1  0
 11 30  1  1
 12 31  1  0
 12 32  1  0
 13 33  1  0
 13 34  1  0
 14 35  1  6
 15 36  1  0
 15 37  1  0
 16 38  1  6
 17 39  1  0
 18 40  1  0
 18 41  1  0
 20 42  1  0
 21 43  1  0
 22 44  1  0
 24 45  1  0
 25 46  1  0
 25 47  1  0
 26 48  1  0
M  END
>  <UniqueID>  (46) 
40

>  <SMILES>  (46) 
FC(F)(F)c1cccc(N2[C@@H]3CC[C@H]2CC(NCc2cccnc2)C3)c1

>  <Energy>  (46) 
73.55936154659192

>  <Genealogy>  (46) 
FC(F)(F)c1cccc(N2[C@@H]3CC[C@H]2CC(NCc2cccnc2)C3)c1 (chirality)
FC(F)(F)c1cccc(N2[C@@H]3CC[C@H]2CC(NCc2cccnc2)C3)c1 (3D coordinates assigned)
FC(F)(F)c1cccc(N2[C@@H]3CC[C@H]2CC(NCc2cccnc2)C3)c1 (nonaromatic ring conformer: 73.55936154659192 kcal/mol)

>  <smiles>  (46) 
FC(F)(F)c1cccc(N2C3CCC2CC(NCc2cccnc2)C3)c1

>  <score_type>  (46) 
oracle

>  <origin>  (46) 
adg

>  <m_score__min__energy>  (46) 
-7.6699999999999999

>  <m_primary>  (46) 
energy

$$$$
46:0
     RDKit          3D

 54 58  0  0  0  0  0  0  0  0999 V2000
   57.6270   25.5040   54.2350 C   0  0  0  0  0  0  0  0  0  0  0  0
   56.7290   26.5580   53.9730 O   0  0  0  0  0  0  0  0  0  0  0  0
   57.4570   27.7210   53.6400 C   0  0  0  0  0  0  0  0  0  0  0  0
   56.4940   28.7970   53.2270 C   0  0  0  0  0  0  0  0  0  0  0  0
   55.2110   28.4610   52.9530 N   0  0  0  0  0  0  0  0  0  0  0  0
   54.3060   29.3820   52.5480 C   0  0  0  0  0  0  0  0  0  0  0  0
   52.9980   28.9790   52.2720 C   0  0  0  0  0  0  0  0  0  0  0  0
   52.0520   29.9070   51.8420 C   0  0  0  0  0  0  0  0  0  0  0  0
   52.4000   31.2580   51.6880 C   0  0  0  0  0  0  0  0  0  0  0  0
   51.3970   32.2430   51.2250 C   0  0  0  0  0  0  0  0  0  0  0  0
   50.9220   33.0970   52.0220 O   0  0  0  0  0  0  0  0  0  0  0  0
   50.9630   32.2410   49.9050 O   0  0  0  0  0  0  0  0  0  0  0  0
   53.7160   31.6650   51.9750 C   0  0  0  0  0  0  0  0  0  0  0  0
   54.6950   30.7340   52.4010 C   0  0  0  0  0  0  0  0  0  0  0  0
   56.0050   31.0930   52.6660 N   0  0  0  0  0  0  0  0  0  0  0  0
   56.4730   32.4900   52.4850 C   0  0  0  0  0  0  0  0  0  0  0  0
   57.6870   32.5470   51.5880 C   0  0  0  0  0  0  0  0  0  0  0  0
   57.7810   31.7170   50.4570 C   0  0  0  0  0  0  0  0  0  0  0  0
   58.8880   31.8010   49.6110 C   0  0  0  0  0  0  0  0  0  0  0  0
   59.9250   32.7060   49.8890 C   0  0  0  0  0  0  0  0  0  0  0  0
   61.0790   32.8230   48.9710 C   0  0  0  0  0  0  0  0  0  0  0  0
   62.3670   32.6040   49.4880 C   0  0  0  0  0  0  0  0  0  0  0  0
   63.4820   32.6310   48.6500 C   0  0  0  0  0  0  0  0  0  0  0  0
   63.3250   32.8760   47.2870 C   0  0  0  0  0  0  0  0  0  0  0  0
   62.0540   33.1080   46.7580 C   0  0  0  0  0  0  0  0  0  0  0  0
   60.9170   33.0970   47.5870 C   0  0  0  0  0  0  0  0  0  0  0  0
   59.5950   33.4270   46.9960 C   0  0  0  0  0  0  0  0  0  0  0  0
   58.7890   32.5470   46.3710 N   0  0  0  0  0  0  0  0  0  0  0  0
   57.7150   33.2440   46.0290 N   0  0  0  0  0  0  0  0  0  0  0  0
   57.8460   34.5000   46.4290 N   0  0  0  0  0  0  0  0  0  0  0  0
   59.0100   34.6360   47.0390 N   0  0  0  0  0  0  0  0  0  0  0  0
   59.8600   33.4940   51.0470 C   0  0  0  0  0  0  0  0  0  0  0  0
   58.7490   33.4140   51.8910 C   0  0  0  0  0  0  0  0  0  0  0  0
   56.9060   30.1300   53.0680 C   0  0  0  0  0  0  0  0  0  0  0  0
   58.1130   30.4280   53.2900 O   0  0  0  0  0  0  0  0  0  0  0  0
   57.7356   25.3765   55.3222 H   0  0  0  0  0  0  0  0  0  0  0  0
   57.2395   24.5739   53.7937 H   0  0  0  0  0  0  0  0  0  0  0  0
   58.6068   25.7388   53.7937 H   0  0  0  0  0  0  0  0  0  0  0  0
   58.0344   28.0578   54.5136 H   0  0  0  0  0  0  0  0  0  0  0  0
   58.1490   27.5032   52.8131 H   0  0  0  0  0  0  0  0  0  0  0  0
   52.7130   27.9237   52.3947 H   0  0  0  0  0  0  0  0  0  0  0  0
   51.0255   29.5787   51.6217 H   0  0  0  0  0  0  0  0  0  0  0  0
   53.9894   32.7249   51.8666 H   0  0  0  0  0  0  0  0  0  0  0  0
   55.6647   33.0836   52.0331 H   0  0  0  0  0  0  0  0  0  0  0  0
   56.7479   32.8958   53.4698 H   0  0  0  0  0  0  0  0  0  0  0  0
   56.9781   30.9978   50.2378 H   0  0  0  0  0  0  0  0  0  0  0  0
   58.9483   31.1553   48.7225 H   0  0  0  0  0  0  0  0  0  0  0  0
   62.4973   32.4096   50.5628 H   0  0  0  0  0  0  0  0  0  0  0  0
   64.4859   32.4588   49.0653 H   0  0  0  0  0  0  0  0  0  0  0  0
   64.2046   32.8866   46.6265 H   0  0  0  0  0  0  0  0  0  0  0  0
   61.9401   33.3016   45.6812 H   0  0  0  0  0  0  0  0  0  0  0  0
   59.3750   35.5250   47.4450 H   0  0  0  0  0  0  0  0  0  0  0  0
   60.6863   34.1775   51.2920 H   0  0  0  0  0  0  0  0  0  0  0  0
   58.7063   34.0342   52.7985 H   0  0  0  0  0  0  0  0  0  0  0  0
  1  2  1  0
  2  3  1  0
  3  4  1  0
  4  5  2  0
  5  6  1  0
  6  7  2  0
  7  8  1  0
  8  9  2  0
  9 10  1  0
 10 11  2  0
 10 12  1  0
  9 13  1  0
 13 14  2  0
 14 15  1  0
 15 16  1  0
 16 17  1  0
 17 18  2  0
 18 19  1  0
 19 20  2  0
 20 21  1  0
 21 22  2  0
 22 23  1  0
 23 24  2  0
 24 25  1  0
 25 26  2  0
 26 27  1  0
 27 28  2  0
 28 29  1  0
 29 30  1  0
 30 31  2  0
 20 32  1  0
 32 33  2  0
 15 34  1  0
 34 35  2  0
 34  4  1  0
 14  6  1  0
 33 17  1  0
 26 21  1  0
 31 27  1  0
  1 36  1  0
  1 37  1  0
  1 38  1  0
  3 39  1  0
  3 40  1  0
  7 41  1  0
  8 42  1  0
 13 43  1  0
 16 44  1  0
 16 45  1  0
 18 46  1  0
 19 47  1  0
 22 48  1  0
 23 49  1  0
 24 50  1  0
 25 51  1  0
 31 52  1  0
 32 53  1  0
 33 54  1  0
M  CHG  3  12  -1  29  -1  31   1
M  END
>  <UniqueID>  (47) 
41

>  <SMILES>  (47) 
COCc1nc2ccc(C(=O)[O-])cc2n(Cc2ccc(-c3ccccc3-c3n[n-]n[nH+]3)cc2)c1=O

>  <Energy>  (47) 
121.52873039743338

>  <Genealogy>  (47) 
COCc1nc2ccc(C(=O)[O-])cc2n(Cc2ccc(-c3ccccc3-c3n[n-]n[nH+]3)cc2)c1=O (protonated)
COCc1nc2ccc(C(=O)[O-])cc2n(Cc2ccc(-c3ccccc3-c3n[n-]n[nH+]3)cc2)c1=O (3D coordinates assigned)
COCc1nc2ccc(C(=O)[O-])cc2n(Cc2ccc(-c3ccccc3-c3n[n-]n[nH+]3)cc2)c1=O (optimized conformer: 121.52873039743338 kcal/mol)

>  <smiles>  (47) 
COCc1nc2ccc(C(=O)O)cc2n(Cc2ccc(-c3ccccc3-c3nn[nH]n3)cc2)c1=O

>  <score_type>  (47) 
oracle

>  <origin>  (47) 
adg

>  <m_score__min__energy>  (47) 
-12.75

>  <m_primary>  (47) 
energy

$$$$
47:0
     RDKit          3D

 34 37  0  0  0  0  0  0  0  0999 V2000
   58.5790   23.6260   45.3450 C   0  0  0  0  0  0  0  0  0  0  0  0
   59.5040   24.4950   45.9900 O   0  0  0  0  0  0  0  0  0  0  0  0
   59.3250   25.8790   46.1320 C   0  0  0  0  0  0  0  0  0  0  0  0
   58.0310   26.3980   46.0310 C   0  0  0  0  0  0  0  0  0  0  0  0
   57.8010   27.7700   46.1660 C   0  0  0  0  0  0  0  0  0  0  0  0
   58.8690   28.6500   46.4040 C   0  0  0  0  0  0  0  0  0  0  0  0
   58.6340   30.0640   46.5420 N   0  0  0  0  0  0  0  0  0  0  0  0
   57.7710   30.8500   45.7880 C   0  0  0  0  0  0  0  0  0  0  0  0
   57.0150   30.4550   44.8630 O   0  0  0  0  0  0  0  0  0  0  0  0
   57.8550   32.1000   46.2360 N   0  0  0  0  0  0  0  0  0  0  0  0
   58.7310   32.1480   47.2440 N   0  0  0  0  0  0  0  0  0  0  0  0
   59.2220   30.9300   47.4550 C   0  0  0  0  0  0  0  0  0  0  0  0
   60.0950   30.6310   48.3130 O   0  0  0  0  0  0  0  0  0  0  0  0
   58.5270   33.5800   47.4150 C   0  0  1  0  0  0  0  0  0  0  0  0
   59.8130   34.3360   47.1780 C   0  0  0  0  0  0  0  0  0  0  0  0
   60.0770   34.9310   46.0130 C   0  0  0  0  0  0  0  0  0  0  0  0
   59.1080   34.8800   44.9130 C   0  0  0  0  0  0  0  0  0  0  0  0
   57.9480   34.2370   45.0590 C   0  0  0  0  0  0  0  0  0  0  0  0
   57.5840   33.5270   46.3420 C   0  0  1  0  0  0  0  0  0  0  0  0
   60.1710   28.1310   46.5050 C   0  0  0  0  0  0  0  0  0  0  0  0
   60.3990   26.7580   46.3710 C   0  0  0  0  0  0  0  0  0  0  0  0
   57.9983   23.0805   46.1034 H   0  0  0  0  0  0  0  0  0  0  0  0
   57.8970   24.2176   44.7166 H   0  0  0  0  0  0  0  0  0  0  0  0
   59.1269   22.9085   44.7166 H   0  0  0  0  0  0  0  0  0  0  0  0
   57.1854   25.7199   45.8434 H   0  0  0  0  0  0  0  0  0  0  0  0
   56.7767   28.1629   46.0853 H   0  0  0  0  0  0  0  0  0  0  0  0
   58.2219   34.0580   48.3576 H   0  0  0  0  0  0  0  0  0  0  0  0
   60.5534   34.3979   47.9892 H   0  0  0  0  0  0  0  0  0  0  0  0
   61.0294   35.4642   45.8765 H   0  0  0  0  0  0  0  0  0  0  0  0
   59.3397   35.3763   43.9591 H   0  0  0  0  0  0  0  0  0  0  0  0
   57.2359   34.2234   44.2207 H   0  0  0  0  0  0  0  0  0  0  0  0
   56.5857   33.9614   46.4994 H   0  0  0  0  0  0  0  0  0  0  0  0
   61.0166   28.8096   46.6908 H   0  0  0  0  0  0  0  0  0  0  0  0
   61.4222   26.3625   46.4527 H   0  0  0  0  0  0  0  0  0  0  0  0
  1  2  1  0
  2  3  1  0
  3  4  2  0
  4  5  1  0
  5  6  2  0
  6  7  1  0
  7  8  1  0
  8  9  2  0
  8 10  1  0
 10 11  1  0
 11 12  1  0
 12 13  2  0
 11 14  1  0
 14 15  1  0
 15 16  2  0
 16 17  1  0
 17 18  2  0
 18 19  1  0
  6 20  1  0
 20 21  2  0
 21  3  1  0
 12  7  1  0
 19 14  1  0
 19 10  1  0
  1 22  1  0
  1 23  1  0
  1 24  1  0
  4 25  1  0
  5 26  1  0
 14 27  1  1
 15 28  1  0
 16 29  1  0
 17 30  1  0
 18 31  1  0
 19 32  1  1
 20 33  1  0
 21 34  1  0
M  END
>  <UniqueID>  (48) 
42

>  <SMILES>  (48) 
COc1ccc(-n2c(=O)n3n(c2=O)[C@H]2C=CC=C[C@H]23)cc1

>  <Energy>  (48) 
214.43875785796612

>  <Genealogy>  (48) 
COc1ccc(-n2c(=O)n3n(c2=O)[C@H]2C=CC=C[C@H]23)cc1 (chirality)
COc1ccc(-n2c(=O)n3n(c2=O)[C@H]2C=CC=C[C@H]23)cc1 (3D coordinates assigned)
COc1ccc(-n2c(=O)n3n(c2=O)[C@H]2C=CC=C[C@H]23)cc1 (nonaromatic ring conformer: 214.43875785796612 kcal/mol)

>  <smiles>  (48) 
COc1ccc(-n2c(=O)n3n(c2=O)C2C=CC=CC23)cc1

>  <score_type>  (48) 
oracle

>  <origin>  (48) 
adg

>  <m_score__min__energy>  (48) 
-6.9000000000000004

>  <m_primary>  (48) 
energy

$$$$
48:0
     RDKit          3D

 51 55  0  0  0  0  0  0  0  0999 V2000
   61.5730   30.9800   46.6020 F   0  0  0  0  0  0  0  0  0  0  0  0
   62.1380   31.9960   47.3000 C   0  0  0  0  0  0  0  0  0  0  0  0
   63.5220   32.1770   47.2210 C   0  0  0  0  0  0  0  0  0  0  0  0
   64.1310   33.2440   47.8840 C   0  0  0  0  0  0  0  0  0  0  0  0
   63.3550   34.1440   48.6160 C   0  0  0  0  0  0  0  0  0  0  0  0
   61.9710   33.9720   48.7010 C   0  0  0  0  0  0  0  0  0  0  0  0
   61.2400   34.8840   49.3930 F   0  0  0  0  0  0  0  0  0  0  0  0
   61.3470   32.8770   48.0660 C   0  0  0  0  0  0  0  0  0  0  0  0
   59.8380   32.6940   48.1500 C   0  0  0  0  0  0  0  0  0  0  0  0
   59.1110   32.8880   46.8660 N   0  0  0  0  0  0  0  0  0  0  0  0
   57.6740   33.1540   47.0560 C   0  0  0  0  0  0  0  0  0  0  0  0
   56.9190   33.0490   45.7150 C   0  0  0  0  0  0  0  0  0  0  0  0
   57.7110   33.5140   44.5480 N   0  0  0  0  0  0  0  0  0  0  0  0
   58.2000   32.4160   43.6840 C   0  0  0  0  0  0  0  0  0  0  0  0
   58.2340   31.1340   44.4520 C   0  0  0  0  0  0  0  0  0  0  0  0
   59.2860   30.7500   45.2150 N   0  0  0  0  0  0  0  0  0  0  0  0
   59.0680   29.5300   45.7690 C   0  0  0  0  0  0  0  0  0  0  0  0
   59.9760   28.8790   46.6040 C   0  0  0  0  0  0  0  0  0  0  0  0
   59.6460   27.6150   47.1160 C   0  0  0  0  0  0  0  0  0  0  0  0
   58.4120   27.0080   46.7920 C   0  0  0  0  0  0  0  0  0  0  0  0
   58.0830   25.7430   47.3040 C   0  0  0  0  0  0  0  0  0  0  0  0
   56.8610   25.1490   46.9770 C   0  0  0  0  0  0  0  0  0  0  0  0
   55.9580   25.8090   46.1400 C   0  0  0  0  0  0  0  0  0  0  0  0
   56.2680   27.0700   45.6210 C   0  0  0  0  0  0  0  0  0  0  0  0
   57.4920   27.6780   45.9410 C   0  0  0  0  0  0  0  0  0  0  0  0
   57.8530   28.9380   45.4480 C   0  0  0  0  0  0  0  0  0  0  0  0
   57.0040   29.9730   44.4290 S   0  0  0  0  0  0  0  0  0  0  0  0
   58.7760   34.4680   44.9210 C   0  0  0  0  0  0  0  0  0  0  0  0
   59.7410   33.9080   45.9910 C   0  0  0  0  0  0  0  0  0  0  0  0
   64.1335   31.4759   46.6341 H   0  0  0  0  0  0  0  0  0  0  0  0
   65.2218   33.3753   47.8295 H   0  0  0  0  0  0  0  0  0  0  0  0
   63.8346   34.9915   49.1277 H   0  0  0  0  0  0  0  0  0  0  0  0
   59.6369   31.6727   48.5056 H   0  0  0  0  0  0  0  0  0  0  0  0
   59.4702   33.4734   48.8336 H   0  0  0  0  0  0  0  0  0  0  0  0
   59.1840   31.9660   46.3750 H   0  0  0  0  0  0  0  0  0  0  0  0
   57.2607   32.4185   47.7618 H   0  0  0  0  0  0  0  0  0  0  0  0
   57.5519   34.1729   47.4522 H   0  0  0  0  0  0  0  0  0  0  0  0
   56.6449   31.9962   45.5519 H   0  0  0  0  0  0  0  0  0  0  0  0
   56.0386   33.7043   45.7887 H   0  0  0  0  0  0  0  0  0  0  0  0
   57.5273   32.3052   42.8208 H   0  0  0  0  0  0  0  0  0  0  0  0
   59.2164   32.6555   43.3382 H   0  0  0  0  0  0  0  0  0  0  0  0
   60.9372   29.3499   46.8575 H   0  0  0  0  0  0  0  0  0  0  0  0
   60.3543   27.0920   47.7755 H   0  0  0  0  0  0  0  0  0  0  0  0
   58.7889   25.2179   47.9643 H   0  0  0  0  0  0  0  0  0  0  0  0
   56.6090   24.1572   47.3805 H   0  0  0  0  0  0  0  0  0  0  0  0
   54.9982   25.3344   45.8879 H   0  0  0  0  0  0  0  0  0  0  0  0
   55.5531   27.5851   44.9624 H   0  0  0  0  0  0  0  0  0  0  0  0
   59.3568   34.7149   44.0200 H   0  0  0  0  0  0  0  0  0  0  0  0
   58.2875   35.3551   45.3505 H   0  0  0  0  0  0  0  0  0  0  0  0
   60.6009   33.4490   45.4812 H   0  0  0  0  0  0  0  0  0  0  0  0
   60.0435   34.7489   46.6324 H   0  0  0  0  0  0  0  0  0  0  0  0
  1  2  1  0
  2  3  2  0
  3  4  1  0
  4  5  2  0
  5  6  1  0
  6  7  1  0
  6  8  2  0
  8  9  1  0
  9 10  1  0
 10 11  1  0
 11 12  1  0
 12 13  1  0
 13 14  1  0
 14 15  1  0
 15 16  2  0
 16 17  1  0
 17 18  2  0
 18 19  1  0
 19 20  2  0
 20 21  1  0
 21 22  2  0
 22 23  1  0
 23 24  2  0
 24 25  1  0
 25 26  2  0
 26 27  1  0
 13 28  1  0
 28 29  1  0
  8  2  1  0
 29 10  1  0
 27 15  1  0
 26 17  1  0
 25 20  1  0
  3 30  1  0
  4 31  1  0
  5 32  1  0
  9 33  1  0
  9 34  1  0
 10 35  1  0
 11 36  1  0
 11 37  1  0
 12 38  1  0
 12 39  1  0
 14 40  1  0
 14 41  1  0
 18 42  1  0
 19 43  1  0
 21 44  1  0
 22 45  1  0
 23 46  1  0
 24 47  1  0
 28 48  1  0
 28 49  1  0
 29 50  1  0
 29 51  1  0
M  CHG  1  10   1
M  END
>  <UniqueID>  (49) 
43

>  <SMILES>  (49) 
Fc1cccc(F)c1C[NH+]1CCN(Cc2nc3ccc4ccccc4c3s2)CC1

>  <Energy>  (49) 
111.92401749505208

>  <Genealogy>  (49) 
Fc1cccc(F)c1C[NH+]1CCN(Cc2nc3ccc4ccccc4c3s2)CC1 (protonated)
Fc1cccc(F)c1C[NH+]1CCN(Cc2nc3ccc4ccccc4c3s2)CC1 (3D coordinates assigned)
Fc1cccc(F)c1C[NH+]1CCN(Cc2nc3ccc4ccccc4c3s2)CC1 (nonaromatic ring conformer: 111.92401749505208 kcal/mol)

>  <smiles>  (49) 
Fc1cccc(F)c1CN1CCN(Cc2nc3ccc4ccccc4c3s2)CC1

>  <score_type>  (49) 
oracle

>  <origin>  (49) 
adg

>  <m_score__min__energy>  (49) 
-6.8600000000000003

>  <m_primary>  (49) 
energy

$$$$
