0:0
     RDKit          3D

 47 49  0  0  0  0  0  0  0  0999 V2000
   63.2280   33.8420   46.3600 C   0  0  0  0  0  0  0  0  0  0  0  0
   62.7570   33.6970   47.8150 C   0  0  0  0  0  0  0  0  0  0  0  0
   63.0330   32.3730   48.4220 N   0  0  0  0  0  0  0  0  0  0  0  0
   64.3780   32.2810   49.0130 C   0  0  0  0  0  0  0  0  0  0  0  0
   61.9790   31.9240   49.3580 C   0  0  0  0  0  0  0  0  0  0  0  0
   60.9090   31.1310   48.5980 C   0  0  0  0  0  0  0  0  0  0  0  0
   61.2510   31.0200   47.1700 N   0  0  0  0  0  0  0  0  0  0  0  0
   60.0530   30.8630   46.3620 C   0  0  0  0  0  0  0  0  0  0  0  0
   59.2720   31.9900   45.9930 C   0  0  0  0  0  0  0  0  0  0  0  0
   59.5180   33.2770   46.5330 C   0  0  0  0  0  0  0  0  0  0  0  0
   58.7250   34.3660   46.1850 C   0  0  0  0  0  0  0  0  0  0  0  0
   57.6620   34.2040   45.3090 C   0  0  0  0  0  0  0  0  0  0  0  0
   57.3940   32.9520   44.7620 C   0  0  0  0  0  0  0  0  0  0  0  0
   58.2030   31.8270   45.0660 C   0  0  0  0  0  0  0  0  0  0  0  0
   57.9590   30.5940   44.4980 N   0  0  0  0  0  0  0  0  0  0  0  0
   57.0830   30.4890   43.3080 C   0  0  0  0  0  0  0  0  0  0  0  0
   58.5380   29.4610   45.0310 C   0  0  0  0  0  0  0  0  0  0  0  0
   58.0710   28.1670   44.6910 C   0  0  0  0  0  0  0  0  0  0  0  0
   58.6770   27.0230   45.2030 C   0  0  0  0  0  0  0  0  0  0  0  0
   59.7480   27.1340   46.0780 C   0  0  0  0  0  0  0  0  0  0  0  0
   60.3280   26.0170   46.5830 F   0  0  0  0  0  0  0  0  0  0  0  0
   60.2100   28.3920   46.4600 C   0  0  0  0  0  0  0  0  0  0  0  0
   59.6140   29.5740   45.9560 C   0  0  0  0  0  0  0  0  0  0  0  0
   64.2792   34.1656   46.3454 H   0  0  0  0  0  0  0  0  0  0  0  0
   63.1353   32.8737   45.8464 H   0  0  0  0  0  0  0  0  0  0  0  0
   62.6068   34.5905   45.8464 H   0  0  0  0  0  0  0  0  0  0  0  0
   63.2646   34.4640   48.4184 H   0  0  0  0  0  0  0  0  0  0  0  0
   61.6632   33.8133   47.8026 H   0  0  0  0  0  0  0  0  0  0  0  0
   64.2976   32.2865   50.1100 H   0  0  0  0  0  0  0  0  0  0  0  0
   64.8594   31.3478   48.6853 H   0  0  0  0  0  0  0  0  0  0  0  0
   64.9820   33.1399   48.6853 H   0  0  0  0  0  0  0  0  0  0  0  0
   62.4271   31.2831   50.1316 H   0  0  0  0  0  0  0  0  0  0  0  0
   61.5131   32.8030   49.8272 H   0  0  0  0  0  0  0  0  0  0  0  0
   60.8343   30.1220   49.0297 H   0  0  0  0  0  0  0  0  0  0  0  0
   59.9491   31.6604   48.6889 H   0  0  0  0  0  0  0  0  0  0  0  0
   61.8010   31.8520   46.8600 H   0  0  0  0  0  0  0  0  0  0  0  0
   61.9080   30.2230   47.0130 H   0  0  0  0  0  0  0  0  0  0  0  0
   60.3498   33.4173   47.2390 H   0  0  0  0  0  0  0  0  0  0  0  0
   58.9419   35.3588   46.6061 H   0  0  0  0  0  0  0  0  0  0  0  0
   57.0302   35.0653   45.0462 H   0  0  0  0  0  0  0  0  0  0  0  0
   56.5384   32.8329   44.0810 H   0  0  0  0  0  0  0  0  0  0  0  0
   56.0390   30.3639   43.6311 H   0  0  0  0  0  0  0  0  0  0  0  0
   57.1729   31.4043   42.7046 H   0  0  0  0  0  0  0  0  0  0  0  0
   57.3867   29.6208   42.7046 H   0  0  0  0  0  0  0  0  0  0  0  0
   57.2135   28.0645   44.0097 H   0  0  0  0  0  0  0  0  0  0  0  0
   58.3059   26.0289   44.9132 H   0  0  0  0  0  0  0  0  0  0  0  0
   61.0513   28.4683   47.1645 H   0  0  0  0  0  0  0  0  0  0  0  0
  1  2  1  0
  2  3  1  0
  3  4  1  0
  3  5  1  0
  5  6  1  0
  6  7  1  0
  7  8  1  0
  8  9  2  0
  9 10  1  0
 10 11  2  0
 11 12  1  0
 12 13  2  0
 13 14  1  0
 14 15  2  0
 15 16  1  0
 15 17  1  0
 17 18  2  0
 18 19  1  0
 19 20  2  0
 20 21  1  0
 20 22  1  0
 22 23  2  0
 23  8  1  0
 14  9  1  0
 23 17  1  0
  1 24  1  0
  1 25  1  0
  1 26  1  0
  2 27  1  0
  2 28  1  0
  4 29  1  0
  4 30  1  0
  4 31  1  0
  5 32  1  0
  5 33  1  0
  6 34  1  0
  6 35  1  0
  7 36  1  0
  7 37  1  0
 10 38  1  0
 11 39  1  0
 12 40  1  0
 13 41  1  0
 16 42  1  0
 16 43  1  0
 16 44  1  0
 18 45  1  0
 19 46  1  0
 22 47  1  0
M  CHG  2   7   1  15   1
M  END
>  <UniqueID>  (1) 
1

>  <SMILES>  (1) 
CCN(C)CC[NH2+]c1c2ccccc2[n+](C)c2ccc(F)cc12

>  <Energy>  (1) 
77.29241634676234

>  <Genealogy>  (1) 
CCN(C)CC[NH2+]c1c2ccccc2[n+](C)c2ccc(F)cc12 (protonated)
CCN(C)CC[NH2+]c1c2ccccc2[n+](C)c2ccc(F)cc12 (3D coordinates assigned)
CCN(C)CC[NH2+]c1c2ccccc2[n+](C)c2ccc(F)cc12 (optimized conformer: 77.29241634676234 kcal/mol)

>  <smiles>  (1) 
CCN(C)CCNc1c2ccccc2[n+](C)c2ccc(F)cc12

>  <score_type>  (1) 
oracle

>  <origin>  (1) 
adg

>  <m_score__min__energy>  (1) 
-3.79

>  <m_primary>  (1) 
energy

$$$$
1:0
     RDKit          3D

 58 62  0  0  0  0  0  0  0  0999 V2000
   65.0570   31.9330   50.1190 C   0  0  0  0  0  0  0  0  0  0  0  0
   63.9330   32.6610   49.6000 N   0  0  0  0  0  0  0  0  0  0  0  0
   64.1520   33.1190   48.2410 C   0  0  0  0  0  0  0  0  0  0  0  0
   62.9940   33.9500   47.7410 C   0  0  0  0  0  0  0  0  0  0  0  0
   62.0820   34.3470   48.7240 N   0  0  0  0  0  0  0  0  0  0  0  0
   60.7070   34.4200   48.4180 C   0  0  0  0  0  0  0  0  0  0  0  0
   60.2220   33.1250   47.8830 C   0  0  0  0  0  0  0  0  0  0  0  0
   59.4600   33.0970   46.7160 C   0  0  0  0  0  0  0  0  0  0  0  0
   58.9740   31.9350   46.1730 C   0  0  0  0  0  0  0  0  0  0  0  0
   59.2470   30.7410   46.8020 C   0  0  0  0  0  0  0  0  0  0  0  0
   58.7680   29.4500   46.3040 C   0  0  0  0  0  0  0  0  0  0  0  0
   57.8310   29.3370   45.2990 C   0  0  0  0  0  0  0  0  0  0  0  0
   57.4430   28.0600   44.8910 C   0  0  0  0  0  0  0  0  0  0  0  0
   57.9830   26.9340   45.4770 C   0  0  0  0  0  0  0  0  0  0  0  0
   57.5740   25.6060   45.0420 C   0  0  0  0  0  0  0  0  0  0  0  0
   57.4480   24.5220   45.8250 N   0  0  0  0  0  0  0  0  0  0  0  0
   57.0580   23.4440   45.1250 C   0  0  0  0  0  0  0  0  0  0  0  0
   56.8060   22.1470   45.4890 C   0  0  0  0  0  0  0  0  0  0  0  0
   56.4140   21.2720   44.5030 C   0  0  0  0  0  0  0  0  0  0  0  0
   56.1410   19.8670   44.9040 C   0  0  0  0  0  0  0  0  0  0  0  0
   55.8580   19.1820   43.7310 F   0  0  0  0  0  0  0  0  0  0  0  0
   57.1740   19.2920   45.5880 F   0  0  0  0  0  0  0  0  0  0  0  0
   54.9620   19.8200   45.6520 F   0  0  0  0  0  0  0  0  0  0  0  0
   56.2730   21.6660   43.1820 C   0  0  0  0  0  0  0  0  0  0  0  0
   56.5330   22.9920   42.8180 C   0  0  0  0  0  0  0  0  0  0  0  0
   56.9300   23.8800   43.8240 C   0  0  0  0  0  0  0  0  0  0  0  0
   57.2530   25.2030   43.8090 N   0  0  0  0  0  0  0  0  0  0  0  0
   58.9190   27.0710   46.4810 C   0  0  0  0  0  0  0  0  0  0  0  0
   59.3300   28.3270   46.9140 C   0  0  0  0  0  0  0  0  0  0  0  0
   59.9960   30.7100   47.9610 C   0  0  0  0  0  0  0  0  0  0  0  0
   60.4680   31.9080   48.4750 C   0  0  0  0  0  0  0  0  0  0  0  0
   62.4940   34.5070   50.0590 C   0  0  0  0  0  0  0  0  0  0  0  0
   63.8070   33.8890   50.3960 C   0  0  0  0  0  0  0  0  0  0  0  0
   65.0294   31.9509   51.2185 H   0  0  0  0  0  0  0  0  0  0  0  0
   65.0130   30.8914   49.7680 H   0  0  0  0  0  0  0  0  0  0  0  0
   65.9895   32.3991   49.7680 H   0  0  0  0  0  0  0  0  0  0  0  0
   65.0672   33.7285   48.2128 H   0  0  0  0  0  0  0  0  0  0  0  0
   64.2478   32.2363   47.5916 H   0  0  0  0  0  0  0  0  0  0  0  0
   63.4029   34.8558   47.2694 H   0  0  0  0  0  0  0  0  0  0  0  0
   62.4343   33.3086   47.0443 H   0  0  0  0  0  0  0  0  0  0  0  0
   60.1460   34.6667   49.3314 H   0  0  0  0  0  0  0  0  0  0  0  0
   60.5541   35.1982   47.6557 H   0  0  0  0  0  0  0  0  0  0  0  0
   59.2390   34.0477   46.2088 H   0  0  0  0  0  0  0  0  0  0  0  0
   58.3759   31.9566   45.2501 H   0  0  0  0  0  0  0  0  0  0  0  0
   57.3990   30.2330   44.8294 H   0  0  0  0  0  0  0  0  0  0  0  0
   56.6961   27.9498   44.0910 H   0  0  0  0  0  0  0  0  0  0  0  0
   56.9135   21.8174   46.5330 H   0  0  0  0  0  0  0  0  0  0  0  0
   55.9572   20.9376   42.4206 H   0  0  0  0  0  0  0  0  0  0  0  0
   56.4287   23.3254   41.7750 H   0  0  0  0  0  0  0  0  0  0  0  0
   57.2560   25.8330   42.9660 H   0  0  0  0  0  0  0  0  0  0  0  0
   59.3476   26.1715   46.9470 H   0  0  0  0  0  0  0  0  0  0  0  0
   60.0769   28.4327   47.7146 H   0  0  0  0  0  0  0  0  0  0  0  0
   60.2134   29.7568   48.4652 H   0  0  0  0  0  0  0  0  0  0  0  0
   61.0662   31.8842   49.3978 H   0  0  0  0  0  0  0  0  0  0  0  0
   62.5618   35.5850   50.2674 H   0  0  0  0  0  0  0  0  0  0  0  0
   61.7449   33.9868   50.6741 H   0  0  0  0  0  0  0  0  0  0  0  0
   64.6236   34.5830   50.1481 H   0  0  0  0  0  0  0  0  0  0  0  0
   63.8645   33.6622   51.4708 H   0  0  0  0  0  0  0  0  0  0  0  0
  1  2  1  0
  2  3  1  0
  3  4  1  0
  4  5  1  0
  5  6  1  0
  6  7  1  0
  7  8  2  0
  8  9  1  0
  9 10  2  0
 10 11  1  0
 11 12  2  0
 12 13  1  0
 13 14  2  0
 14 15  1  0
 15 16  2  0
 16 17  1  0
 17 18  2  0
 18 19  1  0
 19 20  1  0
 20 21  1  0
 20 22  1  0
 20 23  1  0
 19 24  2  0
 24 25  1  0
 25 26  2  0
 26 27  1  0
 14 28  1  0
 28 29  2  0
 10 30  1  0
 30 31  2  0
  5 32  1  0
 32 33  1  0
 33  2  1  0
 31  7  1  0
 29 11  1  0
 27 15  1  0
 26 17  1  0
  1 34  1  0
  1 35  1  0
  1 36  1  0
  3 37  1  0
  3 38  1  0
  4 39  1  0
  4 40  1  0
  6 41  1  0
  6 42  1  0
  8 43  1  0
  9 44  1  0
 12 45  1  0
 13 46  1  0
 18 47  1  0
 24 48  1  0
 25 49  1  0
 27 50  1  0
 28 51  1  0
 29 52  1  0
 30 53  1  0
 31 54  1  0
 32 55  1  0
 32 56  1  0
 33 57  1  0
 33 58  1  0
M  END
>  <smiles>  (2) 
CN1CCN(Cc2ccc(-c3ccc(-c4nc5cc(C(F)(F)F)ccc5[nH]4)cc3)cc2)CC1

>  <score_type>  (2) 
oracle

>  <origin>  (2) 
adg

>  <m_score__min__energy>  (2) 
-7.5

>  <m_primary>  (2) 
energy

$$$$
2:0
     RDKit          3D

 60 62  0  0  0  0  0  0  0  0999 V2000
   60.3470   29.4020   49.4260 C   0  0  0  0  0  0  0  0  0  0  0  0
   60.3420   29.5690   47.9060 C   0  0  0  0  0  0  0  0  0  0  0  0
   58.9670   29.2810   47.2760 C   0  0  0  0  0  0  0  0  0  0  0  0
   58.7240   30.1480   46.1080 N   0  0  0  0  0  0  0  0  0  0  0  0
   58.9500   29.4360   44.8410 C   0  0  0  0  0  0  0  0  0  0  0  0
   57.6190   29.0930   44.1500 C   0  0  0  0  0  0  0  0  0  0  0  0
   56.6380   30.2720   44.0280 C   0  0  0  0  0  0  0  0  0  0  0  0
   57.3130   31.6550   44.0570 C   0  0  0  0  0  0  0  0  0  0  0  0
   57.0230   32.3420   45.3240 N   0  0  0  0  0  0  0  0  0  0  0  0
   57.4820   33.7390   45.3030 C   0  0  0  0  0  0  0  0  0  0  0  0
   58.2060   34.0900   46.6070 C   0  0  0  0  0  0  0  0  0  0  0  0
   58.7590   32.8920   47.2390 N   0  0  0  0  0  0  0  0  0  0  0  0
   59.7260   33.0100   48.2930 C   0  0  0  0  0  0  0  0  0  0  0  0
   61.0630   33.3240   47.9960 C   0  0  0  0  0  0  0  0  0  0  0  0
   61.4860   33.4930   46.6610 C   0  0  0  0  0  0  0  0  0  0  0  0
   62.8240   33.7520   46.3670 C   0  0  0  0  0  0  0  0  0  0  0  0
   63.7600   33.8380   47.3930 C   0  0  0  0  0  0  0  0  0  0  0  0
   63.3580   33.6970   48.7210 C   0  0  0  0  0  0  0  0  0  0  0  0
   61.9970   33.4730   49.0560 C   0  0  0  0  0  0  0  0  0  0  0  0
   61.5760   33.3870   50.3700 N   0  0  0  0  0  0  0  0  0  0  0  0
   62.4690   33.8300   51.4650 C   0  0  0  0  0  0  0  0  0  0  0  0
   60.3120   32.9060   50.6600 C   0  0  0  0  0  0  0  0  0  0  0  0
   59.9350   32.5410   51.9780 C   0  0  0  0  0  0  0  0  0  0  0  0
   58.6470   32.0840   52.2580 C   0  0  0  0  0  0  0  0  0  0  0  0
   57.7100   31.9640   51.2380 C   0  0  0  0  0  0  0  0  0  0  0  0
   58.0610   32.2790   49.9290 C   0  0  0  0  0  0  0  0  0  0  0  0
   59.3580   32.7400   49.6210 C   0  0  0  0  0  0  0  0  0  0  0  0
   60.3173   30.3924   49.9038 H   0  0  0  0  0  0  0  0  0  0  0  0
   59.4659   28.8199   49.7338 H   0  0  0  0  0  0  0  0  0  0  0  0
   61.2614   28.8736   49.7338 H   0  0  0  0  0  0  0  0  0  0  0  0
   60.6284   30.6035   47.6656 H   0  0  0  0  0  0  0  0  0  0  0  0
   61.0541   28.8402   47.4916 H   0  0  0  0  0  0  0  0  0  0  0  0
   58.9322   28.2292   46.9557 H   0  0  0  0  0  0  0  0  0  0  0  0
   58.1899   29.4831   48.0278 H   0  0  0  0  0  0  0  0  0  0  0  0
   57.7160   30.4380   46.1300 H   0  0  0  0  0  0  0  0  0  0  0  0
   59.5472   30.0737   44.1727 H   0  0  0  0  0  0  0  0  0  0  0  0
   59.4811   28.4977   45.0589 H   0  0  0  0  0  0  0  0  0  0  0  0
   57.8427   28.7266   43.1372 H   0  0  0  0  0  0  0  0  0  0  0  0
   57.1247   28.3404   44.7818 H   0  0  0  0  0  0  0  0  0  0  0  0
   56.0945   30.1725   43.0768 H   0  0  0  0  0  0  0  0  0  0  0  0
   55.9734   30.2243   44.9033 H   0  0  0  0  0  0  0  0  0  0  0  0
   58.4009   31.5293   43.9540 H   0  0  0  0  0  0  0  0  0  0  0  0
   56.9213   32.2600   43.2260 H   0  0  0  0  0  0  0  0  0  0  0  0
   57.5500   31.8520   46.0790 H   0  0  0  0  0  0  0  0  0  0  0  0
   58.1716   33.8800   44.4577 H   0  0  0  0  0  0  0  0  0  0  0  0
   56.6074   34.3974   45.1954 H   0  0  0  0  0  0  0  0  0  0  0  0
   59.0247   34.7907   46.3864 H   0  0  0  0  0  0  0  0  0  0  0  0
   57.4821   34.5478   47.2973 H   0  0  0  0  0  0  0  0  0  0  0  0
   58.6370   31.9610   46.7780 H   0  0  0  0  0  0  0  0  0  0  0  0
   60.7531   33.4197   45.8440 H   0  0  0  0  0  0  0  0  0  0  0  0
   63.1402   33.8886   45.3223 H   0  0  0  0  0  0  0  0  0  0  0  0
   64.8191   34.0176   47.1562 H   0  0  0  0  0  0  0  0  0  0  0  0
   64.1086   33.7605   49.5226 H   0  0  0  0  0  0  0  0  0  0  0  0
   62.0031   33.5989   52.4343 H   0  0  0  0  0  0  0  0  0  0  0  0
   63.4328   33.3055   51.3871 H   0  0  0  0  0  0  0  0  0  0  0  0
   62.6345   34.9147   51.3871 H   0  0  0  0  0  0  0  0  0  0  0  0
   60.6702   32.6196   52.7924 H   0  0  0  0  0  0  0  0  0  0  0  0
   58.3719   31.8177   53.2892 H   0  0  0  0  0  0  0  0  0  0  0  0
   56.6904   31.6198   51.4660 H   0  0  0  0  0  0  0  0  0  0  0  0
   57.3185   32.1672   49.1251 H   0  0  0  0  0  0  0  0  0  0  0  0
  1  2  1  0
  2  3  1  0
  3  4  1  0
  4  5  1  0
  5  6  1  0
  6  7  1  0
  7  8  1  0
  8  9  1  0
  9 10  1  0
 10 11  1  0
 11 12  1  0
 12 13  1  0
 13 14  2  0
 14 15  1  0
 15 16  2  0
 16 17  1  0
 17 18  2  0
 18 19  1  0
 19 20  2  0
 20 21  1  0
 20 22  1  0
 22 23  2  0
 23 24  1  0
 24 25  2  0
 25 26  1  0
 26 27  2  0
 27 13  1  0
 19 14  1  0
 27 22  1  0
  1 28  1  0
  1 29  1  0
  1 30  1  0
  2 31  1  0
  2 32  1  0
  3 33  1  0
  3 34  1  0
  4 35  1  0
  5 36  1  0
  5 37  1  0
  6 38  1  0
  6 39  1  0
  7 40  1  0
  7 41  1  0
  8 42  1  0
  8 43  1  0
  9 44  1  0
 10 45  1  0
 10 46  1  0
 11 47  1  0
 11 48  1  0
 12 49  1  0
 15 50  1  0
 16 51  1  0
 17 52  1  0
 18 53  1  0
 21 54  1  0
 21 55  1  0
 21 56  1  0
 23 57  1  0
 24 58  1  0
 25 59  1  0
 26 60  1  0
M  CHG  1  20   1
M  END
>  <UniqueID>  (3) 
2

>  <SMILES>  (3) 
CCCNCCCCNCCNc1c2ccccc2[n+](C)c2ccccc12

>  <Energy>  (3) 
78.66711737671773

>  <Genealogy>  (3) 
CCCNCCCCNCCNc1c2ccccc2[n+](C)c2ccccc12 (3D coordinates assigned)
CCCNCCCCNCCNc1c2ccccc2[n+](C)c2ccccc12 (optimized conformer: 78.66711737671773 kcal/mol)

>  <smiles>  (3) 
CCCNCCCCNCCNc1c2ccccc2[n+](C)c2ccccc12

>  <score_type>  (3) 
oracle

>  <origin>  (3) 
adg

>  <m_score__min__energy>  (3) 
-6.4000000000000004

>  <m_primary>  (3) 
energy

$$$$
3:0
     RDKit          3D

 44 45  0  0  0  0  0  0  0  0999 V2000
   56.4230   29.9750   42.9770 C   0  0  0  0  0  0  0  0  0  0  0  0
   56.7350   30.6290   44.3280 C   0  0  0  0  0  0  0  0  0  0  0  0
   56.8280   29.6510   45.4230 N   0  0  0  0  0  0  0  0  0  0  0  0
   57.0130   28.2820   44.9180 C   0  0  0  0  0  0  0  0  0  0  0  0
   57.6280   27.3590   45.9870 C   0  0  0  0  0  0  0  0  0  0  0  0
   59.1250   27.5900   46.2710 C   0  0  0  0  0  0  0  0  0  0  0  0
   59.3740   28.5070   47.4790 C   0  0  0  0  0  0  0  0  0  0  0  0
   58.6120   29.7600   47.3590 N   0  0  0  0  0  0  0  0  0  0  0  0
   59.0670   30.7770   48.3250 C   0  0  0  0  0  0  0  0  0  0  0  0
   59.7660   31.9410   47.6380 C   0  0  0  0  0  0  0  0  0  0  0  0
   61.1420   32.0990   47.8870 C   0  0  0  0  0  0  0  0  0  0  0  0
   61.8770   33.1070   47.2670 C   0  0  0  0  0  0  0  0  0  0  0  0
   63.7440   33.2880   47.6320 Br  0  0  0  0  0  0  0  0  0  0  0  0
   61.2570   33.9770   46.3740 C   0  0  0  0  0  0  0  0  0  0  0  0
   59.8920   33.8470   46.0920 C   0  0  0  0  0  0  0  0  0  0  0  0
   59.2870   34.7220   45.1750 C   0  0  0  0  0  0  0  0  0  0  0  0
   57.9330   34.5990   44.8730 C   0  0  0  0  0  0  0  0  0  0  0  0
   57.1680   33.6070   45.4820 C   0  0  0  0  0  0  0  0  0  0  0  0
   57.7510   32.7290   46.3990 C   0  0  0  0  0  0  0  0  0  0  0  0
   59.1240   32.8270   46.7230 C   0  0  0  0  0  0  0  0  0  0  0  0
   55.9549   28.9937   43.1441 H   0  0  0  0  0  0  0  0  0  0  0  0
   55.7345   30.6177   42.4088 H   0  0  0  0  0  0  0  0  0  0  0  0
   57.3558   29.8443   42.4088 H   0  0  0  0  0  0  0  0  0  0  0  0
   57.6946   31.1609   44.2485 H   0  0  0  0  0  0  0  0  0  0  0  0
   55.9085   31.3153   44.5642 H   0  0  0  0  0  0  0  0  0  0  0  0
   55.9520   29.7060   45.9930 H   0  0  0  0  0  0  0  0  0  0  0  0
   56.0351   27.8776   44.6176 H   0  0  0  0  0  0  0  0  0  0  0  0
   57.7025   28.3224   44.0619 H   0  0  0  0  0  0  0  0  0  0  0  0
   57.0760   27.5112   46.9262 H   0  0  0  0  0  0  0  0  0  0  0  0
   57.5469   26.3362   45.5903 H   0  0  0  0  0  0  0  0  0  0  0  0
   59.5987   26.6167   46.4666 H   0  0  0  0  0  0  0  0  0  0  0  0
   59.5540   28.0863   45.3880 H   0  0  0  0  0  0  0  0  0  0  0  0
   59.0645   27.9848   48.3963 H   0  0  0  0  0  0  0  0  0  0  0  0
   60.4457   28.7521   47.5165 H   0  0  0  0  0  0  0  0  0  0  0  0
   57.5910   29.5740   47.5000 H   0  0  0  0  0  0  0  0  0  0  0  0
   58.7450   30.1430   46.3930 H   0  0  0  0  0  0  0  0  0  0  0  0
   58.1948   31.1605   48.8746 H   0  0  0  0  0  0  0  0  0  0  0  0
   59.7878   30.3011   49.0062 H   0  0  0  0  0  0  0  0  0  0  0  0
   61.6466   31.4139   48.5841 H   0  0  0  0  0  0  0  0  0  0  0  0
   61.8429   34.7707   45.8875 H   0  0  0  0  0  0  0  0  0  0  0  0
   59.8858   35.5087   44.6927 H   0  0  0  0  0  0  0  0  0  0  0  0
   57.4668   35.2867   44.1521 H   0  0  0  0  0  0  0  0  0  0  0  0
   56.0990   33.5144   45.2396 H   0  0  0  0  0  0  0  0  0  0  0  0
   57.1346   31.9520   46.8748 H   0  0  0  0  0  0  0  0  0  0  0  0
  1  2  1  0
  2  3  1  0
  3  4  1  0
  4  5  1  0
  5  6  1  0
  6  7  1  0
  7  8  1  0
  8  9  1  0
  9 10  1  0
 10 11  2  0
 11 12  1  0
 12 13  1  0
 12 14  2  0
 14 15  1  0
 15 16  2  0
 16 17  1  0
 17 18  2  0
 18 19  1  0
 19 20  2  0
 20 10  1  0
 20 15  1  0
  1 21  1  0
  1 22  1  0
  1 23  1  0
  2 24  1  0
  2 25  1  0
  3 26  1  0
  4 27  1  0
  4 28  1  0
  5 29  1  0
  5 30  1  0
  6 31  1  0
  6 32  1  0
  7 33  1  0
  7 34  1  0
  8 35  1  0
  8 36  1  0
  9 37  1  0
  9 38  1  0
 11 39  1  0
 14 40  1  0
 16 41  1  0
 17 42  1  0
 18 43  1  0
 19 44  1  0
M  CHG  1   8   1
M  END
>  <UniqueID>  (4) 
3

>  <SMILES>  (4) 
CCNCCCC[NH2+]Cc1cc(Br)cc2ccccc12

>  <Energy>  (4) 
41.39432583450674

>  <Genealogy>  (4) 
CCNCCCC[NH2+]Cc1cc(Br)cc2ccccc12 (protonated)
CCNCCCC[NH2+]Cc1cc(Br)cc2ccccc12 (3D coordinates assigned)
CCNCCCC[NH2+]Cc1cc(Br)cc2ccccc12 (optimized conformer: 41.39432583450674 kcal/mol)

>  <smiles>  (4) 
CCNCCCCNCc1cc(Br)cc2ccccc12

>  <score_type>  (4) 
oracle

>  <origin>  (4) 
adg

>  <m_score__min__energy>  (4) 
-6.0700000000000003

>  <m_primary>  (4) 
energy

$$$$
4:0
     RDKit          3D

 57 59  0  0  0  0  0  0  0  0999 V2000
   59.6680   35.6860   45.6500 C   0  0  0  0  0  0  0  0  0  0  0  0
   58.9310   34.5510   46.3800 C   0  0  0  0  0  0  0  0  0  0  0  0
   57.9160   33.8460   45.5610 N   0  0  0  0  0  0  0  0  0  0  0  0
   56.6730   33.4800   46.2590 C   0  0  0  0  0  0  0  0  0  0  0  0
   58.4370   32.7980   44.6590 C   0  0  0  0  0  0  0  0  0  0  0  0
   57.4570   31.6470   44.4010 C   0  0  0  0  0  0  0  0  0  0  0  0
   57.4100   30.8250   45.5490 O   0  0  0  0  0  0  0  0  0  0  0  0
   58.5470   29.9820   45.6090 C   0  0  0  0  0  0  0  0  0  0  0  0
   59.3810   30.2730   46.8600 C   0  0  0  0  0  0  0  0  0  0  0  0
   59.1960   31.6520   47.3100 N   0  0  0  0  0  0  0  0  0  0  0  0
   59.9930   32.1770   48.3820 C   0  0  0  0  0  0  0  0  0  0  0  0
   61.2570   32.7280   48.1180 C   0  0  0  0  0  0  0  0  0  0  0  0
   61.7320   32.8460   46.7930 C   0  0  0  0  0  0  0  0  0  0  0  0
   62.9690   33.4290   46.5310 C   0  0  0  0  0  0  0  0  0  0  0  0
   63.7400   33.9230   47.5760 C   0  0  0  0  0  0  0  0  0  0  0  0
   63.2910   33.8200   48.8930 C   0  0  0  0  0  0  0  0  0  0  0  0
   62.0550   33.1950   49.1970 C   0  0  0  0  0  0  0  0  0  0  0  0
   61.6100   33.0520   50.4990 N   0  0  0  0  0  0  0  0  0  0  0  0
   62.5460   33.2630   51.6260 C   0  0  0  0  0  0  0  0  0  0  0  0
   60.2990   32.6850   50.7470 C   0  0  0  0  0  0  0  0  0  0  0  0
   59.7260   32.7900   52.0400 C   0  0  0  0  0  0  0  0  0  0  0  0
   58.4120   32.3540   52.2940 C   0  0  0  0  0  0  0  0  0  0  0  0
   57.8230   32.4320   53.5650 O   0  0  0  0  0  0  0  0  0  0  0  0
   58.5200   32.7690   54.7610 C   0  0  0  0  0  0  0  0  0  0  0  0
   57.6570   31.8240   51.2510 C   0  0  0  0  0  0  0  0  0  0  0  0
   58.1780   31.7530   49.9640 C   0  0  0  0  0  0  0  0  0  0  0  0
   59.4850   32.2020   49.6900 C   0  0  0  0  0  0  0  0  0  0  0  0
   60.1119   36.3696   46.3887 H   0  0  0  0  0  0  0  0  0  0  0  0
   60.4629   35.2611   45.0195 H   0  0  0  0  0  0  0  0  0  0  0  0
   58.9564   36.2393   45.0195 H   0  0  0  0  0  0  0  0  0  0  0  0
   59.6777   33.8138   46.7099 H   0  0  0  0  0  0  0  0  0  0  0  0
   58.3877   35.0186   47.2144 H   0  0  0  0  0  0  0  0  0  0  0  0
   56.8351   33.5277   47.3459 H   0  0  0  0  0  0  0  0  0  0  0  0
   55.8737   34.1809   45.9764 H   0  0  0  0  0  0  0  0  0  0  0  0
   56.3811   32.4578   45.9764 H   0  0  0  0  0  0  0  0  0  0  0  0
   58.6830   33.2646   43.6937 H   0  0  0  0  0  0  0  0  0  0  0  0
   59.3149   32.3603   45.1566 H   0  0  0  0  0  0  0  0  0  0  0  0
   56.4555   32.0529   44.1953 H   0  0  0  0  0  0  0  0  0  0  0  0
   57.7901   31.0591   43.5330 H   0  0  0  0  0  0  0  0  0  0  0  0
   58.2162   28.9332   45.6332 H   0  0  0  0  0  0  0  0  0  0  0  0
   59.1694   30.1696   44.7216 H   0  0  0  0  0  0  0  0  0  0  0  0
   59.0724   29.5887   47.6641 H   0  0  0  0  0  0  0  0  0  0  0  0
   60.4428   30.1269   46.6125 H   0  0  0  0  0  0  0  0  0  0  0  0
   58.3980   32.2250   46.9540 H   0  0  0  0  0  0  0  0  0  0  0  0
   61.1183   32.4735   45.9595 H   0  0  0  0  0  0  0  0  0  0  0  0
   63.3360   33.4985   45.4964 H   0  0  0  0  0  0  0  0  0  0  0  0
   64.7094   34.3977   47.3639 H   0  0  0  0  0  0  0  0  0  0  0  0
   63.9054   34.2300   49.7081 H   0  0  0  0  0  0  0  0  0  0  0  0
   62.0075   33.1416   52.5775 H   0  0  0  0  0  0  0  0  0  0  0  0
   63.3606   32.5259   51.5690 H   0  0  0  0  0  0  0  0  0  0  0  0
   62.9655   34.2783   51.5690 H   0  0  0  0  0  0  0  0  0  0  0  0
   60.3197   33.2203   52.8600 H   0  0  0  0  0  0  0  0  0  0  0  0
   57.9156   32.4768   55.6324 H   0  0  0  0  0  0  0  0  0  0  0  0
   59.4822   32.2366   54.7870 H   0  0  0  0  0  0  0  0  0  0  0  0
   58.7003   33.8538   54.7870 H   0  0  0  0  0  0  0  0  0  0  0  0
   56.6384   31.4579   51.4472 H   0  0  0  0  0  0  0  0  0  0  0  0
   57.5627   31.3415   49.1503 H   0  0  0  0  0  0  0  0  0  0  0  0
  1  2  1  0
  2  3  1  0
  3  4  1  0
  3  5  1  0
  5  6  1  0
  6  7  1  0
  7  8  1  0
  8  9  1  0
  9 10  1  0
 10 11  1  0
 11 12  2  0
 12 13  1  0
 13 14  2  0
 14 15  1  0
 15 16  2  0
 16 17  1  0
 17 18  2  0
 18 19  1  0
 18 20  1  0
 20 21  2  0
 21 22  1  0
 22 23  1  0
 23 24  1  0
 22 25  2  0
 25 26  1  0
 26 27  2  0
 27 11  1  0
 17 12  1  0
 27 20  1  0
  1 28  1  0
  1 29  1  0
  1 30  1  0
  2 31  1  0
  2 32  1  0
  4 33  1  0
  4 34  1  0
  4 35  1  0
  5 36  1  0
  5 37  1  0
  6 38  1  0
  6 39  1  0
  8 40  1  0
  8 41  1  0
  9 42  1  0
  9 43  1  0
 10 44  1  0
 13 45  1  0
 14 46  1  0
 15 47  1  0
 16 48  1  0
 19 49  1  0
 19 50  1  0
 19 51  1  0
 21 52  1  0
 24 53  1  0
 24 54  1  0
 24 55  1  0
 25 56  1  0
 26 57  1  0
M  CHG  1  18   1
M  END
>  <UniqueID>  (5) 
4

>  <SMILES>  (5) 
CCN(C)CCOCCNc1c2ccccc2[n+](C)c2cc(OC)ccc12

>  <Energy>  (5) 
87.84219879309717

>  <Genealogy>  (5) 
CCN(C)CCOCCNc1c2ccccc2[n+](C)c2cc(OC)ccc12 (3D coordinates assigned)
CCN(C)CCOCCNc1c2ccccc2[n+](C)c2cc(OC)ccc12 (optimized conformer: 87.84219879309717 kcal/mol)

>  <smiles>  (5) 
CCN(C)CCOCCNc1c2ccccc2[n+](C)c2cc(OC)ccc12

>  <score_type>  (5) 
oracle

>  <origin>  (5) 
adg

>  <m_score__min__energy>  (5) 
-5.46

>  <m_primary>  (5) 
energy

$$$$
5:0
     RDKit          3D

 43 45  0  0  0  0  0  0  0  0999 V2000
   63.3830   31.6320   47.1350 C   0  0  0  0  0  0  0  0  0  0  0  0
   62.9030   33.0910   47.1140 C   0  0  0  0  0  0  0  0  0  0  0  0
   61.9940   33.4600   48.2230 N   0  0  0  0  0  0  0  0  0  0  0  0
   62.6870   34.2010   49.2910 C   0  0  0  0  0  0  0  0  0  0  0  0
   60.7650   34.1650   47.7950 C   0  0  0  0  0  0  0  0  0  0  0  0
   59.6390   34.0460   48.8420 C   0  0  0  0  0  0  0  0  0  0  0  0
   58.6740   32.9840   48.5280 N   0  0  0  0  0  0  0  0  0  0  0  0
   58.9290   31.8470   47.6710 C   0  0  0  0  0  0  0  0  0  0  0  0
   58.6400   31.8970   46.2840 C   0  0  0  0  0  0  0  0  0  0  0  0
   58.0660   33.0480   45.7010 C   0  0  0  0  0  0  0  0  0  0  0  0
   57.7100   33.0680   44.3560 C   0  0  0  0  0  0  0  0  0  0  0  0
   57.9050   31.9440   43.5630 C   0  0  0  0  0  0  0  0  0  0  0  0
   57.4130   31.9670   41.8790 Cl  0  0  0  0  0  0  0  0  0  0  0  0
   58.4810   30.7950   44.1050 C   0  0  0  0  0  0  0  0  0  0  0  0
   58.8910   30.7490   45.4620 C   0  0  0  0  0  0  0  0  0  0  0  0
   59.4990   29.6220   45.9950 N   0  0  0  0  0  0  0  0  0  0  0  0
   59.9140   28.5010   45.1260 C   0  0  0  0  0  0  0  0  0  0  0  0
   59.7180   29.5620   47.3510 C   0  0  0  0  0  0  0  0  0  0  0  0
   60.2200   28.4480   48.0650 C   0  0  0  0  0  0  0  0  0  0  0  0
   60.3890   28.6920   49.4210 C   0  0  0  0  0  0  0  0  0  0  0  0
   59.9040   30.2660   49.7450 S   0  0  0  0  0  0  0  0  0  0  0  0
   59.4560   30.6520   48.1700 C   0  0  0  0  0  0  0  0  0  0  0  0
   63.4931   31.2972   48.1770 H   0  0  0  0  0  0  0  0  0  0  0  0
   62.6466   30.9963   46.6215 H   0  0  0  0  0  0  0  0  0  0  0  0
   64.3530   31.5577   46.6215 H   0  0  0  0  0  0  0  0  0  0  0  0
   63.7873   33.7433   47.1645 H   0  0  0  0  0  0  0  0  0  0  0  0
   62.3261   33.2146   46.1856 H   0  0  0  0  0  0  0  0  0  0  0  0
   62.3459   33.8363   50.2711 H   0  0  0  0  0  0  0  0  0  0  0  0
   63.7723   34.0465   49.1997 H   0  0  0  0  0  0  0  0  0  0  0  0
   62.4603   35.2735   49.1997 H   0  0  0  0  0  0  0  0  0  0  0  0
   60.9996   35.2291   47.6446 H   0  0  0  0  0  0  0  0  0  0  0  0
   60.4132   33.7005   46.8620 H   0  0  0  0  0  0  0  0  0  0  0  0
   60.0918   33.8301   49.8209 H   0  0  0  0  0  0  0  0  0  0  0  0
   59.0901   34.9993   48.8451 H   0  0  0  0  0  0  0  0  0  0  0  0
   57.7430   33.0530   48.9950 H   0  0  0  0  0  0  0  0  0  0  0  0
   57.8978   33.9421   46.3193 H   0  0  0  0  0  0  0  0  0  0  0  0
   57.2723   33.9775   43.9188 H   0  0  0  0  0  0  0  0  0  0  0  0
   58.6197   29.9086   43.4685 H   0  0  0  0  0  0  0  0  0  0  0  0
   60.2287   27.6510   45.7492 H   0  0  0  0  0  0  0  0  0  0  0  0
   59.0688   28.1970   44.4910 H   0  0  0  0  0  0  0  0  0  0  0  0
   60.7534   28.8206   44.4910 H   0  0  0  0  0  0  0  0  0  0  0  0
   60.4535   27.4829   47.5916 H   0  0  0  0  0  0  0  0  0  0  0  0
   60.7759   27.9743   50.1594 H   0  0  0  0  0  0  0  0  0  0  0  0
  1  2  1  0
  2  3  1  0
  3  4  1  0
  3  5  1  0
  5  6  1  0
  6  7  1  0
  7  8  1  0
  8  9  2  0
  9 10  1  0
 10 11  2  0
 11 12  1  0
 12 13  1  0
 12 14  2  0
 14 15  1  0
 15 16  2  0
 16 17  1  0
 16 18  1  0
 18 19  1  0
 19 20  2  0
 20 21  1  0
 21 22  1  0
 22  8  1  0
 15  9  1  0
 22 18  2  0
  1 23  1  0
  1 24  1  0
  1 25  1  0
  2 26  1  0
  2 27  1  0
  4 28  1  0
  4 29  1  0
  4 30  1  0
  5 31  1  0
  5 32  1  0
  6 33  1  0
  6 34  1  0
  7 35  1  0
 10 36  1  0
 11 37  1  0
 14 38  1  0
 17 39  1  0
 17 40  1  0
 17 41  1  0
 19 42  1  0
 20 43  1  0
M  CHG  1  16   1
M  END
>  <UniqueID>  (6) 
5

>  <SMILES>  (6) 
CCN(C)CCNc1c2ccc(Cl)cc2[n+](C)c2ccsc12

>  <Energy>  (6) 
94.83126613633198

>  <Genealogy>  (6) 
CCN(C)CCNc1c2ccc(Cl)cc2[n+](C)c2ccsc12 (3D coordinates assigned)
CCN(C)CCNc1c2ccc(Cl)cc2[n+](C)c2ccsc12 (optimized conformer: 94.83126613633198 kcal/mol)

>  <smiles>  (6) 
CCN(C)CCNc1c2ccc(Cl)cc2[n+](C)c2ccsc12

>  <score_type>  (6) 
oracle

>  <origin>  (6) 
adg

>  <m_score__min__energy>  (6) 
-5.1799999999999997

>  <m_primary>  (6) 
energy

$$$$
6:0
     RDKit          3D

 66 68  0  0  0  0  0  0  0  0999 V2000
   58.6620   33.4780   52.0110 C   0  0  0  0  0  0  0  0  0  0  0  0
   57.7960   32.3160   51.5170 C   0  0  0  0  0  0  0  0  0  0  0  0
   58.3470   31.6870   50.3040 N   0  0  0  0  0  0  0  0  0  0  0  0
   58.5260   30.2330   50.4410 C   0  0  0  0  0  0  0  0  0  0  0  0
   58.9120   29.5900   49.0970 C   0  0  0  0  0  0  0  0  0  0  0  0
   59.6110   30.5130   48.1750 N   0  0  0  0  0  0  0  0  0  0  0  0
   59.0060   30.5620   46.8470 C   0  0  0  0  0  0  0  0  0  0  0  0
   58.8360   29.3560   46.0930 C   0  0  0  0  0  0  0  0  0  0  0  0
   59.3210   28.0970   46.5420 C   0  0  0  0  0  0  0  0  0  0  0  0
   59.1750   26.9430   45.7780 C   0  0  0  0  0  0  0  0  0  0  0  0
   58.5570   27.0020   44.5410 C   0  0  0  0  0  0  0  0  0  0  0  0
   58.0650   28.2120   44.0700 C   0  0  0  0  0  0  0  0  0  0  0  0
   58.1630   29.4010   44.8400 C   0  0  0  0  0  0  0  0  0  0  0  0
   57.6360   30.5830   44.3780 N   0  0  0  0  0  0  0  0  0  0  0  0
   56.6530   30.5670   43.2690 C   0  0  0  0  0  0  0  0  0  0  0  0
   57.9950   31.7780   44.9580 C   0  0  0  0  0  0  0  0  0  0  0  0
   57.7710   32.9940   44.2700 C   0  0  0  0  0  0  0  0  0  0  0  0
   58.0270   34.2170   44.8620 C   0  0  0  0  0  0  0  0  0  0  0  0
   58.4970   34.2710   46.1580 C   0  0  0  0  0  0  0  0  0  0  0  0
   58.7770   33.0970   46.8800 C   0  0  0  0  0  0  0  0  0  0  0  0
   59.2140   33.2090   48.2090 O   0  0  0  0  0  0  0  0  0  0  0  0
   59.7110   34.3930   48.8330 C   0  0  0  0  0  0  0  0  0  0  0  0
   61.1960   34.2090   49.1940 C   0  0  0  0  0  0  0  0  0  0  0  0
   61.8040   32.8490   48.7560 C   0  0  0  0  0  0  0  0  0  0  0  0
   62.9810   32.9040   47.8300 N   0  0  0  0  0  0  0  0  0  0  0  0
   64.2000   33.3850   48.5200 C   0  0  0  0  0  0  0  0  0  0  0  0
   63.2470   31.5850   47.2060 C   0  0  0  0  0  0  0  0  0  0  0  0
   62.6570   33.8680   46.7490 C   0  0  0  0  0  0  0  0  0  0  0  0
   58.6030   31.8110   46.2520 C   0  0  0  0  0  0  0  0  0  0  0  0
   58.6694   33.4880   53.1109 H   0  0  0  0  0  0  0  0  0  0  0  0
   59.6895   33.3537   51.6385 H   0  0  0  0  0  0  0  0  0  0  0  0
   58.2492   34.4271   51.6385 H   0  0  0  0  0  0  0  0  0  0  0  0
   57.7335   31.5581   52.3118 H   0  0  0  0  0  0  0  0  0  0  0  0
   56.8028   32.7177   51.2674 H   0  0  0  0  0  0  0  0  0  0  0  0
   59.2680   32.1250   50.0660 H   0  0  0  0  0  0  0  0  0  0  0  0
   59.3223   30.0371   51.1742 H   0  0  0  0  0  0  0  0  0  0  0  0
   57.5740   29.7951   50.7756 H   0  0  0  0  0  0  0  0  0  0  0  0
   59.5728   28.7340   49.2986 H   0  0  0  0  0  0  0  0  0  0  0  0
   57.9758   29.2903   48.6033 H   0  0  0  0  0  0  0  0  0  0  0  0
   60.6140   30.2520   48.0840 H   0  0  0  0  0  0  0  0  0  0  0  0
   59.7170   31.4470   48.6190 H   0  0  0  0  0  0  0  0  0  0  0  0
   59.8244   28.0336   47.5180 H   0  0  0  0  0  0  0  0  0  0  0  0
   59.5516   25.9819   46.1581 H   0  0  0  0  0  0  0  0  0  0  0  0
   58.4557   26.0917   43.9319 H   0  0  0  0  0  0  0  0  0  0  0  0
   57.5891   28.2503   43.0790 H   0  0  0  0  0  0  0  0  0  0  0  0
   55.6339   30.5504   43.6826 H   0  0  0  0  0  0  0  0  0  0  0  0
   56.7832   31.4674   42.6506 H   0  0  0  0  0  0  0  0  0  0  0  0
   56.8124   29.6713   42.6506 H   0  0  0  0  0  0  0  0  0  0  0  0
   57.3843   32.9657   43.2406 H   0  0  0  0  0  0  0  0  0  0  0  0
   57.8560   35.1468   44.2997 H   0  0  0  0  0  0  0  0  0  0  0  0
   58.6555   35.2495   46.6350 H   0  0  0  0  0  0  0  0  0  0  0  0
   59.6059   35.2418   48.1413 H   0  0  0  0  0  0  0  0  0  0  0  0
   59.1361   34.5885   49.7502 H   0  0  0  0  0  0  0  0  0  0  0  0
   61.7691   35.0131   48.7092 H   0  0  0  0  0  0  0  0  0  0  0  0
   61.2558   34.2381   50.2920 H   0  0  0  0  0  0  0  0  0  0  0  0
   62.1202   32.3171   49.6655 H   0  0  0  0  0  0  0  0  0  0  0  0
   61.0093   32.3486   48.1833 H   0  0  0  0  0  0  0  0  0  0  0  0
   64.0523   33.3267   49.6085 H   0  0  0  0  0  0  0  0  0  0  0  0
   65.0562   32.7573   48.2320 H   0  0  0  0  0  0  0  0  0  0  0  0
   64.3969   34.4282   48.2320 H   0  0  0  0  0  0  0  0  0  0  0  0
   63.3990   30.8312   47.9926 H   0  0  0  0  0  0  0  0  0  0  0  0
   62.3892   31.2952   46.5813 H   0  0  0  0  0  0  0  0  0  0  0  0
   64.1501   31.6503   46.5813 H   0  0  0  0  0  0  0  0  0  0  0  0
   62.3363   34.8222   47.1926 H   0  0  0  0  0  0  0  0  0  0  0  0
   63.5486   34.0343   46.1266 H   0  0  0  0  0  0  0  0  0  0  0  0
   61.8459   33.4620   46.1266 H   0  0  0  0  0  0  0  0  0  0  0  0
  1  2  1  0
  2  3  1  0
  3  4  1  0
  4  5  1  0
  5  6  1  0
  6  7  1  0
  7  8  2  0
  8  9  1  0
  9 10  2  0
 10 11  1  0
 11 12  2  0
 12 13  1  0
 13 14  2  0
 14 15  1  0
 14 16  1  0
 16 17  2  0
 17 18  1  0
 18 19  2  0
 19 20  1  0
 20 21  1  0
 21 22  1  0
 22 23  1  0
 23 24  1  0
 24 25  1  0
 25 26  1  0
 25 27  1  0
 25 28  1  0
 20 29  2  0
 29  7  1  0
 13  8  1  0
 29 16  1  0
  1 30  1  0
  1 31  1  0
  1 32  1  0
  2 33  1  0
  2 34  1  0
  3 35  1  0
  4 36  1  0
  4 37  1  0
  5 38  1  0
  5 39  1  0
  6 40  1  0
  6 41  1  0
  9 42  1  0
 10 43  1  0
 11 44  1  0
 12 45  1  0
 15 46  1  0
 15 47  1  0
 15 48  1  0
 17 49  1  0
 18 50  1  0
 19 51  1  0
 22 52  1  0
 22 53  1  0
 23 54  1  0
 23 55  1  0
 24 56  1  0
 24 57  1  0
 26 58  1  0
 26 59  1  0
 26 60  1  0
 27 61  1  0
 27 62  1  0
 27 63  1  0
 28 64  1  0
 28 65  1  0
 28 66  1  0
M  CHG  3   6   1  14   1  25   1
M  END
>  <UniqueID>  (7) 
6

>  <SMILES>  (7) 
CCNCC[NH2+]c1c2ccccc2[n+](C)c2cccc(OCCC[N+](C)(C)C)c12

>  <Energy>  (7) 
109.999454519647

>  <Genealogy>  (7) 
CCNCC[NH2+]c1c2ccccc2[n+](C)c2cccc(OCCC[N+](C)(C)C)c12 (protonated)
CCNCC[NH2+]c1c2ccccc2[n+](C)c2cccc(OCCC[N+](C)(C)C)c12 (3D coordinates assigned)
CCNCC[NH2+]c1c2ccccc2[n+](C)c2cccc(OCCC[N+](C)(C)C)c12 (optimized conformer: 109.999454519647 kcal/mol)

>  <smiles>  (7) 
CCNCCNc1c2ccccc2[n+](C)c2cccc(OCCC[N+](C)(C)C)c12

>  <score_type>  (7) 
oracle

>  <origin>  (7) 
adg

>  <m_score__min__energy>  (7) 
-2.6099999999999999

>  <m_primary>  (7) 
energy

$$$$
7:0
     RDKit          3D

 52 54  0  0  0  0  0  0  0  0999 V2000
   57.7780   26.2220   44.3000 C   0  0  0  0  0  0  0  0  0  0  0  0
   58.1550   27.3820   43.3730 C   0  0  0  0  0  0  0  0  0  0  0  0
   58.5060   28.6070   44.1100 N   0  0  0  0  0  0  0  0  0  0  0  0
   59.8940   28.5880   44.5870 C   0  0  0  0  0  0  0  0  0  0  0  0
   59.9170   28.6290   46.1170 C   0  0  0  0  0  0  0  0  0  0  0  0
   58.7290   29.2980   46.6930 N   0  0  0  0  0  0  0  0  0  0  0  0
   59.0140   30.6640   47.1270 C   0  0  0  0  0  0  0  0  0  0  0  0
   59.8760   30.8610   48.2530 C   0  0  0  0  0  0  0  0  0  0  0  0
   60.4440   29.7700   48.9690 C   0  0  0  0  0  0  0  0  0  0  0  0
   61.3240   29.9690   50.0440 C   0  0  0  0  0  0  0  0  0  0  0  0
   61.8930   28.9080   50.7670 O   0  0  0  0  0  0  0  0  0  0  0  0
   62.8060   29.0600   51.8480 C   0  0  0  0  0  0  0  0  0  0  0  0
   61.6580   31.2630   50.4130 C   0  0  0  0  0  0  0  0  0  0  0  0
   61.1090   32.3500   49.7460 C   0  0  0  0  0  0  0  0  0  0  0  0
   60.1870   32.1770   48.6820 C   0  0  0  0  0  0  0  0  0  0  0  0
   59.6190   33.2620   48.0600 N   0  0  0  0  0  0  0  0  0  0  0  0
   59.6730   34.5940   48.7070 C   0  0  0  0  0  0  0  0  0  0  0  0
   58.9740   33.1120   46.8520 C   0  0  0  0  0  0  0  0  0  0  0  0
   58.7420   34.2420   46.0330 C   0  0  0  0  0  0  0  0  0  0  0  0
   58.0140   34.1480   44.8640 C   0  0  0  0  0  0  0  0  0  0  0  0
   57.4660   32.9380   44.4890 C   0  0  0  0  0  0  0  0  0  0  0  0
   57.6910   31.7720   45.2440 C   0  0  0  0  0  0  0  0  0  0  0  0
   57.0310   30.5940   44.8660 O   0  0  0  0  0  0  0  0  0  0  0  0
   56.1680   30.4420   43.7410 C   0  0  0  0  0  0  0  0  0  0  0  0
   58.5490   31.8210   46.4010 C   0  0  0  0  0  0  0  0  0  0  0  0
   57.8817   26.5412   45.3476 H   0  0  0  0  0  0  0  0  0  0  0  0
   56.7366   25.9236   44.1090 H   0  0  0  0  0  0  0  0  0  0  0  0
   58.4450   25.3684   44.1090 H   0  0  0  0  0  0  0  0  0  0  0  0
   59.0186   27.0786   42.7630 H   0  0  0  0  0  0  0  0  0  0  0  0
   57.2769   27.6088   42.7505 H   0  0  0  0  0  0  0  0  0  0  0  0
   58.3700   29.4360   43.4830 H   0  0  0  0  0  0  0  0  0  0  0  0
   60.3872   27.6685   44.2389 H   0  0  0  0  0  0  0  0  0  0  0  0
   60.4259   29.4662   44.1921 H   0  0  0  0  0  0  0  0  0  0  0  0
   59.9565   27.5968   46.4953 H   0  0  0  0  0  0  0  0  0  0  0  0
   60.8014   29.2095   46.4185 H   0  0  0  0  0  0  0  0  0  0  0  0
   58.2650   28.7050   47.4030 H   0  0  0  0  0  0  0  0  0  0  0  0
   57.9750   29.3230   45.9720 H   0  0  0  0  0  0  0  0  0  0  0  0
   60.1862   28.7428   48.6717 H   0  0  0  0  0  0  0  0  0  0  0  0
   62.2641   28.9698   52.8010 H   0  0  0  0  0  0  0  0  0  0  0  0
   63.5773   28.2779   51.7893 H   0  0  0  0  0  0  0  0  0  0  0  0
   63.2823   30.0498   51.7893 H   0  0  0  0  0  0  0  0  0  0  0  0
   62.3633   31.4298   51.2405 H   0  0  0  0  0  0  0  0  0  0  0  0
   61.3954   33.3678   50.0494 H   0  0  0  0  0  0  0  0  0  0  0  0
   59.6680   34.4711   49.8001 H   0  0  0  0  0  0  0  0  0  0  0  0
   60.5929   35.1134   48.4006 H   0  0  0  0  0  0  0  0  0  0  0  0
   58.7981   35.1862   48.4006 H   0  0  0  0  0  0  0  0  0  0  0  0
   59.1510   35.2176   46.3346 H   0  0  0  0  0  0  0  0  0  0  0  0
   57.8707   35.0367   44.2318 H   0  0  0  0  0  0  0  0  0  0  0  0
   56.8426   32.8842   43.5843 H   0  0  0  0  0  0  0  0  0  0  0  0
   55.1403   30.2610   44.0890 H   0  0  0  0  0  0  0  0  0  0  0  0
   56.1932   31.3584   43.1331 H   0  0  0  0  0  0  0  0  0  0  0  0
   56.5048   29.5893   43.1331 H   0  0  0  0  0  0  0  0  0  0  0  0
  1  2  1  0
  2  3  1  0
  3  4  1  0
  4  5  1  0
  5  6  1  0
  6  7  1  0
  7  8  2  0
  8  9  1  0
  9 10  2  0
 10 11  1  0
 11 12  1  0
 10 13  1  0
 13 14  2  0
 14 15  1  0
 15 16  2  0
 16 17  1  0
 16 18  1  0
 18 19  2  0
 19 20  1  0
 20 21  2  0
 21 22  1  0
 22 23  1  0
 23 24  1  0
 22 25  2  0
 25  7  1  0
 15  8  1  0
 25 18  1  0
  1 26  1  0
  1 27  1  0
  1 28  1  0
  2 29  1  0
  2 30  1  0
  3 31  1  0
  4 32  1  0
  4 33  1  0
  5 34  1  0
  5 35  1  0
  6 36  1  0
  6 37  1  0
  9 38  1  0
 12 39  1  0
 12 40  1  0
 12 41  1  0
 13 42  1  0
 14 43  1  0
 17 44  1  0
 17 45  1  0
 17 46  1  0
 19 47  1  0
 20 48  1  0
 21 49  1  0
 24 50  1  0
 24 51  1  0
 24 52  1  0
M  CHG  2   6   1  16   1
M  END
>  <UniqueID>  (8) 
7

>  <SMILES>  (8) 
CCNCC[NH2+]c1c2cc(OC)ccc2[n+](C)c2cccc(OC)c12

>  <Energy>  (8) 
88.35841525877835

>  <Genealogy>  (8) 
CCNCC[NH2+]c1c2cc(OC)ccc2[n+](C)c2cccc(OC)c12 (protonated)
CCNCC[NH2+]c1c2cc(OC)ccc2[n+](C)c2cccc(OC)c12 (3D coordinates assigned)
CCNCC[NH2+]c1c2cc(OC)ccc2[n+](C)c2cccc(OC)c12 (optimized conformer: 88.35841525877835 kcal/mol)

>  <smiles>  (8) 
CCNCCNc1c2cc(OC)ccc2[n+](C)c2cccc(OC)c12

>  <score_type>  (8) 
oracle

>  <origin>  (8) 
adg

>  <m_score__min__energy>  (8) 
-3.3300000000000001

>  <m_primary>  (8) 
energy

$$$$
8:0
     RDKit          3D

 36 37  0  0  0  0  0  0  0  0999 V2000
   61.4740   33.4250   46.7900 C   0  0  0  0  0  0  0  0  0  0  0  0
   62.0140   32.0510   47.1730 C   0  0  0  0  0  0  0  0  0  0  0  0
   61.0570   30.9860   46.8380 N   0  0  0  0  0  0  0  0  0  0  0  0
   60.7200   30.1260   47.9860 C   0  0  0  0  0  0  0  0  0  0  0  0
   60.1920   28.7590   47.5150 C   0  0  0  0  0  0  0  0  0  0  0  0
   59.8500   28.7390   46.0810 N   0  0  0  0  0  0  0  0  0  0  0  0
   58.4350   28.5650   45.8650 C   0  0  0  0  0  0  0  0  0  0  0  0
   57.7410   27.3740   45.9950 C   0  0  0  0  0  0  0  0  0  0  0  0
   56.4920   27.5550   45.6220 O   0  0  0  0  0  0  0  0  0  0  0  0
   56.3450   28.8080   45.2560 C   0  0  0  0  0  0  0  0  0  0  0  0
   55.1420   29.3400   44.8110 O   0  0  0  0  0  0  0  0  0  0  0  0
   57.5300   29.5050   45.3910 C   0  0  0  0  0  0  0  0  0  0  0  0
   57.7540   30.9310   45.0800 C   0  0  0  0  0  0  0  0  0  0  0  0
   57.8600   31.3520   43.7430 C   0  0  0  0  0  0  0  0  0  0  0  0
   58.0640   32.7020   43.4430 C   0  0  0  0  0  0  0  0  0  0  0  0
   58.1520   33.6430   44.4730 C   0  0  0  0  0  0  0  0  0  0  0  0
   58.0300   33.2350   45.8040 C   0  0  0  0  0  0  0  0  0  0  0  0
   57.8260   31.8850   46.1090 C   0  0  0  0  0  0  0  0  0  0  0  0
   61.2489   33.9977   47.7018 H   0  0  0  0  0  0  0  0  0  0  0  0
   62.2277   33.9627   46.1960 H   0  0  0  0  0  0  0  0  0  0  0  0
   60.5559   33.3056   46.1960 H   0  0  0  0  0  0  0  0  0  0  0  0
   62.9536   31.8716   46.6299 H   0  0  0  0  0  0  0  0  0  0  0  0
   62.1824   32.0358   48.2599 H   0  0  0  0  0  0  0  0  0  0  0  0
   60.1770   31.4570   46.5200 H   0  0  0  0  0  0  0  0  0  0  0  0
   61.6216   29.9722   48.5972 H   0  0  0  0  0  0  0  0  0  0  0  0
   59.9344   30.6208   48.5758 H   0  0  0  0  0  0  0  0  0  0  0  0
   60.9664   28.0004   47.7017 H   0  0  0  0  0  0  0  0  0  0  0  0
   59.2699   28.5498   48.0772 H   0  0  0  0  0  0  0  0  0  0  0  0
   60.1240   29.6580   45.6620 H   0  0  0  0  0  0  0  0  0  0  0  0
   60.4020   27.9970   45.5970 H   0  0  0  0  0  0  0  0  0  0  0  0
   58.1668   26.4253   46.3538 H   0  0  0  0  0  0  0  0  0  0  0  0
   57.7821   30.6159   42.9293 H   0  0  0  0  0  0  0  0  0  0  0  0
   58.1554   33.0242   42.3952 H   0  0  0  0  0  0  0  0  0  0  0  0
   58.3172   34.7044   44.2359 H   0  0  0  0  0  0  0  0  0  0  0  0
   58.0945   33.9769   46.6136 H   0  0  0  0  0  0  0  0  0  0  0  0
   57.7217   31.5694   47.1576 H   0  0  0  0  0  0  0  0  0  0  0  0
  1  2  1  0
  2  3  1  0
  3  4  1  0
  4  5  1  0
  5  6  1  0
  6  7  1  0
  7  8  2  0
  8  9  1  0
  9 10  1  0
 10 11  1  0
 10 12  2  0
 12 13  1  0
 13 14  2  0
 14 15  1  0
 15 16  2  0
 16 17  1  0
 17 18  2  0
 12  7  1  0
 18 13  1  0
  1 19  1  0
  1 20  1  0
  1 21  1  0
  2 22  1  0
  2 23  1  0
  3 24  1  0
  4 25  1  0
  4 26  1  0
  5 27  1  0
  5 28  1  0
  6 29  1  0
  6 30  1  0
  8 31  1  0
 14 32  1  0
 15 33  1  0
 16 34  1  0
 17 35  1  0
 18 36  1  0
M  CHG  2   6   1  11  -1
M  END
>  <UniqueID>  (9) 
8

>  <SMILES>  (9) 
CCNCC[NH2+]c1coc([O-])c1-c1ccccc1

>  <Energy>  (9) 
67.64790995621219

>  <Genealogy>  (9) 
CCNCC[NH2+]c1coc([O-])c1-c1ccccc1 (protonated)
CCNCC[NH2+]c1coc([O-])c1-c1ccccc1 (3D coordinates assigned)
CCNCC[NH2+]c1coc([O-])c1-c1ccccc1 (optimized conformer: 67.64790995621219 kcal/mol)

>  <smiles>  (9) 
CCNCCNc1coc(O)c1-c1ccccc1

>  <score_type>  (9) 
oracle

>  <origin>  (9) 
adg

>  <m_score__min__energy>  (9) 
-6.8399999999999999

>  <m_primary>  (9) 
energy

$$$$
9:0
     RDKit          3D

 43 44  0  0  0  0  0  0  0  0999 V2000
   59.6270   35.3340   45.6160 C   0  0  0  0  0  0  0  0  0  0  0  0
   58.9180   34.1350   44.9680 C   0  0  0  0  0  0  0  0  0  0  0  0
   58.9580   32.8720   45.7530 N   0  0  2  0  0  0  0  0  0  0  0  0
   57.8400   31.9380   45.4690 C   0  0  0  0  0  0  0  0  0  0  0  0
   58.3280   30.5420   45.1380 C   0  0  0  0  0  0  0  0  0  0  0  0
   59.5880   30.1220   45.6010 C   0  0  0  0  0  0  0  0  0  0  0  0
   60.0510   28.8330   45.3300 C   0  0  0  0  0  0  0  0  0  0  0  0
   59.2630   27.9460   44.5940 C   0  0  0  0  0  0  0  0  0  0  0  0
   58.0110   28.3480   44.1260 C   0  0  0  0  0  0  0  0  0  0  0  0
   57.5360   29.6380   44.3920 C   0  0  0  0  0  0  0  0  0  0  0  0
   55.9530   30.0870   43.7630 Cl  0  0  0  0  0  0  0  0  0  0  0  0
   59.0580   33.1270   47.1800 C   0  0  0  0  0  0  0  0  0  0  0  0
   58.0640   33.4190   47.8310 O   0  0  0  0  0  0  0  0  0  0  0  0
   60.3810   32.9960   47.8890 C   0  0  0  0  0  0  0  0  0  0  0  0
   61.4160   32.5000   46.9570 N   0  0  0  0  0  0  0  0  0  0  0  0
   62.3610   33.5530   46.5260 C   0  0  0  0  0  0  0  0  0  0  0  0
   63.4060   33.8930   47.6060 C   0  0  0  0  0  0  0  0  0  0  0  0
   64.1020   32.6910   48.0780 N   0  0  0  0  0  0  0  0  0  0  0  0
   63.1430   31.6970   48.5730 C   0  0  0  0  0  0  0  0  0  0  0  0
   62.1310   31.3190   47.4800 C   0  0  0  0  0  0  0  0  0  0  0  0
   59.5736   35.2436   46.7110 H   0  0  0  0  0  0  0  0  0  0  0  0
   60.6806   35.3513   45.3005 H   0  0  0  0  0  0  0  0  0  0  0  0
   59.1344   36.2656   45.3005 H   0  0  0  0  0  0  0  0  0  0  0  0
   57.8631   34.4064   44.8146 H   0  0  0  0  0  0  0  0  0  0  0  0
   59.4609   33.9295   44.0336 H   0  0  0  0  0  0  0  0  0  0  0  0
   59.8400   32.3890   45.4660 H   0  0  0  0  0  0  0  0  0  0  0  0
   57.1896   31.8849   46.3545 H   0  0  0  0  0  0  0  0  0  0  0  0
   57.2953   32.3209   44.5934 H   0  0  0  0  0  0  0  0  0  0  0  0
   60.2142   30.8153   46.1818 H   0  0  0  0  0  0  0  0  0  0  0  0
   61.0383   28.5157   45.6970 H   0  0  0  0  0  0  0  0  0  0  0  0
   59.6289   26.9303   44.3830 H   0  0  0  0  0  0  0  0  0  0  0  0
   57.3938   27.6472   43.5447 H   0  0  0  0  0  0  0  0  0  0  0  0
   60.6836   33.9798   48.2771 H   0  0  0  0  0  0  0  0  0  0  0  0
   60.2734   32.2807   48.7177 H   0  0  0  0  0  0  0  0  0  0  0  0
   62.8870   33.2061   45.6243 H   0  0  0  0  0  0  0  0  0  0  0  0
   61.7765   34.4642   46.3310 H   0  0  0  0  0  0  0  0  0  0  0  0
   64.1439   34.5902   47.1824 H   0  0  0  0  0  0  0  0  0  0  0  0
   62.8836   34.3474   48.4608 H   0  0  0  0  0  0  0  0  0  0  0  0
   64.6380   32.2760   47.2800 H   0  0  0  0  0  0  0  0  0  0  0  0
   63.6889   30.7947   48.8859 H   0  0  0  0  0  0  0  0  0  0  0  0
   62.5961   32.1298   49.4236 H   0  0  0  0  0  0  0  0  0  0  0  0
   62.6675   30.8330   46.6518 H   0  0  0  0  0  0  0  0  0  0  0  0
   61.3878   30.6408   47.9245 H   0  0  0  0  0  0  0  0  0  0  0  0
  1  2  1  0
  2  3  1  0
  3  4  1  0
  4  5  1  0
  5  6  2  0
  6  7  1  0
  7  8  2  0
  8  9  1  0
  9 10  2  0
 10 11  1  0
  3 12  1  0
 12 13  2  0
 12 14  1  0
 14 15  1  0
 15 16  1  0
 16 17  1  0
 17 18  1  0
 18 19  1  0
 19 20  1  0
 10  5  1  0
 20 15  1  0
  1 21  1  0
  1 22  1  0
  1 23  1  0
  2 24  1  0
  2 25  1  0
  3 26  1  6
  4 27  1  0
  4 28  1  0
  6 29  1  0
  7 30  1  0
  8 31  1  0
  9 32  1  0
 14 33  1  0
 14 34  1  0
 16 35  1  0
 16 36  1  0
 17 37  1  0
 17 38  1  0
 18 39  1  0
 19 40  1  0
 19 41  1  0
 20 42  1  0
 20 43  1  0
M  CHG  1   3   1
M  END
>  <UniqueID>  (10) 
9

>  <SMILES>  (10) 
CC[N@H+](Cc1ccccc1Cl)C(=O)CN1CCNCC1

>  <Energy>  (10) 
48.37993270217831

>  <Genealogy>  (10) 
CC[NH+](Cc1ccccc1Cl)C(=O)CN1CCNCC1 (protonated)
CC[N@H+](Cc1ccccc1Cl)C(=O)CN1CCNCC1 (chirality)
CC[N@H+](Cc1ccccc1Cl)C(=O)CN1CCNCC1 (3D coordinates assigned)
CC[N@H+](Cc1ccccc1Cl)C(=O)CN1CCNCC1 (nonaromatic ring conformer: 48.37993270217831 kcal/mol)

>  <smiles>  (10) 
CCN(Cc1ccccc1Cl)C(=O)CN1CCNCC1

>  <score_type>  (10) 
oracle

>  <origin>  (10) 
adg

>  <m_score__min__energy>  (10) 
-5.7400000000000002

>  <m_primary>  (10) 
energy

$$$$
10:0
     RDKit          3D

 44 46  0  0  0  0  0  0  0  0999 V2000
   64.8794   34.1313   48.1280 H   0  0  0  0  0  0  0  0  0  0  0  0
   63.9780   33.5030   48.0770 C   0  0  0  0  0  0  0  0  0  0  0  0
   62.9280   33.3890   46.7710 S   0  0  0  0  0  0  0  0  0  0  0  0
   61.8860   32.2620   47.4580 C   0  0  0  0  0  0  0  0  0  0  0  0
   60.6850   31.7320   46.7860 C   0  0  0  0  0  0  0  0  0  0  0  0
   60.2440   30.4750   46.9970 N   0  0  0  0  0  0  0  0  0  0  0  0
   59.1130   30.3580   46.3220 N   0  0  0  0  0  0  0  0  0  0  0  0
   58.5170   29.5020   46.3040 H   0  0  0  0  0  0  0  0  0  0  0  0
   58.8530   31.5390   45.7380 C   0  0  0  0  0  0  0  0  0  0  0  0
   57.3280   31.8930   44.8470 S   0  0  0  0  0  0  0  0  0  0  0  0
   57.1970   30.2530   44.0430 C   0  0  0  0  0  0  0  0  0  0  0  0
   56.7090   30.3752   43.0647 H   0  0  0  0  0  0  0  0  0  0  0  0
   58.2133   29.8467   43.9332 H   0  0  0  0  0  0  0  0  0  0  0  0
   56.4000   29.2880   44.8630 C   0  0  0  0  0  0  0  0  0  0  0  0
   55.1410   29.3680   44.8710 O   0  0  0  0  0  0  0  0  0  0  0  0
   57.0900   28.3110   45.6570 N   0  0  0  0  0  0  0  0  0  0  0  0
   56.6920   27.1000   45.9090 C   0  0  0  0  0  0  0  0  0  0  0  0
   55.4040   26.7110   45.9900 N   0  0  0  0  0  0  0  0  0  0  0  0
   55.4260   25.4470   46.2990 O   0  0  0  0  0  0  0  0  0  0  0  0
   56.6600   25.0120   46.4250 C   0  0  0  0  0  0  0  0  0  0  0  0
   57.0330   23.6100   46.7690 C   0  0  0  0  0  0  0  0  0  0  0  0
   57.0632   23.4965   47.8627 H   0  0  0  0  0  0  0  0  0  0  0  0
   56.2875   22.9187   46.3490 H   0  0  0  0  0  0  0  0  0  0  0  0
   58.0234   23.3805   46.3490 H   0  0  0  0  0  0  0  0  0  0  0  0
   57.5350   26.0460   46.1710 C   0  0  0  0  0  0  0  0  0  0  0  0
   58.6349   26.0316   46.1765 H   0  0  0  0  0  0  0  0  0  0  0  0
   59.8320   32.4330   45.9960 N   0  0  0  0  0  0  0  0  0  0  0  0
   59.9150   33.8240   45.5330 C   0  0  0  0  0  0  0  0  0  0  0  0
   59.0948   34.0162   44.8257 H   0  0  0  0  0  0  0  0  0  0  0  0
   60.8901   33.9712   45.0456 H   0  0  0  0  0  0  0  0  0  0  0  0
   59.8050   34.8070   46.7060 C   0  0  0  0  0  0  0  0  0  0  0  0
   59.3536   35.7414   46.3410 H   0  0  0  0  0  0  0  0  0  0  0  0
   60.8195   34.9715   47.0980 H   0  0  0  0  0  0  0  0  0  0  0  0
   58.9460   34.2630   47.8560 C   0  0  0  0  0  0  0  0  0  0  0  0
   58.6097   33.2487   47.5952 H   0  0  0  0  0  0  0  0  0  0  0  0
   58.0974   34.9496   47.9915 H   0  0  0  0  0  0  0  0  0  0  0  0
   59.7070   34.2010   49.1800 C   0  0  0  0  0  0  0  0  0  0  0  0
   58.9941   34.2591   50.0157 H   0  0  0  0  0  0  0  0  0  0  0  0
   60.2644   33.2545   49.2386 H   0  0  0  0  0  0  0  0  0  0  0  0
   60.4102   35.0448   49.2386 H   0  0  0  0  0  0  0  0  0  0  0  0
   62.3380   31.9790   48.7440 C   0  0  0  0  0  0  0  0  0  0  0  0
   61.8256   31.2852   49.4267 H   0  0  0  0  0  0  0  0  0  0  0  0
   63.5100   32.6660   49.0810 C   0  0  0  0  0  0  0  0  0  0  0  0
   64.0140   32.5531   50.0522 H   0  0  0  0  0  0  0  0  0  0  0  0
  1  2  1  0
  2  3  1  0
  3  4  1  0
  4  5  1  0
  5  6  2  0
  6  7  1  0
  7  8  1  0
  7  9  2  0
  9 10  1  0
 10 11  1  0
 11 12  1  0
 11 13  1  0
 11 14  1  0
 14 15  2  0
 14 16  1  0
 16 17  2  0
 17 18  1  0
 18 19  1  0
 19 20  1  0
 20 21  1  0
 21 22  1  0
 21 23  1  0
 21 24  1  0
 20 25  2  0
 25 26  1  0
  9 27  1  0
 27 28  1  0
 28 29  1  0
 28 30  1  0
 28 31  1  0
 31 32  1  0
 31 33  1  0
 31 34  1  0
 34 35  1  0
 34 36  1  0
 34 37  1  0
 37 38  1  0
 37 39  1  0
 37 40  1  0
  4 41  2  0
 41 42  1  0
 41 43  1  0
 43 44  1  0
 43  2  2  0
 27  5  1  0
 25 17  1  0
M  CHG  2   7   1  18  -1
M  END
>  <UniqueID>  (11) 
10

>  <SMILES>  (11) 
CCCCn1c(-c2cccs2)n[nH+]c1SCC(=O)/N=c1/cc(C)o[n-]1

>  <Energy>  (11) 
128.55349133892207

>  <Genealogy>  (11) 
CCCCn1c(-c2cccs2)n[nH+]c1SCC(=O)N=c1cc(C)o[n-]1 (protonated)
CCCCn1c(-c2cccs2)n[nH+]c1SCC(=O)/N=c1/cc(C)o[n-]1 (cis-trans isomerization)
CCCCn1c(-c2cccs2)n[nH+]c1SCC(=O)/N=c1/cc(C)o[n-]1 (3D coordinates assigned)
CCCCn1c(-c2cccs2)n[nH+]c1SCC(=O)/N=c1/cc(C)o[n-]1 (optimized conformer: 128.55349133892207 kcal/mol)

>  <smiles>  (11) 
CCCCn1c(SCC(=O)N=c2cc(C)o[nH]2)nnc1-c1cccs1

>  <score_type>  (11) 
oracle

>  <origin>  (11) 
adg

>  <m_score__min__energy>  (11) 
-9.2899999999999991

>  <m_primary>  (11) 
energy

$$$$
11:0
     RDKit          3D

 46 47  0  0  0  0  0  0  0  0999 V2000
   56.6280   30.0580   42.8770 C   0  0  0  0  0  0  0  0  0  0  0  0
   55.8430   30.4600   44.1150 C   0  0  0  0  0  0  0  0  0  0  0  0
   55.8010   29.3710   45.0130 O   0  0  0  0  0  0  0  0  0  0  0  0
   56.9800   28.5940   44.9070 C   0  0  0  0  0  0  0  0  0  0  0  0
   57.8090   28.7170   46.1830 C   0  0  0  0  0  0  0  0  0  0  0  0
   58.2960   30.0370   46.2900 O   0  0  0  0  0  0  0  0  0  0  0  0
   59.7010   30.0140   46.4350 C   0  0  0  0  0  0  0  0  0  0  0  0
   60.0970   28.9500   47.4650 C   0  0  0  0  0  0  0  0  0  0  0  0
   60.1000   29.4750   48.9070 C   0  0  0  0  0  0  0  0  0  0  0  0
   58.7610   29.9410   49.2950 N   0  0  0  0  0  0  0  0  0  0  0  0
   58.8010   31.1550   50.1300 C   0  0  0  0  0  0  0  0  0  0  0  0
   58.8370   32.4760   49.3300 C   0  0  1  0  0  0  0  0  0  0  0  0
   60.2690   33.0200   49.1330 C   0  0  0  0  0  0  0  0  0  0  0  0
   60.2670   34.1020   48.1970 O   0  0  0  0  0  0  0  0  0  0  0  0
   59.4470   34.0810   47.0670 C   0  0  0  0  0  0  0  0  0  0  0  0
   59.6380   34.9970   46.0260 C   0  0  0  0  0  0  0  0  0  0  0  0
   58.8230   34.9380   44.8900 C   0  0  0  0  0  0  0  0  0  0  0  0
   57.8190   33.9660   44.7960 C   0  0  0  0  0  0  0  0  0  0  0  0
   57.6200   33.0590   45.8430 C   0  0  0  0  0  0  0  0  0  0  0  0
   58.4240   33.1270   46.9840 C   0  0  0  0  0  0  0  0  0  0  0  0
   58.2230   32.2520   48.0550 O   0  0  0  0  0  0  0  0  0  0  0  0
   57.5692   29.5760   43.1801 H   0  0  0  0  0  0  0  0  0  0  0  0
   56.0321   29.3541   42.2775 H   0  0  0  0  0  0  0  0  0  0  0  0
   56.8508   30.9530   42.2775 H   0  0  0  0  0  0  0  0  0  0  0  0
   56.3335   31.3173   44.5992 H   0  0  0  0  0  0  0  0  0  0  0  0
   54.8191   30.7414   43.8277 H   0  0  0  0  0  0  0  0  0  0  0  0
   56.7076   27.5398   44.7509 H   0  0  0  0  0  0  0  0  0  0  0  0
   57.5746   28.9582   44.0562 H   0  0  0  0  0  0  0  0  0  0  0  0
   57.1802   28.4843   47.0550 H   0  0  0  0  0  0  0  0  0  0  0  0
   58.6525   28.0119   46.1471 H   0  0  0  0  0  0  0  0  0  0  0  0
   60.1647   29.7756   45.4664 H   0  0  0  0  0  0  0  0  0  0  0  0
   60.0479   30.9999   46.7781 H   0  0  0  0  0  0  0  0  0  0  0  0
   59.3828   28.1161   47.3982 H   0  0  0  0  0  0  0  0  0  0  0  0
   61.1243   28.6346   47.2302 H   0  0  0  0  0  0  0  0  0  0  0  0
   60.4109   28.6663   49.5847 H   0  0  0  0  0  0  0  0  0  0  0  0
   60.8007   30.3203   48.9733 H   0  0  0  0  0  0  0  0  0  0  0  0
   58.1890   30.1260   48.4400 H   0  0  0  0  0  0  0  0  0  0  0  0
   57.9055   31.1634   50.7688 H   0  0  0  0  0  0  0  0  0  0  0  0
   59.7369   31.1102   50.7063 H   0  0  0  0  0  0  0  0  0  0  0  0
   58.2889   33.2361   49.9060 H   0  0  0  0  0  0  0  0  0  0  0  0
   60.6573   33.3766   50.0984 H   0  0  0  0  0  0  0  0  0  0  0  0
   60.9070   32.2128   48.7440 H   0  0  0  0  0  0  0  0  0  0  0  0
   60.4261   35.7607   46.1006 H   0  0  0  0  0  0  0  0  0  0  0  0
   58.9711   35.6559   44.0698 H   0  0  0  0  0  0  0  0  0  0  0  0
   57.1859   33.9155   43.8979 H   0  0  0  0  0  0  0  0  0  0  0  0
   56.8327   32.2945   45.7680 H   0  0  0  0  0  0  0  0  0  0  0  0
  1  2  1  0
  2  3  1  0
  3  4  1  0
  4  5  1  0
  5  6  1  0
  6  7  1  0
  7  8  1  0
  8  9  1  0
  9 10  1  0
 10 11  1  0
 11 12  1  0
 12 13  1  0
 13 14  1  0
 14 15  1  0
 15 16  2  0
 16 17  1  0
 17 18  2  0
 18 19  1  0
 19 20  2  0
 20 21  1  0
 21 12  1  0
 20 15  1  0
  1 22  1  0
  1 23  1  0
  1 24  1  0
  2 25  1  0
  2 26  1  0
  4 27  1  0
  4 28  1  0
  5 29  1  0
  5 30  1  0
  7 31  1  0
  7 32  1  0
  8 33  1  0
  8 34  1  0
  9 35  1  0
  9 36  1  0
 10 37  1  0
 11 38  1  0
 11 39  1  0
 12 40  1  1
 13 41  1  0
 13 42  1  0
 16 43  1  0
 17 44  1  0
 18 45  1  0
 19 46  1  0
M  END
>  <UniqueID>  (12) 
11

>  <SMILES>  (12) 
CCOCCOCCCNC[C@H]1COc2ccccc2O1

>  <Energy>  (12) 
40.07788279286624

>  <Genealogy>  (12) 
CCOCCOCCCNC[C@H]1COc2ccccc2O1 (chirality)
CCOCCOCCCNC[C@H]1COc2ccccc2O1 (3D coordinates assigned)
CCOCCOCCCNC[C@H]1COc2ccccc2O1 (nonaromatic ring conformer: 40.07788279286624 kcal/mol)

>  <smiles>  (12) 
CCOCCOCCCNCC1COc2ccccc2O1

>  <score_type>  (12) 
oracle

>  <origin>  (12) 
adg

>  <m_score__min__energy>  (12) 
-7.5099999999999998

>  <m_primary>  (12) 
energy

$$$$
12:0
     RDKit          3D

 43 46  0  0  0  0  0  0  0  0999 V2000
   56.3280   29.6910   42.6780 C   0  0  0  0  0  0  0  0  0  0  0  0
   55.2380   29.7190   43.7390 C   0  0  0  0  0  0  0  0  0  0  0  0
   55.8260   29.5010   45.0540 N   0  0  0  0  0  0  0  0  0  0  0  0
   57.2180   29.6990   45.3260 C   0  0  0  0  0  0  0  0  0  0  0  0
   57.9760   28.7000   45.4590 O   0  0  0  0  0  0  0  0  0  0  0  0
   57.7650   31.0710   45.4500 C   0  0  0  0  0  0  0  0  0  0  0  0
   57.2090   32.1310   44.7140 C   0  0  0  0  0  0  0  0  0  0  0  0
   57.7260   33.4200   44.8320 C   0  0  0  0  0  0  0  0  0  0  0  0
   58.8040   33.6730   45.6820 C   0  0  0  0  0  0  0  0  0  0  0  0
   59.3830   32.6320   46.4330 C   0  0  0  0  0  0  0  0  0  0  0  0
   60.4990   32.8920   47.3150 N   0  0  0  0  0  0  0  0  0  0  0  0
   61.8010   32.1990   47.2330 C   0  0  0  0  0  0  0  0  0  0  0  0
   62.5580   32.8250   48.3320 C   0  0  0  0  0  0  0  0  0  0  0  0
   63.8190   32.6230   48.7760 N   0  0  0  0  0  0  0  0  0  0  0  0
   64.0690   33.4490   49.8310 C   0  0  0  0  0  0  0  0  0  0  0  0
   65.3670   33.4710   50.5450 C   0  0  0  0  0  0  0  0  0  0  0  0
   66.4240   32.6480   50.1160 C   0  0  0  0  0  0  0  0  0  0  0  0
   67.6530   32.6650   50.7850 C   0  0  0  0  0  0  0  0  0  0  0  0
   67.8390   33.5000   51.8880 C   0  0  0  0  0  0  0  0  0  0  0  0
   66.7980   34.3220   52.3240 C   0  0  0  0  0  0  0  0  0  0  0  0
   65.5670   34.3100   51.6580 C   0  0  0  0  0  0  0  0  0  0  0  0
   62.7190   34.4330   50.2120 S   0  0  0  0  0  0  0  0  0  0  0  0
   61.8270   33.7470   48.9740 C   0  0  0  0  0  0  0  0  0  0  0  0
   60.4750   33.8840   48.4100 C   0  0  0  0  0  0  0  0  0  0  0  0
   58.8530   31.3320   46.3070 C   0  0  0  0  0  0  0  0  0  0  0  0
   57.3137   29.6657   43.1656 H   0  0  0  0  0  0  0  0  0  0  0  0
   56.2061   28.7957   42.0507 H   0  0  0  0  0  0  0  0  0  0  0  0
   56.2523   30.5914   42.0507 H   0  0  0  0  0  0  0  0  0  0  0  0
   54.7354   30.6973   43.7210 H   0  0  0  0  0  0  0  0  0  0  0  0
   54.5070   28.9239   43.5308 H   0  0  0  0  0  0  0  0  0  0  0  0
   56.3602   31.9423   44.0403 H   0  0  0  0  0  0  0  0  0  0  0  0
   57.2820   34.2425   44.2521 H   0  0  0  0  0  0  0  0  0  0  0  0
   59.2045   34.6941   45.7659 H   0  0  0  0  0  0  0  0  0  0  0  0
   61.6873   31.1167   47.3932 H   0  0  0  0  0  0  0  0  0  0  0  0
   62.2894   32.2924   46.2518 H   0  0  0  0  0  0  0  0  0  0  0  0
   66.2835   31.9864   49.2485 H   0  0  0  0  0  0  0  0  0  0  0  0
   68.4742   32.0190   50.4410 H   0  0  0  0  0  0  0  0  0  0  0  0
   68.8053   33.5104   52.4135 H   0  0  0  0  0  0  0  0  0  0  0  0
   66.9456   34.9804   53.1927 H   0  0  0  0  0  0  0  0  0  0  0  0
   64.7508   34.9600   52.0062 H   0  0  0  0  0  0  0  0  0  0  0  0
   59.7040   33.6386   49.1552 H   0  0  0  0  0  0  0  0  0  0  0  0
   60.2329   34.9048   48.0794 H   0  0  0  0  0  0  0  0  0  0  0  0
   59.2954   30.5084   46.8866 H   0  0  0  0  0  0  0  0  0  0  0  0
  1  2  1  0
  2  3  1  0
  3  4  1  0
  4  5  2  0
  4  6  1  0
  6  7  2  0
  7  8  1  0
  8  9  2  0
  9 10  1  0
 10 11  1  0
 11 12  1  0
 12 13  1  0
 13 14  1  0
 14 15  2  0
 15 16  1  0
 16 17  2  0
 17 18  1  0
 18 19  2  0
 19 20  1  0
 20 21  2  0
 15 22  1  0
 22 23  1  0
 23 24  1  0
 10 25  2  0
 25  6  1  0
 24 11  1  0
 23 13  2  0
 21 16  1  0
  1 26  1  0
  1 27  1  0
  1 28  1  0
  2 29  1  0
  2 30  1  0
  7 31  1  0
  8 32  1  0
  9 33  1  0
 12 34  1  0
 12 35  1  0
 17 36  1  0
 18 37  1  0
 19 38  1  0
 20 39  1  0
 21 40  1  0
 24 41  1  0
 24 42  1  0
 25 43  1  0
M  CHG  1   3  -1
M  END
>  <UniqueID>  (13) 
12

>  <SMILES>  (13) 
CC[N-]C(=O)c1cccc(N2Cc3nc(-c4ccccc4)sc3C2)c1

>  <Energy>  (13) 
96.53642477227855

>  <Genealogy>  (13) 
CC[N-]C(=O)c1cccc(N2Cc3nc(-c4ccccc4)sc3C2)c1 (protonated)
CC[N-]C(=O)c1cccc(N2Cc3nc(-c4ccccc4)sc3C2)c1 (3D coordinates assigned)
CC[N-]C(=O)c1cccc(N2Cc3nc(-c4ccccc4)sc3C2)c1 (nonaromatic ring conformer: 96.53642477227855 kcal/mol)

>  <smiles>  (13) 
CCNC(=O)c1cccc(N2Cc3nc(-c4ccccc4)sc3C2)c1

>  <score_type>  (13) 
oracle

>  <origin>  (13) 
adg

>  <m_score__min__energy>  (13) 
-10.16

>  <m_primary>  (13) 
energy

$$$$
13:0
     RDKit          3D

 32 33  0  0  0  0  0  0  0  0999 V2000
   63.3820   33.8230   46.5620 C   0  0  0  0  0  0  0  0  0  0  0  0
   63.0140   32.6150   47.4230 C   0  0  0  0  0  0  0  0  0  0  0  0
   62.2150   32.9930   48.6830 C   0  0  0  0  0  0  0  0  0  0  0  0
   60.7670   33.1390   48.4550 N   0  0  0  0  0  0  0  0  0  0  0  0
   60.3900   34.3830   47.7620 C   0  0  0  0  0  0  0  0  0  0  0  0
   59.6160   34.1170   46.5020 C   0  0  0  0  0  0  0  0  0  0  0  0
   59.2970   35.0420   45.5340 C   0  0  0  0  0  0  0  0  0  0  0  0
   58.5950   34.4230   44.6180 O   0  0  0  0  0  0  0  0  0  0  0  0
   58.4740   33.1690   44.9980 C   0  0  0  0  0  0  0  0  0  0  0  0
   57.7480   32.1440   44.2210 C   0  0  0  0  0  0  0  0  0  0  0  0
   57.7500   32.1890   42.8160 C   0  0  0  0  0  0  0  0  0  0  0  0
   57.0650   31.2190   42.0770 C   0  0  0  0  0  0  0  0  0  0  0  0
   56.3740   30.1980   42.7330 C   0  0  0  0  0  0  0  0  0  0  0  0
   56.3650   30.1440   44.1300 C   0  0  0  0  0  0  0  0  0  0  0  0
   55.6930   29.1520   44.7650 F   0  0  0  0  0  0  0  0  0  0  0  0
   57.0480   31.1120   44.8730 C   0  0  0  0  0  0  0  0  0  0  0  0
   59.0880   32.9210   46.1760 N   0  0  0  0  0  0  0  0  0  0  0  0
   63.6405   34.6717   47.2123 H   0  0  0  0  0  0  0  0  0  0  0  0
   64.2443   33.5716   45.9270 H   0  0  0  0  0  0  0  0  0  0  0  0
   62.5260   34.0951   45.9270 H   0  0  0  0  0  0  0  0  0  0  0  0
   62.4075   31.9253   46.8176 H   0  0  0  0  0  0  0  0  0  0  0  0
   63.9540   32.1517   47.7572 H   0  0  0  0  0  0  0  0  0  0  0  0
   62.3685   32.2079   49.4380 H   0  0  0  0  0  0  0  0  0  0  0  0
   62.5854   33.9755   49.0109 H   0  0  0  0  0  0  0  0  0  0  0  0
   60.3660   32.2890   47.9950 H   0  0  0  0  0  0  0  0  0  0  0  0
   59.7700   34.9910   48.4372 H   0  0  0  0  0  0  0  0  0  0  0  0
   61.3152   34.9101   47.4858 H   0  0  0  0  0  0  0  0  0  0  0  0
   59.5796   36.1051   45.5304 H   0  0  0  0  0  0  0  0  0  0  0  0
   58.2931   32.9913   42.2951 H   0  0  0  0  0  0  0  0  0  0  0  0
   57.0706   31.2604   40.9778 H   0  0  0  0  0  0  0  0  0  0  0  0
   55.8364   29.4357   42.1501 H   0  0  0  0  0  0  0  0  0  0  0  0
   57.0380   31.0665   45.9720 H   0  0  0  0  0  0  0  0  0  0  0  0
  1  2  1  0
  2  3  1  0
  3  4  1  0
  4  5  1  0
  5  6  1  0
  6  7  2  0
  7  8  1  0
  8  9  1  0
  9 10  1  0
 10 11  2  0
 11 12  1  0
 12 13  2  0
 13 14  1  0
 14 15  1  0
 14 16  2  0
  9 17  2  0
 17  6  1  0
 16 10  1  0
  1 18  1  0
  1 19  1  0
  1 20  1  0
  2 21  1  0
  2 22  1  0
  3 23  1  0
  3 24  1  0
  4 25  1  0
  5 26  1  0
  5 27  1  0
  7 28  1  0
 11 29  1  0
 12 30  1  0
 13 31  1  0
 16 32  1  0
M  END
>  <UniqueID>  (14) 
13

>  <SMILES>  (14) 
CCCNCc1coc(-c2cccc(F)c2)n1

>  <Energy>  (14) 
59.55523635949019

>  <Genealogy>  (14) 
CCCNCc1coc(-c2cccc(F)c2)n1 (3D coordinates assigned)
CCCNCc1coc(-c2cccc(F)c2)n1 (optimized conformer: 59.55523635949019 kcal/mol)

>  <smiles>  (14) 
CCCNCc1coc(-c2cccc(F)c2)n1

>  <score_type>  (14) 
oracle

>  <origin>  (14) 
adg

>  <m_score__min__energy>  (14) 
-6.7699999999999996

>  <m_primary>  (14) 
energy

$$$$
14:0
     RDKit          3D

 63 65  0  0  0  0  0  0  0  0999 V2000
   59.6590   34.2070   49.5510 C   0  0  0  0  0  0  0  0  0  0  0  0
   59.3470   33.3890   50.8040 C   0  0  0  0  0  0  0  0  0  0  0  0
   58.5810   32.0900   50.4980 C   0  0  0  0  0  0  0  0  0  0  0  0
   59.0810   30.8570   51.2670 C   0  0  0  0  0  0  0  0  0  0  0  0
   59.6620   29.5090   50.1690 S   0  0  0  0  0  0  0  0  0  0  0  0
   60.9850   30.4620   49.3910 C   0  0  0  0  0  0  0  0  0  0  0  0
   62.2000   30.4650   50.0780 C   0  0  0  0  0  0  0  0  0  0  0  0
   63.2060   31.3500   49.7320 C   0  0  0  0  0  0  0  0  0  0  0  0
   63.0060   32.2710   48.7120 C   0  0  0  0  0  0  0  0  0  0  0  0
   61.8140   32.2690   47.9450 C   0  0  0  0  0  0  0  0  0  0  0  0
   60.8110   31.2990   48.2450 C   0  0  0  0  0  0  0  0  0  0  0  0
   59.7000   31.1950   47.3610 C   0  0  0  0  0  0  0  0  0  0  0  0
   59.1370   29.8940   47.0150 N   0  0  0  0  0  0  0  0  0  0  0  0
   59.7310   29.3960   45.7620 C   0  0  0  0  0  0  0  0  0  0  0  0
   58.7080   29.3620   44.6150 C   0  0  0  0  0  0  0  0  0  0  0  0
   57.3190   29.2630   45.1430 N   0  0  0  0  0  0  0  0  0  0  0  0
   56.9780   27.8760   45.5420 C   0  0  0  0  0  0  0  0  0  0  0  0
   57.7970   26.8360   44.7780 C   0  0  0  0  0  0  0  0  0  0  0  0
   56.3330   29.7500   44.1480 C   0  0  0  0  0  0  0  0  0  0  0  0
   56.9830   30.7090   43.1530 C   0  0  0  0  0  0  0  0  0  0  0  0
   59.3770   32.3300   46.5780 C   0  0  0  0  0  0  0  0  0  0  0  0
   58.0970   32.4900   45.9960 C   0  0  0  0  0  0  0  0  0  0  0  0
   57.8010   33.6080   45.2180 C   0  0  0  0  0  0  0  0  0  0  0  0
   58.7570   34.5960   45.0260 C   0  0  0  0  0  0  0  0  0  0  0  0
   60.0170   34.4730   45.6070 C   0  0  0  0  0  0  0  0  0  0  0  0
   60.3600   33.3330   46.3790 C   0  0  0  0  0  0  0  0  0  0  0  0
   61.6180   33.1780   46.9220 N   0  0  0  0  0  0  0  0  0  0  0  0
   62.7480   33.9970   46.4270 C   0  0  0  0  0  0  0  0  0  0  0  0
   60.0368   35.1975   49.8444 H   0  0  0  0  0  0  0  0  0  0  0  0
   60.4215   33.6860   48.9534 H   0  0  0  0  0  0  0  0  0  0  0  0
   58.7432   34.3261   48.9534 H   0  0  0  0  0  0  0  0  0  0  0  0
   60.2948   33.1291   51.2981 H   0  0  0  0  0  0  0  0  0  0  0  0
   58.7041   34.0063   51.4486 H   0  0  0  0  0  0  0  0  0  0  0  0
   57.5226   32.2475   50.7528 H   0  0  0  0  0  0  0  0  0  0  0  0
   58.7404   31.8778   49.4305 H   0  0  0  0  0  0  0  0  0  0  0  0
   59.9148   31.1637   51.9156 H   0  0  0  0  0  0  0  0  0  0  0  0
   58.2311   30.4650   51.8449 H   0  0  0  0  0  0  0  0  0  0  0  0
   62.3596   29.7560   50.9037 H   0  0  0  0  0  0  0  0  0  0  0  0
   64.1670   31.3239   50.2665 H   0  0  0  0  0  0  0  0  0  0  0  0
   63.7865   33.0153   48.4955 H   0  0  0  0  0  0  0  0  0  0  0  0
   59.2610   29.2070   47.7760 H   0  0  0  0  0  0  0  0  0  0  0  0
   58.1070   29.9340   46.8620 H   0  0  0  0  0  0  0  0  0  0  0  0
   60.5634   30.0560   45.4764 H   0  0  0  0  0  0  0  0  0  0  0  0
   60.0811   28.3679   45.9364 H   0  0  0  0  0  0  0  0  0  0  0  0
   58.8025   30.2830   44.0210 H   0  0  0  0  0  0  0  0  0  0  0  0
   58.9099   28.4791   43.9907 H   0  0  0  0  0  0  0  0  0  0  0  0
   57.1730   27.7592   46.6182 H   0  0  0  0  0  0  0  0  0  0  0  0
   55.9167   27.7087   45.3062 H   0  0  0  0  0  0  0  0  0  0  0  0
   58.3142   26.1792   45.4929 H   0  0  0  0  0  0  0  0  0  0  0  0
   57.1275   26.2345   44.1456 H   0  0  0  0  0  0  0  0  0  0  0  0
   58.5387   27.3458   44.1456 H   0  0  0  0  0  0  0  0  0  0  0  0
   55.9204   28.8898   43.6006 H   0  0  0  0  0  0  0  0  0  0  0  0
   55.5354   30.2879   44.6813 H   0  0  0  0  0  0  0  0  0  0  0  0
   57.5182   31.4986   43.7009 H   0  0  0  0  0  0  0  0  0  0  0  0
   57.6930   30.1557   42.5207 H   0  0  0  0  0  0  0  0  0  0  0  0
   56.2060   31.1635   42.5207 H   0  0  0  0  0  0  0  0  0  0  0  0
   57.3261   31.7226   46.1596 H   0  0  0  0  0  0  0  0  0  0  0  0
   56.8080   33.7076   44.7553 H   0  0  0  0  0  0  0  0  0  0  0  0
   58.5190   35.4782   44.4136 H   0  0  0  0  0  0  0  0  0  0  0  0
   60.7585   35.2730   45.4649 H   0  0  0  0  0  0  0  0  0  0  0  0
   63.3085   34.4033   47.2819 H   0  0  0  0  0  0  0  0  0  0  0  0
   63.4145   33.3709   45.8157 H   0  0  0  0  0  0  0  0  0  0  0  0
   62.3604   34.8253   45.8157 H   0  0  0  0  0  0  0  0  0  0  0  0
  1  2  1  0
  2  3  1  0
  3  4  1  0
  4  5  1  0
  5  6  1  0
  6  7  2  0
  7  8  1  0
  8  9  2  0
  9 10  1  0
 10 11  2  0
 11 12  1  0
 12 13  1  0
 13 14  1  0
 14 15  1  0
 15 16  1  0
 16 17  1  0
 17 18  1  0
 16 19  1  0
 19 20  1  0
 12 21  2  0
 21 22  1  0
 22 23  2  0
 23 24  1  0
 24 25  2  0
 25 26  1  0
 26 27  2  0
 27 28  1  0
 11  6  1  0
 26 21  1  0
 27 10  1  0
  1 29  1  0
  1 30  1  0
  1 31  1  0
  2 32  1  0
  2 33  1  0
  3 34  1  0
  3 35  1  0
  4 36  1  0
  4 37  1  0
  7 38  1  0
  8 39  1  0
  9 40  1  0
 13 41  1  0
 13 42  1  0
 14 43  1  0
 14 44  1  0
 15 45  1  0
 15 46  1  0
 17 47  1  0
 17 48  1  0
 18 49  1  0
 18 50  1  0
 18 51  1  0
 19 52  1  0
 19 53  1  0
 20 54  1  0
 20 55  1  0
 20 56  1  0
 22 57  1  0
 23 58  1  0
 24 59  1  0
 25 60  1  0
 28 61  1  0
 28 62  1  0
 28 63  1  0
M  CHG  2  13   1  27   1
M  END
>  <UniqueID>  (15) 
14

>  <SMILES>  (15) 
CCCCSc1cccc2c1c([NH2+]CCN(CC)CC)c1ccccc1[n+]2C

>  <Energy>  (15) 
94.92425823263979

>  <Genealogy>  (15) 
CCCCSc1cccc2c1c([NH2+]CCN(CC)CC)c1ccccc1[n+]2C (protonated)
CCCCSc1cccc2c1c([NH2+]CCN(CC)CC)c1ccccc1[n+]2C (3D coordinates assigned)
CCCCSc1cccc2c1c([NH2+]CCN(CC)CC)c1ccccc1[n+]2C (optimized conformer: 94.92425823263979 kcal/mol)

>  <smiles>  (15) 
CCCCSc1cccc2c1c(NCCN(CC)CC)c1ccccc1[n+]2C

>  <score_type>  (15) 
oracle

>  <origin>  (15) 
adg

>  <m_score__min__energy>  (15) 
-4.5300000000000002

>  <m_primary>  (15) 
energy

$$$$
15:0
     RDKit          3D

 47 49  0  0  0  0  0  0  0  0999 V2000
   65.9630   31.9380   50.4980 C   0  0  0  0  0  0  0  0  0  0  0  0
   65.2620   33.0810   49.7560 C   0  0  0  0  0  0  0  0  0  0  0  0
   64.1590   32.5920   48.8760 N   0  0  0  0  0  0  0  0  0  0  0  0
   63.4090   33.6990   48.2270 C   0  0  0  0  0  0  0  0  0  0  0  0
   63.4670   33.6380   46.6990 C   0  0  0  0  0  0  0  0  0  0  0  0
   63.2370   31.6810   49.6040 C   0  0  0  0  0  0  0  0  0  0  0  0
   61.7790   31.6920   49.0820 C   0  0  0  0  0  0  0  0  0  0  0  0
   61.7020   31.1680   47.7170 N   0  0  0  0  0  0  0  0  0  0  0  0
   60.5860   31.4230   46.8440 C   0  0  0  0  0  0  0  0  0  0  0  0
   60.0220   30.3990   46.0480 C   0  0  0  0  0  0  0  0  0  0  0  0
   60.5270   29.0840   46.0960 C   0  0  0  0  0  0  0  0  0  0  0  0
   59.9580   28.0730   45.3270 C   0  0  0  0  0  0  0  0  0  0  0  0
   58.8680   28.3460   44.5080 C   0  0  0  0  0  0  0  0  0  0  0  0
   58.1370   27.0550   43.5700 Cl  0  0  0  0  0  0  0  0  0  0  0  0
   58.3490   29.6400   44.4350 C   0  0  0  0  0  0  0  0  0  0  0  0
   58.9250   30.7020   45.1770 C   0  0  0  0  0  0  0  0  0  0  0  0
   58.4380   31.9980   45.0860 N   0  0  0  0  0  0  0  0  0  0  0  0
   57.4100   32.3560   44.0860 C   0  0  0  0  0  0  0  0  0  0  0  0
   58.9170   32.9510   45.9530 C   0  0  0  0  0  0  0  0  0  0  0  0
   58.4070   34.2560   46.1280 C   0  0  0  0  0  0  0  0  0  0  0  0
   59.0790   34.9870   47.1010 C   0  0  0  0  0  0  0  0  0  0  0  0
   60.2910   34.0230   47.7590 S   0  0  0  0  0  0  0  0  0  0  0  0
   59.9790   32.6760   46.8000 C   0  0  0  0  0  0  0  0  0  0  0  0
   65.8682   32.0926   51.5830 H   0  0  0  0  0  0  0  0  0  0  0  0
   65.4964   30.9809   50.2218 H   0  0  0  0  0  0  0  0  0  0  0  0
   67.0276   31.9200   50.2218 H   0  0  0  0  0  0  0  0  0  0  0  0
   64.8418   33.7781   50.4959 H   0  0  0  0  0  0  0  0  0  0  0  0
   66.0084   33.5758   49.1172 H   0  0  0  0  0  0  0  0  0  0  0  0
   64.5620   32.0050   48.1060 H   0  0  0  0  0  0  0  0  0  0  0  0
   62.3564   33.6422   48.5414 H   0  0  0  0  0  0  0  0  0  0  0  0
   63.8773   34.6442   48.5390 H   0  0  0  0  0  0  0  0  0  0  0  0
   64.1944   32.8729   46.3899 H   0  0  0  0  0  0  0  0  0  0  0  0
   62.4732   33.3797   46.3044 H   0  0  0  0  0  0  0  0  0  0  0  0
   63.7750   34.6175   46.3044 H   0  0  0  0  0  0  0  0  0  0  0  0
   63.6260   30.6559   49.5155 H   0  0  0  0  0  0  0  0  0  0  0  0
   63.1999   32.0385   50.6436 H   0  0  0  0  0  0  0  0  0  0  0  0
   61.1570   31.0688   49.7413 H   0  0  0  0  0  0  0  0  0  0  0  0
   61.4182   32.7311   49.0774 H   0  0  0  0  0  0  0  0  0  0  0  0
   62.4730   30.5490   47.3810 H   0  0  0  0  0  0  0  0  0  0  0  0
   61.3815   28.8539   46.7494 H   0  0  0  0  0  0  0  0  0  0  0  0
   60.3720   27.0547   45.3673 H   0  0  0  0  0  0  0  0  0  0  0  0
   57.4793   29.8388   43.7915 H   0  0  0  0  0  0  0  0  0  0  0  0
   56.4924   32.6755   44.6017 H   0  0  0  0  0  0  0  0  0  0  0  0
   57.7817   33.1776   43.4561 H   0  0  0  0  0  0  0  0  0  0  0  0
   57.1909   31.4812   43.4561 H   0  0  0  0  0  0  0  0  0  0  0  0
   57.5602   34.6554   45.5505 H   0  0  0  0  0  0  0  0  0  0  0  0
   58.8554   36.0239   47.3925 H   0  0  0  0  0  0  0  0  0  0  0  0
  1  2  1  0
  2  3  1  0
  3  4  1  0
  4  5  1  0
  3  6  1  0
  6  7  1  0
  7  8  1  0
  8  9  1  0
  9 10  2  0
 10 11  1  0
 11 12  2  0
 12 13  1  0
 13 14  1  0
 13 15  2  0
 15 16  1  0
 16 17  2  0
 17 18  1  0
 17 19  1  0
 19 20  1  0
 20 21  2  0
 21 22  1  0
 22 23  1  0
 23  9  1  0
 16 10  1  0
 23 19  2  0
  1 24  1  0
  1 25  1  0
  1 26  1  0
  2 27  1  0
  2 28  1  0
  3 29  1  0
  4 30  1  0
  4 31  1  0
  5 32  1  0
  5 33  1  0
  5 34  1  0
  6 35  1  0
  6 36  1  0
  7 37  1  0
  7 38  1  0
  8 39  1  0
 11 40  1  0
 12 41  1  0
 15 42  1  0
 18 43  1  0
 18 44  1  0
 18 45  1  0
 20 46  1  0
 21 47  1  0
M  CHG  2   3   1  17   1
M  END
>  <UniqueID>  (16) 
15

>  <SMILES>  (16) 
CC[NH+](CC)CCNc1c2ccc(Cl)cc2[n+](C)c2ccsc12

>  <Energy>  (16) 
99.31572066710122

>  <Genealogy>  (16) 
CC[NH+](CC)CCNc1c2ccc(Cl)cc2[n+](C)c2ccsc12 (protonated)
CC[NH+](CC)CCNc1c2ccc(Cl)cc2[n+](C)c2ccsc12 (3D coordinates assigned)
CC[NH+](CC)CCNc1c2ccc(Cl)cc2[n+](C)c2ccsc12 (optimized conformer: 99.31572066710122 kcal/mol)

>  <smiles>  (16) 
CCN(CC)CCNc1c2ccc(Cl)cc2[n+](C)c2ccsc12

>  <score_type>  (16) 
oracle

>  <origin>  (16) 
adg

>  <m_score__min__energy>  (16) 
-4.4400000000000004

>  <m_primary>  (16) 
energy

$$$$
16:0
     RDKit          3D

 51 53  0  0  0  0  0  0  0  0999 V2000
   62.7310   33.0880   47.1270 C   0  0  0  0  0  0  0  0  0  0  0  0
   62.0540   33.5580   48.4100 C   0  0  0  0  0  0  0  0  0  0  0  0
   60.6790   33.0590   48.4700 N   0  0  0  0  0  0  0  0  0  0  0  0
   60.2340   32.0740   49.2670 C   0  0  0  0  0  0  0  0  0  0  0  0
   58.8820   31.9250   49.0490 C   0  0  0  0  0  0  0  0  0  0  0  0
   58.4710   32.8200   48.1280 N   0  0  0  0  0  0  0  0  0  0  0  0
   59.5860   33.5130   47.8130 C   0  0  0  0  0  0  0  0  0  0  0  0
   59.5990   34.5950   46.7680 C   0  0  0  0  0  0  0  0  0  0  0  0
   58.3700   34.5490   45.9610 N   0  0  0  0  0  0  0  0  0  0  0  0
   58.6440   34.2690   44.5410 C   0  0  0  0  0  0  0  0  0  0  0  0
   58.0710   32.9440   44.1070 C   0  0  0  0  0  0  0  0  0  0  0  0
   57.8030   31.9390   45.0470 C   0  0  0  0  0  0  0  0  0  0  0  0
   57.2950   30.7000   44.6130 C   0  0  0  0  0  0  0  0  0  0  0  0
   56.9960   29.6500   45.4960 O   0  0  0  0  0  0  0  0  0  0  0  0
   57.5030   28.3160   45.4070 C   0  0  0  0  0  0  0  0  0  0  0  0
   57.7730   27.7940   46.8210 C   0  0  0  0  0  0  0  0  0  0  0  0
   58.9100   28.5840   47.5000 C   0  0  0  0  0  0  0  0  0  0  0  0
   60.0670   28.8710   46.6120 N   0  0  0  0  0  0  0  0  0  0  0  0
   60.2300   30.3120   46.3530 C   0  0  0  0  0  0  0  0  0  0  0  0
   60.0750   28.0830   45.3620 C   0  0  0  0  0  0  0  0  0  0  0  0
   58.7850   28.2690   44.5400 C   0  0  0  0  0  0  0  0  0  0  0  0
   57.0750   30.4980   43.2480 C   0  0  0  0  0  0  0  0  0  0  0  0
   57.3540   31.5220   42.3420 C   0  0  0  0  0  0  0  0  0  0  0  0
   57.8420   32.7100   42.7860 N   0  0  0  0  0  0  0  0  0  0  0  0
   63.6106   32.4774   47.3790 H   0  0  0  0  0  0  0  0  0  0  0  0
   62.0232   32.4860   46.5382 H   0  0  0  0  0  0  0  0  0  0  0  0
   63.0476   33.9616   46.5382 H   0  0  0  0  0  0  0  0  0  0  0  0
   62.6158   33.1794   49.2766 H   0  0  0  0  0  0  0  0  0  0  0  0
   62.0369   34.6578   48.4239 H   0  0  0  0  0  0  0  0  0  0  0  0
   60.8430   31.4882   49.9712 H   0  0  0  0  0  0  0  0  0  0  0  0
   58.2364   31.1885   49.5497 H   0  0  0  0  0  0  0  0  0  0  0  0
   59.6703   35.5748   47.2628 H   0  0  0  0  0  0  0  0  0  0  0  0
   60.4640   34.4394   46.1066 H   0  0  0  0  0  0  0  0  0  0  0  0
   57.7400   33.8100   46.3500 H   0  0  0  0  0  0  0  0  0  0  0  0
   58.1978   35.0667   43.9290 H   0  0  0  0  0  0  0  0  0  0  0  0
   59.7350   34.2283   44.4066 H   0  0  0  0  0  0  0  0  0  0  0  0
   57.9884   32.1174   46.1165 H   0  0  0  0  0  0  0  0  0  0  0  0
   56.7574   27.6714   44.9185 H   0  0  0  0  0  0  0  0  0  0  0  0
   56.8572   27.8955   47.4218 H   0  0  0  0  0  0  0  0  0  0  0  0
   58.0760   26.7389   46.7506 H   0  0  0  0  0  0  0  0  0  0  0  0
   58.5010   29.5418   47.8541 H   0  0  0  0  0  0  0  0  0  0  0  0
   59.2882   27.9536   48.3183 H   0  0  0  0  0  0  0  0  0  0  0  0
   60.2911   30.8518   47.3095 H   0  0  0  0  0  0  0  0  0  0  0  0
   61.1528   30.4791   45.7781 H   0  0  0  0  0  0  0  0  0  0  0  0
   59.3679   30.6810   45.7781 H   0  0  0  0  0  0  0  0  0  0  0  0
   60.9322   28.4005   44.7501 H   0  0  0  0  0  0  0  0  0  0  0  0
   60.1464   27.0203   45.6368 H   0  0  0  0  0  0  0  0  0  0  0  0
   58.8617   29.2127   43.9801 H   0  0  0  0  0  0  0  0  0  0  0  0
   58.6953   27.3967   43.8759 H   0  0  0  0  0  0  0  0  0  0  0  0
   56.6832   29.5350   42.8888 H   0  0  0  0  0  0  0  0  0  0  0  0
   57.1787   31.3674   41.2671 H   0  0  0  0  0  0  0  0  0  0  0  0
  1  2  1  0
  2  3  1  0
  3  4  1  0
  4  5  2  0
  5  6  1  0
  6  7  2  0
  7  8  1  0
  8  9  1  0
  9 10  1  0
 10 11  1  0
 11 12  2  0
 12 13  1  0
 13 14  1  0
 14 15  1  0
 15 16  1  0
 16 17  1  0
 17 18  1  0
 18 19  1  0
 18 20  1  0
 20 21  1  0
 13 22  2  0
 22 23  1  0
 23 24  2  0
  7  3  1  0
 24 11  1  0
 21 15  1  0
  1 25  1  0
  1 26  1  0
  1 27  1  0
  2 28  1  0
  2 29  1  0
  4 30  1  0
  5 31  1  0
  8 32  1  0
  8 33  1  0
  9 34  1  0
 10 35  1  0
 10 36  1  0
 12 37  1  0
 15 38  1  0
 16 39  1  0
 16 40  1  0
 17 41  1  0
 17 42  1  0
 19 43  1  0
 19 44  1  0
 19 45  1  0
 20 46  1  0
 20 47  1  0
 21 48  1  0
 21 49  1  0
 22 50  1  0
 23 51  1  0
M  END
>  <UniqueID>  (17) 
16

>  <SMILES>  (17) 
CCn1ccnc1CNCc1cc(OC2CCN(C)CC2)ccn1

>  <Energy>  (17) 
85.4809206542919

>  <Genealogy>  (17) 
CCn1ccnc1CNCc1cc(OC2CCN(C)CC2)ccn1 (3D coordinates assigned)
CCn1ccnc1CNCc1cc(OC2CCN(C)CC2)ccn1 (nonaromatic ring conformer: 85.4809206542919 kcal/mol)

>  <smiles>  (17) 
CCn1ccnc1CNCc1cc(OC2CCN(C)CC2)ccn1

>  <score_type>  (17) 
oracle

>  <origin>  (17) 
adg

>  <m_score__min__energy>  (17) 
-7.2300000000000004

>  <m_primary>  (17) 
energy

$$$$
17:0
     RDKit          3D

 73 75  0  0  0  0  0  0  0  0999 V2000
   63.3970   33.7930   46.4580 C   0  0  0  0  0  0  0  0  0  0  0  0
   62.8560   32.7450   47.4220 C   0  0  0  0  0  0  0  0  0  0  0  0
   61.7330   33.3200   48.2050 N   0  0  0  0  0  0  0  0  0  0  0  0
   62.2290   34.1690   49.3110 C   0  0  0  0  0  0  0  0  0  0  0  0
   63.2690   33.4300   50.1570 C   0  0  0  0  0  0  0  0  0  0  0  0
   60.8170   34.0680   47.3080 C   0  0  0  0  0  0  0  0  0  0  0  0
   59.5430   34.5400   48.0370 C   0  0  0  0  0  0  0  0  0  0  0  0
   58.6120   33.4340   48.2870 N   0  0  0  0  0  0  0  0  0  0  0  0
   58.9960   32.2840   49.0560 C   0  0  0  0  0  0  0  0  0  0  0  0
   59.3380   32.4500   50.4130 C   0  0  0  0  0  0  0  0  0  0  0  0
   59.2340   33.7140   51.0380 C   0  0  0  0  0  0  0  0  0  0  0  0
   59.5890   33.8820   52.3740 C   0  0  0  0  0  0  0  0  0  0  0  0
   60.0730   32.8060   53.1050 C   0  0  0  0  0  0  0  0  0  0  0  0
   60.2000   31.5530   52.5070 C   0  0  0  0  0  0  0  0  0  0  0  0
   59.8210   31.3420   51.1560 C   0  0  0  0  0  0  0  0  0  0  0  0
   59.9590   30.1100   50.5500 N   0  0  0  0  0  0  0  0  0  0  0  0
   60.2090   28.9050   51.3710 C   0  0  0  0  0  0  0  0  0  0  0  0
   59.8530   30.0020   49.1770 C   0  0  0  0  0  0  0  0  0  0  0  0
   60.3380   28.8620   48.4930 C   0  0  0  0  0  0  0  0  0  0  0  0
   60.2350   28.7530   47.1120 C   0  0  0  0  0  0  0  0  0  0  0  0
   59.5950   29.7440   46.3610 C   0  0  0  0  0  0  0  0  0  0  0  0
   59.5690   29.6410   44.9160 N   0  0  0  0  0  0  0  0  0  0  0  0
   59.4610   28.2440   44.4530 C   0  0  0  0  0  0  0  0  0  0  0  0
   58.0280   27.8200   44.0670 C   0  0  0  0  0  0  0  0  0  0  0  0
   57.0100   28.0510   45.1940 C   0  0  0  0  0  0  0  0  0  0  0  0
   56.0380   29.1900   44.8640 C   0  0  0  0  0  0  0  0  0  0  0  0
   56.7610   30.4470   44.6350 N   0  0  0  0  0  0  0  0  0  0  0  0
   56.6440   30.8550   43.2350 C   0  0  0  0  0  0  0  0  0  0  0  0
   59.0220   30.8460   47.0320 C   0  0  0  0  0  0  0  0  0  0  0  0
   58.1530   31.6920   46.3400 O   0  0  0  0  0  0  0  0  0  0  0  0
   58.6520   32.6290   45.3880 C   0  0  0  0  0  0  0  0  0  0  0  0
   59.2760   31.0550   48.4160 C   0  0  0  0  0  0  0  0  0  0  0  0
   63.8283   34.6285   47.0289 H   0  0  0  0  0  0  0  0  0  0  0  0
   64.1748   33.3417   45.8245 H   0  0  0  0  0  0  0  0  0  0  0  0
   62.5786   34.1657   45.8245 H   0  0  0  0  0  0  0  0  0  0  0  0
   62.4974   31.8747   46.8529 H   0  0  0  0  0  0  0  0  0  0  0  0
   63.6569   32.4322   48.1081 H   0  0  0  0  0  0  0  0  0  0  0  0
   62.6888   35.0747   48.8888 H   0  0  0  0  0  0  0  0  0  0  0  0
   61.3777   34.4293   49.9572 H   0  0  0  0  0  0  0  0  0  0  0  0
   63.0509   33.5850   51.2240 H   0  0  0  0  0  0  0  0  0  0  0  0
   63.2315   32.3549   49.9275 H   0  0  0  0  0  0  0  0  0  0  0  0
   64.2719   33.8191   49.9275 H   0  0  0  0  0  0  0  0  0  0  0  0
   61.3468   34.9483   46.9152 H   0  0  0  0  0  0  0  0  0  0  0  0
   60.5104   33.3901   46.4978 H   0  0  0  0  0  0  0  0  0  0  0  0
   59.8299   34.9875   49.0000 H   0  0  0  0  0  0  0  0  0  0  0  0
   59.0349   35.2734   47.3935 H   0  0  0  0  0  0  0  0  0  0  0  0
   57.7680   33.3170   47.6820 H   0  0  0  0  0  0  0  0  0  0  0  0
   58.8678   34.5761   50.4612 H   0  0  0  0  0  0  0  0  0  0  0  0
   59.4858   34.8681   52.8503 H   0  0  0  0  0  0  0  0  0  0  0  0
   60.3571   32.9422   54.1589 H   0  0  0  0  0  0  0  0  0  0  0  0
   60.6012   30.7130   53.0930 H   0  0  0  0  0  0  0  0  0  0  0  0
   60.1540   29.1699   52.4372 H   0  0  0  0  0  0  0  0  0  0  0  0
   59.4500   28.1421   51.1431 H   0  0  0  0  0  0  0  0  0  0  0  0
   61.2088   28.5070   51.1431 H   0  0  0  0  0  0  0  0  0  0  0  0
   60.8052   28.0471   49.0655 H   0  0  0  0  0  0  0  0  0  0  0  0
   60.6621   27.8764   46.6029 H   0  0  0  0  0  0  0  0  0  0  0  0
   60.4070   30.0710   44.4690 H   0  0  0  0  0  0  0  0  0  0  0  0
   58.7370   30.1700   44.5640 H   0  0  0  0  0  0  0  0  0  0  0  0
   60.1075   28.1207   43.5716 H   0  0  0  0  0  0  0  0  0  0  0  0
   59.7663   27.6051   45.2948 H   0  0  0  0  0  0  0  0  0  0  0  0
   57.7152   28.4017   43.1873 H   0  0  0  0  0  0  0  0  0  0  0  0
   58.0491   26.7401   43.8587 H   0  0  0  0  0  0  0  0  0  0  0  0
   56.4346   27.1263   45.3481 H   0  0  0  0  0  0  0  0  0  0  0  0
   57.5650   28.3296   46.1019 H   0  0  0  0  0  0  0  0  0  0  0  0
   55.4728   28.9295   43.9570 H   0  0  0  0  0  0  0  0  0  0  0  0
   55.3560   29.3275   45.7160 H   0  0  0  0  0  0  0  0  0  0  0  0
   56.3190   31.1930   45.2170 H   0  0  0  0  0  0  0  0  0  0  0  0
   56.3411   31.9113   43.1850 H   0  0  0  0  0  0  0  0  0  0  0  0
   57.6148   30.7278   42.7337 H   0  0  0  0  0  0  0  0  0  0  0  0
   55.8881   30.2327   42.7337 H   0  0  0  0  0  0  0  0  0  0  0  0
   59.1058   33.4811   45.9153 H   0  0  0  0  0  0  0  0  0  0  0  0
   59.4103   32.1422   44.7571 H   0  0  0  0  0  0  0  0  0  0  0  0
   57.8248   32.9865   44.7571 H   0  0  0  0  0  0  0  0  0  0  0  0
  1  2  1  0
  2  3  1  0
  3  4  1  0
  4  5  1  0
  3  6  1  0
  6  7  1  0
  7  8  1  0
  8  9  1  0
  9 10  2  0
 10 11  1  0
 11 12  2  0
 12 13  1  0
 13 14  2  0
 14 15  1  0
 15 16  2  0
 16 17  1  0
 16 18  1  0
 18 19  2  0
 19 20  1  0
 20 21  2  0
 21 22  1  0
 22 23  1  0
 23 24  1  0
 24 25  1  0
 25 26  1  0
 26 27  1  0
 27 28  1  0
 21 29  1  0
 29 30  1  0
 30 31  1  0
 29 32  2  0
 32  9  1  0
 15 10  1  0
 32 18  1  0
  1 33  1  0
  1 34  1  0
  1 35  1  0
  2 36  1  0
  2 37  1  0
  4 38  1  0
  4 39  1  0
  5 40  1  0
  5 41  1  0
  5 42  1  0
  6 43  1  0
  6 44  1  0
  7 45  1  0
  7 46  1  0
  8 47  1  0
 11 48  1  0
 12 49  1  0
 13 50  1  0
 14 51  1  0
 17 52  1  0
 17 53  1  0
 17 54  1  0
 19 55  1  0
 20 56  1  0
 22 57  1  0
 22 58  1  0
 23 59  1  0
 23 60  1  0
 24 61  1  0
 24 62  1  0
 25 63  1  0
 25 64  1  0
 26 65  1  0
 26 66  1  0
 27 67  1  0
 28 68  1  0
 28 69  1  0
 28 70  1  0
 31 71  1  0
 31 72  1  0
 31 73  1  0
M  CHG  2  16   1  22   1
M  END
>  <UniqueID>  (18) 
17

>  <SMILES>  (18) 
CCN(CC)CCNc1c2ccccc2[n+](C)c2ccc([NH2+]CCCCNC)c(OC)c12

>  <Energy>  (18) 
104.5338577787538

>  <Genealogy>  (18) 
CCN(CC)CCNc1c2ccccc2[n+](C)c2ccc([NH2+]CCCCNC)c(OC)c12 (protonated)
CCN(CC)CCNc1c2ccccc2[n+](C)c2ccc([NH2+]CCCCNC)c(OC)c12 (3D coordinates assigned)
CCN(CC)CCNc1c2ccccc2[n+](C)c2ccc([NH2+]CCCCNC)c(OC)c12 (optimized conformer: 104.5338577787538 kcal/mol)

>  <smiles>  (18) 
CCN(CC)CCNc1c2ccccc2[n+](C)c2ccc(NCCCCNC)c(OC)c12

>  <score_type>  (18) 
oracle

>  <origin>  (18) 
adg

>  <m_score__min__energy>  (18) 
-4.2199999999999998

>  <m_primary>  (18) 
energy

$$$$
18:0
     RDKit          3D

 85 88  0  0  0  0  0  0  0  0999 V2000
   62.4360   32.5780   49.7760 C   0  0  0  0  0  0  0  0  0  0  0  0
   62.2220   32.1080   48.3420 C   0  0  0  0  0  0  0  0  0  0  0  0
   61.4530   33.1360   47.5910 N   0  0  0  0  0  0  0  0  0  0  0  0
   62.2730   33.7980   46.5530 C   0  0  0  0  0  0  0  0  0  0  0  0
   63.7560   33.4650   46.7290 C   0  0  0  0  0  0  0  0  0  0  0  0
   60.8460   34.1360   48.4980 C   0  0  0  0  0  0  0  0  0  0  0  0
   59.3470   34.2910   48.1970 C   0  0  0  0  0  0  0  0  0  0  0  0
   58.5970   33.0490   48.4130 N   0  0  0  0  0  0  0  0  0  0  0  0
   58.9820   32.0710   49.3940 C   0  0  0  0  0  0  0  0  0  0  0  0
   59.0410   32.4450   50.7480 C   0  0  0  0  0  0  0  0  0  0  0  0
   59.0050   33.8010   51.1370 C   0  0  0  0  0  0  0  0  0  0  0  0
   59.0190   34.1560   52.4860 C   0  0  0  0  0  0  0  0  0  0  0  0
   59.0770   33.1690   53.4640 C   0  0  0  0  0  0  0  0  0  0  0  0
   59.1210   31.8240   53.1000 C   0  0  0  0  0  0  0  0  0  0  0  0
   59.1030   31.4380   51.7370 C   0  0  0  0  0  0  0  0  0  0  0  0
   59.1260   30.1160   51.3660 N   0  0  0  0  0  0  0  0  0  0  0  0
   58.5830   29.1140   52.3010 C   0  0  0  0  0  0  0  0  0  0  0  0
   59.4670   29.7650   50.0730 C   0  0  0  0  0  0  0  0  0  0  0  0
   60.0150   28.4690   49.7460 C   0  0  0  0  0  0  0  0  0  0  0  0
   60.6930   27.6170   50.7130 N   0  0  0  0  0  0  0  0  0  0  0  0
   61.7270   28.3500   51.4680 C   0  0  0  0  0  0  0  0  0  0  0  0
   62.7320   27.3990   52.1460 C   0  0  0  0  0  0  0  0  0  0  0  0
   62.4250   25.9910   51.8070 N   0  0  0  0  0  0  0  0  0  0  0  0
   63.6720   25.2250   51.6470 C   0  0  0  0  0  0  0  0  0  0  0  0
   61.6020   25.3650   52.8570 C   0  0  0  0  0  0  0  0  0  0  0  0
   60.1320   28.1460   48.3920 C   0  0  0  0  0  0  0  0  0  0  0  0
   60.5990   27.0290   47.8830 O   0  0  0  0  0  0  0  0  0  0  0  0
   60.6190   27.1510   46.5730 C   0  0  0  0  0  0  0  0  0  0  0  0
   60.1520   28.4040   46.2060 C   0  0  0  0  0  0  0  0  0  0  0  0
   59.8290   29.0260   47.3970 C   0  0  0  0  0  0  0  0  0  0  0  0
   59.4340   30.3360   47.6530 C   0  0  0  0  0  0  0  0  0  0  0  0
   59.3010   31.2460   46.5540 N   0  0  0  0  0  0  0  0  0  0  0  0
   58.5390   30.8870   45.3570 C   0  0  0  0  0  0  0  0  0  0  0  0
   57.9490   32.1330   44.6890 C   0  0  0  0  0  0  0  0  0  0  0  0
   58.2140   33.3380   45.5050 N   0  0  0  0  0  0  0  0  0  0  0  0
   56.9970   34.1590   45.6120 C   0  0  0  0  0  0  0  0  0  0  0  0
   59.2980   34.1480   44.9170 C   0  0  0  0  0  0  0  0  0  0  0  0
   59.2880   30.7370   49.0220 C   0  0  0  0  0  0  0  0  0  0  0  0
   62.0831   31.8030   50.4724 H   0  0  0  0  0  0  0  0  0  0  0  0
   63.5071   32.7629   49.9453 H   0  0  0  0  0  0  0  0  0  0  0  0
   61.8723   33.5073   49.9453 H   0  0  0  0  0  0  0  0  0  0  0  0
   63.1975   31.9538   47.8576 H   0  0  0  0  0  0  0  0  0  0  0  0
   61.6605   31.1621   48.3469 H   0  0  0  0  0  0  0  0  0  0  0  0
   61.9428   33.4553   45.5613 H   0  0  0  0  0  0  0  0  0  0  0  0
   62.1452   34.8864   46.6475 H   0  0  0  0  0  0  0  0  0  0  0  0
   63.9950   33.4113   47.8014 H   0  0  0  0  0  0  0  0  0  0  0  0
   63.9728   32.4958   46.2561 H   0  0  0  0  0  0  0  0  0  0  0  0
   64.3664   34.2485   46.2561 H   0  0  0  0  0  0  0  0  0  0  0  0
   60.9745   33.8061   49.5395 H   0  0  0  0  0  0  0  0  0  0  0  0
   61.3431   35.1053   48.3449 H   0  0  0  0  0  0  0  0  0  0  0  0
   58.9344   35.0706   48.8543 H   0  0  0  0  0  0  0  0  0  0  0  0
   59.2465   34.5606   47.1353 H   0  0  0  0  0  0  0  0  0  0  0  0
   57.9970   32.7160   47.6270 H   0  0  0  0  0  0  0  0  0  0  0  0
   58.9655   34.5866   50.3681 H   0  0  0  0  0  0  0  0  0  0  0  0
   58.9842   35.2165   52.7761 H   0  0  0  0  0  0  0  0  0  0  0  0
   59.0882   33.4503   54.5274 H   0  0  0  0  0  0  0  0  0  0  0  0
   59.1704   31.0518   53.8818 H   0  0  0  0  0  0  0  0  0  0  0  0
   58.7613   29.4431   53.3353 H   0  0  0  0  0  0  0  0  0  0  0  0
   57.5016   29.0035   52.1327 H   0  0  0  0  0  0  0  0  0  0  0  0
   59.0809   28.1477   52.1327 H   0  0  0  0  0  0  0  0  0  0  0  0
   60.0270   27.1620   51.3670 H   0  0  0  0  0  0  0  0  0  0  0  0
   61.1590   26.8080   50.2360 H   0  0  0  0  0  0  0  0  0  0  0  0
   62.2726   29.0078   50.7755 H   0  0  0  0  0  0  0  0  0  0  0  0
   61.2243   28.9299   52.2560 H   0  0  0  0  0  0  0  0  0  0  0  0
   63.7482   27.6409   51.8012 H   0  0  0  0  0  0  0  0  0  0  0  0
   62.6608   27.5255   53.2364 H   0  0  0  0  0  0  0  0  0  0  0  0
   64.0786   24.9752   52.6381 H   0  0  0  0  0  0  0  0  0  0  0  0
   63.4645   24.2984   51.0917 H   0  0  0  0  0  0  0  0  0  0  0  0
   64.4047   25.8290   51.0917 H   0  0  0  0  0  0  0  0  0  0  0  0
   61.9854   25.6566   53.8459 H   0  0  0  0  0  0  0  0  0  0  0  0
   60.5594   25.7004   52.7544 H   0  0  0  0  0  0  0  0  0  0  0  0
   61.6469   24.2707   52.7544 H   0  0  0  0  0  0  0  0  0  0  0  0
   60.9566   26.3733   45.8721 H   0  0  0  0  0  0  0  0  0  0  0  0
   60.0590   28.8133   45.1892 H   0  0  0  0  0  0  0  0  0  0  0  0
   59.7500   32.1870   46.6310 H   0  0  0  0  0  0  0  0  0  0  0  0
   59.2057   30.3784   44.6450 H   0  0  0  0  0  0  0  0  0  0  0  0
   57.7133   30.2230   45.6526 H   0  0  0  0  0  0  0  0  0  0  0  0
   58.4057   32.2613   43.6965 H   0  0  0  0  0  0  0  0  0  0  0  0
   56.8610   32.0021   44.5941 H   0  0  0  0  0  0  0  0  0  0  0  0
   56.7563   34.3214   46.6730 H   0  0  0  0  0  0  0  0  0  0  0  0
   57.1649   35.1292   45.1215 H   0  0  0  0  0  0  0  0  0  0  0  0
   56.1603   33.6400   45.1215 H   0  0  0  0  0  0  0  0  0  0  0  0
   59.8985   34.5967   45.7220 H   0  0  0  0  0  0  0  0  0  0  0  0
   59.9395   33.5061   44.2953 H   0  0  0  0  0  0  0  0  0  0  0  0
   58.8642   34.9451   44.2953 H   0  0  0  0  0  0  0  0  0  0  0  0
  1  2  1  0
  2  3  1  0
  3  4  1  0
  4  5  1  0
  3  6  1  0
  6  7  1  0
  7  8  1  0
  8  9  1  0
  9 10  2  0
 10 11  1  0
 11 12  2  0
 12 13  1  0
 13 14  2  0
 14 15  1  0
 15 16  2  0
 16 17  1  0
 16 18  1  0
 18 19  2  0
 19 20  1  0
 20 21  1  0
 21 22  1  0
 22 23  1  0
 23 24  1  0
 23 25  1  0
 19 26  1  0
 26 27  1  0
 27 28  1  0
 28 29  2  0
 29 30  1  0
 30 31  1  0
 31 32  1  0
 32 33  1  0
 33 34  1  0
 34 35  1  0
 35 36  1  0
 35 37  1  0
 31 38  2  0
 38  9  1  0
 15 10  1  0
 38 18  1  0
 30 26  2  0
  1 39  1  0
  1 40  1  0
  1 41  1  0
  2 42  1  0
  2 43  1  0
  4 44  1  0
  4 45  1  0
  5 46  1  0
  5 47  1  0
  5 48  1  0
  6 49  1  0
  6 50  1  0
  7 51  1  0
  7 52  1  0
  8 53  1  0
 11 54  1  0
 12 55  1  0
 13 56  1  0
 14 57  1  0
 17 58  1  0
 17 59  1  0
 17 60  1  0
 20 61  1  0
 20 62  1  0
 21 63  1  0
 21 64  1  0
 22 65  1  0
 22 66  1  0
 24 67  1  0
 24 68  1  0
 24 69  1  0
 25 70  1  0
 25 71  1  0
 25 72  1  0
 28 73  1  0
 29 74  1  0
 32 75  1  0
 33 76  1  0
 33 77  1  0
 34 78  1  0
 34 79  1  0
 36 80  1  0
 36 81  1  0
 36 82  1  0
 37 83  1  0
 37 84  1  0
 37 85  1  0
M  CHG  2  16   1  20   1
M  END
>  <UniqueID>  (19) 
18

>  <SMILES>  (19) 
CCN(CC)CCNc1c2ccccc2[n+](C)c2c([NH2+]CCN(C)C)c3occc3c(NCCN(C)C)c12

>  <Energy>  (19) 
163.68759271370362

>  <Genealogy>  (19) 
CCN(CC)CCNc1c2ccccc2[n+](C)c2c([NH2+]CCN(C)C)c3occc3c(NCCN(C)C)c12 (protonated)
CCN(CC)CCNc1c2ccccc2[n+](C)c2c([NH2+]CCN(C)C)c3occc3c(NCCN(C)C)c12 (3D coordinates assigned)
CCN(CC)CCNc1c2ccccc2[n+](C)c2c([NH2+]CCN(C)C)c3occc3c(NCCN(C)C)c12 (optimized conformer: 163.68759271370362 kcal/mol)

>  <smiles>  (19) 
CCN(CC)CCNc1c2ccccc2[n+](C)c2c(NCCN(C)C)c3occc3c(NCCN(C)C)c12

>  <score_type>  (19) 
oracle

>  <origin>  (19) 
adg

>  <m_score__min__energy>  (19) 
-4.79

>  <m_primary>  (19) 
energy

$$$$
19:0
     RDKit          3D

 38 38  0  0  0  0  0  0  0  0999 V2000
   58.2403   33.2488   45.2961 H   0  0  0  0  0  0  0  0  0  0  0  0
   58.3770   32.2770   45.7930 C   0  0  0  0  0  0  0  0  0  0  0  0
   57.4330   31.3850   45.7290 N   0  0  0  0  0  0  0  0  0  0  0  0
   56.6380   31.1330   44.6200 O   0  0  0  0  0  0  0  0  0  0  0  0
   57.1080   30.5700   43.3930 C   0  0  0  0  0  0  0  0  0  0  0  0
   58.0420   31.0712   43.0990 H   0  0  0  0  0  0  0  0  0  0  0  0
   56.3404   30.7140   42.6183 H   0  0  0  0  0  0  0  0  0  0  0  0
   57.3720   29.0640   43.5580 C   0  0  0  0  0  0  0  0  0  0  0  0
   58.2525   28.7909   42.9580 H   0  0  0  0  0  0  0  0  0  0  0  0
   56.4745   28.5249   43.2204 H   0  0  0  0  0  0  0  0  0  0  0  0
   57.6210   28.6930   44.9620 N   0  0  0  0  0  0  0  0  0  0  0  0
   57.7450   29.5580   45.5390 H   0  0  0  0  0  0  0  0  0  0  0  0
   58.8020   27.8320   45.1220 C   0  0  0  0  0  0  0  0  0  0  0  0
   58.7198   26.9726   44.4403 H   0  0  0  0  0  0  0  0  0  0  0  0
   58.8521   27.4824   46.1638 H   0  0  0  0  0  0  0  0  0  0  0  0
   60.0720   28.6120   44.7980 C   0  0  0  0  0  0  0  0  0  0  0  0
   60.5650   28.9148   45.7335 H   0  0  0  0  0  0  0  0  0  0  0  0
   60.7535   27.9765   44.2134 H   0  0  0  0  0  0  0  0  0  0  0  0
   59.8134   29.5072   44.2134 H   0  0  0  0  0  0  0  0  0  0  0  0
   59.6350   32.0010   46.5270 C   0  0  0  0  0  0  0  0  0  0  0  0
   60.7330   32.8700   46.4120 C   0  0  0  0  0  0  0  0  0  0  0  0
   60.6558   33.7612   45.7718 H   0  0  0  0  0  0  0  0  0  0  0  0
   61.9220   32.6160   47.1010 C   0  0  0  0  0  0  0  0  0  0  0  0
   63.3880   33.8320   46.9080 Br  0  0  0  0  0  0  0  0  0  0  0  0
   62.0380   31.4860   47.9190 C   0  0  0  0  0  0  0  0  0  0  0  0
   63.2490   31.2660   48.5950 O   0  0  0  0  0  0  0  0  0  0  0  0
   63.5100   31.6610   49.9380 C   0  0  0  0  0  0  0  0  0  0  0  0
   63.0380   30.9467   50.6286 H   0  0  0  0  0  0  0  0  0  0  0  0
   64.5961   31.6756   50.1114 H   0  0  0  0  0  0  0  0  0  0  0  0
   63.0975   32.6659   50.1114 H   0  0  0  0  0  0  0  0  0  0  0  0
   60.9430   30.6100   48.0410 C   0  0  0  0  0  0  0  0  0  0  0  0
   61.0267   29.7211   48.6835 H   0  0  0  0  0  0  0  0  0  0  0  0
   59.7400   30.8590   47.3490 C   0  0  0  0  0  0  0  0  0  0  0  0
   58.6360   29.9950   47.4610 O   0  0  0  0  0  0  0  0  0  0  0  0
   58.6220   28.7870   48.2150 C   0  0  0  0  0  0  0  0  0  0  0  0
   58.6248   29.0250   49.2889 H   0  0  0  0  0  0  0  0  0  0  0  0
   57.7171   28.2118   47.9692 H   0  0  0  0  0  0  0  0  0  0  0  0
   59.5133   28.1910   47.9692 H   0  0  0  0  0  0  0  0  0  0  0  0
  1  2  1  0
  2  3  2  0
  3  4  1  0
  4  5  1  0
  5  6  1  0
  5  7  1  0
  5  8  1  0
  8  9  1  0
  8 10  1  0
  8 11  1  0
 11 12  1  0
 11 13  1  0
 13 14  1  0
 13 15  1  0
 13 16  1  0
 16 17  1  0
 16 18  1  0
 16 19  1  0
  2 20  1  0
 20 21  2  0
 21 22  1  0
 21 23  1  0
 23 24  1  0
 23 25  2  0
 25 26  1  0
 26 27  1  0
 27 28  1  0
 27 29  1  0
 27 30  1  0
 25 31  1  0
 31 32  1  0
 31 33  2  0
 33 34  1  0
 34 35  1  0
 35 36  1  0
 35 37  1  0
 35 38  1  0
 33 20  1  0
M  END
>  <UniqueID>  (20) 
19

>  <SMILES>  (20) 
CCNCCO/N=C/c1cc(Br)c(OC)cc1OC

>  <Energy>  (20) 
34.31087766521177

>  <Genealogy>  (20) 
CCNCCO/N=C/c1cc(Br)c(OC)cc1OC (cis-trans isomerization)
CCNCCO/N=C/c1cc(Br)c(OC)cc1OC (3D coordinates assigned)
CCNCCO/N=C/c1cc(Br)c(OC)cc1OC (optimized conformer: 34.31087766521177 kcal/mol)

>  <smiles>  (20) 
CCNCCON=Cc1cc(Br)c(OC)cc1OC

>  <score_type>  (20) 
oracle

>  <origin>  (20) 
adg

>  <m_score__min__energy>  (20) 
-5.4000000000000004

>  <m_primary>  (20) 
energy

$$$$
20:0
     RDKit          3D

 47 50  0  0  0  0  0  0  0  0999 V2000
   62.9890   33.4740   46.8840 C   0  0  0  0  0  0  0  0  0  0  0  0
   62.7800   32.3770   47.9220 C   0  0  0  0  0  0  0  0  0  0  0  0
   61.3530   32.0350   48.0410 N   0  0  0  0  0  0  0  0  0  0  0  0
   60.7270   31.2010   47.0050 C   0  0  0  0  0  0  0  0  0  0  0  0
   59.5920   31.9470   46.3520 C   0  0  0  0  0  0  0  0  0  0  0  0
   59.6160   33.3480   46.2910 C   0  0  0  0  0  0  0  0  0  0  0  0
   58.5500   34.0460   45.7190 C   0  0  0  0  0  0  0  0  0  0  0  0
   57.4480   33.3520   45.2110 C   0  0  0  0  0  0  0  0  0  0  0  0
   57.4080   31.9450   45.2680 C   0  0  0  0  0  0  0  0  0  0  0  0
   56.3220   31.2050   44.7790 O   0  0  0  0  0  0  0  0  0  0  0  0
   56.4030   30.2720   43.7070 C   0  0  0  0  0  0  0  0  0  0  0  0
   58.4830   31.2520   45.8350 C   0  0  0  0  0  0  0  0  0  0  0  0
   60.5600   32.5530   49.1340 C   0  0  0  0  0  0  0  0  0  0  0  0
   59.6090   31.8200   49.8710 C   0  0  0  0  0  0  0  0  0  0  0  0
   59.0170   32.5930   50.8090 N   0  0  0  0  0  0  0  0  0  0  0  0
   58.1250   32.5060   51.8090 C   0  0  0  0  0  0  0  0  0  0  0  0
   57.3380   31.3090   52.1780 C   0  0  0  0  0  0  0  0  0  0  0  0
   57.9710   30.1550   52.6730 C   0  0  0  0  0  0  0  0  0  0  0  0
   57.2180   29.0260   53.0090 C   0  0  0  0  0  0  0  0  0  0  0  0
   55.8300   29.0320   52.8450 C   0  0  0  0  0  0  0  0  0  0  0  0
   55.1020   27.9340   53.1680 F   0  0  0  0  0  0  0  0  0  0  0  0
   55.1940   30.1690   52.3400 C   0  0  0  0  0  0  0  0  0  0  0  0
   55.9430   31.3010   52.0040 C   0  0  0  0  0  0  0  0  0  0  0  0
   58.0580   33.7070   52.4400 N   0  0  0  0  0  0  0  0  0  0  0  0
   58.8960   34.5580   51.8490 N   0  0  0  0  0  0  0  0  0  0  0  0
   59.4520   33.8340   50.8620 C   0  0  0  0  0  0  0  0  0  0  0  0
   60.6320   34.1700   49.7250 S   0  0  0  0  0  0  0  0  0  0  0  0
   63.1714   34.4314   47.3940 H   0  0  0  0  0  0  0  0  0  0  0  0
   63.8555   33.2229   46.2546 H   0  0  0  0  0  0  0  0  0  0  0  0
   62.0909   33.5591   46.2546 H   0  0  0  0  0  0  0  0  0  0  0  0
   63.3414   31.4812   47.6181 H   0  0  0  0  0  0  0  0  0  0  0  0
   63.1379   32.7408   48.8965 H   0  0  0  0  0  0  0  0  0  0  0  0
   61.4778   30.9428   46.2437 H   0  0  0  0  0  0  0  0  0  0  0  0
   60.3339   30.2852   47.4705 H   0  0  0  0  0  0  0  0  0  0  0  0
   60.4778   33.8993   46.6953 H   0  0  0  0  0  0  0  0  0  0  0  0
   58.5777   35.1445   45.6681 H   0  0  0  0  0  0  0  0  0  0  0  0
   56.6091   33.9065   44.7652 H   0  0  0  0  0  0  0  0  0  0  0  0
   56.4914   29.2536   44.1132 H   0  0  0  0  0  0  0  0  0  0  0  0
   55.4953   30.3430   43.0897 H   0  0  0  0  0  0  0  0  0  0  0  0
   57.2849   30.4984   43.0897 H   0  0  0  0  0  0  0  0  0  0  0  0
   58.4611   30.1530   45.8771 H   0  0  0  0  0  0  0  0  0  0  0  0
   59.3782   30.7574   49.7049 H   0  0  0  0  0  0  0  0  0  0  0  0
   59.0640   30.1405   52.7964 H   0  0  0  0  0  0  0  0  0  0  0  0
   57.7195   28.1301   53.4037 H   0  0  0  0  0  0  0  0  0  0  0  0
   54.1021   30.1736   52.2065 H   0  0  0  0  0  0  0  0  0  0  0  0
   55.4374   32.1909   51.6010 H   0  0  0  0  0  0  0  0  0  0  0  0
   57.4490   33.9550   53.2520 H   0  0  0  0  0  0  0  0  0  0  0  0
  1  2  1  0
  2  3  1  0
  3  4  1  0
  4  5  1  0
  5  6  2  0
  6  7  1  0
  7  8  2  0
  8  9  1  0
  9 10  1  0
 10 11  1  0
  9 12  2  0
  3 13  1  0
 13 14  2  0
 14 15  1  0
 15 16  1  0
 16 17  1  0
 17 18  2  0
 18 19  1  0
 19 20  2  0
 20 21  1  0
 20 22  1  0
 22 23  2  0
 16 24  2  0
 24 25  1  0
 25 26  2  0
 26 27  1  0
 12  5  1  0
 27 13  1  0
 26 15  1  0
 23 17  1  0
  1 28  1  0
  1 29  1  0
  1 30  1  0
  2 31  1  0
  2 32  1  0
  4 33  1  0
  4 34  1  0
  6 35  1  0
  7 36  1  0
  8 37  1  0
 11 38  1  0
 11 39  1  0
 11 40  1  0
 12 41  1  0
 14 42  1  0
 18 43  1  0
 19 44  1  0
 22 45  1  0
 23 46  1  0
 24 47  1  0
M  CHG  1  24   1
M  END
>  <UniqueID>  (21) 
20

>  <SMILES>  (21) 
CCN(Cc1cccc(OC)c1)c1cn2c(-c3ccc(F)cc3)[nH+]nc2s1

>  <Energy>  (21) 
136.7453337791301

>  <Genealogy>  (21) 
CCN(Cc1cccc(OC)c1)c1cn2c(-c3ccc(F)cc3)[nH+]nc2s1 (protonated)
CCN(Cc1cccc(OC)c1)c1cn2c(-c3ccc(F)cc3)[nH+]nc2s1 (3D coordinates assigned)
CCN(Cc1cccc(OC)c1)c1cn2c(-c3ccc(F)cc3)[nH+]nc2s1 (optimized conformer: 136.7453337791301 kcal/mol)

>  <smiles>  (21) 
CCN(Cc1cccc(OC)c1)c1cn2c(-c3ccc(F)cc3)nnc2s1

>  <score_type>  (21) 
oracle

>  <origin>  (21) 
adg

>  <m_score__min__energy>  (21) 
-7.7199999999999998

>  <m_primary>  (21) 
energy

$$$$
21:0
     RDKit          3D

 57 59  0  0  0  0  0  0  0  0999 V2000
   57.7870   32.2260   42.0330 C   0  0  0  0  0  0  0  0  0  0  0  0
   57.7800   31.4950   43.3850 C   0  0  0  0  0  0  0  0  0  0  0  0
   57.4010   30.0630   43.3160 N   0  0  2  0  0  0  0  0  0  0  0  0
   56.2730   29.8410   42.3890 C   0  0  0  0  0  0  0  0  0  0  0  0
   57.1250   29.4900   44.6320 C   0  0  0  0  0  0  0  0  0  0  0  0
   56.0110   29.6530   45.1200 O   0  0  0  0  0  0  0  0  0  0  0  0
   58.1300   28.6290   45.4350 C   0  0  0  0  0  0  0  0  0  0  0  0
   57.6280   27.1680   45.3680 C   0  0  0  0  0  0  0  0  0  0  0  0
   57.8260   26.4300   44.1780 C   0  0  0  0  0  0  0  0  0  0  0  0
   57.3980   25.1050   44.0670 C   0  0  0  0  0  0  0  0  0  0  0  0
   56.7730   24.4780   45.1420 C   0  0  0  0  0  0  0  0  0  0  0  0
   56.5810   25.1730   46.3340 C   0  0  0  0  0  0  0  0  0  0  0  0
   57.0070   26.4990   46.4550 C   0  0  0  0  0  0  0  0  0  0  0  0
   58.1440   29.2220   46.8920 C   0  0  0  0  0  0  0  0  0  0  0  0
   59.4230   28.8530   47.6610 C   0  0  0  0  0  0  0  0  0  0  0  0
   60.6460   29.4250   47.0340 N   0  0  0  0  0  0  0  0  0  0  0  0
   61.1380   30.6160   47.7650 C   0  0  0  0  0  0  0  0  0  0  0  0
   59.9770   31.4560   48.3140 C   0  0  0  0  0  0  0  0  0  0  0  0
   59.5510   32.4620   47.3340 N   0  0  0  0  0  0  0  0  0  0  0  0
   58.1870   32.6060   46.8320 C   0  0  0  0  0  0  0  0  0  0  0  0
   58.2380   33.7510   45.7900 C   0  0  0  0  0  0  0  0  0  0  0  0
   59.6200   34.1980   45.7630 N   0  0  0  0  0  0  0  0  0  0  0  0
   60.3590   33.4250   46.6810 C   0  0  0  0  0  0  0  0  0  0  0  0
   61.9960   33.4700   46.7570 S   0  0  0  0  0  0  0  0  0  0  0  0
   60.4870   29.7090   45.5850 C   0  0  0  0  0  0  0  0  0  0  0  0
   59.6100   28.6530   44.8950 C   0  0  0  0  0  0  0  0  0  0  0  0
   57.7974   33.3126   42.2037 H   0  0  0  0  0  0  0  0  0  0  0  0
   58.6824   31.9357   41.4638 H   0  0  0  0  0  0  0  0  0  0  0  0
   56.8862   31.9529   41.4638 H   0  0  0  0  0  0  0  0  0  0  0  0
   58.7903   31.5612   43.8150 H   0  0  0  0  0  0  0  0  0  0  0  0
   57.0132   31.9889   43.9999 H   0  0  0  0  0  0  0  0  0  0  0  0
   58.1960   29.5620   42.8700 H   0  0  0  0  0  0  0  0  0  0  0  0
   55.3542   29.6602   42.9662 H   0  0  0  0  0  0  0  0  0  0  0  0
   56.1389   30.7300   41.7552 H   0  0  0  0  0  0  0  0  0  0  0  0
   56.4857   28.9675   41.7552 H   0  0  0  0  0  0  0  0  0  0  0  0
   58.3267   26.9086   43.3234 H   0  0  0  0  0  0  0  0  0  0  0  0
   57.5551   24.5550   43.1274 H   0  0  0  0  0  0  0  0  0  0  0  0
   56.4317   23.4363   45.0501 H   0  0  0  0  0  0  0  0  0  0  0  0
   56.0916   24.6758   47.1845 H   0  0  0  0  0  0  0  0  0  0  0  0
   56.8588   27.0315   47.4061 H   0  0  0  0  0  0  0  0  0  0  0  0
   58.0735   30.3179   46.8284 H   0  0  0  0  0  0  0  0  0  0  0  0
   57.2892   28.7948   47.4369 H   0  0  0  0  0  0  0  0  0  0  0  0
   59.3405   29.2363   48.6888 H   0  0  0  0  0  0  0  0  0  0  0  0
   59.5193   27.7573   47.6464 H   0  0  0  0  0  0  0  0  0  0  0  0
   61.7686   30.2858   48.6037 H   0  0  0  0  0  0  0  0  0  0  0  0
   61.7141   31.2383   47.0644 H   0  0  0  0  0  0  0  0  0  0  0  0
   59.1291   30.7934   48.5421 H   0  0  0  0  0  0  0  0  0  0  0  0
   60.3158   31.9725   49.2242 H   0  0  0  0  0  0  0  0  0  0  0  0
   57.8530   31.6714   46.3577 H   0  0  0  0  0  0  0  0  0  0  0  0
   57.4789   32.8292   47.6437 H   0  0  0  0  0  0  0  0  0  0  0  0
   57.9352   33.3814   44.7992 H   0  0  0  0  0  0  0  0  0  0  0  0
   57.5520   34.5697   46.0531 H   0  0  0  0  0  0  0  0  0  0  0  0
   60.0070   34.9380   45.1350 H   0  0  0  0  0  0  0  0  0  0  0  0
   60.0182   30.6968   45.4641 H   0  0  0  0  0  0  0  0  0  0  0  0
   61.4830   29.6873   45.1187 H   0  0  0  0  0  0  0  0  0  0  0  0
   59.5856   28.8687   43.8166 H   0  0  0  0  0  0  0  0  0  0  0  0
   60.0528   27.6690   45.1086 H   0  0  0  0  0  0  0  0  0  0  0  0
  1  2  1  0
  2  3  1  0
  3  4  1  0
  3  5  1  0
  5  6  2  0
  5  7  1  0
  7  8  1  0
  8  9  2  0
  9 10  1  0
 10 11  2  0
 11 12  1  0
 12 13  2  0
  7 14  1  0
 14 15  1  0
 15 16  1  0
 16 17  1  0
 17 18  1  0
 18 19  1  0
 19 20  1  0
 20 21  1  0
 21 22  1  0
 22 23  1  0
 23 24  2  0
 16 25  1  0
 25 26  1  0
 26  7  1  0
 13  8  1  0
 23 19  1  0
  1 27  1  0
  1 28  1  0
  1 29  1  0
  2 30  1  0
  2 31  1  0
  3 32  1  6
  4 33  1  0
  4 34  1  0
  4 35  1  0
  9 36  1  0
 10 37  1  0
 11 38  1  0
 12 39  1  0
 13 40  1  0
 14 41  1  0
 14 42  1  0
 15 43  1  0
 15 44  1  0
 17 45  1  0
 17 46  1  0
 18 47  1  0
 18 48  1  0
 20 49  1  0
 20 50  1  0
 21 51  1  0
 21 52  1  0
 22 53  1  0
 25 54  1  0
 25 55  1  0
 26 56  1  0
 26 57  1  0
M  CHG  1   3   1
M  END
>  <UniqueID>  (22) 
21

>  <SMILES>  (22) 
CC[N@H+](C)C(=O)C1(c2ccccc2)CCN(CCN2CCNC2=S)CC1

>  <Energy>  (22) 
93.91984604472022

>  <Genealogy>  (22) 
CC[NH+](C)C(=O)C1(c2ccccc2)CCN(CCN2CCNC2=S)CC1 (protonated)
CC[N@H+](C)C(=O)C1(c2ccccc2)CCN(CCN2CCNC2=S)CC1 (chirality)
CC[N@H+](C)C(=O)C1(c2ccccc2)CCN(CCN2CCNC2=S)CC1 (3D coordinates assigned)
CC[N@H+](C)C(=O)C1(c2ccccc2)CCN(CCN2CCNC2=S)CC1 (nonaromatic ring conformer: 93.91984604472022 kcal/mol)

>  <smiles>  (22) 
CCN(C)C(=O)C1(c2ccccc2)CCN(CCN2CCNC2=S)CC1

>  <score_type>  (22) 
oracle

>  <origin>  (22) 
adg

>  <m_score__min__energy>  (22) 
-6.9699999999999998

>  <m_primary>  (22) 
energy

$$$$
22:0
     RDKit          3D

 60 62  0  0  0  0  0  0  0  0999 V2000
   57.7920   22.8150   44.8790 C   0  0  0  0  0  0  0  0  0  0  0  0
   58.1880   23.8600   45.9200 C   0  0  0  0  0  0  0  0  0  0  0  0
   57.1160   23.9820   47.0150 C   0  0  0  0  0  0  0  0  0  0  0  0
   56.5360   25.3330   47.0840 N   0  0  0  0  0  0  0  0  0  0  0  0
   56.2760   25.8910   45.7510 C   0  0  0  0  0  0  0  0  0  0  0  0
   56.9410   27.2660   45.6030 C   0  0  0  0  0  0  0  0  0  0  0  0
   58.4740   27.1830   45.6060 C   0  0  0  0  0  0  0  0  0  0  0  0
   58.9780   26.9850   46.9710 N   0  0  0  0  0  0  0  0  0  0  0  0
   58.4560   28.0350   47.8570 C   0  0  0  0  0  0  0  0  0  0  0  0
   59.5670   29.0060   48.3020 C   0  0  0  0  0  0  0  0  0  0  0  0
   60.5080   29.3520   47.2170 N   0  0  0  0  0  0  0  0  0  0  0  0
   60.4050   30.7520   46.8180 C   0  0  0  0  0  0  0  0  0  0  0  0
   61.4540   31.6610   47.1190 C   0  0  0  0  0  0  0  0  0  0  0  0
   62.7500   31.2110   47.4690 C   0  0  0  0  0  0  0  0  0  0  0  0
   63.7690   32.1140   47.7600 C   0  0  0  0  0  0  0  0  0  0  0  0
   63.5310   33.4800   47.6920 C   0  0  0  0  0  0  0  0  0  0  0  0
   62.2690   33.9520   47.3400 C   0  0  0  0  0  0  0  0  0  0  0  0
   61.2030   33.0590   47.0620 C   0  0  0  0  0  0  0  0  0  0  0  0
   59.9480   33.5220   46.7330 N   0  0  0  0  0  0  0  0  0  0  0  0
   59.5800   34.9270   47.0090 C   0  0  0  0  0  0  0  0  0  0  0  0
   59.0410   32.6720   46.1330 C   0  0  0  0  0  0  0  0  0  0  0  0
   57.9100   33.1790   45.4480 C   0  0  0  0  0  0  0  0  0  0  0  0
   57.0010   32.3310   44.8260 C   0  0  0  0  0  0  0  0  0  0  0  0
   57.1950   30.9490   44.8420 C   0  0  0  0  0  0  0  0  0  0  0  0
   56.2660   30.0740   44.1710 N   0  0  0  0  0  0  0  0  0  0  0  0
   55.2900   29.5900   44.7820 O   0  0  0  0  0  0  0  0  0  0  0  0
   56.4460   29.7440   42.8480 O   0  0  0  0  0  0  0  0  0  0  0  0
   58.3170   30.4260   45.5000 C   0  0  0  0  0  0  0  0  0  0  0  0
   59.2470   31.2650   46.1650 C   0  0  0  0  0  0  0  0  0  0  0  0
   57.4464   21.9031   45.3879 H   0  0  0  0  0  0  0  0  0  0  0  0
   56.9823   23.2129   44.2496 H   0  0  0  0  0  0  0  0  0  0  0  0
   58.6620   22.5764   44.2496 H   0  0  0  0  0  0  0  0  0  0  0  0
   59.1416   23.5641   46.3817 H   0  0  0  0  0  0  0  0  0  0  0  0
   58.2880   24.8337   45.4181 H   0  0  0  0  0  0  0  0  0  0  0  0
   56.3113   23.2624   46.8034 H   0  0  0  0  0  0  0  0  0  0  0  0
   57.5985   23.7743   47.9815 H   0  0  0  0  0  0  0  0  0  0  0  0
   57.1870   25.9650   47.6040 H   0  0  0  0  0  0  0  0  0  0  0  0
   56.6809   25.2095   44.9884 H   0  0  0  0  0  0  0  0  0  0  0  0
   55.1899   26.0060   45.6199 H   0  0  0  0  0  0  0  0  0  0  0  0
   56.6142   27.7152   44.6535 H   0  0  0  0  0  0  0  0  0  0  0  0
   56.6385   27.8774   46.4660 H   0  0  0  0  0  0  0  0  0  0  0  0
   58.7916   26.3381   44.9772 H   0  0  0  0  0  0  0  0  0  0  0  0
   58.8810   28.1254   45.2108 H   0  0  0  0  0  0  0  0  0  0  0  0
   58.6120   26.0620   47.3060 H   0  0  0  0  0  0  0  0  0  0  0  0
   57.6804   28.6016   47.3208 H   0  0  0  0  0  0  0  0  0  0  0  0
   58.0407   27.5529   48.7543 H   0  0  0  0  0  0  0  0  0  0  0  0
   59.0970   29.9318   48.6653 H   0  0  0  0  0  0  0  0  0  0  0  0
   60.1469   28.5002   49.0881 H   0  0  0  0  0  0  0  0  0  0  0  0
   60.3300   28.6780   46.4490 H   0  0  0  0  0  0  0  0  0  0  0  0
   61.4850   29.1450   47.5220 H   0  0  0  0  0  0  0  0  0  0  0  0
   62.9550   30.1311   47.5117 H   0  0  0  0  0  0  0  0  0  0  0  0
   64.7651   31.7441   48.0445 H   0  0  0  0  0  0  0  0  0  0  0  0
   64.3403   34.1904   47.9164 H   0  0  0  0  0  0  0  0  0  0  0  0
   62.0960   35.0365   47.2765 H   0  0  0  0  0  0  0  0  0  0  0  0
   59.5378   35.0882   48.0963 H   0  0  0  0  0  0  0  0  0  0  0  0
   60.3330   35.5967   46.5680 H   0  0  0  0  0  0  0  0  0  0  0  0
   58.5954   35.1415   46.5680 H   0  0  0  0  0  0  0  0  0  0  0  0
   57.7475   34.2662   45.4073 H   0  0  0  0  0  0  0  0  0  0  0  0
   56.1217   32.7526   44.3171 H   0  0  0  0  0  0  0  0  0  0  0  0
   58.4800   29.3381   45.5005 H   0  0  0  0  0  0  0  0  0  0  0  0
  1  2  1  0
  2  3  1  0
  3  4  1  0
  4  5  1  0
  5  6  1  0
  6  7  1  0
  7  8  1  0
  8  9  1  0
  9 10  1  0
 10 11  1  0
 11 12  1  0
 12 13  2  0
 13 14  1  0
 14 15  2  0
 15 16  1  0
 16 17  2  0
 17 18  1  0
 18 19  2  0
 19 20  1  0
 19 21  1  0
 21 22  2  0
 22 23  1  0
 23 24  2  0
 24 25  1  0
 25 26  2  0
 25 27  1  0
 24 28  1  0
 28 29  2  0
 29 12  1  0
 18 13  1  0
 29 21  1  0
  1 30  1  0
  1 31  1  0
  1 32  1  0
  2 33  1  0
  2 34  1  0
  3 35  1  0
  3 36  1  0
  4 37  1  0
  5 38  1  0
  5 39  1  0
  6 40  1  0
  6 41  1  0
  7 42  1  0
  7 43  1  0
  8 44  1  0
  9 45  1  0
  9 46  1  0
 10 47  1  0
 10 48  1  0
 11 49  1  0
 11 50  1  0
 14 51  1  0
 15 52  1  0
 16 53  1  0
 17 54  1  0
 20 55  1  0
 20 56  1  0
 20 57  1  0
 22 58  1  0
 23 59  1  0
 28 60  1  0
M  CHG  4  11   1  19   1  25   1  27  -1
M  END
>  <UniqueID>  (23) 
22

>  <SMILES>  (23) 
CCCNCCCNCC[NH2+]c1c2ccccc2[n+](C)c2ccc([N+](=O)[O-])cc12

>  <Energy>  (23) 
81.71803151835199

>  <Genealogy>  (23) 
CCCNCCCNCC[NH2+]c1c2ccccc2[n+](C)c2ccc([N+](=O)[O-])cc12 (protonated)
CCCNCCCNCC[NH2+]c1c2ccccc2[n+](C)c2ccc([N+](=O)[O-])cc12 (3D coordinates assigned)
CCCNCCCNCC[NH2+]c1c2ccccc2[n+](C)c2ccc([N+](=O)[O-])cc12 (optimized conformer: 81.71803151835199 kcal/mol)

>  <smiles>  (23) 
CCCNCCCNCCNc1c2ccccc2[n+](C)c2ccc([N+](=O)[O-])cc12

>  <score_type>  (23) 
oracle

>  <origin>  (23) 
adg

>  <m_score__min__energy>  (23) 
-5.9900000000000002

>  <m_primary>  (23) 
energy

$$$$
23:0
     RDKit          3D

 80 83  0  0  0  0  0  0  0  0999 V2000
   62.4790   31.3640   47.4750 C   0  0  0  0  0  0  0  0  0  0  0  0
   63.2410   32.6420   47.4510 C   0  0  0  0  0  0  0  0  0  0  0  0
   62.4970   33.8170   47.9410 C   0  0  0  0  0  0  0  0  0  0  0  0
   61.1650   34.1230   47.3840 C   0  0  0  0  0  0  0  0  0  0  0  0
   60.9200   33.8920   46.0060 N   0  0  0  0  0  0  0  0  0  0  0  0
   59.6970   34.5870   45.5630 C   0  0  0  0  0  0  0  0  0  0  0  0
   58.6180   34.6040   46.5890 C   0  0  0  0  0  0  0  0  0  0  0  0
   57.8350   33.4540   46.7950 N   0  0  0  0  0  0  0  0  0  0  0  0
   58.2070   32.0930   46.7960 C   0  0  0  0  0  0  0  0  0  0  0  0
   57.9480   31.3300   45.6790 C   0  0  0  0  0  0  0  0  0  0  0  0
   57.3140   31.8990   44.6080 C   0  0  0  0  0  0  0  0  0  0  0  0
   57.0110   31.2050   43.4560 C   0  0  0  0  0  0  0  0  0  0  0  0
   57.3760   29.8790   43.4130 C   0  0  0  0  0  0  0  0  0  0  0  0
   58.0120   29.3080   44.4870 C   0  0  0  0  0  0  0  0  0  0  0  0
   58.3170   30.0070   45.6470 C   0  0  0  0  0  0  0  0  0  0  0  0
   58.9440   29.3920   46.6980 N   0  0  0  0  0  0  0  0  0  0  0  0
   59.2580   28.0120   46.5100 C   0  0  0  0  0  0  0  0  0  0  0  0
   59.1960   30.1300   47.7810 C   0  0  0  0  0  0  0  0  0  0  0  0
   59.8210   29.5450   48.8400 C   0  0  0  0  0  0  0  0  0  0  0  0
   60.0950   30.2720   49.9550 C   0  0  0  0  0  0  0  0  0  0  0  0
   60.7340   29.6490   51.0170 O   0  0  0  0  0  0  0  0  0  0  0  0
   62.1310   29.7560   51.1540 C   0  0  0  0  0  0  0  0  0  0  0  0
   59.7570   31.6520   50.0900 C   0  0  0  0  0  0  0  0  0  0  0  0
   60.0930   32.2080   51.2230 O   0  0  0  0  0  0  0  0  0  0  0  0
   60.4220   32.7520   52.3330 C   0  0  0  0  0  0  0  0  0  0  0  0
   59.6370   32.3700   53.5600 C   0  0  0  0  0  0  0  0  0  0  0  0
   58.4310   31.6710   53.4310 N   0  0  0  0  0  0  0  0  0  0  0  0
   57.8150   31.6360   54.7790 C   0  0  0  0  0  0  0  0  0  0  0  0
   57.4740   32.4460   52.6500 C   0  0  0  0  0  0  0  0  0  0  0  0
   56.6460   31.5760   51.7470 C   0  0  0  0  0  0  0  0  0  0  0  0
   56.1900   30.2900   52.3340 C   0  0  0  0  0  0  0  0  0  0  0  0
   57.1670   29.6210   53.2410 C   0  0  0  0  0  0  0  0  0  0  0  0
   58.5090   30.3190   52.9910 C   0  0  0  0  0  0  0  0  0  0  0  0
   59.1250   32.1770   48.9840 C   0  0  0  0  0  0  0  0  0  0  0  0
   58.8410   31.4560   47.8450 C   0  0  0  0  0  0  0  0  0  0  0  0
   62.2998   31.0635   48.5179 H   0  0  0  0  0  0  0  0  0  0  0  0
   61.5155   31.5019   46.9624 H   0  0  0  0  0  0  0  0  0  0  0  0
   63.0584   30.5820   46.9624 H   0  0  0  0  0  0  0  0  0  0  0  0
   64.1360   32.5181   48.0784 H   0  0  0  0  0  0  0  0  0  0  0  0
   63.4743   32.8426   46.3949 H   0  0  0  0  0  0  0  0  0  0  0  0
   62.3664   33.6827   49.0249 H   0  0  0  0  0  0  0  0  0  0  0  0
   63.1137   34.6664   47.6120 H   0  0  0  0  0  0  0  0  0  0  0  0
   60.4360   33.5200   47.9452 H   0  0  0  0  0  0  0  0  0  0  0  0
   61.0852   35.2156   47.4837 H   0  0  0  0  0  0  0  0  0  0  0  0
   60.7050   32.8430   45.9230 H   0  0  0  0  0  0  0  0  0  0  0  0
   61.6850   34.0430   45.3450 H   0  0  0  0  0  0  0  0  0  0  0  0
   59.9578   35.6264   45.3150 H   0  0  0  0  0  0  0  0  0  0  0  0
   59.3084   34.0354   44.6943 H   0  0  0  0  0  0  0  0  0  0  0  0
   59.0960   34.8411   47.5509 H   0  0  0  0  0  0  0  0  0  0  0  0
   57.8990   35.3362   46.1929 H   0  0  0  0  0  0  0  0  0  0  0  0
   56.7820   33.6090   46.9870 H   0  0  0  0  0  0  0  0  0  0  0  0
   57.0328   32.9607   44.6692 H   0  0  0  0  0  0  0  0  0  0  0  0
   56.5009   31.6890   42.6101 H   0  0  0  0  0  0  0  0  0  0  0  0
   57.1582   29.2770   42.5185 H   0  0  0  0  0  0  0  0  0  0  0  0
   58.2933   28.2464   44.4257 H   0  0  0  0  0  0  0  0  0  0  0  0
   59.3689   27.5244   47.4898 H   0  0  0  0  0  0  0  0  0  0  0  0
   58.4477   27.5249   45.9477 H   0  0  0  0  0  0  0  0  0  0  0  0
   60.1993   27.9234   45.9477 H   0  0  0  0  0  0  0  0  0  0  0  0
   60.1043   28.4832   48.7929 H   0  0  0  0  0  0  0  0  0  0  0  0
   62.3942   29.7762   52.2219 H   0  0  0  0  0  0  0  0  0  0  0  0
   62.6138   28.8922   50.6736 H   0  0  0  0  0  0  0  0  0  0  0  0
   62.4766   30.6832   50.6736 H   0  0  0  0  0  0  0  0  0  0  0  0
   61.4749   32.4973   52.5242 H   0  0  0  0  0  0  0  0  0  0  0  0
   60.2119   33.8224   52.1909 H   0  0  0  0  0  0  0  0  0  0  0  0
   60.2996   31.7480   54.1797 H   0  0  0  0  0  0  0  0  0  0  0  0
   59.3233   33.3408   53.9712 H   0  0  0  0  0  0  0  0  0  0  0  0
   58.6041   31.6808   55.5440 H   0  0  0  0  0  0  0  0  0  0  0  0
   57.1409   32.4973   54.8966 H   0  0  0  0  0  0  0  0  0  0  0  0
   57.2428   30.7039   54.8966 H   0  0  0  0  0  0  0  0  0  0  0  0
   56.8041   32.9810   53.3392 H   0  0  0  0  0  0  0  0  0  0  0  0
   58.0401   33.1473   52.0194 H   0  0  0  0  0  0  0  0  0  0  0  0
   55.7541   32.1478   51.4512 H   0  0  0  0  0  0  0  0  0  0  0  0
   57.3016   31.3064   50.9059 H   0  0  0  0  0  0  0  0  0  0  0  0
   55.2720   30.4850   52.9079 H   0  0  0  0  0  0  0  0  0  0  0  0
   56.0429   29.6042   51.4866 H   0  0  0  0  0  0  0  0  0  0  0  0
   56.8612   29.7421   54.2907 H   0  0  0  0  0  0  0  0  0  0  0  0
   57.2285   28.5402   53.0458 H   0  0  0  0  0  0  0  0  0  0  0  0
   59.3023   29.7979   53.5469 H   0  0  0  0  0  0  0  0  0  0  0  0
   58.7388   30.2965   51.9155 H   0  0  0  0  0  0  0  0  0  0  0  0
   58.8292   33.2361   49.0122 H   0  0  0  0  0  0  0  0  0  0  0  0
  1  2  1  0
  2  3  1  0
  3  4  1  0
  4  5  1  0
  5  6  1  0
  6  7  1  0
  7  8  1  0
  8  9  1  0
  9 10  2  0
 10 11  1  0
 11 12  2  0
 12 13  1  0
 13 14  2  0
 14 15  1  0
 15 16  2  0
 16 17  1  0
 16 18  1  0
 18 19  2  0
 19 20  1  0
 20 21  1  0
 21 22  1  0
 20 23  2  0
 23 24  1  0
 24 25  1  0
 25 26  1  0
 26 27  1  0
 27 28  1  0
 27 29  1  0
 29 30  1  0
 30 31  1  0
 31 32  1  0
 32 33  1  0
 23 34  1  0
 34 35  2  0
 35  9  1  0
 15 10  1  0
 35 18  1  0
 33 27  1  0
  1 36  1  0
  1 37  1  0
  1 38  1  0
  2 39  1  0
  2 40  1  0
  3 41  1  0
  3 42  1  0
  4 43  1  0
  4 44  1  0
  5 45  1  0
  5 46  1  0
  6 47  1  0
  6 48  1  0
  7 49  1  0
  7 50  1  0
  8 51  1  0
 11 52  1  0
 12 53  1  0
 13 54  1  0
 14 55  1  0
 17 56  1  0
 17 57  1  0
 17 58  1  0
 19 59  1  0
 22 60  1  0
 22 61  1  0
 22 62  1  0
 25 63  1  0
 25 64  1  0
 26 65  1  0
 26 66  1  0
 28 67  1  0
 28 68  1  0
 28 69  1  0
 29 70  1  0
 29 71  1  0
 30 72  1  0
 30 73  1  0
 31 74  1  0
 31 75  1  0
 32 76  1  0
 32 77  1  0
 33 78  1  0
 33 79  1  0
 34 80  1  0
M  CHG  3   5   1  16   1  27   1
M  END
>  <UniqueID>  (24) 
23

>  <SMILES>  (24) 
CCCC[NH2+]CCNc1c2ccccc2[n+](C)c2cc(OC)c(OCC[N+]3(C)CCCCC3)cc12

>  <Energy>  (24) 
373.2184500070283

>  <Genealogy>  (24) 
CCCC[NH2+]CCNc1c2ccccc2[n+](C)c2cc(OC)c(OCC[N+]3(C)CCCCC3)cc12 (protonated)
CCCC[NH2+]CCNc1c2ccccc2[n+](C)c2cc(OC)c(OCC[N+]3(C)CCCCC3)cc12 (3D coordinates assigned)
CCCC[NH2+]CCNc1c2ccccc2[n+](C)c2cc(OC)c(OCC[N+]3(C)CCCCC3)cc12 (nonaromatic ring conformer: 373.2184500070283 kcal/mol)

>  <smiles>  (24) 
CCCCNCCNc1c2ccccc2[n+](C)c2cc(OC)c(OCC[N+]3(C)CCCCC3)cc12

>  <score_type>  (24) 
oracle

>  <origin>  (24) 
adg

>  <m_score__min__energy>  (24) 
-3.2799999999999998

>  <m_primary>  (24) 
energy

$$$$
24:0
     RDKit          3D

 40 42  0  0  0  0  0  0  0  0999 V2000
   60.6700   26.5560   46.2850 O   0  0  0  0  0  0  0  0  0  0  0  0
   59.5860   27.1840   46.4000 C   0  0  0  0  0  0  0  0  0  0  0  0
   59.6070   28.6850   46.3670 C   0  0  0  0  0  0  0  0  0  0  0  0
   59.6510   29.2760   44.6390 S   0  0  0  0  0  0  0  0  0  0  0  0
   57.9950   29.9740   44.6620 C   0  0  0  0  0  0  0  0  0  0  0  0
   56.9020   29.2990   44.2660 N   0  0  0  0  0  0  0  0  0  0  0  0
   55.8970   30.1500   44.4130 N   0  0  0  0  0  0  0  0  0  0  0  0
   56.3480   31.3080   44.8710 N   0  0  0  0  0  0  0  0  0  0  0  0
   57.6560   31.2260   45.0390 N   0  0  0  0  0  0  0  0  0  0  0  0
   58.4930   32.3670   45.4350 C   0  0  0  0  0  0  0  0  0  0  0  0
   58.0690   32.9240   46.8060 C   0  0  0  0  0  0  0  0  0  0  0  0
   59.0430   34.0150   47.2960 C   0  0  0  0  0  0  0  0  0  0  0  0
   59.6860   34.8270   46.1520 C   0  0  0  0  0  0  0  0  0  0  0  0
   58.7890   34.8760   44.9100 C   0  0  0  0  0  0  0  0  0  0  0  0
   58.5260   33.4660   44.3430 C   0  0  0  0  0  0  0  0  0  0  0  0
   58.3760   26.4420   46.6050 N   0  0  0  0  0  0  0  0  0  0  0  0
   57.0230   26.9710   46.4710 C   0  0  0  0  0  0  0  0  0  0  0  0
   56.0720   25.8890   46.0670 C   0  0  0  0  0  0  0  0  0  0  0  0
   56.4150   24.5950   45.7280 C   0  0  0  0  0  0  0  0  0  0  0  0
   55.2260   23.9630   45.4350 C   0  0  0  0  0  0  0  0  0  0  0  0
   54.2340   24.9060   45.6170 C   0  0  0  0  0  0  0  0  0  0  0  0
   54.7700   26.0450   45.9950 O   0  0  0  0  0  0  0  0  0  0  0  0
   58.7035   29.0722   46.8608 H   0  0  0  0  0  0  0  0  0  0  0  0
   60.5044   29.0436   46.8925 H   0  0  0  0  0  0  0  0  0  0  0  0
   59.5241   31.9983   45.5396 H   0  0  0  0  0  0  0  0  0  0  0  0
   57.0611   33.3563   46.7205 H   0  0  0  0  0  0  0  0  0  0  0  0
   58.0795   32.0987   47.5332 H   0  0  0  0  0  0  0  0  0  0  0  0
   58.4899   34.7084   47.9466 H   0  0  0  0  0  0  0  0  0  0  0  0
   59.8592   33.5041   47.8278 H   0  0  0  0  0  0  0  0  0  0  0  0
   59.8646   35.8544   46.5022 H   0  0  0  0  0  0  0  0  0  0  0  0
   60.6283   34.3334   45.8721 H   0  0  0  0  0  0  0  0  0  0  0  0
   57.8277   35.3363   45.1820 H   0  0  0  0  0  0  0  0  0  0  0  0
   59.3032   35.4668   44.1376 H   0  0  0  0  0  0  0  0  0  0  0  0
   57.5561   33.4729   43.8241 H   0  0  0  0  0  0  0  0  0  0  0  0
   59.3562   33.2266   43.6623 H   0  0  0  0  0  0  0  0  0  0  0  0
   56.7025   27.3925   47.4352 H   0  0  0  0  0  0  0  0  0  0  0  0
   57.0225   27.7512   45.6956 H   0  0  0  0  0  0  0  0  0  0  0  0
   57.4250   24.1602   45.6981 H   0  0  0  0  0  0  0  0  0  0  0  0
   55.0938   22.9175   45.1196 H   0  0  0  0  0  0  0  0  0  0  0  0
   53.1583   24.7306   45.4682 H   0  0  0  0  0  0  0  0  0  0  0  0
  1  2  2  0
  2  3  1  0
  3  4  1  0
  4  5  1  0
  5  6  2  0
  6  7  1  0
  7  8  2  0
  8  9  1  0
  9 10  1  0
 10 11  1  0
 11 12  1  0
 12 13  1  0
 13 14  1  0
 14 15  1  0
  2 16  1  0
 16 17  1  0
 17 18  1  0
 18 19  2  0
 19 20  1  0
 20 21  2  0
 21 22  1  0
  9  5  1  0
 15 10  1  0
 22 18  1  0
  3 23  1  0
  3 24  1  0
 10 25  1  0
 11 26  1  0
 11 27  1  0
 12 28  1  0
 12 29  1  0
 13 30  1  0
 13 31  1  0
 14 32  1  0
 14 33  1  0
 15 34  1  0
 15 35  1  0
 17 36  1  0
 17 37  1  0
 19 38  1  0
 20 39  1  0
 21 40  1  0
M  CHG  1  16  -1
M  END
>  <UniqueID>  (25) 
24

>  <SMILES>  (25) 
O=C(CSc1nnnn1C1CCCCC1)[N-]Cc1ccco1

>  <Energy>  (25) 
103.55112795096525

>  <Genealogy>  (25) 
O=C(CSc1nnnn1C1CCCCC1)[N-]Cc1ccco1 (protonated)
O=C(CSc1nnnn1C1CCCCC1)[N-]Cc1ccco1 (3D coordinates assigned)
O=C(CSc1nnnn1C1CCCCC1)[N-]Cc1ccco1 (nonaromatic ring conformer: 103.55112795096525 kcal/mol)

>  <smiles>  (25) 
O=C(CSc1nnnn1C1CCCCC1)NCc1ccco1

>  <score_type>  (25) 
oracle

>  <origin>  (25) 
adg

>  <m_score__min__energy>  (25) 
-10.73

>  <m_primary>  (25) 
energy

$$$$
25:0
     RDKit          3D

 28 28  0  0  0  0  0  0  0  0999 V2000
   58.1370   26.7140   42.5750 C   0  0  0  0  0  0  0  0  0  0  0  0
   58.3350   27.6810   43.7460 C   0  0  0  0  0  0  0  0  0  0  0  0
   57.1240   28.4700   44.0360 N   0  0  0  0  0  0  0  0  0  0  0  0
   56.8680   29.4930   43.0060 C   0  0  0  0  0  0  0  0  0  0  0  0
   56.9440   30.9030   43.5950 C   0  0  0  0  0  0  0  0  0  0  0  0
   56.9970   30.8300   45.0180 O   0  0  0  0  0  0  0  0  0  0  0  0
   57.8090   31.6370   45.8290 C   0  0  0  0  0  0  0  0  0  0  0  0
   57.7910   33.0440   45.7430 C   0  0  0  0  0  0  0  0  0  0  0  0
   58.6170   33.8120   46.5690 C   0  0  0  0  0  0  0  0  0  0  0  0
   59.4650   33.1880   47.4870 C   0  0  0  0  0  0  0  0  0  0  0  0
   60.5920   34.2400   48.6150 Br  0  0  0  0  0  0  0  0  0  0  0  0
   59.4900   31.7940   47.5790 C   0  0  0  0  0  0  0  0  0  0  0  0
   58.6650   31.0200   46.7540 C   0  0  0  0  0  0  0  0  0  0  0  0
   58.7230   29.1130   46.9030 Br  0  0  0  0  0  0  0  0  0  0  0  0
   57.9305   25.7056   42.9631 H   0  0  0  0  0  0  0  0  0  0  0  0
   57.2892   27.0511   41.9604 H   0  0  0  0  0  0  0  0  0  0  0  0
   59.0490   26.6907   41.9604 H   0  0  0  0  0  0  0  0  0  0  0  0
   58.6012   27.1008   44.6418 H   0  0  0  0  0  0  0  0  0  0  0  0
   59.1340   28.3841   43.4681 H   0  0  0  0  0  0  0  0  0  0  0  0
   57.2690   28.9490   44.9560 H   0  0  0  0  0  0  0  0  0  0  0  0
   56.2990   27.8330   44.1250 H   0  0  0  0  0  0  0  0  0  0  0  0
   57.6203   29.3960   42.2093 H   0  0  0  0  0  0  0  0  0  0  0  0
   55.8556   29.3374   42.6049 H   0  0  0  0  0  0  0  0  0  0  0  0
   57.8477   31.4066   43.2213 H   0  0  0  0  0  0  0  0  0  0  0  0
   56.0516   31.4710   43.2935 H   0  0  0  0  0  0  0  0  0  0  0  0
   57.1239   33.5399   45.0226 H   0  0  0  0  0  0  0  0  0  0  0  0
   58.5991   34.9094   46.4959 H   0  0  0  0  0  0  0  0  0  0  0  0
   60.1593   31.3036   48.3012 H   0  0  0  0  0  0  0  0  0  0  0  0
  1  2  1  0
  2  3  1  0
  3  4  1  0
  4  5  1  0
  5  6  1  0
  6  7  1  0
  7  8  2  0
  8  9  1  0
  9 10  2  0
 10 11  1  0
 10 12  1  0
 12 13  2  0
 13 14  1  0
 13  7  1  0
  1 15  1  0
  1 16  1  0
  1 17  1  0
  2 18  1  0
  2 19  1  0
  3 20  1  0
  3 21  1  0
  4 22  1  0
  4 23  1  0
  5 24  1  0
  5 25  1  0
  8 26  1  0
  9 27  1  0
 12 28  1  0
M  CHG  1   3   1
M  END
>  <UniqueID>  (26) 
25

>  <SMILES>  (26) 
CC[NH2+]CCOc1ccc(Br)cc1Br

>  <Energy>  (26) 
21.194076917207006

>  <Genealogy>  (26) 
CC[NH2+]CCOc1ccc(Br)cc1Br (protonated)
CC[NH2+]CCOc1ccc(Br)cc1Br (3D coordinates assigned)
CC[NH2+]CCOc1ccc(Br)cc1Br (optimized conformer: 21.194076917207006 kcal/mol)

>  <smiles>  (26) 
CCNCCOc1ccc(Br)cc1Br

>  <score_type>  (26) 
oracle

>  <origin>  (26) 
adg

>  <m_score__min__energy>  (26) 
-4.6399999999999997

>  <m_primary>  (26) 
energy

$$$$
26:0
     RDKit          3D

 55 57  0  0  0  0  0  0  0  0999 V2000
   59.3000   34.9190   45.7440 C   0  0  0  0  0  0  0  0  0  0  0  0
   58.3880   34.2500   46.7640 C   0  0  0  0  0  0  0  0  0  0  0  0
   57.4670   33.3290   46.0850 N   0  0  0  0  0  0  0  0  0  0  0  0
   57.8650   33.1060   44.6850 C   0  0  0  0  0  0  0  0  0  0  0  0
   57.8100   31.6190   44.3350 C   0  0  0  0  0  0  0  0  0  0  0  0
   57.3840   30.8850   45.4650 O   0  0  0  0  0  0  0  0  0  0  0  0
   58.2310   29.7720   45.6860 C   0  0  0  0  0  0  0  0  0  0  0  0
   59.2940   30.1230   46.7350 C   0  0  0  0  0  0  0  0  0  0  0  0
   59.1610   31.5020   47.2490 N   0  0  0  0  0  0  0  0  0  0  0  0
   60.1090   31.7960   48.3190 C   0  0  0  0  0  0  0  0  0  0  0  0
   61.3490   32.4460   48.0530 C   0  0  0  0  0  0  0  0  0  0  0  0
   61.7010   32.9100   46.7580 C   0  0  0  0  0  0  0  0  0  0  0  0
   62.8930   33.5930   46.5320 C   0  0  0  0  0  0  0  0  0  0  0  0
   63.7600   33.8440   47.5810 C   0  0  0  0  0  0  0  0  0  0  0  0
   63.4600   33.3870   48.8590 C   0  0  0  0  0  0  0  0  0  0  0  0
   62.2760   32.6470   49.1170 C   0  0  0  0  0  0  0  0  0  0  0  0
   62.0160   32.1410   50.3740 N   0  0  0  0  0  0  0  0  0  0  0  0
   63.1040   32.0540   51.3750 C   0  0  0  0  0  0  0  0  0  0  0  0
   60.7530   31.6910   50.6910 C   0  0  0  0  0  0  0  0  0  0  0  0
   60.3760   31.4510   52.0360 C   0  0  0  0  0  0  0  0  0  0  0  0
   59.1270   30.9320   52.3600 C   0  0  0  0  0  0  0  0  0  0  0  0
   58.2020   30.6440   51.3530 C   0  0  0  0  0  0  0  0  0  0  0  0
   56.9370   30.1040   51.6270 O   0  0  0  0  0  0  0  0  0  0  0  0
   55.9150   30.7760   52.3550 C   0  0  0  0  0  0  0  0  0  0  0  0
   58.5360   30.9120   50.0250 C   0  0  0  0  0  0  0  0  0  0  0  0
   59.7920   31.4650   49.6670 C   0  0  0  0  0  0  0  0  0  0  0  0
   60.0796   35.4909   46.2686 H   0  0  0  0  0  0  0  0  0  0  0  0
   59.7708   34.1505   45.1134 H   0  0  0  0  0  0  0  0  0  0  0  0
   58.7083   35.5988   45.1134 H   0  0  0  0  0  0  0  0  0  0  0  0
   58.9989   33.6882   47.4859 H   0  0  0  0  0  0  0  0  0  0  0  0
   57.8059   35.0215   47.2893 H   0  0  0  0  0  0  0  0  0  0  0  0
   57.5210   32.4070   46.5800 H   0  0  0  0  0  0  0  0  0  0  0  0
   57.1809   33.6577   44.0234 H   0  0  0  0  0  0  0  0  0  0  0  0
   58.8973   33.4617   44.5511 H   0  0  0  0  0  0  0  0  0  0  0  0
   57.1018   31.4628   43.5079 H   0  0  0  0  0  0  0  0  0  0  0  0
   58.8100   31.2765   44.0307 H   0  0  0  0  0  0  0  0  0  0  0  0
   57.6309   28.9230   46.0452 H   0  0  0  0  0  0  0  0  0  0  0  0
   58.7289   29.5037   44.7426 H   0  0  0  0  0  0  0  0  0  0  0  0
   59.1993   29.4233   47.5785 H   0  0  0  0  0  0  0  0  0  0  0  0
   60.2771   30.0457   46.2476 H   0  0  0  0  0  0  0  0  0  0  0  0
   59.3140   32.1740   46.4640 H   0  0  0  0  0  0  0  0  0  0  0  0
   58.1730   31.7020   47.5100 H   0  0  0  0  0  0  0  0  0  0  0  0
   61.0177   32.7260   45.9158 H   0  0  0  0  0  0  0  0  0  0  0  0
   63.1462   33.9339   45.5173 H   0  0  0  0  0  0  0  0  0  0  0  0
   64.6885   34.4063   47.4031 H   0  0  0  0  0  0  0  0  0  0  0  0
   64.1527   33.6026   49.6858 H   0  0  0  0  0  0  0  0  0  0  0  0
   62.6746   32.0883   52.3872 H   0  0  0  0  0  0  0  0  0  0  0  0
   63.6512   31.1092   51.2407 H   0  0  0  0  0  0  0  0  0  0  0  0
   63.7943   32.8998   51.2407 H   0  0  0  0  0  0  0  0  0  0  0  0
   61.0879   31.6806   52.8425 H   0  0  0  0  0  0  0  0  0  0  0  0
   58.8664   30.7476   53.4127 H   0  0  0  0  0  0  0  0  0  0  0  0
   56.0949   30.6577   53.4337 H   0  0  0  0  0  0  0  0  0  0  0  0
   55.9236   31.8453   52.0969 H   0  0  0  0  0  0  0  0  0  0  0  0
   54.9367   30.3444   52.0969 H   0  0  0  0  0  0  0  0  0  0  0  0
   57.8051   30.6882   49.2340 H   0  0  0  0  0  0  0  0  0  0  0  0
  1  2  1  0
  2  3  1  0
  3  4  1  0
  4  5  1  0
  5  6  1  0
  6  7  1  0
  7  8  1  0
  8  9  1  0
  9 10  1  0
 10 11  2  0
 11 12  1  0
 12 13  2  0
 13 14  1  0
 14 15  2  0
 15 16  1  0
 16 17  2  0
 17 18  1  0
 17 19  1  0
 19 20  2  0
 20 21  1  0
 21 22  2  0
 22 23  1  0
 23 24  1  0
 22 25  1  0
 25 26  2  0
 26 10  1  0
 16 11  1  0
 26 19  1  0
  1 27  1  0
  1 28  1  0
  1 29  1  0
  2 30  1  0
  2 31  1  0
  3 32  1  0
  4 33  1  0
  4 34  1  0
  5 35  1  0
  5 36  1  0
  7 37  1  0
  7 38  1  0
  8 39  1  0
  8 40  1  0
  9 41  1  0
  9 42  1  0
 12 43  1  0
 13 44  1  0
 14 45  1  0
 15 46  1  0
 18 47  1  0
 18 48  1  0
 18 49  1  0
 20 50  1  0
 21 51  1  0
 24 52  1  0
 24 53  1  0
 24 54  1  0
 25 55  1  0
M  CHG  2   9   1  17   1
M  END
>  <UniqueID>  (27) 
26

>  <SMILES>  (27) 
CCNCCOCC[NH2+]c1c2ccccc2[n+](C)c2ccc(OC)cc12

>  <Energy>  (27) 
81.01764298027834

>  <Genealogy>  (27) 
CCNCCOCC[NH2+]c1c2ccccc2[n+](C)c2ccc(OC)cc12 (protonated)
CCNCCOCC[NH2+]c1c2ccccc2[n+](C)c2ccc(OC)cc12 (3D coordinates assigned)
CCNCCOCC[NH2+]c1c2ccccc2[n+](C)c2ccc(OC)cc12 (optimized conformer: 81.01764298027834 kcal/mol)

>  <smiles>  (27) 
CCNCCOCCNc1c2ccccc2[n+](C)c2ccc(OC)cc12

>  <score_type>  (27) 
oracle

>  <origin>  (27) 
adg

>  <m_score__min__energy>  (27) 
-4.5599999999999996

>  <m_primary>  (27) 
energy

$$$$
27:0
     RDKit          3D

 43 44  0  0  0  0  0  0  0  0999 V2000
   62.5370   34.2120   50.1660 C   0  0  0  0  0  0  0  0  0  0  0  0
   62.0060   33.4230   48.9640 C   0  0  0  0  0  0  0  0  0  0  0  0
   61.8120   34.2370   47.7460 N   0  0  0  0  0  0  0  0  0  0  0  0
   62.6000   33.7620   46.5920 C   0  0  0  0  0  0  0  0  0  0  0  0
   63.7790   32.9120   47.0590 C   0  0  0  0  0  0  0  0  0  0  0  0
   60.1200   34.5350   47.3710 S   0  0  0  0  0  0  0  0  0  0  0  0
   59.3830   34.9070   48.6280 O   0  0  0  0  0  0  0  0  0  0  0  0
   60.0310   35.7070   46.4340 O   0  0  0  0  0  0  0  0  0  0  0  0
   59.2950   33.1630   46.6150 C   0  0  0  0  0  0  0  0  0  0  0  0
   58.0560   33.3500   45.9670 C   0  0  0  0  0  0  0  0  0  0  0  0
   57.3850   32.2670   45.3780 C   0  0  0  0  0  0  0  0  0  0  0  0
   57.9570   30.9920   45.4760 C   0  0  0  0  0  0  0  0  0  0  0  0
   59.1500   30.8050   46.1180 C   0  0  0  0  0  0  0  0  0  0  0  0
   59.8380   31.8660   46.7060 C   0  0  0  0  0  0  0  0  0  0  0  0
   59.5700   29.3800   46.0480 C   0  0  0  0  0  0  0  0  0  0  0  0
   58.3990   28.6950   45.2880 C   0  0  1  0  0  0  0  0  0  0  0  0
   57.7090   27.6480   46.1700 C   0  0  0  0  0  0  0  0  0  0  0  0
   57.4620   29.7730   44.9380 N   0  0  0  0  0  0  0  0  0  0  0  0
   56.3050   29.6240   44.0950 C   0  0  0  0  0  0  0  0  0  0  0  0
   56.4070   29.7870   42.6110 C   0  0  0  0  0  0  0  0  0  0  0  0
   55.1930   29.3080   44.5970 O   0  0  0  0  0  0  0  0  0  0  0  0
   62.2099   33.7260   51.0970 H   0  0  0  0  0  0  0  0  0  0  0  0
   63.6362   34.2367   50.1318 H   0  0  0  0  0  0  0  0  0  0  0  0
   62.1460   35.2396   50.1318 H   0  0  0  0  0  0  0  0  0  0  0  0
   62.7229   32.6212   48.7331 H   0  0  0  0  0  0  0  0  0  0  0  0
   61.0158   33.0383   49.2495 H   0  0  0  0  0  0  0  0  0  0  0  0
   61.9547   33.1569   45.9382 H   0  0  0  0  0  0  0  0  0  0  0  0
   62.9867   34.6338   46.0440 H   0  0  0  0  0  0  0  0  0  0  0  0
   63.8048   32.8934   48.1585 H   0  0  0  0  0  0  0  0  0  0  0  0
   63.6656   31.8865   46.6775 H   0  0  0  0  0  0  0  0  0  0  0  0
   64.7161   33.3436   46.6775 H   0  0  0  0  0  0  0  0  0  0  0  0
   57.6111   34.3550   45.9228 H   0  0  0  0  0  0  0  0  0  0  0  0
   56.4310   32.4161   44.8511 H   0  0  0  0  0  0  0  0  0  0  0  0
   60.7885   31.6933   47.2320 H   0  0  0  0  0  0  0  0  0  0  0  0
   60.5140   29.2749   45.4932 H   0  0  0  0  0  0  0  0  0  0  0  0
   59.7555   28.9382   47.0382 H   0  0  0  0  0  0  0  0  0  0  0  0
   58.7604   28.1645   44.3947 H   0  0  0  0  0  0  0  0  0  0  0  0
   57.8723   27.8958   47.2292 H   0  0  0  0  0  0  0  0  0  0  0  0
   56.6299   27.6427   45.9568 H   0  0  0  0  0  0  0  0  0  0  0  0
   58.1297   26.6543   45.9568 H   0  0  0  0  0  0  0  0  0  0  0  0
   56.9776   30.6988   42.3806 H   0  0  0  0  0  0  0  0  0  0  0  0
   56.9206   28.9146   42.1807 H   0  0  0  0  0  0  0  0  0  0  0  0
   55.3978   29.8675   42.1807 H   0  0  0  0  0  0  0  0  0  0  0  0
  1  2  1  0
  2  3  1  0
  3  4  1  0
  4  5  1  0
  3  6  1  0
  6  7  2  0
  6  8  2  0
  6  9  1  0
  9 10  2  0
 10 11  1  0
 11 12  2  0
 12 13  1  0
 13 14  2  0
 13 15  1  0
 15 16  1  0
 16 17  1  0
 16 18  1  0
 18 19  1  0
 19 20  1  0
 19 21  2  0
 14  9  1  0
 18 12  1  0
  1 22  1  0
  1 23  1  0
  1 24  1  0
  2 25  1  0
  2 26  1  0
  4 27  1  0
  4 28  1  0
  5 29  1  0
  5 30  1  0
  5 31  1  0
 10 32  1  0
 11 33  1  0
 14 34  1  0
 15 35  1  0
 15 36  1  0
 16 37  1  6
 17 38  1  0
 17 39  1  0
 17 40  1  0
 20 41  1  0
 20 42  1  0
 20 43  1  0
M  END
>  <UniqueID>  (28) 
27

>  <SMILES>  (28) 
CCN(CC)S(=O)(=O)c1ccc2c(c1)C[C@@H](C)N2C(C)=O

>  <Energy>  (28) 
57.17517295812583

>  <Genealogy>  (28) 
CCN(CC)S(=O)(=O)c1ccc2c(c1)C[C@@H](C)N2C(C)=O (chirality)
CCN(CC)S(=O)(=O)c1ccc2c(c1)C[C@@H](C)N2C(C)=O (3D coordinates assigned)
CCN(CC)S(=O)(=O)c1ccc2c(c1)C[C@@H](C)N2C(C)=O (nonaromatic ring conformer: 57.17517295812583 kcal/mol)

>  <smiles>  (28) 
CCN(CC)S(=O)(=O)c1ccc2c(c1)CC(C)N2C(C)=O

>  <score_type>  (28) 
oracle

>  <origin>  (28) 
adg

>  <m_score__min__energy>  (28) 
-7.96

>  <m_primary>  (28) 
energy

$$$$
28:0
     RDKit          3D

 53 55  0  0  0  0  0  0  0  0999 V2000
   58.1120   27.0610   42.6250 C   0  0  0  0  0  0  0  0  0  0  0  0
   58.3350   26.8950   44.1310 C   0  0  0  0  0  0  0  0  0  0  0  0
   57.2710   27.5180   44.9320 N   0  0  0  0  0  0  0  0  0  0  0  0
   56.6880   26.5840   45.9060 C   0  0  0  0  0  0  0  0  0  0  0  0
   57.7370   26.1760   46.9380 C   0  0  0  0  0  0  0  0  0  0  0  0
   58.4390   27.3200   47.3730 O   0  0  0  0  0  0  0  0  0  0  0  0
   59.8240   27.1300   47.1720 C   0  0  0  0  0  0  0  0  0  0  0  0
   60.5410   28.4820   47.2340 C   0  0  0  0  0  0  0  0  0  0  0  0
   59.7450   29.5340   47.9060 N   0  0  0  0  0  0  0  0  0  0  0  0
   59.8820   30.8330   47.2580 C   0  0  0  0  0  0  0  0  0  0  0  0
   60.9250   31.7180   47.6550 C   0  0  0  0  0  0  0  0  0  0  0  0
   61.9010   31.3400   48.6120 C   0  0  0  0  0  0  0  0  0  0  0  0
   62.9460   32.1940   48.9550 C   0  0  0  0  0  0  0  0  0  0  0  0
   63.0570   33.4360   48.3510 C   0  0  0  0  0  0  0  0  0  0  0  0
   62.1060   33.8450   47.4210 C   0  0  0  0  0  0  0  0  0  0  0  0
   61.0040   33.0180   47.0810 C   0  0  0  0  0  0  0  0  0  0  0  0
   60.0310   33.4500   46.2060 N   0  0  0  0  0  0  0  0  0  0  0  0
   59.9230   34.8910   45.8780 C   0  0  0  0  0  0  0  0  0  0  0  0
   59.1400   32.5490   45.6600 C   0  0  0  0  0  0  0  0  0  0  0  0
   58.3460   32.9020   44.5410 C   0  0  0  0  0  0  0  0  0  0  0  0
   57.3930   32.0330   44.0250 C   0  0  0  0  0  0  0  0  0  0  0  0
   57.2000   30.7750   44.5940 C   0  0  0  0  0  0  0  0  0  0  0  0
   56.1920   29.8930   44.0650 N   0  0  0  0  0  0  0  0  0  0  0  0
   56.2340   29.5120   42.8780 O   0  0  0  0  0  0  0  0  0  0  0  0
   55.1760   29.4270   44.8700 O   0  0  0  0  0  0  0  0  0  0  0  0
   58.0130   30.3820   45.6690 C   0  0  0  0  0  0  0  0  0  0  0  0
   59.0110   31.2400   46.2040 C   0  0  0  0  0  0  0  0  0  0  0  0
   57.2405   27.7097   42.4527 H   0  0  0  0  0  0  0  0  0  0  0  0
   59.0039   27.5167   42.1703 H   0  0  0  0  0  0  0  0  0  0  0  0
   57.9313   26.0758   42.1703 H   0  0  0  0  0  0  0  0  0  0  0  0
   58.3697   25.8209   44.3658 H   0  0  0  0  0  0  0  0  0  0  0  0
   59.2805   27.3965   44.3852 H   0  0  0  0  0  0  0  0  0  0  0  0
   56.5170   27.8660   44.2930 H   0  0  0  0  0  0  0  0  0  0  0  0
   55.8452   27.0717   46.4177 H   0  0  0  0  0  0  0  0  0  0  0  0
   56.3368   25.6860   45.3766 H   0  0  0  0  0  0  0  0  0  0  0  0
   57.2407   25.7016   47.7974 H   0  0  0  0  0  0  0  0  0  0  0  0
   58.4417   25.4646   46.4828 H   0  0  0  0  0  0  0  0  0  0  0  0
   60.2207   26.4687   47.9564 H   0  0  0  0  0  0  0  0  0  0  0  0
   59.9912   26.6721   46.1859 H   0  0  0  0  0  0  0  0  0  0  0  0
   61.4846   28.3524   47.7843 H   0  0  0  0  0  0  0  0  0  0  0  0
   60.7088   28.8108   46.1978 H   0  0  0  0  0  0  0  0  0  0  0  0
   60.0620   29.6170   48.8980 H   0  0  0  0  0  0  0  0  0  0  0  0
   58.7540   29.2390   48.0290 H   0  0  0  0  0  0  0  0  0  0  0  0
   61.8312   30.3530   49.0926 H   0  0  0  0  0  0  0  0  0  0  0  0
   63.6852   31.8818   49.7074 H   0  0  0  0  0  0  0  0  0  0  0  0
   63.8969   34.0988   48.6066 H   0  0  0  0  0  0  0  0  0  0  0  0
   62.2105   34.8287   46.9399 H   0  0  0  0  0  0  0  0  0  0  0  0
   59.8791   35.4765   46.8082 H   0  0  0  0  0  0  0  0  0  0  0  0
   60.8005   35.2002   45.2912 H   0  0  0  0  0  0  0  0  0  0  0  0
   59.0092   35.0660   45.2912 H   0  0  0  0  0  0  0  0  0  0  0  0
   58.4873   33.8861   44.0703 H   0  0  0  0  0  0  0  0  0  0  0  0
   56.7858   32.3399   43.1606 H   0  0  0  0  0  0  0  0  0  0  0  0
   57.8736   29.3834   46.1087 H   0  0  0  0  0  0  0  0  0  0  0  0
  1  2  1  0
  2  3  1  0
  3  4  1  0
  4  5  1  0
  5  6  1  0
  6  7  1  0
  7  8  1  0
  8  9  1  0
  9 10  1  0
 10 11  2  0
 11 12  1  0
 12 13  2  0
 13 14  1  0
 14 15  2  0
 15 16  1  0
 16 17  2  0
 17 18  1  0
 17 19  1  0
 19 20  2  0
 20 21  1  0
 21 22  2  0
 22 23  1  0
 23 24  2  0
 23 25  1  0
 22 26  1  0
 26 27  2  0
 27 10  1  0
 16 11  1  0
 27 19  1  0
  1 28  1  0
  1 29  1  0
  1 30  1  0
  2 31  1  0
  2 32  1  0
  3 33  1  0
  4 34  1  0
  4 35  1  0
  5 36  1  0
  5 37  1  0
  7 38  1  0
  7 39  1  0
  8 40  1  0
  8 41  1  0
  9 42  1  0
  9 43  1  0
 12 44  1  0
 13 45  1  0
 14 46  1  0
 15 47  1  0
 18 48  1  0
 18 49  1  0
 18 50  1  0
 20 51  1  0
 21 52  1  0
 26 53  1  0
M  CHG  4   9   1  17   1  23   1  25  -1
M  END
>  <UniqueID>  (29) 
28

>  <SMILES>  (29) 
CCNCCOCC[NH2+]c1c2ccccc2[n+](C)c2ccc([N+](=O)[O-])cc12

>  <Energy>  (29) 
79.8981144435443

>  <Genealogy>  (29) 
CCNCCOCC[NH2+]c1c2ccccc2[n+](C)c2ccc([N+](=O)[O-])cc12 (protonated)
CCNCCOCC[NH2+]c1c2ccccc2[n+](C)c2ccc([N+](=O)[O-])cc12 (3D coordinates assigned)
CCNCCOCC[NH2+]c1c2ccccc2[n+](C)c2ccc([N+](=O)[O-])cc12 (optimized conformer: 79.8981144435443 kcal/mol)

>  <smiles>  (29) 
CCNCCOCCNc1c2ccccc2[n+](C)c2ccc([N+](=O)[O-])cc12

>  <score_type>  (29) 
oracle

>  <origin>  (29) 
adg

>  <m_score__min__energy>  (29) 
-5.0800000000000001

>  <m_primary>  (29) 
energy

$$$$
29:0
     RDKit          3D

 58 61  0  0  0  0  0  0  0  0999 V2000
   59.4680   32.5200   51.9920 C   0  0  0  0  0  0  0  0  0  0  0  0
   57.9350   32.6230   51.9990 C   0  0  0  0  0  0  0  0  0  0  0  0
   57.2210   31.5140   51.3090 N   0  0  2  0  0  0  0  0  0  0  0  0
   56.0020   31.0710   52.0120 C   0  0  0  0  0  0  0  0  0  0  0  0
   58.1020   30.3890   50.9040 C   0  0  0  0  0  0  0  0  0  0  0  0
   58.6140   30.5280   49.5380 N   0  0  0  0  0  0  0  0  0  0  0  0
   58.6310   31.7310   48.7870 C   0  0  0  0  0  0  0  0  0  0  0  0
   57.8700   32.7100   49.0140 O   0  0  0  0  0  0  0  0  0  0  0  0
   59.6450   31.6510   47.6860 C   0  0  1  0  0  0  0  0  0  0  0  0
   60.2040   30.3130   47.8950 N   0  0  0  0  0  0  0  0  0  0  0  0
   59.6470   29.7540   48.9210 C   0  0  0  0  0  0  0  0  0  0  0  0
   60.0470   28.4580   49.3720 N   0  0  0  0  0  0  0  0  0  0  0  0
   58.9690   31.7770   46.3660 C   0  0  0  0  0  0  0  0  0  0  0  0
   58.0540   30.8940   45.7860 C   0  0  0  0  0  0  0  0  0  0  0  0
   57.4610   31.2440   44.5640 C   0  0  0  0  0  0  0  0  0  0  0  0
   56.2000   30.0720   43.7450 Br  0  0  0  0  0  0  0  0  0  0  0  0
   57.7830   32.4670   43.9450 C   0  0  0  0  0  0  0  0  0  0  0  0
   58.6820   33.3500   44.5580 C   0  0  0  0  0  0  0  0  0  0  0  0
   59.2630   32.9830   45.7740 C   0  0  0  0  0  0  0  0  0  0  0  0
   60.1900   33.8010   46.5970 C   0  0  0  0  0  0  0  0  0  0  0  0
   60.7430   32.7950   47.6600 C   0  0  1  0  0  0  0  0  0  0  0  0
   60.9370   33.4770   49.0480 C   0  0  0  0  0  0  0  0  0  0  0  0
   62.0980   34.4850   49.0620 C   0  0  0  0  0  0  0  0  0  0  0  0
   63.4220   33.8360   48.6390 C   0  0  1  0  0  0  0  0  0  0  0  0
   63.7710   32.8370   49.5880 O   0  0  0  0  0  0  0  0  0  0  0  0
   65.1710   32.7470   49.7370 C   0  0  0  0  0  0  0  0  0  0  0  0
   63.2650   33.2370   47.2290 C   0  0  0  0  0  0  0  0  0  0  0  0
   62.1150   32.2190   47.1740 C   0  0  0  0  0  0  0  0  0  0  0  0
   59.8385   32.4951   53.0274 H   0  0  0  0  0  0  0  0  0  0  0  0
   59.7713   31.5995   51.4718 H   0  0  0  0  0  0  0  0  0  0  0  0
   59.8917   33.3917   51.4718 H   0  0  0  0  0  0  0  0  0  0  0  0
   57.6003   32.6431   53.0466 H   0  0  0  0  0  0  0  0  0  0  0  0
   57.6885   33.5381   51.4406 H   0  0  0  0  0  0  0  0  0  0  0  0
   56.8890   31.9260   50.4050 H   0  0  0  0  0  0  0  0  0  0  0  0
   56.1635   31.1297   53.0985 H   0  0  0  0  0  0  0  0  0  0  0  0
   55.1600   31.7206   51.7308 H   0  0  0  0  0  0  0  0  0  0  0  0
   55.7736   30.0324   51.7308 H   0  0  0  0  0  0  0  0  0  0  0  0
   58.9559   30.3454   51.5960 H   0  0  0  0  0  0  0  0  0  0  0  0
   57.4994   29.4694   50.9384 H   0  0  0  0  0  0  0  0  0  0  0  0
   59.5820   27.9990   50.1840 H   0  0  0  0  0  0  0  0  0  0  0  0
   60.8050   27.9390   48.8760 H   0  0  0  0  0  0  0  0  0  0  0  0
   57.8037   29.9428   46.2784 H   0  0  0  0  0  0  0  0  0  0  0  0
   57.3281   32.7298   42.9786 H   0  0  0  0  0  0  0  0  0  0  0  0
   58.9258   34.3151   44.0898 H   0  0  0  0  0  0  0  0  0  0  0  0
   61.0061   34.2058   45.9805 H   0  0  0  0  0  0  0  0  0  0  0  0
   59.6943   34.6697   47.0548 H   0  0  0  0  0  0  0  0  0  0  0  0
   60.0095   34.0062   49.3118 H   0  0  0  0  0  0  0  0  0  0  0  0
   61.1775   32.6862   49.7738 H   0  0  0  0  0  0  0  0  0  0  0  0
   61.8656   35.3052   48.3669 H   0  0  0  0  0  0  0  0  0  0  0  0
   62.2138   34.8584   50.0902 H   0  0  0  0  0  0  0  0  0  0  0  0
   64.2274   34.5845   48.6079 H   0  0  0  0  0  0  0  0  0  0  0  0
   65.4256   32.7306   50.8070 H   0  0  0  0  0  0  0  0  0  0  0  0
   65.5319   31.8238   49.2601 H   0  0  0  0  0  0  0  0  0  0  0  0
   65.6471   33.6164   49.2601 H   0  0  0  0  0  0  0  0  0  0  0  0
   63.0577   34.0492   46.5167 H   0  0  0  0  0  0  0  0  0  0  0  0
   64.1988   32.7169   46.9692 H   0  0  0  0  0  0  0  0  0  0  0  0
   62.0007   31.8797   46.1339 H   0  0  0  0  0  0  0  0  0  0  0  0
   62.3792   31.3974   47.8560 H   0  0  0  0  0  0  0  0  0  0  0  0
  1  2  1  0
  2  3  1  0
  3  4  1  0
  3  5  1  0
  5  6  1  0
  6  7  1  0
  7  8  2  0
  7  9  1  0
  9 10  1  6
 10 11  2  0
 11 12  1  0
  9 13  1  0
 13 14  2  0
 14 15  1  0
 15 16  1  0
 15 17  2  0
 17 18  1  0
 18 19  2  0
 19 20  1  0
 21 20  1  6
 21 22  1  0
 22 23  1  0
 23 24  1  0
 24 25  1  0
 25 26  1  0
 24 27  1  0
 27 28  1  0
 11  6  1  0
 19 13  1  0
 28 21  1  0
  9 21  1  0
  1 29  1  0
  1 30  1  0
  1 31  1  0
  2 32  1  0
  2 33  1  0
  3 34  1  6
  4 35  1  0
  4 36  1  0
  4 37  1  0
  5 38  1  0
  5 39  1  0
 12 40  1  0
 12 41  1  0
 14 42  1  0
 17 43  1  0
 18 44  1  0
 20 45  1  0
 20 46  1  0
 22 47  1  0
 22 48  1  0
 23 49  1  0
 23 50  1  0
 24 51  1  6
 26 52  1  0
 26 53  1  0
 26 54  1  0
 27 55  1  0
 27 56  1  0
 28 57  1  0
 28 58  1  0
M  CHG  1   3   1
M  END
>  <UniqueID>  (30) 
29

>  <SMILES>  (30) 
CC[N@H+](C)CN1C(=O)[C@@]2(N=C1N)c1cc(Br)ccc1CC21CCC(OC)CC1

>  <Energy>  (30) 
100.40311425500967

>  <Genealogy>  (30) 
CC[NH+](C)CN1C(=O)C2(N=C1N)c1cc(Br)ccc1CC21CCC(OC)CC1 (protonated)
CC[N@H+](C)CN1C(=O)[C@@]2(N=C1N)c1cc(Br)ccc1CC21CCC(OC)CC1 (chirality)
CC[N@H+](C)CN1C(=O)[C@@]2(N=C1N)c1cc(Br)ccc1CC21CCC(OC)CC1 (3D coordinates assigned)
CC[N@H+](C)CN1C(=O)[C@@]2(N=C1N)c1cc(Br)ccc1CC21CCC(OC)CC1 (nonaromatic ring conformer: 100.40311425500967 kcal/mol)

>  <smiles>  (30) 
CCN(C)CN1C(=O)C2(N=C1N)c1cc(Br)ccc1CC21CCC(OC)CC1

>  <score_type>  (30) 
oracle

>  <origin>  (30) 
adg

>  <m_score__min__energy>  (30) 
-7.3799999999999999

>  <m_primary>  (30) 
energy

$$$$
30:0
     RDKit          3D

 54 56  0  0  0  0  0  0  0  0999 V2000
   62.9370   33.5000   46.8830 C   0  0  0  0  0  0  0  0  0  0  0  0
   62.3490   32.4670   47.8450 C   0  0  0  0  0  0  0  0  0  0  0  0
   61.6190   33.1250   49.0360 C   0  0  0  0  0  0  0  0  0  0  0  0
   60.5140   32.2810   49.5700 N   0  0  2  0  0  0  0  0  0  0  0  0
   60.1070   32.7590   50.9210 C   0  0  0  0  0  0  0  0  0  0  0  0
   58.5810   32.7350   51.1230 C   0  0  0  0  0  0  0  0  0  0  0  0
   57.9280   32.3390   49.9460 O   0  0  0  0  0  0  0  0  0  0  0  0
   60.9350   30.8550   49.6310 C   0  0  0  0  0  0  0  0  0  0  0  0
   60.2810   30.0110   48.5200 C   0  0  0  0  0  0  0  0  0  0  0  0
   59.0140   30.6060   48.1000 N   0  0  0  0  0  0  0  0  0  0  0  0
   58.6740   30.7530   46.7110 C   0  0  0  0  0  0  0  0  0  0  0  0
   58.6200   32.0280   46.1220 C   0  0  0  0  0  0  0  0  0  0  0  0
   59.0270   33.1720   46.8380 C   0  0  0  0  0  0  0  0  0  0  0  0
   59.0100   34.4300   46.2400 C   0  0  0  0  0  0  0  0  0  0  0  0
   58.6090   34.5660   44.9160 C   0  0  0  0  0  0  0  0  0  0  0  0
   58.2090   33.4470   44.1850 C   0  0  0  0  0  0  0  0  0  0  0  0
   58.1810   32.1580   44.7770 C   0  0  0  0  0  0  0  0  0  0  0  0
   57.7630   31.0430   44.0730 N   0  0  0  0  0  0  0  0  0  0  0  0
   57.0400   31.2040   42.7920 C   0  0  0  0  0  0  0  0  0  0  0  0
   58.0060   29.7780   44.5760 C   0  0  0  0  0  0  0  0  0  0  0  0
   57.8470   28.6140   43.7810 C   0  0  0  0  0  0  0  0  0  0  0  0
   58.0420   27.3420   44.3190 C   0  0  0  0  0  0  0  0  0  0  0  0
   58.4140   27.1930   45.6510 C   0  0  0  0  0  0  0  0  0  0  0  0
   58.6540   25.5900   46.3210 Cl  0  0  0  0  0  0  0  0  0  0  0  0
   58.6190   28.3200   46.4460 C   0  0  0  0  0  0  0  0  0  0  0  0
   58.4370   29.6170   45.9190 C   0  0  0  0  0  0  0  0  0  0  0  0
   63.4008   34.3147   47.4585 H   0  0  0  0  0  0  0  0  0  0  0  0
   63.6972   33.0199   46.2493 H   0  0  0  0  0  0  0  0  0  0  0  0
   62.1361   33.9085   46.2493 H   0  0  0  0  0  0  0  0  0  0  0  0
   61.6333   31.8383   47.2949 H   0  0  0  0  0  0  0  0  0  0  0  0
   63.1806   31.8703   48.2478 H   0  0  0  0  0  0  0  0  0  0  0  0
   62.3474   33.3018   49.8411 H   0  0  0  0  0  0  0  0  0  0  0  0
   61.1751   34.0647   48.6756 H   0  0  0  0  0  0  0  0  0  0  0  0
   59.6890   32.3550   48.9290 H   0  0  0  0  0  0  0  0  0  0  0  0
   60.5728   32.1118   51.6787 H   0  0  0  0  0  0  0  0  0  0  0  0
   60.4395   33.8030   51.0190 H   0  0  0  0  0  0  0  0  0  0  0  0
   58.3350   32.0264   51.9276 H   0  0  0  0  0  0  0  0  0  0  0  0
   58.2449   33.7482   51.3885 H   0  0  0  0  0  0  0  0  0  0  0  0
   56.9840   32.6320   50.0320 H   0  0  0  0  0  0  0  0  0  0  0  0
   62.0281   30.8025   49.5197 H   0  0  0  0  0  0  0  0  0  0  0  0
   60.6133   30.4474   50.6007 H   0  0  0  0  0  0  0  0  0  0  0  0
   60.9607   29.9610   47.6565 H   0  0  0  0  0  0  0  0  0  0  0  0
   60.0863   29.0011   48.9101 H   0  0  0  0  0  0  0  0  0  0  0  0
   58.3600   30.9830   48.8230 H   0  0  0  0  0  0  0  0  0  0  0  0
   59.3618   33.0702   47.8808 H   0  0  0  0  0  0  0  0  0  0  0  0
   59.3141   35.3164   46.8159 H   0  0  0  0  0  0  0  0  0  0  0  0
   58.6070   35.5591   44.4431 H   0  0  0  0  0  0  0  0  0  0  0  0
   57.9106   33.5661   43.1330 H   0  0  0  0  0  0  0  0  0  0  0  0
   55.9845   31.4390   42.9937 H   0  0  0  0  0  0  0  0  0  0  0  0
   57.4942   32.0230   42.2150 H   0  0  0  0  0  0  0  0  0  0  0  0
   57.1038   30.2696   42.2150 H   0  0  0  0  0  0  0  0  0  0  0  0
   57.5652   28.7162   42.7226 H   0  0  0  0  0  0  0  0  0  0  0  0
   57.9010   26.4527   43.6871 H   0  0  0  0  0  0  0  0  0  0  0  0
   58.9259   28.1972   47.4952 H   0  0  0  0  0  0  0  0  0  0  0  0
  1  2  1  0
  2  3  1  0
  3  4  1  0
  4  5  1  0
  5  6  1  0
  6  7  1  0
  4  8  1  0
  8  9  1  0
  9 10  1  0
 10 11  1  0
 11 12  2  0
 12 13  1  0
 13 14  2  0
 14 15  1  0
 15 16  2  0
 16 17  1  0
 17 18  2  0
 18 19  1  0
 18 20  1  0
 20 21  2  0
 21 22  1  0
 22 23  2  0
 23 24  1  0
 23 25  1  0
 25 26  2  0
 26 11  1  0
 17 12  1  0
 26 20  1  0
  1 27  1  0
  1 28  1  0
  1 29  1  0
  2 30  1  0
  2 31  1  0
  3 32  1  0
  3 33  1  0
  4 34  1  6
  5 35  1  0
  5 36  1  0
  6 37  1  0
  6 38  1  0
  7 39  1  0
  8 40  1  0
  8 41  1  0
  9 42  1  0
  9 43  1  0
 10 44  1  0
 13 45  1  0
 14 46  1  0
 15 47  1  0
 16 48  1  0
 19 49  1  0
 19 50  1  0
 19 51  1  0
 21 52  1  0
 22 53  1  0
 25 54  1  0
M  CHG  2   4   1  18   1
M  END
>  <UniqueID>  (31) 
30

>  <SMILES>  (31) 
CCC[N@H+](CCO)CCNc1c2ccccc2[n+](C)c2ccc(Cl)cc12

>  <Energy>  (31) 
80.52202984751065

>  <Genealogy>  (31) 
CCC[NH+](CCO)CCNc1c2ccccc2[n+](C)c2ccc(Cl)cc12 (protonated)
CCC[N@H+](CCO)CCNc1c2ccccc2[n+](C)c2ccc(Cl)cc12 (chirality)
CCC[N@H+](CCO)CCNc1c2ccccc2[n+](C)c2ccc(Cl)cc12 (3D coordinates assigned)
CCC[N@H+](CCO)CCNc1c2ccccc2[n+](C)c2ccc(Cl)cc12 (optimized conformer: 80.52202984751065 kcal/mol)

>  <smiles>  (31) 
CCCN(CCO)CCNc1c2ccccc2[n+](C)c2ccc(Cl)cc12

>  <score_type>  (31) 
oracle

>  <origin>  (31) 
adg

>  <m_score__min__energy>  (31) 
-5.1200000000000001

>  <m_primary>  (31) 
energy

$$$$
31:0
     RDKit          3D

 72 74  0  0  0  0  0  0  0  0999 V2000
   63.0970   34.5100   50.5130 C   0  0  0  0  0  0  0  0  0  0  0  0
   62.5200   33.1430   50.9330 C   0  0  0  0  0  0  0  0  0  0  0  0
   63.1920   31.9630   50.3150 N   0  0  2  0  0  0  0  0  0  0  0  0
   63.8600   31.1180   51.3240 C   0  0  0  0  0  0  0  0  0  0  0  0
   64.1390   32.3300   49.2310 C   0  0  0  0  0  0  0  0  0  0  0  0
   63.4510   32.5330   47.8610 C   0  0  0  0  0  0  0  0  0  0  0  0
   62.6610   31.2950   47.3850 C   0  0  0  0  0  0  0  0  0  0  0  0
   61.2500   31.3880   47.7710 N   0  0  0  0  0  0  0  0  0  0  0  0
   60.1980   31.4310   46.7960 C   0  0  0  0  0  0  0  0  0  0  0  0
   59.7440   30.2310   46.1930 C   0  0  0  0  0  0  0  0  0  0  0  0
   60.2460   28.9770   46.6050 C   0  0  0  0  0  0  0  0  0  0  0  0
   59.7780   27.7940   46.0380 C   0  0  0  0  0  0  0  0  0  0  0  0
   58.8070   27.8330   45.0470 C   0  0  0  0  0  0  0  0  0  0  0  0
   58.3100   29.0570   44.5990 C   0  0  0  0  0  0  0  0  0  0  0  0
   58.7770   30.2790   45.1420 C   0  0  0  0  0  0  0  0  0  0  0  0
   58.3270   31.4960   44.6700 N   0  0  0  0  0  0  0  0  0  0  0  0
   57.3710   31.5650   43.5460 C   0  0  0  0  0  0  0  0  0  0  0  0
   58.7880   32.6440   45.2580 C   0  0  0  0  0  0  0  0  0  0  0  0
   58.3580   34.2240   44.8650 S   0  0  0  0  0  0  0  0  0  0  0  0
   59.2770   34.9600   46.0530 C   0  0  0  0  0  0  0  0  0  0  0  0
   59.9410   33.9820   46.7950 C   0  0  0  0  0  0  0  0  0  0  0  0
   60.6060   34.3820   48.0930 C   0  0  0  0  0  0  0  0  0  0  0  0
   59.6540   34.1040   49.2710 C   0  0  0  0  0  0  0  0  0  0  0  0
   59.5040   32.6630   49.5460 N   0  0  0  0  0  0  0  0  0  0  0  0
   58.4050   32.3720   50.4790 C   0  0  0  0  0  0  0  0  0  0  0  0
   58.2770   30.8570   50.6910 C   0  0  0  0  0  0  0  0  0  0  0  0
   59.2950   30.0640   49.8580 C   0  0  0  0  0  0  0  0  0  0  0  0
   60.6690   30.1860   50.3990 N   0  0  0  0  0  0  0  0  0  0  0  0
   60.6180   30.4090   51.8540 C   0  0  0  0  0  0  0  0  0  0  0  0
   61.4620   28.9740   50.1230 C   0  0  0  0  0  0  0  0  0  0  0  0
   59.6840   32.6580   46.3250 C   0  0  0  0  0  0  0  0  0  0  0  0
   63.3440   35.0953   51.4110 H   0  0  0  0  0  0  0  0  0  0  0  0
   64.0067   34.3557   49.9142 H   0  0  0  0  0  0  0  0  0  0  0  0
   62.3518   35.0542   49.9142 H   0  0  0  0  0  0  0  0  0  0  0  0
   62.6104   33.0547   52.0257 H   0  0  0  0  0  0  0  0  0  0  0  0
   61.4782   33.1255   50.5805 H   0  0  0  0  0  0  0  0  0  0  0  0
   62.4360   31.3660   49.9040 H   0  0  0  0  0  0  0  0  0  0  0  0
   63.5863   31.4643   52.3316 H   0  0  0  0  0  0  0  0  0  0  0  0
   63.5412   30.0730   51.1962 H   0  0  0  0  0  0  0  0  0  0  0  0
   64.9504   31.1870   51.1962 H   0  0  0  0  0  0  0  0  0  0  0  0
   64.6437   33.2666   49.5105 H   0  0  0  0  0  0  0  0  0  0  0  0
   64.8466   31.4952   49.1199 H   0  0  0  0  0  0  0  0  0  0  0  0
   62.7553   33.3812   47.9420 H   0  0  0  0  0  0  0  0  0  0  0  0
   64.2447   32.7170   47.1219 H   0  0  0  0  0  0  0  0  0  0  0  0
   62.7297   31.2246   46.2894 H   0  0  0  0  0  0  0  0  0  0  0  0
   63.0941   30.4014   47.8582 H   0  0  0  0  0  0  0  0  0  0  0  0
   60.9800   31.2590   48.7730 H   0  0  0  0  0  0  0  0  0  0  0  0
   61.0191   28.9338   47.3863 H   0  0  0  0  0  0  0  0  0  0  0  0
   60.1787   26.8270   46.3762 H   0  0  0  0  0  0  0  0  0  0  0  0
   58.4281   26.8957   44.6135 H   0  0  0  0  0  0  0  0  0  0  0  0
   57.5427   29.0734   43.8110 H   0  0  0  0  0  0  0  0  0  0  0  0
   56.3466   31.6389   43.9399 H   0  0  0  0  0  0  0  0  0  0  0  0
   57.5919   32.4495   42.9305 H   0  0  0  0  0  0  0  0  0  0  0  0
   57.4626   30.6579   42.9305 H   0  0  0  0  0  0  0  0  0  0  0  0
   59.3471   36.0445   46.2228 H   0  0  0  0  0  0  0  0  0  0  0  0
   61.5303   33.8004   48.2247 H   0  0  0  0  0  0  0  0  0  0  0  0
   60.8459   35.4551   48.0639 H   0  0  0  0  0  0  0  0  0  0  0  0
   60.0527   34.5955   50.1707 H   0  0  0  0  0  0  0  0  0  0  0  0
   58.6632   34.4983   49.0011 H   0  0  0  0  0  0  0  0  0  0  0  0
   60.3990   32.2820   49.9380 H   0  0  0  0  0  0  0  0  0  0  0  0
   58.6096   32.8580   51.4444 H   0  0  0  0  0  0  0  0  0  0  0  0
   57.4646   32.7562   50.0570 H   0  0  0  0  0  0  0  0  0  0  0  0
   58.4404   30.6337   51.7556 H   0  0  0  0  0  0  0  0  0  0  0  0
   57.2697   30.5558   50.3675 H   0  0  0  0  0  0  0  0  0  0  0  0
   59.0055   29.0028   49.8594 H   0  0  0  0  0  0  0  0  0  0  0  0
   59.2935   30.4751   48.8377 H   0  0  0  0  0  0  0  0  0  0  0  0
   60.8337   29.4658   52.3773 H   0  0  0  0  0  0  0  0  0  0  0  0
   61.3666   31.1641   52.1357 H   0  0  0  0  0  0  0  0  0  0  0  0
   59.6156   30.7636   52.1357 H   0  0  0  0  0  0  0  0  0  0  0  0
   61.7655   28.5102   51.0731 H   0  0  0  0  0  0  0  0  0  0  0  0
   60.8545   28.2621   49.5450 H   0  0  0  0  0  0  0  0  0  0  0  0
   62.3576   29.2456   49.5450 H   0  0  0  0  0  0  0  0  0  0  0  0
  1  2  1  0
  2  3  1  0
  3  4  1  0
  3  5  1  0
  5  6  1  0
  6  7  1  0
  7  8  1  0
  8  9  1  0
  9 10  2  0
 10 11  1  0
 11 12  2  0
 12 13  1  0
 13 14  2  0
 14 15  1  0
 15 16  2  0
 16 17  1  0
 16 18  1  0
 18 19  1  0
 19 20  1  0
 20 21  2  0
 21 22  1  0
 22 23  1  0
 23 24  1  0
 24 25  1  0
 25 26  1  0
 26 27  1  0
 27 28  1  0
 28 29  1  0
 28 30  1  0
 21 31  1  0
 31  9  1  0
 15 10  1  0
 31 18  2  0
  1 32  1  0
  1 33  1  0
  1 34  1  0
  2 35  1  0
  2 36  1  0
  3 37  1  6
  4 38  1  0
  4 39  1  0
  4 40  1  0
  5 41  1  0
  5 42  1  0
  6 43  1  0
  6 44  1  0
  7 45  1  0
  7 46  1  0
  8 47  1  0
 11 48  1  0
 12 49  1  0
 13 50  1  0
 14 51  1  0
 17 52  1  0
 17 53  1  0
 17 54  1  0
 20 55  1  0
 22 56  1  0
 22 57  1  0
 23 58  1  0
 23 59  1  0
 24 60  1  0
 25 61  1  0
 25 62  1  0
 26 63  1  0
 26 64  1  0
 27 65  1  0
 27 66  1  0
 29 67  1  0
 29 68  1  0
 29 69  1  0
 30 70  1  0
 30 71  1  0
 30 72  1  0
M  CHG  2   3   1  16   1
M  END
>  <UniqueID>  (32) 
31

>  <SMILES>  (32) 
CC[N@H+](C)CCCNc1c2ccccc2[n+](C)c2scc(CCNCCCN(C)C)c12

>  <Energy>  (32) 
124.18813962709423

>  <Genealogy>  (32) 
CC[NH+](C)CCCNc1c2ccccc2[n+](C)c2scc(CCNCCCN(C)C)c12 (protonated)
CC[N@H+](C)CCCNc1c2ccccc2[n+](C)c2scc(CCNCCCN(C)C)c12 (chirality)
CC[N@H+](C)CCCNc1c2ccccc2[n+](C)c2scc(CCNCCCN(C)C)c12 (3D coordinates assigned)
CC[N@H+](C)CCCNc1c2ccccc2[n+](C)c2scc(CCNCCCN(C)C)c12 (optimized conformer: 124.18813962709423 kcal/mol)

>  <smiles>  (32) 
CCN(C)CCCNc1c2ccccc2[n+](C)c2scc(CCNCCCN(C)C)c12

>  <score_type>  (32) 
oracle

>  <origin>  (32) 
adg

>  <m_score__min__energy>  (32) 
-4.0999999999999996

>  <m_primary>  (32) 
energy

$$$$
