0:0
     RDKit          3D

 52 54  0  0  0  0  0  0  0  0999 V2000
   59.0890   22.4260   44.8760 C   0  0  0  0  0  0  0  0  0  0  0  0
   59.0640   23.4150   45.9000 O   0  0  0  0  0  0  0  0  0  0  0  0
   58.3320   24.6110   45.8340 C   0  0  0  0  0  0  0  0  0  0  0  0
   59.0350   25.8130   45.7200 C   0  0  0  0  0  0  0  0  0  0  0  0
   58.3560   27.0310   45.6520 C   0  0  0  0  0  0  0  0  0  0  0  0
   56.9510   27.0660   45.7040 C   0  0  0  0  0  0  0  0  0  0  0  0
   56.2240   28.2990   45.6060 N   0  0  0  0  0  0  0  0  0  0  0  0
   56.3020   29.2610   44.5460 C   0  0  0  0  0  0  0  0  0  0  0  0
   55.2580   29.6860   43.9820 O   0  0  0  0  0  0  0  0  0  0  0  0
   57.6430   29.7420   44.0800 C   0  0  0  0  0  0  0  0  0  0  0  0
   57.8900   31.1200   44.5520 N   0  0  0  0  0  0  0  0  0  0  0  0
   57.8000   32.1780   43.6830 C   0  0  0  0  0  0  0  0  0  0  0  0
   57.5420   31.9940   42.4610 O   0  0  0  0  0  0  0  0  0  0  0  0
   57.9840   33.4770   44.1390 C   0  0  0  0  0  0  0  0  0  0  0  0
   58.2530   33.6840   45.4850 C   0  0  0  0  0  0  0  0  0  0  0  0
   58.3420   32.6300   46.3430 N   0  0  0  0  0  0  0  0  0  0  0  0
   58.5850   32.8950   47.7710 C   0  0  0  0  0  0  0  0  0  0  0  0
   59.5820   34.0450   47.9340 C   0  0  0  0  0  0  0  0  0  0  0  0
   60.9820   33.5790   47.6390 C   0  0  0  0  0  0  0  0  0  0  0  0
   61.7350   34.1920   46.6240 C   0  0  0  0  0  0  0  0  0  0  0  0
   63.0500   33.7810   46.3780 C   0  0  0  0  0  0  0  0  0  0  0  0
   63.6230   32.7660   47.1460 C   0  0  0  0  0  0  0  0  0  0  0  0
   62.8830   32.1590   48.1650 C   0  0  0  0  0  0  0  0  0  0  0  0
   61.5690   32.5640   48.4140 C   0  0  0  0  0  0  0  0  0  0  0  0
   58.1460   31.3500   45.8820 C   0  0  0  0  0  0  0  0  0  0  0  0
   58.1910   30.3810   46.6910 O   0  0  0  0  0  0  0  0  0  0  0  0
   56.2310   25.8640   45.7980 C   0  0  0  0  0  0  0  0  0  0  0  0
   54.8270   25.9290   45.8240 O   0  0  0  0  0  0  0  0  0  0  0  0
   53.9600   24.8210   45.6080 C   0  0  0  0  0  0  0  0  0  0  0  0
   56.9250   24.6380   45.8720 C   0  0  0  0  0  0  0  0  0  0  0  0
   59.1143   21.4257   45.3329 H   0  0  0  0  0  0  0  0  0  0  0  0
   58.1882   22.5214   44.2520 H   0  0  0  0  0  0  0  0  0  0  0  0
   59.9839   22.5668   44.2520 H   0  0  0  0  0  0  0  0  0  0  0  0
   60.1343   25.7996   45.6835 H   0  0  0  0  0  0  0  0  0  0  0  0
   58.9232   27.9687   45.5572 H   0  0  0  0  0  0  0  0  0  0  0  0
   58.4243   29.0775   44.4775 H   0  0  0  0  0  0  0  0  0  0  0  0
   57.6620   29.7334   42.9802 H   0  0  0  0  0  0  0  0  0  0  0  0
   57.9177   34.3278   43.4449 H   0  0  0  0  0  0  0  0  0  0  0  0
   58.3954   34.7076   45.8617 H   0  0  0  0  0  0  0  0  0  0  0  0
   57.6359   33.1656   48.2568 H   0  0  0  0  0  0  0  0  0  0  0  0
   59.0018   31.9903   48.2377 H   0  0  0  0  0  0  0  0  0  0  0  0
   59.3166   34.8547   47.2384 H   0  0  0  0  0  0  0  0  0  0  0  0
   59.5401   34.4058   48.9723 H   0  0  0  0  0  0  0  0  0  0  0  0
   61.2900   34.9972   46.0209 H   0  0  0  0  0  0  0  0  0  0  0  0
   63.6335   34.2591   45.5774 H   0  0  0  0  0  0  0  0  0  0  0  0
   64.6563   32.4439   46.9495 H   0  0  0  0  0  0  0  0  0  0  0  0
   63.3359   31.3611   48.7719 H   0  0  0  0  0  0  0  0  0  0  0  0
   60.9918   32.0866   49.2196 H   0  0  0  0  0  0  0  0  0  0  0  0
   53.6397   24.4116   46.5774 H   0  0  0  0  0  0  0  0  0  0  0  0
   53.0778   25.1510   45.0398 H   0  0  0  0  0  0  0  0  0  0  0  0
   54.4925   24.0441   45.0398 H   0  0  0  0  0  0  0  0  0  0  0  0
   56.3628   23.6966   45.9600 H   0  0  0  0  0  0  0  0  0  0  0  0
  1  2  1  0
  2  3  1  0
  3  4  2  0
  4  5  1  0
  5  6  2  0
  6  7  1  0
  7  8  1  0
  8  9  2  0
  8 10  1  0
 10 11  1  0
 11 12  1  0
 12 13  2  0
 12 14  1  0
 14 15  2  0
 15 16  1  0
 16 17  1  0
 17 18  1  0
 18 19  1  0
 19 20  2  0
 20 21  1  0
 21 22  2  0
 22 23  1  0
 23 24  2  0
 16 25  1  0
 25 26  2  0
  6 27  1  0
 27 28  1  0
 28 29  1  0
 27 30  2  0
 30  3  1  0
 25 11  1  0
 24 19  1  0
  1 31  1  0
  1 32  1  0
  1 33  1  0
  4 34  1  0
  5 35  1  0
 10 36  1  0
 10 37  1  0
 14 38  1  0
 15 39  1  0
 17 40  1  0
 17 41  1  0
 18 42  1  0
 18 43  1  0
 20 44  1  0
 21 45  1  0
 22 46  1  0
 23 47  1  0
 24 48  1  0
 29 49  1  0
 29 50  1  0
 29 51  1  0
 30 52  1  0
M  CHG  1   7  -1
M  END
>  <UniqueID>  (1) 
1

>  <SMILES>  (1) 
COc1ccc([N-]C(=O)Cn2c(=O)ccn(CCc3ccccc3)c2=O)c(OC)c1

>  <Energy>  (1) 
58.28698317794137

>  <Genealogy>  (1) 
COc1ccc([N-]C(=O)Cn2c(=O)ccn(CCc3ccccc3)c2=O)c(OC)c1 (protonated)
COc1ccc([N-]C(=O)Cn2c(=O)ccn(CCc3ccccc3)c2=O)c(OC)c1 (3D coordinates assigned)
COc1ccc([N-]C(=O)Cn2c(=O)ccn(CCc3ccccc3)c2=O)c(OC)c1 (optimized conformer: 58.28698317794137 kcal/mol)

>  <smiles>  (1) 
COc1ccc(NC(=O)Cn2c(=O)ccn(CCc3ccccc3)c2=O)c(OC)c1

>  <score_type>  (1) 
oracle

>  <origin>  (1) 
adg

>  <m_score__min__energy>  (1) 
-11.58

>  <m_primary>  (1) 
energy

$$$$
1:0
     RDKit          3D

 56 59  0  0  0  0  0  0  0  0999 V2000
   56.6780   28.3530   45.2720 C   0  0  0  0  0  0  0  0  0  0  0  0
   56.0300   29.5550   44.8660 O   0  0  0  0  0  0  0  0  0  0  0  0
   56.6440   30.5790   44.1290 C   0  0  0  0  0  0  0  0  0  0  0  0
   56.7670   30.5280   42.7300 C   0  0  0  0  0  0  0  0  0  0  0  0
   57.3410   31.5940   42.0410 C   0  0  0  0  0  0  0  0  0  0  0  0
   57.8290   32.7020   42.7370 C   0  0  0  0  0  0  0  0  0  0  0  0
   57.7880   32.7410   44.1410 C   0  0  0  0  0  0  0  0  0  0  0  0
   58.2830   33.9830   44.8700 C   0  0  0  0  0  0  0  0  0  0  0  0
   58.9990   33.7010   46.1440 N   0  0  2  0  0  0  0  0  0  0  0  0
   58.0340   33.3980   47.2350 C   0  0  0  0  0  0  0  0  0  0  0  0
   58.5080   32.3000   48.1490 C   0  0  0  0  0  0  0  0  0  0  0  0
   58.4460   32.3450   49.5010 N   0  0  0  0  0  0  0  0  0  0  0  0
   58.9860   31.2440   49.9580 O   0  0  0  0  0  0  0  0  0  0  0  0
   59.3960   30.4960   48.9640 C   0  0  0  0  0  0  0  0  0  0  0  0
   60.0250   29.2550   49.0100 C   0  0  0  0  0  0  0  0  0  0  0  0
   60.3720   28.6540   47.7840 C   0  0  0  0  0  0  0  0  0  0  0  0
   60.0820   29.3020   46.5600 C   0  0  0  0  0  0  0  0  0  0  0  0
   59.4440   30.5570   46.5500 C   0  0  0  0  0  0  0  0  0  0  0  0
   59.1170   31.1200   47.7820 C   0  0  0  0  0  0  0  0  0  0  0  0
   60.0810   34.6780   46.4890 C   0  0  0  0  0  0  0  0  0  0  0  0
   61.3500   34.2080   47.2840 C   0  0  0  0  0  0  0  0  0  0  0  0
   62.0410   32.9150   46.8080 C   0  0  0  0  0  0  0  0  0  0  0  0
   63.4040   32.7090   47.4980 C   0  0  0  0  0  0  0  0  0  0  0  0
   63.4420   33.1890   48.9640 C   0  0  0  0  0  0  0  0  0  0  0  0
   62.0440   33.2490   49.5840 C   0  0  0  0  0  0  0  0  0  0  0  0
   61.1480   34.2400   48.8240 C   0  0  0  0  0  0  0  0  0  0  0  0
   57.1380   31.6920   44.8220 C   0  0  0  0  0  0  0  0  0  0  0  0
   56.7045   28.3038   46.3706 H   0  0  0  0  0  0  0  0  0  0  0  0
   56.1243   27.4873   44.8795 H   0  0  0  0  0  0  0  0  0  0  0  0
   57.7055   28.3398   44.8795 H   0  0  0  0  0  0  0  0  0  0  0  0
   56.4098   29.6457   42.1786 H   0  0  0  0  0  0  0  0  0  0  0  0
   57.4102   31.5629   40.9436 H   0  0  0  0  0  0  0  0  0  0  0  0
   58.2496   33.5526   42.1806 H   0  0  0  0  0  0  0  0  0  0  0  0
   58.9690   34.5242   44.2018 H   0  0  0  0  0  0  0  0  0  0  0  0
   57.3909   34.5701   45.1334 H   0  0  0  0  0  0  0  0  0  0  0  0
   59.5020   32.7950   46.0120 H   0  0  0  0  0  0  0  0  0  0  0  0
   57.8812   34.3095   47.8315 H   0  0  0  0  0  0  0  0  0  0  0  0
   57.1008   33.0553   46.7641 H   0  0  0  0  0  0  0  0  0  0  0  0
   60.2431   28.7616   49.9686 H   0  0  0  0  0  0  0  0  0  0  0  0
   60.8719   27.6742   47.7782 H   0  0  0  0  0  0  0  0  0  0  0  0
   60.3570   28.8217   45.6094 H   0  0  0  0  0  0  0  0  0  0  0  0
   59.2127   31.0730   45.6065 H   0  0  0  0  0  0  0  0  0  0  0  0
   60.4415   35.0986   45.5387 H   0  0  0  0  0  0  0  0  0  0  0  0
   59.5843   35.3609   47.1940 H   0  0  0  0  0  0  0  0  0  0  0  0
   62.0836   34.9842   47.0207 H   0  0  0  0  0  0  0  0  0  0  0  0
   61.3914   32.0579   47.0391 H   0  0  0  0  0  0  0  0  0  0  0  0
   62.2143   32.9979   45.7249 H   0  0  0  0  0  0  0  0  0  0  0  0
   63.6431   31.6355   47.4788 H   0  0  0  0  0  0  0  0  0  0  0  0
   64.1366   33.3150   46.9447 H   0  0  0  0  0  0  0  0  0  0  0  0
   64.0607   32.4931   49.5496 H   0  0  0  0  0  0  0  0  0  0  0  0
   63.8639   34.2048   48.9781 H   0  0  0  0  0  0  0  0  0  0  0  0
   61.5890   32.2483   49.5436 H   0  0  0  0  0  0  0  0  0  0  0  0
   62.1365   33.5877   50.6265 H   0  0  0  0  0  0  0  0  0  0  0  0
   60.0977   33.9965   49.0419 H   0  0  0  0  0  0  0  0  0  0  0  0
   61.4233   35.2492   49.1640 H   0  0  0  0  0  0  0  0  0  0  0  0
   57.0168   31.7480   45.9139 H   0  0  0  0  0  0  0  0  0  0  0  0
  1  2  1  0
  2  3  1  0
  3  4  2  0
  4  5  1  0
  5  6  2  0
  6  7  1  0
  7  8  1  0
  8  9  1  0
  9 10  1  0
 10 11  1  0
 11 12  2  0
 12 13  1  0
 13 14  1  0
 14 15  2  0
 15 16  1  0
 16 17  2  0
 17 18  1  0
 18 19  2  0
  9 20  1  0
 20 21  1  0
 21 22  1  0
 22 23  1  0
 23 24  1  0
 24 25  1  0
 25 26  1  0
  7 27  2  0
 27  3  1  0
 19 11  1  0
 26 21  1  0
 19 14  1  0
  1 28  1  0
  1 29  1  0
  1 30  1  0
  4 31  1  0
  5 32  1  0
  6 33  1  0
  8 34  1  0
  8 35  1  0
  9 36  1  6
 10 37  1  0
 10 38  1  0
 15 39  1  0
 16 40  1  0
 17 41  1  0
 18 42  1  0
 20 43  1  0
 20 44  1  0
 21 45  1  0
 22 46  1  0
 22 47  1  0
 23 48  1  0
 23 49  1  0
 24 50  1  0
 24 51  1  0
 25 52  1  0
 25 53  1  0
 26 54  1  0
 26 55  1  0
 27 56  1  0
M  CHG  1   9   1
M  END
>  <UniqueID>  (2) 
2

>  <SMILES>  (2) 
COc1cccc(C[N@H+](Cc2noc3ccccc23)CC2CCCCC2)c1

>  <Energy>  (2) 
118.95853034811427

>  <Genealogy>  (2) 
COc1cccc(C[NH+](Cc2noc3ccccc23)CC2CCCCC2)c1 (protonated)
COc1cccc(C[N@H+](Cc2noc3ccccc23)CC2CCCCC2)c1 (chirality)
COc1cccc(C[N@H+](Cc2noc3ccccc23)CC2CCCCC2)c1 (3D coordinates assigned)
COc1cccc(C[N@H+](Cc2noc3ccccc23)CC2CCCCC2)c1 (nonaromatic ring conformer: 118.95853034811427 kcal/mol)

>  <smiles>  (2) 
COc1cccc(CN(Cc2noc3ccccc23)CC2CCCCC2)c1

>  <score_type>  (2) 
oracle

>  <origin>  (2) 
adg

>  <m_score__min__energy>  (2) 
-7.6600000000000001

>  <m_primary>  (2) 
energy

$$$$
2:0
     RDKit          3D

 48 51  0  0  0  0  0  0  0  0999 V2000
   59.4150   29.2770   44.5300 C   0  0  0  0  0  0  0  0  0  0  0  0
   58.1500   28.5930   44.9490 C   0  0  0  0  0  0  0  0  0  0  0  0
   56.8350   29.0360   44.7640 C   0  0  0  0  0  0  0  0  0  0  0  0
   56.4060   30.2930   44.1170 C   0  0  0  0  0  0  0  0  0  0  0  0
   55.8820   30.2610   42.9730 O   0  0  0  0  0  0  0  0  0  0  0  0
   56.4970   31.5510   44.7980 N   0  0  0  0  0  0  0  0  0  0  0  0
   57.6780   32.0980   45.4020 C   0  0  0  0  0  0  0  0  0  0  0  0
   58.1480   31.5530   46.5990 C   0  0  0  0  0  0  0  0  0  0  0  0
   59.2860   32.0800   47.2080 C   0  0  0  0  0  0  0  0  0  0  0  0
   59.9420   33.1750   46.6240 C   0  0  0  0  0  0  0  0  0  0  0  0
   61.1380   33.7120   47.2210 N   0  0  0  0  0  0  0  0  0  0  0  0
   62.3890   33.7400   46.4560 C   0  0  0  0  0  0  0  0  0  0  0  0
   63.6000   33.8580   47.3980 C   0  0  0  0  0  0  0  0  0  0  0  0
   63.4100   33.0780   48.6400 N   0  0  0  0  0  0  0  0  0  0  0  0
   63.4020   31.6280   48.3800 C   0  0  0  0  0  0  0  0  0  0  0  0
   62.2230   33.5050   49.4270 C   0  0  0  0  0  0  0  0  0  0  0  0
   61.1470   34.2270   48.5940 C   0  0  0  0  0  0  0  0  0  0  0  0
   59.4550   33.7060   45.4640 N   0  0  0  0  0  0  0  0  0  0  0  0
   58.3450   33.2060   44.8580 C   0  0  0  0  0  0  0  0  0  0  0  0
   55.9860   28.1470   45.2480 O   0  0  0  0  0  0  0  0  0  0  0  0
   56.6800   27.1480   45.7350 C   0  0  0  0  0  0  0  0  0  0  0  0
   56.1930   25.9940   46.3430 C   0  0  0  0  0  0  0  0  0  0  0  0
   57.1250   25.0420   46.7910 C   0  0  0  0  0  0  0  0  0  0  0  0
   58.5110   25.2630   46.6210 C   0  0  0  0  0  0  0  0  0  0  0  0
   58.9750   26.4400   46.0040 C   0  0  0  0  0  0  0  0  0  0  0  0
   58.0240   27.3670   45.5730 C   0  0  0  0  0  0  0  0  0  0  0  0
   59.9798   29.5824   45.4231 H   0  0  0  0  0  0  0  0  0  0  0  0
   60.0243   28.5854   43.9296 H   0  0  0  0  0  0  0  0  0  0  0  0
   59.1699   30.1655   43.9296 H   0  0  0  0  0  0  0  0  0  0  0  0
   57.6194   30.7066   47.0619 H   0  0  0  0  0  0  0  0  0  0  0  0
   59.6678   31.6401   48.1411 H   0  0  0  0  0  0  0  0  0  0  0  0
   62.4755   32.8124   45.8712 H   0  0  0  0  0  0  0  0  0  0  0  0
   62.3750   34.6130   45.7870 H   0  0  0  0  0  0  0  0  0  0  0  0
   64.4938   33.4847   46.8767 H   0  0  0  0  0  0  0  0  0  0  0  0
   63.7154   34.9165   47.6742 H   0  0  0  0  0  0  0  0  0  0  0  0
   63.3990   31.0841   49.3361 H   0  0  0  0  0  0  0  0  0  0  0  0
   62.5024   31.3636   47.8049 H   0  0  0  0  0  0  0  0  0  0  0  0
   64.2986   31.3537   47.8049 H   0  0  0  0  0  0  0  0  0  0  0  0
   61.7684   32.6116   49.8799 H   0  0  0  0  0  0  0  0  0  0  0  0
   62.5807   34.2246   50.1782 H   0  0  0  0  0  0  0  0  0  0  0  0
   60.1607   34.0594   49.0512 H   0  0  0  0  0  0  0  0  0  0  0  0
   61.3732   35.3033   48.5717 H   0  0  0  0  0  0  0  0  0  0  0  0
   59.9260   34.5310   45.0300 H   0  0  0  0  0  0  0  0  0  0  0  0
   57.9680   33.6729   43.9361 H   0  0  0  0  0  0  0  0  0  0  0  0
   55.1123   25.8323   46.4689 H   0  0  0  0  0  0  0  0  0  0  0  0
   56.7739   24.1196   47.2767 H   0  0  0  0  0  0  0  0  0  0  0  0
   59.2316   24.5102   46.9732 H   0  0  0  0  0  0  0  0  0  0  0  0
   60.0508   26.6233   45.8660 H   0  0  0  0  0  0  0  0  0  0  0  0
  1  2  1  0
  2  3  2  0
  3  4  1  0
  4  5  2  0
  4  6  1  0
  6  7  1  0
  7  8  2  0
  8  9  1  0
  9 10  2  0
 10 11  1  0
 11 12  1  0
 12 13  1  0
 13 14  1  0
 14 15  1  0
 14 16  1  0
 16 17  1  0
 10 18  1  0
 18 19  2  0
  3 20  1  0
 20 21  1  0
 21 22  2  0
 22 23  1  0
 23 24  2  0
 24 25  1  0
 25 26  2  0
 26  2  1  0
 19  7  1  0
 26 21  1  0
 17 11  1  0
  1 27  1  0
  1 28  1  0
  1 29  1  0
  8 30  1  0
  9 31  1  0
 12 32  1  0
 12 33  1  0
 13 34  1  0
 13 35  1  0
 15 36  1  0
 15 37  1  0
 15 38  1  0
 16 39  1  0
 16 40  1  0
 17 41  1  0
 17 42  1  0
 18 43  1  0
 19 44  1  0
 22 45  1  0
 23 46  1  0
 24 47  1  0
 25 48  1  0
M  CHG  2   6  -1  18   1
M  END
>  <UniqueID>  (3) 
3

>  <SMILES>  (3) 
Cc1c(C(=O)[N-]c2ccc(N3CCN(C)CC3)[nH+]c2)oc2ccccc12

>  <Energy>  (3) 
100.6486956582489

>  <Genealogy>  (3) 
Cc1c(C(=O)[N-]c2ccc(N3CCN(C)CC3)[nH+]c2)oc2ccccc12 (protonated)
Cc1c(C(=O)[N-]c2ccc(N3CCN(C)CC3)[nH+]c2)oc2ccccc12 (3D coordinates assigned)
Cc1c(C(=O)[N-]c2ccc(N3CCN(C)CC3)[nH+]c2)oc2ccccc12 (nonaromatic ring conformer: 100.6486956582489 kcal/mol)

>  <smiles>  (3) 
Cc1c(C(=O)Nc2ccc(N3CCN(C)CC3)nc2)oc2ccccc12

>  <score_type>  (3) 
oracle

>  <origin>  (3) 
adg

>  <m_score__min__energy>  (3) 
-8.4900000000000002

>  <m_primary>  (3) 
energy

$$$$
3:0
     RDKit          3D

 44 46  0  0  0  0  0  0  0  0999 V2000
   62.7680   29.6580   51.4360 C   0  0  0  0  0  0  0  0  0  0  0  0
   62.2130   30.3750   50.3380 O   0  0  0  0  0  0  0  0  0  0  0  0
   62.8830   31.3810   49.6210 C   0  0  0  0  0  0  0  0  0  0  0  0
   64.0380   32.0090   50.1320 C   0  0  0  0  0  0  0  0  0  0  0  0
   64.6660   33.0290   49.4150 C   0  0  0  0  0  0  0  0  0  0  0  0
   64.1530   33.4370   48.1840 C   0  0  0  0  0  0  0  0  0  0  0  0
   63.0150   32.8220   47.6610 C   0  0  0  0  0  0  0  0  0  0  0  0
   62.3750   31.7860   48.3660 C   0  0  0  0  0  0  0  0  0  0  0  0
   61.1750   31.1410   47.7810 C   0  0  0  0  0  0  0  0  0  0  0  0
   61.3010   30.2780   46.6800 C   0  0  0  0  0  0  0  0  0  0  0  0
   60.1730   29.6610   46.1320 C   0  0  0  0  0  0  0  0  0  0  0  0
   58.8960   29.8920   46.6740 C   0  0  0  0  0  0  0  0  0  0  0  0
   57.6850   29.2030   46.0770 C   0  0  2  0  0  0  0  0  0  0  0  0
   57.8630   27.6700   46.0500 C   0  0  0  0  0  0  0  0  0  0  0  0
   56.5440   26.9610   46.1190 C   0  0  0  0  0  0  0  0  0  0  0  0
   55.5240   27.4660   45.5810 O   0  0  0  0  0  0  0  0  0  0  0  0
   56.4340   25.7650   46.8170 O   0  0  0  0  0  0  0  0  0  0  0  0
   57.3720   29.7860   44.7200 C   0  0  0  0  0  0  0  0  0  0  0  0
   56.6510   29.1700   43.7530 N   0  0  0  0  0  0  0  0  0  0  0  0
   56.5730   29.9020   42.6110 C   0  0  0  0  0  0  0  0  0  0  0  0
   57.2650   31.1060   42.6530 C   0  0  0  0  0  0  0  0  0  0  0  0
   57.2950   32.1360   41.5750 C   0  0  0  0  0  0  0  0  0  0  0  0
   57.9630   31.2670   44.1750 S   0  0  0  0  0  0  0  0  0  0  0  0
   58.7760   30.7460   47.7850 C   0  0  0  0  0  0  0  0  0  0  0  0
   59.9030   31.3620   48.3330 C   0  0  0  0  0  0  0  0  0  0  0  0
   62.4214   30.1057   52.3791 H   0  0  0  0  0  0  0  0  0  0  0  0
   62.4454   28.6074   51.3886 H   0  0  0  0  0  0  0  0  0  0  0  0
   63.8659   29.7070   51.3886 H   0  0  0  0  0  0  0  0  0  0  0  0
   64.4470   31.6926   51.1029 H   0  0  0  0  0  0  0  0  0  0  0  0
   65.5669   33.5117   49.8216 H   0  0  0  0  0  0  0  0  0  0  0  0
   64.6465   34.2452   47.6243 H   0  0  0  0  0  0  0  0  0  0  0  0
   62.6151   33.1496   46.6900 H   0  0  0  0  0  0  0  0  0  0  0  0
   62.2936   30.0866   46.2464 H   0  0  0  0  0  0  0  0  0  0  0  0
   60.2851   28.9885   45.2688 H   0  0  0  0  0  0  0  0  0  0  0  0
   56.8134   29.3910   46.7212 H   0  0  0  0  0  0  0  0  0  0  0  0
   58.3728   27.3860   45.1176 H   0  0  0  0  0  0  0  0  0  0  0  0
   58.4580   27.3768   46.9275 H   0  0  0  0  0  0  0  0  0  0  0  0
   56.1940   28.2380   43.8570 H   0  0  0  0  0  0  0  0  0  0  0  0
   56.0091   29.5692   41.7271 H   0  0  0  0  0  0  0  0  0  0  0  0
   57.3242   33.1386   42.0266 H   0  0  0  0  0  0  0  0  0  0  0  0
   58.1892   31.9884   40.9516 H   0  0  0  0  0  0  0  0  0  0  0  0
   56.3937   32.0407   40.9516 H   0  0  0  0  0  0  0  0  0  0  0  0
   57.7854   30.9303   48.2262 H   0  0  0  0  0  0  0  0  0  0  0  0
   59.7935   32.0253   49.2036 H   0  0  0  0  0  0  0  0  0  0  0  0
  1  2  1  0
  2  3  1  0
  3  4  2  0
  4  5  1  0
  5  6  2  0
  6  7  1  0
  7  8  2  0
  8  9  1  0
  9 10  2  0
 10 11  1  0
 11 12  2  0
 12 13  1  0
 13 14  1  0
 14 15  1  0
 15 16  2  0
 15 17  1  0
 13 18  1  0
 18 19  2  0
 19 20  1  0
 20 21  2  0
 21 22  1  0
 21 23  1  0
 12 24  1  0
 24 25  2  0
  8  3  1  0
 25  9  1  0
 23 18  1  0
  1 26  1  0
  1 27  1  0
  1 28  1  0
  4 29  1  0
  5 30  1  0
  6 31  1  0
  7 32  1  0
 10 33  1  0
 11 34  1  0
 13 35  1  1
 14 36  1  0
 14 37  1  0
 19 38  1  0
 20 39  1  0
 22 40  1  0
 22 41  1  0
 22 42  1  0
 24 43  1  0
 25 44  1  0
M  CHG  2  17  -1  19   1
M  END
>  <UniqueID>  (4) 
4

>  <SMILES>  (4) 
COc1ccccc1-c1ccc([C@H](CC(=O)[O-])c2[nH+]cc(C)s2)cc1

>  <Energy>  (4) 
78.04278761269205

>  <Genealogy>  (4) 
COc1ccccc1-c1ccc(C(CC(=O)[O-])c2[nH+]cc(C)s2)cc1 (protonated)
COc1ccccc1-c1ccc([C@H](CC(=O)[O-])c2[nH+]cc(C)s2)cc1 (chirality)
COc1ccccc1-c1ccc([C@H](CC(=O)[O-])c2[nH+]cc(C)s2)cc1 (3D coordinates assigned)
COc1ccccc1-c1ccc([C@H](CC(=O)[O-])c2[nH+]cc(C)s2)cc1 (optimized conformer: 78.04278761269205 kcal/mol)

>  <smiles>  (4) 
COc1ccccc1-c1ccc(C(CC(=O)O)c2ncc(C)s2)cc1

>  <score_type>  (4) 
oracle

>  <origin>  (4) 
adg

>  <m_score__min__energy>  (4) 
-8.6099999999999994

>  <m_primary>  (4) 
energy

$$$$
4:0
     RDKit          3D

 48 51  0  0  0  0  0  0  0  0999 V2000
   58.7600   28.7570   47.6690 C   0  0  0  0  0  0  0  0  0  0  0  0
   58.6150   30.0810   46.9790 C   0  0  0  0  0  0  0  0  0  0  0  0
   57.8180   30.3530   45.8700 C   0  0  0  0  0  0  0  0  0  0  0  0
   56.9720   29.3880   45.1350 C   0  0  0  0  0  0  0  0  0  0  0  0
   55.7720   29.6830   44.8950 O   0  0  0  0  0  0  0  0  0  0  0  0
   57.4880   28.1380   44.6620 N   0  0  0  0  0  0  0  0  0  0  0  0
   57.4580   26.8890   45.3700 C   0  0  0  0  0  0  0  0  0  0  0  0
   58.6130   26.1020   45.4020 C   0  0  0  0  0  0  0  0  0  0  0  0
   58.6230   24.8850   46.0890 C   0  0  0  0  0  0  0  0  0  0  0  0
   57.4620   24.4300   46.7450 C   0  0  0  0  0  0  0  0  0  0  0  0
   57.4150   23.2190   47.4560 O   0  0  0  0  0  0  0  0  0  0  0  0
   56.2500   22.4190   47.6430 C   0  0  0  0  0  0  0  0  0  0  0  0
   55.5630   22.2920   46.4500 F   0  0  0  0  0  0  0  0  0  0  0  0
   56.6350   21.1630   48.0710 F   0  0  0  0  0  0  0  0  0  0  0  0
   55.4320   22.9860   48.6030 F   0  0  0  0  0  0  0  0  0  0  0  0
   56.3000   25.2080   46.6870 C   0  0  0  0  0  0  0  0  0  0  0  0
   56.2910   26.4240   45.9980 C   0  0  0  0  0  0  0  0  0  0  0  0
   58.0060   31.6990   45.5880 C   0  0  0  0  0  0  0  0  0  0  0  0
   57.3900   32.4840   44.6090 C   0  0  0  0  0  0  0  0  0  0  0  0
   57.7260   33.8430   44.5500 C   0  0  0  0  0  0  0  0  0  0  0  0
   58.6350   34.3890   45.4710 C   0  0  0  0  0  0  0  0  0  0  0  0
   59.2060   33.5640   46.4490 C   0  0  0  0  0  0  0  0  0  0  0  0
   58.8760   32.2420   46.4630 N   0  0  0  0  0  0  0  0  0  0  0  0
   59.2620   31.2680   47.3160 C   0  0  0  0  0  0  0  0  0  0  0  0
   60.2180   31.4400   48.4290 C   0  0  0  0  0  0  0  0  0  0  0  0
   59.9870   30.8510   49.5200 O   0  0  0  0  0  0  0  0  0  0  0  0
   61.4460   32.2590   48.2840 C   0  0  0  0  0  0  0  0  0  0  0  0
   61.6700   33.3820   49.1040 C   0  0  0  0  0  0  0  0  0  0  0  0
   62.8280   34.1500   48.9530 C   0  0  0  0  0  0  0  0  0  0  0  0
   63.7720   33.8120   47.9800 C   0  0  0  0  0  0  0  0  0  0  0  0
   63.5560   32.7070   47.1530 C   0  0  0  0  0  0  0  0  0  0  0  0
   62.3990   31.9360   47.2990 C   0  0  0  0  0  0  0  0  0  0  0  0
   58.7435   28.9076   48.7585 H   0  0  0  0  0  0  0  0  0  0  0  0
   57.9286   28.0985   47.3772 H   0  0  0  0  0  0  0  0  0  0  0  0
   59.7142   28.2940   47.3772 H   0  0  0  0  0  0  0  0  0  0  0  0
   59.5206   26.4432   44.8826 H   0  0  0  0  0  0  0  0  0  0  0  0
   59.5411   24.2798   46.1177 H   0  0  0  0  0  0  0  0  0  0  0  0
   55.3852   24.8591   47.1884 H   0  0  0  0  0  0  0  0  0  0  0  0
   55.3670   27.0187   45.9474 H   0  0  0  0  0  0  0  0  0  0  0  0
   56.6640   32.0483   43.9067 H   0  0  0  0  0  0  0  0  0  0  0  0
   57.2758   34.4853   43.7788 H   0  0  0  0  0  0  0  0  0  0  0  0
   58.8967   35.4564   45.4249 H   0  0  0  0  0  0  0  0  0  0  0  0
   59.9066   33.9752   47.1906 H   0  0  0  0  0  0  0  0  0  0  0  0
   60.9284   33.6566   49.8686 H   0  0  0  0  0  0  0  0  0  0  0  0
   62.9965   35.0223   49.6016 H   0  0  0  0  0  0  0  0  0  0  0  0
   64.6845   34.4155   47.8652 H   0  0  0  0  0  0  0  0  0  0  0  0
   64.2981   32.4429   46.3851 H   0  0  0  0  0  0  0  0  0  0  0  0
   62.2320   31.0712   46.6400 H   0  0  0  0  0  0  0  0  0  0  0  0
  1  2  1  0
  2  3  1  0
  3  4  1  0
  4  5  2  0
  4  6  1  0
  6  7  1  0
  7  8  2  0
  8  9  1  0
  9 10  2  0
 10 11  1  0
 11 12  1  0
 12 13  1  0
 12 14  1  0
 12 15  1  0
 10 16  1  0
 16 17  2  0
  3 18  2  0
 18 19  1  0
 19 20  2  0
 20 21  1  0
 21 22  2  0
 22 23  1  0
 23 24  1  0
 24 25  1  0
 25 26  2  0
 25 27  1  0
 27 28  2  0
 28 29  1  0
 29 30  2  0
 30 31  1  0
 31 32  2  0
 24  2  2  0
 32 27  1  0
 17  7  1  0
 23 18  1  0
  1 33  1  0
  1 34  1  0
  1 35  1  0
  8 36  1  0
  9 37  1  0
 16 38  1  0
 17 39  1  0
 19 40  1  0
 20 41  1  0
 21 42  1  0
 22 43  1  0
 28 44  1  0
 29 45  1  0
 30 46  1  0
 31 47  1  0
 32 48  1  0
M  CHG  1   6  -1
M  END
>  <UniqueID>  (5) 
5

>  <SMILES>  (5) 
Cc1c(C(=O)[N-]c2ccc(OC(F)(F)F)cc2)c2ccccn2c1C(=O)c1ccccc1

>  <Energy>  (5) 
97.41025669234745

>  <Genealogy>  (5) 
Cc1c(C(=O)[N-]c2ccc(OC(F)(F)F)cc2)c2ccccn2c1C(=O)c1ccccc1 (protonated)
Cc1c(C(=O)[N-]c2ccc(OC(F)(F)F)cc2)c2ccccn2c1C(=O)c1ccccc1 (3D coordinates assigned)
Cc1c(C(=O)[N-]c2ccc(OC(F)(F)F)cc2)c2ccccn2c1C(=O)c1ccccc1 (optimized conformer: 97.41025669234745 kcal/mol)

>  <smiles>  (5) 
Cc1c(C(=O)Nc2ccc(OC(F)(F)F)cc2)c2ccccn2c1C(=O)c1ccccc1

>  <score_type>  (5) 
oracle

>  <origin>  (5) 
adg

>  <m_score__min__energy>  (5) 
-10.34

>  <m_primary>  (5) 
energy

$$$$
5:0
     RDKit          3D

 39 42  0  0  0  0  0  0  0  0999 V2000
   55.6450   26.8690   46.0030 O   0  0  0  0  0  0  0  0  0  0  0  0
   56.2780   27.8850   45.6090 C   0  0  0  0  0  0  0  0  0  0  0  0
   55.5890   28.9670   45.1720 N   0  0  0  0  0  0  0  0  0  0  0  0
   56.2080   30.0680   44.7460 N   0  0  0  0  0  0  0  0  0  0  0  0
   57.5630   30.1750   44.7160 C   0  0  0  0  0  0  0  0  0  0  0  0
   58.1530   31.4830   44.2470 C   0  0  0  0  0  0  0  0  0  0  0  0
   58.4680   32.3890   45.4110 C   0  0  0  0  0  0  0  0  0  0  0  0
   57.4920   33.2680   45.9050 C   0  0  0  0  0  0  0  0  0  0  0  0
   57.7790   34.1070   46.9830 C   0  0  0  0  0  0  0  0  0  0  0  0
   59.0440   34.0830   47.5750 C   0  0  0  0  0  0  0  0  0  0  0  0
   60.0430   33.2230   47.0860 C   0  0  0  0  0  0  0  0  0  0  0  0
   61.3900   33.2020   47.7110 C   0  0  0  0  0  0  0  0  0  0  0  0
   61.6010   33.7490   48.9870 C   0  0  0  0  0  0  0  0  0  0  0  0
   62.8710   33.7200   49.5620 C   0  0  0  0  0  0  0  0  0  0  0  0
   63.9290   33.1410   48.8580 C   0  0  0  0  0  0  0  0  0  0  0  0
   63.7180   32.6140   47.6220 N   0  0  0  0  0  0  0  0  0  0  0  0
   62.4870   32.6300   47.0400 C   0  0  0  0  0  0  0  0  0  0  0  0
   59.7460   32.3820   45.9980 C   0  0  0  0  0  0  0  0  0  0  0  0
   58.3460   29.0820   45.1620 C   0  0  0  0  0  0  0  0  0  0  0  0
   59.7570   29.1110   45.1690 C   0  0  0  0  0  0  0  0  0  0  0  0
   60.4870   28.0100   45.6210 C   0  0  0  0  0  0  0  0  0  0  0  0
   59.8290   26.8660   46.0710 C   0  0  0  0  0  0  0  0  0  0  0  0
   58.4340   26.8140   46.0700 C   0  0  0  0  0  0  0  0  0  0  0  0
   57.6820   27.9150   45.6180 C   0  0  0  0  0  0  0  0  0  0  0  0
   59.0795   31.2793   43.6901 H   0  0  0  0  0  0  0  0  0  0  0  0
   57.4160   31.9863   43.6039 H   0  0  0  0  0  0  0  0  0  0  0  0
   56.4954   33.2960   45.4402 H   0  0  0  0  0  0  0  0  0  0  0  0
   57.0066   34.7892   47.3676 H   0  0  0  0  0  0  0  0  0  0  0  0
   59.2600   34.7413   48.4294 H   0  0  0  0  0  0  0  0  0  0  0  0
   60.7615   34.2019   49.5348 H   0  0  0  0  0  0  0  0  0  0  0  0
   63.0380   34.1492   50.5609 H   0  0  0  0  0  0  0  0  0  0  0  0
   64.9342   33.1111   49.3036 H   0  0  0  0  0  0  0  0  0  0  0  0
   64.5210   32.1880   47.1070 H   0  0  0  0  0  0  0  0  0  0  0  0
   62.3492   32.1934   46.0398 H   0  0  0  0  0  0  0  0  0  0  0  0
   60.5225   31.7111   45.6018 H   0  0  0  0  0  0  0  0  0  0  0  0
   60.2859   30.0083   44.8155 H   0  0  0  0  0  0  0  0  0  0  0  0
   61.5864   28.0452   45.6221 H   0  0  0  0  0  0  0  0  0  0  0  0
   60.4102   26.0028   46.4275 H   0  0  0  0  0  0  0  0  0  0  0  0
   57.9198   25.9083   46.4241 H   0  0  0  0  0  0  0  0  0  0  0  0
  1  2  2  0
  2  3  1  0
  3  4  1  0
  4  5  2  0
  5  6  1  0
  6  7  1  0
  7  8  2  0
  8  9  1  0
  9 10  2  0
 10 11  1  0
 11 12  1  0
 12 13  2  0
 13 14  1  0
 14 15  2  0
 15 16  1  0
 16 17  2  0
 11 18  2  0
  5 19  1  0
 19 20  2  0
 20 21  1  0
 21 22  2  0
 22 23  1  0
 23 24  2  0
 24  2  1  0
 18  7  1  0
 24 19  1  0
 17 12  1  0
  6 25  1  0
  6 26  1  0
  8 27  1  0
  9 28  1  0
 10 29  1  0
 13 30  1  0
 14 31  1  0
 15 32  1  0
 16 33  1  0
 17 34  1  0
 18 35  1  0
 20 36  1  0
 21 37  1  0
 22 38  1  0
 23 39  1  0
M  CHG  2   3  -1  16   1
M  END
>  <UniqueID>  (6) 
6

>  <SMILES>  (6) 
O=c1[n-]nc(Cc2cccc(-c3ccc[nH+]c3)c2)c2ccccc12

>  <Energy>  (6) 
55.87808527040347

>  <Genealogy>  (6) 
O=c1[n-]nc(Cc2cccc(-c3ccc[nH+]c3)c2)c2ccccc12 (protonated)
O=c1[n-]nc(Cc2cccc(-c3ccc[nH+]c3)c2)c2ccccc12 (3D coordinates assigned)
O=c1[n-]nc(Cc2cccc(-c3ccc[nH+]c3)c2)c2ccccc12 (optimized conformer: 55.87808527040347 kcal/mol)

>  <smiles>  (6) 
O=c1[nH]nc(Cc2cccc(-c3cccnc3)c2)c2ccccc12

>  <score_type>  (6) 
oracle

>  <origin>  (6) 
adg

>  <m_score__min__energy>  (6) 
-10.640000000000001

>  <m_primary>  (6) 
energy

$$$$
6:0
     RDKit          3D

 67 71  0  0  0  0  0  0  0  0999 V2000
   59.7950   34.2563   50.7490 H   0  0  0  0  0  0  0  0  0  0  0  0
   59.2840   33.3170   51.0070 C   0  0  0  0  0  0  0  0  0  0  0  0
   59.3080   32.8570   52.3380 C   0  0  0  0  0  0  0  0  0  0  0  0
   59.9430   33.5990   53.3480 O   0  0  0  0  0  0  0  0  0  0  0  0
   59.2890   34.4940   54.2390 C   0  0  0  0  0  0  0  0  0  0  0  0
   59.5037   34.2001   55.2770 H   0  0  0  0  0  0  0  0  0  0  0  0
   59.6539   35.5169   54.0645 H   0  0  0  0  0  0  0  0  0  0  0  0
   58.2035   34.4572   54.0645 H   0  0  0  0  0  0  0  0  0  0  0  0
   58.6790   31.6250   52.6520 C   0  0  0  0  0  0  0  0  0  0  0  0
   58.6760   31.0590   53.9410 O   0  0  0  0  0  0  0  0  0  0  0  0
   59.8070   30.5740   54.6600 C   0  0  0  0  0  0  0  0  0  0  0  0
   59.6171   30.6554   55.7404 H   0  0  0  0  0  0  0  0  0  0  0  0
   59.9844   29.5207   54.3972 H   0  0  0  0  0  0  0  0  0  0  0  0
   60.6924   31.1716   54.3972 H   0  0  0  0  0  0  0  0  0  0  0  0
   58.0140   30.9030   51.6450 C   0  0  0  0  0  0  0  0  0  0  0  0
   57.4010   29.6900   51.9970 O   0  0  0  0  0  0  0  0  0  0  0  0
   56.2250   29.5730   52.7970 C   0  0  0  0  0  0  0  0  0  0  0  0
   56.5014   29.6005   53.8614 H   0  0  0  0  0  0  0  0  0  0  0  0
   55.5447   30.4079   52.5731 H   0  0  0  0  0  0  0  0  0  0  0  0
   55.7225   28.6204   52.5731 H   0  0  0  0  0  0  0  0  0  0  0  0
   57.9770   31.3980   50.3310 C   0  0  0  0  0  0  0  0  0  0  0  0
   57.4388   30.8386   49.5516 H   0  0  0  0  0  0  0  0  0  0  0  0
   58.6190   32.5960   50.0070 C   0  0  0  0  0  0  0  0  0  0  0  0
   58.5980   33.0880   48.6190 C   0  0  0  0  0  0  0  0  0  0  0  0
   57.7940   32.5900   47.6530 N   0  0  0  0  0  0  0  0  0  0  0  0
   58.0870   33.3500   46.5750 C   0  0  0  0  0  0  0  0  0  0  0  0
   57.4210   33.2030   45.2690 C   0  0  0  0  0  0  0  0  0  0  0  0
   57.0450   34.2310   44.6490 O   0  0  0  0  0  0  0  0  0  0  0  0
   57.3550   31.9220   44.6380 N   0  0  0  0  0  0  0  0  0  0  0  0
   57.5600   30.7290   45.1210 C   0  0  0  0  0  0  0  0  0  0  0  0
   56.5960   29.7810   45.0040 N   0  0  0  0  0  0  0  0  0  0  0  0
   57.1710   28.6830   45.5180 C   0  0  0  0  0  0  0  0  0  0  0  0
   56.6100   27.4110   45.6310 C   0  0  0  0  0  0  0  0  0  0  0  0
   55.5781   27.2140   45.3049 H   0  0  0  0  0  0  0  0  0  0  0  0
   57.4080   26.3880   46.1760 C   0  0  0  0  0  0  0  0  0  0  0  0
   57.0028   25.3700   46.2738 H   0  0  0  0  0  0  0  0  0  0  0  0
   58.7280   26.6640   46.5980 C   0  0  0  0  0  0  0  0  0  0  0  0
   59.3422   25.8592   47.0282 H   0  0  0  0  0  0  0  0  0  0  0  0
   59.2640   27.9590   46.4730 C   0  0  0  0  0  0  0  0  0  0  0  0
   60.2914   28.1820   46.7967 H   0  0  0  0  0  0  0  0  0  0  0  0
   58.4470   28.9550   45.9230 C   0  0  0  0  0  0  0  0  0  0  0  0
   58.7200   30.2570   45.6900 N   0  0  0  0  0  0  0  0  0  0  0  0
   59.9870   30.9300   46.0120 C   0  0  0  0  0  0  0  0  0  0  0  0
   60.7726   30.5505   45.3421 H   0  0  0  0  0  0  0  0  0  0  0  0
   59.8442   32.0125   45.8782 H   0  0  0  0  0  0  0  0  0  0  0  0
   60.4090   30.6790   47.4660 C   0  0  0  0  0  0  0  0  0  0  0  0
   59.6627   31.1236   48.1408 H   0  0  0  0  0  0  0  0  0  0  0  0
   60.4753   29.5938   47.6333 H   0  0  0  0  0  0  0  0  0  0  0  0
   61.7300   31.2840   47.7370 N   0  0  0  0  0  0  0  0  0  0  0  0
   61.8850   32.5730   47.0620 C   0  0  0  0  0  0  0  0  0  0  0  0
   62.1953   32.4227   46.0174 H   0  0  0  0  0  0  0  0  0  0  0  0
   60.9394   33.1347   47.0433 H   0  0  0  0  0  0  0  0  0  0  0  0
   62.9610   33.3200   47.8300 C   0  0  0  0  0  0  0  0  0  0  0  0
   63.9565   33.1025   47.4157 H   0  0  0  0  0  0  0  0  0  0  0  0
   62.8342   34.4112   47.7736 H   0  0  0  0  0  0  0  0  0  0  0  0
   62.8450   32.7970   49.2530 C   0  0  0  0  0  0  0  0  0  0  0  0
   63.8360   32.5225   49.6435 H   0  0  0  0  0  0  0  0  0  0  0  0
   62.4308   33.5554   49.9337 H   0  0  0  0  0  0  0  0  0  0  0  0
   61.9480   31.5670   49.1640 C   0  0  0  0  0  0  0  0  0  0  0  0
   62.4379   30.7087   49.6470 H   0  0  0  0  0  0  0  0  0  0  0  0
   60.9906   31.7466   49.6751 H   0  0  0  0  0  0  0  0  0  0  0  0
   59.0570   34.2730   46.9310 C   0  0  0  0  0  0  0  0  0  0  0  0
   59.6730   35.3480   46.0900 C   0  0  0  0  0  0  0  0  0  0  0  0
   60.1134   36.1166   46.7422 H   0  0  0  0  0  0  0  0  0  0  0  0
   60.4583   34.9120   45.4550 H   0  0  0  0  0  0  0  0  0  0  0  0
   58.8998   35.8051   45.4550 H   0  0  0  0  0  0  0  0  0  0  0  0
   59.3430   34.0860   48.1950 O   0  0  0  0  0  0  0  0  0  0  0  0
  1  2  1  0
  2  3  2  0
  3  4  1  0
  4  5  1  0
  5  6  1  0
  5  7  1  0
  5  8  1  0
  3  9  1  0
  9 10  1  0
 10 11  1  0
 11 12  1  0
 11 13  1  0
 11 14  1  0
  9 15  2  0
 15 16  1  0
 16 17  1  0
 17 18  1  0
 17 19  1  0
 17 20  1  0
 15 21  1  0
 21 22  1  0
 21 23  2  0
 23 24  1  0
 24 25  2  0
 25 26  1  0
 26 27  1  0
 27 28  2  0
 27 29  1  0
 29 30  2  0
 30 31  1  0
 31 32  1  0
 32 33  2  0
 33 34  1  0
 33 35  1  0
 35 36  1  0
 35 37  2  0
 37 38  1  0
 37 39  1  0
 39 40  1  0
 39 41  2  0
 41 42  1  0
 42 43  1  0
 43 44  1  0
 43 45  1  0
 43 46  1  0
 46 47  1  0
 46 48  1  0
 46 49  1  0
 49 50  1  0
 50 51  1  0
 50 52  1  0
 50 53  1  0
 53 54  1  0
 53 55  1  0
 53 56  1  0
 56 57  1  0
 56 58  1  0
 56 59  1  0
 59 60  1  0
 59 61  1  0
 26 62  2  0
 62 63  1  0
 63 64  1  0
 63 65  1  0
 63 66  1  0
 62 67  1  0
 23  2  1  0
 67 24  1  0
 42 30  1  0
 59 49  1  0
 41 32  1  0
M  CHG  1  31  -1
M  END
>  <UniqueID>  (7) 
7

>  <SMILES>  (7) 
COc1cc(-c2nc(C(=O)/N=c3/[n-]c4ccccc4n3CCN3CCCC3)c(C)o2)cc(OC)c1OC

>  <Energy>  (7) 
154.7645238225439

>  <Genealogy>  (7) 
COc1cc(-c2nc(C(=O)N=c3[n-]c4ccccc4n3CCN3CCCC3)c(C)o2)cc(OC)c1OC (protonated)
COc1cc(-c2nc(C(=O)/N=c3/[n-]c4ccccc4n3CCN3CCCC3)c(C)o2)cc(OC)c1OC (cis-trans isomerization)
COc1cc(-c2nc(C(=O)/N=c3/[n-]c4ccccc4n3CCN3CCCC3)c(C)o2)cc(OC)c1OC (3D coordinates assigned)
COc1cc(-c2nc(C(=O)/N=c3/[n-]c4ccccc4n3CCN3CCCC3)c(C)o2)cc(OC)c1OC (nonaromatic ring conformer: 154.7645238225439 kcal/mol)

>  <smiles>  (7) 
COc1cc(-c2nc(C(=O)N=c3[nH]c4ccccc4n3CCN3CCCC3)c(C)o2)cc(OC)c1OC

>  <score_type>  (7) 
oracle

>  <origin>  (7) 
adg

>  <m_score__min__energy>  (7) 
-10.1

>  <m_primary>  (7) 
energy

$$$$
7:0
     RDKit          3D

 43 46  0  0  1  0  0  0  0  0999 V2000
   64.2450   33.8250   49.0090 F   0  0  0  0  0  0  0  0  0  0  0  0
   63.2330   33.0320   48.6080 C   0  0  0  0  0  0  0  0  0  0  0  0
   61.9750   33.0520   49.1580 C   0  0  0  0  0  0  0  0  0  0  0  0
   60.9710   32.2030   48.6960 C   0  0  0  0  0  0  0  0  0  0  0  0
   61.1790   31.3040   47.6700 C   0  0  0  0  0  0  0  0  0  0  0  0
   60.1340   30.4230   47.1920 C   0  0  0  0  0  0  0  0  0  0  0  0
   59.1310   30.8860   46.3630 C   0  0  0  0  0  0  0  0  0  0  0  0
   58.1160   30.0370   45.8960 C   0  0  0  0  0  0  0  0  0  0  0  0
   57.1830   30.4660   45.1260 N   0  0  0  0  0  0  0  0  0  0  0  0
   57.3200   30.8340   43.7430 C   0  0  0  0  0  0  0  0  0  0  0  0
   57.4890   32.2850   43.4770 C   0  0  0  0  0  0  0  0  0  0  0  0
   58.0010   33.1150   44.5660 C   0  0  0  0  0  0  0  0  0  0  0  0
   57.3070   33.2380   45.7430 C   0  0  0  0  0  0  0  0  0  0  0  0
   57.7510   34.0140   46.8060 C   0  0  0  0  0  0  0  0  0  0  0  0
   58.9430   34.7000   46.6960 C   0  0  0  0  0  0  0  0  0  0  0  0
   59.6610   34.5910   45.5180 C   0  0  0  0  0  0  0  0  0  0  0  0
   59.2050   33.8200   44.4810 C   0  0  0  0  0  0  0  0  0  0  0  0
   58.1010   28.7110   46.2630 C   0  0  0  0  0  0  0  0  0  0  0  0
   57.1570   27.8660   45.8430 N   0  0  0  0  0  0  0  0  0  0  0  0
   57.1500   26.5510   46.2110 C   0  0  0  0  0  0  0  0  0  0  0  0
   58.1660   26.1500   47.0320 C   0  0  0  0  0  0  0  0  0  0  0  0
   59.1330   26.9720   47.4730 N   0  0  0  0  0  0  0  0  0  0  0  0
   59.1160   28.2820   47.0900 C   0  0  0  0  0  0  0  0  0  0  0  0
   60.0920   29.1290   47.5290 N   0  0  0  0  0  0  0  0  0  0  0  0
   62.4540   31.2920   47.1200 C   0  0  0  0  0  0  0  0  0  0  0  0
   63.4590   32.1410   47.5820 C   0  0  0  0  0  0  0  0  0  0  0  0
   61.7556   33.7511   49.9785 H   0  0  0  0  0  0  0  0  0  0  0  0
   59.9776   32.2512   49.1659 H   0  0  0  0  0  0  0  0  0  0  0  0
   59.1278   31.9440   46.0621 H   0  0  0  0  0  0  0  0  0  0  0  0
   58.2001   30.3116   43.3398 H   0  0  0  0  0  0  0  0  0  0  0  0
   56.3730   30.5490   43.2614 H   0  0  0  0  0  0  0  0  0  0  0  0
   58.1842   32.3862   42.6306 H   0  0  0  0  0  0  0  0  0  0  0  0
   56.4700   32.6575   43.2956 H   0  0  0  0  0  0  0  0  0  0  0  0
   56.3551   32.6972   45.8498 H   0  0  0  0  0  0  0  0  0  0  0  0
   57.1565   34.0811   47.7290 H   0  0  0  0  0  0  0  0  0  0  0  0
   59.3142   35.3195   47.5258 H   0  0  0  0  0  0  0  0  0  0  0  0
   60.6130   35.1319   45.4124 H   0  0  0  0  0  0  0  0  0  0  0  0
   59.8012   33.7543   43.5589 H   0  0  0  0  0  0  0  0  0  0  0  0
   56.3713   25.8547   45.8664 H   0  0  0  0  0  0  0  0  0  0  0  0
   58.1937   25.0971   47.3491 H   0  0  0  0  0  0  0  0  0  0  0  0
   60.8020   28.6810   48.1500 H   0  0  0  0  0  0  0  0  0  0  0  0
   62.6769   30.5949   46.2988 H   0  0  0  0  0  0  0  0  0  0  0  0
   64.4548   32.0983   47.1167 H   0  0  0  0  0  0  0  0  0  0  0  0
  1  2  1  0
  2  3  2  0
  3  4  1  0
  4  5  2  0
  5  6  1  0
  6  7  2  0
  7  8  1  0
  8  9  2  0
  9 10  1  0
 10 11  1  0
 11 12  1  0
 12 13  2  0
 13 14  1  0
 14 15  2  0
 15 16  1  0
 16 17  2  0
  8 18  1  0
 18 19  2  0
 19 20  1  0
 20 21  2  0
 21 22  1  0
 22 23  2  0
 23 24  1  0
  5 25  1  0
 25 26  2  0
 26  2  1  0
 24  6  1  0
 17 12  1  0
 23 18  1  0
  3 27  1  0
  4 28  1  0
  7 29  1  0
 10 30  1  0
 10 31  1  0
 11 32  1  0
 11 33  1  0
 13 34  1  0
 14 35  1  0
 15 36  1  0
 16 37  1  0
 17 38  1  0
 20 39  1  0
 21 40  1  0
 24 41  1  0
 25 42  1  0
 26 43  1  0
M  END
>  <smiles>  (8) 
Fc1ccc(-c2cc(=NCCc3ccccc3)c3nccnc3[nH]2)cc1

>  <score_type>  (8) 
oracle

>  <origin>  (8) 
adg

>  <m_score__min__energy>  (8) 
-7.8200000000000003

>  <m_primary>  (8) 
energy

$$$$
8:0
     RDKit          3D

 23 25  0  0  0  0  0  0  0  0999 V2000
   55.6910   27.9510   44.5520 H   0  0  0  0  0  0  0  0  0  0  0  0
   55.5190   28.9460   44.8190 N   0  0  0  0  0  0  0  0  0  0  0  0
   56.4930   29.7390   45.1290 C   0  0  0  0  0  0  0  0  0  0  0  0
   56.4150   31.0770   44.8600 N   0  0  0  0  0  0  0  0  0  0  0  0
   57.4330   31.9350   45.1780 C   0  0  0  0  0  0  0  0  0  0  0  0
   57.3300   33.3000   44.8940 C   0  0  0  0  0  0  0  0  0  0  0  0
   56.4246   33.6950   44.4101 H   0  0  0  0  0  0  0  0  0  0  0  0
   58.3800   34.1630   45.2260 C   0  0  0  0  0  0  0  0  0  0  0  0
   58.2978   35.2366   45.0012 H   0  0  0  0  0  0  0  0  0  0  0  0
   59.5350   33.6670   45.8430 C   0  0  0  0  0  0  0  0  0  0  0  0
   60.3558   34.3527   46.1002 H   0  0  0  0  0  0  0  0  0  0  0  0
   59.6500   32.3030   46.1340 C   0  0  0  0  0  0  0  0  0  0  0  0
   60.5578   31.9155   46.6195 H   0  0  0  0  0  0  0  0  0  0  0  0
   58.6010   31.4330   45.8030 C   0  0  0  0  0  0  0  0  0  0  0  0
   58.6510   30.0990   46.0580 N   0  0  0  0  0  0  0  0  0  0  0  0
   59.6260   29.4110   46.6270 N   0  0  0  0  0  0  0  0  0  0  0  0
   59.2880   28.1260   46.6950 N   0  0  0  0  0  0  0  0  0  0  0  0
   58.0540   28.0050   46.1490 C   0  0  0  0  0  0  0  0  0  0  0  0
   57.3040   26.7190   46.0290 C   0  0  0  0  0  0  0  0  0  0  0  0
   57.0779   26.3313   47.0333 H   0  0  0  0  0  0  0  0  0  0  0  0
   56.3650   26.8917   45.4827 H   0  0  0  0  0  0  0  0  0  0  0  0
   57.9167   25.9868   45.4827 H   0  0  0  0  0  0  0  0  0  0  0  0
   57.6540   29.2630   45.7460 C   0  0  0  0  0  0  0  0  0  0  0  0
  1  2  1  0
  2  3  2  0
  3  4  1  0
  4  5  1  0
  5  6  2  0
  6  7  1  0
  6  8  1  0
  8  9  1  0
  8 10  2  0
 10 11  1  0
 10 12  1  0
 12 13  1  0
 12 14  2  0
 14 15  1  0
 15 16  1  0
 16 17  2  0
 17 18  1  0
 18 19  1  0
 19 20  1  0
 19 21  1  0
 19 22  1  0
 18 23  2  0
 23  3  1  0
 14  5  1  0
 23 15  1  0
M  CHG  1   4  -1
M  END
>  <UniqueID>  (9) 
8

>  <SMILES>  (9) 
[H]/N=c1\[n-]c2ccccc2n2nnc(C)c12

>  <Energy>  (9) 
71.5233642818044

>  <Genealogy>  (9) 
Cc1nnn2c1c(=N)[n-]c1ccccc12 (protonated)
[H]/N=c1\[n-]c2ccccc2n2nnc(C)c12 (cis-trans isomerization)
[H]/N=c1\[n-]c2ccccc2n2nnc(C)c12 (3D coordinates assigned)
[H]/N=c1\[n-]c2ccccc2n2nnc(C)c12 (optimized conformer: 71.5233642818044 kcal/mol)

>  <smiles>  (9) 
Cc1nnn2c1c(=N)[nH]c1ccccc12

>  <score_type>  (9) 
oracle

>  <origin>  (9) 
adg

>  <m_score__min__energy>  (9) 
-8.1999999999999993

>  <m_primary>  (9) 
energy

$$$$
9:0
     RDKit          3D

 29 31  0  0  0  0  0  0  0  0999 V2000
   56.3000   30.2360   44.8600 N   0  0  0  0  0  0  0  0  0  0  0  0
   59.6370   29.8430   45.8380 C   0  0  0  0  0  0  0  0  0  0  0  0
   57.8970   31.8450   45.4970 C   0  0  0  0  0  0  0  0  0  0  0  0
   57.0140   32.8890   45.3260 C   0  0  0  0  0  0  0  0  0  0  0  0
   57.4120   34.1860   45.5690 C   0  0  0  0  0  0  0  0  0  0  0  0
   58.7120   34.4790   45.9920 C   0  0  0  0  0  0  0  0  0  0  0  0
   59.5790   33.4380   46.1580 C   0  0  0  0  0  0  0  0  0  0  0  0
   59.1670   32.1480   45.9120 C   0  0  0  0  0  0  0  0  0  0  0  0
   60.0240   31.1230   46.0750 N   0  0  0  0  0  0  0  0  0  0  0  0
   57.4600   30.5670   45.2440 C   0  0  0  0  0  0  0  0  0  0  0  0
   60.7340   28.6480   46.0580 S   0  0  0  0  0  0  0  0  0  0  0  0
   58.3670   29.5750   45.4260 N   0  0  0  0  0  0  0  0  0  0  0  0
   58.0010   28.2250   45.1890 C   0  0  0  0  0  0  0  0  0  0  0  0
   58.2400   27.7350   43.9050 C   0  0  0  0  0  0  0  0  0  0  0  0
   57.9250   26.4330   43.5570 C   0  0  0  0  0  0  0  0  0  0  0  0
   57.3620   25.6340   44.5340 C   0  0  0  0  0  0  0  0  0  0  0  0
   56.9690   23.9820   44.0650 Cl  0  0  0  0  0  0  0  0  0  0  0  0
   57.1130   26.1000   45.8200 C   0  0  0  0  0  0  0  0  0  0  0  0
   57.4360   27.4130   46.1580 C   0  0  0  0  0  0  0  0  0  0  0  0
   55.3850   30.4640   45.2430 H   0  0  0  0  0  0  0  0  0  0  0  0
   55.9853   32.6860   44.9935 H   0  0  0  0  0  0  0  0  0  0  0  0
   56.6930   35.0064   45.4274 H   0  0  0  0  0  0  0  0  0  0  0  0
   59.0260   35.5154   46.1849 H   0  0  0  0  0  0  0  0  0  0  0  0
   60.6101   33.6306   46.4894 H   0  0  0  0  0  0  0  0  0  0  0  0
   61.0000   31.3360   46.3910 H   0  0  0  0  0  0  0  0  0  0  0  0
   58.6892   28.3988   43.1516 H   0  0  0  0  0  0  0  0  0  0  0  0
   58.1151   26.0496   42.5436 H   0  0  0  0  0  0  0  0  0  0  0  0
   56.6617   25.4334   46.5696 H   0  0  0  0  0  0  0  0  0  0  0  0
   57.2464   27.7956   47.1717 H   0  0  0  0  0  0  0  0  0  0  0  0
  1  2  2  3
  2  3  1  0
  3  4  2  0
  4  5  1  0
  5  6  2  0
  6  7  1  0
  7  8  2  0
  8  9  1  0
  9 10  1  0
 10 11  2  0
 10 12  1  0
 12 13  1  0
 13 14  2  0
 14 15  1  0
 15 16  2  0
 16 17  1  0
 16 18  1  0
 18 19  2  0
 12  2  1  0
 19 13  1  0
  8  3  1  0
  1 20  1  0
  4 21  1  0
  5 22  1  0
  6 23  1  0
  7 24  1  0
  9 25  1  0
 14 26  1  0
 15 27  1  0
 18 28  1  0
 19 29  1  0
M  END
>  <smiles>  (10) 
N=c1c2ccccc2[nH]c(=S)n1-c1ccc(Cl)cc1

>  <score_type>  (10) 
oracle

>  <origin>  (10) 
adg

>  <m_score__min__energy>  (10) 
-7

>  <m_primary>  (10) 
energy

$$$$
10:0
     RDKit          3D

 33 34  0  0  0  0  0  0  0  0999 V2000
   58.1390   27.0770   42.6190 C   0  0  0  0  0  0  0  0  0  0  0  0
   58.5270   27.0830   44.0970 C   0  0  0  0  0  0  0  0  0  0  0  0
   57.3860   27.5760   44.9990 C   0  0  0  0  0  0  0  0  0  0  0  0
   57.1550   29.0470   44.8480 C   0  0  0  0  0  0  0  0  0  0  0  0
   55.9350   29.5960   44.6550 N   0  0  0  0  0  0  0  0  0  0  0  0
   55.9740   30.9180   44.4890 N   0  0  0  0  0  0  0  0  0  0  0  0
   57.2240   31.4280   44.5540 C   0  0  0  0  0  0  0  0  0  0  0  0
   57.5410   32.8680   44.3170 C   0  0  0  0  0  0  0  0  0  0  0  0
   58.3170   33.4210   45.4800 C   0  0  0  0  0  0  0  0  0  0  0  0
   59.2580   34.4430   45.2820 C   0  0  0  0  0  0  0  0  0  0  0  0
   60.0060   34.9310   46.3570 C   0  0  0  0  0  0  0  0  0  0  0  0
   59.8360   34.4010   47.6410 C   0  0  0  0  0  0  0  0  0  0  0  0
   60.6120   34.9250   48.6860 O   0  0  0  0  0  0  0  0  0  0  0  0
   61.6740   34.2230   49.3280 C   0  0  0  0  0  0  0  0  0  0  0  0
   58.9000   33.3670   47.8390 C   0  0  0  0  0  0  0  0  0  0  0  0
   58.1510   32.8790   46.7640 C   0  0  0  0  0  0  0  0  0  0  0  0
   58.3670   30.2150   44.7970 S   0  0  0  0  0  0  0  0  0  0  0  0
   57.0429   27.0600   42.5277 H   0  0  0  0  0  0  0  0  0  0  0  0
   58.5335   27.9814   42.1327 H   0  0  0  0  0  0  0  0  0  0  0  0
   58.5613   26.1853   42.1327 H   0  0  0  0  0  0  0  0  0  0  0  0
   58.7965   26.0592   44.3958 H   0  0  0  0  0  0  0  0  0  0  0  0
   59.3740   27.7742   44.2190 H   0  0  0  0  0  0  0  0  0  0  0  0
   56.4631   27.0411   44.7304 H   0  0  0  0  0  0  0  0  0  0  0  0
   57.6667   27.3792   46.0442 H   0  0  0  0  0  0  0  0  0  0  0  0
   58.1414   32.9629   43.4002 H   0  0  0  0  0  0  0  0  0  0  0  0
   56.6026   33.4315   44.2079 H   0  0  0  0  0  0  0  0  0  0  0  0
   59.4076   34.8620   44.2760 H   0  0  0  0  0  0  0  0  0  0  0  0
   60.7346   35.7385   46.1924 H   0  0  0  0  0  0  0  0  0  0  0  0
   61.5575   34.3000   50.4191 H   0  0  0  0  0  0  0  0  0  0  0  0
   61.6466   33.1645   49.0301 H   0  0  0  0  0  0  0  0  0  0  0  0
   62.6372   34.6630   49.0301 H   0  0  0  0  0  0  0  0  0  0  0  0
   58.7578   32.9418   48.8435 H   0  0  0  0  0  0  0  0  0  0  0  0
   57.4278   32.0660   46.9254 H   0  0  0  0  0  0  0  0  0  0  0  0
  1  2  1  0
  2  3  1  0
  3  4  1  0
  4  5  2  0
  5  6  1  0
  6  7  2  0
  7  8  1  0
  8  9  1  0
  9 10  2  0
 10 11  1  0
 11 12  2  0
 12 13  1  0
 13 14  1  0
 12 15  1  0
 15 16  2  0
  7 17  1  0
 17  4  1  0
 16  9  1  0
  1 18  1  0
  1 19  1  0
  1 20  1  0
  2 21  1  0
  2 22  1  0
  3 23  1  0
  3 24  1  0
  8 25  1  0
  8 26  1  0
 10 27  1  0
 11 28  1  0
 14 29  1  0
 14 30  1  0
 14 31  1  0
 15 32  1  0
 16 33  1  0
M  END
>  <UniqueID>  (11) 
9

>  <SMILES>  (11) 
CCCc1nnc(Cc2ccc(OC)cc2)s1

>  <Energy>  (11) 
57.9426707484856

>  <Genealogy>  (11) 
CCCc1nnc(Cc2ccc(OC)cc2)s1 (3D coordinates assigned)
CCCc1nnc(Cc2ccc(OC)cc2)s1 (optimized conformer: 57.9426707484856 kcal/mol)

>  <smiles>  (11) 
CCCc1nnc(Cc2ccc(OC)cc2)s1

>  <score_type>  (11) 
oracle

>  <origin>  (11) 
adg

>  <m_score__min__energy>  (11) 
-6.7400000000000002

>  <m_primary>  (11) 
energy

$$$$
11:0
     RDKit          3D

 41 44  0  0  0  0  0  0  0  0999 V2000
   64.2100   33.4610   48.1110 N   0  0  0  0  0  0  0  0  0  0  0  0
   63.1200   33.2660   47.7760 C   0  0  0  0  0  0  0  0  0  0  0  0
   61.7650   33.0240   47.3590 C   0  0  0  0  0  0  0  0  0  0  0  0
   61.0610   33.8570   46.5600 N   0  0  0  0  0  0  0  0  0  0  0  0
   59.8550   33.2510   46.4230 C   0  0  0  0  0  0  0  0  0  0  0  0
   58.7560   33.8040   45.5650 C   0  0  0  0  0  0  0  0  0  0  0  0
   58.8810   33.2770   44.1290 C   0  0  0  0  0  0  0  0  0  0  0  0
   57.5540   32.7160   43.5990 C   0  0  0  0  0  0  0  0  0  0  0  0
   57.2310   31.3830   44.2090 C   0  0  0  0  0  0  0  0  0  0  0  0
   56.1340   31.2320   44.8110 O   0  0  0  0  0  0  0  0  0  0  0  0
   58.1290   30.2750   44.0340 N   0  0  0  0  0  0  0  0  0  0  0  0
   57.9630   28.9960   44.6680 C   0  0  0  0  0  0  0  0  0  0  0  0
   59.1150   28.2520   45.0330 C   0  0  0  0  0  0  0  0  0  0  0  0
   58.9950   27.0050   45.6750 C   0  0  0  0  0  0  0  0  0  0  0  0
   57.7110   26.5450   45.9470 C   0  0  0  0  0  0  0  0  0  0  0  0
   57.2480   25.4060   46.5580 C   0  0  0  0  0  0  0  0  0  0  0  0
   55.8960   25.4660   46.5820 N   0  0  0  0  0  0  0  0  0  0  0  0
   55.4940   26.5990   46.0100 N   0  0  0  0  0  0  0  0  0  0  0  0
   56.5990   27.2580   45.6210 C   0  0  0  0  0  0  0  0  0  0  0  0
   56.6760   28.4940   44.9850 C   0  0  0  0  0  0  0  0  0  0  0  0
   59.7940   32.0780   47.0910 N   0  0  0  0  0  0  0  0  0  0  0  0
   58.7950   31.1610   47.1990 C   0  0  0  0  0  0  0  0  0  0  0  0
   59.0290   30.0140   47.9730 C   0  0  0  0  0  0  0  0  0  0  0  0
   60.2760   29.8450   48.6050 C   0  0  0  0  0  0  0  0  0  0  0  0
   61.2800   30.8160   48.4630 C   0  0  0  0  0  0  0  0  0  0  0  0
   60.9880   31.9340   47.6820 C   0  0  0  0  0  0  0  0  0  0  0  0
   57.7840   33.4986   45.9797 H   0  0  0  0  0  0  0  0  0  0  0  0
   58.8330   34.9012   45.5501 H   0  0  0  0  0  0  0  0  0  0  0  0
   59.2029   34.1015   43.4759 H   0  0  0  0  0  0  0  0  0  0  0  0
   59.6159   32.4585   44.1327 H   0  0  0  0  0  0  0  0  0  0  0  0
   56.7466   33.4232   43.8398 H   0  0  0  0  0  0  0  0  0  0  0  0
   57.6490   32.5812   42.5114 H   0  0  0  0  0  0  0  0  0  0  0  0
   58.8910   30.3740   43.3250 H   0  0  0  0  0  0  0  0  0  0  0  0
   60.1143   28.6548   44.8115 H   0  0  0  0  0  0  0  0  0  0  0  0
   59.8827   26.4169   45.9510 H   0  0  0  0  0  0  0  0  0  0  0  0
   57.8666   24.5889   46.9575 H   0  0  0  0  0  0  0  0  0  0  0  0
   55.7676   29.0625   44.7366 H   0  0  0  0  0  0  0  0  0  0  0  0
   57.8302   31.3144   46.6935 H   0  0  0  0  0  0  0  0  0  0  0  0
   58.2436   29.2521   48.0852 H   0  0  0  0  0  0  0  0  0  0  0  0
   60.4644   28.9478   49.2129 H   0  0  0  0  0  0  0  0  0  0  0  0
   62.2598   30.6994   48.9493 H   0  0  0  0  0  0  0  0  0  0  0  0
  1  2  3  0
  2  3  1  0
  3  4  1  0
  4  5  2  0
  5  6  1  0
  6  7  1  0
  7  8  1  0
  8  9  1  0
  9 10  2  0
  9 11  1  0
 11 12  1  0
 12 13  1  0
 13 14  2  0
 14 15  1  0
 15 16  2  0
 16 17  1  0
 17 18  1  0
 18 19  2  0
 19 20  1  0
  5 21  1  0
 21 22  1  0
 22 23  2  0
 23 24  1  0
 24 25  2  0
 25 26  1  0
 26  3  2  0
 20 12  2  0
 26 21  1  0
 19 15  1  0
  6 27  1  0
  6 28  1  0
  7 29  1  0
  7 30  1  0
  8 31  1  0
  8 32  1  0
 11 33  1  0
 13 34  1  0
 14 35  1  0
 16 36  1  0
 20 37  1  0
 22 38  1  0
 23 39  1  0
 24 40  1  0
 25 41  1  0
M  CHG  1  17  -1
M  END
>  <UniqueID>  (12) 
10

>  <SMILES>  (12) 
N#Cc1nc(CCCC(=O)Nc2ccc3c[n-]nc3c2)n2ccccc12

>  <Energy>  (12) 
115.7429459432651

>  <Genealogy>  (12) 
N#Cc1nc(CCCC(=O)Nc2ccc3c[n-]nc3c2)n2ccccc12 (protonated)
N#Cc1nc(CCCC(=O)Nc2ccc3c[n-]nc3c2)n2ccccc12 (3D coordinates assigned)
N#Cc1nc(CCCC(=O)Nc2ccc3c[n-]nc3c2)n2ccccc12 (optimized conformer: 115.7429459432651 kcal/mol)

>  <smiles>  (12) 
N#Cc1nc(CCCC(=O)Nc2ccc3c[nH]nc3c2)n2ccccc12

>  <score_type>  (12) 
oracle

>  <origin>  (12) 
adg

>  <m_score__min__energy>  (12) 
-11.23

>  <m_primary>  (12) 
energy

$$$$
12:0
     RDKit          3D

 24 24  0  0  0  0  0  0  0  0999 V2000
   62.2960   33.8390   46.7590 C   0  0  0  0  0  0  0  0  0  0  0  0
   61.0980   33.4360   47.5400 N   0  0  0  0  0  0  0  0  0  0  0  0
   61.1000   34.2190   48.8000 C   0  0  0  0  0  0  0  0  0  0  0  0
   61.2350   31.9920   47.8560 C   0  0  0  0  0  0  0  0  0  0  0  0
   59.8270   33.6640   46.8210 C   0  0  0  0  0  0  0  0  0  0  0  0
   58.5690   33.2140   47.3100 C   0  0  0  0  0  0  0  0  0  0  0  0
   57.3900   33.4500   46.5970 C   0  0  0  0  0  0  0  0  0  0  0  0
   57.4250   34.1380   45.3860 C   0  0  0  0  0  0  0  0  0  0  0  0
   58.6400   34.5910   44.8800 C   0  0  0  0  0  0  0  0  0  0  0  0
   59.8240   34.3610   45.5830 C   0  0  0  0  0  0  0  0  0  0  0  0
   63.1083   34.1123   47.4485 H   0  0  0  0  0  0  0  0  0  0  0  0
   62.6197   33.0003   46.1251 H   0  0  0  0  0  0  0  0  0  0  0  0
   62.0469   34.7028   46.1251 H   0  0  0  0  0  0  0  0  0  0  0  0
   61.0982   33.5317   49.6588 H   0  0  0  0  0  0  0  0  0  0  0  0
   61.9998   34.8507   48.8377 H   0  0  0  0  0  0  0  0  0  0  0  0
   60.2035   34.8553   48.8377 H   0  0  0  0  0  0  0  0  0  0  0  0
   61.2480   31.8551   48.9474 H   0  0  0  0  0  0  0  0  0  0  0  0
   60.3851   31.4406   47.4274 H   0  0  0  0  0  0  0  0  0  0  0  0
   62.1734   31.6103   47.4274 H   0  0  0  0  0  0  0  0  0  0  0  0
   58.5233   32.6710   48.2656 H   0  0  0  0  0  0  0  0  0  0  0  0
   56.4293   33.0905   46.9943 H   0  0  0  0  0  0  0  0  0  0  0  0
   56.4937   34.3230   44.8305 H   0  0  0  0  0  0  0  0  0  0  0  0
   58.6674   35.1322   43.9227 H   0  0  0  0  0  0  0  0  0  0  0  0
   60.7752   34.7274   45.1694 H   0  0  0  0  0  0  0  0  0  0  0  0
  1  2  1  0
  2  3  1  0
  2  4  1  0
  2  5  1  0
  5  6  2  0
  6  7  1  0
  7  8  2  0
  8  9  1  0
  9 10  2  0
 10  5  1  0
  1 11  1  0
  1 12  1  0
  1 13  1  0
  3 14  1  0
  3 15  1  0
  3 16  1  0
  4 17  1  0
  4 18  1  0
  4 19  1  0
  6 20  1  0
  7 21  1  0
  8 22  1  0
  9 23  1  0
 10 24  1  0
M  CHG  1   2   1
M  END
>  <UniqueID>  (13) 
11

>  <SMILES>  (13) 
C[N+](C)(C)c1ccccc1

>  <Energy>  (13) 
34.97028991394155

>  <Genealogy>  (13) 
C[N+](C)(C)c1ccccc1 (3D coordinates assigned)
C[N+](C)(C)c1ccccc1 (optimized conformer: 34.97028991394155 kcal/mol)

>  <smiles>  (13) 
C[N+](C)(C)c1ccccc1

>  <score_type>  (13) 
oracle

>  <origin>  (13) 
adg

>  <m_score__min__energy>  (13) 
-2.7000000000000002

>  <m_primary>  (13) 
energy

$$$$
13:0
     RDKit          3D

 30 31  0  0  0  0  0  0  0  0999 V2000
   56.3150   29.7770   43.2090 C   0  0  0  0  0  0  0  0  0  0  0  0
   56.2870   30.3890   44.4940 O   0  0  0  0  0  0  0  0  0  0  0  0
   57.3540   31.1060   45.0570 C   0  0  0  0  0  0  0  0  0  0  0  0
   58.3630   30.3900   45.7020 C   0  0  0  0  0  0  0  0  0  0  0  0
   59.4640   31.0420   46.2910 C   0  0  0  0  0  0  0  0  0  0  0  0
   60.4730   30.3040   46.9370 O   0  0  0  0  0  0  0  0  0  0  0  0
   60.3570   29.7160   48.2280 C   0  0  0  0  0  0  0  0  0  0  0  0
   59.5530   32.4580   46.2280 C   0  0  0  0  0  0  0  0  0  0  0  0
   60.6380   33.1740   46.8020 C   0  0  0  0  0  0  0  0  0  0  0  0
   61.6690   32.4810   47.4580 O   0  0  0  0  0  0  0  0  0  0  0  0
   63.0510   32.8230   47.4010 C   0  0  0  0  0  0  0  0  0  0  0  0
   60.6660   34.5800   46.7060 C   0  0  0  0  0  0  0  0  0  0  0  0
   59.6450   35.2710   46.0560 C   0  0  0  0  0  0  0  0  0  0  0  0
   58.5790   34.5800   45.4920 C   0  0  0  0  0  0  0  0  0  0  0  0
   58.5200   33.1820   45.5690 C   0  0  0  0  0  0  0  0  0  0  0  0
   57.4370   32.5040   44.9930 C   0  0  0  0  0  0  0  0  0  0  0  0
   56.3650   28.6842   43.3243 H   0  0  0  0  0  0  0  0  0  0  0  0
   55.4036   30.0459   42.6549 H   0  0  0  0  0  0  0  0  0  0  0  0
   57.1980   30.1280   42.6549 H   0  0  0  0  0  0  0  0  0  0  0  0
   58.2973   29.2931   45.7516 H   0  0  0  0  0  0  0  0  0  0  0  0
   60.5092   30.4874   48.9973 H   0  0  0  0  0  0  0  0  0  0  0  0
   59.3549   29.2769   48.3422 H   0  0  0  0  0  0  0  0  0  0  0  0
   61.1172   28.9292   48.3422 H   0  0  0  0  0  0  0  0  0  0  0  0
   63.4469   32.9210   48.4226 H   0  0  0  0  0  0  0  0  0  0  0  0
   63.6023   32.0342   46.8682 H   0  0  0  0  0  0  0  0  0  0  0  0
   63.1708   33.7779   46.8682 H   0  0  0  0  0  0  0  0  0  0  0  0
   61.5036   35.1385   47.1494 H   0  0  0  0  0  0  0  0  0  0  0  0
   59.6830   36.3683   45.9890 H   0  0  0  0  0  0  0  0  0  0  0  0
   57.7769   35.1338   44.9822 H   0  0  0  0  0  0  0  0  0  0  0  0
   56.6447   33.0742   44.4859 H   0  0  0  0  0  0  0  0  0  0  0  0
  1  2  1  0
  2  3  1  0
  3  4  2  0
  4  5  1  0
  5  6  1  0
  6  7  1  0
  5  8  2  0
  8  9  1  0
  9 10  1  0
 10 11  1  0
  9 12  2  0
 12 13  1  0
 13 14  2  0
 14 15  1  0
 15 16  2  0
 16  3  1  0
 15  8  1  0
  1 17  1  0
  1 18  1  0
  1 19  1  0
  4 20  1  0
  7 21  1  0
  7 22  1  0
  7 23  1  0
 11 24  1  0
 11 25  1  0
 11 26  1  0
 12 27  1  0
 13 28  1  0
 14 29  1  0
 16 30  1  0
M  END
>  <UniqueID>  (14) 
12

>  <SMILES>  (14) 
COc1cc(OC)c2c(OC)cccc2c1

>  <Energy>  (14) 
34.95735185987466

>  <Genealogy>  (14) 
COc1cc(OC)c2c(OC)cccc2c1 (3D coordinates assigned)
COc1cc(OC)c2c(OC)cccc2c1 (optimized conformer: 34.95735185987466 kcal/mol)

>  <smiles>  (14) 
COc1cc(OC)c2c(OC)cccc2c1

>  <score_type>  (14) 
oracle

>  <origin>  (14) 
adg

>  <m_score__min__energy>  (14) 
-5.0800000000000001

>  <m_primary>  (14) 
energy

$$$$
14:0
     RDKit          3D

 49 52  0  0  0  0  0  0  0  0999 V2000
   64.4910   33.8200   51.2470 C   0  0  0  0  0  0  0  0  0  0  0  0
   64.6770   32.5140   50.6160 N   0  0  0  0  0  0  0  0  0  0  0  0
   65.9930   32.1220   50.1100 C   0  0  0  0  0  0  0  0  0  0  0  0
   63.5400   31.6800   50.3400 C   0  0  0  0  0  0  0  0  0  0  0  0
   63.3540   30.5060   51.0800 C   0  0  0  0  0  0  0  0  0  0  0  0
   62.2530   29.6880   50.8190 C   0  0  0  0  0  0  0  0  0  0  0  0
   61.3570   30.0350   49.8580 N   0  0  0  0  0  0  0  0  0  0  0  0
   61.5010   31.1700   49.1200 C   0  0  0  0  0  0  0  0  0  0  0  0
   60.5430   31.4940   48.1540 C   0  0  0  0  0  0  0  0  0  0  0  0
   60.6700   32.6660   47.3840 C   0  0  0  0  0  0  0  0  0  0  0  0
   59.6320   33.0140   46.3790 C   0  0  0  0  0  0  0  0  0  0  0  0
   59.6230   34.2790   45.7640 C   0  0  0  0  0  0  0  0  0  0  0  0
   58.6100   34.6210   44.8670 C   0  0  0  0  0  0  0  0  0  0  0  0
   57.5870   33.7130   44.5830 C   0  0  0  0  0  0  0  0  0  0  0  0
   57.5830   32.4460   45.1750 C   0  0  0  0  0  0  0  0  0  0  0  0
   56.5080   31.5450   44.8700 N   0  0  0  0  0  0  0  0  0  0  0  0
   56.6920   29.8820   44.4180 S   0  0  0  0  0  0  0  0  0  0  0  0
   55.4800   29.1100   44.8580 O   0  0  0  0  0  0  0  0  0  0  0  0
   56.8080   29.7970   42.9210 O   0  0  0  0  0  0  0  0  0  0  0  0
   58.1170   29.1860   45.1900 C   0  0  0  0  0  0  0  0  0  0  0  0
   59.3660   29.2340   44.5500 C   0  0  0  0  0  0  0  0  0  0  0  0
   60.5040   28.7330   45.1910 C   0  0  0  0  0  0  0  0  0  0  0  0
   60.3980   28.1770   46.4700 C   0  0  0  0  0  0  0  0  0  0  0  0
   59.1540   28.1220   47.1080 C   0  0  0  0  0  0  0  0  0  0  0  0
   58.0150   28.6250   46.4710 C   0  0  0  0  0  0  0  0  0  0  0  0
   58.6230   32.0940   46.0530 C   0  0  0  0  0  0  0  0  0  0  0  0
   61.7760   33.5070   47.5990 C   0  0  0  0  0  0  0  0  0  0  0  0
   62.7320   33.1950   48.5700 C   0  0  0  0  0  0  0  0  0  0  0  0
   62.6060   32.0240   49.3400 C   0  0  0  0  0  0  0  0  0  0  0  0
   64.5075   33.7044   52.3408 H   0  0  0  0  0  0  0  0  0  0  0  0
   65.3020   34.4956   50.9374 H   0  0  0  0  0  0  0  0  0  0  0  0
   63.5236   34.2424   50.9374 H   0  0  0  0  0  0  0  0  0  0  0  0
   66.6664   31.9214   50.9563 H   0  0  0  0  0  0  0  0  0  0  0  0
   65.8945   31.2142   49.4967 H   0  0  0  0  0  0  0  0  0  0  0  0
   66.4073   32.9357   49.4967 H   0  0  0  0  0  0  0  0  0  0  0  0
   64.0733   30.2289   51.8648 H   0  0  0  0  0  0  0  0  0  0  0  0
   62.1105   28.7603   51.3927 H   0  0  0  0  0  0  0  0  0  0  0  0
   59.6827   30.8274   47.9943 H   0  0  0  0  0  0  0  0  0  0  0  0
   60.4192   35.0031   45.9914 H   0  0  0  0  0  0  0  0  0  0  0  0
   58.6171   35.6084   44.3822 H   0  0  0  0  0  0  0  0  0  0  0  0
   56.7807   33.9960   43.8903 H   0  0  0  0  0  0  0  0  0  0  0  0
   59.4498   29.6666   43.5421 H   0  0  0  0  0  0  0  0  0  0  0  0
   61.4820   28.7763   44.6893 H   0  0  0  0  0  0  0  0  0  0  0  0
   61.2927   27.7830   46.9743 H   0  0  0  0  0  0  0  0  0  0  0  0
   59.0716   27.6822   48.1129 H   0  0  0  0  0  0  0  0  0  0  0  0
   57.0384   28.5805   46.9753 H   0  0  0  0  0  0  0  0  0  0  0  0
   58.6464   31.0849   46.4901 H   0  0  0  0  0  0  0  0  0  0  0  0
   61.8903   34.4203   46.9967 H   0  0  0  0  0  0  0  0  0  0  0  0
   63.5867   33.8680   48.7329 H   0  0  0  0  0  0  0  0  0  0  0  0
  1  2  1  0
  2  3  1  0
  2  4  1  0
  4  5  2  0
  5  6  1  0
  6  7  2  0
  7  8  1  0
  8  9  2  0
  9 10  1  0
 10 11  1  0
 11 12  2  0
 12 13  1  0
 13 14  2  0
 14 15  1  0
 15 16  1  0
 16 17  1  0
 17 18  2  0
 17 19  2  0
 17 20  1  0
 20 21  2  0
 21 22  1  0
 22 23  2  0
 23 24  1  0
 24 25  2  0
 15 26  2  0
 10 27  2  0
 27 28  1  0
 28 29  2  0
 29  4  1  0
 29  8  1  0
 26 11  1  0
 25 20  1  0
  1 30  1  0
  1 31  1  0
  1 32  1  0
  3 33  1  0
  3 34  1  0
  3 35  1  0
  5 36  1  0
  6 37  1  0
  9 38  1  0
 12 39  1  0
 13 40  1  0
 14 41  1  0
 21 42  1  0
 22 43  1  0
 23 44  1  0
 24 45  1  0
 25 46  1  0
 26 47  1  0
 27 48  1  0
 28 49  1  0
M  CHG  1  16  -1
M  END
>  <UniqueID>  (15) 
13

>  <SMILES>  (15) 
CN(C)c1ccnc2cc(-c3cccc([N-]S(=O)(=O)c4ccccc4)c3)ccc12

>  <Energy>  (15) 
68.45507859767787

>  <Genealogy>  (15) 
CN(C)c1ccnc2cc(-c3cccc([N-]S(=O)(=O)c4ccccc4)c3)ccc12 (protonated)
CN(C)c1ccnc2cc(-c3cccc([N-]S(=O)(=O)c4ccccc4)c3)ccc12 (3D coordinates assigned)
CN(C)c1ccnc2cc(-c3cccc([N-]S(=O)(=O)c4ccccc4)c3)ccc12 (optimized conformer: 68.45507859767787 kcal/mol)

>  <smiles>  (15) 
CN(C)c1ccnc2cc(-c3cccc(NS(=O)(=O)c4ccccc4)c3)ccc12

>  <score_type>  (15) 
oracle

>  <origin>  (15) 
adg

>  <m_score__min__energy>  (15) 
-10.970000000000001

>  <m_primary>  (15) 
energy

$$$$
15:0
     RDKit          3D

 36 38  0  0  0  0  0  0  0  0999 V2000
   57.9300   27.0960   42.6800 C   0  0  0  0  0  0  0  0  0  0  0  0
   58.5970   27.8460   43.7880 C   0  0  0  0  0  0  0  0  0  0  0  0
   59.8740   28.1470   43.8040 O   0  0  0  0  0  0  0  0  0  0  0  0
   60.1940   28.7900   44.8900 N   0  0  0  0  0  0  0  0  0  0  0  0
   59.0710   28.9230   45.6240 C   0  0  0  0  0  0  0  0  0  0  0  0
   59.0290   29.6640   46.9020 C   0  0  0  0  0  0  0  0  0  0  0  0
   59.2820   31.0460   46.9460 C   0  0  0  0  0  0  0  0  0  0  0  0
   59.2600   31.7300   48.1650 C   0  0  0  0  0  0  0  0  0  0  0  0
   58.9990   31.0380   49.3520 C   0  0  0  0  0  0  0  0  0  0  0  0
   58.9730   31.8980   50.8810 Cl  0  0  0  0  0  0  0  0  0  0  0  0
   58.7700   29.6590   49.3190 C   0  0  0  0  0  0  0  0  0  0  0  0
   58.7920   28.9720   48.1010 C   0  0  0  0  0  0  0  0  0  0  0  0
   58.0160   28.3210   44.9510 C   0  0  0  0  0  0  0  0  0  0  0  0
   56.6270   28.1260   45.4060 C   0  0  0  0  0  0  0  0  0  0  0  0
   56.3610   27.2190   46.2400 O   0  0  0  0  0  0  0  0  0  0  0  0
   55.5830   28.9630   44.9000 N   0  0  0  0  0  0  0  0  0  0  0  0
   55.6540   29.6420   43.6110 C   0  0  0  0  0  0  0  0  0  0  0  0
   56.5200   30.8620   43.7190 C   0  0  0  0  0  0  0  0  0  0  0  0
   57.2610   31.3110   42.6150 C   0  0  0  0  0  0  0  0  0  0  0  0
   58.0960   32.4200   42.7580 C   0  0  0  0  0  0  0  0  0  0  0  0
   58.1900   33.0660   43.9920 C   0  0  0  0  0  0  0  0  0  0  0  0
   57.4420   32.5880   45.0710 C   0  0  0  0  0  0  0  0  0  0  0  0
   56.6350   31.5050   44.9140 N   0  0  0  0  0  0  0  0  0  0  0  0
   57.2556   26.3377   43.1045 H   0  0  0  0  0  0  0  0  0  0  0  0
   57.3507   27.7961   42.0601 H   0  0  0  0  0  0  0  0  0  0  0  0
   58.6929   26.6024   42.0601 H   0  0  0  0  0  0  0  0  0  0  0  0
   59.4985   31.5923   46.0161 H   0  0  0  0  0  0  0  0  0  0  0  0
   59.4481   32.8135   48.1906 H   0  0  0  0  0  0  0  0  0  0  0  0
   58.5721   29.1132   50.2533 H   0  0  0  0  0  0  0  0  0  0  0  0
   58.6230   27.8852   48.0820 H   0  0  0  0  0  0  0  0  0  0  0  0
   56.0804   28.9581   42.8624 H   0  0  0  0  0  0  0  0  0  0  0  0
   54.6412   29.9448   43.3069 H   0  0  0  0  0  0  0  0  0  0  0  0
   57.1844   30.7942   41.6470 H   0  0  0  0  0  0  0  0  0  0  0  0
   58.6793   32.7846   41.8996 H   0  0  0  0  0  0  0  0  0  0  0  0
   58.8453   33.9411   44.1134 H   0  0  0  0  0  0  0  0  0  0  0  0
   57.5061   33.0884   46.0485 H   0  0  0  0  0  0  0  0  0  0  0  0
  1  2  1  0
  2  3  1  0
  3  4  1  0
  4  5  2  0
  5  6  1  0
  6  7  2  0
  7  8  1  0
  8  9  2  0
  9 10  1  0
  9 11  1  0
 11 12  2  0
  5 13  1  0
 13 14  1  0
 14 15  2  0
 14 16  1  0
 16 17  1  0
 17 18  1  0
 18 19  2  0
 19 20  1  0
 20 21  2  0
 21 22  1  0
 22 23  2  0
 13  2  2  0
 23 18  1  0
 12  6  1  0
  1 24  1  0
  1 25  1  0
  1 26  1  0
  7 27  1  0
  8 28  1  0
 11 29  1  0
 12 30  1  0
 17 31  1  0
 17 32  1  0
 19 33  1  0
 20 34  1  0
 21 35  1  0
 22 36  1  0
M  CHG  1  16  -1
M  END
>  <UniqueID>  (16) 
14

>  <SMILES>  (16) 
Cc1onc(-c2ccc(Cl)cc2)c1C(=O)[N-]Cc1ccccn1

>  <Energy>  (16) 
71.79887158828527

>  <Genealogy>  (16) 
Cc1onc(-c2ccc(Cl)cc2)c1C(=O)[N-]Cc1ccccn1 (protonated)
Cc1onc(-c2ccc(Cl)cc2)c1C(=O)[N-]Cc1ccccn1 (3D coordinates assigned)
Cc1onc(-c2ccc(Cl)cc2)c1C(=O)[N-]Cc1ccccn1 (optimized conformer: 71.79887158828527 kcal/mol)

>  <smiles>  (16) 
Cc1onc(-c2ccc(Cl)cc2)c1C(=O)NCc1ccccn1

>  <score_type>  (16) 
oracle

>  <origin>  (16) 
adg

>  <m_score__min__energy>  (16) 
-9.9700000000000006

>  <m_primary>  (16) 
energy

$$$$
16:0
     RDKit          3D

 46 49  0  0  0  0  0  0  0  0999 V2000
   58.6020   34.9310   44.8810 C   0  0  0  0  0  0  0  0  0  0  0  0
   59.3070   33.8640   45.6680 C   0  0  0  0  0  0  0  0  0  0  0  0
   60.4570   34.1570   46.4330 C   0  0  0  0  0  0  0  0  0  0  0  0
   61.1120   33.1420   47.1640 C   0  0  0  0  0  0  0  0  0  0  0  0
   60.6280   31.8220   47.1420 C   0  0  0  0  0  0  0  0  0  0  0  0
   59.4930   31.5590   46.3810 C   0  0  0  0  0  0  0  0  0  0  0  0
   58.8150   30.3780   46.1710 C   0  0  0  0  0  0  0  0  0  0  0  0
   57.7620   30.7110   45.3220 C   0  0  0  0  0  0  0  0  0  0  0  0
   56.7690   29.7470   44.8000 C   0  0  0  0  0  0  0  0  0  0  0  0
   55.6010   30.1600   44.5520 O   0  0  0  0  0  0  0  0  0  0  0  0
   57.0930   28.3410   44.6520 N   0  0  0  0  0  0  0  0  0  0  0  0
   57.3420   27.6940   45.9660 C   0  0  0  0  0  0  0  0  0  0  0  0
   58.0690   26.3370   45.8380 C   0  0  0  0  0  0  0  0  0  0  0  0
   58.0120   25.8280   44.4620 N   0  0  0  0  0  0  0  0  0  0  0  0
   57.6660   24.4550   44.1960 C   0  0  0  0  0  0  0  0  0  0  0  0
   58.3120   23.4130   44.8850 C   0  0  0  0  0  0  0  0  0  0  0  0
   57.9660   22.0810   44.6360 C   0  0  0  0  0  0  0  0  0  0  0  0
   56.9720   21.7770   43.7030 C   0  0  0  0  0  0  0  0  0  0  0  0
   56.3180   22.8050   43.0200 C   0  0  0  0  0  0  0  0  0  0  0  0
   56.6590   24.1390   43.2650 C   0  0  0  0  0  0  0  0  0  0  0  0
   58.4250   26.7110   43.3620 C   0  0  0  0  0  0  0  0  0  0  0  0
   58.2500   28.1870   43.7510 C   0  0  0  0  0  0  0  0  0  0  0  0
   57.7900   32.0320   45.0140 N   0  0  0  0  0  0  0  0  0  0  0  0
   58.8510   32.5390   45.6690 C   0  0  0  0  0  0  0  0  0  0  0  0
   58.1302   35.6450   45.5721 H   0  0  0  0  0  0  0  0  0  0  0  0
   59.3290   35.4599   44.2472 H   0  0  0  0  0  0  0  0  0  0  0  0
   57.8303   34.4697   44.2472 H   0  0  0  0  0  0  0  0  0  0  0  0
   60.8462   35.1855   46.4597 H   0  0  0  0  0  0  0  0  0  0  0  0
   62.0073   33.3856   47.7549 H   0  0  0  0  0  0  0  0  0  0  0  0
   61.1301   31.0234   47.7078 H   0  0  0  0  0  0  0  0  0  0  0  0
   59.0536   29.3869   46.5843 H   0  0  0  0  0  0  0  0  0  0  0  0
   56.2660   27.8540   44.2280 H   0  0  0  0  0  0  0  0  0  0  0  0
   57.9604   28.3675   46.5776 H   0  0  0  0  0  0  0  0  0  0  0  0
   56.3637   27.5026   46.4311 H   0  0  0  0  0  0  0  0  0  0  0  0
   59.1220   26.4660   46.1288 H   0  0  0  0  0  0  0  0  0  0  0  0
   57.5688   25.6120   46.4970 H   0  0  0  0  0  0  0  0  0  0  0  0
   59.0932   23.6468   45.6233 H   0  0  0  0  0  0  0  0  0  0  0  0
   58.4778   21.2709   45.1762 H   0  0  0  0  0  0  0  0  0  0  0  0
   56.7043   20.7284   43.5062 H   0  0  0  0  0  0  0  0  0  0  0  0
   55.5330   22.5648   42.2878 H   0  0  0  0  0  0  0  0  0  0  0  0
   56.1378   24.9449   42.7276 H   0  0  0  0  0  0  0  0  0  0  0  0
   59.4830   26.5232   43.1268 H   0  0  0  0  0  0  0  0  0  0  0  0
   57.7943   26.5006   42.4857 H   0  0  0  0  0  0  0  0  0  0  0  0
   59.1583   28.5384   44.2623 H   0  0  0  0  0  0  0  0  0  0  0  0
   58.0786   28.7807   42.8410 H   0  0  0  0  0  0  0  0  0  0  0  0
   57.1460   32.5530   44.3800 H   0  0  0  0  0  0  0  0  0  0  0  0
  1  2  1  0
  2  3  2  0
  3  4  1  0
  4  5  2  0
  5  6  1  0
  6  7  1  0
  7  8  2  0
  8  9  1  0
  9 10  2  0
  9 11  1  0
 11 12  1  0
 12 13  1  0
 13 14  1  0
 14 15  1  0
 15 16  2  0
 16 17  1  0
 17 18  2  0
 18 19  1  0
 19 20  2  0
 14 21  1  0
 21 22  1  0
  8 23  1  0
 23 24  1  0
 24  2  1  0
 24  6  2  0
 22 11  1  0
 20 15  1  0
  1 25  1  0
  1 26  1  0
  1 27  1  0
  3 28  1  0
  4 29  1  0
  5 30  1  0
  7 31  1  0
 11 32  1  0
 12 33  1  0
 12 34  1  0
 13 35  1  0
 13 36  1  0
 16 37  1  0
 17 38  1  0
 18 39  1  0
 19 40  1  0
 20 41  1  0
 21 42  1  0
 21 43  1  0
 22 44  1  0
 22 45  1  0
 23 46  1  0
M  CHG  1  11   1
M  END
>  <UniqueID>  (17) 
15

>  <SMILES>  (17) 
Cc1cccc2cc(C(=O)[NH+]3CCN(c4ccccc4)CC3)[nH]c12

>  <Energy>  (17) 
93.97728018827877

>  <Genealogy>  (17) 
Cc1cccc2cc(C(=O)[NH+]3CCN(c4ccccc4)CC3)[nH]c12 (protonated)
Cc1cccc2cc(C(=O)[NH+]3CCN(c4ccccc4)CC3)[nH]c12 (3D coordinates assigned)
Cc1cccc2cc(C(=O)[NH+]3CCN(c4ccccc4)CC3)[nH]c12 (nonaromatic ring conformer: 93.97728018827877 kcal/mol)

>  <smiles>  (17) 
Cc1cccc2cc(C(=O)N3CCN(c4ccccc4)CC3)[nH]c12

>  <score_type>  (17) 
oracle

>  <origin>  (17) 
adg

>  <m_score__min__energy>  (17) 
-6.5300000000000002

>  <m_primary>  (17) 
energy

$$$$
17:0
     RDKit          3D

 33 34  0  0  0  0  0  0  0  0999 V2000
   60.1210   32.7290   46.5720 C   0  0  0  0  0  0  0  0  0  0  0  0
   59.3950   31.4800   46.1420 C   0  0  0  0  0  0  0  0  0  0  0  0
   60.0430   30.2460   46.2100 C   0  0  0  0  0  0  0  0  0  0  0  0
   59.3860   29.0710   45.8140 C   0  0  0  0  0  0  0  0  0  0  0  0
   60.1720   27.7810   45.8580 C   0  0  0  0  0  0  0  0  0  0  0  0
   58.0820   29.1290   45.3610 N   0  0  0  0  0  0  0  0  0  0  0  0
   57.3380   27.9030   44.9760 C   0  0  0  0  0  0  0  0  0  0  0  0
   56.8670   27.0910   46.2030 C   0  0  2  0  0  0  0  0  0  0  0  0
   57.7020   25.8410   46.4580 C   0  0  0  0  0  0  0  0  0  0  0  0
   56.9030   24.7590   45.8040 C   0  0  0  0  0  0  0  0  0  0  0  0
   55.4890   25.2980   45.8710 C   0  0  0  0  0  0  0  0  0  0  0  0
   55.5250   26.7020   46.0010 O   0  0  0  0  0  0  0  0  0  0  0  0
   57.4470   30.3460   45.2460 C   0  0  0  0  0  0  0  0  0  0  0  0
   56.2780   30.4120   44.7700 O   0  0  0  0  0  0  0  0  0  0  0  0
   58.0860   31.5340   45.6420 C   0  0  0  0  0  0  0  0  0  0  0  0
   57.3930   32.8000   45.5230 C   0  0  0  0  0  0  0  0  0  0  0  0
   56.8400   33.8110   45.4270 N   0  0  0  0  0  0  0  0  0  0  0  0
   60.1489   32.7770   47.6706 H   0  0  0  0  0  0  0  0  0  0  0  0
   61.1484   32.7094   46.1796 H   0  0  0  0  0  0  0  0  0  0  0  0
   59.5954   33.6121   46.1796 H   0  0  0  0  0  0  0  0  0  0  0  0
   61.0785   30.1939   46.5775 H   0  0  0  0  0  0  0  0  0  0  0  0
   60.3470   27.4938   46.9053 H   0  0  0  0  0  0  0  0  0  0  0  0
   59.6036   26.9878   45.3504 H   0  0  0  0  0  0  0  0  0  0  0  0
   61.1376   27.9224   45.3504 H   0  0  0  0  0  0  0  0  0  0  0  0
   56.4567   28.1951   44.3861 H   0  0  0  0  0  0  0  0  0  0  0  0
   58.0196   27.2658   44.3933 H   0  0  0  0  0  0  0  0  0  0  0  0
   56.9790   27.7419   47.0827 H   0  0  0  0  0  0  0  0  0  0  0  0
   58.6970   25.9302   45.9975 H   0  0  0  0  0  0  0  0  0  0  0  0
   57.8872   25.6557   47.5263 H   0  0  0  0  0  0  0  0  0  0  0  0
   57.2201   24.6073   44.7617 H   0  0  0  0  0  0  0  0  0  0  0  0
   57.0186   23.7787   46.2893 H   0  0  0  0  0  0  0  0  0  0  0  0
   54.9504   25.0290   44.9504 H   0  0  0  0  0  0  0  0  0  0  0  0
   54.9724   24.8632   46.7394 H   0  0  0  0  0  0  0  0  0  0  0  0
  1  2  1  0
  2  3  1  0
  3  4  2  0
  4  5  1  0
  4  6  1  0
  6  7  1  0
  7  8  1  0
  8  9  1  0
  9 10  1  0
 10 11  1  0
 11 12  1  0
  6 13  1  0
 13 14  2  0
 13 15  1  0
 15 16  1  0
 16 17  3  0
 15  2  2  0
 12  8  1  0
  1 18  1  0
  1 19  1  0
  1 20  1  0
  3 21  1  0
  5 22  1  0
  5 23  1  0
  5 24  1  0
  7 25  1  0
  7 26  1  0
  8 27  1  1
  9 28  1  0
  9 29  1  0
 10 30  1  0
 10 31  1  0
 11 32  1  0
 11 33  1  0
M  END
>  <UniqueID>  (18) 
16

>  <SMILES>  (18) 
Cc1cc(C)n(C[C@@H]2CCCO2)c(=O)c1C#N

>  <Energy>  (18) 
38.08372499716166

>  <Genealogy>  (18) 
Cc1cc(C)n(C[C@@H]2CCCO2)c(=O)c1C#N (chirality)
Cc1cc(C)n(C[C@@H]2CCCO2)c(=O)c1C#N (3D coordinates assigned)
Cc1cc(C)n(C[C@@H]2CCCO2)c(=O)c1C#N (nonaromatic ring conformer: 38.08372499716166 kcal/mol)

>  <smiles>  (18) 
Cc1cc(C)n(CC2CCCO2)c(=O)c1C#N

>  <score_type>  (18) 
oracle

>  <origin>  (18) 
adg

>  <m_score__min__energy>  (18) 
-6.3200000000000003

>  <m_primary>  (18) 
energy

$$$$
18:0
     RDKit          3D

 36 38  0  0  0  0  0  0  0  0999 V2000
   51.7390   22.2790   46.5190 C   0  0  0  0  0  0  0  0  0  0  0  0
   52.8490   22.1560   45.6370 O   0  0  0  0  0  0  0  0  0  0  0  0
   54.0220   22.9220   45.7260 C   0  0  0  0  0  0  0  0  0  0  0  0
   55.3060   22.3300   45.8910 C   0  0  0  0  0  0  0  0  0  0  0  0
   56.4670   23.1360   45.9780 C   0  0  0  0  0  0  0  0  0  0  0  0
   57.7570   22.6090   46.1410 O   0  0  0  0  0  0  0  0  0  0  0  0
   58.5150   22.0110   45.0950 C   0  0  0  0  0  0  0  0  0  0  0  0
   56.2950   24.5160   45.8950 C   0  0  0  0  0  0  0  0  0  0  0  0
   57.2110   25.5420   45.9420 C   0  0  0  0  0  0  0  0  0  0  0  0
   56.4420   26.6990   45.8110 C   0  0  0  0  0  0  0  0  0  0  0  0
   56.9470   28.0830   45.7880 C   0  0  0  0  0  0  0  0  0  0  0  0
   58.0630   28.3320   46.3150 O   0  0  0  0  0  0  0  0  0  0  0  0
   56.1860   29.1640   45.2370 N   0  0  0  0  0  0  0  0  0  0  0  0
   56.6980   30.2230   44.4140 C   0  0  0  0  0  0  0  0  0  0  0  0
   57.4510   31.2420   45.0110 C   0  0  0  0  0  0  0  0  0  0  0  0
   57.9790   32.2780   44.2340 C   0  0  0  0  0  0  0  0  0  0  0  0
   57.7690   32.2930   42.8520 C   0  0  0  0  0  0  0  0  0  0  0  0
   57.0400   31.2670   42.2450 C   0  0  0  0  0  0  0  0  0  0  0  0
   56.5120   30.2290   43.0190 C   0  0  0  0  0  0  0  0  0  0  0  0
   55.1630   26.3930   45.6840 O   0  0  0  0  0  0  0  0  0  0  0  0
   55.0620   25.0880   45.7360 C   0  0  0  0  0  0  0  0  0  0  0  0
   53.9040   24.3230   45.6480 C   0  0  0  0  0  0  0  0  0  0  0  0
   52.0919   22.2399   47.5601 H   0  0  0  0  0  0  0  0  0  0  0  0
   51.2325   23.2388   46.3393 H   0  0  0  0  0  0  0  0  0  0  0  0
   51.0346   21.4534   46.3393 H   0  0  0  0  0  0  0  0  0  0  0  0
   55.3972   21.2355   45.9515 H   0  0  0  0  0  0  0  0  0  0  0  0
   59.3085   21.3850   45.5290 H   0  0  0  0  0  0  0  0  0  0  0  0
   57.8548   21.3878   44.4739 H   0  0  0  0  0  0  0  0  0  0  0  0
   58.9674   22.7981   44.4739 H   0  0  0  0  0  0  0  0  0  0  0  0
   58.3024   25.4670   46.0569 H   0  0  0  0  0  0  0  0  0  0  0  0
   57.6280   31.2273   46.0966 H   0  0  0  0  0  0  0  0  0  0  0  0
   58.5598   33.0815   44.7105 H   0  0  0  0  0  0  0  0  0  0  0  0
   58.1776   33.1124   42.2424 H   0  0  0  0  0  0  0  0  0  0  0  0
   56.8812   31.2759   41.1566 H   0  0  0  0  0  0  0  0  0  0  0  0
   55.9502   29.4156   42.5366 H   0  0  0  0  0  0  0  0  0  0  0  0
   52.9211   24.8001   45.5207 H   0  0  0  0  0  0  0  0  0  0  0  0
  1  2  1  0
  2  3  1  0
  3  4  2  0
  4  5  1  0
  5  6  1  0
  6  7  1  0
  5  8  2  0
  8  9  1  0
  9 10  2  0
 10 11  1  0
 11 12  2  0
 11 13  1  0
 13 14  1  0
 14 15  2  0
 15 16  1  0
 16 17  2  0
 17 18  1  0
 18 19  2  0
 10 20  1  0
 20 21  1  0
 21 22  2  0
 22  3  1  0
 21  8  1  0
 19 14  1  0
  1 23  1  0
  1 24  1  0
  1 25  1  0
  4 26  1  0
  7 27  1  0
  7 28  1  0
  7 29  1  0
  9 30  1  0
 15 31  1  0
 16 32  1  0
 17 33  1  0
 18 34  1  0
 19 35  1  0
 22 36  1  0
M  CHG  1  13  -1
M  END
>  <UniqueID>  (19) 
17

>  <SMILES>  (19) 
COc1cc(OC)c2cc(C(=O)[N-]c3ccccc3)oc2c1

>  <Energy>  (19) 
75.23185528562293

>  <Genealogy>  (19) 
COc1cc(OC)c2cc(C(=O)[N-]c3ccccc3)oc2c1 (protonated)
COc1cc(OC)c2cc(C(=O)[N-]c3ccccc3)oc2c1 (3D coordinates assigned)
COc1cc(OC)c2cc(C(=O)[N-]c3ccccc3)oc2c1 (optimized conformer: 75.23185528562293 kcal/mol)

>  <smiles>  (19) 
COc1cc(OC)c2cc(C(=O)Nc3ccccc3)oc2c1

>  <score_type>  (19) 
oracle

>  <origin>  (19) 
adg

>  <m_score__min__energy>  (19) 
-8.5399999999999991

>  <m_primary>  (19) 
energy

$$$$
19:0
     RDKit          3D

 31 32  0  0  0  0  0  0  0  0999 V2000
   58.7840   34.3930   45.2610 C   0  0  0  0  0  0  0  0  0  0  0  0
   57.7980   33.3160   44.8240 C   0  0  0  0  0  0  0  0  0  0  0  0
   58.2080   31.9750   45.3570 C   0  0  0  0  0  0  0  0  0  0  0  0
   59.4410   31.8100   46.0010 C   0  0  0  0  0  0  0  0  0  0  0  0
   59.7810   30.5540   46.5010 C   0  0  0  0  0  0  0  0  0  0  0  0
   60.8920   30.3950   47.0800 O   0  0  0  0  0  0  0  0  0  0  0  0
   58.8820   29.4860   46.3530 C   0  0  0  0  0  0  0  0  0  0  0  0
   59.1650   28.2010   46.8350 C   0  0  0  0  0  0  0  0  0  0  0  0
   58.2420   27.1700   46.6690 C   0  0  0  0  0  0  0  0  0  0  0  0
   57.0120   27.3970   46.0190 C   0  0  0  0  0  0  0  0  0  0  0  0
   56.0840   26.3550   45.8540 O   0  0  0  0  0  0  0  0  0  0  0  0
   56.3730   25.0890   45.2690 C   0  0  0  0  0  0  0  0  0  0  0  0
   56.7160   28.6950   45.5280 C   0  0  0  0  0  0  0  0  0  0  0  0
   55.5190   29.0290   44.8650 O   0  0  0  0  0  0  0  0  0  0  0  0
   55.4000   29.7310   43.6320 C   0  0  0  0  0  0  0  0  0  0  0  0
   57.6530   29.7270   45.6990 C   0  0  0  0  0  0  0  0  0  0  0  0
   57.3740   30.9460   45.2390 O   0  0  0  0  0  0  0  0  0  0  0  0
   58.8204   34.4328   46.3597 H   0  0  0  0  0  0  0  0  0  0  0  0
   59.7840   34.1553   44.8694 H   0  0  0  0  0  0  0  0  0  0  0  0
   58.4591   35.3682   44.8694 H   0  0  0  0  0  0  0  0  0  0  0  0
   56.7972   33.5660   45.2061 H   0  0  0  0  0  0  0  0  0  0  0  0
   57.7864   33.2716   43.7250 H   0  0  0  0  0  0  0  0  0  0  0  0
   60.1312   32.6595   46.1106 H   0  0  0  0  0  0  0  0  0  0  0  0
   60.1191   28.0053   47.3462 H   0  0  0  0  0  0  0  0  0  0  0  0
   58.4766   26.1653   47.0505 H   0  0  0  0  0  0  0  0  0  0  0  0
   56.5422   24.3478   46.0640 H   0  0  0  0  0  0  0  0  0  0  0  0
   55.5244   24.7708   44.6456 H   0  0  0  0  0  0  0  0  0  0  0  0
   57.2756   25.1706   44.6456 H   0  0  0  0  0  0  0  0  0  0  0  0
   55.2193   30.7973   43.8331 H   0  0  0  0  0  0  0  0  0  0  0  0
   56.3299   29.6192   43.0552 H   0  0  0  0  0  0  0  0  0  0  0  0
   54.5589   29.3189   43.0552 H   0  0  0  0  0  0  0  0  0  0  0  0
  1  2  1  0
  2  3  1  0
  3  4  2  0
  4  5  1  0
  5  6  2  0
  5  7  1  0
  7  8  2  0
  8  9  1  0
  9 10  2  0
 10 11  1  0
 11 12  1  0
 10 13  1  0
 13 14  1  0
 14 15  1  0
 13 16  2  0
 16 17  1  0
 17  3  1  0
 16  7  1  0
  1 18  1  0
  1 19  1  0
  1 20  1  0
  2 21  1  0
  2 22  1  0
  4 23  1  0
  8 24  1  0
  9 25  1  0
 12 26  1  0
 12 27  1  0
 12 28  1  0
 15 29  1  0
 15 30  1  0
 15 31  1  0
M  END
>  <UniqueID>  (20) 
18

>  <SMILES>  (20) 
CCc1cc(=O)c2ccc(OC)c(OC)c2o1

>  <Energy>  (20) 
34.42978054293657

>  <Genealogy>  (20) 
CCc1cc(=O)c2ccc(OC)c(OC)c2o1 (3D coordinates assigned)
CCc1cc(=O)c2ccc(OC)c(OC)c2o1 (optimized conformer: 34.42978054293657 kcal/mol)

>  <smiles>  (20) 
CCc1cc(=O)c2ccc(OC)c(OC)c2o1

>  <score_type>  (20) 
oracle

>  <origin>  (20) 
adg

>  <m_score__min__energy>  (20) 
-6.04

>  <m_primary>  (20) 
energy

$$$$
20:0
     RDKit          3D

 37 38  0  0  0  0  0  0  0  0999 V2000
   60.1440   34.5890   48.9570 C   0  0  0  0  0  0  0  0  0  0  0  0
   59.5490   34.9220   47.7070 O   0  0  0  0  0  0  0  0  0  0  0  0
   58.9930   33.9870   46.8210 C   0  0  0  0  0  0  0  0  0  0  0  0
   58.7330   34.2890   45.4700 C   0  0  0  0  0  0  0  0  0  0  0  0
   58.1800   33.3200   44.6280 C   0  0  0  0  0  0  0  0  0  0  0  0
   57.8850   32.0400   45.1160 C   0  0  0  0  0  0  0  0  0  0  0  0
   57.2130   30.8090   44.0440 S   0  0  0  0  0  0  0  0  0  0  0  0
   57.0890   31.3780   42.6560 O   0  0  0  0  0  0  0  0  0  0  0  0
   55.8350   30.4410   44.5190 O   0  0  0  0  0  0  0  0  0  0  0  0
   58.2120   29.3720   43.9990 N   0  0  0  0  0  0  0  0  0  0  0  0
   59.4910   29.6200   44.7050 C   0  0  0  0  0  0  0  0  0  0  0  0
   60.1660   28.3010   45.1100 C   0  0  0  0  0  0  0  0  0  0  0  0
   59.3190   27.4930   46.0240 N   0  0  0  0  0  0  0  0  0  0  0  0
   59.7800   27.6030   47.4170 C   0  0  0  0  0  0  0  0  0  0  0  0
   57.8760   27.8110   45.9350 C   0  0  0  0  0  0  0  0  0  0  0  0
   57.4750   28.1830   44.5000 C   0  0  0  0  0  0  0  0  0  0  0  0
   58.1350   31.7430   46.4630 C   0  0  0  0  0  0  0  0  0  0  0  0
   58.6870   32.7110   47.3070 C   0  0  0  0  0  0  0  0  0  0  0  0
   59.5027   34.9479   49.7755 H   0  0  0  0  0  0  0  0  0  0  0  0
   60.2558   33.4972   49.0306 H   0  0  0  0  0  0  0  0  0  0  0  0
   61.1331   35.0647   49.0306 H   0  0  0  0  0  0  0  0  0  0  0  0
   58.9657   35.2896   45.0767 H   0  0  0  0  0  0  0  0  0  0  0  0
   57.9750   33.5639   43.5751 H   0  0  0  0  0  0  0  0  0  0  0  0
   58.4350   29.2060   42.9890 H   0  0  0  0  0  0  0  0  0  0  0  0
   60.1656   30.1790   44.0398 H   0  0  0  0  0  0  0  0  0  0  0  0
   59.2795   30.1977   45.6169 H   0  0  0  0  0  0  0  0  0  0  0  0
   60.3677   27.7133   44.2023 H   0  0  0  0  0  0  0  0  0  0  0  0
   61.0961   28.5481   45.6428 H   0  0  0  0  0  0  0  0  0  0  0  0
   58.9399   27.4025   48.0982 H   0  0  0  0  0  0  0  0  0  0  0  0
   60.5808   26.8707   47.5971 H   0  0  0  0  0  0  0  0  0  0  0  0
   60.1639   28.6180   47.5971 H   0  0  0  0  0  0  0  0  0  0  0  0
   57.2951   26.9328   46.2533 H   0  0  0  0  0  0  0  0  0  0  0  0
   57.6688   28.6716   46.5880 H   0  0  0  0  0  0  0  0  0  0  0  0
   57.6899   27.3296   43.8401 H   0  0  0  0  0  0  0  0  0  0  0  0
   56.4027   28.4283   44.5030 H   0  0  0  0  0  0  0  0  0  0  0  0
   57.8959   30.7444   46.8574 H   0  0  0  0  0  0  0  0  0  0  0  0
   58.8824   32.4677   48.3618 H   0  0  0  0  0  0  0  0  0  0  0  0
  1  2  1  0
  2  3  1  0
  3  4  2  0
  4  5  1  0
  5  6  2  0
  6  7  1  0
  7  8  2  0
  7  9  2  0
  7 10  1  0
 10 11  1  0
 11 12  1  0
 12 13  1  0
 13 14  1  0
 13 15  1  0
 15 16  1  0
  6 17  1  0
 17 18  2  0
 18  3  1  0
 16 10  1  0
  1 19  1  0
  1 20  1  0
  1 21  1  0
  4 22  1  0
  5 23  1  0
 10 24  1  0
 11 25  1  0
 11 26  1  0
 12 27  1  0
 12 28  1  0
 14 29  1  0
 14 30  1  0
 14 31  1  0
 15 32  1  0
 15 33  1  0
 16 34  1  0
 16 35  1  0
 17 36  1  0
 18 37  1  0
M  CHG  1  10   1
M  END
>  <UniqueID>  (21) 
19

>  <SMILES>  (21) 
COc1ccc(S(=O)(=O)[NH+]2CCN(C)CC2)cc1

>  <Energy>  (21) 
44.58850435987418

>  <Genealogy>  (21) 
COc1ccc(S(=O)(=O)[NH+]2CCN(C)CC2)cc1 (protonated)
COc1ccc(S(=O)(=O)[NH+]2CCN(C)CC2)cc1 (3D coordinates assigned)
COc1ccc(S(=O)(=O)[NH+]2CCN(C)CC2)cc1 (nonaromatic ring conformer: 44.58850435987418 kcal/mol)

>  <smiles>  (21) 
COc1ccc(S(=O)(=O)N2CCN(C)CC2)cc1

>  <score_type>  (21) 
oracle

>  <origin>  (21) 
adg

>  <m_score__min__energy>  (21) 
-5.4800000000000004

>  <m_primary>  (21) 
energy

$$$$
21:0
     RDKit          3D

 39 41  0  0  0  0  0  0  0  0999 V2000
   60.6650   28.9590   44.9030 C   0  0  0  0  0  0  0  0  0  0  0  0
   60.3230   29.3030   46.3020 C   0  0  0  0  0  0  0  0  0  0  0  0
   61.0110   30.3250   46.9650 C   0  0  0  0  0  0  0  0  0  0  0  0
   60.6960   30.6520   48.2780 C   0  0  0  0  0  0  0  0  0  0  0  0
   59.6830   29.9540   48.9420 C   0  0  0  0  0  0  0  0  0  0  0  0
   59.0000   28.9340   48.2730 C   0  0  0  0  0  0  0  0  0  0  0  0
   59.3090   28.6100   46.9780 C   0  0  0  0  0  0  0  0  0  0  0  0
   58.6340   27.5720   46.2300 C   0  0  0  0  0  0  0  0  0  0  0  0
   58.9230   26.2460   46.4280 N   0  0  0  0  0  0  0  0  0  0  0  0
   58.1220   25.5770   45.5800 C   0  0  0  0  0  0  0  0  0  0  0  0
   58.1310   24.0890   45.4880 C   0  0  0  0  0  0  0  0  0  0  0  0
   57.4100   23.6010   46.5670 F   0  0  0  0  0  0  0  0  0  0  0  0
   59.4190   23.5830   45.6130 F   0  0  0  0  0  0  0  0  0  0  0  0
   57.6020   23.6830   44.2930 F   0  0  0  0  0  0  0  0  0  0  0  0
   57.3580   26.4330   44.8740 N   0  0  0  0  0  0  0  0  0  0  0  0
   57.6580   27.6860   45.2610 C   0  0  0  0  0  0  0  0  0  0  0  0
   57.0610   28.8890   44.7600 C   0  0  0  0  0  0  0  0  0  0  0  0
   55.9770   29.3720   45.1920 O   0  0  0  0  0  0  0  0  0  0  0  0
   57.6880   29.6270   43.7040 N   0  0  0  0  0  0  0  0  0  0  0  0
   57.0240   30.8390   43.2430 C   0  0  0  0  0  0  0  0  0  0  0  0
   57.3240   32.0180   44.0640 C   0  0  0  0  0  0  0  0  0  0  0  0
   58.1600   33.0950   43.8160 C   0  0  0  0  0  0  0  0  0  0  0  0
   58.1030   33.9490   44.8980 C   0  0  0  0  0  0  0  0  0  0  0  0
   57.2160   33.3430   45.7790 C   0  0  0  0  0  0  0  0  0  0  0  0
   56.7960   32.2370   45.2550 O   0  0  0  0  0  0  0  0  0  0  0  0
   61.4405   28.1789   44.8963 H   0  0  0  0  0  0  0  0  0  0  0  0
   59.7673   28.5880   44.3867 H   0  0  0  0  0  0  0  0  0  0  0  0
   61.0412   29.8545   44.3867 H   0  0  0  0  0  0  0  0  0  0  0  0
   61.8080   30.8742   46.4423 H   0  0  0  0  0  0  0  0  0  0  0  0
   61.2413   31.4567   48.7929 H   0  0  0  0  0  0  0  0  0  0  0  0
   59.4256   30.2051   49.9816 H   0  0  0  0  0  0  0  0  0  0  0  0
   58.2028   28.3834   48.7939 H   0  0  0  0  0  0  0  0  0  0  0  0
   56.6530   26.1330   44.1460 H   0  0  0  0  0  0  0  0  0  0  0  0
   58.5840   29.3380   43.2610 H   0  0  0  0  0  0  0  0  0  0  0  0
   57.3464   31.0419   42.2111 H   0  0  0  0  0  0  0  0  0  0  0  0
   55.9407   30.6619   43.3138 H   0  0  0  0  0  0  0  0  0  0  0  0
   58.7661   33.2437   42.9102 H   0  0  0  0  0  0  0  0  0  0  0  0
   58.6406   34.8991   45.0332 H   0  0  0  0  0  0  0  0  0  0  0  0
   56.9192   33.7388   46.7615 H   0  0  0  0  0  0  0  0  0  0  0  0
  1  2  1  0
  2  3  2  0
  3  4  1  0
  4  5  2  0
  5  6  1  0
  6  7  2  0
  7  8  1  0
  8  9  1  0
  9 10  2  0
 10 11  1  0
 11 12  1  0
 11 13  1  0
 11 14  1  0
 10 15  1  0
 15 16  1  0
 16 17  1  0
 17 18  2  0
 17 19  1  0
 19 20  1  0
 20 21  1  0
 21 22  2  0
 22 23  1  0
 23 24  2  0
 24 25  1  0
  7  2  1  0
 16  8  2  0
 25 21  1  0
  1 26  1  0
  1 27  1  0
  1 28  1  0
  3 29  1  0
  4 30  1  0
  5 31  1  0
  6 32  1  0
 15 33  1  0
 19 34  1  0
 20 35  1  0
 20 36  1  0
 22 37  1  0
 23 38  1  0
 24 39  1  0
M  END
>  <smiles>  (22) 
Cc1ccccc1-c1nc(C(F)(F)F)[nH]c1C(=O)NCc1ccco1

>  <score_type>  (22) 
oracle

>  <origin>  (22) 
adg

>  <m_score__min__energy>  (22) 
-7.2400000000000002

>  <m_primary>  (22) 
energy

$$$$
22:0
     RDKit          3D

 54 58  0  0  0  0  0  0  0  0999 V2000
   66.2210   33.5570   50.9490 C   0  0  0  0  0  0  0  0  0  0  0  0
   65.9380   32.6890   49.9090 C   0  0  0  0  0  0  0  0  0  0  0  0
   64.6330   32.8110   49.6340 N   0  0  0  0  0  0  0  0  0  0  0  0
   64.1660   33.7220   50.4860 C   0  0  0  0  0  0  0  0  0  0  0  0
   65.1000   34.2170   51.3210 N   0  0  0  0  0  0  0  0  0  0  0  0
   62.8000   34.1020   50.4690 N   0  0  0  0  0  0  0  0  0  0  0  0
   61.9430   33.4770   49.5010 C   0  0  0  0  0  0  0  0  0  0  0  0
   60.5480   33.8220   49.4900 N   0  0  0  0  0  0  0  0  0  0  0  0
   59.7270   33.8510   48.3090 C   0  0  0  0  0  0  0  0  0  0  0  0
   60.1440   34.5990   47.1990 C   0  0  0  0  0  0  0  0  0  0  0  0
   59.3780   34.6200   46.0310 C   0  0  0  0  0  0  0  0  0  0  0  0
   58.1920   33.8750   45.9470 C   0  0  0  0  0  0  0  0  0  0  0  0
   57.3680   33.9080   44.6870 C   0  0  0  0  0  0  0  0  0  0  0  0
   57.7540   32.8590   43.7990 O   0  0  0  0  0  0  0  0  0  0  0  0
   57.7080   31.4860   44.0960 C   0  0  0  0  0  0  0  0  0  0  0  0
   58.6820   30.8450   44.8820 C   0  0  0  0  0  0  0  0  0  0  0  0
   58.5930   29.4740   45.1400 C   0  0  0  0  0  0  0  0  0  0  0  0
   57.5260   28.7130   44.6230 C   0  0  0  0  0  0  0  0  0  0  0  0
   57.4340   27.2930   44.8900 N   0  0  0  0  0  0  0  0  0  0  0  0
   56.9860   26.7300   46.1560 C   0  0  0  0  0  0  0  0  0  0  0  0
   57.2140   25.2290   46.0480 C   0  0  0  0  0  0  0  0  0  0  0  0
   57.3730   24.9400   44.5610 C   0  0  0  0  0  0  0  0  0  0  0  0
   57.7810   26.2610   43.9240 C   0  0  0  0  0  0  0  0  0  0  0  0
   56.5530   29.3650   43.8430 C   0  0  0  0  0  0  0  0  0  0  0  0
   56.6460   30.7350   43.5850 C   0  0  0  0  0  0  0  0  0  0  0  0
   57.7770   33.1190   47.0530 C   0  0  0  0  0  0  0  0  0  0  0  0
   58.5440   33.0970   48.2220 C   0  0  0  0  0  0  0  0  0  0  0  0
   62.4120   32.5570   48.6890 N   0  0  0  0  0  0  0  0  0  0  0  0
   63.8240   32.1310   48.6270 C   0  0  0  0  0  0  0  0  0  0  0  0
   67.2124   33.6908   51.4064 H   0  0  0  0  0  0  0  0  0  0  0  0
   66.6520   32.0229   49.4025 H   0  0  0  0  0  0  0  0  0  0  0  0
   62.4350   34.8200   51.1350 H   0  0  0  0  0  0  0  0  0  0  0  0
   60.1130   34.1020   50.3980 H   0  0  0  0  0  0  0  0  0  0  0  0
   61.0809   35.1733   47.2481 H   0  0  0  0  0  0  0  0  0  0  0  0
   59.7065   35.2240   45.1723 H   0  0  0  0  0  0  0  0  0  0  0  0
   56.3062   33.7869   44.9476 H   0  0  0  0  0  0  0  0  0  0  0  0
   57.5323   34.8726   44.1844 H   0  0  0  0  0  0  0  0  0  0  0  0
   59.5191   31.4260   45.2964 H   0  0  0  0  0  0  0  0  0  0  0  0
   59.3640   28.9843   45.7530 H   0  0  0  0  0  0  0  0  0  0  0  0
   57.5712   27.1471   46.9888 H   0  0  0  0  0  0  0  0  0  0  0  0
   55.9294   26.9653   46.3517 H   0  0  0  0  0  0  0  0  0  0  0  0
   58.1239   24.9394   46.5941 H   0  0  0  0  0  0  0  0  0  0  0  0
   56.3798   24.6601   46.4843 H   0  0  0  0  0  0  0  0  0  0  0  0
   58.1517   24.1800   44.3994 H   0  0  0  0  0  0  0  0  0  0  0  0
   56.4431   24.5488   44.1225 H   0  0  0  0  0  0  0  0  0  0  0  0
   58.8627   26.2717   43.7244 H   0  0  0  0  0  0  0  0  0  0  0  0
   57.2717   26.4202   42.9621 H   0  0  0  0  0  0  0  0  0  0  0  0
   55.7102   28.7899   43.4320 H   0  0  0  0  0  0  0  0  0  0  0  0
   55.8755   31.2274   42.9735 H   0  0  0  0  0  0  0  0  0  0  0  0
   56.8431   32.5402   47.0006 H   0  0  0  0  0  0  0  0  0  0  0  0
   58.2199   32.4866   49.0778 H   0  0  0  0  0  0  0  0  0  0  0  0
   61.7580   32.0680   48.0390 H   0  0  0  0  0  0  0  0  0  0  0  0
   63.8777   31.0458   48.7986 H   0  0  0  0  0  0  0  0  0  0  0  0
   64.2194   32.3907   47.6339 H   0  0  0  0  0  0  0  0  0  0  0  0
  1  2  2  0
  2  3  1  0
  3  4  1  0
  4  5  2  0
  4  6  1  0
  6  7  1  0
  7  8  1  0
  8  9  1  0
  9 10  2  0
 10 11  1  0
 11 12  2  0
 12 13  1  0
 13 14  1  0
 14 15  1  0
 15 16  2  0
 16 17  1  0
 17 18  2  0
 18 19  1  0
 19 20  1  0
 20 21  1  0
 21 22  1  0
 22 23  1  0
 18 24  1  0
 24 25  2  0
 12 26  1  0
 26 27  2  0
  7 28  2  0
 28 29  1  0
  5  1  1  0
 27  9  1  0
 29  3  1  0
 25 15  1  0
 23 19  1  0
  1 30  1  0
  2 31  1  0
  6 32  1  0
  8 33  1  0
 10 34  1  0
 11 35  1  0
 13 36  1  0
 13 37  1  0
 16 38  1  0
 17 39  1  0
 20 40  1  0
 20 41  1  0
 21 42  1  0
 21 43  1  0
 22 44  1  0
 22 45  1  0
 23 46  1  0
 23 47  1  0
 24 48  1  0
 25 49  1  0
 26 50  1  0
 27 51  1  0
 28 52  1  0
 29 53  1  0
 29 54  1  0
M  CHG  1  28   1
M  END
>  <UniqueID>  (23) 
20

>  <SMILES>  (23) 
c1cn2c(n1)NC(Nc1ccc(COc3ccc(N4CCCC4)cc3)cc1)=[NH+]C2

>  <Energy>  (23) 
96.63006566867362

>  <Genealogy>  (23) 
c1cn2c(n1)NC(Nc1ccc(COc3ccc(N4CCCC4)cc3)cc1)=[NH+]C2 (protonated)
c1cn2c(n1)NC(Nc1ccc(COc3ccc(N4CCCC4)cc3)cc1)=[NH+]C2 (3D coordinates assigned)
c1cn2c(n1)NC(Nc1ccc(COc3ccc(N4CCCC4)cc3)cc1)=[NH+]C2 (nonaromatic ring conformer: 96.63006566867362 kcal/mol)

>  <smiles>  (23) 
c1cn2c(n1)NC(Nc1ccc(COc3ccc(N4CCCC4)cc3)cc1)=NC2

>  <score_type>  (23) 
oracle

>  <origin>  (23) 
adg

>  <m_score__min__energy>  (23) 
-7.0199999999999996

>  <m_primary>  (23) 
energy

$$$$
23:0
     RDKit          3D

 37 39  0  0  0  0  0  0  0  0999 V2000
   58.4890   24.1350   45.6080 C   0  0  0  0  0  0  0  0  0  0  0  0
   58.5590   25.2700   46.4650 O   0  0  0  0  0  0  0  0  0  0  0  0
   58.4760   26.5990   46.0280 C   0  0  0  0  0  0  0  0  0  0  0  0
   59.6030   27.4370   45.9380 C   0  0  0  0  0  0  0  0  0  0  0  0
   59.4680   28.7570   45.4960 C   0  0  0  0  0  0  0  0  0  0  0  0
   58.2070   29.2650   45.1350 C   0  0  0  0  0  0  0  0  0  0  0  0
   58.0680   30.6240   44.6790 N   0  0  0  0  0  0  0  0  0  0  0  0
   57.7640   31.7050   45.4230 C   0  0  0  0  0  0  0  0  0  0  0  0
   57.7510   32.7800   44.5600 C   0  0  0  0  0  0  0  0  0  0  0  0
   57.4190   34.2000   44.9020 C   0  0  0  0  0  0  0  0  0  0  0  0
   57.9030   34.5340   46.2030 O   0  0  0  0  0  0  0  0  0  0  0  0
   59.1950   34.2590   46.6840 C   0  0  0  0  0  0  0  0  0  0  0  0
   59.3670   34.0970   48.0640 C   0  0  0  0  0  0  0  0  0  0  0  0
   60.6300   33.8160   48.5930 C   0  0  0  0  0  0  0  0  0  0  0  0
   61.7340   33.6950   47.7450 C   0  0  0  0  0  0  0  0  0  0  0  0
   63.4590   33.3100   48.4700 Br  0  0  0  0  0  0  0  0  0  0  0  0
   61.5750   33.8580   46.3660 C   0  0  0  0  0  0  0  0  0  0  0  0
   60.3120   34.1400   45.8330 C   0  0  0  0  0  0  0  0  0  0  0  0
   58.0300   32.3400   43.3170 N   0  0  0  0  0  0  0  0  0  0  0  0
   58.2200   31.0330   43.4260 N   0  0  0  0  0  0  0  0  0  0  0  0
   57.0850   28.4240   45.2280 C   0  0  0  0  0  0  0  0  0  0  0  0
   57.2220   27.1050   45.6710 C   0  0  0  0  0  0  0  0  0  0  0  0
   58.4326   23.2197   46.2156 H   0  0  0  0  0  0  0  0  0  0  0  0
   57.5937   24.2095   44.9732 H   0  0  0  0  0  0  0  0  0  0  0  0
   59.3866   24.0989   44.9732 H   0  0  0  0  0  0  0  0  0  0  0  0
   60.5950   27.0519   46.2167 H   0  0  0  0  0  0  0  0  0  0  0  0
   60.3555   29.4035   45.4301 H   0  0  0  0  0  0  0  0  0  0  0  0
   57.5655   31.7259   46.5047 H   0  0  0  0  0  0  0  0  0  0  0  0
   57.8841   34.8676   44.1617 H   0  0  0  0  0  0  0  0  0  0  0  0
   56.3255   34.3192   44.8910 H   0  0  0  0  0  0  0  0  0  0  0  0
   58.5019   34.1915   48.7368 H   0  0  0  0  0  0  0  0  0  0  0  0
   60.7550   33.6899   49.6786 H   0  0  0  0  0  0  0  0  0  0  0  0
   62.4442   33.7645   45.6983 H   0  0  0  0  0  0  0  0  0  0  0  0
   60.1909   34.2691   44.7473 H   0  0  0  0  0  0  0  0  0  0  0  0
   58.4790   30.4220   42.6200 H   0  0  0  0  0  0  0  0  0  0  0  0
   56.0917   28.8062   44.9502 H   0  0  0  0  0  0  0  0  0  0  0  0
   56.3345   26.4587   45.7394 H   0  0  0  0  0  0  0  0  0  0  0  0
  1  2  1  0
  2  3  1  0
  3  4  2  0
  4  5  1  0
  5  6  2  0
  6  7  1  0
  7  8  1  0
  8  9  2  0
  9 10  1  0
 10 11  1  0
 11 12  1  0
 12 13  2  0
 13 14  1  0
 14 15  2  0
 15 16  1  0
 15 17  1  0
 17 18  2  0
  9 19  1  0
 19 20  2  0
  6 21  1  0
 21 22  2  0
 22  3  1  0
 20  7  1  0
 18 12  1  0
  1 23  1  0
  1 24  1  0
  1 25  1  0
  4 26  1  0
  5 27  1  0
  8 28  1  0
 10 29  1  0
 10 30  1  0
 13 31  1  0
 14 32  1  0
 17 33  1  0
 18 34  1  0
 20 35  1  0
 21 36  1  0
 22 37  1  0
M  CHG  1  20   1
M  END
>  <UniqueID>  (24) 
21

>  <SMILES>  (24) 
COc1ccc(-n2cc(COc3ccc(Br)cc3)n[nH+]2)cc1

>  <Energy>  (24) 
76.2455813324266

>  <Genealogy>  (24) 
COc1ccc(-n2cc(COc3ccc(Br)cc3)n[nH+]2)cc1 (protonated)
COc1ccc(-n2cc(COc3ccc(Br)cc3)n[nH+]2)cc1 (3D coordinates assigned)
COc1ccc(-n2cc(COc3ccc(Br)cc3)n[nH+]2)cc1 (optimized conformer: 76.2455813324266 kcal/mol)

>  <smiles>  (24) 
COc1ccc(-n2cc(COc3ccc(Br)cc3)nn2)cc1

>  <score_type>  (24) 
oracle

>  <origin>  (24) 
adg

>  <m_score__min__energy>  (24) 
-6.3700000000000001

>  <m_primary>  (24) 
energy

$$$$
24:0
     RDKit          3D

 36 37  0  0  0  0  0  0  0  0999 V2000
   57.5020   32.0710   41.5340 C   0  0  0  0  0  0  0  0  0  0  0  0
   58.1490   32.3640   42.7540 O   0  0  0  0  0  0  0  0  0  0  0  0
   57.4010   31.8480   43.8420 C   0  0  2  0  0  0  0  0  0  0  0  0
   57.5900   32.7660   45.0460 C   0  0  0  0  0  0  0  0  0  0  0  0
   58.8290   32.2240   45.7640 C   0  0  1  0  0  0  0  0  0  0  0  0
   59.0290   32.6620   47.1740 N   0  0  0  0  0  0  0  0  0  0  0  0
   58.9390   31.7980   48.2370 C   0  0  0  0  0  0  0  0  0  0  0  0
   59.1550   32.2350   49.5490 C   0  0  0  0  0  0  0  0  0  0  0  0
   59.0380   31.2790   50.7050 C   0  0  0  0  0  0  0  0  0  0  0  0
   59.4130   33.5920   49.7570 C   0  0  0  0  0  0  0  0  0  0  0  0
   59.5930   34.0390   50.9220 O   0  0  0  0  0  0  0  0  0  0  0  0
   59.4610   34.4370   48.6970 N   0  0  0  0  0  0  0  0  0  0  0  0
   59.2640   33.9950   47.4260 C   0  0  0  0  0  0  0  0  0  0  0  0
   59.2880   34.8330   46.4820 O   0  0  0  0  0  0  0  0  0  0  0  0
   58.6510   30.7120   45.6480 C   0  0  0  0  0  0  0  0  0  0  0  0
   57.9690   30.4800   44.2890 C   0  0  1  0  0  0  0  0  0  0  0  0
   56.8730   29.4020   44.3680 C   0  0  0  0  0  0  0  0  0  0  0  0
   55.7440   29.8940   45.0380 O   0  0  0  0  0  0  0  0  0  0  0  0
   56.5175   31.6252   41.7389 H   0  0  0  0  0  0  0  0  0  0  0  0
   57.3717   32.9979   40.9562 H   0  0  0  0  0  0  0  0  0  0  0  0
   58.1127   31.3616   40.9562 H   0  0  0  0  0  0  0  0  0  0  0  0
   56.3519   31.7641   43.5222 H   0  0  0  0  0  0  0  0  0  0  0  0
   57.7547   33.8035   44.7196 H   0  0  0  0  0  0  0  0  0  0  0  0
   56.7053   32.7792   45.6996 H   0  0  0  0  0  0  0  0  0  0  0  0
   59.7443   32.6198   45.2998 H   0  0  0  0  0  0  0  0  0  0  0  0
   58.6923   30.7417   48.0541 H   0  0  0  0  0  0  0  0  0  0  0  0
   59.1063   31.8369   51.6506 H   0  0  0  0  0  0  0  0  0  0  0  0
   58.0696   30.7597   50.6548 H   0  0  0  0  0  0  0  0  0  0  0  0
   59.8526   30.5415   50.6548 H   0  0  0  0  0  0  0  0  0  0  0  0
   59.6450   35.4530   48.8640 H   0  0  0  0  0  0  0  0  0  0  0  0
   59.6276   30.2067   45.6790 H   0  0  0  0  0  0  0  0  0  0  0  0
   58.0535   30.3072   46.4781 H   0  0  0  0  0  0  0  0  0  0  0  0
   58.6928   30.0989   43.5535 H   0  0  0  0  0  0  0  0  0  0  0  0
   56.5866   29.1023   43.3491 H   0  0  0  0  0  0  0  0  0  0  0  0
   57.2657   28.5372   44.9229 H   0  0  0  0  0  0  0  0  0  0  0  0
   55.8900   29.7230   46.0060 H   0  0  0  0  0  0  0  0  0  0  0  0
  1  2  1  0
  2  3  1  0
  3  4  1  0
  4  5  1  0
  5  6  1  0
  6  7  1  0
  7  8  2  0
  8  9  1  0
  8 10  1  0
 10 11  2  0
 10 12  1  0
 12 13  1  0
 13 14  2  0
  5 15  1  0
 15 16  1  0
 16 17  1  0
 17 18  1  0
 16  3  1  0
 13  6  1  0
  1 19  1  0
  1 20  1  0
  1 21  1  0
  3 22  1  6
  4 23  1  0
  4 24  1  0
  5 25  1  6
  7 26  1  0
  9 27  1  0
  9 28  1  0
  9 29  1  0
 12 30  1  0
 15 31  1  0
 15 32  1  0
 16 33  1  6
 17 34  1  0
 17 35  1  0
 18 36  1  0
M  END
>  <UniqueID>  (25) 
22

>  <SMILES>  (25) 
CO[C@@H]1C[C@@H](n2cc(C)c(=O)[nH]c2=O)CC1CO

>  <Energy>  (25) 
47.254619408147875

>  <Genealogy>  (25) 
CO[C@@H]1C[C@@H](n2cc(C)c(=O)[nH]c2=O)CC1CO (chirality)
CO[C@@H]1C[C@@H](n2cc(C)c(=O)[nH]c2=O)CC1CO (3D coordinates assigned)
CO[C@@H]1C[C@@H](n2cc(C)c(=O)[nH]c2=O)CC1CO (nonaromatic ring conformer: 47.254619408147875 kcal/mol)

>  <smiles>  (25) 
COC1CC(n2cc(C)c(=O)[nH]c2=O)CC1CO

>  <score_type>  (25) 
oracle

>  <origin>  (25) 
adg

>  <m_score__min__energy>  (25) 
-6.9100000000000001

>  <m_primary>  (25) 
energy

$$$$
25:0
     RDKit          3D

 44 46  0  0  0  0  0  0  0  0999 V2000
   52.4020   23.8660   44.6940 C   0  0  0  0  0  0  0  0  0  0  0  0
   53.7110   23.3310   44.5300 O   0  0  0  0  0  0  0  0  0  0  0  0
   54.8970   24.0550   44.7360 C   0  0  0  0  0  0  0  0  0  0  0  0
   54.9630   25.1450   45.6230 C   0  0  0  0  0  0  0  0  0  0  0  0
   56.1700   25.8140   45.8320 C   0  0  0  0  0  0  0  0  0  0  0  0
   57.3320   25.4010   45.1690 C   0  0  0  0  0  0  0  0  0  0  0  0
   58.6530   26.0670   45.4690 C   0  0  0  0  0  0  0  0  0  0  0  0
   58.9580   27.1230   44.4870 N   0  0  0  0  0  0  0  0  0  0  0  0
   57.7810   27.5290   43.7000 C   0  0  0  0  0  0  0  0  0  0  0  0
   57.4090   28.9440   44.0190 C   0  0  0  0  0  0  0  0  0  0  0  0
   56.1330   29.4600   44.0400 C   0  0  0  0  0  0  0  0  0  0  0  0
   56.2120   30.6800   44.5100 O   0  0  0  0  0  0  0  0  0  0  0  0
   57.4790   30.9150   44.7780 C   0  0  0  0  0  0  0  0  0  0  0  0
   57.9700   32.1660   45.3860 C   0  0  0  0  0  0  0  0  0  0  0  0
   58.4130   32.1770   46.7200 C   0  0  0  0  0  0  0  0  0  0  0  0
   58.9300   33.3490   47.2820 C   0  0  0  0  0  0  0  0  0  0  0  0
   59.0070   34.5170   46.5200 C   0  0  0  0  0  0  0  0  0  0  0  0
   58.5640   34.5170   45.1940 C   0  0  0  0  0  0  0  0  0  0  0  0
   58.0460   33.3480   44.6280 C   0  0  0  0  0  0  0  0  0  0  0  0
   58.2740   29.8630   44.4840 N   0  0  0  0  0  0  0  0  0  0  0  0
   57.2640   24.3370   44.2560 C   0  0  0  0  0  0  0  0  0  0  0  0
   56.0480   23.6570   44.0390 C   0  0  0  0  0  0  0  0  0  0  0  0
   55.9490   22.5710   43.1550 O   0  0  0  0  0  0  0  0  0  0  0  0
   56.9430   21.5650   42.9960 C   0  0  0  0  0  0  0  0  0  0  0  0
   52.1754   23.9586   45.7664 H   0  0  0  0  0  0  0  0  0  0  0  0
   52.3493   24.8578   44.2211 H   0  0  0  0  0  0  0  0  0  0  0  0
   51.6698   23.1950   44.2211 H   0  0  0  0  0  0  0  0  0  0  0  0
   54.0576   25.4721   46.1552 H   0  0  0  0  0  0  0  0  0  0  0  0
   56.2085   26.6704   46.5213 H   0  0  0  0  0  0  0  0  0  0  0  0
   58.6086   26.5140   46.4731 H   0  0  0  0  0  0  0  0  0  0  0  0
   59.4448   25.3053   45.4155 H   0  0  0  0  0  0  0  0  0  0  0  0
   59.2770   27.9590   45.0290 H   0  0  0  0  0  0  0  0  0  0  0  0
   58.0148   27.4475   42.6282 H   0  0  0  0  0  0  0  0  0  0  0  0
   56.9365   26.8704   43.9512 H   0  0  0  0  0  0  0  0  0  0  0  0
   55.2160   28.9430   43.7209 H   0  0  0  0  0  0  0  0  0  0  0  0
   58.3528   31.2600   47.3246 H   0  0  0  0  0  0  0  0  0  0  0  0
   59.2766   33.3508   48.3260 H   0  0  0  0  0  0  0  0  0  0  0  0
   59.4162   35.4369   46.9632 H   0  0  0  0  0  0  0  0  0  0  0  0
   58.6230   35.4378   44.5952 H   0  0  0  0  0  0  0  0  0  0  0  0
   57.6964   33.3530   43.5851 H   0  0  0  0  0  0  0  0  0  0  0  0
   58.1661   24.0314   43.7057 H   0  0  0  0  0  0  0  0  0  0  0  0
   57.2805   21.2234   43.9856 H   0  0  0  0  0  0  0  0  0  0  0  0
   56.5195   20.7158   42.4397 H   0  0  0  0  0  0  0  0  0  0  0  0
   57.7973   21.9783   42.4397 H   0  0  0  0  0  0  0  0  0  0  0  0
  1  2  1  0
  2  3  1  0
  3  4  2  0
  4  5  1  0
  5  6  2  0
  6  7  1  0
  7  8  1  0
  8  9  1  0
  9 10  1  0
 10 11  2  0
 11 12  1  0
 12 13  1  0
 13 14  1  0
 14 15  2  0
 15 16  1  0
 16 17  2  0
 17 18  1  0
 18 19  2  0
 13 20  2  0
  6 21  1  0
 21 22  2  0
 22 23  1  0
 23 24  1  0
 22  3  1  0
 20 10  1  0
 19 14  1  0
  1 25  1  0
  1 26  1  0
  1 27  1  0
  4 28  1  0
  5 29  1  0
  7 30  1  0
  7 31  1  0
  8 32  1  0
  9 33  1  0
  9 34  1  0
 11 35  1  0
 15 36  1  0
 16 37  1  0
 17 38  1  0
 18 39  1  0
 19 40  1  0
 21 41  1  0
 24 42  1  0
 24 43  1  0
 24 44  1  0
M  END
>  <UniqueID>  (26) 
23

>  <SMILES>  (26) 
COc1ccc(CNCc2coc(-c3ccccc3)n2)cc1OC

>  <Energy>  (26) 
68.04993963676884

>  <Genealogy>  (26) 
COc1ccc(CNCc2coc(-c3ccccc3)n2)cc1OC (3D coordinates assigned)
COc1ccc(CNCc2coc(-c3ccccc3)n2)cc1OC (optimized conformer: 68.04993963676884 kcal/mol)

>  <smiles>  (26) 
COc1ccc(CNCc2coc(-c3ccccc3)n2)cc1OC

>  <score_type>  (26) 
oracle

>  <origin>  (26) 
adg

>  <m_score__min__energy>  (26) 
-8.0399999999999991

>  <m_primary>  (26) 
energy

$$$$
26:0
     RDKit          3D

 41 42  0  0  0  0  0  0  0  0999 V2000
   63.0690   33.7970   49.5130 C   0  0  0  0  0  0  0  0  0  0  0  0
   64.1050   33.2010   48.5610 C   0  0  0  0  0  0  0  0  0  0  0  0
   63.4860   32.7070   47.2420 C   0  0  0  0  0  0  0  0  0  0  0  0
   62.9560   33.8390   46.3570 C   0  0  0  0  0  0  0  0  0  0  0  0
   61.6320   34.1940   46.7540 O   0  0  0  0  0  0  0  0  0  0  0  0
   60.4770   33.4900   46.3830 C   0  0  0  0  0  0  0  0  0  0  0  0
   59.5140   34.0240   45.5070 C   0  0  0  0  0  0  0  0  0  0  0  0
   58.3790   33.2810   45.1700 C   0  0  0  0  0  0  0  0  0  0  0  0
   58.1770   32.0070   45.7130 C   0  0  0  0  0  0  0  0  0  0  0  0
   57.0100   31.2700   45.3230 N   0  0  0  0  0  0  0  0  0  0  0  0
   56.8700   30.4590   44.1500 C   0  0  0  0  0  0  0  0  0  0  0  0
   57.3150   30.8520   43.0380 O   0  0  0  0  0  0  0  0  0  0  0  0
   56.2230   29.1140   44.2530 C   0  0  0  0  0  0  0  0  0  0  0  0
   57.1130   28.1590   45.0180 C   0  0  0  0  0  0  0  0  0  0  0  0
   56.5380   27.1850   45.8600 C   0  0  0  0  0  0  0  0  0  0  0  0
   55.1580   27.0790   45.9920 O   0  0  0  0  0  0  0  0  0  0  0  0
   57.3530   26.3080   46.5780 C   0  0  0  0  0  0  0  0  0  0  0  0
   58.7390   26.4140   46.4660 C   0  0  0  0  0  0  0  0  0  0  0  0
   59.4870   25.6290   47.1060 O   0  0  0  0  0  0  0  0  0  0  0  0
   59.2850   27.3670   45.6700 N   0  0  0  0  0  0  0  0  0  0  0  0
   58.5270   28.2420   44.9550 C   0  0  0  0  0  0  0  0  0  0  0  0
   59.1860   29.1990   44.1820 O   0  0  0  0  0  0  0  0  0  0  0  0
   59.1500   31.4630   46.5700 C   0  0  0  0  0  0  0  0  0  0  0  0
   60.2860   32.2050   46.9050 C   0  0  0  0  0  0  0  0  0  0  0  0
   63.3805   33.6178   50.5527 H   0  0  0  0  0  0  0  0  0  0  0  0
   62.9882   34.8796   49.3358 H   0  0  0  0  0  0  0  0  0  0  0  0
   62.0925   33.3226   49.3358 H   0  0  0  0  0  0  0  0  0  0  0  0
   64.8553   33.9717   48.3305 H   0  0  0  0  0  0  0  0  0  0  0  0
   64.5550   32.3315   49.0625 H   0  0  0  0  0  0  0  0  0  0  0  0
   64.2552   32.1565   46.6805 H   0  0  0  0  0  0  0  0  0  0  0  0
   62.6277   32.0711   47.5044 H   0  0  0  0  0  0  0  0  0  0  0  0
   63.6128   34.7159   46.4559 H   0  0  0  0  0  0  0  0  0  0  0  0
   62.9390   33.4997   45.3108 H   0  0  0  0  0  0  0  0  0  0  0  0
   59.6549   35.0303   45.0857 H   0  0  0  0  0  0  0  0  0  0  0  0
   57.6390   33.7008   44.4727 H   0  0  0  0  0  0  0  0  0  0  0  0
   55.2616   29.2133   44.7782 H   0  0  0  0  0  0  0  0  0  0  0  0
   56.0605   28.7172   43.2400 H   0  0  0  0  0  0  0  0  0  0  0  0
   56.9059   25.5401   47.2264 H   0  0  0  0  0  0  0  0  0  0  0  0
   58.7830   29.6360   43.3650 H   0  0  0  0  0  0  0  0  0  0  0  0
   59.0167   30.4502   46.9781 H   0  0  0  0  0  0  0  0  0  0  0  0
   61.0367   31.7756   47.5848 H   0  0  0  0  0  0  0  0  0  0  0  0
  1  2  1  0
  2  3  1  0
  3  4  1  0
  4  5  1  0
  5  6  1  0
  6  7  2  0
  7  8  1  0
  8  9  2  0
  9 10  1  0
 10 11  1  0
 11 12  2  0
 11 13  1  0
 13 14  1  0
 14 15  1  0
 15 16  1  0
 15 17  2  0
 17 18  1  0
 18 19  2  0
 18 20  1  0
 20 21  1  0
 21 22  1  0
  9 23  1  0
 23 24  2  0
 24  6  1  0
 21 14  2  0
  1 25  1  0
  1 26  1  0
  1 27  1  0
  2 28  1  0
  2 29  1  0
  3 30  1  0
  3 31  1  0
  4 32  1  0
  4 33  1  0
  7 34  1  0
  8 35  1  0
 13 36  1  0
 13 37  1  0
 17 38  1  0
 22 39  1  0
 23 40  1  0
 24 41  1  0
M  CHG  3  10  -1  16  -1  20  -1
M  END
>  <UniqueID>  (27) 
24

>  <SMILES>  (27) 
CCCCOc1ccc([N-]C(=O)Cc2c([O-])cc(=O)[n-]c2O)cc1

>  <Energy>  (27) 
40.01719008157839

>  <Genealogy>  (27) 
CCCCOc1ccc([N-]C(=O)Cc2c([O-])cc(=O)[n-]c2O)cc1 (protonated)
CCCCOc1ccc([N-]C(=O)Cc2c([O-])cc(=O)[n-]c2O)cc1 (3D coordinates assigned)
CCCCOc1ccc([N-]C(=O)Cc2c([O-])cc(=O)[n-]c2O)cc1 (optimized conformer: 40.01719008157839 kcal/mol)

>  <smiles>  (27) 
CCCCOc1ccc(NC(=O)Cc2c(O)cc(=O)[nH]c2O)cc1

>  <score_type>  (27) 
oracle

>  <origin>  (27) 
adg

>  <m_score__min__energy>  (27) 
-13.35

>  <m_primary>  (27) 
energy

$$$$
27:0
     RDKit          3D

 31 32  0  0  0  0  0  0  0  0999 V2000
   54.5782   30.4344   43.3063 H   0  0  0  0  0  0  0  0  0  0  0  0
   55.4670   29.9000   43.6730 C   0  0  0  0  0  0  0  0  0  0  0  0
   55.5120   29.3160   44.8990 N   0  0  0  0  0  0  0  0  0  0  0  0
   56.7030   28.7130   45.1150 C   0  0  0  0  0  0  0  0  0  0  0  0
   57.0240   28.0940   46.2120 N   0  0  0  0  0  0  0  0  0  0  0  0
   57.0990   26.6710   46.3910 C   0  0  0  0  0  0  0  0  0  0  0  0
   55.9180   25.8450   46.3690 N   0  0  0  0  0  0  0  0  0  0  0  0
   55.6990   24.8170   45.5950 C   0  0  0  0  0  0  0  0  0  0  0  0
   56.5950   24.4220   44.5820 C   0  0  0  0  0  0  0  0  0  0  0  0
   57.5244   24.9861   44.4144 H   0  0  0  0  0  0  0  0  0  0  0  0
   56.2960   23.3100   43.7920 C   0  0  0  0  0  0  0  0  0  0  0  0
   56.9864   23.0029   42.9926 H   0  0  0  0  0  0  0  0  0  0  0  0
   55.1530   22.6060   44.0090 N   0  0  0  0  0  0  0  0  0  0  0  0
   54.2780   22.9550   44.9880 C   0  0  0  0  0  0  0  0  0  0  0  0
   53.3627   22.3645   45.1414 H   0  0  0  0  0  0  0  0  0  0  0  0
   54.5370   24.0610   45.8000 C   0  0  0  0  0  0  0  0  0  0  0  0
   53.8317   24.3378   46.5975 H   0  0  0  0  0  0  0  0  0  0  0  0
   58.2620   26.1350   46.6010 N   0  0  0  0  0  0  0  0  0  0  0  0
   59.2020   26.6030   47.6160 C   0  0  0  0  0  0  0  0  0  0  0  0
   59.9314   25.8078   47.8295 H   0  0  0  0  0  0  0  0  0  0  0  0
   58.6450   26.8581   48.5296 H   0  0  0  0  0  0  0  0  0  0  0  0
   59.9420   27.8470   47.1200 C   0  0  0  0  0  0  0  0  0  0  0  0
   60.8386   27.9975   47.7392 H   0  0  0  0  0  0  0  0  0  0  0  0
   59.2567   28.7040   47.1978 H   0  0  0  0  0  0  0  0  0  0  0  0
   60.3680   27.7140   45.6590 C   0  0  0  0  0  0  0  0  0  0  0  0
   61.4170   27.3865   45.6113 H   0  0  0  0  0  0  0  0  0  0  0  0
   59.7292   26.9725   45.1568 H   0  0  0  0  0  0  0  0  0  0  0  0
   60.2645   28.6872   45.1568 H   0  0  0  0  0  0  0  0  0  0  0  0
   57.7460   28.8950   43.8140 S   0  0  0  0  0  0  0  0  0  0  0  0
   56.6270   29.7730   42.9150 C   0  0  0  0  0  0  0  0  0  0  0  0
   56.7850   30.1764   41.9039 H   0  0  0  0  0  0  0  0  0  0  0  0
  1  2  1  0
  2  3  1  0
  3  4  1  0
  4  5  2  0
  5  6  1  0
  6  7  1  0
  7  8  2  3
  8  9  1  0
  9 10  1  0
  9 11  2  0
 11 12  1  0
 11 13  1  0
 13 14  1  0
 14 15  1  0
 14 16  2  0
 16 17  1  0
  6 18  2  0
 18 19  1  0
 19 20  1  0
 19 21  1  0
 19 22  1  0
 22 23  1  0
 22 24  1  0
 22 25  1  0
 25 26  1  0
 25 27  1  0
 25 28  1  0
  4 29  1  0
 29 30  1  0
 30 31  1  0
 30  2  2  0
 16  8  1  0
M  CHG  2   3  -1  13  -1
M  END
>  <UniqueID>  (28) 
25

>  <SMILES>  (28) 
CCC/N=C(N=c1cc[n-]cc1)/N=c1\[n-]ccs1

>  <Energy>  (28) 
67.1063342312979

>  <Genealogy>  (28) 
CCCN=C(N=c1cc[n-]cc1)N=c1[n-]ccs1 (protonated)
CCC/N=C(N=c1cc[n-]cc1)/N=c1\[n-]ccs1 (cis-trans isomerization)
CCC/N=C(N=c1cc[n-]cc1)/N=c1\[n-]ccs1 (3D coordinates assigned)
CCC/N=C(N=c1cc[n-]cc1)/N=c1\[n-]ccs1 (optimized conformer: 67.1063342312979 kcal/mol)

>  <smiles>  (28) 
CCCN=C(N=c1cc[nH]cc1)N=c1[nH]ccs1

>  <score_type>  (28) 
oracle

>  <origin>  (28) 
adg

>  <m_score__min__energy>  (28) 
-8.8900000000000006

>  <m_primary>  (28) 
energy

$$$$
28:0
     RDKit          3D

 50 52  0  0  0  0  0  0  0  0999 V2000
   55.4590   29.7340   43.6910 C   0  0  0  0  0  0  0  0  0  0  0  0
   55.5190   29.1200   44.9570 O   0  0  0  0  0  0  0  0  0  0  0  0
   56.8470   28.7120   45.2180 C   0  0  0  0  0  0  0  0  0  0  0  0
   57.7460   29.1010   44.0430 C   0  0  0  0  0  0  0  0  0  0  0  0
   59.0780   29.6830   44.5280 C   0  0  0  0  0  0  0  0  0  0  0  0
   58.8930   30.4290   45.7740 N   0  0  0  0  0  0  0  0  0  0  0  0
   58.2160   31.5940   45.9630 C   0  0  0  0  0  0  0  0  0  0  0  0
   57.4250   32.5380   44.6520 S   0  0  0  0  0  0  0  0  0  0  0  0
   58.8710   33.6150   44.3200 C   0  0  0  0  0  0  0  0  0  0  0  0
   58.9150   34.8180   45.2600 C   0  0  0  0  0  0  0  0  0  0  0  0
   58.9170   34.3740   46.6150 O   0  0  0  0  0  0  0  0  0  0  0  0
   60.0710   34.1910   47.3910 C   0  0  0  0  0  0  0  0  0  0  0  0
   60.0840   34.3890   48.7840 C   0  0  0  0  0  0  0  0  0  0  0  0
   61.2520   34.1540   49.5160 C   0  0  0  0  0  0  0  0  0  0  0  0
   62.4110   33.7220   48.8680 C   0  0  0  0  0  0  0  0  0  0  0  0
   62.4090   33.5150   47.4820 C   0  0  0  0  0  0  0  0  0  0  0  0
   63.6630   33.0820   46.7800 C   0  0  0  0  0  0  0  0  0  0  0  0
   61.2410   33.7700   46.7470 C   0  0  0  0  0  0  0  0  0  0  0  0
   58.1990   31.9860   47.2600 N   0  0  0  0  0  0  0  0  0  0  0  0
   58.8980   31.0360   47.9010 C   0  0  0  0  0  0  0  0  0  0  0  0
   59.2000   30.9570   49.2590 C   0  0  0  0  0  0  0  0  0  0  0  0
   59.9650   29.8590   49.6940 C   0  0  0  0  0  0  0  0  0  0  0  0
   60.4050   28.8810   48.7720 C   0  0  0  0  0  0  0  0  0  0  0  0
   60.0810   28.9910   47.4060 C   0  0  0  0  0  0  0  0  0  0  0  0
   59.3200   30.0910   47.0080 C   0  0  0  0  0  0  0  0  0  0  0  0
   55.3527   30.8217   43.8157 H   0  0  0  0  0  0  0  0  0  0  0  0
   56.3826   29.5173   43.1342 H   0  0  0  0  0  0  0  0  0  0  0  0
   54.5948   29.3426   43.1342 H   0  0  0  0  0  0  0  0  0  0  0  0
   57.2077   29.2044   46.1331 H   0  0  0  0  0  0  0  0  0  0  0  0
   56.8733   27.6204   45.3511 H   0  0  0  0  0  0  0  0  0  0  0  0
   57.9464   28.2070   43.4342 H   0  0  0  0  0  0  0  0  0  0  0  0
   57.2279   29.8688   43.4496 H   0  0  0  0  0  0  0  0  0  0  0  0
   59.7894   28.8620   44.7008 H   0  0  0  0  0  0  0  0  0  0  0  0
   59.4656   30.3680   43.7596 H   0  0  0  0  0  0  0  0  0  0  0  0
   59.7906   33.0262   44.4531 H   0  0  0  0  0  0  0  0  0  0  0  0
   58.7856   33.9912   43.2899 H   0  0  0  0  0  0  0  0  0  0  0  0
   59.8279   35.4000   45.0653 H   0  0  0  0  0  0  0  0  0  0  0  0
   58.0295   35.4469   45.0858 H   0  0  0  0  0  0  0  0  0  0  0  0
   59.1732   34.7294   49.2984 H   0  0  0  0  0  0  0  0  0  0  0  0
   61.2578   34.3098   50.6049 H   0  0  0  0  0  0  0  0  0  0  0  0
   63.3288   33.5435   49.4475 H   0  0  0  0  0  0  0  0  0  0  0  0
   64.4278   32.8179   47.5252 H   0  0  0  0  0  0  0  0  0  0  0  0
   63.4470   32.2064   46.1502 H   0  0  0  0  0  0  0  0  0  0  0  0
   64.0332   33.9043   46.1502 H   0  0  0  0  0  0  0  0  0  0  0  0
   61.2446   33.6379   45.6550 H   0  0  0  0  0  0  0  0  0  0  0  0
   57.7540   32.8400   47.6640 H   0  0  0  0  0  0  0  0  0  0  0  0
   58.8529   31.7253   49.9655 H   0  0  0  0  0  0  0  0  0  0  0  0
   60.2227   29.7606   50.7589 H   0  0  0  0  0  0  0  0  0  0  0  0
   61.0044   28.0286   49.1243 H   0  0  0  0  0  0  0  0  0  0  0  0
   60.4158   28.2368   46.6786 H   0  0  0  0  0  0  0  0  0  0  0  0
  1  2  1  0
  2  3  1  0
  3  4  1  0
  4  5  1  0
  5  6  1  0
  6  7  1  0
  7  8  1  0
  8  9  1  0
  9 10  1  0
 10 11  1  0
 11 12  1  0
 12 13  2  0
 13 14  1  0
 14 15  2  0
 15 16  1  0
 16 17  1  0
 16 18  2  0
  7 19  2  0
 19 20  1  0
 20 21  2  0
 21 22  1  0
 22 23  2  0
 23 24  1  0
 24 25  2  0
 25  6  1  0
 18 12  1  0
 25 20  1  0
  1 26  1  0
  1 27  1  0
  1 28  1  0
  3 29  1  0
  3 30  1  0
  4 31  1  0
  4 32  1  0
  5 33  1  0
  5 34  1  0
  9 35  1  0
  9 36  1  0
 10 37  1  0
 10 38  1  0
 13 39  1  0
 14 40  1  0
 15 41  1  0
 17 42  1  0
 17 43  1  0
 17 44  1  0
 18 45  1  0
 19 46  1  0
 21 47  1  0
 22 48  1  0
 23 49  1  0
 24 50  1  0
M  CHG  1  19   1
M  END
>  <UniqueID>  (29) 
26

>  <SMILES>  (29) 
COCCCn1c(SCCOc2cccc(C)c2)[nH+]c2ccccc21

>  <Energy>  (29) 
76.42558489782346

>  <Genealogy>  (29) 
COCCCn1c(SCCOc2cccc(C)c2)[nH+]c2ccccc21 (protonated)
COCCCn1c(SCCOc2cccc(C)c2)[nH+]c2ccccc21 (3D coordinates assigned)
COCCCn1c(SCCOc2cccc(C)c2)[nH+]c2ccccc21 (optimized conformer: 76.42558489782346 kcal/mol)

>  <smiles>  (29) 
COCCCn1c(SCCOc2cccc(C)c2)nc2ccccc21

>  <score_type>  (29) 
oracle

>  <origin>  (29) 
adg

>  <m_score__min__energy>  (29) 
-6.0499999999999998

>  <m_primary>  (29) 
energy

$$$$
29:0
     RDKit          3D

 41 42  0  0  0  0  0  0  0  0999 V2000
   65.1560   33.0920   47.2450 H   0  0  0  0  0  0  0  0  0  0  0  0
   64.2180   33.4520   47.1200 O   0  0  0  0  0  0  0  0  0  0  0  0
   63.1780   32.9590   47.8740 N   0  0  0  0  0  0  0  0  0  0  0  0
   63.3150   32.2580   48.9580 O   0  0  0  0  0  0  0  0  0  0  0  0
   62.1680   31.9190   49.4730 N   0  0  0  0  0  0  0  0  0  0  0  0
   61.2240   32.4410   48.6560 C   0  0  0  0  0  0  0  0  0  0  0  0
   59.8700   32.2830   48.8860 C   0  0  0  0  0  0  0  0  0  0  0  0
   59.5924   31.7016   49.7776 H   0  0  0  0  0  0  0  0  0  0  0  0
   58.8170   32.7750   48.1190 C   0  0  0  0  0  0  0  0  0  0  0  0
   57.8124   32.5252   48.4910 H   0  0  0  0  0  0  0  0  0  0  0  0
   58.8430   33.5480   46.9330 C   0  0  0  0  0  0  0  0  0  0  0  0
   57.7180   33.9170   46.3760 N   0  0  0  0  0  0  0  0  0  0  0  0
   57.4150   34.0500   44.9510 C   0  0  0  0  0  0  0  0  0  0  0  0
   58.0233   34.8611   44.5242 H   0  0  0  0  0  0  0  0  0  0  0  0
   56.3460   34.2797   44.8310 H   0  0  0  0  0  0  0  0  0  0  0  0
   57.7310   32.7410   44.2190 C   0  0  0  0  0  0  0  0  0  0  0  0
   58.7232   32.3902   44.5392 H   0  0  0  0  0  0  0  0  0  0  0  0
   57.7002   32.9500   43.1395 H   0  0  0  0  0  0  0  0  0  0  0  0
   56.7030   31.6340   44.5050 C   0  0  0  0  0  0  0  0  0  0  0  0
   56.2950   31.2664   43.5519 H   0  0  0  0  0  0  0  0  0  0  0  0
   55.9007   32.0525   45.1305 H   0  0  0  0  0  0  0  0  0  0  0  0
   57.3300   30.5050   45.2320 N   0  0  0  0  0  0  0  0  0  0  0  0
   58.8010   30.6590   45.2990 C   0  0  0  0  0  0  0  0  0  0  0  0
   59.0445   31.6574   45.6914 H   0  0  0  0  0  0  0  0  0  0  0  0
   59.2212   30.5402   44.2894 H   0  0  0  0  0  0  0  0  0  0  0  0
   59.4000   29.5960   46.2170 C   0  0  0  0  0  0  0  0  0  0  0  0
   59.2377   29.8839   47.2662 H   0  0  0  0  0  0  0  0  0  0  0  0
   58.9144   28.6282   46.0231 H   0  0  0  0  0  0  0  0  0  0  0  0
   60.4794   29.5101   46.0231 H   0  0  0  0  0  0  0  0  0  0  0  0
   56.9510   29.2030   44.6360 C   0  0  0  0  0  0  0  0  0  0  0  0
   57.7827   28.4932   44.7562 H   0  0  0  0  0  0  0  0  0  0  0  0
   56.0541   28.8235   45.1474 H   0  0  0  0  0  0  0  0  0  0  0  0
   56.6420   29.3690   43.1510 C   0  0  0  0  0  0  0  0  0  0  0  0
   55.6786   29.8865   43.0326 H   0  0  0  0  0  0  0  0  0  0  0  0
   57.4374   29.9613   42.6749 H   0  0  0  0  0  0  0  0  0  0  0  0
   56.5873   28.3789   42.6749 H   0  0  0  0  0  0  0  0  0  0  0  0
   59.9960   33.9870   46.2570 C   0  0  0  0  0  0  0  0  0  0  0  0
   59.8033   34.5736   45.3467 H   0  0  0  0  0  0  0  0  0  0  0  0
   61.3420   33.7970   46.5570 C   0  0  0  0  0  0  0  0  0  0  0  0
   62.0682   34.2446   45.8625 H   0  0  0  0  0  0  0  0  0  0  0  0
   61.8640   33.1050   47.6360 C   0  0  0  0  0  0  0  0  0  0  0  0
  1  2  1  0
  2  3  1  0
  3  4  1  0
  4  5  1  0
  5  6  2  0
  6  7  1  0
  7  8  1  0
  7  9  2  0
  9 10  1  0
  9 11  1  0
 11 12  2  0
 12 13  1  0
 13 14  1  0
 13 15  1  0
 13 16  1  0
 16 17  1  0
 16 18  1  0
 16 19  1  0
 19 20  1  0
 19 21  1  0
 19 22  1  0
 22 23  1  0
 23 24  1  0
 23 25  1  0
 23 26  1  0
 26 27  1  0
 26 28  1  0
 26 29  1  0
 22 30  1  0
 30 31  1  0
 30 32  1  0
 30 33  1  0
 33 34  1  0
 33 35  1  0
 33 36  1  0
 11 37  1  0
 37 38  1  0
 37 39  2  0
 39 40  1  0
 39 41  1  0
 41  3  2  0
 41  6  1  0
M  CHG  1   3   1
M  END
>  <UniqueID>  (30) 
27

>  <SMILES>  (30) 
CCN(CC)CCC/N=c1\ccc2no[n+](O)c2cc1

>  <Energy>  (30) 
88.13732071997485

>  <Genealogy>  (30) 
CCN(CC)CCCN=c1ccc2no[n+](O)c2cc1 (protonated)
CCN(CC)CCC/N=c1\ccc2no[n+](O)c2cc1 (cis-trans isomerization)
CCN(CC)CCC/N=c1\ccc2no[n+](O)c2cc1 (3D coordinates assigned)
CCN(CC)CCC/N=c1\ccc2no[n+](O)c2cc1 (optimized conformer: 88.13732071997485 kcal/mol)

>  <smiles>  (30) 
CCN(CC)CCCN=c1ccc2no[n+]([O-])c2cc1

>  <score_type>  (30) 
oracle

>  <origin>  (30) 
adg

>  <m_score__min__energy>  (30) 
-5.6600000000000001

>  <m_primary>  (30) 
energy

$$$$
30:0
     RDKit          3D

 43 45  0  0  0  0  0  0  0  0999 V2000
   55.9070   30.2080   44.1620 C   0  0  0  0  0  0  0  0  0  0  0  0
   57.0430   30.8480   44.8580 N   0  0  0  0  0  0  0  0  0  0  0  0
   57.0100   32.3120   44.6100 C   0  0  0  0  0  0  0  0  0  0  0  0
   57.8850   33.0480   45.5920 C   0  0  0  0  0  0  0  0  0  0  0  0
   58.7530   34.0560   45.1520 C   0  0  0  0  0  0  0  0  0  0  0  0
   59.5710   34.7250   46.0640 C   0  0  0  0  0  0  0  0  0  0  0  0
   59.5080   34.3830   47.4170 C   0  0  0  0  0  0  0  0  0  0  0  0
   58.6540   33.4100   47.8330 N   0  0  0  0  0  0  0  0  0  0  0  0
   57.8480   32.7450   46.9630 C   0  0  0  0  0  0  0  0  0  0  0  0
   58.3410   30.2890   44.3980 C   0  0  0  0  0  0  0  0  0  0  0  0
   58.7040   28.8750   44.9590 C   0  0  2  0  0  0  0  0  0  0  0  0
   60.2030   28.7670   45.3940 C   0  0  0  0  0  0  0  0  0  0  0  0
   60.5240   29.4830   46.6320 N   0  0  0  0  0  0  0  0  0  0  0  0
   60.8650   30.7780   46.7590 C   0  0  0  0  0  0  0  0  0  0  0  0
   60.9370   31.0700   48.1020 C   0  0  0  0  0  0  0  0  0  0  0  0
   60.6090   29.9780   48.8210 N   0  0  0  0  0  0  0  0  0  0  0  0
   60.3490   29.0350   47.8910 C   0  0  0  0  0  0  0  0  0  0  0  0
   58.4510   27.8410   43.8350 C   0  0  0  0  0  0  0  0  0  0  0  0
   58.1180   26.5020   44.4660 C   0  0  0  0  0  0  0  0  0  0  0  0
   57.1560   26.7790   45.6010 C   0  0  0  0  0  0  0  0  0  0  0  0
   57.5680   28.3930   46.3240 S   0  0  0  0  0  0  0  0  0  0  0  0
   55.1997   29.8095   44.9042 H   0  0  0  0  0  0  0  0  0  0  0  0
   55.3971   30.9516   43.5319 H   0  0  0  0  0  0  0  0  0  0  0  0
   56.2788   29.3866   43.5319 H   0  0  0  0  0  0  0  0  0  0  0  0
   57.3684   32.5118   43.5894 H   0  0  0  0  0  0  0  0  0  0  0  0
   55.9750   32.6640   44.7318 H   0  0  0  0  0  0  0  0  0  0  0  0
   58.7899   34.3209   44.0850 H   0  0  0  0  0  0  0  0  0  0  0  0
   60.2577   35.5129   45.7211 H   0  0  0  0  0  0  0  0  0  0  0  0
   60.1491   34.9007   48.1457 H   0  0  0  0  0  0  0  0  0  0  0  0
   57.1646   31.9670   47.3342 H   0  0  0  0  0  0  0  0  0  0  0  0
   58.3100   30.2201   43.3006 H   0  0  0  0  0  0  0  0  0  0  0  0
   59.1148   30.9718   44.7788 H   0  0  0  0  0  0  0  0  0  0  0  0
   60.4442   27.7035   45.5385 H   0  0  0  0  0  0  0  0  0  0  0  0
   60.7976   29.2351   44.5957 H   0  0  0  0  0  0  0  0  0  0  0  0
   61.0533   31.4806   45.9339 H   0  0  0  0  0  0  0  0  0  0  0  0
   61.2192   32.0457   48.5243 H   0  0  0  0  0  0  0  0  0  0  0  0
   60.0288   28.0112   48.1344 H   0  0  0  0  0  0  0  0  0  0  0  0
   57.6098   28.1739   43.2093 H   0  0  0  0  0  0  0  0  0  0  0  0
   59.3494   27.7446   43.2077 H   0  0  0  0  0  0  0  0  0  0  0  0
   57.6472   25.8405   43.7238 H   0  0  0  0  0  0  0  0  0  0  0  0
   59.0267   26.0023   44.8327 H   0  0  0  0  0  0  0  0  0  0  0  0
   56.1250   26.7963   45.2178 H   0  0  0  0  0  0  0  0  0  0  0  0
   57.2375   25.9918   46.3650 H   0  0  0  0  0  0  0  0  0  0  0  0
  1  2  1  0
  2  3  1  0
  3  4  1  0
  4  5  2  0
  5  6  1  0
  6  7  2  0
  7  8  1  0
  8  9  2  0
  2 10  1  0
 11 10  1  6
 11 12  1  0
 12 13  1  0
 13 14  1  0
 14 15  2  0
 15 16  1  0
 16 17  2  0
 11 18  1  0
 18 19  1  0
 19 20  1  0
 20 21  1  0
  9  4  1  0
 21 11  1  0
 17 13  1  0
  1 22  1  0
  1 23  1  0
  1 24  1  0
  3 25  1  0
  3 26  1  0
  5 27  1  0
  6 28  1  0
  7 29  1  0
  9 30  1  0
 10 31  1  0
 10 32  1  0
 12 33  1  0
 12 34  1  0
 14 35  1  0
 15 36  1  0
 17 37  1  0
 18 38  1  0
 18 39  1  0
 19 40  1  0
 19 41  1  0
 20 42  1  0
 20 43  1  0
M  END
>  <UniqueID>  (31) 
28

>  <SMILES>  (31) 
CN(Cc1cccnc1)C[C@]1(Cn2ccnc2)CCCS1

>  <Energy>  (31) 
76.26565500545149

>  <Genealogy>  (31) 
CN(Cc1cccnc1)C[C@]1(Cn2ccnc2)CCCS1 (chirality)
CN(Cc1cccnc1)C[C@]1(Cn2ccnc2)CCCS1 (3D coordinates assigned)
CN(Cc1cccnc1)C[C@]1(Cn2ccnc2)CCCS1 (nonaromatic ring conformer: 76.26565500545149 kcal/mol)

>  <smiles>  (31) 
CN(Cc1cccnc1)CC1(Cn2ccnc2)CCCS1

>  <score_type>  (31) 
oracle

>  <origin>  (31) 
adg

>  <m_score__min__energy>  (31) 
-6.6900000000000004

>  <m_primary>  (31) 
energy

$$$$
31:0
     RDKit          3D

 49 53  0  0  0  0  0  0  0  0999 V2000
   59.4240   32.2789   49.9871 H   0  0  0  0  0  0  0  0  0  0  0  0
   59.6090   32.5530   48.9380 C   0  0  0  0  0  0  0  0  0  0  0  0
   58.9190   31.9340   47.9440 N   0  0  0  0  0  0  0  0  0  0  0  0
   59.1110   32.2330   46.6290 C   0  0  0  0  0  0  0  0  0  0  0  0
   58.3290   31.5080   45.6000 C   0  0  0  0  0  0  0  0  0  0  0  0
   57.8290   32.1900   44.4690 C   0  0  0  0  0  0  0  0  0  0  0  0
   58.0180   33.2679   44.3573 H   0  0  0  0  0  0  0  0  0  0  0  0
   57.0920   31.5080   43.4830 C   0  0  0  0  0  0  0  0  0  0  0  0
   56.6999   32.0510   42.6104 H   0  0  0  0  0  0  0  0  0  0  0  0
   56.8610   30.1330   43.6200 C   0  0  0  0  0  0  0  0  0  0  0  0
   56.2861   29.5772   42.8646 H   0  0  0  0  0  0  0  0  0  0  0  0
   57.3670   29.5080   44.7110 N   0  0  0  0  0  0  0  0  0  0  0  0
   57.2930   28.2230   44.9910 N   0  0  0  0  0  0  0  0  0  0  0  0
   57.9740   28.0970   46.1560 C   0  0  0  0  0  0  0  0  0  0  0  0
   58.1720   26.9670   46.7670 N   0  0  0  0  0  0  0  0  0  0  0  0
   57.6590   25.6810   46.3760 C   0  0  0  0  0  0  0  0  0  0  0  0
   56.2740   25.5140   46.2810 C   0  0  0  0  0  0  0  0  0  0  0  0
   55.6062   26.3531   46.5257 H   0  0  0  0  0  0  0  0  0  0  0  0
   55.7310   24.2940   45.8790 C   0  0  0  0  0  0  0  0  0  0  0  0
   54.6392   24.1749   45.8178 H   0  0  0  0  0  0  0  0  0  0  0  0
   56.5700   23.2170   45.5520 C   0  0  0  0  0  0  0  0  0  0  0  0
   57.9720   23.3860   45.6010 C   0  0  0  0  0  0  0  0  0  0  0  0
   58.5060   24.6200   46.0070 C   0  0  0  0  0  0  0  0  0  0  0  0
   59.5969   24.7582   46.0367 H   0  0  0  0  0  0  0  0  0  0  0  0
   58.8960   22.2460   45.2190 C   0  0  0  0  0  0  0  0  0  0  0  0
   59.9319   22.5602   45.4145 H   0  0  0  0  0  0  0  0  0  0  0  0
   58.5954   21.3771   45.8228 H   0  0  0  0  0  0  0  0  0  0  0  0
   58.7890   21.8180   43.7340 C   0  0  0  0  0  0  0  0  0  0  0  0
   58.6805   22.7222   43.1170 H   0  0  0  0  0  0  0  0  0  0  0  0
   59.7031   21.2569   43.4900 H   0  0  0  0  0  0  0  0  0  0  0  0
   57.6470   20.9290   43.4650 N   0  0  0  0  0  0  0  0  0  0  0  0
   57.6720   20.1580   44.1740 H   0  0  0  0  0  0  0  0  0  0  0  0
   56.3480   21.6100   43.6070 C   0  0  0  0  0  0  0  0  0  0  0  0
   56.3888   22.5602   43.0544 H   0  0  0  0  0  0  0  0  0  0  0  0
   55.5780   20.9335   43.2076 H   0  0  0  0  0  0  0  0  0  0  0  0
   55.9790   21.9110   45.0740 C   0  0  0  0  0  0  0  0  0  0  0  0
   54.8837   21.9645   45.1605 H   0  0  0  0  0  0  0  0  0  0  0  0
   56.3896   21.1043   45.6991 H   0  0  0  0  0  0  0  0  0  0  0  0
   58.4930   29.2640   46.6120 N   0  0  0  0  0  0  0  0  0  0  0  0
   58.0690   30.1280   45.6680 C   0  0  0  0  0  0  0  0  0  0  0  0
   60.0770   33.1920   46.2790 C   0  0  0  0  0  0  0  0  0  0  0  0
   60.2636   33.4303   45.2215 H   0  0  0  0  0  0  0  0  0  0  0  0
   60.7980   33.8400   47.2840 C   0  0  0  0  0  0  0  0  0  0  0  0
   61.5587   34.5887   47.0179 H   0  0  0  0  0  0  0  0  0  0  0  0
   60.5550   33.5390   48.6300 C   0  0  0  0  0  0  0  0  0  0  0  0
   61.3520   34.1980   49.7150 C   0  0  0  0  0  0  0  0  0  0  0  0
   60.9684   33.8808   50.6959 H   0  0  0  0  0  0  0  0  0  0  0  0
   62.4086   33.9062   49.6226 H   0  0  0  0  0  0  0  0  0  0  0  0
   61.2639   35.2906   49.6226 H   0  0  0  0  0  0  0  0  0  0  0  0
  1  2  1  0
  2  3  2  0
  3  4  1  0
  4  5  1  0
  5  6  2  0
  6  7  1  0
  6  8  1  0
  8  9  1  0
  8 10  2  0
 10 11  1  0
 10 12  1  0
 12 13  1  0
 13 14  1  0
 14 15  2  0
 15 16  1  0
 16 17  2  0
 17 18  1  0
 17 19  1  0
 19 20  1  0
 19 21  2  0
 21 22  1  0
 22 23  2  0
 23 24  1  0
 22 25  1  0
 25 26  1  0
 25 27  1  0
 25 28  1  0
 28 29  1  0
 28 30  1  0
 28 31  1  0
 31 32  1  0
 31 33  1  0
 33 34  1  0
 33 35  1  0
 33 36  1  0
 36 37  1  0
 36 38  1  0
 14 39  1  0
 39 40  2  0
  4 41  2  0
 41 42  1  0
 41 43  1  0
 43 44  1  0
 43 45  2  0
 45 46  1  0
 46 47  1  0
 46 48  1  0
 46 49  1  0
 45  2  1  0
 40  5  1  0
 40 12  1  0
 23 16  1  0
 36 21  1  0
M  CHG  1  13  -1
M  END
>  <UniqueID>  (32) 
29

>  <SMILES>  (32) 
Cc1ccc(-c2cccn3[n-]/c(=N\c4ccc5c(c4)CCNCC5)nc23)nc1

>  <Energy>  (32) 
112.38802213824766

>  <Genealogy>  (32) 
Cc1ccc(-c2cccn3[n-]c(=Nc4ccc5c(c4)CCNCC5)nc23)nc1 (protonated)
Cc1ccc(-c2cccn3[n-]/c(=N\c4ccc5c(c4)CCNCC5)nc23)nc1 (cis-trans isomerization)
Cc1ccc(-c2cccn3[n-]/c(=N\c4ccc5c(c4)CCNCC5)nc23)nc1 (3D coordinates assigned)
Cc1ccc(-c2cccn3[n-]/c(=N\c4ccc5c(c4)CCNCC5)nc23)nc1 (nonaromatic ring conformer: 112.38802213824766 kcal/mol)

>  <smiles>  (32) 
Cc1ccc(-c2cccn3[nH]c(=Nc4ccc5c(c4)CCNCC5)nc23)nc1

>  <score_type>  (32) 
oracle

>  <origin>  (32) 
adg

>  <m_score__min__energy>  (32) 
-8.5700000000000003

>  <m_primary>  (32) 
energy

$$$$
32:0
     RDKit          3D

 57 60  0  0  0  0  0  0  0  0999 V2000
   58.5480   33.4650   52.1620 C   0  0  0  0  0  0  0  0  0  0  0  0
   58.3390   32.1620   51.5080 N   0  0  0  0  0  0  0  0  0  0  0  0
   57.0700   31.5740   51.9710 C   0  0  0  0  0  0  0  0  0  0  0  0
   58.3390   32.3290   50.0410 C   0  0  0  0  0  0  0  0  0  0  0  0
   59.5850   33.0070   49.6270 N   0  0  0  0  0  0  0  0  0  0  0  0
   59.2960   34.2780   48.9190 C   0  0  0  0  0  0  0  0  0  0  0  0
   59.8540   33.1360   48.1580 C   0  0  1  0  0  0  0  0  0  0  0  0
   61.3360   33.2520   47.8900 C   0  0  0  0  0  0  0  0  0  0  0  0
   61.7930   33.7410   46.6570 C   0  0  0  0  0  0  0  0  0  0  0  0
   63.1660   33.8230   46.4160 C   0  0  0  0  0  0  0  0  0  0  0  0
   64.0680   33.4170   47.3980 C   0  0  0  0  0  0  0  0  0  0  0  0
   63.5790   32.9280   48.6090 C   0  0  0  0  0  0  0  0  0  0  0  0
   62.2360   32.8450   48.8270 N   0  0  0  0  0  0  0  0  0  0  0  0
   58.9600   32.3010   47.1550 C   0  0  0  0  0  0  0  0  0  0  0  0
   59.7040   31.0550   46.6090 C   0  0  0  0  0  0  0  0  0  0  0  0
   58.8570   30.2510   45.5940 C   0  0  0  0  0  0  0  0  0  0  0  0
   57.5480   30.8930   45.3460 N   0  0  0  0  0  0  0  0  0  0  0  0
   56.7600   30.1240   44.3620 C   0  0  0  0  0  0  0  0  0  0  0  0
   57.0660   28.6530   44.4760 C   0  0  0  0  0  0  0  0  0  0  0  0
   57.7700   27.9890   43.4590 C   0  0  0  0  0  0  0  0  0  0  0  0
   58.0600   26.6270   43.5810 C   0  0  0  0  0  0  0  0  0  0  0  0
   57.6570   25.9230   44.7170 C   0  0  0  0  0  0  0  0  0  0  0  0
   58.0190   24.2140   44.8700 Cl  0  0  0  0  0  0  0  0  0  0  0  0
   56.9610   26.5800   45.7340 C   0  0  0  0  0  0  0  0  0  0  0  0
   56.6670   27.9420   45.6150 C   0  0  0  0  0  0  0  0  0  0  0  0
   57.7570   32.2780   44.8760 C   0  0  0  0  0  0  0  0  0  0  0  0
   58.4540   33.1370   45.9570 C   0  0  0  0  0  0  0  0  0  0  0  0
   58.5271   33.3347   53.2541 H   0  0  0  0  0  0  0  0  0  0  0  0
   59.5233   33.8745   51.8602 H   0  0  0  0  0  0  0  0  0  0  0  0
   57.7497   34.1590   51.8602 H   0  0  0  0  0  0  0  0  0  0  0  0
   57.0499   31.5647   53.0708 H   0  0  0  0  0  0  0  0  0  0  0  0
   56.2287   32.1741   51.5940 H   0  0  0  0  0  0  0  0  0  0  0  0
   56.9839   30.5442   51.5940 H   0  0  0  0  0  0  0  0  0  0  0  0
   58.2799   31.3421   49.5588 H   0  0  0  0  0  0  0  0  0  0  0  0
   57.4719   32.9347   49.7389 H   0  0  0  0  0  0  0  0  0  0  0  0
   58.2537   34.5890   48.7547 H   0  0  0  0  0  0  0  0  0  0  0  0
   59.5896   35.3281   49.0640 H   0  0  0  0  0  0  0  0  0  0  0  0
   61.0752   34.0574   45.8859 H   0  0  0  0  0  0  0  0  0  0  0  0
   63.5348   34.2071   45.4535 H   0  0  0  0  0  0  0  0  0  0  0  0
   65.1516   33.4815   47.2201 H   0  0  0  0  0  0  0  0  0  0  0  0
   64.2811   32.6074   49.3928 H   0  0  0  0  0  0  0  0  0  0  0  0
   61.8990   32.4600   49.7370 H   0  0  0  0  0  0  0  0  0  0  0  0
   58.0926   31.9807   47.7508 H   0  0  0  0  0  0  0  0  0  0  0  0
   60.6277   31.3864   46.1121 H   0  0  0  0  0  0  0  0  0  0  0  0
   59.9158   30.3940   47.4624 H   0  0  0  0  0  0  0  0  0  0  0  0
   59.4073   30.1842   44.6439 H   0  0  0  0  0  0  0  0  0  0  0  0
   58.6750   29.2510   46.0144 H   0  0  0  0  0  0  0  0  0  0  0  0
   55.6884   30.2866   44.5496 H   0  0  0  0  0  0  0  0  0  0  0  0
   57.0234   30.4652   43.3500 H   0  0  0  0  0  0  0  0  0  0  0  0
   58.0940   28.5414   42.5646 H   0  0  0  0  0  0  0  0  0  0  0  0
   58.6072   26.1087   42.7798 H   0  0  0  0  0  0  0  0  0  0  0  0
   56.6437   26.0256   46.6295 H   0  0  0  0  0  0  0  0  0  0  0  0
   56.1204   28.4569   46.4188 H   0  0  0  0  0  0  0  0  0  0  0  0
   58.3847   32.2594   43.9729 H   0  0  0  0  0  0  0  0  0  0  0  0
   56.7752   32.7232   44.6573 H   0  0  0  0  0  0  0  0  0  0  0  0
   59.3128   33.6492   45.4986 H   0  0  0  0  0  0  0  0  0  0  0  0
   57.7104   33.8502   46.3424 H   0  0  0  0  0  0  0  0  0  0  0  0
  1  2  1  0
  2  3  1  0
  2  4  1  0
  5  4  1  0
  5  6  1  0
  6  7  1  0
  7  8  1  0
  8  9  2  0
  9 10  1  0
 10 11  2  0
 11 12  1  0
 12 13  2  0
  7 14  1  6
 14 15  1  0
 15 16  1  0
 16 17  1  0
 17 18  1  0
 18 19  1  0
 19 20  2  0
 20 21  1  0
 21 22  2  0
 22 23  1  0
 22 24  1  0
 24 25  2  0
 17 26  1  0
 26 27  1  0
  7  5  1  0
 13  8  1  0
 27 14  1  0
 25 19  1  0
  1 28  1  0
  1 29  1  0
  1 30  1  0
  3 31  1  0
  3 32  1  0
  3 33  1  0
  4 34  1  0
  4 35  1  0
  6 36  1  0
  6 37  1  0
  9 38  1  0
 10 39  1  0
 11 40  1  0
 12 41  1  0
 13 42  1  0
 14 43  1  0
 15 44  1  0
 15 45  1  0
 16 46  1  0
 16 47  1  0
 18 48  1  0
 18 49  1  0
 20 50  1  0
 21 51  1  0
 24 52  1  0
 25 53  1  0
 26 54  1  0
 26 55  1  0
 27 56  1  0
 27 57  1  0
M  CHG  1  13   1
M  END
>  <UniqueID>  (33) 
30

>  <SMILES>  (33) 
CN(C)C[N@]1C[C@]1(c1cccc[nH+]1)C1CCN(Cc2ccc(Cl)cc2)CC1

>  <Energy>  (33) 
418.4805299516419

>  <Genealogy>  (33) 
CN(C)CN1CC1(c1cccc[nH+]1)C1CCN(Cc2ccc(Cl)cc2)CC1 (protonated)
CN(C)C[N@]1C[C@]1(c1cccc[nH+]1)C1CCN(Cc2ccc(Cl)cc2)CC1 (chirality)
CN(C)C[N@]1C[C@]1(c1cccc[nH+]1)C1CCN(Cc2ccc(Cl)cc2)CC1 (3D coordinates assigned)
CN(C)C[N@]1C[C@]1(c1cccc[nH+]1)C1CCN(Cc2ccc(Cl)cc2)CC1 (nonaromatic ring conformer: 418.4805299516419 kcal/mol)

>  <smiles>  (33) 
CN(C)CN1CC1(c1ccccn1)C1CCN(Cc2ccc(Cl)cc2)CC1

>  <score_type>  (33) 
oracle

>  <origin>  (33) 
adg

>  <m_score__min__energy>  (33) 
-6.7800000000000002

>  <m_primary>  (33) 
energy

$$$$
33:0
     RDKit          3D

 41 44  0  0  0  0  0  0  0  0999 V2000
   55.5300   27.1290   45.6480 O   0  0  0  0  0  0  0  0  0  0  0  0
   56.5690   26.6410   46.1660 C   0  0  0  0  0  0  0  0  0  0  0  0
   56.4350   25.5180   47.0480 N   0  0  0  0  0  0  0  0  0  0  0  0
   56.7780   24.1550   46.7530 C   0  0  0  0  0  0  0  0  0  0  0  0
   57.1170   23.7340   45.4570 C   0  0  0  0  0  0  0  0  0  0  0  0
   57.4340   22.3950   45.2200 C   0  0  0  0  0  0  0  0  0  0  0  0
   57.3920   21.4850   46.2790 C   0  0  0  0  0  0  0  0  0  0  0  0
   57.0380   21.9040   47.5220 N   0  0  0  0  0  0  0  0  0  0  0  0
   56.7270   23.2030   47.7770 C   0  0  0  0  0  0  0  0  0  0  0  0
   57.8800   27.2580   45.8650 C   0  0  0  0  0  0  0  0  0  0  0  0
   59.0460   26.5760   46.2540 C   0  0  0  0  0  0  0  0  0  0  0  0
   60.3050   27.1320   46.0180 C   0  0  0  0  0  0  0  0  0  0  0  0
   60.4150   28.3710   45.3850 C   0  0  0  0  0  0  0  0  0  0  0  0
   59.2670   29.0480   44.9700 C   0  0  0  0  0  0  0  0  0  0  0  0
   57.9970   28.4970   45.1920 C   0  0  0  0  0  0  0  0  0  0  0  0
   56.5680   29.3770   44.5400 S   0  0  0  0  0  0  0  0  0  0  0  0
   57.3740   30.9740   44.6490 C   0  0  0  0  0  0  0  0  0  0  0  0
   57.5990   31.7240   43.4890 C   0  0  0  0  0  0  0  0  0  0  0  0
   58.2170   32.9760   43.5690 C   0  0  0  0  0  0  0  0  0  0  0  0
   58.6200   33.4850   44.8120 C   0  0  0  0  0  0  0  0  0  0  0  0
   59.2390   34.7420   44.9060 C   0  0  0  0  0  0  0  0  0  0  0  0
   59.6360   35.2370   46.1510 C   0  0  0  0  0  0  0  0  0  0  0  0
   59.4190   34.4850   47.3090 C   0  0  0  0  0  0  0  0  0  0  0  0
   58.8040   33.2330   47.2300 C   0  0  0  0  0  0  0  0  0  0  0  0
   58.4000   32.7230   45.9860 C   0  0  0  0  0  0  0  0  0  0  0  0
   57.7800   31.4680   45.8940 C   0  0  0  0  0  0  0  0  0  0  0  0
   57.1328   24.4583   44.6293 H   0  0  0  0  0  0  0  0  0  0  0  0
   57.7138   22.0603   44.2102 H   0  0  0  0  0  0  0  0  0  0  0  0
   57.6457   20.4286   46.1065 H   0  0  0  0  0  0  0  0  0  0  0  0
   56.4340   23.5067   48.7929 H   0  0  0  0  0  0  0  0  0  0  0  0
   58.9660   25.5965   46.7482 H   0  0  0  0  0  0  0  0  0  0  0  0
   61.2111   26.5928   46.3314 H   0  0  0  0  0  0  0  0  0  0  0  0
   61.4069   28.8143   45.2130 H   0  0  0  0  0  0  0  0  0  0  0  0
   59.3594   30.0209   44.4651 H   0  0  0  0  0  0  0  0  0  0  0  0
   57.2887   31.3274   42.5110 H   0  0  0  0  0  0  0  0  0  0  0  0
   58.3874   33.5631   42.6545 H   0  0  0  0  0  0  0  0  0  0  0  0
   59.4117   35.3381   43.9978 H   0  0  0  0  0  0  0  0  0  0  0  0
   60.1210   36.2219   46.2199 H   0  0  0  0  0  0  0  0  0  0  0  0
   59.7336   34.8803   48.2861 H   0  0  0  0  0  0  0  0  0  0  0  0
   58.6360   32.6455   48.1447 H   0  0  0  0  0  0  0  0  0  0  0  0
   57.6125   30.8708   46.8025 H   0  0  0  0  0  0  0  0  0  0  0  0
  1  2  2  0
  2  3  1  0
  3  4  1  0
  4  5  2  0
  5  6  1  0
  6  7  2  0
  7  8  1  0
  8  9  2  0
  2 10  1  0
 10 11  2  0
 11 12  1  0
 12 13  2  0
 13 14  1  0
 14 15  2  0
 15 16  1  0
 16 17  1  0
 17 18  2  0
 18 19  1  0
 19 20  2  0
 20 21  1  0
 21 22  2  0
 22 23  1  0
 23 24  2  0
 24 25  1  0
 25 26  2  0
  9  4  1  0
 15 10  1  0
 26 17  1  0
 25 20  1  0
  5 27  1  0
  6 28  1  0
  7 29  1  0
  9 30  1  0
 11 31  1  0
 12 32  1  0
 13 33  1  0
 14 34  1  0
 18 35  1  0
 19 36  1  0
 21 37  1  0
 22 38  1  0
 23 39  1  0
 24 40  1  0
 26 41  1  0
M  CHG  1   3  -1
M  END
>  <UniqueID>  (34) 
31

>  <SMILES>  (34) 
O=C([N-]c1cccnc1)c1ccccc1Sc1ccc2ccccc2c1

>  <Energy>  (34) 
54.02353610868269

>  <Genealogy>  (34) 
O=C([N-]c1cccnc1)c1ccccc1Sc1ccc2ccccc2c1 (protonated)
O=C([N-]c1cccnc1)c1ccccc1Sc1ccc2ccccc2c1 (3D coordinates assigned)
O=C([N-]c1cccnc1)c1ccccc1Sc1ccc2ccccc2c1 (optimized conformer: 54.02353610868269 kcal/mol)

>  <smiles>  (34) 
O=C(Nc1cccnc1)c1ccccc1Sc1ccc2ccccc2c1

>  <score_type>  (34) 
oracle

>  <origin>  (34) 
adg

>  <m_score__min__energy>  (34) 
-11.529999999999999

>  <m_primary>  (34) 
energy

$$$$
34:0
     RDKit          3D

 31 32  0  0  0  0  0  0  0  0999 V2000
   56.6190   30.0680   42.7970 C   0  0  0  0  0  0  0  0  0  0  0  0
   56.1700   29.7160   44.2090 C   0  0  0  0  0  0  0  0  0  0  0  0
   57.5790   29.1600   45.2310 S   0  0  0  0  0  0  0  0  0  0  0  0
   58.1840   30.8130   45.5750 C   0  0  0  0  0  0  0  0  0  0  0  0
   57.4070   31.8860   45.2780 N   0  0  0  0  0  0  0  0  0  0  0  0
   57.8360   33.1510   45.5190 C   0  0  0  0  0  0  0  0  0  0  0  0
   56.9470   34.3110   45.2050 C   0  0  0  0  0  0  0  0  0  0  0  0
   59.0920   33.3570   46.0950 C   0  0  0  0  0  0  0  0  0  0  0  0
   59.8910   32.2440   46.3940 C   0  0  0  0  0  0  0  0  0  0  0  0
   61.2280   32.4200   47.0140 C   0  0  0  0  0  0  0  0  0  0  0  0
   61.7520   31.4480   47.8880 C   0  0  0  0  0  0  0  0  0  0  0  0
   63.0110   31.6230   48.4690 C   0  0  0  0  0  0  0  0  0  0  0  0
   63.7610   32.7670   48.1870 C   0  0  0  0  0  0  0  0  0  0  0  0
   63.2530   33.7380   47.3210 C   0  0  0  0  0  0  0  0  0  0  0  0
   61.9930   33.5690   46.7380 C   0  0  0  0  0  0  0  0  0  0  0  0
   59.4180   30.9930   46.1200 N   0  0  0  0  0  0  0  0  0  0  0  0
   57.4838   30.7460   42.8456 H   0  0  0  0  0  0  0  0  0  0  0  0
   56.9029   29.1493   42.2628 H   0  0  0  0  0  0  0  0  0  0  0  0
   55.7946   30.5630   42.2628 H   0  0  0  0  0  0  0  0  0  0  0  0
   55.7182   30.6047   44.6739 H   0  0  0  0  0  0  0  0  0  0  0  0
   55.4390   28.8963   44.1479 H   0  0  0  0  0  0  0  0  0  0  0  0
   56.5964   34.7684   46.1419 H   0  0  0  0  0  0  0  0  0  0  0  0
   57.5081   35.0554   44.6210 H   0  0  0  0  0  0  0  0  0  0  0  0
   56.0823   33.9628   44.6210 H   0  0  0  0  0  0  0  0  0  0  0  0
   59.4482   34.3752   46.3104 H   0  0  0  0  0  0  0  0  0  0  0  0
   61.1664   30.5449   48.1149 H   0  0  0  0  0  0  0  0  0  0  0  0
   63.4122   30.8579   49.1500 H   0  0  0  0  0  0  0  0  0  0  0  0
   64.7511   32.9032   48.6466 H   0  0  0  0  0  0  0  0  0  0  0  0
   63.8452   34.6375   47.0970 H   0  0  0  0  0  0  0  0  0  0  0  0
   61.5972   34.3389   46.0594 H   0  0  0  0  0  0  0  0  0  0  0  0
   60.0100   30.1520   46.3100 H   0  0  0  0  0  0  0  0  0  0  0  0
  1  2  1  0
  2  3  1  0
  3  4  1  0
  4  5  2  0
  5  6  1  0
  6  7  1  0
  6  8  2  0
  8  9  1  0
  9 10  1  0
 10 11  2  0
 11 12  1  0
 12 13  2  0
 13 14  1  0
 14 15  2  0
  9 16  2  0
 16  4  1  0
 15 10  1  0
  1 17  1  0
  1 18  1  0
  1 19  1  0
  2 20  1  0
  2 21  1  0
  7 22  1  0
  7 23  1  0
  7 24  1  0
  8 25  1  0
 11 26  1  0
 12 27  1  0
 13 28  1  0
 14 29  1  0
 15 30  1  0
 16 31  1  0
M  CHG  1  16   1
M  END
>  <UniqueID>  (35) 
32

>  <SMILES>  (35) 
CCSc1nc(C)cc(-c2ccccc2)[nH+]1

>  <Energy>  (35) 
28.528323924175382

>  <Genealogy>  (35) 
CCSc1nc(C)cc(-c2ccccc2)[nH+]1 (protonated)
CCSc1nc(C)cc(-c2ccccc2)[nH+]1 (3D coordinates assigned)
CCSc1nc(C)cc(-c2ccccc2)[nH+]1 (optimized conformer: 28.528323924175382 kcal/mol)

>  <smiles>  (35) 
CCSc1nc(C)cc(-c2ccccc2)n1

>  <score_type>  (35) 
oracle

>  <origin>  (35) 
adg

>  <m_score__min__energy>  (35) 
-5.3300000000000001

>  <m_primary>  (35) 
energy

$$$$
35:0
     RDKit          3D

 29 31  0  0  0  0  0  0  0  0999 V2000
   58.2170   32.6840   42.4880 C   0  0  0  0  0  0  0  0  0  0  0  0
   57.4200   31.6360   43.2160 C   0  0  0  0  0  0  0  0  0  0  0  0
   56.6500   30.7280   42.4730 C   0  0  0  0  0  0  0  0  0  0  0  0
   55.9430   29.7130   43.1150 C   0  0  0  0  0  0  0  0  0  0  0  0
   56.0080   29.6090   44.5020 C   0  0  0  0  0  0  0  0  0  0  0  0
   56.7370   30.5050   45.2180 N   0  0  0  0  0  0  0  0  0  0  0  0
   57.4240   31.5220   44.6290 C   0  0  0  0  0  0  0  0  0  0  0  0
   58.1520   32.4360   45.4660 N   0  0  0  0  0  0  0  0  0  0  0  0
   57.8160   33.7160   45.7200 C   0  0  0  0  0  0  0  0  0  0  0  0
   58.7530   34.3420   46.4570 N   0  0  0  0  0  0  0  0  0  0  0  0
   59.7260   33.4300   46.6580 C   0  0  0  0  0  0  0  0  0  0  0  0
   60.9800   33.6790   47.4000 C   0  0  0  0  0  0  0  0  0  0  0  0
   62.2600   33.5430   46.8320 C   0  0  0  0  0  0  0  0  0  0  0  0
   63.2940   33.8300   47.7110 C   0  0  0  0  0  0  0  0  0  0  0  0
   62.6240   34.2500   49.1900 S   0  0  0  0  0  0  0  0  0  0  0  0
   61.0160   34.0750   48.7360 C   0  0  0  0  0  0  0  0  0  0  0  0
   59.3610   32.2500   46.0340 C   0  0  0  0  0  0  0  0  0  0  0  0
   58.7150   33.3389   43.2182 H   0  0  0  0  0  0  0  0  0  0  0  0
   58.9743   32.1960   41.8568 H   0  0  0  0  0  0  0  0  0  0  0  0
   57.5445   33.2834   41.8568 H   0  0  0  0  0  0  0  0  0  0  0  0
   56.6042   30.8179   41.3776 H   0  0  0  0  0  0  0  0  0  0  0  0
   55.3399   29.0014   42.5320 H   0  0  0  0  0  0  0  0  0  0  0  0
   55.4690   28.8011   45.0185 H   0  0  0  0  0  0  0  0  0  0  0  0
   56.8888   34.1917   45.3680 H   0  0  0  0  0  0  0  0  0  0  0  0
   58.7220   35.3330   46.7810 H   0  0  0  0  0  0  0  0  0  0  0  0
   62.4254   33.2376   45.7883 H   0  0  0  0  0  0  0  0  0  0  0  0
   64.3683   33.7892   47.4781 H   0  0  0  0  0  0  0  0  0  0  0  0
   60.1418   34.2439   49.3820 H   0  0  0  0  0  0  0  0  0  0  0  0
   59.9529   31.3232   46.0062 H   0  0  0  0  0  0  0  0  0  0  0  0
  1  2  1  0
  2  3  2  0
  3  4  1  0
  4  5  2  0
  5  6  1  0
  6  7  2  0
  7  8  1  0
  8  9  1  0
  9 10  2  0
 10 11  1  0
 11 12  1  0
 12 13  1  0
 13 14  2  0
 14 15  1  0
 15 16  1  0
 11 17  2  0
  7  2  1  0
 17  8  1  0
 16 12  2  0
  1 18  1  0
  1 19  1  0
  1 20  1  0
  3 21  1  0
  4 22  1  0
  5 23  1  0
  9 24  1  0
 10 25  1  0
 13 26  1  0
 14 27  1  0
 16 28  1  0
 17 29  1  0
M  CHG  1  10   1
M  END
>  <UniqueID>  (36) 
33

>  <SMILES>  (36) 
Cc1cccnc1-n1c[nH+]c(-c2ccsc2)c1

>  <Energy>  (36) 
94.03844577223713

>  <Genealogy>  (36) 
Cc1cccnc1-n1c[nH+]c(-c2ccsc2)c1 (protonated)
Cc1cccnc1-n1c[nH+]c(-c2ccsc2)c1 (3D coordinates assigned)
Cc1cccnc1-n1c[nH+]c(-c2ccsc2)c1 (optimized conformer: 94.03844577223713 kcal/mol)

>  <smiles>  (36) 
Cc1cccnc1-n1cnc(-c2ccsc2)c1

>  <score_type>  (36) 
oracle

>  <origin>  (36) 
adg

>  <m_score__min__energy>  (36) 
-5.2800000000000002

>  <m_primary>  (36) 
energy

$$$$
36:0
     RDKit          3D

 46 49  0  0  0  0  0  0  0  0999 V2000
   63.3910   33.8570   46.3650 C   0  0  0  0  0  0  0  0  0  0  0  0
   63.0290   32.7240   47.3210 C   0  0  0  0  0  0  0  0  0  0  0  0
   61.5820   32.7330   47.6190 N   0  0  0  0  0  0  0  0  0  0  0  0
   60.7360   32.4140   46.5920 C   0  0  0  0  0  0  0  0  0  0  0  0
   59.3450   32.4000   46.7570 C   0  0  0  0  0  0  0  0  0  0  0  0
   58.4700   32.0570   45.6070 C   0  0  0  0  0  0  0  0  0  0  0  0
   57.5710   31.0470   45.6250 N   0  0  0  0  0  0  0  0  0  0  0  0
   57.0200   31.1010   44.3990 C   0  0  0  0  0  0  0  0  0  0  0  0
   55.9220   30.1990   43.9350 C   0  0  0  0  0  0  0  0  0  0  0  0
   55.5230   29.2980   45.0100 N   0  0  0  0  0  0  0  0  0  0  0  0
   56.2770   28.1440   45.4000 C   0  0  0  0  0  0  0  0  0  0  0  0
   55.6790   27.0600   45.6450 O   0  0  0  0  0  0  0  0  0  0  0  0
   57.7520   28.2190   45.5150 C   0  0  0  0  0  0  0  0  0  0  0  0
   58.5610   28.2050   44.3630 C   0  0  0  0  0  0  0  0  0  0  0  0
   59.9540   28.2740   44.4740 C   0  0  0  0  0  0  0  0  0  0  0  0
   60.5530   28.3580   45.7320 C   0  0  0  0  0  0  0  0  0  0  0  0
   59.7620   28.3740   46.8830 C   0  0  0  0  0  0  0  0  0  0  0  0
   58.3690   28.3050   46.7780 C   0  0  0  0  0  0  0  0  0  0  0  0
   57.5830   32.1320   43.6840 C   0  0  0  0  0  0  0  0  0  0  0  0
   58.4760   32.6990   44.4570 O   0  0  0  0  0  0  0  0  0  0  0  0
   58.8120   32.7130   48.0170 C   0  0  0  0  0  0  0  0  0  0  0  0
   57.5610   32.7170   48.1930 O   0  0  0  0  0  0  0  0  0  0  0  0
   59.6730   33.0170   49.0870 C   0  0  0  0  0  0  0  0  0  0  0  0
   59.1560   33.3170   50.3630 C   0  0  0  0  0  0  0  0  0  0  0  0
   60.0110   33.6000   51.4250 C   0  0  0  0  0  0  0  0  0  0  0  0
   61.3890   33.5860   51.2340 C   0  0  0  0  0  0  0  0  0  0  0  0
   61.9240   33.2940   49.9790 C   0  0  0  0  0  0  0  0  0  0  0  0
   61.0800   33.0130   48.8750 C   0  0  0  0  0  0  0  0  0  0  0  0
   63.6757   34.7481   46.9436 H   0  0  0  0  0  0  0  0  0  0  0  0
   64.2346   33.5464   45.7311 H   0  0  0  0  0  0  0  0  0  0  0  0
   62.5236   34.0931   45.7311 H   0  0  0  0  0  0  0  0  0  0  0  0
   63.2963   31.7624   46.8586 H   0  0  0  0  0  0  0  0  0  0  0  0
   63.5839   32.8637   48.2604 H   0  0  0  0  0  0  0  0  0  0  0  0
   61.1602   32.1614   45.6090 H   0  0  0  0  0  0  0  0  0  0  0  0
   55.0571   30.8064   43.6300 H   0  0  0  0  0  0  0  0  0  0  0  0
   56.2820   29.6040   43.0827 H   0  0  0  0  0  0  0  0  0  0  0  0
   58.0948   28.1394   43.3688 H   0  0  0  0  0  0  0  0  0  0  0  0
   60.5782   28.2620   43.5683 H   0  0  0  0  0  0  0  0  0  0  0  0
   61.6484   28.4116   45.8169 H   0  0  0  0  0  0  0  0  0  0  0  0
   60.2353   28.4410   47.8737 H   0  0  0  0  0  0  0  0  0  0  0  0
   57.7512   28.3180   47.6881 H   0  0  0  0  0  0  0  0  0  0  0  0
   57.3305   32.4260   42.6545 H   0  0  0  0  0  0  0  0  0  0  0  0
   58.0675   33.3277   50.5215 H   0  0  0  0  0  0  0  0  0  0  0  0
   59.5963   33.8350   52.4164 H   0  0  0  0  0  0  0  0  0  0  0  0
   62.0604   33.8063   52.0770 H   0  0  0  0  0  0  0  0  0  0  0  0
   63.0156   33.2816   49.8442 H   0  0  0  0  0  0  0  0  0  0  0  0
  1  2  1  0
  2  3  1  0
  3  4  1  0
  4  5  2  0
  5  6  1  0
  6  7  2  0
  7  8  1  0
  8  9  1  0
  9 10  1  0
 10 11  1  0
 11 12  2  0
 11 13  1  0
 13 14  2  0
 14 15  1  0
 15 16  2  0
 16 17  1  0
 17 18  2  0
  8 19  2  0
 19 20  1  0
  5 21  1  0
 21 22  2  0
 21 23  1  0
 23 24  2  0
 24 25  1  0
 25 26  2  0
 26 27  1  0
 27 28  2  0
 28  3  1  0
 20  6  1  0
 28 23  1  0
 18 13  1  0
  1 29  1  0
  1 30  1  0
  1 31  1  0
  2 32  1  0
  2 33  1  0
  4 34  1  0
  9 35  1  0
  9 36  1  0
 14 37  1  0
 15 38  1  0
 16 39  1  0
 17 40  1  0
 18 41  1  0
 19 42  1  0
 24 43  1  0
 25 44  1  0
 26 45  1  0
 27 46  1  0
M  CHG  1  10  -1
M  END
>  <UniqueID>  (37) 
34

>  <SMILES>  (37) 
CCn1cc(-c2nc(C[N-]C(=O)c3ccccc3)co2)c(=O)c2ccccc21

>  <Energy>  (37) 
86.91262024777343

>  <Genealogy>  (37) 
CCn1cc(-c2nc(C[N-]C(=O)c3ccccc3)co2)c(=O)c2ccccc21 (protonated)
CCn1cc(-c2nc(C[N-]C(=O)c3ccccc3)co2)c(=O)c2ccccc21 (3D coordinates assigned)
CCn1cc(-c2nc(C[N-]C(=O)c3ccccc3)co2)c(=O)c2ccccc21 (optimized conformer: 86.91262024777343 kcal/mol)

>  <smiles>  (37) 
CCn1cc(-c2nc(CNC(=O)c3ccccc3)co2)c(=O)c2ccccc21

>  <score_type>  (37) 
oracle

>  <origin>  (37) 
adg

>  <m_score__min__energy>  (37) 
-10.470000000000001

>  <m_primary>  (37) 
energy

$$$$
37:0
     RDKit          3D

 44 46  0  0  0  0  0  0  0  0999 V2000
   57.4430   32.8350   48.1960 F   0  0  0  0  0  0  0  0  0  0  0  0
   57.9250   33.5100   47.1230 C   0  0  0  0  0  0  0  0  0  0  0  0
   57.1890   33.5450   45.9790 N   0  0  0  0  0  0  0  0  0  0  0  0
   57.6160   34.2030   44.8710 C   0  0  0  0  0  0  0  0  0  0  0  0
   58.8430   34.8680   44.8820 C   0  0  0  0  0  0  0  0  0  0  0  0
   59.6160   34.8540   46.0420 C   0  0  0  0  0  0  0  0  0  0  0  0
   59.1650   34.1720   47.1830 C   0  0  0  0  0  0  0  0  0  0  0  0
   59.9980   34.1700   48.4410 C   0  0  0  0  0  0  0  0  0  0  0  0
   61.3090   33.4540   48.2220 C   0  0  0  0  0  0  0  0  0  0  0  0
   62.5190   34.1400   48.4250 C   0  0  0  0  0  0  0  0  0  0  0  0
   63.7400   33.4990   48.2120 C   0  0  0  0  0  0  0  0  0  0  0  0
   63.7680   32.1690   47.7950 C   0  0  0  0  0  0  0  0  0  0  0  0
   62.5740   31.4760   47.5800 C   0  0  0  0  0  0  0  0  0  0  0  0
   61.3330   32.1130   47.7780 C   0  0  0  0  0  0  0  0  0  0  0  0
   60.1110   31.4550   47.5530 O   0  0  0  0  0  0  0  0  0  0  0  0
   59.8500   30.5120   46.5120 C   0  0  0  0  0  0  0  0  0  0  0  0
   58.4220   30.6630   45.9820 C   0  0  0  0  0  0  0  0  0  0  0  0
   58.3170   30.0830   44.6230 N   0  0  0  0  0  0  0  0  0  0  0  0
   57.2800   30.7480   43.8010 C   0  0  0  0  0  0  0  0  0  0  0  0
   55.9060   30.0540   43.9140 C   0  0  0  0  0  0  0  0  0  0  0  0
   55.7970   29.3630   45.1400 O   0  0  0  0  0  0  0  0  0  0  0  0
   56.6900   28.2620   45.1620 C   0  0  0  0  0  0  0  0  0  0  0  0
   58.1070   28.6230   44.6550 C   0  0  0  0  0  0  0  0  0  0  0  0
   56.9943   34.2120   43.9636 H   0  0  0  0  0  0  0  0  0  0  0  0
   59.1963   35.3975   43.9849 H   0  0  0  0  0  0  0  0  0  0  0  0
   60.5824   35.3790   46.0633 H   0  0  0  0  0  0  0  0  0  0  0  0
   60.2013   35.2091   48.7392 H   0  0  0  0  0  0  0  0  0  0  0  0
   59.4396   33.6444   49.2296 H   0  0  0  0  0  0  0  0  0  0  0  0
   62.5032   35.1895   48.7541 H   0  0  0  0  0  0  0  0  0  0  0  0
   64.6818   34.0439   48.3734 H   0  0  0  0  0  0  0  0  0  0  0  0
   64.7321   31.6642   47.6349 H   0  0  0  0  0  0  0  0  0  0  0  0
   62.6031   30.4258   47.2539 H   0  0  0  0  0  0  0  0  0  0  0  0
   60.5593   30.6798   45.6882 H   0  0  0  0  0  0  0  0  0  0  0  0
   59.9674   29.4973   46.9201 H   0  0  0  0  0  0  0  0  0  0  0  0
   57.7273   30.1395   46.6552 H   0  0  0  0  0  0  0  0  0  0  0  0
   58.1670   31.7321   45.9368 H   0  0  0  0  0  0  0  0  0  0  0  0
   57.1779   31.7906   44.1365 H   0  0  0  0  0  0  0  0  0  0  0  0
   57.5986   30.6926   42.7496 H   0  0  0  0  0  0  0  0  0  0  0  0
   55.1119   30.8129   43.8551 H   0  0  0  0  0  0  0  0  0  0  0  0
   55.8049   29.3321   43.0902 H   0  0  0  0  0  0  0  0  0  0  0  0
   56.7703   27.8963   46.1963 H   0  0  0  0  0  0  0  0  0  0  0  0
   56.2839   27.4952   44.4859 H   0  0  0  0  0  0  0  0  0  0  0  0
   58.8522   28.1698   45.3253 H   0  0  0  0  0  0  0  0  0  0  0  0
   58.2143   28.2375   43.6304 H   0  0  0  0  0  0  0  0  0  0  0  0
  1  2  1  0
  2  3  2  0
  3  4  1  0
  4  5  2  0
  5  6  1  0
  6  7  2  0
  7  8  1  0
  8  9  1  0
  9 10  2  0
 10 11  1  0
 11 12  2  0
 12 13  1  0
 13 14  2  0
 14 15  1  0
 15 16  1  0
 16 17  1  0
 17 18  1  0
 18 19  1  0
 19 20  1  0
 20 21  1  0
 21 22  1  0
 22 23  1  0
  7  2  1  0
 14  9  1  0
 23 18  1  0
  4 24  1  0
  5 25  1  0
  6 26  1  0
  8 27  1  0
  8 28  1  0
 10 29  1  0
 11 30  1  0
 12 31  1  0
 13 32  1  0
 16 33  1  0
 16 34  1  0
 17 35  1  0
 17 36  1  0
 19 37  1  0
 19 38  1  0
 20 39  1  0
 20 40  1  0
 22 41  1  0
 22 42  1  0
 23 43  1  0
 23 44  1  0
M  END
>  <UniqueID>  (38) 
35

>  <SMILES>  (38) 
Fc1ncccc1Cc1ccccc1OCCN1CCOCC1

>  <Energy>  (38) 
53.78739178836656

>  <Genealogy>  (38) 
Fc1ncccc1Cc1ccccc1OCCN1CCOCC1 (3D coordinates assigned)
Fc1ncccc1Cc1ccccc1OCCN1CCOCC1 (nonaromatic ring conformer: 53.78739178836656 kcal/mol)

>  <smiles>  (38) 
Fc1ncccc1Cc1ccccc1OCCN1CCOCC1

>  <score_type>  (38) 
oracle

>  <origin>  (38) 
adg

>  <m_score__min__energy>  (38) 
-7.4900000000000002

>  <m_primary>  (38) 
energy

$$$$
38:0
     RDKit          3D

 59 62  0  0  0  0  0  0  0  0999 V2000
   56.8090   25.5230   46.3460 C   0  0  0  0  0  0  0  0  0  0  0  0
   57.9800   26.4260   46.0990 C   0  0  0  0  0  0  0  0  0  0  0  0
   59.2900   25.9430   46.2450 C   0  0  0  0  0  0  0  0  0  0  0  0
   60.3800   26.7940   46.0400 C   0  0  0  0  0  0  0  0  0  0  0  0
   60.1710   28.1370   45.7160 C   0  0  0  0  0  0  0  0  0  0  0  0
   58.8680   28.6400   45.6190 C   0  0  0  0  0  0  0  0  0  0  0  0
   58.6540   30.0050   45.2480 N   0  0  0  0  0  0  0  0  0  0  0  0
   58.4680   30.3520   43.9810 N   0  0  0  0  0  0  0  0  0  0  0  0
   58.1020   31.6480   43.9130 C   0  0  0  0  0  0  0  0  0  0  0  0
   57.7840   32.3480   42.6280 C   0  0  0  0  0  0  0  0  0  0  0  0
   58.0480   32.1500   45.2070 C   0  0  0  0  0  0  0  0  0  0  0  0
   57.7210   33.4060   45.7300 C   0  0  0  0  0  0  0  0  0  0  0  0
   57.3070   34.5650   44.8700 C   0  0  0  0  0  0  0  0  0  0  0  0
   57.8040   33.5510   47.1220 C   0  0  0  0  0  0  0  0  0  0  0  0
   58.2190   32.4790   47.9360 C   0  0  0  0  0  0  0  0  0  0  0  0
   58.3180   32.6810   49.1780 O   0  0  0  0  0  0  0  0  0  0  0  0
   58.5240   31.2430   47.3940 N   0  0  0  0  0  0  0  0  0  0  0  0
   59.0910   30.2060   48.2830 C   0  0  0  0  0  0  0  0  0  0  0  0
   60.5940   30.4360   48.4870 C   0  0  0  0  0  0  0  0  0  0  0  0
   60.8570   30.9680   49.8490 N   0  0  0  0  0  0  0  0  0  0  0  0
   62.0190   30.2900   50.4520 C   0  0  0  0  0  0  0  0  0  0  0  0
   61.0970   32.4290   49.8420 C   0  0  0  0  0  0  0  0  0  0  0  0
   61.8630   32.8490   48.6180 C   0  0  0  0  0  0  0  0  0  0  0  0
   61.2030   33.4430   47.5290 C   0  0  0  0  0  0  0  0  0  0  0  0
   61.9300   33.8670   46.4120 C   0  0  0  0  0  0  0  0  0  0  0  0
   63.3160   33.7030   46.3730 C   0  0  0  0  0  0  0  0  0  0  0  0
   63.9800   33.1110   47.4510 C   0  0  0  0  0  0  0  0  0  0  0  0
   63.2570   32.6860   48.5710 C   0  0  0  0  0  0  0  0  0  0  0  0
   58.4100   31.0980   46.0260 C   0  0  0  0  0  0  0  0  0  0  0  0
   57.7740   27.7780   45.7830 C   0  0  0  0  0  0  0  0  0  0  0  0
   56.6579   25.4065   47.4293 H   0  0  0  0  0  0  0  0  0  0  0  0
   55.9065   25.9612   45.8950 H   0  0  0  0  0  0  0  0  0  0  0  0
   57.0034   24.5387   45.8950 H   0  0  0  0  0  0  0  0  0  0  0  0
   59.4593   24.8919   46.5215 H   0  0  0  0  0  0  0  0  0  0  0  0
   61.4048   26.4054   46.1340 H   0  0  0  0  0  0  0  0  0  0  0  0
   61.0307   28.7995   45.5370 H   0  0  0  0  0  0  0  0  0  0  0  0
   58.5500   29.6960   43.1700 H   0  0  0  0  0  0  0  0  0  0  0  0
   57.3380   33.3297   42.8458 H   0  0  0  0  0  0  0  0  0  0  0  0
   58.7079   32.4858   42.0471 H   0  0  0  0  0  0  0  0  0  0  0  0
   57.0725   31.7428   42.0471 H   0  0  0  0  0  0  0  0  0  0  0  0
   57.0061   35.4075   45.5101 H   0  0  0  0  0  0  0  0  0  0  0  0
   58.1516   34.8705   44.2349 H   0  0  0  0  0  0  0  0  0  0  0  0
   56.4600   34.2662   44.2349 H   0  0  0  0  0  0  0  0  0  0  0  0
   57.5417   34.5141   47.5843 H   0  0  0  0  0  0  0  0  0  0  0  0
   58.5829   30.2476   49.2577 H   0  0  0  0  0  0  0  0  0  0  0  0
   58.9419   29.2197   47.8193 H   0  0  0  0  0  0  0  0  0  0  0  0
   61.1269   29.4819   48.3616 H   0  0  0  0  0  0  0  0  0  0  0  0
   60.9469   31.1669   47.7445 H   0  0  0  0  0  0  0  0  0  0  0  0
   61.9416   30.3352   51.5483 H   0  0  0  0  0  0  0  0  0  0  0  0
   62.0386   29.2387   50.1288 H   0  0  0  0  0  0  0  0  0  0  0  0
   62.9438   30.7902   50.1288 H   0  0  0  0  0  0  0  0  0  0  0  0
   60.1292   32.9516   49.8563 H   0  0  0  0  0  0  0  0  0  0  0  0
   61.6913   32.6884   50.7305 H   0  0  0  0  0  0  0  0  0  0  0  0
   60.1113   33.5749   47.5551 H   0  0  0  0  0  0  0  0  0  0  0  0
   61.4084   34.3310   45.5619 H   0  0  0  0  0  0  0  0  0  0  0  0
   63.8853   34.0397   45.4940 H   0  0  0  0  0  0  0  0  0  0  0  0
   65.0716   32.9791   47.4189 H   0  0  0  0  0  0  0  0  0  0  0  0
   63.7829   32.2221   49.4185 H   0  0  0  0  0  0  0  0  0  0  0  0
   56.7505   28.1629   45.6635 H   0  0  0  0  0  0  0  0  0  0  0  0
  1  2  1  0
  2  3  2  0
  3  4  1  0
  4  5  2  0
  5  6  1  0
  6  7  1  0
  7  8  1  0
  8  9  2  0
  9 10  1  0
  9 11  1  0
 11 12  1  0
 12 13  1  0
 12 14  2  0
 14 15  1  0
 15 16  2  0
 15 17  1  0
 17 18  1  0
 18 19  1  0
 19 20  1  0
 20 21  1  0
 20 22  1  0
 22 23  1  0
 23 24  2  0
 24 25  1  0
 25 26  2  0
 26 27  1  0
 27 28  2  0
 17 29  1  0
  6 30  2  0
 30  2  1  0
 29  7  1  0
 29 11  2  0
 28 23  1  0
  1 31  1  0
  1 32  1  0
  1 33  1  0
  3 34  1  0
  4 35  1  0
  5 36  1  0
  8 37  1  0
 10 38  1  0
 10 39  1  0
 10 40  1  0
 13 41  1  0
 13 42  1  0
 13 43  1  0
 14 44  1  0
 18 45  1  0
 18 46  1  0
 19 47  1  0
 19 48  1  0
 21 49  1  0
 21 50  1  0
 21 51  1  0
 22 52  1  0
 22 53  1  0
 24 54  1  0
 25 55  1  0
 26 56  1  0
 27 57  1  0
 28 58  1  0
 30 59  1  0
M  CHG  1   8   1
M  END
>  <UniqueID>  (39) 
36

>  <SMILES>  (39) 
Cc1cccc(-n2[nH+]c(C)c3c(C)cc(=O)n(CCN(C)Cc4ccccc4)c32)c1

>  <Energy>  (39) 
115.97140294568462

>  <Genealogy>  (39) 
Cc1cccc(-n2[nH+]c(C)c3c(C)cc(=O)n(CCN(C)Cc4ccccc4)c32)c1 (protonated)
Cc1cccc(-n2[nH+]c(C)c3c(C)cc(=O)n(CCN(C)Cc4ccccc4)c32)c1 (3D coordinates assigned)
Cc1cccc(-n2[nH+]c(C)c3c(C)cc(=O)n(CCN(C)Cc4ccccc4)c32)c1 (optimized conformer: 115.97140294568462 kcal/mol)

>  <smiles>  (39) 
Cc1cccc(-n2nc(C)c3c(C)cc(=O)n(CCN(C)Cc4ccccc4)c32)c1

>  <score_type>  (39) 
oracle

>  <origin>  (39) 
adg

>  <m_score__min__energy>  (39) 
-7.6500000000000004

>  <m_primary>  (39) 
energy

$$$$
39:0
     RDKit          3D

 36 38  0  0  0  0  0  0  0  0999 V2000
   58.7310   25.0610   46.2090 C   0  0  0  0  0  0  0  0  0  0  0  0
   57.2720   25.0960   46.2320 N   0  0  0  0  0  0  0  0  0  0  0  0
   56.4280   24.0600   46.3880 C   0  0  0  0  0  0  0  0  0  0  0  0
   55.1460   24.4760   46.3850 N   0  0  0  0  0  0  0  0  0  0  0  0
   55.1630   25.7920   46.2260 N   0  0  0  0  0  0  0  0  0  0  0  0
   56.4540   26.1600   46.1280 C   0  0  0  0  0  0  0  0  0  0  0  0
   56.9060   27.5760   45.9700 C   0  0  0  0  0  0  0  0  0  0  0  0
   55.9000   28.3190   45.2270 N   0  0  0  0  0  0  0  0  0  0  0  0
   56.1660   29.5700   44.5870 C   0  0  0  0  0  0  0  0  0  0  0  0
   55.2830   30.4700   44.5590 O   0  0  0  0  0  0  0  0  0  0  0  0
   57.5100   29.8260   43.9730 C   0  0  0  0  0  0  0  0  0  0  0  0
   58.4740   30.3930   44.9950 C   0  0  0  0  0  0  0  0  0  0  0  0
   59.4380   29.5320   45.5500 C   0  0  0  0  0  0  0  0  0  0  0  0
   60.3830   30.0050   46.4590 C   0  0  0  0  0  0  0  0  0  0  0  0
   60.3920   31.3470   46.8300 C   0  0  0  0  0  0  0  0  0  0  0  0
   59.4500   32.2340   46.2930 C   0  0  0  0  0  0  0  0  0  0  0  0
   59.4710   33.5880   46.6660 C   0  0  0  0  0  0  0  0  0  0  0  0
   58.5430   34.4810   46.1280 C   0  0  0  0  0  0  0  0  0  0  0  0
   57.5900   34.0340   45.2140 C   0  0  0  0  0  0  0  0  0  0  0  0
   57.5520   32.6900   44.8340 C   0  0  0  0  0  0  0  0  0  0  0  0
   58.4780   31.7660   45.3660 C   0  0  0  0  0  0  0  0  0  0  0  0
   59.1138   25.0518   47.2402 H   0  0  0  0  0  0  0  0  0  0  0  0
   59.0678   24.1545   45.6847 H   0  0  0  0  0  0  0  0  0  0  0  0
   59.1109   25.9503   45.6847 H   0  0  0  0  0  0  0  0  0  0  0  0
   56.7426   23.0122   46.5028 H   0  0  0  0  0  0  0  0  0  0  0  0
   57.0420   28.0317   46.9619 H   0  0  0  0  0  0  0  0  0  0  0  0
   57.8611   27.6005   45.4249 H   0  0  0  0  0  0  0  0  0  0  0  0
   57.9138   28.8798   43.5836 H   0  0  0  0  0  0  0  0  0  0  0  0
   57.3906   30.5573   43.1600 H   0  0  0  0  0  0  0  0  0  0  0  0
   59.4462   28.4702   45.2626 H   0  0  0  0  0  0  0  0  0  0  0  0
   61.1255   29.3145   46.8854 H   0  0  0  0  0  0  0  0  0  0  0  0
   61.1416   31.7121   47.5475 H   0  0  0  0  0  0  0  0  0  0  0  0
   60.2222   33.9462   47.3853 H   0  0  0  0  0  0  0  0  0  0  0  0
   58.5636   35.5397   46.4258 H   0  0  0  0  0  0  0  0  0  0  0  0
   56.8641   34.7432   44.7897 H   0  0  0  0  0  0  0  0  0  0  0  0
   56.7939   32.3485   44.1139 H   0  0  0  0  0  0  0  0  0  0  0  0
  1  2  1  0
  2  3  1  0
  3  4  2  0
  4  5  1  0
  5  6  2  0
  6  7  1  0
  7  8  1  0
  8  9  1  0
  9 10  2  0
  9 11  1  0
 11 12  1  0
 12 13  2  0
 13 14  1  0
 14 15  2  0
 15 16  1  0
 16 17  2  0
 17 18  1  0
 18 19  2  0
 19 20  1  0
 20 21  2  0
  6  2  1  0
 21 12  1  0
 21 16  1  0
  1 22  1  0
  1 23  1  0
  1 24  1  0
  3 25  1  0
  7 26  1  0
  7 27  1  0
 11 28  1  0
 11 29  1  0
 13 30  1  0
 14 31  1  0
 15 32  1  0
 17 33  1  0
 18 34  1  0
 19 35  1  0
 20 36  1  0
M  CHG  1   8  -1
M  END
>  <UniqueID>  (40) 
37

>  <SMILES>  (40) 
Cn1cnnc1C[N-]C(=O)Cc1cccc2ccccc12

>  <Energy>  (40) 
71.15645193629095

>  <Genealogy>  (40) 
Cn1cnnc1C[N-]C(=O)Cc1cccc2ccccc12 (protonated)
Cn1cnnc1C[N-]C(=O)Cc1cccc2ccccc12 (3D coordinates assigned)
Cn1cnnc1C[N-]C(=O)Cc1cccc2ccccc12 (optimized conformer: 71.15645193629095 kcal/mol)

>  <smiles>  (40) 
Cn1cnnc1CNC(=O)Cc1cccc2ccccc12

>  <score_type>  (40) 
oracle

>  <origin>  (40) 
adg

>  <m_score__min__energy>  (40) 
-10.59

>  <m_primary>  (40) 
energy

$$$$
40:0
     RDKit          3D

 32 33  0  0  0  0  0  0  0  0999 V2000
   60.2756   28.3518   46.1100 H   0  0  0  0  0  0  0  0  0  0  0  0
   59.9010   29.3210   45.7490 C   0  0  0  0  0  0  0  0  0  0  0  0
   59.1070   29.3570   44.7240 N   0  0  0  0  0  0  0  0  0  0  0  0
   57.7200   29.5800   44.8250 N   0  0  0  0  0  0  0  0  0  0  0  0
   57.0550   30.6430   44.3390 C   0  0  0  0  0  0  0  0  0  0  0  0
   57.6970   31.8190   43.6780 C   0  0  0  0  0  0  0  0  0  0  0  0
   58.0744   32.5104   44.4458 H   0  0  0  0  0  0  0  0  0  0  0  0
   58.5330   31.4759   43.0507 H   0  0  0  0  0  0  0  0  0  0  0  0
   56.9563   32.3366   43.0507 H   0  0  0  0  0  0  0  0  0  0  0  0
   55.7230   30.4770   44.4520 N   0  0  0  0  0  0  0  0  0  0  0  0
   55.5240   29.2870   45.0050 N   0  0  0  0  0  0  0  0  0  0  0  0
   56.7380   28.7460   45.2250 C   0  0  0  0  0  0  0  0  0  0  0  0
   56.9440   27.2010   45.7280 S   0  0  0  0  0  0  0  0  0  0  0  0
   60.3100   30.5610   46.4390 C   0  0  0  0  0  0  0  0  0  0  0  0
   61.5040   30.6280   47.1740 C   0  0  0  0  0  0  0  0  0  0  0  0
   62.1538   29.7431   47.2428 H   0  0  0  0  0  0  0  0  0  0  0  0
   61.8720   31.8100   47.8180 C   0  0  0  0  0  0  0  0  0  0  0  0
   62.8109   31.8511   48.3897 H   0  0  0  0  0  0  0  0  0  0  0  0
   61.0500   32.9500   47.7410 C   0  0  0  0  0  0  0  0  0  0  0  0
   61.3880   34.1560   48.3760 O   0  0  0  0  0  0  0  0  0  0  0  0
   62.2970   34.2670   49.4650 C   0  0  0  0  0  0  0  0  0  0  0  0
   61.7433   34.1994   50.4131 H   0  0  0  0  0  0  0  0  0  0  0  0
   63.0341   33.4522   49.4119 H   0  0  0  0  0  0  0  0  0  0  0  0
   62.8163   35.2352   49.4119 H   0  0  0  0  0  0  0  0  0  0  0  0
   59.8550   32.8930   47.0090 C   0  0  0  0  0  0  0  0  0  0  0  0
   59.0550   34.0450   46.9500 O   0  0  0  0  0  0  0  0  0  0  0  0
   58.5110   34.5900   45.7520 C   0  0  0  0  0  0  0  0  0  0  0  0
   57.7546   35.3478   46.0043 H   0  0  0  0  0  0  0  0  0  0  0  0
   59.3148   35.0561   45.1632 H   0  0  0  0  0  0  0  0  0  0  0  0
   58.0434   33.7871   45.1632 H   0  0  0  0  0  0  0  0  0  0  0  0
   59.4900   31.6960   46.3600 C   0  0  0  0  0  0  0  0  0  0  0  0
   58.5527   31.6518   45.7859 H   0  0  0  0  0  0  0  0  0  0  0  0
  1  2  1  0
  2  3  2  0
  3  4  1  0
  4  5  1  0
  5  6  1  0
  6  7  1  0
  6  8  1  0
  6  9  1  0
  5 10  2  0
 10 11  1  0
 11 12  1  0
 12 13  2  0
  2 14  1  0
 14 15  2  0
 15 16  1  0
 15 17  1  0
 17 18  1  0
 17 19  2  0
 19 20  1  0
 20 21  1  0
 21 22  1  0
 21 23  1  0
 21 24  1  0
 19 25  1  0
 25 26  1  0
 26 27  1  0
 27 28  1  0
 27 29  1  0
 27 30  1  0
 25 31  2  0
 31 32  1  0
 12  4  1  0
 31 14  1  0
M  CHG  1  11  -1
M  END
>  <UniqueID>  (41) 
38

>  <SMILES>  (41) 
COc1ccc(/C=N/n2c(C)n[n-]c2=S)cc1OC

>  <Energy>  (41) 
71.74432024553262

>  <Genealogy>  (41) 
COc1ccc(C=Nn2c(C)n[n-]c2=S)cc1OC (protonated)
COc1ccc(/C=N/n2c(C)n[n-]c2=S)cc1OC (cis-trans isomerization)
COc1ccc(/C=N/n2c(C)n[n-]c2=S)cc1OC (3D coordinates assigned)
COc1ccc(/C=N/n2c(C)n[n-]c2=S)cc1OC (optimized conformer: 71.74432024553262 kcal/mol)

>  <smiles>  (41) 
COc1ccc(C=Nn2c(C)n[nH]c2=S)cc1OC

>  <score_type>  (41) 
oracle

>  <origin>  (41) 
adg

>  <m_score__min__energy>  (41) 
-7.4199999999999999

>  <m_primary>  (41) 
energy

$$$$
41:0
     RDKit          3D

 30 31  0  0  0  0  0  0  0  0999 V2000
   59.9750   29.3460   45.6270 C   0  0  0  0  0  0  0  0  0  0  0  0
   59.1370   28.7170   44.5200 C   0  0  0  0  0  0  0  0  0  0  0  0
   57.7720   29.2410   44.5550 N   0  0  0  0  0  0  0  0  0  0  0  0
   56.6700   28.5920   44.9710 C   0  0  0  0  0  0  0  0  0  0  0  0
   55.5890   29.3940   44.9320 N   0  0  0  0  0  0  0  0  0  0  0  0
   55.9950   30.5780   44.4950 N   0  0  0  0  0  0  0  0  0  0  0  0
   57.3220   30.4840   44.2820 C   0  0  0  0  0  0  0  0  0  0  0  0
   58.1500   31.6190   43.7390 C   0  0  0  0  0  0  0  0  0  0  0  0
   57.5440   32.9270   44.0410 N   0  0  0  0  0  0  0  0  0  0  0  0
   58.1890   33.5560   45.1680 C   0  0  0  0  0  0  0  0  0  0  0  0
   59.0040   34.6890   44.9830 C   0  0  0  0  0  0  0  0  0  0  0  0
   59.6640   35.2690   46.0700 C   0  0  0  0  0  0  0  0  0  0  0  0
   59.5200   34.7250   47.3480 C   0  0  0  0  0  0  0  0  0  0  0  0
   58.7150   33.5990   47.5440 C   0  0  0  0  0  0  0  0  0  0  0  0
   58.5820   33.0680   48.7830 F   0  0  0  0  0  0  0  0  0  0  0  0
   58.0540   33.0140   46.4590 C   0  0  0  0  0  0  0  0  0  0  0  0
   59.5742   29.0452   46.6062 H   0  0  0  0  0  0  0  0  0  0  0  0
   61.0169   29.0051   45.5368 H   0  0  0  0  0  0  0  0  0  0  0  0
   59.9386   30.4417   45.5368 H   0  0  0  0  0  0  0  0  0  0  0  0
   59.5901   28.9502   43.5452 H   0  0  0  0  0  0  0  0  0  0  0  0
   59.1056   27.6278   44.6707 H   0  0  0  0  0  0  0  0  0  0  0  0
   56.6538   27.5426   45.3003 H   0  0  0  0  0  0  0  0  0  0  0  0
   59.1521   31.5774   44.1907 H   0  0  0  0  0  0  0  0  0  0  0  0
   58.2062   31.5107   42.6458 H   0  0  0  0  0  0  0  0  0  0  0  0
   56.5300   32.7840   44.2610 H   0  0  0  0  0  0  0  0  0  0  0  0
   57.5900   33.5470   43.1980 H   0  0  0  0  0  0  0  0  0  0  0  0
   59.1220   35.1200   43.9778 H   0  0  0  0  0  0  0  0  0  0  0  0
   60.2978   36.1552   45.9185 H   0  0  0  0  0  0  0  0  0  0  0  0
   60.0408   35.1831   48.2018 H   0  0  0  0  0  0  0  0  0  0  0  0
   57.4252   32.1252   46.6161 H   0  0  0  0  0  0  0  0  0  0  0  0
  1  2  1  0
  2  3  1  0
  3  4  1  0
  4  5  2  0
  5  6  1  0
  6  7  2  0
  7  8  1  0
  8  9  1  0
  9 10  1  0
 10 11  2  0
 11 12  1  0
 12 13  2  0
 13 14  1  0
 14 15  1  0
 14 16  2  0
  7  3  1  0
 16 10  1  0
  1 17  1  0
  1 18  1  0
  1 19  1  0
  2 20  1  0
  2 21  1  0
  4 22  1  0
  8 23  1  0
  8 24  1  0
  9 25  1  0
  9 26  1  0
 11 27  1  0
 12 28  1  0
 13 29  1  0
 16 30  1  0
M  CHG  1   9   1
M  END
>  <UniqueID>  (42) 
39

>  <SMILES>  (42) 
CCn1cnnc1C[NH2+]c1cccc(F)c1

>  <Energy>  (42) 
60.14197397073716

>  <Genealogy>  (42) 
CCn1cnnc1C[NH2+]c1cccc(F)c1 (protonated)
CCn1cnnc1C[NH2+]c1cccc(F)c1 (3D coordinates assigned)
CCn1cnnc1C[NH2+]c1cccc(F)c1 (optimized conformer: 60.14197397073716 kcal/mol)

>  <smiles>  (42) 
CCn1cnnc1CNc1cccc(F)c1

>  <score_type>  (42) 
oracle

>  <origin>  (42) 
adg

>  <m_score__min__energy>  (42) 
-4.7699999999999996

>  <m_primary>  (42) 
energy

$$$$
42:0
     RDKit          3D

 28 30  0  0  0  0  0  0  0  0999 V2000
   57.3530   32.0590   43.1010 O   0  0  0  0  0  0  0  0  0  0  0  0
   57.4150   30.9360   43.6760 C   0  0  0  0  0  0  0  0  0  0  0  0
   56.9750   29.8010   42.9970 C   0  0  0  0  0  0  0  0  0  0  0  0
   57.0260   28.5870   43.6010 N   0  0  0  0  0  0  0  0  0  0  0  0
   57.5090   28.4520   44.8650 C   0  0  0  0  0  0  0  0  0  0  0  0
   57.5610   27.1870   45.4710 C   0  0  0  0  0  0  0  0  0  0  0  0
   58.0660   27.0470   46.7640 C   0  0  0  0  0  0  0  0  0  0  0  0
   58.5250   28.1640   47.4620 C   0  0  0  0  0  0  0  0  0  0  0  0
   58.4800   29.4300   46.8730 C   0  0  0  0  0  0  0  0  0  0  0  0
   57.9650   29.5970   45.5670 C   0  0  0  0  0  0  0  0  0  0  0  0
   57.9030   30.8290   44.9530 N   0  0  0  0  0  0  0  0  0  0  0  0
   58.3360   32.0250   45.6310 C   0  0  0  0  0  0  0  0  0  0  0  0
   57.4150   33.0450   45.9170 C   0  0  0  0  0  0  0  0  0  0  0  0
   57.8360   34.2040   46.5770 C   0  0  0  0  0  0  0  0  0  0  0  0
   59.1740   34.3480   46.9540 C   0  0  0  0  0  0  0  0  0  0  0  0
   60.0950   33.3340   46.6730 C   0  0  0  0  0  0  0  0  0  0  0  0
   59.6770   32.1730   46.0150 C   0  0  0  0  0  0  0  0  0  0  0  0
   56.5865   29.8894   41.9717 H   0  0  0  0  0  0  0  0  0  0  0  0
   56.6870   27.7510   43.0710 H   0  0  0  0  0  0  0  0  0  0  0  0
   57.2022   26.3025   44.9243 H   0  0  0  0  0  0  0  0  0  0  0  0
   58.1023   26.0532   47.2342 H   0  0  0  0  0  0  0  0  0  0  0  0
   58.9241   28.0476   48.4804 H   0  0  0  0  0  0  0  0  0  0  0  0
   58.8483   30.3041   47.4300 H   0  0  0  0  0  0  0  0  0  0  0  0
   56.3613   32.9327   45.6218 H   0  0  0  0  0  0  0  0  0  0  0  0
   57.1133   35.0029   46.7995 H   0  0  0  0  0  0  0  0  0  0  0  0
   59.5032   35.2605   47.4726 H   0  0  0  0  0  0  0  0  0  0  0  0
   61.1480   33.4496   46.9694 H   0  0  0  0  0  0  0  0  0  0  0  0
   60.4014   31.3741   45.7981 H   0  0  0  0  0  0  0  0  0  0  0  0
  1  2  2  0
  2  3  1  0
  3  4  2  0
  4  5  1  0
  5  6  2  0
  6  7  1  0
  7  8  2  0
  8  9  1  0
  9 10  2  0
 10 11  1  0
 11 12  1  0
 12 13  2  0
 13 14  1  0
 14 15  2  0
 15 16  1  0
 16 17  2  0
 11  2  1  0
 17 12  1  0
 10  5  1  0
  3 18  1  0
  4 19  1  0
  6 20  1  0
  7 21  1  0
  8 22  1  0
  9 23  1  0
 13 24  1  0
 14 25  1  0
 15 26  1  0
 16 27  1  0
 17 28  1  0
M  CHG  1   4   1
M  END
>  <UniqueID>  (43) 
40

>  <SMILES>  (43) 
O=c1c[nH+]c2ccccc2n1-c1ccccc1

>  <Energy>  (43) 
46.467247731208374

>  <Genealogy>  (43) 
O=c1c[nH+]c2ccccc2n1-c1ccccc1 (protonated)
O=c1c[nH+]c2ccccc2n1-c1ccccc1 (3D coordinates assigned)
O=c1c[nH+]c2ccccc2n1-c1ccccc1 (optimized conformer: 46.467247731208374 kcal/mol)

>  <smiles>  (43) 
O=c1cnc2ccccc2n1-c1ccccc1

>  <score_type>  (43) 
oracle

>  <origin>  (43) 
adg

>  <m_score__min__energy>  (43) 
-4.8399999999999999

>  <m_primary>  (43) 
energy

$$$$
43:0
     RDKit          3D

 41 42  0  0  0  0  0  0  0  0999 V2000
   60.7980   26.3950   46.6490 C   0  0  0  0  0  0  0  0  0  0  0  0
   59.7350   27.2520   46.0300 C   0  0  0  0  0  0  0  0  0  0  0  0
   60.0770   28.2270   45.0810 C   0  0  0  0  0  0  0  0  0  0  0  0
   59.0910   29.0500   44.5290 C   0  0  0  0  0  0  0  0  0  0  0  0
   57.7530   28.9090   44.9230 C   0  0  0  0  0  0  0  0  0  0  0  0
   56.5120   29.9360   44.2110 S   0  0  0  0  0  0  0  0  0  0  0  0
   55.1820   29.3330   44.5620 O   0  0  0  0  0  0  0  0  0  0  0  0
   56.6260   29.9870   42.7130 O   0  0  0  0  0  0  0  0  0  0  0  0
   56.5650   31.5460   44.8680 N   0  0  0  0  0  0  0  0  0  0  0  0
   57.4830   32.2060   45.5250 C   0  0  0  0  0  0  0  0  0  0  0  0
   58.5340   31.3970   46.5410 S   0  0  0  0  0  0  0  0  0  0  0  0
   59.5400   32.7150   46.7860 C   0  0  0  0  0  0  0  0  0  0  0  0
   60.7200   32.6600   47.7360 C   0  0  0  0  0  0  0  0  0  0  0  0
   61.9930   33.1890   47.0660 C   0  0  0  0  0  0  0  0  0  0  0  0
   60.9430   31.2780   48.3600 C   0  0  0  0  0  0  0  0  0  0  0  0
   59.0060   33.8020   46.0650 C   0  0  0  0  0  0  0  0  0  0  0  0
   59.7090   35.1360   45.9700 C   0  0  0  0  0  0  0  0  0  0  0  0
   57.8260   33.5270   45.4060 N   0  0  0  0  0  0  0  0  0  0  0  0
   56.9750   34.5940   44.8660 C   0  0  0  0  0  0  0  0  0  0  0  0
   57.4120   27.9550   45.8920 C   0  0  0  0  0  0  0  0  0  0  0  0
   58.3990   27.1330   46.4450 C   0  0  0  0  0  0  0  0  0  0  0  0
   60.7246   26.4542   47.7450 H   0  0  0  0  0  0  0  0  0  0  0  0
   60.6610   25.3518   46.3281 H   0  0  0  0  0  0  0  0  0  0  0  0
   61.7884   26.7502   46.3281 H   0  0  0  0  0  0  0  0  0  0  0  0
   61.1255   28.3444   44.7699 H   0  0  0  0  0  0  0  0  0  0  0  0
   59.3658   29.8105   43.7833 H   0  0  0  0  0  0  0  0  0  0  0  0
   60.4675   33.3249   48.5752 H   0  0  0  0  0  0  0  0  0  0  0  0
   62.7162   33.4895   47.8385 H   0  0  0  0  0  0  0  0  0  0  0  0
   62.4329   32.3992   46.4393 H   0  0  0  0  0  0  0  0  0  0  0  0
   61.7436   34.0580   46.4393 H   0  0  0  0  0  0  0  0  0  0  0  0
   60.9291   31.3642   49.4565 H   0  0  0  0  0  0  0  0  0  0  0  0
   60.1433   30.5959   48.0357 H   0  0  0  0  0  0  0  0  0  0  0  0
   61.9167   30.8820   48.0357 H   0  0  0  0  0  0  0  0  0  0  0  0
   59.9100   35.5174   46.9820 H   0  0  0  0  0  0  0  0  0  0  0  0
   60.6590   35.0122   45.4294 H   0  0  0  0  0  0  0  0  0  0  0  0
   59.0698   35.8496   45.4294 H   0  0  0  0  0  0  0  0  0  0  0  0
   56.5245   35.1588   45.6955 H   0  0  0  0  0  0  0  0  0  0  0  0
   57.5835   35.2714   44.2489 H   0  0  0  0  0  0  0  0  0  0  0  0
   56.1792   34.1514   44.2489 H   0  0  0  0  0  0  0  0  0  0  0  0
   56.3664   27.8529   46.2179 H   0  0  0  0  0  0  0  0  0  0  0  0
   58.1273   26.3896   47.2089 H   0  0  0  0  0  0  0  0  0  0  0  0
  1  2  1  0
  2  3  2  0
  3  4  1  0
  4  5  2  0
  5  6  1  0
  6  7  2  0
  6  8  2  0
  6  9  1  0
  9 10  2  3
 10 11  1  0
 11 12  1  0
 12 13  1  0
 13 14  1  0
 13 15  1  0
 12 16  2  0
 16 17  1  0
 16 18  1  0
 18 19  1  0
  5 20  1  0
 20 21  2  0
 21  2  1  0
 18 10  1  0
  1 22  1  0
  1 23  1  0
  1 24  1  0
  3 25  1  0
  4 26  1  0
 13 27  1  0
 14 28  1  0
 14 29  1  0
 14 30  1  0
 15 31  1  0
 15 32  1  0
 15 33  1  0
 17 34  1  0
 17 35  1  0
 17 36  1  0
 19 37  1  0
 19 38  1  0
 19 39  1  0
 20 40  1  0
 21 41  1  0
M  END
>  <UniqueID>  (44) 
41

>  <SMILES>  (44) 
Cc1ccc(S(=O)(=O)N=c2sc(C(C)C)c(C)n2C)cc1

>  <Energy>  (44) 
86.66003492046225

>  <Genealogy>  (44) 
Cc1ccc(S(=O)(=O)N=c2sc(C(C)C)c(C)n2C)cc1 (3D coordinates assigned)
Cc1ccc(S(=O)(=O)N=c2sc(C(C)C)c(C)n2C)cc1 (optimized conformer: 86.66003492046225 kcal/mol)

>  <smiles>  (44) 
Cc1ccc(S(=O)(=O)N=c2sc(C(C)C)c(C)n2C)cc1

>  <score_type>  (44) 
oracle

>  <origin>  (44) 
adg

>  <m_score__min__energy>  (44) 
-8.4199999999999999

>  <m_primary>  (44) 
energy

$$$$
44:0
     RDKit          3D

 43 45  0  0  0  0  0  0  0  0999 V2000
   64.5870   33.0030   49.3760 C   0  0  0  0  0  0  0  0  0  0  0  0
   64.0260   33.7780   48.3220 O   0  0  0  0  0  0  0  0  0  0  0  0
   62.6630   33.7960   47.9900 C   0  0  0  0  0  0  0  0  0  0  0  0
   61.7330   34.0290   49.0100 C   0  0  0  0  0  0  0  0  0  0  0  0
   60.3640   34.0520   48.7300 C   0  0  0  0  0  0  0  0  0  0  0  0
   59.9090   33.8320   47.4250 C   0  0  0  0  0  0  0  0  0  0  0  0
   58.1500   33.8510   47.0670 S   0  0  0  0  0  0  0  0  0  0  0  0
   58.2750   32.5640   45.8030 C   0  0  0  0  0  0  0  0  0  0  0  0
   58.5700   31.2220   46.1250 C   0  0  0  0  0  0  0  0  0  0  0  0
   58.8790   30.8230   47.5540 C   0  0  0  0  0  0  0  0  0  0  0  0
   58.5590   30.2780   45.1220 N   0  0  0  0  0  0  0  0  0  0  0  0
   58.7520   28.8800   45.4080 C   0  0  0  0  0  0  0  0  0  0  0  0
   57.6760   27.9820   45.3250 C   0  0  0  0  0  0  0  0  0  0  0  0
   57.8730   26.6240   45.5900 C   0  0  0  0  0  0  0  0  0  0  0  0
   59.1460   26.1540   45.9290 C   0  0  0  0  0  0  0  0  0  0  0  0
   60.2230   27.0410   45.9990 C   0  0  0  0  0  0  0  0  0  0  0  0
   60.0300   28.4010   45.7330 C   0  0  0  0  0  0  0  0  0  0  0  0
   58.3630   30.6330   43.8450 N   0  0  0  0  0  0  0  0  0  0  0  0
   58.1420   31.9260   43.4780 C   0  0  0  0  0  0  0  0  0  0  0  0
   57.9170   32.2730   42.0320 C   0  0  0  0  0  0  0  0  0  0  0  0
   58.0820   32.9130   44.4640 C   0  0  0  0  0  0  0  0  0  0  0  0
   57.8570   34.1140   44.1450 O   0  0  0  0  0  0  0  0  0  0  0  0
   60.8330   33.6160   46.3970 C   0  0  0  0  0  0  0  0  0  0  0  0
   62.2030   33.5920   46.6750 C   0  0  0  0  0  0  0  0  0  0  0  0
   64.2812   33.4254   50.3445 H   0  0  0  0  0  0  0  0  0  0  0  0
   64.2291   31.9657   49.2990 H   0  0  0  0  0  0  0  0  0  0  0  0
   65.6842   33.0190   49.2990 H   0  0  0  0  0  0  0  0  0  0  0  0
   62.0824   34.1952   50.0397 H   0  0  0  0  0  0  0  0  0  0  0  0
   59.6421   34.2435   49.5376 H   0  0  0  0  0  0  0  0  0  0  0  0
   58.3550   31.4996   48.2451 H   0  0  0  0  0  0  0  0  0  0  0  0
   58.5430   29.7900   47.7271 H   0  0  0  0  0  0  0  0  0  0  0  0
   59.9632   30.8898   47.7271 H   0  0  0  0  0  0  0  0  0  0  0  0
   56.6756   28.3481   45.0508 H   0  0  0  0  0  0  0  0  0  0  0  0
   57.0263   25.9242   45.5319 H   0  0  0  0  0  0  0  0  0  0  0  0
   59.2992   25.0855   46.1406 H   0  0  0  0  0  0  0  0  0  0  0  0
   61.2241   26.6697   46.2636 H   0  0  0  0  0  0  0  0  0  0  0  0
   60.8816   29.0957   45.7788 H   0  0  0  0  0  0  0  0  0  0  0  0
   58.3680   29.8960   43.1020 H   0  0  0  0  0  0  0  0  0  0  0  0
   57.3197   33.1942   41.9647 H   0  0  0  0  0  0  0  0  0  0  0  0
   58.8870   32.4279   41.5369 H   0  0  0  0  0  0  0  0  0  0  0  0
   57.3798   31.4506   41.5369 H   0  0  0  0  0  0  0  0  0  0  0  0
   60.4803   33.4645   45.3661 H   0  0  0  0  0  0  0  0  0  0  0  0
   62.9239   33.4131   45.8636 H   0  0  0  0  0  0  0  0  0  0  0  0
  1  2  1  0
  2  3  1  0
  3  4  2  0
  4  5  1  0
  5  6  2  0
  6  7  1  0
  7  8  1  0
  8  9  2  0
  9 10  1  0
  9 11  1  0
 11 12  1  0
 12 13  2  0
 13 14  1  0
 14 15  2  0
 15 16  1  0
 16 17  2  0
 11 18  1  0
 18 19  2  0
 19 20  1  0
 19 21  1  0
 21 22  2  0
  6 23  1  0
 23 24  2  0
 24  3  1  0
 21  8  1  0
 17 12  1  0
  1 25  1  0
  1 26  1  0
  1 27  1  0
  4 28  1  0
  5 29  1  0
 10 30  1  0
 10 31  1  0
 10 32  1  0
 13 33  1  0
 14 34  1  0
 15 35  1  0
 16 36  1  0
 17 37  1  0
 18 38  1  0
 20 39  1  0
 20 40  1  0
 20 41  1  0
 23 42  1  0
 24 43  1  0
M  CHG  1  18   1
M  END
>  <UniqueID>  (45) 
42

>  <SMILES>  (45) 
COc1ccc(Sc2c(C)n(-c3ccccc3)[nH+]c(C)c2=O)cc1

>  <Energy>  (45) 
51.61422329011476

>  <Genealogy>  (45) 
COc1ccc(Sc2c(C)n(-c3ccccc3)[nH+]c(C)c2=O)cc1 (protonated)
COc1ccc(Sc2c(C)n(-c3ccccc3)[nH+]c(C)c2=O)cc1 (3D coordinates assigned)
COc1ccc(Sc2c(C)n(-c3ccccc3)[nH+]c(C)c2=O)cc1 (optimized conformer: 51.61422329011476 kcal/mol)

>  <smiles>  (45) 
COc1ccc(Sc2c(C)n(-c3ccccc3)nc(C)c2=O)cc1

>  <score_type>  (45) 
oracle

>  <origin>  (45) 
adg

>  <m_score__min__energy>  (45) 
-6.7999999999999998

>  <m_primary>  (45) 
energy

$$$$
45:0
     RDKit          3D

 66 70  0  0  0  0  0  0  0  0999 V2000
   60.5210   26.7930   46.4420 C   0  0  0  0  0  0  0  0  0  0  0  0
   59.3760   27.6350   45.9440 C   0  0  0  0  0  0  0  0  0  0  0  0
   58.7260   27.2890   44.7480 C   0  0  0  0  0  0  0  0  0  0  0  0
   57.6780   28.0710   44.2550 C   0  0  0  0  0  0  0  0  0  0  0  0
   57.2620   29.2190   44.9460 C   0  0  0  0  0  0  0  0  0  0  0  0
   56.1780   30.0670   44.3950 C   0  0  0  0  0  0  0  0  0  0  0  0
   55.2330   29.5270   43.7620 O   0  0  0  0  0  0  0  0  0  0  0  0
   56.1460   31.4870   44.5990 N   0  0  0  0  0  0  0  0  0  0  0  0
   57.2570   32.2990   45.0050 C   0  0  0  0  0  0  0  0  0  0  0  0
   58.1540   32.8280   44.0650 C   0  0  0  0  0  0  0  0  0  0  0  0
   59.2670   33.5530   44.4880 C   0  0  0  0  0  0  0  0  0  0  0  0
   59.5010   33.7750   45.8550 C   0  0  0  0  0  0  0  0  0  0  0  0
   60.7710   34.4860   46.2720 C   0  0  0  0  0  0  0  0  0  0  0  0
   61.8660   33.5190   46.4980 N   0  0  0  0  0  0  0  0  0  0  0  0
   63.1690   34.2100   46.6840 C   0  0  0  0  0  0  0  0  0  0  0  0
   64.1390   33.3840   47.5360 C   0  0  0  0  0  0  0  0  0  0  0  0
   63.6030   33.1740   48.8990 N   0  0  0  0  0  0  0  0  0  0  0  0
   64.2780   32.0350   49.5400 C   0  0  0  0  0  0  0  0  0  0  0  0
   62.1270   33.0290   48.9460 C   0  0  0  0  0  0  0  0  0  0  0  0
   61.5380   32.5770   47.5990 C   0  0  0  0  0  0  0  0  0  0  0  0
   58.5740   33.2800   46.8060 C   0  0  0  0  0  0  0  0  0  0  0  0
   58.7750   33.4950   48.2840 C   0  0  0  0  0  0  0  0  0  0  0  0
   57.4510   32.5580   46.3640 C   0  0  0  0  0  0  0  0  0  0  0  0
   57.8840   29.5460   46.1630 C   0  0  0  0  0  0  0  0  0  0  0  0
   58.9460   28.7770   46.6530 C   0  0  0  0  0  0  0  0  0  0  0  0
   59.5910   29.1940   47.8730 C   0  0  0  0  0  0  0  0  0  0  0  0
   60.1210   29.5300   48.9030 C   0  0  0  0  0  0  0  0  0  0  0  0
   60.7690   29.9160   50.1280 C   0  0  0  0  0  0  0  0  0  0  0  0
   61.9120   29.3530   50.6700 C   0  0  0  0  0  0  0  0  0  0  0  0
   62.2460   30.0070   51.8100 N   0  0  0  0  0  0  0  0  0  0  0  0
   61.2820   30.9490   51.9290 C   0  0  0  0  0  0  0  0  0  0  0  0
   61.1790   31.8860   52.9560 C   0  0  0  0  0  0  0  0  0  0  0  0
   60.0990   32.7870   52.9120 C   0  0  0  0  0  0  0  0  0  0  0  0
   59.1690   32.7330   51.8560 C   0  0  0  0  0  0  0  0  0  0  0  0
   59.3280   31.7740   50.8440 C   0  0  0  0  0  0  0  0  0  0  0  0
   60.3830   30.9200   50.9300 N   0  0  0  0  0  0  0  0  0  0  0  0
   60.5235   26.7912   47.5420 H   0  0  0  0  0  0  0  0  0  0  0  0
   60.4058   25.7628   46.0739 H   0  0  0  0  0  0  0  0  0  0  0  0
   61.4700   27.2100   46.0739 H   0  0  0  0  0  0  0  0  0  0  0  0
   59.0449   26.3938   44.1940 H   0  0  0  0  0  0  0  0  0  0  0  0
   57.1760   27.7846   43.3191 H   0  0  0  0  0  0  0  0  0  0  0  0
   57.9785   32.6702   42.9906 H   0  0  0  0  0  0  0  0  0  0  0  0
   59.9694   33.9555   43.7433 H   0  0  0  0  0  0  0  0  0  0  0  0
   61.0681   35.1878   45.4788 H   0  0  0  0  0  0  0  0  0  0  0  0
   60.5796   35.0265   47.2107 H   0  0  0  0  0  0  0  0  0  0  0  0
   63.6228   34.3845   45.6973 H   0  0  0  0  0  0  0  0  0  0  0  0
   62.9794   35.1587   47.2074 H   0  0  0  0  0  0  0  0  0  0  0  0
   64.2954   32.4064   47.0567 H   0  0  0  0  0  0  0  0  0  0  0  0
   65.0895   33.9320   47.6145 H   0  0  0  0  0  0  0  0  0  0  0  0
   64.2159   32.1399   50.6332 H   0  0  0  0  0  0  0  0  0  0  0  0
   63.7888   31.0988   49.2331 H   0  0  0  0  0  0  0  0  0  0  0  0
   65.3341   32.0146   49.2331 H   0  0  0  0  0  0  0  0  0  0  0  0
   61.8698   32.2827   49.7121 H   0  0  0  0  0  0  0  0  0  0  0  0
   61.7010   34.0149   49.1839 H   0  0  0  0  0  0  0  0  0  0  0  0
   61.9442   31.5856   47.3497 H   0  0  0  0  0  0  0  0  0  0  0  0
   60.4433   32.5470   47.7025 H   0  0  0  0  0  0  0  0  0  0  0  0
   58.1293   32.8043   48.8461 H   0  0  0  0  0  0  0  0  0  0  0  0
   59.8273   33.3054   48.5423 H   0  0  0  0  0  0  0  0  0  0  0  0
   58.5151   34.5322   48.5423 H   0  0  0  0  0  0  0  0  0  0  0  0
   56.7166   32.1929   47.0971 H   0  0  0  0  0  0  0  0  0  0  0  0
   57.5324   30.4160   46.7370 H   0  0  0  0  0  0  0  0  0  0  0  0
   62.4650   28.5043   50.2411 H   0  0  0  0  0  0  0  0  0  0  0  0
   61.9159   31.9199   53.7720 H   0  0  0  0  0  0  0  0  0  0  0  0
   59.9805   33.5378   53.7071 H   0  0  0  0  0  0  0  0  0  0  0  0
   58.3245   33.4371   51.8246 H   0  0  0  0  0  0  0  0  0  0  0  0
   58.6193   31.7146   50.0048 H   0  0  0  0  0  0  0  0  0  0  0  0
  1  2  1  0
  2  3  2  0
  3  4  1  0
  4  5  2  0
  5  6  1  0
  6  7  2  0
  6  8  1  0
  8  9  1  0
  9 10  2  0
 10 11  1  0
 11 12  2  0
 12 13  1  0
 13 14  1  0
 14 15  1  0
 15 16  1  0
 16 17  1  0
 17 18  1  0
 17 19  1  0
 19 20  1  0
 12 21  1  0
 21 22  1  0
 21 23  2  0
  5 24  1  0
 24 25  2  0
 25 26  1  0
 26 27  3  0
 27 28  1  0
 28 29  2  0
 29 30  1  0
 30 31  2  0
 31 32  1  0
 32 33  2  0
 33 34  1  0
 34 35  2  0
 35 36  1  0
 25  2  1  0
 36 28  1  0
 23  9  1  0
 36 31  1  0
 20 14  1  0
  1 37  1  0
  1 38  1  0
  1 39  1  0
  3 40  1  0
  4 41  1  0
 10 42  1  0
 11 43  1  0
 13 44  1  0
 13 45  1  0
 15 46  1  0
 15 47  1  0
 16 48  1  0
 16 49  1  0
 18 50  1  0
 18 51  1  0
 18 52  1  0
 19 53  1  0
 19 54  1  0
 20 55  1  0
 20 56  1  0
 22 57  1  0
 22 58  1  0
 22 59  1  0
 23 60  1  0
 24 61  1  0
 29 62  1  0
 32 63  1  0
 33 64  1  0
 34 65  1  0
 35 66  1  0
M  CHG  1   8  -1
M  END
>  <UniqueID>  (46) 
43

>  <SMILES>  (46) 
Cc1ccc(C(=O)[N-]c2ccc(CN3CCN(C)CC3)c(C)c2)cc1C#Cc1cnc2ccccn12

>  <Energy>  (46) 
118.86562307260532

>  <Genealogy>  (46) 
Cc1ccc(C(=O)[N-]c2ccc(CN3CCN(C)CC3)c(C)c2)cc1C#Cc1cnc2ccccn12 (protonated)
Cc1ccc(C(=O)[N-]c2ccc(CN3CCN(C)CC3)c(C)c2)cc1C#Cc1cnc2ccccn12 (3D coordinates assigned)
Cc1ccc(C(=O)[N-]c2ccc(CN3CCN(C)CC3)c(C)c2)cc1C#Cc1cnc2ccccn12 (nonaromatic ring conformer: 118.86562307260532 kcal/mol)

>  <smiles>  (46) 
Cc1ccc(C(=O)Nc2ccc(CN3CCN(C)CC3)c(C)c2)cc1C#Cc1cnc2ccccn12

>  <score_type>  (46) 
oracle

>  <origin>  (46) 
adg

>  <m_score__min__energy>  (46) 
-11.050000000000001

>  <m_primary>  (46) 
energy

$$$$
46:0
     RDKit          3D

 28 30  0  0  0  0  0  0  0  0999 V2000
   56.2170   29.7090   45.3750 O   0  0  0  0  0  0  0  0  0  0  0  0
   57.3380   29.4600   45.8900 C   0  0  0  0  0  0  0  0  0  0  0  0
   58.2660   30.4990   45.9830 C   0  0  0  0  0  0  0  0  0  0  0  0
   59.4980   30.2740   46.6120 C   0  0  0  0  0  0  0  0  0  0  0  0
   60.5200   31.3430   46.7380 C   0  0  0  0  0  0  0  0  0  0  0  0
   61.8310   31.0690   47.1770 C   0  0  0  0  0  0  0  0  0  0  0  0
   62.7690   32.0990   47.2960 C   0  0  0  0  0  0  0  0  0  0  0  0
   62.4110   33.4130   46.9870 C   0  0  0  0  0  0  0  0  0  0  0  0
   61.1120   33.7000   46.5650 C   0  0  0  0  0  0  0  0  0  0  0  0
   60.1690   32.6740   46.4440 C   0  0  0  0  0  0  0  0  0  0  0  0
   59.7550   29.0790   47.1330 O   0  0  0  0  0  0  0  0  0  0  0  0
   58.9110   28.0540   47.0660 C   0  0  0  0  0  0  0  0  0  0  0  0
   59.2740   26.8480   47.6690 C   0  0  0  0  0  0  0  0  0  0  0  0
   58.4110   25.7570   47.6350 C   0  0  0  0  0  0  0  0  0  0  0  0
   57.1900   25.8530   46.9710 C   0  0  0  0  0  0  0  0  0  0  0  0
   56.8110   27.0370   46.3250 C   0  0  0  0  0  0  0  0  0  0  0  0
   55.6070   27.0030   45.6150 O   0  0  0  0  0  0  0  0  0  0  0  0
   57.6610   28.1810   46.4010 C   0  0  0  0  0  0  0  0  0  0  0  0
   58.0314   31.4890   45.5648 H   0  0  0  0  0  0  0  0  0  0  0  0
   62.1183   30.0372   47.4278 H   0  0  0  0  0  0  0  0  0  0  0  0
   63.7913   31.8738   47.6338 H   0  0  0  0  0  0  0  0  0  0  0  0
   63.1521   34.2210   47.0761 H   0  0  0  0  0  0  0  0  0  0  0  0
   60.8290   34.7360   46.3269 H   0  0  0  0  0  0  0  0  0  0  0  0
   59.1455   32.9091   46.1166 H   0  0  0  0  0  0  0  0  0  0  0  0
   60.2474   26.7599   48.1736 H   0  0  0  0  0  0  0  0  0  0  0  0
   58.6932   24.8176   48.1330 H   0  0  0  0  0  0  0  0  0  0  0  0
   56.5132   24.9860   46.9537 H   0  0  0  0  0  0  0  0  0  0  0  0
   55.1450   27.8090   45.2240 H   0  0  0  0  0  0  0  0  0  0  0  0
  1  2  2  0
  2  3  1  0
  3  4  2  0
  4  5  1  0
  5  6  2  0
  6  7  1  0
  7  8  2  0
  8  9  1  0
  9 10  2  0
  4 11  1  0
 11 12  1  0
 12 13  2  0
 13 14  1  0
 14 15  2  0
 15 16  1  0
 16 17  1  0
 16 18  2  0
 18  2  1  0
 10  5  1  0
 18 12  1  0
  3 19  1  0
  6 20  1  0
  7 21  1  0
  8 22  1  0
  9 23  1  0
 10 24  1  0
 13 25  1  0
 14 26  1  0
 15 27  1  0
 17 28  1  0
M  END
>  <UniqueID>  (47) 
44

>  <SMILES>  (47) 
O=c1cc(-c2ccccc2)oc2cccc(O)c12

>  <Energy>  (47) 
45.86207628324952

>  <Genealogy>  (47) 
O=c1cc(-c2ccccc2)oc2cccc(O)c12 (3D coordinates assigned)
O=c1cc(-c2ccccc2)oc2cccc(O)c12 (optimized conformer: 45.86207628324952 kcal/mol)

>  <smiles>  (47) 
O=c1cc(-c2ccccc2)oc2cccc(O)c12

>  <score_type>  (47) 
oracle

>  <origin>  (47) 
adg

>  <m_score__min__energy>  (47) 
-6.7300000000000004

>  <m_primary>  (47) 
energy

$$$$
47:0
     RDKit          3D

 18 18  0  0  1  0  0  0  0  0999 V2000
   57.2600   26.0050   45.6110 C   0  0  0  0  0  0  0  0  0  0  0  0
   56.4490   27.1760   45.7580 N   0  0  0  0  0  0  0  0  0  0  0  0
   56.7400   28.3330   45.2810 C   0  0  0  0  0  0  0  0  0  0  0  0
   58.0050   28.6830   44.9950 N   0  0  0  0  0  0  0  0  0  0  0  0
   58.2990   29.8950   44.4970 C   0  0  0  0  0  0  0  0  0  0  0  0
   57.2570   30.7630   44.2920 C   0  0  0  0  0  0  0  0  0  0  0  0
   57.5270   32.3860   43.6400 S   0  0  0  0  0  0  0  0  0  0  0  0
   57.9710   32.2540   41.8900 C   0  0  0  0  0  0  0  0  0  0  0  0
   56.0000   30.3880   44.5870 N   0  0  0  0  0  0  0  0  0  0  0  0
   55.7200   29.2070   45.0710 N   0  0  0  0  0  0  0  0  0  0  0  0
   57.5283   25.6176   46.6050 H   0  0  0  0  0  0  0  0  0  0  0  0
   56.6990   25.2376   45.0576 H   0  0  0  0  0  0  0  0  0  0  0  0
   58.1757   26.2603   45.0576 H   0  0  0  0  0  0  0  0  0  0  0  0
   59.3351   30.1805   44.2626 H   0  0  0  0  0  0  0  0  0  0  0  0
   59.0219   31.9416   41.8009 H   0  0  0  0  0  0  0  0  0  0  0  0
   57.3245   31.5092   41.4029 H   0  0  0  0  0  0  0  0  0  0  0  0
   57.8364   33.2310   41.4029 H   0  0  0  0  0  0  0  0  0  0  0  0
   54.7430   28.9590   45.2840 H   0  0  0  0  0  0  0  0  0  0  0  0
  1  2  1  0
  2  3  2  0
  3  4  1  0
  4  5  2  0
  5  6  1  0
  6  7  1  0
  7  8  1  0
  6  9  2  0
  9 10  1  0
 10  3  1  0
  1 11  1  0
  1 12  1  0
  1 13  1  0
  5 14  1  0
  8 15  1  0
  8 16  1  0
  8 17  1  0
 10 18  1  0
M  END
>  <smiles>  (48) 
CN=c1ncc(SC)n[nH]1

>  <score_type>  (48) 
oracle

>  <origin>  (48) 
adg

>  <m_score__min__energy>  (48) 
-4.75

>  <m_primary>  (48) 
energy

$$$$
48:0
     RDKit          3D

 28 30  0  0  0  0  0  0  0  0999 V2000
   59.0830   35.0220   44.5180 O   0  0  0  0  0  0  0  0  0  0  0  0
   58.6910   33.9400   45.0330 C   0  0  0  0  0  0  0  0  0  0  0  0
   58.7330   33.6550   46.3520 N   0  0  0  0  0  0  0  0  0  0  0  0
   59.2810   34.4840   47.4200 C   0  0  0  0  0  0  0  0  0  0  0  0
   60.7290   34.1450   47.6390 C   0  0  0  0  0  0  0  0  0  0  0  0
   61.5540   33.8310   46.5470 C   0  0  0  0  0  0  0  0  0  0  0  0
   62.9100   33.5540   46.7450 C   0  0  0  0  0  0  0  0  0  0  0  0
   63.4530   33.6000   48.0320 C   0  0  0  0  0  0  0  0  0  0  0  0
   62.6420   33.9270   49.1220 C   0  0  0  0  0  0  0  0  0  0  0  0
   61.2850   34.2040   48.9280 C   0  0  0  0  0  0  0  0  0  0  0  0
   58.2680   32.4210   46.5280 N   0  0  0  0  0  0  0  0  0  0  0  0
   57.9340   31.9880   45.2930 C   0  0  0  0  0  0  0  0  0  0  0  0
   57.3990   30.7460   44.9610 C   0  0  0  0  0  0  0  0  0  0  0  0
   57.1330   30.4990   43.6020 C   0  0  0  0  0  0  0  0  0  0  0  0
   57.4080   31.4830   42.6280 C   0  0  0  0  0  0  0  0  0  0  0  0
   57.9500   32.7160   43.0240 C   0  0  0  0  0  0  0  0  0  0  0  0
   58.1850   32.9080   44.3460 N   0  0  0  0  0  0  0  0  0  0  0  0
   59.1929   35.5442   47.1405 H   0  0  0  0  0  0  0  0  0  0  0  0
   58.7208   34.2963   48.3478 H   0  0  0  0  0  0  0  0  0  0  0  0
   61.1317   33.8028   45.5317 H   0  0  0  0  0  0  0  0  0  0  0  0
   63.5500   33.2997   45.8872 H   0  0  0  0  0  0  0  0  0  0  0  0
   64.5193   33.3787   48.1870 H   0  0  0  0  0  0  0  0  0  0  0  0
   63.0715   33.9666   50.1339 H   0  0  0  0  0  0  0  0  0  0  0  0
   60.6511   34.4688   49.7871 H   0  0  0  0  0  0  0  0  0  0  0  0
   57.1926   29.9880   45.7310 H   0  0  0  0  0  0  0  0  0  0  0  0
   56.7075   29.5319   43.2960 H   0  0  0  0  0  0  0  0  0  0  0  0
   57.1991   31.2851   41.5663 H   0  0  0  0  0  0  0  0  0  0  0  0
   58.1766   33.5003   42.2867 H   0  0  0  0  0  0  0  0  0  0  0  0
  1  2  2  0
  2  3  1  0
  3  4  1  0
  4  5  1  0
  5  6  2  0
  6  7  1  0
  7  8  2  0
  8  9  1  0
  9 10  2  0
  3 11  1  0
 11 12  2  0
 12 13  1  0
 13 14  2  0
 14 15  1  0
 15 16  2  0
 16 17  1  0
 17  2  1  0
 10  5  1  0
 17 12  1  0
  4 18  1  0
  4 19  1  0
  6 20  1  0
  7 21  1  0
  8 22  1  0
  9 23  1  0
 10 24  1  0
 13 25  1  0
 14 26  1  0
 15 27  1  0
 16 28  1  0
M  END
>  <UniqueID>  (49) 
45

>  <SMILES>  (49) 
O=c1n(Cc2ccccc2)nc2ccccn12

>  <Energy>  (49) 
73.08750876422282

>  <Genealogy>  (49) 
O=c1n(Cc2ccccc2)nc2ccccn12 (3D coordinates assigned)
O=c1n(Cc2ccccc2)nc2ccccn12 (optimized conformer: 73.08750876422282 kcal/mol)

>  <smiles>  (49) 
O=c1n(Cc2ccccc2)nc2ccccn12

>  <score_type>  (49) 
oracle

>  <origin>  (49) 
adg

>  <m_score__min__energy>  (49) 
-6.6699999999999999

>  <m_primary>  (49) 
energy

$$$$
49:0
     RDKit          3D

 41 42  0  0  0  0  0  0  0  0999 V2000
   59.2610   34.9410   44.8550 C   0  0  0  0  0  0  0  0  0  0  0  0
   58.7850   33.7970   45.6530 N   0  0  0  0  0  0  0  0  0  0  0  0
   58.8940   34.1100   47.0940 C   0  0  0  0  0  0  0  0  0  0  0  0
   60.2970   33.8810   47.5690 C   0  0  0  0  0  0  0  0  0  0  0  0
   60.7580   33.9550   48.8720 C   0  0  0  0  0  0  0  0  0  0  0  0
   62.0750   33.6760   48.8700 N   0  0  0  0  0  0  0  0  0  0  0  0
   62.4580   33.4420   47.6240 N   0  0  0  0  0  0  0  0  0  0  0  0
   63.8030   33.0330   47.2390 C   0  0  0  0  0  0  0  0  0  0  0  0
   61.3960   33.5440   46.8030 C   0  0  0  0  0  0  0  0  0  0  0  0
   57.3940   33.4150   45.2860 C   0  0  0  0  0  0  0  0  0  0  0  0
   57.2610   31.8910   44.9380 C   0  0  1  0  0  0  0  0  0  0  0  0
   55.8950   31.5510   44.8420 O   0  0  0  0  0  0  0  0  0  0  0  0
   57.8940   31.6490   43.5300 C   0  0  0  0  0  0  0  0  0  0  0  0
   57.3370   30.5100   42.7680 N   0  0  0  0  0  0  0  0  0  0  0  0
   57.3660   29.1910   43.4210 C   0  0  0  0  0  0  0  0  0  0  0  0
   58.2860   29.1280   44.6610 C   0  0  0  0  0  0  0  0  0  0  0  0
   57.7080   29.6330   45.8500 O   0  0  0  0  0  0  0  0  0  0  0  0
   57.9860   31.0100   46.0220 C   0  0  0  0  0  0  0  0  0  0  0  0
   59.5951   35.7441   45.5284 H   0  0  0  0  0  0  0  0  0  0  0  0
   60.1008   34.6214   44.2205 H   0  0  0  0  0  0  0  0  0  0  0  0
   58.4423   35.3114   44.2205 H   0  0  0  0  0  0  0  0  0  0  0  0
   58.6220   35.1631   47.2586 H   0  0  0  0  0  0  0  0  0  0  0  0
   58.2132   33.4539   47.6562 H   0  0  0  0  0  0  0  0  0  0  0  0
   60.1523   34.1997   49.7570 H   0  0  0  0  0  0  0  0  0  0  0  0
   62.6990   33.6390   49.7060 H   0  0  0  0  0  0  0  0  0  0  0  0
   64.4034   32.8504   48.1424 H   0  0  0  0  0  0  0  0  0  0  0  0
   63.7490   32.1107   46.6420 H   0  0  0  0  0  0  0  0  0  0  0  0
   64.2716   33.8293   46.6420 H   0  0  0  0  0  0  0  0  0  0  0  0
   61.4023   33.3867   45.7143 H   0  0  0  0  0  0  0  0  0  0  0  0
   56.7306   33.6425   46.1334 H   0  0  0  0  0  0  0  0  0  0  0  0
   57.1158   33.9880   44.3892 H   0  0  0  0  0  0  0  0  0  0  0  0
   55.8140   30.7080   44.3240 H   0  0  0  0  0  0  0  0  0  0  0  0
   57.7482   32.5605   42.9318 H   0  0  0  0  0  0  0  0  0  0  0  0
   58.9503   31.4023   43.7124 H   0  0  0  0  0  0  0  0  0  0  0  0
   57.8500   30.4400   41.8590 H   0  0  0  0  0  0  0  0  0  0  0  0
   56.3428   28.9372   43.7352 H   0  0  0  0  0  0  0  0  0  0  0  0
   57.7701   28.4790   42.6863 H   0  0  0  0  0  0  0  0  0  0  0  0
   58.5594   28.0764   44.8322 H   0  0  0  0  0  0  0  0  0  0  0  0
   59.1523   29.7685   44.4392 H   0  0  0  0  0  0  0  0  0  0  0  0
   57.6441   31.3205   47.0203 H   0  0  0  0  0  0  0  0  0  0  0  0
   59.0707   31.1567   45.9130 H   0  0  0  0  0  0  0  0  0  0  0  0
  1  2  1  0
  2  3  1  0
  3  4  1  0
  4  5  1  0
  5  6  2  0
  6  7  1  0
  7  8  1  0
  7  9  1  0
  2 10  1  0
 10 11  1  0
 11 12  1  6
 11 13  1  0
 13 14  1  0
 14 15  1  0
 15 16  1  0
 16 17  1  0
 17 18  1  0
  9  4  2  0
 18 11  1  0
  1 19  1  0
  1 20  1  0
  1 21  1  0
  3 22  1  0
  3 23  1  0
  5 24  1  0
  6 25  1  0
  8 26  1  0
  8 27  1  0
  8 28  1  0
  9 29  1  0
 10 30  1  0
 10 31  1  0
 12 32  1  0
 13 33  1  0
 13 34  1  0
 14 35  1  0
 15 36  1  0
 15 37  1  0
 16 38  1  0
 16 39  1  0
 18 40  1  0
 18 41  1  0
M  CHG  1   6   1
M  END
>  <UniqueID>  (50) 
46

>  <SMILES>  (50) 
CN(Cc1c[nH+]n(C)c1)C[C@@]1(O)CNCCOC1

>  <Energy>  (50) 
93.68410951424191

>  <Genealogy>  (50) 
CN(Cc1c[nH+]n(C)c1)CC1(O)CNCCOC1 (protonated)
CN(Cc1c[nH+]n(C)c1)C[C@@]1(O)CNCCOC1 (chirality)
CN(Cc1c[nH+]n(C)c1)C[C@@]1(O)CNCCOC1 (3D coordinates assigned)
CN(Cc1c[nH+]n(C)c1)C[C@@]1(O)CNCCOC1 (nonaromatic ring conformer: 93.68410951424191 kcal/mol)

>  <smiles>  (50) 
CN(Cc1cnn(C)c1)CC1(O)CNCCOC1

>  <score_type>  (50) 
oracle

>  <origin>  (50) 
adg

>  <m_score__min__energy>  (50) 
-3

>  <m_primary>  (50) 
energy

$$$$
