0:0
     RDKit          3D

 45 48  0  0  1  0  0  0  0  0999 V2000
   56.9650   20.9570   43.0010 C   0  0  0  0  0  0  0  0  0  0  0  0
   55.9490   21.9040   43.2830 O   0  0  0  0  0  0  0  0  0  0  0  0
   56.2820   23.0770   43.9220 C   0  0  0  0  0  0  0  0  0  0  0  0
   55.9250   23.3750   45.2230 C   0  0  0  0  0  0  0  0  0  0  0  0
   56.2960   24.5870   45.8160 C   0  0  0  0  0  0  0  0  0  0  0  0
   57.0300   25.5120   45.1070 C   0  0  0  0  0  0  0  0  0  0  0  0
   57.4540   26.7950   45.6550 C   0  0  0  0  0  0  0  0  0  0  0  0
   57.0490   28.0090   45.1460 C   0  0  0  0  0  0  0  0  0  0  0  0
   57.4820   29.1930   45.7060 C   0  0  0  0  0  0  0  0  0  0  0  0
   57.1140   30.3260   45.2420 N   0  0  0  0  0  0  0  0  0  0  0  0
   57.9660   31.1430   44.4050 C   0  0  0  0  0  0  0  0  0  0  0  0
   57.4040   32.5520   44.3490 C   0  0  0  0  0  0  0  0  0  0  0  0
   58.1480   33.4100   45.3070 C   0  0  0  0  0  0  0  0  0  0  0  0
   58.9370   34.4680   44.8510 C   0  0  0  0  0  0  0  0  0  0  0  0
   59.6400   35.2830   45.7160 C   0  0  0  0  0  0  0  0  0  0  0  0
   59.5810   35.0700   47.0490 N   0  0  0  0  0  0  0  0  0  0  0  0
   58.8320   34.0610   47.5300 C   0  0  0  0  0  0  0  0  0  0  0  0
   58.1130   33.2250   46.6740 C   0  0  0  0  0  0  0  0  0  0  0  0
   58.3180   29.2130   46.7720 N   0  0  0  0  0  0  0  0  0  0  0  0
   58.8670   30.2210   47.4780 C   0  0  0  0  0  0  0  0  0  0  0  0
   59.6390   29.6020   48.4590 C   0  0  0  0  0  0  0  0  0  0  0  0
   59.5230   28.2640   48.3040 N   0  0  0  0  0  0  0  0  0  0  0  0
   58.7020   28.0250   47.2550 C   0  0  0  0  0  0  0  0  0  0  0  0
   58.2950   26.8570   46.7270 N   0  0  0  0  0  0  0  0  0  0  0  0
   57.3820   25.2040   43.8100 C   0  0  0  0  0  0  0  0  0  0  0  0
   57.0190   24.0250   43.2370 C   0  0  0  0  0  0  0  0  0  0  0  0
   57.3788   20.5713   43.9444 H   0  0  0  0  0  0  0  0  0  0  0  0
   56.5400   20.1253   42.4199 H   0  0  0  0  0  0  0  0  0  0  0  0
   57.7648   21.4393   42.4199 H   0  0  0  0  0  0  0  0  0  0  0  0
   55.3389   22.6468   45.8028 H   0  0  0  0  0  0  0  0  0  0  0  0
   56.0000   24.8020   46.8534 H   0  0  0  0  0  0  0  0  0  0  0  0
   56.3705   28.0348   44.2805 H   0  0  0  0  0  0  0  0  0  0  0  0
   58.9817   31.1681   44.8266 H   0  0  0  0  0  0  0  0  0  0  0  0
   58.0051   30.7192   43.3907 H   0  0  0  0  0  0  0  0  0  0  0  0
   57.5163   32.9533   43.3310 H   0  0  0  0  0  0  0  0  0  0  0  0
   56.3371   32.5366   44.6163 H   0  0  0  0  0  0  0  0  0  0  0  0
   59.0005   34.6580   43.7694 H   0  0  0  0  0  0  0  0  0  0  0  0
   60.2497   36.1079   45.3188 H   0  0  0  0  0  0  0  0  0  0  0  0
   58.7855   33.8921   48.6160 H   0  0  0  0  0  0  0  0  0  0  0  0
   57.5099   32.4071   47.0952 H   0  0  0  0  0  0  0  0  0  0  0  0
   58.7342   31.3007   47.3149 H   0  0  0  0  0  0  0  0  0  0  0  0
   60.2388   30.1133   49.2264 H   0  0  0  0  0  0  0  0  0  0  0  0
   59.9930   27.5270   48.8980 H   0  0  0  0  0  0  0  0  0  0  0  0
   57.9693   25.9277   43.2258 H   0  0  0  0  0  0  0  0  0  0  0  0
   57.3204   23.8201   42.1991 H   0  0  0  0  0  0  0  0  0  0  0  0
  1  2  1  0
  2  3  1  0
  3  4  2  0
  4  5  1  0
  5  6  2  0
  6  7  1  0
  7  8  2  0
  8  9  1  0
  9 10  2  0
 10 11  1  0
 11 12  1  0
 12 13  1  0
 13 14  2  0
 14 15  1  0
 15 16  2  0
 16 17  1  0
 17 18  2  0
  9 19  1  0
 19 20  1  0
 20 21  2  0
 21 22  1  0
 22 23  1  0
 23 24  2  0
  6 25  1  0
 25 26  2  0
 26  3  1  0
 24  7  1  0
 18 13  1  0
 23 19  1  0
  1 27  1  0
  1 28  1  0
  1 29  1  0
  4 30  1  0
  5 31  1  0
  8 32  1  0
 11 33  1  0
 11 34  1  0
 12 35  1  0
 12 36  1  0
 14 37  1  0
 15 38  1  0
 17 39  1  0
 18 40  1  0
 20 41  1  0
 21 42  1  0
 22 43  1  0
 25 44  1  0
 26 45  1  0
M  END
>  <smiles>  (1) 
COc1ccc(-c2cc(=NCCc3ccncc3)n3cc[nH]c3n2)cc1

>  <score_type>  (1) 
oracle

>  <origin>  (1) 
adg

>  <m_score__min__energy>  (1) 
-7.8700000000000001

>  <m_primary>  (1) 
energy

$$$$
1:0
     RDKit          3D

 37 40  0  0  0  0  0  0  0  0999 V2000
   55.5310   23.9030   45.7700 C   0  0  0  0  0  0  0  0  0  0  0  0
   55.7660   25.3770   45.7060 C   0  0  0  0  0  0  0  0  0  0  0  0
   54.8250   26.1670   45.9880 O   0  0  0  0  0  0  0  0  0  0  0  0
   57.0270   25.8800   45.2360 N   0  0  0  0  0  0  0  0  0  0  0  0
   57.4220   27.2600   45.3030 C   0  0  0  0  0  0  0  0  0  0  0  0
   57.7780   27.8130   46.5410 C   0  0  0  0  0  0  0  0  0  0  0  0
   58.1470   29.1590   46.6380 C   0  0  0  0  0  0  0  0  0  0  0  0
   58.1510   29.9820   45.4990 C   0  0  0  0  0  0  0  0  0  0  0  0
   58.5440   31.4060   45.6120 C   0  0  0  0  0  0  0  0  0  0  0  0
   59.6600   31.8160   46.2860 N   0  0  0  0  0  0  0  0  0  0  0  0
   59.7630   33.1320   46.2100 N   0  0  0  0  0  0  0  0  0  0  0  0
   60.5250   34.0820   46.7650 C   0  0  0  0  0  0  0  0  0  0  0  0
   61.7060   33.8740   47.6360 C   0  0  0  0  0  0  0  0  0  0  0  0
   61.6730   34.1930   49.0070 C   0  0  0  0  0  0  0  0  0  0  0  0
   62.7990   33.9850   49.8100 C   0  0  0  0  0  0  0  0  0  0  0  0
   63.9660   33.4550   49.2570 C   0  0  0  0  0  0  0  0  0  0  0  0
   64.0080   33.1250   47.9000 C   0  0  0  0  0  0  0  0  0  0  0  0
   62.8840   33.3300   47.0930 C   0  0  0  0  0  0  0  0  0  0  0  0
   60.0060   35.3000   46.4430 N   0  0  0  0  0  0  0  0  0  0  0  0
   58.9130   35.1040   45.6960 N   0  0  0  0  0  0  0  0  0  0  0  0
   58.8130   33.7700   45.5800 C   0  0  0  0  0  0  0  0  0  0  0  0
   57.6520   32.7390   44.9600 S   0  0  0  0  0  0  0  0  0  0  0  0
   57.7720   29.4320   44.2620 C   0  0  0  0  0  0  0  0  0  0  0  0
   57.4040   28.0860   44.1660 C   0  0  0  0  0  0  0  0  0  0  0  0
   55.4803   23.5851   46.8218 H   0  0  0  0  0  0  0  0  0  0  0  0
   54.5829   23.6607   45.2676 H   0  0  0  0  0  0  0  0  0  0  0  0
   56.3568   23.3779   45.2676 H   0  0  0  0  0  0  0  0  0  0  0  0
   57.6590   25.2110   44.7380 H   0  0  0  0  0  0  0  0  0  0  0  0
   57.7671   27.1837   47.4432 H   0  0  0  0  0  0  0  0  0  0  0  0
   58.4363   29.5764   47.6137 H   0  0  0  0  0  0  0  0  0  0  0  0
   60.7556   34.6085   49.4494 H   0  0  0  0  0  0  0  0  0  0  0  0
   62.7650   34.2396   50.8796 H   0  0  0  0  0  0  0  0  0  0  0  0
   64.8522   33.2972   49.8893 H   0  0  0  0  0  0  0  0  0  0  0  0
   64.9264   32.7033   47.4656 H   0  0  0  0  0  0  0  0  0  0  0  0
   62.9216   33.0639   46.0263 H   0  0  0  0  0  0  0  0  0  0  0  0
   57.7648   30.0652   43.3625 H   0  0  0  0  0  0  0  0  0  0  0  0
   57.0985   27.6711   43.1941 H   0  0  0  0  0  0  0  0  0  0  0  0
  1  2  1  0
  2  3  2  0
  2  4  1  0
  4  5  1  0
  5  6  2  0
  6  7  1  0
  7  8  2  0
  8  9  1  0
  9 10  2  0
 10 11  1  0
 11 12  1  0
 12 13  1  0
 13 14  2  0
 14 15  1  0
 15 16  2  0
 16 17  1  0
 17 18  2  0
 12 19  2  0
 19 20  1  0
 20 21  2  0
 21 22  1  0
  8 23  1  0
 23 24  2  0
 24  5  1  0
 22  9  1  0
 21 11  1  0
 18 13  1  0
  1 25  1  0
  1 26  1  0
  1 27  1  0
  4 28  1  0
  6 29  1  0
  7 30  1  0
 14 31  1  0
 15 32  1  0
 16 33  1  0
 17 34  1  0
 18 35  1  0
 23 36  1  0
 24 37  1  0
M  END
>  <UniqueID>  (2) 
1

>  <SMILES>  (2) 
CC(=O)Nc1ccc(-c2nn3c(-c4ccccc4)nnc3s2)cc1

>  <Energy>  (2) 
139.31486297946557

>  <Genealogy>  (2) 
CC(=O)Nc1ccc(-c2nn3c(-c4ccccc4)nnc3s2)cc1 (3D coordinates assigned)
CC(=O)Nc1ccc(-c2nn3c(-c4ccccc4)nnc3s2)cc1 (optimized conformer: 139.31486297946557 kcal/mol)

>  <smiles>  (2) 
CC(=O)Nc1ccc(-c2nn3c(-c4ccccc4)nnc3s2)cc1

>  <score_type>  (2) 
oracle

>  <origin>  (2) 
adg

>  <m_score__min__energy>  (2) 
-8.6899999999999995

>  <m_primary>  (2) 
energy

$$$$
2:0
     RDKit          3D

 42 45  0  0  0  0  0  0  0  0999 V2000
   58.9820   34.1410   51.9920 C   0  0  0  0  0  0  0  0  0  0  0  0
   59.8350   33.1780   51.2900 N   0  0  0  0  0  0  0  0  0  0  0  0
   59.0500   32.3100   50.4020 C   0  0  0  0  0  0  0  0  0  0  0  0
   59.9250   31.7060   49.2920 C   0  0  0  0  0  0  0  0  0  0  0  0
   60.1190   32.6590   48.1890 N   0  0  0  0  0  0  0  0  0  0  0  0
   61.2500   33.3520   47.8670 C   0  0  0  0  0  0  0  0  0  0  0  0
   62.5240   33.3460   48.6180 C   0  0  0  0  0  0  0  0  0  0  0  0
   63.7460   32.9990   48.0200 C   0  0  0  0  0  0  0  0  0  0  0  0
   64.8930   33.0330   48.7500 N   0  0  0  0  0  0  0  0  0  0  0  0
   64.8830   33.4150   50.0570 C   0  0  0  0  0  0  0  0  0  0  0  0
   66.0640   33.4540   50.8130 C   0  0  0  0  0  0  0  0  0  0  0  0
   66.0260   33.8590   52.1520 C   0  0  0  0  0  0  0  0  0  0  0  0
   64.8110   34.2280   52.7400 C   0  0  0  0  0  0  0  0  0  0  0  0
   63.6290   34.1930   51.9940 C   0  0  0  0  0  0  0  0  0  0  0  0
   63.6610   33.7870   50.6560 C   0  0  0  0  0  0  0  0  0  0  0  0
   62.5210   33.7470   49.9190 N   0  0  0  0  0  0  0  0  0  0  0  0
   61.0130   34.2110   46.7970 C   0  0  0  0  0  0  0  0  0  0  0  0
   59.6940   34.0210   46.4610 C   0  0  0  0  0  0  0  0  0  0  0  0
   58.9200   34.6460   45.4850 C   0  0  0  0  0  0  0  0  0  0  0  0
   57.5620   34.2960   45.4000 C   0  0  0  0  0  0  0  0  0  0  0  0
   56.7720   34.8800   44.4650 F   0  0  0  0  0  0  0  0  0  0  0  0
   57.0110   33.3520   46.2940 C   0  0  0  0  0  0  0  0  0  0  0  0
   57.8160   32.7440   47.2740 C   0  0  0  0  0  0  0  0  0  0  0  0
   59.1730   33.0880   47.3220 C   0  0  0  0  0  0  0  0  0  0  0  0
   59.0980   34.0101   53.0780 H   0  0  0  0  0  0  0  0  0  0  0  0
   59.2762   35.1634   51.7125 H   0  0  0  0  0  0  0  0  0  0  0  0
   57.9316   33.9723   51.7125 H   0  0  0  0  0  0  0  0  0  0  0  0
   60.5010   33.7310   50.7000 H   0  0  0  0  0  0  0  0  0  0  0  0
   58.6107   31.4945   50.9952 H   0  0  0  0  0  0  0  0  0  0  0  0
   58.2631   32.9173   49.9309 H   0  0  0  0  0  0  0  0  0  0  0  0
   60.9058   31.4403   49.7131 H   0  0  0  0  0  0  0  0  0  0  0  0
   59.4180   30.8138   48.8959 H   0  0  0  0  0  0  0  0  0  0  0  0
   63.7757   32.6999   46.9619 H   0  0  0  0  0  0  0  0  0  0  0  0
   65.7920   32.7680   48.2860 H   0  0  0  0  0  0  0  0  0  0  0  0
   67.0208   33.1660   50.3529 H   0  0  0  0  0  0  0  0  0  0  0  0
   66.9530   33.8873   52.7434 H   0  0  0  0  0  0  0  0  0  0  0  0
   64.7857   34.5466   53.7925 H   0  0  0  0  0  0  0  0  0  0  0  0
   62.6755   34.4843   52.4587 H   0  0  0  0  0  0  0  0  0  0  0  0
   61.7298   34.8965   46.3213 H   0  0  0  0  0  0  0  0  0  0  0  0
   59.3583   35.3895   44.8030 H   0  0  0  0  0  0  0  0  0  0  0  0
   55.9449   33.0904   46.2235 H   0  0  0  0  0  0  0  0  0  0  0  0
   57.3916   32.0182   47.9833 H   0  0  0  0  0  0  0  0  0  0  0  0
  1  2  1  0
  2  3  1  0
  3  4  1  0
  4  5  1  0
  5  6  1  0
  6  7  1  0
  7  8  2  0
  8  9  1  0
  9 10  2  0
 10 11  1  0
 11 12  2  0
 12 13  1  0
 13 14  2  0
 14 15  1  0
 15 16  2  0
  6 17  2  0
 17 18  1  0
 18 19  2  0
 19 20  1  0
 20 21  1  0
 20 22  2  0
 22 23  1  0
 23 24  2  0
 24  5  1  0
 16  7  1  0
 24 18  1  0
 15 10  1  0
  1 25  1  0
  1 26  1  0
  1 27  1  0
  2 28  1  0
  3 29  1  0
  3 30  1  0
  4 31  1  0
  4 32  1  0
  8 33  1  0
  9 34  1  0
 11 35  1  0
 12 36  1  0
 13 37  1  0
 14 38  1  0
 17 39  1  0
 19 40  1  0
 22 41  1  0
 23 42  1  0
M  CHG  1   9   1
M  END
>  <UniqueID>  (3) 
2

>  <SMILES>  (3) 
CNCCn1c(-c2c[nH+]c3ccccc3n2)cc2cc(F)ccc21

>  <Energy>  (3) 
87.13337463993986

>  <Genealogy>  (3) 
CNCCn1c(-c2c[nH+]c3ccccc3n2)cc2cc(F)ccc21 (protonated)
CNCCn1c(-c2c[nH+]c3ccccc3n2)cc2cc(F)ccc21 (3D coordinates assigned)
CNCCn1c(-c2c[nH+]c3ccccc3n2)cc2cc(F)ccc21 (optimized conformer: 87.13337463993986 kcal/mol)

>  <smiles>  (3) 
CNCCn1c(-c2cnc3ccccc3n2)cc2cc(F)ccc21

>  <score_type>  (3) 
oracle

>  <origin>  (3) 
adg

>  <m_score__min__energy>  (3) 
-5.6399999999999997

>  <m_primary>  (3) 
energy

$$$$
3:0
     RDKit          3D

 39 40  0  0  0  0  0  0  0  0999 V2000
   58.1820   32.7610   47.4610 C   0  0  0  0  0  0  0  0  0  0  0  0
   58.0110   33.4310   46.0900 C   0  0  0  0  0  0  0  0  0  0  0  0
   59.0200   34.5770   45.9380 C   0  0  0  0  0  0  0  0  0  0  0  0
   58.1770   32.4210   44.9330 C   0  0  0  0  0  0  0  0  0  0  0  0
   57.8440   33.0360   43.5520 C   0  0  0  0  0  0  0  0  0  0  0  0
   57.9930   32.1030   42.4100 N   0  0  0  0  0  0  0  0  0  0  0  0
   58.5020   32.7050   41.1680 C   0  0  0  0  0  0  0  0  0  0  0  0
   56.8630   31.1710   42.2070 C   0  0  0  0  0  0  0  0  0  0  0  0
   56.6630   30.2150   43.3500 C   0  0  0  0  0  0  0  0  0  0  0  0
   55.5280   30.0910   44.1250 C   0  0  0  0  0  0  0  0  0  0  0  0
   55.7380   29.1200   44.9840 O   0  0  0  0  0  0  0  0  0  0  0  0
   56.9480   28.6530   44.7630 C   0  0  0  0  0  0  0  0  0  0  0  0
   57.5420   27.5470   45.5240 C   0  0  0  0  0  0  0  0  0  0  0  0
   58.8960   27.3290   45.7500 C   0  0  0  0  0  0  0  0  0  0  0  0
   59.1500   26.1820   46.5120 C   0  0  0  0  0  0  0  0  0  0  0  0
   58.0020   25.4960   46.8880 C   0  0  0  0  0  0  0  0  0  0  0  0
   56.6710   26.3170   46.2700 S   0  0  0  0  0  0  0  0  0  0  0  0
   57.5640   29.3050   43.7560 N   0  0  0  0  0  0  0  0  0  0  0  0
   57.9938   33.4982   48.2554 H   0  0  0  0  0  0  0  0  0  0  0  0
   57.4671   31.9303   47.5549 H   0  0  0  0  0  0  0  0  0  0  0  0
   59.2076   32.3745   47.5549 H   0  0  0  0  0  0  0  0  0  0  0  0
   56.9879   33.8318   46.0377 H   0  0  0  0  0  0  0  0  0  0  0  0
   59.3290   34.9279   46.9337 H   0  0  0  0  0  0  0  0  0  0  0  0
   59.9013   34.2188   45.3857 H   0  0  0  0  0  0  0  0  0  0  0  0
   58.5531   35.4058   45.3857 H   0  0  0  0  0  0  0  0  0  0  0  0
   59.2191   32.0691   44.9196 H   0  0  0  0  0  0  0  0  0  0  0  0
   57.4715   31.5954   45.1083 H   0  0  0  0  0  0  0  0  0  0  0  0
   56.8017   33.3870   43.5748 H   0  0  0  0  0  0  0  0  0  0  0  0
   58.5685   33.8475   43.3887 H   0  0  0  0  0  0  0  0  0  0  0  0
   59.1942   33.5237   41.4142 H   0  0  0  0  0  0  0  0  0  0  0  0
   59.0320   31.9408   40.5805 H   0  0  0  0  0  0  0  0  0  0  0  0
   57.6604   33.1006   40.5805 H   0  0  0  0  0  0  0  0  0  0  0  0
   55.9431   31.7609   42.0811 H   0  0  0  0  0  0  0  0  0  0  0  0
   57.0961   30.5679   41.3171 H   0  0  0  0  0  0  0  0  0  0  0  0
   54.6132   30.6958   44.0389 H   0  0  0  0  0  0  0  0  0  0  0  0
   59.6879   27.9906   45.3688 H   0  0  0  0  0  0  0  0  0  0  0  0
   60.1635   25.8548   46.7871 H   0  0  0  0  0  0  0  0  0  0  0  0
   57.9693   24.5741   47.4871 H   0  0  0  0  0  0  0  0  0  0  0  0
   58.5200   29.1420   43.3700 H   0  0  0  0  0  0  0  0  0  0  0  0
  1  2  1  0
  2  3  1  0
  2  4  1  0
  4  5  1  0
  5  6  1  0
  6  7  1  0
  6  8  1  0
  8  9  1  0
  9 10  2  0
 10 11  1  0
 11 12  1  0
 12 13  1  0
 13 14  2  0
 14 15  1  0
 15 16  2  0
 16 17  1  0
 12 18  2  0
 18  9  1  0
 17 13  1  0
  1 19  1  0
  1 20  1  0
  1 21  1  0
  2 22  1  0
  3 23  1  0
  3 24  1  0
  3 25  1  0
  4 26  1  0
  4 27  1  0
  5 28  1  0
  5 29  1  0
  7 30  1  0
  7 31  1  0
  7 32  1  0
  8 33  1  0
  8 34  1  0
 10 35  1  0
 14 36  1  0
 15 37  1  0
 16 38  1  0
 18 39  1  0
M  CHG  1  18   1
M  END
>  <UniqueID>  (4) 
3

>  <SMILES>  (4) 
CC(C)CCN(C)Cc1coc(-c2cccs2)[nH+]1

>  <Energy>  (4) 
93.91788619091332

>  <Genealogy>  (4) 
CC(C)CCN(C)Cc1coc(-c2cccs2)[nH+]1 (protonated)
CC(C)CCN(C)Cc1coc(-c2cccs2)[nH+]1 (3D coordinates assigned)
CC(C)CCN(C)Cc1coc(-c2cccs2)[nH+]1 (optimized conformer: 93.91788619091332 kcal/mol)

>  <smiles>  (4) 
CC(C)CCN(C)Cc1coc(-c2cccs2)n1

>  <score_type>  (4) 
oracle

>  <origin>  (4) 
adg

>  <m_score__min__energy>  (4) 
-4.7699999999999996

>  <m_primary>  (4) 
energy

$$$$
4:0
     RDKit          3D

 48 50  0  0  0  0  0  0  0  0999 V2000
   66.0000   33.0030   50.1910 C   0  0  0  0  0  0  0  0  0  0  0  0
   64.9340   32.1510   49.7830 O   0  0  0  0  0  0  0  0  0  0  0  0
   63.8430   32.5660   49.0050 C   0  0  0  0  0  0  0  0  0  0  0  0
   62.5150   32.4850   49.4620 C   0  0  0  0  0  0  0  0  0  0  0  0
   61.4620   32.9130   48.6480 C   0  0  0  0  0  0  0  0  0  0  0  0
   61.7130   33.4270   47.3650 C   0  0  0  0  0  0  0  0  0  0  0  0
   60.5790   33.8810   46.5250 C   0  0  0  0  0  0  0  0  0  0  0  0
   59.6790   33.0680   45.9320 N   0  0  0  0  0  0  0  0  0  0  0  0
   58.8630   33.8990   45.2620 C   0  0  0  0  0  0  0  0  0  0  0  0
   57.6540   33.4590   44.4910 C   0  0  0  0  0  0  0  0  0  0  0  0
   57.8660   32.1390   43.8610 N   0  0  0  0  0  0  0  0  0  0  0  0
   57.7730   32.2390   42.3960 C   0  0  0  0  0  0  0  0  0  0  0  0
   57.0090   31.0590   44.4130 C   0  0  0  0  0  0  0  0  0  0  0  0
   57.7260   29.7360   44.6260 C   0  0  0  0  0  0  0  0  0  0  0  0
   57.5030   28.6750   43.7310 C   0  0  0  0  0  0  0  0  0  0  0  0
   58.1410   27.4460   43.9090 C   0  0  0  0  0  0  0  0  0  0  0  0
   59.0210   27.2660   44.9750 C   0  0  0  0  0  0  0  0  0  0  0  0
   59.2770   28.3160   45.8580 C   0  0  0  0  0  0  0  0  0  0  0  0
   58.6450   29.5640   45.6880 C   0  0  0  0  0  0  0  0  0  0  0  0
   58.9150   30.6460   46.5420 O   0  0  0  0  0  0  0  0  0  0  0  0
   59.2160   30.5290   47.9280 C   0  0  0  0  0  0  0  0  0  0  0  0
   59.2700   35.1960   45.4940 C   0  0  0  0  0  0  0  0  0  0  0  0
   60.3300   35.1490   46.2660 O   0  0  0  0  0  0  0  0  0  0  0  0
   63.0420   33.5080   46.9130 C   0  0  0  0  0  0  0  0  0  0  0  0
   64.0940   33.0800   47.7290 C   0  0  0  0  0  0  0  0  0  0  0  0
   66.0424   33.0369   51.2897 H   0  0  0  0  0  0  0  0  0  0  0  0
   66.9512   32.6135   49.7992 H   0  0  0  0  0  0  0  0  0  0  0  0
   65.8297   34.0167   49.7992 H   0  0  0  0  0  0  0  0  0  0  0  0
   62.3042   32.0832   50.4641 H   0  0  0  0  0  0  0  0  0  0  0  0
   60.4274   32.8466   49.0156 H   0  0  0  0  0  0  0  0  0  0  0  0
   59.6060   32.0290   45.9770 H   0  0  0  0  0  0  0  0  0  0  0  0
   56.7964   33.3945   45.1768 H   0  0  0  0  0  0  0  0  0  0  0  0
   57.4641   34.1951   43.6960 H   0  0  0  0  0  0  0  0  0  0  0  0
   57.0466   33.0201   42.1272 H   0  0  0  0  0  0  0  0  0  0  0  0
   58.7591   32.4975   41.9828 H   0  0  0  0  0  0  0  0  0  0  0  0
   57.4438   31.2742   41.9828 H   0  0  0  0  0  0  0  0  0  0  0  0
   56.6129   31.3957   45.3824 H   0  0  0  0  0  0  0  0  0  0  0  0
   56.2204   30.8726   43.6691 H   0  0  0  0  0  0  0  0  0  0  0  0
   56.8185   28.8147   42.8813 H   0  0  0  0  0  0  0  0  0  0  0  0
   57.9493   26.6200   43.2083 H   0  0  0  0  0  0  0  0  0  0  0  0
   59.5149   26.2939   45.1206 H   0  0  0  0  0  0  0  0  0  0  0  0
   59.9775   28.1683   46.6931 H   0  0  0  0  0  0  0  0  0  0  0  0
   58.3521   30.8648   48.5204 H   0  0  0  0  0  0  0  0  0  0  0  0
   59.4389   29.4788   48.1674 H   0  0  0  0  0  0  0  0  0  0  0  0
   60.0897   31.1530   48.1674 H   0  0  0  0  0  0  0  0  0  0  0  0
   58.7921   36.1061   45.1024 H   0  0  0  0  0  0  0  0  0  0  0  0
   63.2555   33.9104   45.9117 H   0  0  0  0  0  0  0  0  0  0  0  0
   65.1292   33.1484   47.3634 H   0  0  0  0  0  0  0  0  0  0  0  0
  1  2  1  0
  2  3  1  0
  3  4  2  0
  4  5  1  0
  5  6  2  0
  6  7  1  0
  7  8  2  0
  8  9  1  0
  9 10  1  0
 10 11  1  0
 11 12  1  0
 11 13  1  0
 13 14  1  0
 14 15  2  0
 15 16  1  0
 16 17  2  0
 17 18  1  0
 18 19  2  0
 19 20  1  0
 20 21  1  0
  9 22  2  0
 22 23  1  0
  6 24  1  0
 24 25  2  0
 25  3  1  0
 23  7  1  0
 19 14  1  0
  1 26  1  0
  1 27  1  0
  1 28  1  0
  4 29  1  0
  5 30  1  0
  8 31  1  0
 10 32  1  0
 10 33  1  0
 12 34  1  0
 12 35  1  0
 12 36  1  0
 13 37  1  0
 13 38  1  0
 15 39  1  0
 16 40  1  0
 17 41  1  0
 18 42  1  0
 21 43  1  0
 21 44  1  0
 21 45  1  0
 22 46  1  0
 24 47  1  0
 25 48  1  0
M  CHG  1   8   1
M  END
>  <UniqueID>  (5) 
4

>  <SMILES>  (5) 
COc1ccc(-c2[nH+]c(CN(C)Cc3ccccc3OC)co2)cc1

>  <Energy>  (5) 
82.64411226342307

>  <Genealogy>  (5) 
COc1ccc(-c2[nH+]c(CN(C)Cc3ccccc3OC)co2)cc1 (protonated)
COc1ccc(-c2[nH+]c(CN(C)Cc3ccccc3OC)co2)cc1 (3D coordinates assigned)
COc1ccc(-c2[nH+]c(CN(C)Cc3ccccc3OC)co2)cc1 (optimized conformer: 82.64411226342307 kcal/mol)

>  <smiles>  (5) 
COc1ccc(-c2nc(CN(C)Cc3ccccc3OC)co2)cc1

>  <score_type>  (5) 
oracle

>  <origin>  (5) 
adg

>  <m_score__min__energy>  (5) 
-4.96

>  <m_primary>  (5) 
energy

$$$$
5:0
     RDKit          3D

 44 46  0  0  0  0  0  0  0  0999 V2000
   58.0350   26.8090   45.3140 C   0  0  0  0  0  0  0  0  0  0  0  0
   56.6030   27.0640   45.7670 C   0  0  0  0  0  0  0  0  0  0  0  0
   56.1240   28.3390   45.2270 N   0  0  0  0  0  0  0  0  0  0  0  0
   56.9440   28.7470   44.0810 C   0  0  0  0  0  0  0  0  0  0  0  0
   57.8310   29.9410   44.4540 C   0  0  0  0  0  0  0  0  0  0  0  0
   57.4270   30.5250   45.7430 N   0  0  0  0  0  0  0  0  0  0  0  0
   58.5530   31.1710   46.3970 C   0  0  0  0  0  0  0  0  0  0  0  0
   59.2960   30.4900   47.3970 C   0  0  0  0  0  0  0  0  0  0  0  0
   58.8720   29.2410   47.9180 C   0  0  0  0  0  0  0  0  0  0  0  0
   59.5980   28.5940   48.9140 C   0  0  0  0  0  0  0  0  0  0  0  0
   60.7450   29.1770   49.4300 C   0  0  0  0  0  0  0  0  0  0  0  0
   61.1850   30.4050   48.9440 C   0  0  0  0  0  0  0  0  0  0  0  0
   60.4910   31.0750   47.9020 C   0  0  0  0  0  0  0  0  0  0  0  0
   60.9460   32.2730   47.3920 N   0  0  0  0  0  0  0  0  0  0  0  0
   62.3320   32.7160   47.6680 C   0  0  0  0  0  0  0  0  0  0  0  0
   60.1120   33.0540   46.6190 C   0  0  0  0  0  0  0  0  0  0  0  0
   60.4170   34.4140   46.3500 C   0  0  0  0  0  0  0  0  0  0  0  0
   59.5960   35.1910   45.5380 C   0  0  0  0  0  0  0  0  0  0  0  0
   58.4430   34.6450   44.9890 C   0  0  0  0  0  0  0  0  0  0  0  0
   58.0930   33.3250   45.2630 C   0  0  0  0  0  0  0  0  0  0  0  0
   58.9100   32.5090   46.0850 C   0  0  0  0  0  0  0  0  0  0  0  0
   58.6833   26.6936   46.1952 H   0  0  0  0  0  0  0  0  0  0  0  0
   58.0704   25.8904   44.7099 H   0  0  0  0  0  0  0  0  0  0  0  0
   58.3853   27.6589   44.7099 H   0  0  0  0  0  0  0  0  0  0  0  0
   55.9568   26.2502   45.4061 H   0  0  0  0  0  0  0  0  0  0  0  0
   56.5747   27.1049   46.8659 H   0  0  0  0  0  0  0  0  0  0  0  0
   55.1450   28.1950   44.8830 H   0  0  0  0  0  0  0  0  0  0  0  0
   57.5811   27.9047   43.7735 H   0  0  0  0  0  0  0  0  0  0  0  0
   56.2800   29.0412   43.2549 H   0  0  0  0  0  0  0  0  0  0  0  0
   58.8754   29.6031   44.5253 H   0  0  0  0  0  0  0  0  0  0  0  0
   57.7233   30.7103   43.6752 H   0  0  0  0  0  0  0  0  0  0  0  0
   56.6440   31.2050   45.6180 H   0  0  0  0  0  0  0  0  0  0  0  0
   57.0100   29.7890   46.3580 H   0  0  0  0  0  0  0  0  0  0  0  0
   57.9544   28.7759   47.5287 H   0  0  0  0  0  0  0  0  0  0  0  0
   59.2608   27.6178   49.2925 H   0  0  0  0  0  0  0  0  0  0  0  0
   61.3089   28.6679   50.2255 H   0  0  0  0  0  0  0  0  0  0  0  0
   62.0866   30.8647   49.3750 H   0  0  0  0  0  0  0  0  0  0  0  0
   62.4910   32.7668   48.7553 H   0  0  0  0  0  0  0  0  0  0  0  0
   63.0406   31.9996   47.2269 H   0  0  0  0  0  0  0  0  0  0  0  0
   62.4938   33.7106   47.2269 H   0  0  0  0  0  0  0  0  0  0  0  0
   61.3192   34.8623   46.7916 H   0  0  0  0  0  0  0  0  0  0  0  0
   59.8606   36.2384   45.3309 H   0  0  0  0  0  0  0  0  0  0  0  0
   57.8040   35.2571   44.3355 H   0  0  0  0  0  0  0  0  0  0  0  0
   57.1687   32.9096   44.8351 H   0  0  0  0  0  0  0  0  0  0  0  0
  1  2  1  0
  2  3  1  0
  3  4  1  0
  4  5  1  0
  5  6  1  0
  6  7  1  0
  7  8  2  0
  8  9  1  0
  9 10  2  0
 10 11  1  0
 11 12  2  0
 12 13  1  0
 13 14  2  0
 14 15  1  0
 14 16  1  0
 16 17  2  0
 17 18  1  0
 18 19  2  0
 19 20  1  0
 20 21  2  0
 21  7  1  0
 13  8  1  0
 21 16  1  0
  1 22  1  0
  1 23  1  0
  1 24  1  0
  2 25  1  0
  2 26  1  0
  3 27  1  0
  4 28  1  0
  4 29  1  0
  5 30  1  0
  5 31  1  0
  6 32  1  0
  6 33  1  0
  9 34  1  0
 10 35  1  0
 11 36  1  0
 12 37  1  0
 15 38  1  0
 15 39  1  0
 15 40  1  0
 17 41  1  0
 18 42  1  0
 19 43  1  0
 20 44  1  0
M  CHG  2   6   1  14   1
M  END
>  <UniqueID>  (6) 
5

>  <SMILES>  (6) 
CCNCC[NH2+]c1c2ccccc2[n+](C)c2ccccc12

>  <Energy>  (6) 
66.88409844093522

>  <Genealogy>  (6) 
CCNCC[NH2+]c1c2ccccc2[n+](C)c2ccccc12 (protonated)
CCNCC[NH2+]c1c2ccccc2[n+](C)c2ccccc12 (3D coordinates assigned)
CCNCC[NH2+]c1c2ccccc2[n+](C)c2ccccc12 (optimized conformer: 66.88409844093522 kcal/mol)

>  <smiles>  (6) 
CCNCCNc1c2ccccc2[n+](C)c2ccccc12

>  <score_type>  (6) 
oracle

>  <origin>  (6) 
adg

>  <m_score__min__energy>  (6) 
-4.2999999999999998

>  <m_primary>  (6) 
energy

$$$$
6:0
     RDKit          3D

 21 21  0  0  0  0  0  0  0  0999 V2000
   58.3980   28.2750   44.1440 C   0  0  0  0  0  0  0  0  0  0  0  0
   57.3340   28.7200   43.2380 N   0  0  0  0  0  0  0  0  0  0  0  0
   56.5010   29.7780   43.8360 C   0  0  0  0  0  0  0  0  0  0  0  0
   57.2910   31.0300   44.1180 C   0  0  0  0  0  0  0  0  0  0  0  0
   57.7920   31.5100   45.6500 S   0  0  0  0  0  0  0  0  0  0  0  0
   58.5150   32.9510   45.1750 C   0  0  0  0  0  0  0  0  0  0  0  0
   58.3680   33.0790   43.8010 C   0  0  0  0  0  0  0  0  0  0  0  0
   57.6920   32.0050   43.2010 C   0  0  0  0  0  0  0  0  0  0  0  0
   57.3850   31.9670   41.7330 C   0  0  0  0  0  0  0  0  0  0  0  0
   58.0730   28.4109   45.1860 H   0  0  0  0  0  0  0  0  0  0  0  0
   58.6130   27.2116   43.9627 H   0  0  0  0  0  0  0  0  0  0  0  0
   59.3061   28.8687   43.9627 H   0  0  0  0  0  0  0  0  0  0  0  0
   57.7800   29.1020   42.3710 H   0  0  0  0  0  0  0  0  0  0  0  0
   56.7440   27.9010   42.9670 H   0  0  0  0  0  0  0  0  0  0  0  0
   55.6849   30.0227   43.1402 H   0  0  0  0  0  0  0  0  0  0  0  0
   56.1102   29.4013   44.7928 H   0  0  0  0  0  0  0  0  0  0  0  0
   59.0182   33.6692   45.8391 H   0  0  0  0  0  0  0  0  0  0  0  0
   58.7464   33.9425   43.2343 H   0  0  0  0  0  0  0  0  0  0  0  0
   56.3028   31.8330   41.5881 H   0  0  0  0  0  0  0  0  0  0  0  0
   57.7032   32.9114   41.2673 H   0  0  0  0  0  0  0  0  0  0  0  0
   57.9239   31.1287   41.2673 H   0  0  0  0  0  0  0  0  0  0  0  0
  1  2  1  0
  2  3  1  0
  3  4  1  0
  4  5  1  0
  5  6  1  0
  6  7  2  0
  7  8  1  0
  8  9  1  0
  8  4  2  0
  1 10  1  0
  1 11  1  0
  1 12  1  0
  2 13  1  0
  2 14  1  0
  3 15  1  0
  3 16  1  0
  6 17  1  0
  7 18  1  0
  9 19  1  0
  9 20  1  0
  9 21  1  0
M  CHG  1   2   1
M  END
>  <UniqueID>  (7) 
6

>  <SMILES>  (7) 
C[NH2+]Cc1sccc1C

>  <Energy>  (7) 
42.0471884268934

>  <Genealogy>  (7) 
C[NH2+]Cc1sccc1C (protonated)
C[NH2+]Cc1sccc1C (3D coordinates assigned)
C[NH2+]Cc1sccc1C (optimized conformer: 42.0471884268934 kcal/mol)

>  <smiles>  (7) 
CNCc1sccc1C

>  <score_type>  (7) 
oracle

>  <origin>  (7) 
adg

>  <m_score__min__energy>  (7) 
-3.0899999999999999

>  <m_primary>  (7) 
energy

$$$$
7:0
     RDKit          3D

 27 28  0  0  0  0  0  0  0  0999 V2000
   58.2380   27.8990   44.6910 C   0  0  0  0  0  0  0  0  0  0  0  0
   57.0080   28.1670   45.5510 C   0  0  0  0  0  0  0  0  0  0  0  0
   56.1090   29.0510   44.8820 O   0  0  0  0  0  0  0  0  0  0  0  0
   56.4940   29.8960   43.8340 C   0  0  0  0  0  0  0  0  0  0  0  0
   56.2270   29.5850   42.6400 O   0  0  0  0  0  0  0  0  0  0  0  0
   57.2180   31.1510   44.1320 C   0  0  0  0  0  0  0  0  0  0  0  0
   57.4320   31.5520   45.4620 C   0  0  0  0  0  0  0  0  0  0  0  0
   58.1200   32.7430   45.7260 C   0  0  0  0  0  0  0  0  0  0  0  0
   58.3480   33.1660   47.0440 C   0  0  0  0  0  0  0  0  0  0  0  0
   59.0370   34.3580   47.2900 C   0  0  0  0  0  0  0  0  0  0  0  0
   59.5040   35.1320   46.2230 C   0  0  0  0  0  0  0  0  0  0  0  0
   59.2830   34.7200   44.9050 C   0  0  0  0  0  0  0  0  0  0  0  0
   58.5920   33.5250   44.6500 C   0  0  0  0  0  0  0  0  0  0  0  0
   58.3590   33.0910   43.3400 C   0  0  0  0  0  0  0  0  0  0  0  0
   57.6870   31.9300   43.1100 N   0  0  0  0  0  0  0  0  0  0  0  0
   59.1054   27.7100   45.3405 H   0  0  0  0  0  0  0  0  0  0  0  0
   58.0568   27.0193   44.0560 H   0  0  0  0  0  0  0  0  0  0  0  0
   58.4392   28.7744   44.0560 H   0  0  0  0  0  0  0  0  0  0  0  0
   56.4948   27.2155   45.7541 H   0  0  0  0  0  0  0  0  0  0  0  0
   57.3296   28.6351   46.4930 H   0  0  0  0  0  0  0  0  0  0  0  0
   57.0607   30.9330   46.2921 H   0  0  0  0  0  0  0  0  0  0  0  0
   57.9840   32.5588   47.8859 H   0  0  0  0  0  0  0  0  0  0  0  0
   59.2119   34.6874   48.3249 H   0  0  0  0  0  0  0  0  0  0  0  0
   60.0469   36.0679   46.4211 H   0  0  0  0  0  0  0  0  0  0  0  0
   59.6506   35.3322   44.0683 H   0  0  0  0  0  0  0  0  0  0  0  0
   58.7208   33.6912   42.4921 H   0  0  0  0  0  0  0  0  0  0  0  0
   57.5360   31.6430   42.1170 H   0  0  0  0  0  0  0  0  0  0  0  0
  1  2  1  0
  2  3  1  0
  3  4  1  0
  4  5  2  0
  4  6  1  0
  6  7  2  0
  7  8  1  0
  8  9  2  0
  9 10  1  0
 10 11  2  0
 11 12  1  0
 12 13  2  0
 13 14  1  0
 14 15  2  0
 15  6  1  0
 13  8  1  0
  1 16  1  0
  1 17  1  0
  1 18  1  0
  2 19  1  0
  2 20  1  0
  7 21  1  0
  9 22  1  0
 10 23  1  0
 11 24  1  0
 12 25  1  0
 14 26  1  0
 15 27  1  0
M  CHG  1  15   1
M  END
>  <UniqueID>  (8) 
7

>  <SMILES>  (8) 
CCOC(=O)c1cc2ccccc2c[nH+]1

>  <Energy>  (8) 
26.916748812566187

>  <Genealogy>  (8) 
CCOC(=O)c1cc2ccccc2c[nH+]1 (protonated)
CCOC(=O)c1cc2ccccc2c[nH+]1 (3D coordinates assigned)
CCOC(=O)c1cc2ccccc2c[nH+]1 (optimized conformer: 26.916748812566187 kcal/mol)

>  <smiles>  (8) 
CCOC(=O)c1cc2ccccc2cn1

>  <score_type>  (8) 
oracle

>  <origin>  (8) 
adg

>  <m_score__min__energy>  (8) 
-4.1399999999999997

>  <m_primary>  (8) 
energy

$$$$
8:0
     RDKit          3D

 46 48  0  0  0  0  0  0  0  0999 V2000
   57.2480   23.5950   46.9880 C   0  0  0  0  0  0  0  0  0  0  0  0
   56.8260   24.8980   47.3780 O   0  0  0  0  0  0  0  0  0  0  0  0
   57.2320   26.0860   46.7510 C   0  0  0  0  0  0  0  0  0  0  0  0
   58.5600   26.5500   46.8190 C   0  0  0  0  0  0  0  0  0  0  0  0
   58.9270   27.7380   46.1840 C   0  0  0  0  0  0  0  0  0  0  0  0
   57.9750   28.4880   45.4820 C   0  0  0  0  0  0  0  0  0  0  0  0
   58.3820   29.7510   44.7660 C   0  0  0  0  0  0  0  0  0  0  0  0
   57.3640   30.7940   44.9470 N   0  0  0  0  0  0  0  0  0  0  0  0
   57.9820   32.0130   45.4060 C   0  0  0  0  0  0  0  0  0  0  0  0
   57.3370   33.2480   45.2320 C   0  0  0  0  0  0  0  0  0  0  0  0
   57.9480   34.4290   45.6530 C   0  0  0  0  0  0  0  0  0  0  0  0
   59.2140   34.3940   46.2420 C   0  0  0  0  0  0  0  0  0  0  0  0
   59.8870   33.1710   46.4140 C   0  0  0  0  0  0  0  0  0  0  0  0
   61.2390   33.1340   47.0290 C   0  0  0  0  0  0  0  0  0  0  0  0
   62.3080   33.8440   46.4510 C   0  0  0  0  0  0  0  0  0  0  0  0
   63.5780   33.8080   47.0330 C   0  0  0  0  0  0  0  0  0  0  0  0
   63.7970   33.0640   48.1950 C   0  0  0  0  0  0  0  0  0  0  0  0
   62.7450   32.3550   48.7770 C   0  0  0  0  0  0  0  0  0  0  0  0
   61.4720   32.3880   48.2000 C   0  0  0  0  0  0  0  0  0  0  0  0
   59.2630   31.9840   45.9880 C   0  0  0  0  0  0  0  0  0  0  0  0
   56.6540   28.0230   45.4000 C   0  0  0  0  0  0  0  0  0  0  0  0
   56.2760   26.8250   46.0380 C   0  0  0  0  0  0  0  0  0  0  0  0
   54.9610   26.3350   45.9820 O   0  0  0  0  0  0  0  0  0  0  0  0
   54.6120   25.0020   45.6230 C   0  0  0  0  0  0  0  0  0  0  0  0
   57.4442   22.9893   47.8850 H   0  0  0  0  0  0  0  0  0  0  0  0
   56.4585   23.1179   46.3889 H   0  0  0  0  0  0  0  0  0  0  0  0
   58.1674   23.6713   46.3889 H   0  0  0  0  0  0  0  0  0  0  0  0
   59.3128   25.9728   47.3759 H   0  0  0  0  0  0  0  0  0  0  0  0
   59.9690   28.0867   46.2353 H   0  0  0  0  0  0  0  0  0  0  0  0
   59.3403   30.1056   45.1733 H   0  0  0  0  0  0  0  0  0  0  0  0
   58.4839   29.5349   43.6923 H   0  0  0  0  0  0  0  0  0  0  0  0
   56.6510   30.4770   45.6460 H   0  0  0  0  0  0  0  0  0  0  0  0
   56.8700   30.9680   44.0400 H   0  0  0  0  0  0  0  0  0  0  0  0
   56.3437   33.2843   44.7608 H   0  0  0  0  0  0  0  0  0  0  0  0
   57.4312   35.3910   45.5208 H   0  0  0  0  0  0  0  0  0  0  0  0
   59.6880   35.3296   46.5737 H   0  0  0  0  0  0  0  0  0  0  0  0
   62.1428   34.4309   45.5354 H   0  0  0  0  0  0  0  0  0  0  0  0
   64.4074   34.3669   46.5750 H   0  0  0  0  0  0  0  0  0  0  0  0
   64.7977   33.0370   48.6509 H   0  0  0  0  0  0  0  0  0  0  0  0
   62.9179   31.7690   49.6917 H   0  0  0  0  0  0  0  0  0  0  0  0
   60.6471   31.8274   48.6640 H   0  0  0  0  0  0  0  0  0  0  0  0
   59.7825   31.0222   46.1113 H   0  0  0  0  0  0  0  0  0  0  0  0
   55.9073   28.5983   44.8330 H   0  0  0  0  0  0  0  0  0  0  0  0
   54.4559   24.4058   46.5341 H   0  0  0  0  0  0  0  0  0  0  0  0
   53.6864   25.0127   45.0288 H   0  0  0  0  0  0  0  0  0  0  0  0
   55.4241   24.5577   45.0288 H   0  0  0  0  0  0  0  0  0  0  0  0
  1  2  1  0
  2  3  1  0
  3  4  2  0
  4  5  1  0
  5  6  2  0
  6  7  1  0
  7  8  1  0
  8  9  1  0
  9 10  2  0
 10 11  1  0
 11 12  2  0
 12 13  1  0
 13 14  1  0
 14 15  2  0
 15 16  1  0
 16 17  2  0
 17 18  1  0
 18 19  2  0
 13 20  2  0
  6 21  1  0
 21 22  2  0
 22 23  1  0
 23 24  1  0
 22  3  1  0
 20  9  1  0
 19 14  1  0
  1 25  1  0
  1 26  1  0
  1 27  1  0
  4 28  1  0
  5 29  1  0
  7 30  1  0
  7 31  1  0
  8 32  1  0
  8 33  1  0
 10 34  1  0
 11 35  1  0
 12 36  1  0
 15 37  1  0
 16 38  1  0
 17 39  1  0
 18 40  1  0
 19 41  1  0
 20 42  1  0
 21 43  1  0
 24 44  1  0
 24 45  1  0
 24 46  1  0
M  CHG  1   8   1
M  END
>  <UniqueID>  (9) 
8

>  <SMILES>  (9) 
COc1ccc(C[NH2+]c2cccc(-c3ccccc3)c2)cc1OC

>  <Energy>  (9) 
52.44651472780873

>  <Genealogy>  (9) 
COc1ccc(C[NH2+]c2cccc(-c3ccccc3)c2)cc1OC (protonated)
COc1ccc(C[NH2+]c2cccc(-c3ccccc3)c2)cc1OC (3D coordinates assigned)
COc1ccc(C[NH2+]c2cccc(-c3ccccc3)c2)cc1OC (optimized conformer: 52.44651472780873 kcal/mol)

>  <smiles>  (9) 
COc1ccc(CNc2cccc(-c3ccccc3)c2)cc1OC

>  <score_type>  (9) 
oracle

>  <origin>  (9) 
adg

>  <m_score__min__energy>  (9) 
-6.8499999999999996

>  <m_primary>  (9) 
energy

$$$$
9:0
     RDKit          3D

 52 55  0  0  0  0  0  0  0  0999 V2000
   58.2220   27.8010   44.0190 C   0  0  0  0  0  0  0  0  0  0  0  0
   57.4150   28.6120   44.7120 C   0  0  0  0  0  0  0  0  0  0  0  0
   56.8290   29.8650   44.1020 C   0  0  0  0  0  0  0  0  0  0  0  0
   57.0760   31.0810   44.9050 N   0  0  0  0  0  0  0  0  0  0  0  0
   57.3960   32.2510   44.0680 C   0  0  0  0  0  0  0  0  0  0  0  0
   57.4170   33.5140   44.9300 C   0  0  0  0  0  0  0  0  0  0  0  0
   58.3000   33.3300   46.0890 N   0  0  0  0  0  0  0  0  0  0  0  0
   58.9980   34.4730   46.6300 C   0  0  0  0  0  0  0  0  0  0  0  0
   59.4140   35.3720   45.8490 O   0  0  0  0  0  0  0  0  0  0  0  0
   59.2690   34.6080   48.1070 C   0  0  0  0  0  0  0  0  0  0  0  0
   60.3520   33.7080   48.5260 N   0  0  0  0  0  0  0  0  0  0  0  0
   60.3460   32.8320   49.5690 C   0  0  0  0  0  0  0  0  0  0  0  0
   59.2360   32.6580   50.5290 C   0  0  0  0  0  0  0  0  0  0  0  0
   58.4250   31.5150   50.4610 C   0  0  0  0  0  0  0  0  0  0  0  0
   57.3740   31.3640   51.3660 C   0  0  0  0  0  0  0  0  0  0  0  0
   57.1430   32.3420   52.3330 C   0  0  0  0  0  0  0  0  0  0  0  0
   57.9800   33.4580   52.3870 C   0  0  0  0  0  0  0  0  0  0  0  0
   59.0030   33.5910   51.4990 N   0  0  0  0  0  0  0  0  0  0  0  0
   61.5240   32.0880   49.5940 C   0  0  0  0  0  0  0  0  0  0  0  0
   62.2690   32.5540   48.5340 C   0  0  0  0  0  0  0  0  0  0  0  0
   63.5330   32.1720   48.0880 C   0  0  0  0  0  0  0  0  0  0  0  0
   64.0540   32.8220   46.9560 C   0  0  0  0  0  0  0  0  0  0  0  0
   63.3080   33.8280   46.3040 C   0  0  0  0  0  0  0  0  0  0  0  0
   62.0340   34.1910   46.7760 C   0  0  0  0  0  0  0  0  0  0  0  0
   61.5400   33.5310   47.9060 C   0  0  0  0  0  0  0  0  0  0  0  0
   58.1740   32.0870   46.8640 C   0  0  0  0  0  0  0  0  0  0  0  0
   58.1140   30.8770   45.9310 C   0  0  0  0  0  0  0  0  0  0  0  0
   58.6317   26.8967   44.4928 H   0  0  0  0  0  0  0  0  0  0  0  0
   58.4759   28.0383   42.9754 H   0  0  0  0  0  0  0  0  0  0  0  0
   57.1710   28.3603   45.7546 H   0  0  0  0  0  0  0  0  0  0  0  0
   57.2738   30.0087   43.1062 H   0  0  0  0  0  0  0  0  0  0  0  0
   55.7392   29.7235   44.0548 H   0  0  0  0  0  0  0  0  0  0  0  0
   58.3832   32.1091   43.6039 H   0  0  0  0  0  0  0  0  0  0  0  0
   56.6306   32.3580   43.2853 H   0  0  0  0  0  0  0  0  0  0  0  0
   57.7824   34.3582   44.3268 H   0  0  0  0  0  0  0  0  0  0  0  0
   56.3971   33.7178   45.2881 H   0  0  0  0  0  0  0  0  0  0  0  0
   59.5584   35.6463   48.3266 H   0  0  0  0  0  0  0  0  0  0  0  0
   58.3557   34.3389   48.6578 H   0  0  0  0  0  0  0  0  0  0  0  0
   58.6164   30.7440   49.7001 H   0  0  0  0  0  0  0  0  0  0  0  0
   56.7284   30.4747   51.3169 H   0  0  0  0  0  0  0  0  0  0  0  0
   56.3111   32.2353   53.0448 H   0  0  0  0  0  0  0  0  0  0  0  0
   57.8122   34.2326   53.1498 H   0  0  0  0  0  0  0  0  0  0  0  0
   59.6340   34.4150   51.5940 H   0  0  0  0  0  0  0  0  0  0  0  0
   61.7997   31.2977   50.3077 H   0  0  0  0  0  0  0  0  0  0  0  0
   64.1044   31.3872   48.6053 H   0  0  0  0  0  0  0  0  0  0  0  0
   65.0485   32.5454   46.5759 H   0  0  0  0  0  0  0  0  0  0  0  0
   63.7265   34.3316   45.4201 H   0  0  0  0  0  0  0  0  0  0  0  0
   61.4438   34.9704   46.2718 H   0  0  0  0  0  0  0  0  0  0  0  0
   59.0429   31.9868   47.5311 H   0  0  0  0  0  0  0  0  0  0  0  0
   57.2459   32.1280   47.4531 H   0  0  0  0  0  0  0  0  0  0  0  0
   59.0900   30.7467   45.4406 H   0  0  0  0  0  0  0  0  0  0  0  0
   57.8685   29.9803   46.5189 H   0  0  0  0  0  0  0  0  0  0  0  0
  1  2  2  0
  2  3  1  0
  3  4  1  0
  4  5  1  0
  5  6  1  0
  6  7  1  0
  7  8  1  0
  8  9  2  0
  8 10  1  0
 10 11  1  0
 11 12  1  0
 12 13  1  0
 13 14  2  0
 14 15  1  0
 15 16  2  0
 16 17  1  0
 17 18  2  0
 12 19  2  0
 19 20  1  0
 20 21  2  0
 21 22  1  0
 22 23  2  0
 23 24  1  0
 24 25  2  0
  7 26  1  0
 26 27  1  0
 27  4  1  0
 25 11  1  0
 18 13  1  0
 25 20  1  0
  1 28  1  0
  1 29  1  0
  2 30  1  0
  3 31  1  0
  3 32  1  0
  5 33  1  0
  5 34  1  0
  6 35  1  0
  6 36  1  0
 10 37  1  0
 10 38  1  0
 14 39  1  0
 15 40  1  0
 16 41  1  0
 17 42  1  0
 18 43  1  0
 19 44  1  0
 21 45  1  0
 22 46  1  0
 23 47  1  0
 24 48  1  0
 26 49  1  0
 26 50  1  0
 27 51  1  0
 27 52  1  0
M  CHG  1  18   1
M  END
>  <UniqueID>  (10) 
9

>  <SMILES>  (10) 
C=CCN1CCN(C(=O)Cn2c(-c3cccc[nH+]3)cc3ccccc32)CC1

>  <Energy>  (10) 
94.06885249302266

>  <Genealogy>  (10) 
C=CCN1CCN(C(=O)Cn2c(-c3cccc[nH+]3)cc3ccccc32)CC1 (protonated)
C=CCN1CCN(C(=O)Cn2c(-c3cccc[nH+]3)cc3ccccc32)CC1 (3D coordinates assigned)
C=CCN1CCN(C(=O)Cn2c(-c3cccc[nH+]3)cc3ccccc32)CC1 (nonaromatic ring conformer: 94.06885249302266 kcal/mol)

>  <smiles>  (10) 
C=CCN1CCN(C(=O)Cn2c(-c3ccccn3)cc3ccccc32)CC1

>  <score_type>  (10) 
oracle

>  <origin>  (10) 
adg

>  <m_score__min__energy>  (10) 
-7.3200000000000003

>  <m_primary>  (10) 
energy

$$$$
10:0
     RDKit          3D

 49 50  0  0  0  0  0  0  0  0999 V2000
   64.1130   33.0620   48.2690 C   0  0  0  0  0  0  0  0  0  0  0  0
   63.1710   32.9490   47.0820 C   0  0  0  0  0  0  0  0  0  0  0  0
   61.9180   32.4680   47.5280 O   0  0  0  0  0  0  0  0  0  0  0  0
   61.5990   33.0070   48.8010 C   0  0  1  0  0  0  0  0  0  0  0  0
   61.1600   34.4710   48.6270 C   0  0  0  0  0  0  0  0  0  0  0  0
   59.7940   34.5720   48.2680 O   0  0  0  0  0  0  0  0  0  0  0  0
   59.6240   34.9630   46.9150 C   0  0  0  0  0  0  0  0  0  0  0  0
   58.8860   33.8940   46.1540 C   0  0  0  0  0  0  0  0  0  0  0  0
   58.6240   32.6480   46.7450 C   0  0  0  0  0  0  0  0  0  0  0  0
   57.9250   31.6640   46.0400 C   0  0  0  0  0  0  0  0  0  0  0  0
   57.4810   31.9050   44.7270 C   0  0  0  0  0  0  0  0  0  0  0  0
   56.7510   30.8990   44.0010 N   0  0  0  0  0  0  0  0  0  0  0  0
   56.9270   30.7460   42.7750 O   0  0  0  0  0  0  0  0  0  0  0  0
   55.8520   30.0840   44.6490 O   0  0  0  0  0  0  0  0  0  0  0  0
   57.7610   33.1480   44.1320 C   0  0  0  0  0  0  0  0  0  0  0  0
   58.4620   34.1300   44.8380 C   0  0  0  0  0  0  0  0  0  0  0  0
   60.4840   32.2170   49.4560 C   0  0  0  0  0  0  0  0  0  0  0  0
   60.2010   30.9050   49.0460 C   0  0  0  0  0  0  0  0  0  0  0  0
   59.1600   30.1880   49.6380 C   0  0  0  0  0  0  0  0  0  0  0  0
   58.3730   30.7750   50.6470 C   0  0  0  0  0  0  0  0  0  0  0  0
   57.3190   30.0850   51.2660 O   0  0  0  0  0  0  0  0  0  0  0  0
   57.2490   29.8040   52.6600 C   0  0  0  0  0  0  0  0  0  0  0  0
   58.6390   32.0910   51.0540 C   0  0  0  0  0  0  0  0  0  0  0  0
   57.8340   32.6530   52.0590 O   0  0  0  0  0  0  0  0  0  0  0  0
   58.1500   33.8420   52.7760 C   0  0  0  0  0  0  0  0  0  0  0  0
   59.6910   32.8080   50.4520 C   0  0  0  0  0  0  0  0  0  0  0  0
   63.5359   32.9928   49.2029 H   0  0  0  0  0  0  0  0  0  0  0  0
   64.8494   32.2458   48.2317 H   0  0  0  0  0  0  0  0  0  0  0  0
   64.6355   34.0293   48.2317 H   0  0  0  0  0  0  0  0  0  0  0  0
   63.0419   33.9385   46.6191 H   0  0  0  0  0  0  0  0  0  0  0  0
   63.5917   32.2536   46.3407 H   0  0  0  0  0  0  0  0  0  0  0  0
   62.4880   32.9507   49.4464 H   0  0  0  0  0  0  0  0  0  0  0  0
   61.3193   35.0054   49.5752 H   0  0  0  0  0  0  0  0  0  0  0  0
   61.7595   34.9135   47.8178 H   0  0  0  0  0  0  0  0  0  0  0  0
   59.0481   35.8994   46.8770 H   0  0  0  0  0  0  0  0  0  0  0  0
   60.6131   35.1117   46.4572 H   0  0  0  0  0  0  0  0  0  0  0  0
   58.9708   32.4448   47.7689 H   0  0  0  0  0  0  0  0  0  0  0  0
   57.7205   30.6935   46.5156 H   0  0  0  0  0  0  0  0  0  0  0  0
   57.4260   33.3490   43.1037 H   0  0  0  0  0  0  0  0  0  0  0  0
   58.6827   35.0948   44.3580 H   0  0  0  0  0  0  0  0  0  0  0  0
   60.8036   30.4386   48.2527 H   0  0  0  0  0  0  0  0  0  0  0  0
   58.9531   29.1574   49.3140 H   0  0  0  0  0  0  0  0  0  0  0  0
   57.4764   30.7169   53.2299 H   0  0  0  0  0  0  0  0  0  0  0  0
   56.2367   29.4561   52.9135 H   0  0  0  0  0  0  0  0  0  0  0  0
   57.9798   29.0219   52.9135 H   0  0  0  0  0  0  0  0  0  0  0  0
   58.0972   33.6435   53.8567 H   0  0  0  0  0  0  0  0  0  0  0  0
   59.1664   34.1698   52.5126 H   0  0  0  0  0  0  0  0  0  0  0  0
   57.4304   34.6312   52.5126 H   0  0  0  0  0  0  0  0  0  0  0  0
   59.8935   33.8427   50.7658 H   0  0  0  0  0  0  0  0  0  0  0  0
  1  2  1  0
  2  3  1  0
  3  4  1  0
  4  5  1  0
  5  6  1  0
  6  7  1  0
  7  8  1  0
  8  9  2  0
  9 10  1  0
 10 11  2  0
 11 12  1  0
 12 13  2  0
 12 14  1  0
 11 15  1  0
 15 16  2  0
  4 17  1  0
 17 18  2  0
 18 19  1  0
 19 20  2  0
 20 21  1  0
 21 22  1  0
 20 23  1  0
 23 24  1  0
 24 25  1  0
 23 26  2  0
 16  8  1  0
 26 17  1  0
  1 27  1  0
  1 28  1  0
  1 29  1  0
  2 30  1  0
  2 31  1  0
  4 32  1  1
  5 33  1  0
  5 34  1  0
  7 35  1  0
  7 36  1  0
  9 37  1  0
 10 38  1  0
 15 39  1  0
 16 40  1  0
 18 41  1  0
 19 42  1  0
 22 43  1  0
 22 44  1  0
 22 45  1  0
 25 46  1  0
 25 47  1  0
 25 48  1  0
 26 49  1  0
M  CHG  2  12   1  14  -1
M  END
>  <UniqueID>  (11) 
10

>  <SMILES>  (11) 
CCO[C@@H](COCc1ccc([N+](=O)[O-])cc1)c1ccc(OC)c(OC)c1

>  <Energy>  (11) 
47.77014501321225

>  <Genealogy>  (11) 
CCO[C@@H](COCc1ccc([N+](=O)[O-])cc1)c1ccc(OC)c(OC)c1 (chirality)
CCO[C@@H](COCc1ccc([N+](=O)[O-])cc1)c1ccc(OC)c(OC)c1 (3D coordinates assigned)
CCO[C@@H](COCc1ccc([N+](=O)[O-])cc1)c1ccc(OC)c(OC)c1 (optimized conformer: 47.77014501321225 kcal/mol)

>  <smiles>  (11) 
CCOC(COCc1ccc([N+](=O)[O-])cc1)c1ccc(OC)c(OC)c1

>  <score_type>  (11) 
oracle

>  <origin>  (11) 
adg

>  <m_score__min__energy>  (11) 
-6.9400000000000004

>  <m_primary>  (11) 
energy

$$$$
11:0
     RDKit          3D

 36 39  0  0  0  0  0  0  0  0999 V2000
   60.7690   29.9400   48.8050 C   0  0  0  0  0  0  0  0  0  0  0  0
   60.3400   28.5230   48.5880 C   0  0  0  0  0  0  0  0  0  0  0  0
   60.7100   27.5220   49.4140 N   0  0  0  0  0  0  0  0  0  0  0  0
   60.1120   26.4180   48.9900 N   0  0  0  0  0  0  0  0  0  0  0  0
   59.3850   26.7680   47.9140 C   0  0  0  0  0  0  0  0  0  0  0  0
   59.5170   28.0690   47.6140 N   0  0  0  0  0  0  0  0  0  0  0  0
   58.8270   28.6840   46.5090 C   0  0  0  0  0  0  0  0  0  0  0  0
   59.1780   29.9450   45.9940 C   0  0  0  0  0  0  0  0  0  0  0  0
   58.5030   30.4670   44.8880 C   0  0  0  0  0  0  0  0  0  0  0  0
   57.4940   29.7290   44.2670 C   0  0  0  0  0  0  0  0  0  0  0  0
   56.6000   30.4370   42.7350 Br  0  0  0  0  0  0  0  0  0  0  0  0
   57.1560   28.4620   44.7490 C   0  0  0  0  0  0  0  0  0  0  0  0
   57.8080   27.9320   45.8800 C   0  0  0  0  0  0  0  0  0  0  0  0
   57.4960   26.6050   46.3830 N   0  0  0  0  0  0  0  0  0  0  0  0
   56.2110   25.9940   46.1580 C   0  0  0  0  0  0  0  0  0  0  0  0
   55.1900   26.7180   46.0060 O   0  0  0  0  0  0  0  0  0  0  0  0
   56.0840   24.5650   46.1910 N   0  0  0  0  0  0  0  0  0  0  0  0
   56.4520   23.6530   45.1470 C   0  0  0  0  0  0  0  0  0  0  0  0
   57.6450   22.9100   45.1830 C   0  0  0  0  0  0  0  0  0  0  0  0
   57.9400   22.0170   44.1490 C   0  0  0  0  0  0  0  0  0  0  0  0
   57.0360   21.8650   43.0980 C   0  0  0  0  0  0  0  0  0  0  0  0
   55.8760   22.5740   43.0880 N   0  0  0  0  0  0  0  0  0  0  0  0
   55.5660   23.4480   44.0830 C   0  0  0  0  0  0  0  0  0  0  0  0
   58.5250   25.8410   47.1150 C   0  0  0  0  0  0  0  0  0  0  0  0
   60.8305   30.1433   49.8843 H   0  0  0  0  0  0  0  0  0  0  0  0
   61.7555   30.0990   48.3451 H   0  0  0  0  0  0  0  0  0  0  0  0
   60.0363   30.6195   48.3451 H   0  0  0  0  0  0  0  0  0  0  0  0
   59.9875   30.5226   46.4642 H   0  0  0  0  0  0  0  0  0  0  0  0
   58.7677   31.4636   44.5049 H   0  0  0  0  0  0  0  0  0  0  0  0
   56.3761   27.8746   44.2424 H   0  0  0  0  0  0  0  0  0  0  0  0
   58.3447   23.0312   46.0231 H   0  0  0  0  0  0  0  0  0  0  0  0
   58.8762   21.4397   44.1641 H   0  0  0  0  0  0  0  0  0  0  0  0
   57.2619   21.1702   42.2756 H   0  0  0  0  0  0  0  0  0  0  0  0
   54.6133   23.9970   44.0513 H   0  0  0  0  0  0  0  0  0  0  0  0
   58.0341   25.1264   47.7920 H   0  0  0  0  0  0  0  0  0  0  0  0
   59.1540   25.3013   46.3917 H   0  0  0  0  0  0  0  0  0  0  0  0
  1  2  1  0
  2  3  2  0
  3  4  1  0
  4  5  2  0
  5  6  1  0
  6  7  1  0
  7  8  2  0
  8  9  1  0
  9 10  2  0
 10 11  1  0
 10 12  1  0
 12 13  2  0
 13 14  1  0
 14 15  1  0
 15 16  2  0
 15 17  1  0
 17 18  1  0
 18 19  2  0
 19 20  1  0
 20 21  2  0
 21 22  1  0
 22 23  2  0
 14 24  1  0
  6  2  1  0
 13  7  1  0
 23 18  1  0
 24  5  1  0
  1 25  1  0
  1 26  1  0
  1 27  1  0
  8 28  1  0
  9 29  1  0
 12 30  1  0
 19 31  1  0
 20 32  1  0
 21 33  1  0
 23 34  1  0
 24 35  1  0
 24 36  1  0
M  CHG  1  17  -1
M  END
>  <UniqueID>  (12) 
11

>  <SMILES>  (12) 
Cc1nnc2n1-c1ccc(Br)cc1N(C(=O)[N-]c1cccnc1)C2

>  <Energy>  (12) 
92.1026848673807

>  <Genealogy>  (12) 
Cc1nnc2n1-c1ccc(Br)cc1N(C(=O)[N-]c1cccnc1)C2 (protonated)
Cc1nnc2n1-c1ccc(Br)cc1N(C(=O)[N-]c1cccnc1)C2 (3D coordinates assigned)
Cc1nnc2n1-c1ccc(Br)cc1N(C(=O)[N-]c1cccnc1)C2 (nonaromatic ring conformer: 92.1026848673807 kcal/mol)

>  <smiles>  (12) 
Cc1nnc2n1-c1ccc(Br)cc1N(C(=O)Nc1cccnc1)C2

>  <score_type>  (12) 
oracle

>  <origin>  (12) 
adg

>  <m_score__min__energy>  (12) 
-9.8200000000000003

>  <m_primary>  (12) 
energy

$$$$
12:0
     RDKit          3D

 52 55  0  0  1  0  0  0  0  0999 V2000
   65.4700   32.8790   50.1080 C   0  0  0  0  0  0  0  0  0  0  0  0
   64.6910   31.9840   49.3370 O   0  0  0  0  0  0  0  0  0  0  0  0
   63.5510   32.3390   48.6390 C   0  0  0  0  0  0  0  0  0  0  0  0
   62.2930   31.9810   49.0950 C   0  0  0  0  0  0  0  0  0  0  0  0
   61.1620   32.3500   48.3750 C   0  0  0  0  0  0  0  0  0  0  0  0
   61.2610   33.0700   47.2080 C   0  0  0  0  0  0  0  0  0  0  0  0
   60.1460   33.4870   46.3970 C   0  0  0  0  0  0  0  0  0  0  0  0
   60.0040   34.8090   46.0160 C   0  0  0  0  0  0  0  0  0  0  0  0
   58.9160   35.1680   45.2490 C   0  0  0  0  0  0  0  0  0  0  0  0
   57.9820   34.2210   44.8670 C   0  0  0  0  0  0  0  0  0  0  0  0
   58.1030   32.8900   45.2350 C   0  0  0  0  0  0  0  0  0  0  0  0
   57.2040   31.9590   44.8660 N   0  0  0  0  0  0  0  0  0  0  0  0
   57.4040   30.6930   45.2680 C   0  0  0  0  0  0  0  0  0  0  0  0
   56.5870   29.7390   44.9580 N   0  0  0  0  0  0  0  0  0  0  0  0
   56.8820   28.3460   45.0020 C   0  0  0  0  0  0  0  0  0  0  0  0
   57.7910   27.9310   43.8730 C   0  0  0  0  0  0  0  0  0  0  0  0
   59.2200   28.1270   44.3350 C   0  0  0  0  0  0  0  0  0  0  0  0
   59.5620   27.5190   45.5200 N   0  0  0  0  0  0  0  0  0  0  0  0
   60.3860   28.1340   46.4810 C   0  0  0  0  0  0  0  0  0  0  0  0
   60.3210   27.2740   47.7400 C   0  0  0  0  0  0  0  0  0  0  0  0
   59.1160   26.4110   47.5450 C   0  0  0  0  0  0  0  0  0  0  0  0
   58.9630   26.3640   46.0260 C   0  0  0  0  0  0  0  0  0  0  0  0
   58.4930   30.3770   46.0250 N   0  0  0  0  0  0  0  0  0  0  0  0
   59.3740   31.2790   46.3880 N   0  0  0  0  0  0  0  0  0  0  0  0
   59.2030   32.5600   46.0040 C   0  0  0  0  0  0  0  0  0  0  0  0
   62.5330   33.4190   46.7670 C   0  0  0  0  0  0  0  0  0  0  0  0
   63.6740   33.0680   47.4610 C   0  0  0  0  0  0  0  0  0  0  0  0
   65.3009   32.6847   51.1774 H   0  0  0  0  0  0  0  0  0  0  0  0
   66.5348   32.7344   49.8730 H   0  0  0  0  0  0  0  0  0  0  0  0
   65.1799   33.9137   49.8730 H   0  0  0  0  0  0  0  0  0  0  0  0
   62.1887   31.4050   50.0263 H   0  0  0  0  0  0  0  0  0  0  0  0
   60.1681   32.0600   48.7467 H   0  0  0  0  0  0  0  0  0  0  0  0
   60.7467   35.5614   46.3198 H   0  0  0  0  0  0  0  0  0  0  0  0
   58.7894   36.2156   44.9382 H   0  0  0  0  0  0  0  0  0  0  0  0
   57.1219   34.5323   44.2560 H   0  0  0  0  0  0  0  0  0  0  0  0
   57.3743   28.1162   45.9585 H   0  0  0  0  0  0  0  0  0  0  0  0
   55.9367   27.7926   44.9013 H   0  0  0  0  0  0  0  0  0  0  0  0
   57.6198   26.8734   43.6239 H   0  0  0  0  0  0  0  0  0  0  0  0
   57.5905   28.5349   42.9757 H   0  0  0  0  0  0  0  0  0  0  0  0
   59.8835   27.7326   43.5513 H   0  0  0  0  0  0  0  0  0  0  0  0
   59.3263   29.2068   44.5158 H   0  0  0  0  0  0  0  0  0  0  0  0
   61.4212   28.1871   46.1127 H   0  0  0  0  0  0  0  0  0  0  0  0
   60.0487   29.1602   46.6886 H   0  0  0  0  0  0  0  0  0  0  0  0
   61.2277   26.6588   47.8374 H   0  0  0  0  0  0  0  0  0  0  0  0
   60.2568   27.8795   48.6561 H   0  0  0  0  0  0  0  0  0  0  0  0
   59.2811   25.4042   47.9562 H   0  0  0  0  0  0  0  0  0  0  0  0
   58.2219   26.7962   48.0571 H   0  0  0  0  0  0  0  0  0  0  0  0
   59.4637   25.4712   45.6232 H   0  0  0  0  0  0  0  0  0  0  0  0
   57.9022   26.3139   45.7395 H   0  0  0  0  0  0  0  0  0  0  0  0
   58.6620   29.3970   46.3430 H   0  0  0  0  0  0  0  0  0  0  0  0
   62.6334   33.9937   45.8344 H   0  0  0  0  0  0  0  0  0  0  0  0
   64.6663   33.3609   47.0874 H   0  0  0  0  0  0  0  0  0  0  0  0
  1  2  1  0
  2  3  1  0
  3  4  2  0
  4  5  1  0
  5  6  2  0
  6  7  1  0
  7  8  2  0
  8  9  1  0
  9 10  2  0
 10 11  1  0
 11 12  2  0
 12 13  1  0
 13 14  2  0
 14 15  1  0
 15 16  1  0
 16 17  1  0
 17 18  1  0
 18 19  1  0
 19 20  1  0
 20 21  1  0
 21 22  1  0
 13 23  1  0
 23 24  1  0
 24 25  2  0
  6 26  1  0
 26 27  2  0
 27  3  1  0
 25  7  1  0
 25 11  1  0
 22 18  1  0
  1 28  1  0
  1 29  1  0
  1 30  1  0
  4 31  1  0
  5 32  1  0
  8 33  1  0
  9 34  1  0
 10 35  1  0
 15 36  1  0
 15 37  1  0
 16 38  1  0
 16 39  1  0
 17 40  1  0
 17 41  1  0
 19 42  1  0
 19 43  1  0
 20 44  1  0
 20 45  1  0
 21 46  1  0
 21 47  1  0
 22 48  1  0
 22 49  1  0
 23 50  1  0
 26 51  1  0
 27 52  1  0
M  END
>  <smiles>  (13) 
COc1ccc(-c2cccc3nc(=NCCCN4CCCC4)[nH]nc23)cc1

>  <score_type>  (13) 
oracle

>  <origin>  (13) 
adg

>  <m_score__min__energy>  (13) 
-8.5

>  <m_primary>  (13) 
energy

$$$$
13:0
     RDKit          3D

 45 47  0  0  0  0  0  0  0  0999 V2000
   58.0450   22.1430   44.8210 C   0  0  0  0  0  0  0  0  0  0  0  0
   57.2620   23.3900   45.1240 C   0  0  0  0  0  0  0  0  0  0  0  0
   57.9080   24.6250   45.2540 C   0  0  0  0  0  0  0  0  0  0  0  0
   57.2080   25.7680   45.5540 N   0  0  0  0  0  0  0  0  0  0  0  0
   57.9120   27.0060   45.6880 N   0  0  2  0  0  0  0  0  0  0  0  0
   58.5900   27.3330   44.4070 C   0  0  0  0  0  0  0  0  0  0  0  0
   59.4120   28.6370   44.4650 C   0  0  0  0  0  0  0  0  0  0  0  0
   58.8020   29.7750   45.3060 C   0  0  0  0  0  0  0  0  0  0  0  0
   58.7960   29.5420   46.7700 N   0  0  0  0  0  0  0  0  0  0  0  0
   59.2130   30.7270   47.5490 C   0  0  0  0  0  0  0  0  0  0  0  0
   59.0300   31.9890   46.7480 C   0  0  0  0  0  0  0  0  0  0  0  0
   60.1410   32.7630   46.3700 C   0  0  0  0  0  0  0  0  0  0  0  0
   59.9630   33.9250   45.6130 C   0  0  0  0  0  0  0  0  0  0  0  0
   58.6790   34.3220   45.2280 C   0  0  0  0  0  0  0  0  0  0  0  0
   57.5710   33.5550   45.5970 C   0  0  0  0  0  0  0  0  0  0  0  0
   57.7440   32.3920   46.3540 C   0  0  0  0  0  0  0  0  0  0  0  0
   59.4930   28.3200   47.2440 C   0  0  0  0  0  0  0  0  0  0  0  0
   58.7660   26.9940   46.9190 C   0  0  0  0  0  0  0  0  0  0  0  0
   55.8440   25.6800   45.7360 C   0  0  0  0  0  0  0  0  0  0  0  0
   55.1580   26.7030   46.0010 O   0  0  0  0  0  0  0  0  0  0  0  0
   55.2100   24.4840   45.6270 N   0  0  0  0  0  0  0  0  0  0  0  0
   55.8810   23.3460   45.3330 C   0  0  0  0  0  0  0  0  0  0  0  0
   55.2510   22.2590   45.2510 O   0  0  0  0  0  0  0  0  0  0  0  0
   58.3471   21.6618   45.7629 H   0  0  0  0  0  0  0  0  0  0  0  0
   57.4198   21.4498   44.2392 H   0  0  0  0  0  0  0  0  0  0  0  0
   58.9410   22.4050   44.2392 H   0  0  0  0  0  0  0  0  0  0  0  0
   58.9975   24.6812   45.1131 H   0  0  0  0  0  0  0  0  0  0  0  0
   57.2070   27.7690   45.8330 H   0  0  0  0  0  0  0  0  0  0  0  0
   59.2670   26.5051   44.1494 H   0  0  0  0  0  0  0  0  0  0  0  0
   57.8041   27.4776   43.6511 H   0  0  0  0  0  0  0  0  0  0  0  0
   60.3986   28.3960   44.8876 H   0  0  0  0  0  0  0  0  0  0  0  0
   59.4489   29.0142   43.4323 H   0  0  0  0  0  0  0  0  0  0  0  0
   59.3786   30.6908   45.1092 H   0  0  0  0  0  0  0  0  0  0  0  0
   57.7470   29.8477   45.0033 H   0  0  0  0  0  0  0  0  0  0  0  0
   58.6044   30.7893   48.4631 H   0  0  0  0  0  0  0  0  0  0  0  0
   60.2783   30.6234   47.8027 H   0  0  0  0  0  0  0  0  0  0  0  0
   61.1529   32.4537   46.6705 H   0  0  0  0  0  0  0  0  0  0  0  0
   60.8350   34.5280   45.3198 H   0  0  0  0  0  0  0  0  0  0  0  0
   58.5411   35.2380   44.6347 H   0  0  0  0  0  0  0  0  0  0  0  0
   56.5612   33.8664   45.2916 H   0  0  0  0  0  0  0  0  0  0  0  0
   56.8692   31.7905   46.6419 H   0  0  0  0  0  0  0  0  0  0  0  0
   60.4876   28.2892   46.7752 H   0  0  0  0  0  0  0  0  0  0  0  0
   59.5336   28.3913   48.3409 H   0  0  0  0  0  0  0  0  0  0  0  0
   59.5294   26.2121   46.7931 H   0  0  0  0  0  0  0  0  0  0  0  0
   58.0786   26.8153   47.7590 H   0  0  0  0  0  0  0  0  0  0  0  0
  1  2  1  0
  2  3  2  0
  3  4  1  0
  4  5  1  0
  5  6  1  0
  6  7  1  0
  7  8  1  0
  8  9  1  0
  9 10  1  0
 10 11  1  0
 11 12  2  0
 12 13  1  0
 13 14  2  0
 14 15  1  0
 15 16  2  0
  9 17  1  0
 17 18  1  0
  4 19  1  0
 19 20  2  0
 19 21  1  0
 21 22  1  0
 22 23  2  0
 22  2  1  0
 18  5  1  0
 16 11  1  0
  1 24  1  0
  1 25  1  0
  1 26  1  0
  3 27  1  0
  5 28  1  1
  6 29  1  0
  6 30  1  0
  7 31  1  0
  7 32  1  0
  8 33  1  0
  8 34  1  0
 10 35  1  0
 10 36  1  0
 12 37  1  0
 13 38  1  0
 14 39  1  0
 15 40  1  0
 16 41  1  0
 17 42  1  0
 17 43  1  0
 18 44  1  0
 18 45  1  0
M  CHG  2   5   1  21  -1
M  END
>  <UniqueID>  (14) 
12

>  <SMILES>  (14) 
Cc1cn([N@@H+]2CCCN(Cc3ccccc3)CC2)c(=O)[n-]c1=O

>  <Energy>  (14) 
76.25362954236812

>  <Genealogy>  (14) 
Cc1cn([NH+]2CCCN(Cc3ccccc3)CC2)c(=O)[n-]c1=O (protonated)
Cc1cn([N@@H+]2CCCN(Cc3ccccc3)CC2)c(=O)[n-]c1=O (chirality)
Cc1cn([N@@H+]2CCCN(Cc3ccccc3)CC2)c(=O)[n-]c1=O (3D coordinates assigned)
Cc1cn([N@@H+]2CCCN(Cc3ccccc3)CC2)c(=O)[n-]c1=O (nonaromatic ring conformer: 76.25362954236812 kcal/mol)

>  <smiles>  (14) 
Cc1cn(N2CCCN(Cc3ccccc3)CC2)c(=O)[nH]c1=O

>  <score_type>  (14) 
oracle

>  <origin>  (14) 
adg

>  <m_score__min__energy>  (14) 
-6.3399999999999999

>  <m_primary>  (14) 
energy

$$$$
14:0
     RDKit          3D

 50 52  0  0  0  0  0  0  0  0999 V2000
   58.9290   32.6890   50.9580 C   0  0  0  0  0  0  0  0  0  0  0  0
   58.8890   32.6710   49.4320 C   0  0  0  0  0  0  0  0  0  0  0  0
   59.4970   33.9420   48.8210 C   0  0  0  0  0  0  0  0  0  0  0  0
   59.5200   33.8800   47.3470 N   0  0  0  0  0  0  0  0  0  0  0  0
   58.8810   34.9650   46.5850 C   0  0  0  0  0  0  0  0  0  0  0  0
   59.2710   34.9550   45.1050 C   0  0  0  0  0  0  0  0  0  0  0  0
   59.4760   32.5700   46.7490 C   0  0  0  0  0  0  0  0  0  0  0  0
   58.3470   32.1940   46.0810 N   0  0  0  0  0  0  0  0  0  0  0  0
   58.2210   30.9530   45.5420 C   0  0  0  0  0  0  0  0  0  0  0  0
   57.0850   30.5930   44.8850 N   0  0  0  0  0  0  0  0  0  0  0  0
   56.9380   29.3530   44.3450 C   0  0  0  0  0  0  0  0  0  0  0  0
   57.9650   28.4100   44.4590 C   0  0  0  0  0  0  0  0  0  0  0  0
   59.1420   28.7550   45.1310 C   0  0  0  0  0  0  0  0  0  0  0  0
   59.2730   30.0340   45.6750 C   0  0  0  0  0  0  0  0  0  0  0  0
   60.4010   30.4030   46.3310 N   0  0  0  0  0  0  0  0  0  0  0  0
   60.5470   31.6480   46.8640 C   0  0  0  0  0  0  0  0  0  0  0  0
   61.7760   31.9630   47.5480 N   0  0  0  0  0  0  0  0  0  0  0  0
   62.1110   31.3340   48.8300 C   0  0  0  0  0  0  0  0  0  0  0  0
   62.7820   32.3500   49.7650 C   0  0  0  0  0  0  0  0  0  0  0  0
   63.9790   32.9910   49.1630 N   0  0  0  0  0  0  0  0  0  0  0  0
   65.2200   32.3630   49.6430 C   0  0  0  0  0  0  0  0  0  0  0  0
   63.9700   33.0490   47.6800 C   0  0  0  0  0  0  0  0  0  0  0  0
   62.5490   33.1340   47.1170 C   0  0  0  0  0  0  0  0  0  0  0  0
   57.9932   32.2680   51.3543 H   0  0  0  0  0  0  0  0  0  0  0  0
   59.7798   32.0869   51.3096 H   0  0  0  0  0  0  0  0  0  0  0  0
   59.0428   33.7251   51.3096 H   0  0  0  0  0  0  0  0  0  0  0  0
   59.4557   31.7992   49.0730 H   0  0  0  0  0  0  0  0  0  0  0  0
   57.8348   32.6182   49.1223 H   0  0  0  0  0  0  0  0  0  0  0  0
   58.8969   34.8098   49.1323 H   0  0  0  0  0  0  0  0  0  0  0  0
   60.5338   34.0324   49.1773 H   0  0  0  0  0  0  0  0  0  0  0  0
   57.7893   34.8540   46.6622 H   0  0  0  0  0  0  0  0  0  0  0  0
   59.2236   35.9187   47.0129 H   0  0  0  0  0  0  0  0  0  0  0  0
   60.3669   34.9269   45.0148 H   0  0  0  0  0  0  0  0  0  0  0  0
   58.8402   34.0676   44.6183 H   0  0  0  0  0  0  0  0  0  0  0  0
   58.8862   35.8633   44.6183 H   0  0  0  0  0  0  0  0  0  0  0  0
   57.5550   32.8700   45.9920 H   0  0  0  0  0  0  0  0  0  0  0  0
   56.0090   29.0912   43.8173 H   0  0  0  0  0  0  0  0  0  0  0  0
   57.8479   27.4064   44.0241 H   0  0  0  0  0  0  0  0  0  0  0  0
   59.9582   28.0242   45.2301 H   0  0  0  0  0  0  0  0  0  0  0  0
   61.1904   30.9600   49.3018 H   0  0  0  0  0  0  0  0  0  0  0  0
   62.8073   30.5020   48.6483 H   0  0  0  0  0  0  0  0  0  0  0  0
   62.0515   33.1344   50.0123 H   0  0  0  0  0  0  0  0  0  0  0  0
   63.1164   31.8033   50.6590 H   0  0  0  0  0  0  0  0  0  0  0  0
   65.2274   32.3593   50.7430 H   0  0  0  0  0  0  0  0  0  0  0  0
   65.2747   31.3287   49.2724 H   0  0  0  0  0  0  0  0  0  0  0  0
   66.0857   32.9315   49.2724 H   0  0  0  0  0  0  0  0  0  0  0  0
   64.5338   33.9362   47.3561 H   0  0  0  0  0  0  0  0  0  0  0  0
   64.4302   32.1244   47.3015 H   0  0  0  0  0  0  0  0  0  0  0  0
   62.0633   34.0492   47.4866 H   0  0  0  0  0  0  0  0  0  0  0  0
   62.5930   33.1575   46.0181 H   0  0  0  0  0  0  0  0  0  0  0  0
  1  2  1  0
  2  3  1  0
  3  4  1  0
  4  5  1  0
  5  6  1  0
  4  7  1  0
  7  8  2  0
  8  9  1  0
  9 10  2  0
 10 11  1  0
 11 12  2  0
 12 13  1  0
 13 14  2  0
 14 15  1  0
 15 16  2  0
 16 17  1  0
 17 18  1  0
 18 19  1  0
 19 20  1  0
 20 21  1  0
 20 22  1  0
 22 23  1  0
 16  7  1  0
 23 17  1  0
 14  9  1  0
  1 24  1  0
  1 25  1  0
  1 26  1  0
  2 27  1  0
  2 28  1  0
  3 29  1  0
  3 30  1  0
  5 31  1  0
  5 32  1  0
  6 33  1  0
  6 34  1  0
  6 35  1  0
  8 36  1  0
 11 37  1  0
 12 38  1  0
 13 39  1  0
 18 40  1  0
 18 41  1  0
 19 42  1  0
 19 43  1  0
 21 44  1  0
 21 45  1  0
 21 46  1  0
 22 47  1  0
 22 48  1  0
 23 49  1  0
 23 50  1  0
M  CHG  1   8   1
M  END
>  <UniqueID>  (15) 
13

>  <SMILES>  (15) 
CCCN(CC)c1[nH+]c2ncccc2nc1N1CCN(C)CC1

>  <Energy>  (15) 
64.90799788688982

>  <Genealogy>  (15) 
CCCN(CC)c1[nH+]c2ncccc2nc1N1CCN(C)CC1 (protonated)
CCCN(CC)c1[nH+]c2ncccc2nc1N1CCN(C)CC1 (3D coordinates assigned)
CCCN(CC)c1[nH+]c2ncccc2nc1N1CCN(C)CC1 (nonaromatic ring conformer: 64.90799788688982 kcal/mol)

>  <smiles>  (15) 
CCCN(CC)c1nc2ncccc2nc1N1CCN(C)CC1

>  <score_type>  (15) 
oracle

>  <origin>  (15) 
adg

>  <m_score__min__energy>  (15) 
-5.3799999999999999

>  <m_primary>  (15) 
energy

$$$$
15:0
     RDKit          3D

 43 43  0  0  0  0  0  0  0  0999 V2000
   57.1145   29.0805   42.4636 H   0  0  0  0  0  0  0  0  0  0  0  0
   57.2740   29.0150   43.5500 C   0  0  0  0  0  0  0  0  0  0  0  0
   56.3380   29.7120   44.4500 C   0  0  0  0  0  0  0  0  0  0  0  0
   55.1440   29.3160   44.5160 O   0  0  0  0  0  0  0  0  0  0  0  0
   56.7720   30.8230   45.2450 N   0  0  0  0  0  0  0  0  0  0  0  0
   57.7830   31.7800   44.8110 C   0  0  0  0  0  0  0  0  0  0  0  0
   57.8848   31.7279   43.7170 H   0  0  0  0  0  0  0  0  0  0  0  0
   58.7397   31.5302   45.2930 H   0  0  0  0  0  0  0  0  0  0  0  0
   57.3820   33.2030   45.2130 C   0  0  0  0  0  0  0  0  0  0  0  0
   56.2853   33.2710   45.2641 H   0  0  0  0  0  0  0  0  0  0  0  0
   57.7668   33.9103   44.4636 H   0  0  0  0  0  0  0  0  0  0  0  0
   57.9560   33.5400   46.5370 N   0  0  0  0  0  0  0  0  0  0  0  0
   59.0150   34.5690   46.4130 C   0  0  0  0  0  0  0  0  0  0  0  0
   59.9434   34.1910   46.8659 H   0  0  0  0  0  0  0  0  0  0  0  0
   58.6890   35.4831   46.9308 H   0  0  0  0  0  0  0  0  0  0  0  0
   59.2670   34.8930   44.9430 C   0  0  0  0  0  0  0  0  0  0  0  0
   59.9408   35.7593   44.8688 H   0  0  0  0  0  0  0  0  0  0  0  0
   59.7299   34.0252   44.4504 H   0  0  0  0  0  0  0  0  0  0  0  0
   58.3120   35.1280   44.4504 H   0  0  0  0  0  0  0  0  0  0  0  0
   58.4650   32.3300   47.2230 C   0  0  0  0  0  0  0  0  0  0  0  0
   57.6604   31.5825   47.2857 H   0  0  0  0  0  0  0  0  0  0  0  0
   59.3123   31.9234   46.6513 H   0  0  0  0  0  0  0  0  0  0  0  0
   58.9380   32.6810   48.6320 C   0  0  0  0  0  0  0  0  0  0  0  0
   58.2832   32.1951   49.3703 H   0  0  0  0  0  0  0  0  0  0  0  0
   59.9710   32.3291   48.7703 H   0  0  0  0  0  0  0  0  0  0  0  0
   58.9005   33.7716   48.7703 H   0  0  0  0  0  0  0  0  0  0  0  0
   58.3130   28.3040   44.0100 C   0  0  0  0  0  0  0  0  0  0  0  0
   59.2811   28.4115   43.4990 H   0  0  0  0  0  0  0  0  0  0  0  0
   58.2330   27.3800   45.1690 C   0  0  0  0  0  0  0  0  0  0  0  0
   59.3210   27.1560   46.0360 C   0  0  0  0  0  0  0  0  0  0  0  0
   60.2773   27.6696   45.8582 H   0  0  0  0  0  0  0  0  0  0  0  0
   59.1910   26.2850   47.1200 C   0  0  0  0  0  0  0  0  0  0  0  0
   60.0471   26.1111   47.7884 H   0  0  0  0  0  0  0  0  0  0  0  0
   57.9790   25.6340   47.3590 C   0  0  0  0  0  0  0  0  0  0  0  0
   57.8857   24.9440   48.2106 H   0  0  0  0  0  0  0  0  0  0  0  0
   56.8770   25.8580   46.5140 C   0  0  0  0  0  0  0  0  0  0  0  0
   55.6360   25.2350   46.7160 O   0  0  0  0  0  0  0  0  0  0  0  0
   55.1310   24.1720   45.9150 C   0  0  0  0  0  0  0  0  0  0  0  0
   54.7505   23.3711   46.5660 H   0  0  0  0  0  0  0  0  0  0  0  0
   54.3149   24.5471   45.2800 H   0  0  0  0  0  0  0  0  0  0  0  0
   55.9374   23.7763   45.2800 H   0  0  0  0  0  0  0  0  0  0  0  0
   57.0130   26.7330   45.4290 C   0  0  0  0  0  0  0  0  0  0  0  0
   56.1515   26.9166   44.7701 H   0  0  0  0  0  0  0  0  0  0  0  0
  1  2  1  0
  2  3  1  0
  3  4  2  0
  3  5  1  0
  5  6  1  0
  6  7  1  0
  6  8  1  0
  6  9  1  0
  9 10  1  0
  9 11  1  0
  9 12  1  0
 12 13  1  0
 13 14  1  0
 13 15  1  0
 13 16  1  0
 16 17  1  0
 16 18  1  0
 16 19  1  0
 12 20  1  0
 20 21  1  0
 20 22  1  0
 20 23  1  0
 23 24  1  0
 23 25  1  0
 23 26  1  0
  2 27  2  0
 27 28  1  0
 27 29  1  0
 29 30  2  0
 30 31  1  0
 30 32  1  0
 32 33  1  0
 32 34  2  0
 34 35  1  0
 34 36  1  0
 36 37  1  0
 37 38  1  0
 38 39  1  0
 38 40  1  0
 38 41  1  0
 36 42  2  0
 42 43  1  0
 42 29  1  0
M  CHG  1   5  -1
M  END
>  <UniqueID>  (16) 
14

>  <SMILES>  (16) 
CCN(CC)CC[N-]C(=O)/C=C/c1cccc(OC)c1

>  <Energy>  (16) 
36.408444683013116

>  <Genealogy>  (16) 
CCN(CC)CC[N-]C(=O)C=Cc1cccc(OC)c1 (protonated)
CCN(CC)CC[N-]C(=O)/C=C/c1cccc(OC)c1 (cis-trans isomerization)
CCN(CC)CC[N-]C(=O)/C=C/c1cccc(OC)c1 (3D coordinates assigned)
CCN(CC)CC[N-]C(=O)/C=C/c1cccc(OC)c1 (optimized conformer: 36.408444683013116 kcal/mol)

>  <smiles>  (16) 
CCN(CC)CCNC(=O)C=Cc1cccc(OC)c1

>  <score_type>  (16) 
oracle

>  <origin>  (16) 
adg

>  <m_score__min__energy>  (16) 
-8.1199999999999992

>  <m_primary>  (16) 
energy

$$$$
16:0
     RDKit          3D

 35 36  0  0  0  0  0  0  0  0999 V2000
   57.2678   22.8978   46.3665 H   0  0  0  0  0  0  0  0  0  0  0  0
   57.2430   23.9780   46.1600 C   0  0  0  0  0  0  0  0  0  0  0  0
   58.4190   24.6530   45.8320 C   0  0  0  0  0  0  0  0  0  0  0  0
   59.3708   24.1039   45.7811 H   0  0  0  0  0  0  0  0  0  0  0  0
   58.3910   26.0250   45.5680 C   0  0  0  0  0  0  0  0  0  0  0  0
   59.3230   26.5501   45.3119 H   0  0  0  0  0  0  0  0  0  0  0  0
   57.1800   26.7410   45.6270 C   0  0  0  0  0  0  0  0  0  0  0  0
   57.1600   28.2020   45.3630 C   0  0  0  0  0  0  0  0  0  0  0  0
   56.0230   28.7940   44.9090 N   0  0  0  0  0  0  0  0  0  0  0  0
   55.9580   30.1040   44.6650 N   0  0  0  0  0  0  0  0  0  0  0  0
   57.0230   30.9260   44.8560 C   0  0  0  0  0  0  0  0  0  0  0  0
   56.8840   32.1950   44.5980 N   0  0  0  0  0  0  0  0  0  0  0  0
   57.9430   33.1890   44.4040 C   0  0  0  0  0  0  0  0  0  0  0  0
   58.0086   33.4396   43.3349 H   0  0  0  0  0  0  0  0  0  0  0  0
   58.8918   32.7618   44.7607 H   0  0  0  0  0  0  0  0  0  0  0  0
   57.6550   34.4690   45.2020 C   0  0  0  0  0  0  0  0  0  0  0  0
   56.5981   34.4714   45.5069 H   0  0  0  0  0  0  0  0  0  0  0  0
   57.8762   35.3356   44.5616 H   0  0  0  0  0  0  0  0  0  0  0  0
   58.5060   34.5500   46.4100 N   0  0  0  0  0  0  0  0  0  0  0  0
   59.9340   34.6140   46.0490 C   0  0  0  0  0  0  0  0  0  0  0  0
   60.5428   34.6413   46.9647 H   0  0  0  0  0  0  0  0  0  0  0  0
   60.2025   33.7270   45.4565 H   0  0  0  0  0  0  0  0  0  0  0  0
   60.1221   35.5215   45.4565 H   0  0  0  0  0  0  0  0  0  0  0  0
   58.2720   33.3850   47.2780 C   0  0  0  0  0  0  0  0  0  0  0  0
   58.3342   33.6945   48.3317 H   0  0  0  0  0  0  0  0  0  0  0  0
   57.2729   32.9717   47.0756 H   0  0  0  0  0  0  0  0  0  0  0  0
   59.0340   32.6180   47.0756 H   0  0  0  0  0  0  0  0  0  0  0  0
   58.2280   30.3680   45.3150 C   0  0  0  0  0  0  0  0  0  0  0  0
   59.1109   31.0052   45.4715 H   0  0  0  0  0  0  0  0  0  0  0  0
   58.2940   29.0000   45.5700 C   0  0  0  0  0  0  0  0  0  0  0  0
   59.2298   28.5488   45.9314 H   0  0  0  0  0  0  0  0  0  0  0  0
   55.9950   26.0480   45.9620 C   0  0  0  0  0  0  0  0  0  0  0  0
   54.7730   26.7080   46.0180 O   0  0  0  0  0  0  0  0  0  0  0  0
   56.0350   24.6740   46.2260 C   0  0  0  0  0  0  0  0  0  0  0  0
   55.1094   24.1399   46.4869 H   0  0  0  0  0  0  0  0  0  0  0  0
  1  2  1  0
  2  3  2  0
  3  4  1  0
  3  5  1  0
  5  6  1  0
  5  7  2  0
  7  8  1  0
  8  9  2  0
  9 10  1  0
 10 11  1  0
 11 12  2  0
 12 13  1  0
 13 14  1  0
 13 15  1  0
 13 16  1  0
 16 17  1  0
 16 18  1  0
 16 19  1  0
 19 20  1  0
 20 21  1  0
 20 22  1  0
 20 23  1  0
 19 24  1  0
 24 25  1  0
 24 26  1  0
 24 27  1  0
 11 28  1  0
 28 29  1  0
 28 30  2  0
 30 31  1  0
  7 32  1  0
 32 33  1  0
 32 34  2  0
 34 35  1  0
 34  2  1  0
 30  8  1  0
M  CHG  2  10  -1  33  -1
M  END
>  <UniqueID>  (17) 
15

>  <SMILES>  (17) 
CN(C)CC/N=c1\ccc(-c2ccccc2[O-])n[n-]1

>  <Energy>  (17) 
43.01783134726052

>  <Genealogy>  (17) 
CN(C)CCN=c1ccc(-c2ccccc2[O-])n[n-]1 (protonated)
CN(C)CC/N=c1\ccc(-c2ccccc2[O-])n[n-]1 (cis-trans isomerization)
CN(C)CC/N=c1\ccc(-c2ccccc2[O-])n[n-]1 (3D coordinates assigned)
CN(C)CC/N=c1\ccc(-c2ccccc2[O-])n[n-]1 (optimized conformer: 43.01783134726052 kcal/mol)

>  <smiles>  (17) 
CN(C)CCN=c1ccc(-c2ccccc2O)n[nH]1

>  <score_type>  (17) 
oracle

>  <origin>  (17) 
adg

>  <m_score__min__energy>  (17) 
-12.84

>  <m_primary>  (17) 
energy

$$$$
17:0
     RDKit          3D

 41 44  0  0  0  0  0  0  0  0999 V2000
   58.8020   33.9420   44.7720 C   0  0  0  0  0  0  0  0  0  0  0  0
   58.1390   32.7700   44.1140 C   0  0  0  0  0  0  0  0  0  0  0  0
   58.0250   32.7130   42.7180 C   0  0  0  0  0  0  0  0  0  0  0  0
   57.4440   31.6010   42.1050 C   0  0  0  0  0  0  0  0  0  0  0  0
   56.9780   30.5350   42.8790 C   0  0  0  0  0  0  0  0  0  0  0  0
   57.0860   30.5730   44.2800 C   0  0  0  0  0  0  0  0  0  0  0  0
   56.5930   29.4370   45.0940 C   0  0  0  0  0  0  0  0  0  0  0  0
   55.4470   28.9660   44.8660 O   0  0  0  0  0  0  0  0  0  0  0  0
   57.4010   28.8160   46.1030 N   0  0  0  0  0  0  0  0  0  0  0  0
   58.5890   29.3650   46.6940 C   0  0  0  0  0  0  0  0  0  0  0  0
   58.5420   29.8080   48.0190 C   0  0  0  0  0  0  0  0  0  0  0  0
   59.6790   30.3530   48.6230 C   0  0  0  0  0  0  0  0  0  0  0  0
   60.8830   30.4730   47.9070 C   0  0  0  0  0  0  0  0  0  0  0  0
   62.0880   31.0470   48.5550 C   0  0  0  0  0  0  0  0  0  0  0  0
   62.5100   30.7290   49.8090 N   0  0  0  0  0  0  0  0  0  0  0  0
   63.6390   31.4040   50.1530 C   0  0  0  0  0  0  0  0  0  0  0  0
   64.2970   31.2830   51.3800 C   0  0  0  0  0  0  0  0  0  0  0  0
   65.4550   32.0480   51.6020 C   0  0  0  0  0  0  0  0  0  0  0  0
   65.9390   32.9180   50.6050 C   0  0  0  0  0  0  0  0  0  0  0  0
   65.2670   33.0340   49.3770 C   0  0  0  0  0  0  0  0  0  0  0  0
   64.1230   32.2650   49.1830 C   0  0  0  0  0  0  0  0  0  0  0  0
   63.1180   32.1950   47.8420 S   0  0  0  0  0  0  0  0  0  0  0  0
   60.9160   30.0540   46.5640 C   0  0  0  0  0  0  0  0  0  0  0  0
   59.7780   29.5120   45.9610 C   0  0  0  0  0  0  0  0  0  0  0  0
   57.6900   31.6890   44.8880 C   0  0  0  0  0  0  0  0  0  0  0  0
   58.7400   33.8324   45.8648 H   0  0  0  0  0  0  0  0  0  0  0  0
   59.8580   33.9847   44.4671 H   0  0  0  0  0  0  0  0  0  0  0  0
   58.2946   34.8691   44.4671 H   0  0  0  0  0  0  0  0  0  0  0  0
   58.3945   33.5471   42.1034 H   0  0  0  0  0  0  0  0  0  0  0  0
   57.3529   31.5641   41.0094 H   0  0  0  0  0  0  0  0  0  0  0  0
   56.5240   29.6610   42.3891 H   0  0  0  0  0  0  0  0  0  0  0  0
   57.6051   29.7273   48.5897 H   0  0  0  0  0  0  0  0  0  0  0  0
   59.6311   30.6912   49.6686 H   0  0  0  0  0  0  0  0  0  0  0  0
   62.0230   30.0670   50.4520 H   0  0  0  0  0  0  0  0  0  0  0  0
   63.9164   30.6029   52.1562 H   0  0  0  0  0  0  0  0  0  0  0  0
   65.9873   31.9669   52.5612 H   0  0  0  0  0  0  0  0  0  0  0  0
   66.8479   33.5095   50.7893 H   0  0  0  0  0  0  0  0  0  0  0  0
   65.6337   33.7121   48.5923 H   0  0  0  0  0  0  0  0  0  0  0  0
   61.8454   30.1540   45.9841 H   0  0  0  0  0  0  0  0  0  0  0  0
   59.8135   29.1989   44.9071 H   0  0  0  0  0  0  0  0  0  0  0  0
   57.8114   31.7143   45.9810 H   0  0  0  0  0  0  0  0  0  0  0  0
  1  2  1  0
  2  3  2  0
  3  4  1  0
  4  5  2  0
  5  6  1  0
  6  7  1  0
  7  8  2  0
  7  9  1  0
  9 10  1  0
 10 11  2  0
 11 12  1  0
 12 13  2  0
 13 14  1  0
 14 15  2  0
 15 16  1  0
 16 17  2  0
 17 18  1  0
 18 19  2  0
 19 20  1  0
 20 21  2  0
 21 22  1  0
 13 23  1  0
 23 24  2  0
  6 25  2  0
 25  2  1  0
 24 10  1  0
 22 14  1  0
 21 16  1  0
  1 26  1  0
  1 27  1  0
  1 28  1  0
  3 29  1  0
  4 30  1  0
  5 31  1  0
 11 32  1  0
 12 33  1  0
 15 34  1  0
 17 35  1  0
 18 36  1  0
 19 37  1  0
 20 38  1  0
 23 39  1  0
 24 40  1  0
 25 41  1  0
M  CHG  2   9  -1  15   1
M  END
>  <UniqueID>  (18) 
16

>  <SMILES>  (18) 
Cc1cccc(C(=O)[N-]c2ccc(-c3[nH+]c4ccccc4s3)cc2)c1

>  <Energy>  (18) 
88.25505753473412

>  <Genealogy>  (18) 
Cc1cccc(C(=O)[N-]c2ccc(-c3[nH+]c4ccccc4s3)cc2)c1 (protonated)
Cc1cccc(C(=O)[N-]c2ccc(-c3[nH+]c4ccccc4s3)cc2)c1 (3D coordinates assigned)
Cc1cccc(C(=O)[N-]c2ccc(-c3[nH+]c4ccccc4s3)cc2)c1 (optimized conformer: 88.25505753473412 kcal/mol)

>  <smiles>  (18) 
Cc1cccc(C(=O)Nc2ccc(-c3nc4ccccc4s3)cc2)c1

>  <score_type>  (18) 
oracle

>  <origin>  (18) 
adg

>  <m_score__min__energy>  (18) 
-8.6500000000000004

>  <m_primary>  (18) 
energy

$$$$
18:0
     RDKit          3D

 66 70  0  0  0  0  0  0  0  0999 V2000
   56.9730   27.0530   45.6120 C   0  0  0  0  0  0  0  0  0  0  0  0
   56.4100   28.3590   45.5280 O   0  0  0  0  0  0  0  0  0  0  0  0
   56.8630   29.3710   44.6680 C   0  0  0  0  0  0  0  0  0  0  0  0
   56.1820   29.6840   43.4740 C   0  0  0  0  0  0  0  0  0  0  0  0
   56.6240   30.7270   42.6590 C   0  0  0  0  0  0  0  0  0  0  0  0
   57.7460   31.4710   43.0210 C   0  0  0  0  0  0  0  0  0  0  0  0
   58.4390   31.1660   44.1950 C   0  0  0  0  0  0  0  0  0  0  0  0
   58.0130   30.1120   45.0230 C   0  0  0  0  0  0  0  0  0  0  0  0
   58.7390   29.8220   46.2360 N   0  0  0  0  0  0  0  0  0  0  0  0
   59.6700   28.6890   46.2810 C   0  0  0  0  0  0  0  0  0  0  0  0
   60.7130   28.9220   47.3780 C   0  0  0  0  0  0  0  0  0  0  0  0
   60.0860   29.0850   48.7180 N   0  0  0  0  0  0  0  0  0  0  0  0
   60.9920   29.7930   49.5990 C   0  0  0  0  0  0  0  0  0  0  0  0
   61.1830   29.3640   50.7700 O   0  0  0  0  0  0  0  0  0  0  0  0
   61.7680   30.9740   49.1550 C   0  0  0  0  0  0  0  0  0  0  0  0
   61.3940   31.8090   48.1050 C   0  0  0  0  0  0  0  0  0  0  0  0
   62.3260   32.7690   47.9070 N   0  0  0  0  0  0  0  0  0  0  0  0
   62.2600   33.8380   46.9100 C   0  0  0  0  0  0  0  0  0  0  0  0
   61.0250   33.6690   46.0240 C   0  0  0  0  0  0  0  0  0  0  0  0
   60.1480   34.8560   46.1520 N   0  0  0  0  0  0  0  0  0  0  0  0
   59.2070   34.9910   45.0160 C   0  0  0  0  0  0  0  0  0  0  0  0
   57.8580   34.2900   45.2800 C   0  0  0  0  0  0  0  0  0  0  0  0
   58.0080   33.2560   46.2290 O   0  0  0  0  0  0  0  0  0  0  0  0
   58.3180   33.8030   47.4970 C   0  0  0  0  0  0  0  0  0  0  0  0
   59.4240   34.8830   47.4390 C   0  0  0  0  0  0  0  0  0  0  0  0
   63.2950   32.5530   48.8210 C   0  0  0  0  0  0  0  0  0  0  0  0
   64.4840   33.2710   48.9890 C   0  0  0  0  0  0  0  0  0  0  0  0
   65.3810   32.8410   49.9800 C   0  0  0  0  0  0  0  0  0  0  0  0
   65.0860   31.7090   50.7670 C   0  0  0  0  0  0  0  0  0  0  0  0
   63.8890   30.9990   50.5740 C   0  0  0  0  0  0  0  0  0  0  0  0
   62.9950   31.4580   49.6010 C   0  0  0  0  0  0  0  0  0  0  0  0
   58.7550   29.7590   48.6950 C   0  0  0  0  0  0  0  0  0  0  0  0
   58.5360   30.6270   47.4480 C   0  0  0  0  0  0  0  0  0  0  0  0
   57.0937   26.7730   46.6689 H   0  0  0  0  0  0  0  0  0  0  0  0
   56.3052   26.3332   45.1160 H   0  0  0  0  0  0  0  0  0  0  0  0
   57.9548   27.0443   45.1160 H   0  0  0  0  0  0  0  0  0  0  0  0
   55.2955   29.1017   43.1825 H   0  0  0  0  0  0  0  0  0  0  0  0
   56.0859   30.9626   41.7290 H   0  0  0  0  0  0  0  0  0  0  0  0
   58.0860   32.2990   42.3816 H   0  0  0  0  0  0  0  0  0  0  0  0
   59.3251   31.7550   44.4741 H   0  0  0  0  0  0  0  0  0  0  0  0
   59.1123   27.7657   46.4967 H   0  0  0  0  0  0  0  0  0  0  0  0
   60.1774   28.5953   45.3095 H   0  0  0  0  0  0  0  0  0  0  0  0
   61.3957   28.0600   47.4078 H   0  0  0  0  0  0  0  0  0  0  0  0
   61.2540   29.8500   47.1409 H   0  0  0  0  0  0  0  0  0  0  0  0
   59.9180   28.1300   49.1080 H   0  0  0  0  0  0  0  0  0  0  0  0
   60.4695   31.7026   47.5185 H   0  0  0  0  0  0  0  0  0  0  0  0
   62.2067   34.8092   47.4237 H   0  0  0  0  0  0  0  0  0  0  0  0
   63.1596   33.7916   46.2787 H   0  0  0  0  0  0  0  0  0  0  0  0
   61.3400   33.5593   44.9758 H   0  0  0  0  0  0  0  0  0  0  0  0
   60.4712   32.7730   46.3408 H   0  0  0  0  0  0  0  0  0  0  0  0
   59.0201   36.0603   44.8379 H   0  0  0  0  0  0  0  0  0  0  0  0
   59.6682   34.5099   44.1408 H   0  0  0  0  0  0  0  0  0  0  0  0
   57.1367   35.0278   45.6614 H   0  0  0  0  0  0  0  0  0  0  0  0
   57.4968   33.8536   44.3371 H   0  0  0  0  0  0  0  0  0  0  0  0
   57.4071   34.2570   47.9144 H   0  0  0  0  0  0  0  0  0  0  0  0
   58.6944   32.9820   48.1248 H   0  0  0  0  0  0  0  0  0  0  0  0
   58.9623   35.8731   47.5674 H   0  0  0  0  0  0  0  0  0  0  0  0
   60.1463   34.6772   48.2427 H   0  0  0  0  0  0  0  0  0  0  0  0
   64.7096   34.1469   48.3629 H   0  0  0  0  0  0  0  0  0  0  0  0
   66.3197   33.3907   50.1433 H   0  0  0  0  0  0  0  0  0  0  0  0
   65.7982   31.3793   51.5378 H   0  0  0  0  0  0  0  0  0  0  0  0
   63.6607   30.1050   51.1728 H   0  0  0  0  0  0  0  0  0  0  0  0
   57.9720   28.9870   48.7250 H   0  0  0  0  0  0  0  0  0  0  0  0
   58.7124   30.4264   49.5684 H   0  0  0  0  0  0  0  0  0  0  0  0
   57.5098   31.0231   47.4550 H   0  0  0  0  0  0  0  0  0  0  0  0
   59.2559   31.4587   47.4549 H   0  0  0  0  0  0  0  0  0  0  0  0
  1  2  1  0
  2  3  1  0
  3  4  2  0
  4  5  1  0
  5  6  2  0
  6  7  1  0
  7  8  2  0
  8  9  1  0
  9 10  1  0
 10 11  1  0
 11 12  1  0
 12 13  1  0
 13 14  2  0
 13 15  1  0
 15 16  2  0
 16 17  1  0
 17 18  1  0
 18 19  1  0
 19 20  1  0
 20 21  1  0
 21 22  1  0
 22 23  1  0
 23 24  1  0
 24 25  1  0
 17 26  1  0
 26 27  2  0
 27 28  1  0
 28 29  2  0
 29 30  1  0
 30 31  2  0
 12 32  1  0
 32 33  1  0
  8  3  1  0
 33  9  1  0
 31 15  1  0
 25 20  1  0
 31 26  1  0
  1 34  1  0
  1 35  1  0
  1 36  1  0
  4 37  1  0
  5 38  1  0
  6 39  1  0
  7 40  1  0
 10 41  1  0
 10 42  1  0
 11 43  1  0
 11 44  1  0
 12 45  1  0
 16 46  1  0
 18 47  1  0
 18 48  1  0
 19 49  1  0
 19 50  1  0
 21 51  1  0
 21 52  1  0
 22 53  1  0
 22 54  1  0
 24 55  1  0
 24 56  1  0
 25 57  1  0
 25 58  1  0
 27 59  1  0
 28 60  1  0
 29 61  1  0
 30 62  1  0
 32 63  1  0
 32 64  1  0
 33 65  1  0
 33 66  1  0
M  CHG  1  12   1
M  END
>  <UniqueID>  (19) 
17

>  <SMILES>  (19) 
COc1ccccc1N1CC[NH+](C(=O)c2cn(CCN3CCOCC3)c3ccccc23)CC1

>  <Energy>  (19) 
130.45127533174227

>  <Genealogy>  (19) 
COc1ccccc1N1CC[NH+](C(=O)c2cn(CCN3CCOCC3)c3ccccc23)CC1 (protonated)
COc1ccccc1N1CC[NH+](C(=O)c2cn(CCN3CCOCC3)c3ccccc23)CC1 (3D coordinates assigned)
COc1ccccc1N1CC[NH+](C(=O)c2cn(CCN3CCOCC3)c3ccccc23)CC1 (nonaromatic ring conformer: 130.45127533174227 kcal/mol)

>  <smiles>  (19) 
COc1ccccc1N1CCN(C(=O)c2cn(CCN3CCOCC3)c3ccccc23)CC1

>  <score_type>  (19) 
oracle

>  <origin>  (19) 
adg

>  <m_score__min__energy>  (19) 
-7.71

>  <m_primary>  (19) 
energy

$$$$
19:0
     RDKit          3D

 49 52  0  0  0  0  0  0  0  0999 V2000
   60.0170   35.4590   45.4300 O   0  0  0  0  0  0  0  0  0  0  0  0
   59.6880   34.7120   46.3920 C   0  0  0  0  0  0  0  0  0  0  0  0
   58.2250   34.5620   46.7440 C   0  0  0  0  0  0  0  0  0  0  0  0
   57.8560   33.1740   47.2540 C   0  0  0  0  0  0  0  0  0  0  0  0
   57.0000   32.8820   46.0970 N   0  0  0  0  0  0  0  0  0  0  0  0
   57.7080   31.6300   45.1020 S   0  0  0  0  0  0  0  0  0  0  0  0
   58.5230   32.2270   43.9860 O   0  0  0  0  0  0  0  0  0  0  0  0
   56.6150   30.7930   44.5000 O   0  0  0  0  0  0  0  0  0  0  0  0
   58.7320   30.6070   46.1050 C   0  0  0  0  0  0  0  0  0  0  0  0
   60.0440   31.0050   46.3970 C   0  0  0  0  0  0  0  0  0  0  0  0
   60.8690   30.1870   47.1770 C   0  0  0  0  0  0  0  0  0  0  0  0
   60.3880   28.9690   47.6630 C   0  0  0  0  0  0  0  0  0  0  0  0
   59.0820   28.5640   47.3700 C   0  0  0  0  0  0  0  0  0  0  0  0
   58.2550   29.3810   46.5910 C   0  0  0  0  0  0  0  0  0  0  0  0
   57.3160   34.2150   45.5690 C   0  0  0  0  0  0  0  0  0  0  0  0
   60.7180   34.0710   47.1710 N   0  0  0  0  0  0  0  0  0  0  0  0
   60.4980   33.7130   48.5790 C   0  0  0  0  0  0  0  0  0  0  0  0
   61.7650   33.9800   49.3920 C   0  0  0  0  0  0  0  0  0  0  0  0
   62.9310   33.3940   48.7170 N   0  0  0  0  0  0  0  0  0  0  0  0
   64.0050   32.8210   49.4850 C   0  0  0  0  0  0  0  0  0  0  0  0
   63.8010   31.6680   50.2610 C   0  0  0  0  0  0  0  0  0  0  0  0
   64.8670   31.1290   50.9850 C   0  0  0  0  0  0  0  0  0  0  0  0
   66.1230   31.7340   50.9270 C   0  0  0  0  0  0  0  0  0  0  0  0
   66.2960   32.8700   50.1360 C   0  0  0  0  0  0  0  0  0  0  0  0
   65.2470   33.3810   49.4380 N   0  0  0  0  0  0  0  0  0  0  0  0
   63.1560   33.7650   47.3160 C   0  0  0  0  0  0  0  0  0  0  0  0
   61.8920   33.5060   46.4950 C   0  0  0  0  0  0  0  0  0  0  0  0
   58.1103   35.4821   47.3359 H   0  0  0  0  0  0  0  0  0  0  0  0
   58.7191   32.4974   47.3392 H   0  0  0  0  0  0  0  0  0  0  0  0
   57.4275   33.0805   48.2628 H   0  0  0  0  0  0  0  0  0  0  0  0
   60.4258   31.9622   46.0122 H   0  0  0  0  0  0  0  0  0  0  0  0
   61.8970   30.5034   47.4076 H   0  0  0  0  0  0  0  0  0  0  0  0
   61.0373   28.3276   48.2770 H   0  0  0  0  0  0  0  0  0  0  0  0
   58.7050   27.6037   47.7517 H   0  0  0  0  0  0  0  0  0  0  0  0
   57.2284   29.0609   46.3593 H   0  0  0  0  0  0  0  0  0  0  0  0
   57.8426   34.1879   44.6036 H   0  0  0  0  0  0  0  0  0  0  0  0
   56.4867   34.8954   45.3256 H   0  0  0  0  0  0  0  0  0  0  0  0
   59.6721   34.3166   48.9833 H   0  0  0  0  0  0  0  0  0  0  0  0
   60.2464   32.6441   48.6441 H   0  0  0  0  0  0  0  0  0  0  0  0
   61.9106   35.0657   49.4928 H   0  0  0  0  0  0  0  0  0  0  0  0
   61.6575   33.5228   50.3867 H   0  0  0  0  0  0  0  0  0  0  0  0
   62.8094   31.1932   50.2982 H   0  0  0  0  0  0  0  0  0  0  0  0
   64.7166   30.2293   51.5997 H   0  0  0  0  0  0  0  0  0  0  0  0
   66.9669   31.3200   51.4983 H   0  0  0  0  0  0  0  0  0  0  0  0
   67.2825   33.3530   50.0769 H   0  0  0  0  0  0  0  0  0  0  0  0
   63.4144   34.8327   47.2592 H   0  0  0  0  0  0  0  0  0  0  0  0
   63.9795   33.1589   46.9105 H   0  0  0  0  0  0  0  0  0  0  0  0
   62.0004   33.9738   45.5054 H   0  0  0  0  0  0  0  0  0  0  0  0
   61.7532   32.4202   46.3867 H   0  0  0  0  0  0  0  0  0  0  0  0
  1  2  2  0
  2  3  1  0
  3  4  1  0
  4  5  1  0
  5  6  1  0
  6  7  2  0
  6  8  2  0
  6  9  1  0
  9 10  2  0
 10 11  1  0
 11 12  2  0
 12 13  1  0
 13 14  2  0
  5 15  1  0
  2 16  1  0
 16 17  1  0
 17 18  1  0
 18 19  1  0
 19 20  1  0
 20 21  2  0
 21 22  1  0
 22 23  2  0
 23 24  1  0
 24 25  2  0
 19 26  1  0
 26 27  1  0
 15  3  1  0
 27 16  1  0
 14  9  1  0
 25 20  1  0
  3 28  1  0
  4 29  1  0
  4 30  1  0
 10 31  1  0
 11 32  1  0
 12 33  1  0
 13 34  1  0
 14 35  1  0
 15 36  1  0
 15 37  1  0
 17 38  1  0
 17 39  1  0
 18 40  1  0
 18 41  1  0
 21 42  1  0
 22 43  1  0
 23 44  1  0
 24 45  1  0
 26 46  1  0
 26 47  1  0
 27 48  1  0
 27 49  1  0
M  END
>  <UniqueID>  (20) 
18

>  <SMILES>  (20) 
O=C(C1CN(S(=O)(=O)c2ccccc2)C1)N1CCN(c2ccccn2)CC1

>  <Energy>  (20) 
124.5613101819079

>  <Genealogy>  (20) 
O=C(C1CN(S(=O)(=O)c2ccccc2)C1)N1CCN(c2ccccn2)CC1 (3D coordinates assigned)
O=C(C1CN(S(=O)(=O)c2ccccc2)C1)N1CCN(c2ccccn2)CC1 (nonaromatic ring conformer: 124.5613101819079 kcal/mol)

>  <smiles>  (20) 
O=C(C1CN(S(=O)(=O)c2ccccc2)C1)N1CCN(c2ccccn2)CC1

>  <score_type>  (20) 
oracle

>  <origin>  (20) 
adg

>  <m_score__min__energy>  (20) 
-8.4199999999999999

>  <m_primary>  (20) 
energy

$$$$
20:0
     RDKit          3D

 45 47  0  0  0  0  0  0  0  0999 V2000
   56.6570   22.1160   43.1880 C   0  0  0  0  0  0  0  0  0  0  0  0
   55.4960   22.7030   43.7310 O   0  0  0  0  0  0  0  0  0  0  0  0
   55.8410   23.9170   44.3670 C   0  0  0  0  0  0  0  0  0  0  0  0
   54.7060   24.3450   45.2890 C   0  0  0  0  0  0  0  0  0  0  0  0
   55.1460   25.4440   46.1420 N   0  0  0  0  0  0  0  0  0  0  0  0
   56.4790   25.6040   46.6440 C   0  0  0  0  0  0  0  0  0  0  0  0
   56.8480   24.9000   47.6200 O   0  0  0  0  0  0  0  0  0  0  0  0
   57.4170   26.5930   46.0760 C   0  0  0  0  0  0  0  0  0  0  0  0
   58.7800   26.5600   46.4080 C   0  0  0  0  0  0  0  0  0  0  0  0
   59.6550   27.5150   45.8850 C   0  0  0  0  0  0  0  0  0  0  0  0
   59.1780   28.5120   45.0320 C   0  0  0  0  0  0  0  0  0  0  0  0
   57.8160   28.5580   44.6920 C   0  0  0  0  0  0  0  0  0  0  0  0
   57.2950   29.6550   43.8110 C   0  0  0  0  0  0  0  0  0  0  0  0
   56.7360   30.6840   44.6220 O   0  0  0  0  0  0  0  0  0  0  0  0
   57.4420   31.8070   45.0760 C   0  0  0  0  0  0  0  0  0  0  0  0
   57.8260   31.9590   46.4300 C   0  0  0  0  0  0  0  0  0  0  0  0
   58.5310   33.1050   46.8070 C   0  0  0  0  0  0  0  0  0  0  0  0
   58.8460   34.0700   45.8870 C   0  0  0  0  0  0  0  0  0  0  0  0
   58.4840   33.9540   44.5470 C   0  0  0  0  0  0  0  0  0  0  0  0
   57.7760   32.8120   44.1430 C   0  0  0  0  0  0  0  0  0  0  0  0
   57.4130   32.6760   42.8440 F   0  0  0  0  0  0  0  0  0  0  0  0
   59.5700   35.1260   46.5490 C   0  0  0  0  0  0  0  0  0  0  0  0
   60.0060   36.1640   45.9840 O   0  0  0  0  0  0  0  0  0  0  0  0
   59.7290   34.8170   48.0010 C   0  0  0  0  0  0  0  0  0  0  0  0
   59.0270   33.4490   48.1760 C   0  0  0  0  0  0  0  0  0  0  0  0
   56.9360   27.6100   45.2370 C   0  0  0  0  0  0  0  0  0  0  0  0
   57.3155   21.7831   44.0038 H   0  0  0  0  0  0  0  0  0  0  0  0
   56.3755   21.2519   42.5682 H   0  0  0  0  0  0  0  0  0  0  0  0
   57.1860   22.8550   42.5682 H   0  0  0  0  0  0  0  0  0  0  0  0
   56.7589   23.7748   44.9563 H   0  0  0  0  0  0  0  0  0  0  0  0
   56.0109   24.6945   43.6077 H   0  0  0  0  0  0  0  0  0  0  0  0
   53.8487   24.6741   44.6834 H   0  0  0  0  0  0  0  0  0  0  0  0
   54.4111   23.4932   45.9195 H   0  0  0  0  0  0  0  0  0  0  0  0
   59.1608   25.7791   47.0827 H   0  0  0  0  0  0  0  0  0  0  0  0
   60.7231   27.4814   46.1460 H   0  0  0  0  0  0  0  0  0  0  0  0
   59.8707   29.2635   44.6251 H   0  0  0  0  0  0  0  0  0  0  0  0
   58.1195   30.0672   43.2107 H   0  0  0  0  0  0  0  0  0  0  0  0
   56.5214   29.2531   43.1401 H   0  0  0  0  0  0  0  0  0  0  0  0
   57.5737   31.1880   47.1728 H   0  0  0  0  0  0  0  0  0  0  0  0
   58.7469   34.7390   43.8227 H   0  0  0  0  0  0  0  0  0  0  0  0
   60.7931   34.7470   48.2709 H   0  0  0  0  0  0  0  0  0  0  0  0
   59.3002   35.5968   48.6476 H   0  0  0  0  0  0  0  0  0  0  0  0
   59.7381   32.6900   48.5341 H   0  0  0  0  0  0  0  0  0  0  0  0
   58.2156   33.4869   48.9177 H   0  0  0  0  0  0  0  0  0  0  0  0
   55.8621   27.6646   45.0049 H   0  0  0  0  0  0  0  0  0  0  0  0
  1  2  1  0
  2  3  1  0
  3  4  1  0
  4  5  1  0
  5  6  1  0
  6  7  2  0
  6  8  1  0
  8  9  2  0
  9 10  1  0
 10 11  2  0
 11 12  1  0
 12 13  1  0
 13 14  1  0
 14 15  1  0
 15 16  2  0
 16 17  1  0
 17 18  2  0
 18 19  1  0
 19 20  2  0
 20 21  1  0
 18 22  1  0
 22 23  2  0
 22 24  1  0
 24 25  1  0
 12 26  2  0
 26  8  1  0
 20 15  1  0
 25 17  1  0
  1 27  1  0
  1 28  1  0
  1 29  1  0
  3 30  1  0
  3 31  1  0
  4 32  1  0
  4 33  1  0
  9 34  1  0
 10 35  1  0
 11 36  1  0
 13 37  1  0
 13 38  1  0
 16 39  1  0
 19 40  1  0
 24 41  1  0
 24 42  1  0
 25 43  1  0
 25 44  1  0
 26 45  1  0
M  CHG  1   5  -1
M  END
>  <UniqueID>  (21) 
19

>  <SMILES>  (21) 
COCC[N-]C(=O)c1cccc(COc2cc3c(cc2F)C(=O)CC3)c1

>  <Energy>  (21) 
61.008952232032705

>  <Genealogy>  (21) 
COCC[N-]C(=O)c1cccc(COc2cc3c(cc2F)C(=O)CC3)c1 (protonated)
COCC[N-]C(=O)c1cccc(COc2cc3c(cc2F)C(=O)CC3)c1 (3D coordinates assigned)
COCC[N-]C(=O)c1cccc(COc2cc3c(cc2F)C(=O)CC3)c1 (nonaromatic ring conformer: 61.008952232032705 kcal/mol)

>  <smiles>  (21) 
COCCNC(=O)c1cccc(COc2cc3c(cc2F)C(=O)CC3)c1

>  <score_type>  (21) 
oracle

>  <origin>  (21) 
adg

>  <m_score__min__energy>  (21) 
-10.41

>  <m_primary>  (21) 
energy

$$$$
21:0
     RDKit          3D

 62 65  0  0  0  0  0  0  0  0999 V2000
   63.4020   34.1140   46.3180 C   0  0  0  0  0  0  0  0  0  0  0  0
   62.7560   33.7860   47.6310 C   0  0  0  0  0  0  0  0  0  0  0  0
   63.4610   33.9660   48.8300 C   0  0  0  0  0  0  0  0  0  0  0  0
   62.8460   33.6960   50.0570 C   0  0  0  0  0  0  0  0  0  0  0  0
   61.5130   33.2570   50.1010 C   0  0  0  0  0  0  0  0  0  0  0  0
   60.8380   32.9760   51.4250 C   0  0  0  0  0  0  0  0  0  0  0  0
   61.1400   31.6120   51.9350 N   0  0  2  0  0  0  0  0  0  0  0  0
   62.3070   31.0370   51.2140 C   0  0  0  0  0  0  0  0  0  0  0  0
   61.9740   29.8620   50.2530 C   0  0  0  0  0  0  0  0  0  0  0  0
   61.0780   30.2160   49.0510 C   0  0  0  0  0  0  0  0  0  0  0  0
   59.6190   30.1890   49.3260 N   0  0  0  0  0  0  0  0  0  0  0  0
   59.0660   28.8180   49.2760 C   0  0  0  0  0  0  0  0  0  0  0  0
   59.2050   28.2380   47.8930 C   0  0  0  0  0  0  0  0  0  0  0  0
   60.2030   27.2950   47.6050 C   0  0  0  0  0  0  0  0  0  0  0  0
   60.2950   26.7400   46.3250 C   0  0  0  0  0  0  0  0  0  0  0  0
   59.3770   27.1010   45.3340 C   0  0  0  0  0  0  0  0  0  0  0  0
   58.3590   28.0210   45.6180 C   0  0  0  0  0  0  0  0  0  0  0  0
   57.3990   28.3370   44.6000 N   0  0  0  0  0  0  0  0  0  0  0  0
   56.6800   29.5750   44.4860 C   0  0  0  0  0  0  0  0  0  0  0  0
   55.4450   29.5380   44.2430 O   0  0  0  0  0  0  0  0  0  0  0  0
   57.3440   30.8860   44.6760 C   0  0  0  0  0  0  0  0  0  0  0  0
   57.8460   31.2620   45.9360 C   0  0  0  0  0  0  0  0  0  0  0  0
   58.5130   32.4780   46.0960 C   0  0  0  0  0  0  0  0  0  0  0  0
   58.6840   33.3340   45.0040 C   0  0  0  0  0  0  0  0  0  0  0  0
   59.6190   34.9840   45.2220 Br  0  0  0  0  0  0  0  0  0  0  0  0
   58.1690   32.9790   43.7530 C   0  0  0  0  0  0  0  0  0  0  0  0
   57.4950   31.7640   43.5900 C   0  0  0  0  0  0  0  0  0  0  0  0
   58.3060   28.6190   46.8870 C   0  0  0  0  0  0  0  0  0  0  0  0
   59.1350   30.9840   50.4810 C   0  0  0  0  0  0  0  0  0  0  0  0
   59.9220   30.7760   51.7920 C   0  0  0  0  0  0  0  0  0  0  0  0
   60.8050   33.0920   48.9000 C   0  0  0  0  0  0  0  0  0  0  0  0
   61.4200   33.3610   47.6740 C   0  0  0  0  0  0  0  0  0  0  0  0
   64.3696   34.6053   46.4980 H   0  0  0  0  0  0  0  0  0  0  0  0
   63.5617   33.1878   45.7464 H   0  0  0  0  0  0  0  0  0  0  0  0
   62.7485   34.7895   45.7464 H   0  0  0  0  0  0  0  0  0  0  0  0
   64.5019   34.3210   48.8054 H   0  0  0  0  0  0  0  0  0  0  0  0
   63.4096   33.8283   50.9923 H   0  0  0  0  0  0  0  0  0  0  0  0
   61.1854   33.7143   52.1627 H   0  0  0  0  0  0  0  0  0  0  0  0
   59.7512   33.0438   51.2694 H   0  0  0  0  0  0  0  0  0  0  0  0
   61.3510   31.7140   52.9530 H   0  0  0  0  0  0  0  0  0  0  0  0
   62.7716   31.8398   50.6227 H   0  0  0  0  0  0  0  0  0  0  0  0
   62.9708   30.6222   51.9869 H   0  0  0  0  0  0  0  0  0  0  0  0
   62.9228   29.4656   49.8622 H   0  0  0  0  0  0  0  0  0  0  0  0
   61.4011   29.1382   50.8513 H   0  0  0  0  0  0  0  0  0  0  0  0
   61.3431   31.2292   48.7146 H   0  0  0  0  0  0  0  0  0  0  0  0
   61.2620   29.4414   48.2919 H   0  0  0  0  0  0  0  0  0  0  0  0
   59.6103   28.1828   49.9903 H   0  0  0  0  0  0  0  0  0  0  0  0
   57.9982   28.8576   49.5372 H   0  0  0  0  0  0  0  0  0  0  0  0
   60.9142   26.9918   48.3874 H   0  0  0  0  0  0  0  0  0  0  0  0
   61.0921   26.0171   46.0969 H   0  0  0  0  0  0  0  0  0  0  0  0
   59.4542   26.6615   44.3286 H   0  0  0  0  0  0  0  0  0  0  0  0
   57.7120   30.5940   46.7996 H   0  0  0  0  0  0  0  0  0  0  0  0
   58.9049   32.7632   47.0835 H   0  0  0  0  0  0  0  0  0  0  0  0
   58.2942   33.6566   42.8955 H   0  0  0  0  0  0  0  0  0  0  0  0
   57.0814   31.4950   42.6069 H   0  0  0  0  0  0  0  0  0  0  0  0
   57.5525   29.3933   47.0938 H   0  0  0  0  0  0  0  0  0  0  0  0
   59.1959   32.0488   50.2118 H   0  0  0  0  0  0  0  0  0  0  0  0
   58.1089   30.6419   50.6811 H   0  0  0  0  0  0  0  0  0  0  0  0
   59.2506   31.0056   52.6325 H   0  0  0  0  0  0  0  0  0  0  0  0
   60.2672   29.7316   51.7794 H   0  0  0  0  0  0  0  0  0  0  0  0
   59.7601   32.7490   48.9240 H   0  0  0  0  0  0  0  0  0  0  0  0
   60.8538   33.2389   46.7388 H   0  0  0  0  0  0  0  0  0  0  0  0
  1  2  1  0
  2  3  2  0
  3  4  1  0
  4  5  2  0
  5  6  1  0
  6  7  1  0
  7  8  1  0
  8  9  1  0
  9 10  1  0
 10 11  1  0
 11 12  1  0
 12 13  1  0
 13 14  2  0
 14 15  1  0
 15 16  2  0
 16 17  1  0
 17 18  1  0
 18 19  1  0
 19 20  2  0
 19 21  1  0
 21 22  2  0
 22 23  1  0
 23 24  2  0
 24 25  1  0
 24 26  1  0
 26 27  2  0
 17 28  2  0
 11 29  1  0
 29 30  1  0
  5 31  1  0
 31 32  2  0
 32  2  1  0
 30  7  1  0
 28 13  1  0
 27 21  1  0
  1 33  1  0
  1 34  1  0
  1 35  1  0
  3 36  1  0
  4 37  1  0
  6 38  1  0
  6 39  1  0
  7 40  1  1
  8 41  1  0
  8 42  1  0
  9 43  1  0
  9 44  1  0
 10 45  1  0
 10 46  1  0
 12 47  1  0
 12 48  1  0
 14 49  1  0
 15 50  1  0
 16 51  1  0
 22 52  1  0
 23 53  1  0
 26 54  1  0
 27 55  1  0
 28 56  1  0
 29 57  1  0
 29 58  1  0
 30 59  1  0
 30 60  1  0
 31 61  1  0
 32 62  1  0
M  CHG  2   7   1  18  -1
M  END
>  <UniqueID>  (22) 
20

>  <SMILES>  (22) 
Cc1ccc(C[N@@H+]2CCCN(Cc3cccc([N-]C(=O)c4ccc(Br)cc4)c3)CC2)cc1

>  <Energy>  (22) 
90.09027182967594

>  <Genealogy>  (22) 
Cc1ccc(C[NH+]2CCCN(Cc3cccc([N-]C(=O)c4ccc(Br)cc4)c3)CC2)cc1 (protonated)
Cc1ccc(C[N@@H+]2CCCN(Cc3cccc([N-]C(=O)c4ccc(Br)cc4)c3)CC2)cc1 (chirality)
Cc1ccc(C[N@@H+]2CCCN(Cc3cccc([N-]C(=O)c4ccc(Br)cc4)c3)CC2)cc1 (3D coordinates assigned)
Cc1ccc(C[N@@H+]2CCCN(Cc3cccc([N-]C(=O)c4ccc(Br)cc4)c3)CC2)cc1 (nonaromatic ring conformer: 90.09027182967594 kcal/mol)

>  <smiles>  (22) 
Cc1ccc(CN2CCCN(Cc3cccc(NC(=O)c4ccc(Br)cc4)c3)CC2)cc1

>  <score_type>  (22) 
oracle

>  <origin>  (22) 
adg

>  <m_score__min__energy>  (22) 
-7.71

>  <m_primary>  (22) 
energy

$$$$
22:0
     RDKit          3D

 43 46  0  0  0  0  0  0  0  0999 V2000
   58.3490   32.5840   48.1440 C   0  0  0  0  0  0  0  0  0  0  0  0
   59.0500   33.3570   47.1210 N   0  0  0  0  0  0  0  0  0  0  0  0
   58.6030   33.6890   45.8950 C   0  0  0  0  0  0  0  0  0  0  0  0
   57.0140   33.2060   45.2190 S   0  0  0  0  0  0  0  0  0  0  0  0
   57.7050   31.7910   44.3050 C   0  0  0  0  0  0  0  0  0  0  0  0
   57.0200   30.5390   44.7410 C   0  0  0  0  0  0  0  0  0  0  0  0
   55.7700   30.4380   44.6170 O   0  0  0  0  0  0  0  0  0  0  0  0
   57.7820   29.5120   45.3870 N   0  0  0  0  0  0  0  0  0  0  0  0
   58.8280   29.6980   46.3510 C   0  0  0  0  0  0  0  0  0  0  0  0
   60.0440   30.3240   46.0240 C   0  0  0  0  0  0  0  0  0  0  0  0
   61.0270   30.5060   47.0020 C   0  0  0  0  0  0  0  0  0  0  0  0
   60.8000   30.0770   48.3130 C   0  0  0  0  0  0  0  0  0  0  0  0
   61.7530   30.2570   49.2610 F   0  0  0  0  0  0  0  0  0  0  0  0
   59.5860   29.4740   48.6490 C   0  0  0  0  0  0  0  0  0  0  0  0
   58.6000   29.2930   47.6730 C   0  0  0  0  0  0  0  0  0  0  0  0
   59.4960   34.4440   45.2280 N   0  0  0  0  0  0  0  0  0  0  0  0
   60.5430   34.5950   46.0260 N   0  0  0  0  0  0  0  0  0  0  0  0
   60.2760   33.9230   47.1640 C   0  0  0  0  0  0  0  0  0  0  0  0
   61.2140   33.8610   48.3040 C   0  0  0  0  0  0  0  0  0  0  0  0
   62.5210   33.4060   48.0970 C   0  0  0  0  0  0  0  0  0  0  0  0
   63.4140   33.3520   49.1690 C   0  0  0  0  0  0  0  0  0  0  0  0
   64.7370   32.9180   49.0030 C   0  0  0  0  0  0  0  0  0  0  0  0
   65.6020   32.8800   50.1010 C   0  0  0  0  0  0  0  0  0  0  0  0
   65.1510   33.2730   51.3650 C   0  0  0  0  0  0  0  0  0  0  0  0
   63.8310   33.7050   51.5390 C   0  0  0  0  0  0  0  0  0  0  0  0
   62.9580   33.7450   50.4460 C   0  0  0  0  0  0  0  0  0  0  0  0
   61.7020   34.1460   50.6130 O   0  0  0  0  0  0  0  0  0  0  0  0
   60.8270   34.2100   49.6120 C   0  0  0  0  0  0  0  0  0  0  0  0
   59.6440   34.5650   49.8580 O   0  0  0  0  0  0  0  0  0  0  0  0
   58.6608   32.9279   49.1413 H   0  0  0  0  0  0  0  0  0  0  0  0
   57.2639   32.7245   48.0304 H   0  0  0  0  0  0  0  0  0  0  0  0
   58.5946   31.5178   48.0304 H   0  0  0  0  0  0  0  0  0  0  0  0
   57.5484   31.9388   43.2263 H   0  0  0  0  0  0  0  0  0  0  0  0
   58.7828   31.7114   44.5099 H   0  0  0  0  0  0  0  0  0  0  0  0
   60.2226   30.6716   44.9958 H   0  0  0  0  0  0  0  0  0  0  0  0
   61.9804   30.9876   46.7392 H   0  0  0  0  0  0  0  0  0  0  0  0
   59.4049   29.1411   49.6817 H   0  0  0  0  0  0  0  0  0  0  0  0
   57.6400   28.8300   47.9450 H   0  0  0  0  0  0  0  0  0  0  0  0
   62.8437   33.0920   47.0934 H   0  0  0  0  0  0  0  0  0  0  0  0
   65.0941   32.6077   48.0099 H   0  0  0  0  0  0  0  0  0  0  0  0
   66.6399   32.5401   49.9701 H   0  0  0  0  0  0  0  0  0  0  0  0
   65.8358   33.2425   52.2253 H   0  0  0  0  0  0  0  0  0  0  0  0
   63.4799   34.0131   52.5349 H   0  0  0  0  0  0  0  0  0  0  0  0
  1  2  1  0
  2  3  1  0
  3  4  1  0
  4  5  1  0
  5  6  1  0
  6  7  2  0
  6  8  1  0
  8  9  1  0
  9 10  2  0
 10 11  1  0
 11 12  2  0
 12 13  1  0
 12 14  1  0
 14 15  2  0
  3 16  2  0
 16 17  1  0
 17 18  2  0
 18 19  1  0
 19 20  2  0
 20 21  1  0
 21 22  2  0
 22 23  1  0
 23 24  2  0
 24 25  1  0
 25 26  2  0
 26 27  1  0
 27 28  1  0
 28 29  2  0
 18  2  1  0
 28 19  1  0
 15  9  1  0
 26 21  1  0
  1 30  1  0
  1 31  1  0
  1 32  1  0
  5 33  1  0
  5 34  1  0
 10 35  1  0
 11 36  1  0
 14 37  1  0
 15 38  1  0
 20 39  1  0
 22 40  1  0
 23 41  1  0
 24 42  1  0
 25 43  1  0
M  CHG  1   8  -1
M  END
>  <UniqueID>  (23) 
21

>  <SMILES>  (23) 
Cn1c(SCC(=O)[N-]c2ccc(F)cc2)nnc1-c1cc2ccccc2oc1=O

>  <Energy>  (23) 
90.78098817280254

>  <Genealogy>  (23) 
Cn1c(SCC(=O)[N-]c2ccc(F)cc2)nnc1-c1cc2ccccc2oc1=O (protonated)
Cn1c(SCC(=O)[N-]c2ccc(F)cc2)nnc1-c1cc2ccccc2oc1=O (3D coordinates assigned)
Cn1c(SCC(=O)[N-]c2ccc(F)cc2)nnc1-c1cc2ccccc2oc1=O (optimized conformer: 90.78098817280254 kcal/mol)

>  <smiles>  (23) 
Cn1c(SCC(=O)Nc2ccc(F)cc2)nnc1-c1cc2ccccc2oc1=O

>  <score_type>  (23) 
oracle

>  <origin>  (23) 
adg

>  <m_score__min__energy>  (23) 
-10.26

>  <m_primary>  (23) 
energy

$$$$
23:0
     RDKit          3D

 50 53  0  0  0  0  0  0  0  0999 V2000
   59.6520   35.7180   46.3680 C   0  0  0  0  0  0  0  0  0  0  0  0
   59.3800   34.2470   46.2650 C   0  0  0  0  0  0  0  0  0  0  0  0
   60.2360   33.3260   46.8880 C   0  0  0  0  0  0  0  0  0  0  0  0
   60.0050   31.9540   46.7650 C   0  0  0  0  0  0  0  0  0  0  0  0
   58.9210   31.4760   46.0050 C   0  0  0  0  0  0  0  0  0  0  0  0
   58.6740   30.0590   45.8860 N   0  0  0  0  0  0  0  0  0  0  0  0
   58.4660   29.2610   47.1060 C   0  0  0  0  0  0  0  0  0  0  0  0
   58.5550   27.7630   46.8140 C   0  0  0  0  0  0  0  0  0  0  0  0
   57.7000   27.4400   45.6640 N   0  0  0  0  0  0  0  0  0  0  0  0
   56.8190   26.3010   45.6780 C   0  0  0  0  0  0  0  0  0  0  0  0
   57.2970   25.0040   45.4520 C   0  0  0  0  0  0  0  0  0  0  0  0
   56.4100   23.9310   45.4880 C   0  0  0  0  0  0  0  0  0  0  0  0
   55.0540   24.1640   45.7670 C   0  0  0  0  0  0  0  0  0  0  0  0
   54.0900   23.0880   45.8160 N   0  0  0  0  0  0  0  0  0  0  0  0
   54.5200   21.6960   46.0130 C   0  0  0  0  0  0  0  0  0  0  0  0
   53.3880   20.8700   46.6330 C   0  0  0  0  0  0  0  0  0  0  0  0
   52.1870   21.0340   45.9050 O   0  0  0  0  0  0  0  0  0  0  0  0
   51.7440   22.3710   46.0190 C   0  0  0  0  0  0  0  0  0  0  0  0
   52.7240   23.3260   45.3340 C   0  0  0  0  0  0  0  0  0  0  0  0
   54.6480   25.4430   45.9930 N   0  0  0  0  0  0  0  0  0  0  0  0
   55.4980   26.4710   45.9560 N   0  0  0  0  0  0  0  0  0  0  0  0
   57.7970   28.2490   44.4400 C   0  0  0  0  0  0  0  0  0  0  0  0
   58.8150   29.3900   44.5830 C   0  0  0  0  0  0  0  0  0  0  0  0
   58.0760   32.4040   45.3700 C   0  0  0  0  0  0  0  0  0  0  0  0
   58.3090   33.7760   45.4920 C   0  0  0  0  0  0  0  0  0  0  0  0
   59.7056   36.0076   47.4278 H   0  0  0  0  0  0  0  0  0  0  0  0
   60.6082   35.9494   45.8759 H   0  0  0  0  0  0  0  0  0  0  0  0
   58.8418   36.2760   45.8759 H   0  0  0  0  0  0  0  0  0  0  0  0
   61.0930   33.6863   47.4760 H   0  0  0  0  0  0  0  0  0  0  0  0
   60.6760   31.2410   47.2664 H   0  0  0  0  0  0  0  0  0  0  0  0
   59.2365   29.5282   47.8442 H   0  0  0  0  0  0  0  0  0  0  0  0
   57.4605   29.4789   47.4952 H   0  0  0  0  0  0  0  0  0  0  0  0
   59.5967   27.4949   46.5839 H   0  0  0  0  0  0  0  0  0  0  0  0
   58.2179   27.1958   47.6941 H   0  0  0  0  0  0  0  0  0  0  0  0
   58.3645   24.8343   45.2477 H   0  0  0  0  0  0  0  0  0  0  0  0
   56.7692   22.9086   45.2992 H   0  0  0  0  0  0  0  0  0  0  0  0
   54.7959   21.2609   45.0411 H   0  0  0  0  0  0  0  0  0  0  0  0
   55.3850   21.6825   46.6924 H   0  0  0  0  0  0  0  0  0  0  0  0
   53.6716   19.8072   46.6253 H   0  0  0  0  0  0  0  0  0  0  0  0
   53.2242   21.2163   47.6641 H   0  0  0  0  0  0  0  0  0  0  0  0
   50.7562   22.4658   45.5444 H   0  0  0  0  0  0  0  0  0  0  0  0
   51.6819   22.6332   47.0855 H   0  0  0  0  0  0  0  0  0  0  0  0
   52.6895   23.1627   44.2467 H   0  0  0  0  0  0  0  0  0  0  0  0
   52.4374   24.3616   45.5694 H   0  0  0  0  0  0  0  0  0  0  0  0
   58.1068   27.5990   43.6084 H   0  0  0  0  0  0  0  0  0  0  0  0
   56.8102   28.6963   44.2495 H   0  0  0  0  0  0  0  0  0  0  0  0
   59.8316   28.9785   44.4975 H   0  0  0  0  0  0  0  0  0  0  0  0
   58.6308   30.1272   43.7876 H   0  0  0  0  0  0  0  0  0  0  0  0
   57.2246   32.0464   44.7723 H   0  0  0  0  0  0  0  0  0  0  0  0
   57.6488   34.4907   44.9789 H   0  0  0  0  0  0  0  0  0  0  0  0
  1  2  1  0
  2  3  2  0
  3  4  1  0
  4  5  2  0
  5  6  1  0
  6  7  1  0
  7  8  1  0
  8  9  1  0
  9 10  1  0
 10 11  2  0
 11 12  1  0
 12 13  2  0
 13 14  1  0
 14 15  1  0
 15 16  1  0
 16 17  1  0
 17 18  1  0
 18 19  1  0
 13 20  1  0
 20 21  2  0
  9 22  1  0
 22 23  1  0
  5 24  1  0
 24 25  2  0
 25  2  1  0
 23  6  1  0
 21 10  1  0
 19 14  1  0
  1 26  1  0
  1 27  1  0
  1 28  1  0
  3 29  1  0
  4 30  1  0
  7 31  1  0
  7 32  1  0
  8 33  1  0
  8 34  1  0
 11 35  1  0
 12 36  1  0
 15 37  1  0
 15 38  1  0
 16 39  1  0
 16 40  1  0
 18 41  1  0
 18 42  1  0
 19 43  1  0
 19 44  1  0
 22 45  1  0
 22 46  1  0
 23 47  1  0
 23 48  1  0
 24 49  1  0
 25 50  1  0
M  END
>  <UniqueID>  (24) 
22

>  <SMILES>  (24) 
Cc1ccc(N2CCN(c3ccc(N4CCOCC4)nn3)CC2)cc1

>  <Energy>  (24) 
63.96148876642512

>  <Genealogy>  (24) 
Cc1ccc(N2CCN(c3ccc(N4CCOCC4)nn3)CC2)cc1 (3D coordinates assigned)
Cc1ccc(N2CCN(c3ccc(N4CCOCC4)nn3)CC2)cc1 (nonaromatic ring conformer: 63.96148876642512 kcal/mol)

>  <smiles>  (24) 
Cc1ccc(N2CCN(c3ccc(N4CCOCC4)nn3)CC2)cc1

>  <score_type>  (24) 
oracle

>  <origin>  (24) 
adg

>  <m_score__min__energy>  (24) 
-7.4299999999999997

>  <m_primary>  (24) 
energy

$$$$
24:0
     RDKit          3D

 53 55  0  0  0  0  0  0  0  0999 V2000
   63.6700   33.4860   46.5330 C   0  0  0  0  0  0  0  0  0  0  0  0
   64.0670   33.8420   47.9630 C   0  0  0  0  0  0  0  0  0  0  0  0
   64.1400   32.5900   48.8440 C   0  0  0  0  0  0  0  0  0  0  0  0
   62.7740   32.2730   49.4630 C   0  0  0  0  0  0  0  0  0  0  0  0
   61.7310   32.3050   48.4400 N   0  0  0  0  0  0  0  0  0  0  0  0
   60.8540   33.4290   48.2690 C   0  0  0  0  0  0  0  0  0  0  0  0
   61.0120   34.4670   48.9700 O   0  0  0  0  0  0  0  0  0  0  0  0
   59.7510   33.3870   47.2380 C   0  0  1  0  0  0  0  0  0  0  0  0
   58.4210   33.8550   47.8850 C   0  0  0  0  0  0  0  0  0  0  0  0
   57.1520   33.5830   47.0530 C   0  0  0  0  0  0  0  0  0  0  0  0
   57.2090   34.0260   45.5890 C   0  0  0  0  0  0  0  0  0  0  0  0
   58.2130   33.2650   44.8350 N   0  0  0  0  0  0  0  0  0  0  0  0
   58.0450   31.8410   44.6950 C   0  0  0  0  0  0  0  0  0  0  0  0
   58.2670   31.0380   45.7710 N   0  0  0  0  0  0  0  0  0  0  0  0
   58.1440   29.6880   45.6920 C   0  0  0  0  0  0  0  0  0  0  0  0
   58.3790   28.8820   46.8120 C   0  0  0  0  0  0  0  0  0  0  0  0
   58.2520   27.4930   46.7080 C   0  0  0  0  0  0  0  0  0  0  0  0
   57.8910   26.9080   45.4880 C   0  0  0  0  0  0  0  0  0  0  0  0
   57.6560   27.7100   44.3660 C   0  0  0  0  0  0  0  0  0  0  0  0
   57.7820   29.1010   44.4670 C   0  0  0  0  0  0  0  0  0  0  0  0
   57.5540   29.8970   43.3910 N   0  0  0  0  0  0  0  0  0  0  0  0
   57.6670   31.2510   43.4670 C   0  0  0  0  0  0  0  0  0  0  0  0
   57.3890   32.0650   42.2420 C   0  0  0  0  0  0  0  0  0  0  0  0
   59.5540   33.8470   44.6920 C   0  0  0  0  0  0  0  0  0  0  0  0
   60.1520   34.2790   46.0400 C   0  0  0  0  0  0  0  0  0  0  0  0
   62.8512   32.7517   46.5518 H   0  0  0  0  0  0  0  0  0  0  0  0
   63.3367   34.3935   46.0083 H   0  0  0  0  0  0  0  0  0  0  0  0
   64.5360   33.0562   46.0083 H   0  0  0  0  0  0  0  0  0  0  0  0
   65.0524   34.3307   47.9511 H   0  0  0  0  0  0  0  0  0  0  0  0
   63.3050   34.5176   48.3789 H   0  0  0  0  0  0  0  0  0  0  0  0
   64.4634   31.7365   48.2300 H   0  0  0  0  0  0  0  0  0  0  0  0
   64.8583   32.7747   49.6563 H   0  0  0  0  0  0  0  0  0  0  0  0
   62.8055   31.2716   49.9172 H   0  0  0  0  0  0  0  0  0  0  0  0
   62.5455   33.0286   50.2290 H   0  0  0  0  0  0  0  0  0  0  0  0
   61.6560   31.4950   47.7860 H   0  0  0  0  0  0  0  0  0  0  0  0
   59.6013   32.3612   46.8701 H   0  0  0  0  0  0  0  0  0  0  0  0
   58.3121   33.3380   48.8498 H   0  0  0  0  0  0  0  0  0  0  0  0
   58.4958   34.9486   47.9769 H   0  0  0  0  0  0  0  0  0  0  0  0
   56.9622   32.4996   47.0709 H   0  0  0  0  0  0  0  0  0  0  0  0
   56.3557   34.1838   47.5167 H   0  0  0  0  0  0  0  0  0  0  0  0
   56.2221   33.8688   45.1294 H   0  0  0  0  0  0  0  0  0  0  0  0
   57.4893   35.0893   45.5609 H   0  0  0  0  0  0  0  0  0  0  0  0
   58.6627   29.3397   47.7712 H   0  0  0  0  0  0  0  0  0  0  0  0
   58.4363   26.8582   47.5872 H   0  0  0  0  0  0  0  0  0  0  0  0
   57.7919   25.8151   45.4116 H   0  0  0  0  0  0  0  0  0  0  0  0
   57.3732   27.2495   43.4079 H   0  0  0  0  0  0  0  0  0  0  0  0
   57.0466   33.0676   42.5379 H   0  0  0  0  0  0  0  0  0  0  0  0
   58.3080   32.1531   41.6439 H   0  0  0  0  0  0  0  0  0  0  0  0
   56.6081   31.5725   41.6439 H   0  0  0  0  0  0  0  0  0  0  0  0
   60.2173   33.0978   44.2351 H   0  0  0  0  0  0  0  0  0  0  0  0
   59.4647   34.7442   44.0618 H   0  0  0  0  0  0  0  0  0  0  0  0
   61.2482   34.2608   45.9506 H   0  0  0  0  0  0  0  0  0  0  0  0
   59.7527   35.2820   46.2509 H   0  0  0  0  0  0  0  0  0  0  0  0
  1  2  1  0
  2  3  1  0
  3  4  1  0
  4  5  1  0
  5  6  1  0
  6  7  2  0
  6  8  1  0
  8  9  1  0
  9 10  1  0
 10 11  1  0
 11 12  1  0
 12 13  1  0
 13 14  2  0
 14 15  1  0
 15 16  2  0
 16 17  1  0
 17 18  2  0
 18 19  1  0
 19 20  2  0
 20 21  1  0
 21 22  2  0
 22 23  1  0
 12 24  1  0
 24 25  1  0
 25  8  1  0
 22 13  1  0
 20 15  1  0
  1 26  1  0
  1 27  1  0
  1 28  1  0
  2 29  1  0
  2 30  1  0
  3 31  1  0
  3 32  1  0
  4 33  1  0
  4 34  1  0
  5 35  1  0
  8 36  1  6
  9 37  1  0
  9 38  1  0
 10 39  1  0
 10 40  1  0
 11 41  1  0
 11 42  1  0
 16 43  1  0
 17 44  1  0
 18 45  1  0
 19 46  1  0
 23 47  1  0
 23 48  1  0
 23 49  1  0
 24 50  1  0
 24 51  1  0
 25 52  1  0
 25 53  1  0
M  END
>  <UniqueID>  (25) 
23

>  <SMILES>  (25) 
CCCCNC(=O)[C@H]1CCCN(c2nc3ccccc3nc2C)CC1

>  <Energy>  (25) 
55.08955946188425

>  <Genealogy>  (25) 
CCCCNC(=O)[C@H]1CCCN(c2nc3ccccc3nc2C)CC1 (chirality)
CCCCNC(=O)[C@H]1CCCN(c2nc3ccccc3nc2C)CC1 (3D coordinates assigned)
CCCCNC(=O)[C@H]1CCCN(c2nc3ccccc3nc2C)CC1 (nonaromatic ring conformer: 55.08955946188425 kcal/mol)

>  <smiles>  (25) 
CCCCNC(=O)C1CCCN(c2nc3ccccc3nc2C)CC1

>  <score_type>  (25) 
oracle

>  <origin>  (25) 
adg

>  <m_score__min__energy>  (25) 
-5.4500000000000002

>  <m_primary>  (25) 
energy

$$$$
25:0
     RDKit          3D

 52 54  0  0  0  0  0  0  0  0999 V2000
   58.2100   34.6680   44.9570 C   0  0  0  0  0  0  0  0  0  0  0  0
   58.0640   33.1880   44.7600 C   0  0  0  0  0  0  0  0  0  0  0  0
   57.9450   32.3470   45.8740 C   0  0  0  0  0  0  0  0  0  0  0  0
   57.7810   30.9700   45.7040 C   0  0  0  0  0  0  0  0  0  0  0  0
   57.7590   30.4050   44.4170 C   0  0  0  0  0  0  0  0  0  0  0  0
   57.4710   28.9290   44.2340 C   0  0  0  0  0  0  0  0  0  0  0  0
   58.6140   28.0170   44.5040 N   0  0  0  0  0  0  0  0  0  0  0  0
   59.9150   28.6950   44.6950 C   0  0  0  0  0  0  0  0  0  0  0  0
   60.4040   28.6630   46.1580 C   0  0  0  0  0  0  0  0  0  0  0  0
   59.2660   28.5950   47.0990 N   0  0  0  0  0  0  0  0  0  0  0  0
   59.7330   28.7030   48.5000 C   0  0  0  0  0  0  0  0  0  0  0  0
   60.5870   29.9290   48.6890 C   0  0  0  0  0  0  0  0  0  0  0  0
   61.4520   30.0150   49.7890 C   0  0  0  0  0  0  0  0  0  0  0  0
   62.2200   31.1640   49.9700 C   0  0  0  0  0  0  0  0  0  0  0  0
   62.1220   32.2160   49.0600 C   0  0  0  0  0  0  0  0  0  0  0  0
   61.2570   32.0970   47.9700 C   0  0  0  0  0  0  0  0  0  0  0  0
   61.1150   33.5270   46.7110 Br  0  0  0  0  0  0  0  0  0  0  0  0
   60.5160   30.9670   47.8040 N   0  0  0  0  0  0  0  0  0  0  0  0
   58.4920   27.3440   46.9200 C   0  0  0  0  0  0  0  0  0  0  0  0
   58.4310   26.8840   45.4430 C   0  0  1  0  0  0  0  0  0  0  0  0
   57.1980   25.9960   45.1470 C   0  0  0  0  0  0  0  0  0  0  0  0
   56.2590   25.8540   46.3530 C   0  0  0  0  0  0  0  0  0  0  0  0
   55.1260   26.6670   46.2170 O   0  0  0  0  0  0  0  0  0  0  0  0
   57.8750   31.2550   43.3020 C   0  0  0  0  0  0  0  0  0  0  0  0
   58.0300   32.6330   43.4720 C   0  0  0  0  0  0  0  0  0  0  0  0
   58.2323   34.8942   46.0333 H   0  0  0  0  0  0  0  0  0  0  0  0
   59.1462   35.0093   44.4911 H   0  0  0  0  0  0  0  0  0  0  0  0
   57.3586   35.1857   44.4911 H   0  0  0  0  0  0  0  0  0  0  0  0
   57.9809   32.7729   46.8876 H   0  0  0  0  0  0  0  0  0  0  0  0
   57.6680   30.3218   46.5856 H   0  0  0  0  0  0  0  0  0  0  0  0
   56.6513   28.6564   44.9150 H   0  0  0  0  0  0  0  0  0  0  0  0
   57.2243   28.7984   43.1700 H   0  0  0  0  0  0  0  0  0  0  0  0
   60.6656   28.1968   44.0638 H   0  0  0  0  0  0  0  0  0  0  0  0
   59.7792   29.7506   44.4171 H   0  0  0  0  0  0  0  0  0  0  0  0
   61.0436   27.7800   46.3036 H   0  0  0  0  0  0  0  0  0  0  0  0
   60.9675   29.5863   46.3579 H   0  0  0  0  0  0  0  0  0  0  0  0
   58.8603   28.7658   49.1667 H   0  0  0  0  0  0  0  0  0  0  0  0
   60.3360   27.8145   48.7389 H   0  0  0  0  0  0  0  0  0  0  0  0
   61.5240   29.1820   50.5038 H   0  0  0  0  0  0  0  0  0  0  0  0
   62.9023   31.2408   50.8294 H   0  0  0  0  0  0  0  0  0  0  0  0
   62.7192   33.1292   49.1991 H   0  0  0  0  0  0  0  0  0  0  0  0
   59.8800   30.8990   46.9770 H   0  0  0  0  0  0  0  0  0  0  0  0
   58.9645   26.5497   47.5165 H   0  0  0  0  0  0  0  0  0  0  0  0
   57.4611   27.5418   47.2487 H   0  0  0  0  0  0  0  0  0  0  0  0
   59.2916   26.2219   45.2670 H   0  0  0  0  0  0  0  0  0  0  0  0
   56.6349   26.4438   44.3149 H   0  0  0  0  0  0  0  0  0  0  0  0
   57.5683   24.9907   44.8975 H   0  0  0  0  0  0  0  0  0  0  0  0
   55.9389   24.8049   46.4358 H   0  0  0  0  0  0  0  0  0  0  0  0
   56.8042   26.1680   47.2553 H   0  0  0  0  0  0  0  0  0  0  0  0
   54.7260   26.7520   47.1210 H   0  0  0  0  0  0  0  0  0  0  0  0
   57.8434   30.8309   42.2875 H   0  0  0  0  0  0  0  0  0  0  0  0
   58.1258   33.2858   42.5919 H   0  0  0  0  0  0  0  0  0  0  0  0
  1  2  1  0
  2  3  2  0
  3  4  1  0
  4  5  2  0
  5  6  1  0
  6  7  1  0
  7  8  1  0
  8  9  1  0
  9 10  1  0
 10 11  1  0
 11 12  1  0
 12 13  2  0
 13 14  1  0
 14 15  2  0
 15 16  1  0
 16 17  1  0
 16 18  2  0
 10 19  1  0
 19 20  1  0
 20 21  1  0
 21 22  1  0
 22 23  1  0
  5 24  1  0
 24 25  2  0
 25  2  1  0
 20  7  1  0
 18 12  1  0
  1 26  1  0
  1 27  1  0
  1 28  1  0
  3 29  1  0
  4 30  1  0
  6 31  1  0
  6 32  1  0
  8 33  1  0
  8 34  1  0
  9 35  1  0
  9 36  1  0
 11 37  1  0
 11 38  1  0
 13 39  1  0
 14 40  1  0
 15 41  1  0
 18 42  1  0
 19 43  1  0
 19 44  1  0
 20 45  1  1
 21 46  1  0
 21 47  1  0
 22 48  1  0
 22 49  1  0
 23 50  1  0
 24 51  1  0
 25 52  1  0
M  CHG  1  18   1
M  END
>  <UniqueID>  (26) 
24

>  <SMILES>  (26) 
Cc1ccc(CN2CCN(Cc3cccc(Br)[nH+]3)C[C@H]2CCO)cc1

>  <Energy>  (26) 
66.19206737593812

>  <Genealogy>  (26) 
Cc1ccc(CN2CCN(Cc3cccc(Br)[nH+]3)CC2CCO)cc1 (protonated)
Cc1ccc(CN2CCN(Cc3cccc(Br)[nH+]3)C[C@H]2CCO)cc1 (chirality)
Cc1ccc(CN2CCN(Cc3cccc(Br)[nH+]3)C[C@H]2CCO)cc1 (3D coordinates assigned)
Cc1ccc(CN2CCN(Cc3cccc(Br)[nH+]3)C[C@H]2CCO)cc1 (nonaromatic ring conformer: 66.19206737593812 kcal/mol)

>  <smiles>  (26) 
Cc1ccc(CN2CCN(Cc3cccc(Br)n3)CC2CCO)cc1

>  <score_type>  (26) 
oracle

>  <origin>  (26) 
adg

>  <m_score__min__energy>  (26) 
-7.8200000000000003

>  <m_primary>  (26) 
energy

$$$$
26:0
     RDKit          3D

 49 52  0  0  0  0  0  0  0  0999 V2000
   62.4960   28.0970   52.6700 C   0  0  0  0  0  0  0  0  0  0  0  0
   61.1680   28.5710   52.4780 O   0  0  0  0  0  0  0  0  0  0  0  0
   60.7060   29.1800   51.3030 C   0  0  0  0  0  0  0  0  0  0  0  0
   61.6420   29.7780   50.4510 C   0  0  0  0  0  0  0  0  0  0  0  0
   61.2300   30.4050   49.2710 C   0  0  0  0  0  0  0  0  0  0  0  0
   59.8690   30.4580   48.9380 C   0  0  0  0  0  0  0  0  0  0  0  0
   59.4480   31.1190   47.6930 C   0  0  0  0  0  0  0  0  0  0  0  0
   59.6010   32.4500   47.5010 N   0  0  0  0  0  0  0  0  0  0  0  0
   59.1260   32.6530   46.2560 C   0  0  0  0  0  0  0  0  0  0  0  0
   59.0850   33.8810   45.5870 C   0  0  0  0  0  0  0  0  0  0  0  0
   59.6000   35.1350   46.2280 C   0  0  0  0  0  0  0  0  0  0  0  0
   58.5840   33.8850   44.2710 C   0  0  0  0  0  0  0  0  0  0  0  0
   58.1330   32.6920   43.6770 C   0  0  0  0  0  0  0  0  0  0  0  0
   58.1900   31.4940   44.4010 C   0  0  0  0  0  0  0  0  0  0  0  0
   58.6840   31.5260   45.6680 N   0  0  0  0  0  0  0  0  0  0  0  0
   58.8540   30.5370   46.5670 C   0  0  0  0  0  0  0  0  0  0  0  0
   58.4560   29.0910   46.3250 C   0  0  2  0  0  0  0  0  0  0  0  0
   59.6210   28.1470   46.1740 C   0  0  0  0  0  0  0  0  0  0  0  0
   60.6490   27.9130   47.2320 C   0  0  0  0  0  0  0  0  0  0  0  0
   59.6170   27.4710   45.0750 N   0  0  0  0  0  0  0  0  0  0  0  0
   58.4910   27.8730   44.3170 C   0  0  0  0  0  0  0  0  0  0  0  0
   58.2500   27.4180   43.1290 N   0  0  0  0  0  0  0  0  0  0  0  0
   57.6740   28.9170   45.0030 C   0  0  1  0  0  0  0  0  0  0  0  0
   56.2610   28.4590   45.2370 C   0  0  0  0  0  0  0  0  0  0  0  0
   55.1770   29.3350   44.9440 N   0  0  0  0  0  0  0  0  0  0  0  0
   56.0290   27.3190   45.7250 O   0  0  0  0  0  0  0  0  0  0  0  0
   58.9310   29.8320   49.7710 C   0  0  0  0  0  0  0  0  0  0  0  0
   59.3430   29.2060   50.9510 C   0  0  0  0  0  0  0  0  0  0  0  0
   62.7064   28.0219   53.7471 H   0  0  0  0  0  0  0  0  0  0  0  0
   62.6021   27.1055   52.2057 H   0  0  0  0  0  0  0  0  0  0  0  0
   63.2060   28.7972   52.2057 H   0  0  0  0  0  0  0  0  0  0  0  0
   62.7104   29.7545   50.7119 H   0  0  0  0  0  0  0  0  0  0  0  0
   61.9761   30.8582   48.6017 H   0  0  0  0  0  0  0  0  0  0  0  0
   59.5575   35.0315   47.3223 H   0  0  0  0  0  0  0  0  0  0  0  0
   60.6409   35.3055   45.9160 H   0  0  0  0  0  0  0  0  0  0  0  0
   58.9793   35.9879   45.9160 H   0  0  0  0  0  0  0  0  0  0  0  0
   58.5450   34.8267   43.7039 H   0  0  0  0  0  0  0  0  0  0  0  0
   57.7380   32.6999   42.6504 H   0  0  0  0  0  0  0  0  0  0  0  0
   57.8435   30.5498   43.9555 H   0  0  0  0  0  0  0  0  0  0  0  0
   57.8617   28.8519   47.2192 H   0  0  0  0  0  0  0  0  0  0  0  0
   60.1851   28.0186   48.2238 H   0  0  0  0  0  0  0  0  0  0  0  0
   61.0602   26.8983   47.1257 H   0  0  0  0  0  0  0  0  0  0  0  0
   61.4589   28.6498   47.1257 H   0  0  0  0  0  0  0  0  0  0  0  0
   58.9860   27.4570   42.3890 H   0  0  0  0  0  0  0  0  0  0  0  0
   57.3180   27.0090   42.8920 H   0  0  0  0  0  0  0  0  0  0  0  0
   57.5555   29.8471   44.4278 H   0  0  0  0  0  0  0  0  0  0  0  0
   54.3870   29.4540   45.6150 H   0  0  0  0  0  0  0  0  0  0  0  0
   57.8662   29.8335   49.4948 H   0  0  0  0  0  0  0  0  0  0  0  0
   58.5989   28.7315   51.6076 H   0  0  0  0  0  0  0  0  0  0  0  0
  1  2  1  0
  2  3  1  0
  3  4  2  0
  4  5  1  0
  5  6  2  0
  6  7  1  0
  7  8  1  0
  8  9  2  0
  9 10  1  0
 10 11  1  0
 10 12  2  0
 12 13  1  0
 13 14  2  0
 14 15  1  0
 15 16  1  0
 16 17  1  0
 17 18  1  0
 18 19  1  0
 18 20  2  0
 20 21  1  0
 21 22  2  0
 21 23  1  0
 23 24  1  0
 24 25  1  0
 24 26  2  0
  6 27  1  0
 27 28  2  0
 28  3  1  0
 16  7  2  0
 23 17  1  0
 15  9  1  0
  1 29  1  0
  1 30  1  0
  1 31  1  0
  4 32  1  0
  5 33  1  0
 11 34  1  0
 11 35  1  0
 11 36  1  0
 12 37  1  0
 13 38  1  0
 14 39  1  0
 17 40  1  1
 19 41  1  0
 19 42  1  0
 19 43  1  0
 22 44  1  0
 22 45  1  0
 23 46  1  6
 25 47  1  0
 27 48  1  0
 28 49  1  0
M  CHG  2  22   1  25  -1
M  END
>  <UniqueID>  (27) 
25

>  <SMILES>  (27) 
COc1ccc(-c2nc3c(C)cccn3c2[C@@H]2C(C)=NC(=[NH2+])[C@H]2C([NH-])=O)cc1

>  <Energy>  (27) 
97.41545894989545

>  <Genealogy>  (27) 
COc1ccc(-c2nc3c(C)cccn3c2C2C(C)=NC(=[NH2+])C2C([NH-])=O)cc1 (protonated)
COc1ccc(-c2nc3c(C)cccn3c2[C@@H]2C(C)=NC(=[NH2+])[C@H]2C([NH-])=O)cc1 (chirality)
COc1ccc(-c2nc3c(C)cccn3c2[C@@H]2C(C)=NC(=[NH2+])[C@H]2C([NH-])=O)cc1 (3D coordinates assigned)
COc1ccc(-c2nc3c(C)cccn3c2[C@@H]2C(C)=NC(=[NH2+])[C@H]2C([NH-])=O)cc1 (nonaromatic ring conformer: 97.41545894989545 kcal/mol)

>  <smiles>  (27) 
COc1ccc(-c2nc3c(C)cccn3c2C2C(C)=NC(=N)C2C(N)=O)cc1

>  <score_type>  (27) 
oracle

>  <origin>  (27) 
adg

>  <m_score__min__energy>  (27) 
-9.8900000000000006

>  <m_primary>  (27) 
energy

$$$$
27:0
     RDKit          3D

 30 31  0  0  0  0  0  0  0  0999 V2000
   57.3830   31.5520   42.3140 C   0  0  0  0  0  0  0  0  0  0  0  0
   57.3330   30.2630   43.0190 N   0  0  0  0  0  0  0  0  0  0  0  0
   56.3110   29.3900   42.4240 C   0  0  0  0  0  0  0  0  0  0  0  0
   56.9840   30.5250   44.7100 S   0  0  0  0  0  0  0  0  0  0  0  0
   56.4480   29.2540   45.3100 O   0  0  0  0  0  0  0  0  0  0  0  0
   55.9320   31.5880   44.8680 O   0  0  0  0  0  0  0  0  0  0  0  0
   58.4580   31.0210   45.5730 C   0  0  0  0  0  0  0  0  0  0  0  0
   59.2620   30.0130   46.1240 C   0  0  0  0  0  0  0  0  0  0  0  0
   60.4350   30.3240   46.8060 C   0  0  0  0  0  0  0  0  0  0  0  0
   60.8430   31.6480   46.9520 C   0  0  0  0  0  0  0  0  0  0  0  0
   62.4800   31.9580   47.9110 Br  0  0  0  0  0  0  0  0  0  0  0  0
   60.0640   32.6900   46.4030 C   0  0  0  0  0  0  0  0  0  0  0  0
   60.4620   34.0360   46.5330 C   0  0  0  0  0  0  0  0  0  0  0  0
   59.6920   35.0600   45.9830 C   0  0  0  0  0  0  0  0  0  0  0  0
   58.5200   34.7620   45.2970 C   0  0  0  0  0  0  0  0  0  0  0  0
   58.1040   33.4390   45.1550 C   0  0  0  0  0  0  0  0  0  0  0  0
   58.8600   32.3790   45.7030 C   0  0  0  0  0  0  0  0  0  0  0  0
   57.4147   32.3705   43.0482 H   0  0  0  0  0  0  0  0  0  0  0  0
   58.2833   31.5902   41.6831 H   0  0  0  0  0  0  0  0  0  0  0  0
   56.4884   31.6598   41.6831 H   0  0  0  0  0  0  0  0  0  0  0  0
   58.2640   29.7960   42.9290 H   0  0  0  0  0  0  0  0  0  0  0  0
   55.7369   28.8996   43.2239 H   0  0  0  0  0  0  0  0  0  0  0  0
   55.6323   29.9915   41.8014 H   0  0  0  0  0  0  0  0  0  0  0  0
   56.7990   28.6256   41.8014 H   0  0  0  0  0  0  0  0  0  0  0  0
   58.9613   28.9605   46.0157 H   0  0  0  0  0  0  0  0  0  0  0  0
   61.0462   29.5158   47.2341 H   0  0  0  0  0  0  0  0  0  0  0  0
   61.3884   34.2807   47.0732 H   0  0  0  0  0  0  0  0  0  0  0  0
   60.0127   36.1065   46.0921 H   0  0  0  0  0  0  0  0  0  0  0  0
   57.9178   35.5744   44.8640 H   0  0  0  0  0  0  0  0  0  0  0  0
   57.1750   33.2177   44.6091 H   0  0  0  0  0  0  0  0  0  0  0  0
  1  2  1  0
  2  3  1  0
  2  4  1  0
  4  5  2  0
  4  6  2  0
  4  7  1  0
  7  8  2  0
  8  9  1  0
  9 10  2  0
 10 11  1  0
 10 12  1  0
 12 13  2  0
 13 14  1  0
 14 15  2  0
 15 16  1  0
 16 17  2  0
 17  7  1  0
 17 12  1  0
  1 18  1  0
  1 19  1  0
  1 20  1  0
  2 21  1  0
  3 22  1  0
  3 23  1  0
  3 24  1  0
  8 25  1  0
  9 26  1  0
 13 27  1  0
 14 28  1  0
 15 29  1  0
 16 30  1  0
M  CHG  1   2   1
M  END
>  <UniqueID>  (28) 
26

>  <SMILES>  (28) 
C[NH+](C)S(=O)(=O)c1ccc(Br)c2ccccc12

>  <Energy>  (28) 
36.12114247206321

>  <Genealogy>  (28) 
C[NH+](C)S(=O)(=O)c1ccc(Br)c2ccccc12 (protonated)
C[NH+](C)S(=O)(=O)c1ccc(Br)c2ccccc12 (3D coordinates assigned)
C[NH+](C)S(=O)(=O)c1ccc(Br)c2ccccc12 (optimized conformer: 36.12114247206321 kcal/mol)

>  <smiles>  (28) 
CN(C)S(=O)(=O)c1ccc(Br)c2ccccc12

>  <score_type>  (28) 
oracle

>  <origin>  (28) 
adg

>  <m_score__min__energy>  (28) 
-6.4400000000000004

>  <m_primary>  (28) 
energy

$$$$
28:0
     RDKit          3D

 35 37  0  0  0  0  0  0  0  0999 V2000
   59.7640   29.3160   44.5110 C   0  0  0  0  0  0  0  0  0  0  0  0
   59.2910   28.9420   45.8410 N   0  0  0  0  0  0  0  0  0  0  0  0
   59.9650   29.1240   46.9930 C   0  0  0  0  0  0  0  0  0  0  0  0
   59.2520   28.5870   48.0450 C   0  0  0  0  0  0  0  0  0  0  0  0
   58.1000   28.0440   47.5090 C   0  0  0  0  0  0  0  0  0  0  0  0
   58.1600   28.2690   46.1470 C   0  0  0  0  0  0  0  0  0  0  0  0
   57.1550   27.7680   45.1460 C   0  0  0  0  0  0  0  0  0  0  0  0
   56.0710   28.7500   44.9620 N   0  0  0  0  0  0  0  0  0  0  0  0
   56.1800   29.4840   43.6910 C   0  0  0  0  0  0  0  0  0  0  0  0
   56.9210   30.7740   43.8760 C   0  0  0  0  0  0  0  0  0  0  0  0
   57.4260   31.5810   42.8790 C   0  0  0  0  0  0  0  0  0  0  0  0
   58.0540   32.5800   43.4560 O   0  0  0  0  0  0  0  0  0  0  0  0
   57.9500   32.4120   44.7570 C   0  0  0  0  0  0  0  0  0  0  0  0
   58.5640   33.3080   45.7440 C   0  0  0  0  0  0  0  0  0  0  0  0
   59.1980   34.5170   45.4810 C   0  0  0  0  0  0  0  0  0  0  0  0
   59.6590   35.1590   46.6360 C   0  0  0  0  0  0  0  0  0  0  0  0
   59.3870   34.4630   47.8080 C   0  0  0  0  0  0  0  0  0  0  0  0
   58.5720   33.0490   47.4040 S   0  0  0  0  0  0  0  0  0  0  0  0
   57.2380   31.3100   45.0670 N   0  0  0  0  0  0  0  0  0  0  0  0
   60.6237   29.9957   44.6053 H   0  0  0  0  0  0  0  0  0  0  0  0
   60.0694   28.4125   43.9629 H   0  0  0  0  0  0  0  0  0  0  0  0
   58.9552   29.8215   43.9629 H   0  0  0  0  0  0  0  0  0  0  0  0
   60.9395   29.6264   47.0818 H   0  0  0  0  0  0  0  0  0  0  0  0
   59.5441   28.5905   49.1055 H   0  0  0  0  0  0  0  0  0  0  0  0
   57.2947   27.5337   48.0578 H   0  0  0  0  0  0  0  0  0  0  0  0
   57.6578   27.6000   44.1822 H   0  0  0  0  0  0  0  0  0  0  0  0
   56.7220   26.8280   45.5187 H   0  0  0  0  0  0  0  0  0  0  0  0
   55.1710   28.2170   44.9310 H   0  0  0  0  0  0  0  0  0  0  0  0
   56.7186   28.8615   42.9614 H   0  0  0  0  0  0  0  0  0  0  0  0
   55.1661   29.7115   43.3303 H   0  0  0  0  0  0  0  0  0  0  0  0
   57.3219   31.4179   41.7962 H   0  0  0  0  0  0  0  0  0  0  0  0
   59.3244   34.9272   44.4682 H   0  0  0  0  0  0  0  0  0  0  0  0
   60.1870   36.1238   46.6180 H   0  0  0  0  0  0  0  0  0  0  0  0
   59.6583   34.7824   48.8250 H   0  0  0  0  0  0  0  0  0  0  0  0
   57.0080   30.9340   46.0130 H   0  0  0  0  0  0  0  0  0  0  0  0
  1  2  1  0
  2  3  1  0
  3  4  2  0
  4  5  1  0
  5  6  2  0
  6  7  1  0
  7  8  1  0
  8  9  1  0
  9 10  1  0
 10 11  2  0
 11 12  1  0
 12 13  1  0
 13 14  1  0
 14 15  2  0
 15 16  1  0
 16 17  2  0
 17 18  1  0
 13 19  2  0
  6  2  1  0
 19 10  1  0
 18 14  1  0
  1 20  1  0
  1 21  1  0
  1 22  1  0
  3 23  1  0
  4 24  1  0
  5 25  1  0
  7 26  1  0
  7 27  1  0
  8 28  1  0
  9 29  1  0
  9 30  1  0
 11 31  1  0
 15 32  1  0
 16 33  1  0
 17 34  1  0
 19 35  1  0
M  CHG  1  19   1
M  END
>  <UniqueID>  (29) 
27

>  <SMILES>  (29) 
Cn1cccc1CNCc1coc(-c2cccs2)[nH+]1

>  <Energy>  (29) 
113.25220322554127

>  <Genealogy>  (29) 
Cn1cccc1CNCc1coc(-c2cccs2)[nH+]1 (protonated)
Cn1cccc1CNCc1coc(-c2cccs2)[nH+]1 (3D coordinates assigned)
Cn1cccc1CNCc1coc(-c2cccs2)[nH+]1 (optimized conformer: 113.25220322554127 kcal/mol)

>  <smiles>  (29) 
Cn1cccc1CNCc1coc(-c2cccs2)n1

>  <score_type>  (29) 
oracle

>  <origin>  (29) 
adg

>  <m_score__min__energy>  (29) 
-5.4800000000000004

>  <m_primary>  (29) 
energy

$$$$
29:0
     RDKit          3D

 37 39  0  0  0  0  0  0  0  0999 V2000
   63.4470   31.9570   47.1240 C   0  0  0  0  0  0  0  0  0  0  0  0
   62.7890   33.2860   47.3350 C   0  0  0  0  0  0  0  0  0  0  0  0
   62.9650   34.1920   46.4770 O   0  0  0  0  0  0  0  0  0  0  0  0
   61.8860   33.5260   48.4930 C   0  0  0  0  0  0  0  0  0  0  0  0
   62.4290   33.5300   49.7930 C   0  0  0  0  0  0  0  0  0  0  0  0
   61.6040   33.6790   50.9090 C   0  0  0  0  0  0  0  0  0  0  0  0
   60.2280   33.8220   50.7500 C   0  0  0  0  0  0  0  0  0  0  0  0
   59.6700   33.8320   49.4710 C   0  0  0  0  0  0  0  0  0  0  0  0
   60.4840   33.6960   48.3330 C   0  0  0  0  0  0  0  0  0  0  0  0
   59.8460   33.7940   46.9990 C   0  0  0  0  0  0  0  0  0  0  0  0
   59.8480   35.0100   46.2990 C   0  0  0  0  0  0  0  0  0  0  0  0
   59.2280   35.1060   45.0510 C   0  0  0  0  0  0  0  0  0  0  0  0
   58.5950   33.9920   44.4950 C   0  0  0  0  0  0  0  0  0  0  0  0
   58.5720   32.7660   45.1840 C   0  0  0  0  0  0  0  0  0  0  0  0
   57.8970   31.5820   44.5930 C   0  0  0  0  0  0  0  0  0  0  0  0
   57.3990   31.6250   43.2770 C   0  0  0  0  0  0  0  0  0  0  0  0
   56.7640   30.5090   42.7240 C   0  0  0  0  0  0  0  0  0  0  0  0
   56.6180   29.3420   43.4760 C   0  0  0  0  0  0  0  0  0  0  0  0
   57.1090   29.2860   44.7830 C   0  0  0  0  0  0  0  0  0  0  0  0
   57.7450   30.3990   45.3400 C   0  0  0  0  0  0  0  0  0  0  0  0
   59.1980   32.6790   46.4410 C   0  0  0  0  0  0  0  0  0  0  0  0
   63.6729   31.5008   48.0991 H   0  0  0  0  0  0  0  0  0  0  0  0
   62.7708   31.2986   46.5590 H   0  0  0  0  0  0  0  0  0  0  0  0
   64.3806   32.0956   46.5590 H   0  0  0  0  0  0  0  0  0  0  0  0
   63.5143   33.4145   49.9299 H   0  0  0  0  0  0  0  0  0  0  0  0
   62.0424   33.6835   51.9178 H   0  0  0  0  0  0  0  0  0  0  0  0
   59.5806   33.9271   51.6331 H   0  0  0  0  0  0  0  0  0  0  0  0
   58.5826   33.9474   49.3521 H   0  0  0  0  0  0  0  0  0  0  0  0
   60.3401   35.8919   46.7351 H   0  0  0  0  0  0  0  0  0  0  0  0
   59.2383   36.0609   44.5050 H   0  0  0  0  0  0  0  0  0  0  0  0
   58.1108   34.0741   43.5107 H   0  0  0  0  0  0  0  0  0  0  0  0
   57.5102   32.5423   42.6802 H   0  0  0  0  0  0  0  0  0  0  0  0
   56.3787   30.5506   41.6945 H   0  0  0  0  0  0  0  0  0  0  0  0
   56.1161   28.4659   43.0394 H   0  0  0  0  0  0  0  0  0  0  0  0
   56.9949   28.3653   45.3740 H   0  0  0  0  0  0  0  0  0  0  0  0
   58.1294   30.3500   46.3695 H   0  0  0  0  0  0  0  0  0  0  0  0
   59.1800   31.7277   46.9930 H   0  0  0  0  0  0  0  0  0  0  0  0
  1  2  1  0
  2  3  2  0
  2  4  1  0
  4  5  2  0
  5  6  1  0
  6  7  2  0
  7  8  1  0
  8  9  2  0
  9 10  1  0
 10 11  2  0
 11 12  1  0
 12 13  2  0
 13 14  1  0
 14 15  1  0
 15 16  2  0
 16 17  1  0
 17 18  2  0
 18 19  1  0
 19 20  2  0
 14 21  2  0
  9  4  1  0
 21 10  1  0
 20 15  1  0
  1 22  1  0
  1 23  1  0
  1 24  1  0
  5 25  1  0
  6 26  1  0
  7 27  1  0
  8 28  1  0
 11 29  1  0
 12 30  1  0
 13 31  1  0
 16 32  1  0
 17 33  1  0
 18 34  1  0
 19 35  1  0
 20 36  1  0
 21 37  1  0
M  END
>  <UniqueID>  (30) 
28

>  <SMILES>  (30) 
CC(=O)c1ccccc1-c1cccc(-c2ccccc2)c1

>  <Energy>  (30) 
55.07610746512036

>  <Genealogy>  (30) 
CC(=O)c1ccccc1-c1cccc(-c2ccccc2)c1 (3D coordinates assigned)
CC(=O)c1ccccc1-c1cccc(-c2ccccc2)c1 (optimized conformer: 55.07610746512036 kcal/mol)

>  <smiles>  (30) 
CC(=O)c1ccccc1-c1cccc(-c2ccccc2)c1

>  <score_type>  (30) 
oracle

>  <origin>  (30) 
adg

>  <m_score__min__energy>  (30) 
-8.1999999999999993

>  <m_primary>  (30) 
energy

$$$$
30:0
     RDKit          3D

 56 60  0  0  0  0  0  0  0  0999 V2000
   56.6400   30.3580   43.3630 C   0  0  0  0  0  0  0  0  0  0  0  0
   56.4920   31.1520   44.5350 O   0  0  0  0  0  0  0  0  0  0  0  0
   57.4190   32.1140   44.9610 C   0  0  0  0  0  0  0  0  0  0  0  0
   57.3920   33.4520   44.4980 C   0  0  0  0  0  0  0  0  0  0  0  0
   58.3440   34.3770   44.9510 C   0  0  0  0  0  0  0  0  0  0  0  0
   59.3120   33.9580   45.8640 C   0  0  0  0  0  0  0  0  0  0  0  0
   59.3380   32.6680   46.3280 C   0  0  0  0  0  0  0  0  0  0  0  0
   58.4060   31.7250   45.8830 C   0  0  0  0  0  0  0  0  0  0  0  0
   60.4490   32.4390   47.2960 C   0  0  2  0  0  0  0  0  0  0  0  0
   59.9190   32.1180   48.6390 N   0  0  0  0  0  0  0  0  0  0  0  0
   60.1190   30.6970   48.9740 C   0  0  0  0  0  0  0  0  0  0  0  0
   58.9060   29.8100   48.6100 C   0  0  0  0  0  0  0  0  0  0  0  0
   59.0620   28.7790   47.4430 C   0  0  1  0  0  0  0  0  0  0  0  0
   59.3190   27.3380   47.9830 C   0  0  0  0  0  0  0  0  0  0  0  0
   59.5390   26.3560   46.8110 C   0  0  2  0  0  0  0  0  0  0  0  0
   60.7700   26.7940   45.9920 C   0  0  0  0  0  0  0  0  0  0  0  0
   60.5330   28.2110   45.4310 C   0  0  1  0  0  0  0  0  0  0  0  0
   59.2900   28.2060   44.5190 C   0  0  0  0  0  0  0  0  0  0  0  0
   58.0560   27.7680   45.3330 C   0  0  1  0  0  0  0  0  0  0  0  0
   58.2910   26.3500   45.9010 C   0  0  0  0  0  0  0  0  0  0  0  0
   57.8240   28.7550   46.4980 C   0  0  0  0  0  0  0  0  0  0  0  0
   60.3070   29.1950   46.5990 C   0  0  0  0  0  0  0  0  0  0  0  0
   61.2200   33.7880   47.2760 C   0  0  0  0  0  0  0  0  0  0  0  0
   60.3950   34.7830   46.4400 C   0  0  0  0  0  0  0  0  0  0  0  0
   56.8346   29.3140   43.6496 H   0  0  0  0  0  0  0  0  0  0  0  0
   55.7169   30.4086   42.7668 H   0  0  0  0  0  0  0  0  0  0  0  0
   57.4828   30.7378   42.7668 H   0  0  0  0  0  0  0  0  0  0  0  0
   56.6208   33.7673   43.7798 H   0  0  0  0  0  0  0  0  0  0  0  0
   58.3276   35.4166   44.5920 H   0  0  0  0  0  0  0  0  0  0  0  0
   58.4450   30.6891   46.2509 H   0  0  0  0  0  0  0  0  0  0  0  0
   61.0927   31.5860   47.0352 H   0  0  0  0  0  0  0  0  0  0  0  0
   60.3710   32.7360   49.3550 H   0  0  0  0  0  0  0  0  0  0  0  0
   58.8900   32.3000   48.6340 H   0  0  0  0  0  0  0  0  0  0  0  0
   60.9987   30.3288   48.4257 H   0  0  0  0  0  0  0  0  0  0  0  0
   60.2557   30.6336   50.0636 H   0  0  0  0  0  0  0  0  0  0  0  0
   58.6362   29.2416   49.5123 H   0  0  0  0  0  0  0  0  0  0  0  0
   58.1510   30.5212   48.2437 H   0  0  0  0  0  0  0  0  0  0  0  0
   58.4493   27.0109   48.5717 H   0  0  0  0  0  0  0  0  0  0  0  0
   60.2198   27.3484   48.6142 H   0  0  0  0  0  0  0  0  0  0  0  0
   59.7070   25.3449   47.2102 H   0  0  0  0  0  0  0  0  0  0  0  0
   60.9267   26.0913   45.1603 H   0  0  0  0  0  0  0  0  0  0  0  0
   61.6596   26.7985   46.6389 H   0  0  0  0  0  0  0  0  0  0  0  0
   61.4124   28.5243   44.8491 H   0  0  0  0  0  0  0  0  0  0  0  0
   59.4485   27.5038   43.6872 H   0  0  0  0  0  0  0  0  0  0  0  0
   59.1250   29.2174   44.1192 H   0  0  0  0  0  0  0  0  0  0  0  0
   57.1719   27.7618   44.6785 H   0  0  0  0  0  0  0  0  0  0  0  0
   58.4464   25.6446   45.0714 H   0  0  0  0  0  0  0  0  0  0  0  0
   57.4130   26.0415   46.4875 H   0  0  0  0  0  0  0  0  0  0  0  0
   56.9381   28.4402   47.0690 H   0  0  0  0  0  0  0  0  0  0  0  0
   57.6693   29.7633   46.0864 H   0  0  0  0  0  0  0  0  0  0  0  0
   61.1967   29.1969   47.2459 H   0  0  0  0  0  0  0  0  0  0  0  0
   60.1319   30.1988   46.1847 H   0  0  0  0  0  0  0  0  0  0  0  0
   61.3385   34.1676   48.3016 H   0  0  0  0  0  0  0  0  0  0  0  0
   62.2212   33.6544   46.8404 H   0  0  0  0  0  0  0  0  0  0  0  0
   59.9826   35.5800   47.0763 H   0  0  0  0  0  0  0  0  0  0  0  0
   60.9964   35.2881   45.6698 H   0  0  0  0  0  0  0  0  0  0  0  0
  1  2  1  0
  2  3  1  0
  3  4  1  0
  4  5  2  0
  5  6  1  0
  6  7  2  0
  7  8  1  0
  7  9  1  0
  9 10  1  0
 10 11  1  0
 11 12  1  0
 13 12  1  1
 13 14  1  0
 14 15  1  0
 15 16  1  0
 16 17  1  0
 17 18  1  0
 18 19  1  0
 19 20  1  0
 19 21  1  0
 17 22  1  0
  9 23  1  0
 23 24  1  0
  8  3  2  0
 21 13  1  0
 24  6  1  0
 22 13  1  0
 20 15  1  0
  1 25  1  0
  1 26  1  0
  1 27  1  0
  4 28  1  0
  5 29  1  0
  8 30  1  0
  9 31  1  6
 10 32  1  0
 10 33  1  0
 11 34  1  0
 11 35  1  0
 12 36  1  0
 12 37  1  0
 14 38  1  0
 14 39  1  0
 15 40  1  1
 16 41  1  0
 16 42  1  0
 17 43  1  6
 18 44  1  0
 18 45  1  0
 19 46  1  6
 20 47  1  0
 20 48  1  0
 21 49  1  0
 21 50  1  0
 22 51  1  0
 22 52  1  0
 23 53  1  0
 23 54  1  0
 24 55  1  0
 24 56  1  0
M  CHG  1  10   1
M  END
>  <UniqueID>  (31) 
29

>  <SMILES>  (31) 
COc1ccc2c(c1)[C@H]([NH2+]CCC13CC4CC(CC(C4)C1)C3)CC2

>  <Energy>  (31) 
67.85342943976607

>  <Genealogy>  (31) 
COc1ccc2c(c1)C([NH2+]CCC13CC4CC(CC(C4)C1)C3)CC2 (protonated)
COc1ccc2c(c1)[C@H]([NH2+]CCC13CC4CC(CC(C4)C1)C3)CC2 (chirality)
COc1ccc2c(c1)[C@H]([NH2+]CCC13CC4CC(CC(C4)C1)C3)CC2 (3D coordinates assigned)
COc1ccc2c(c1)[C@H]([NH2+]CCC13CC4CC(CC(C4)C1)C3)CC2 (nonaromatic ring conformer: 67.85342943976607 kcal/mol)

>  <smiles>  (31) 
COc1ccc2c(c1)C(NCCC13CC4CC(CC(C4)C1)C3)CC2

>  <score_type>  (31) 
oracle

>  <origin>  (31) 
adg

>  <m_score__min__energy>  (31) 
-7.7800000000000002

>  <m_primary>  (31) 
energy

$$$$
31:0
     RDKit          3D

 36 36  0  0  0  0  0  0  0  0999 V2000
   60.0860   30.3970   47.2230 C   0  0  0  0  0  0  0  0  0  0  0  0
   58.9350   31.3000   47.6520 C   0  0  0  0  0  0  0  0  0  0  0  0
   58.8260   32.5000   46.7420 C   0  0  0  0  0  0  0  0  0  0  0  0
   59.5880   33.6470   47.0190 C   0  0  0  0  0  0  0  0  0  0  0  0
   59.5180   34.7610   46.1820 C   0  0  0  0  0  0  0  0  0  0  0  0
   58.6980   34.7370   45.0540 C   0  0  0  0  0  0  0  0  0  0  0  0
   57.9460   33.5970   44.7580 C   0  0  0  0  0  0  0  0  0  0  0  0
   58.0000   32.4670   45.5980 C   0  0  0  0  0  0  0  0  0  0  0  0
   57.2720   31.2950   45.3250 O   0  0  0  0  0  0  0  0  0  0  0  0
   57.1650   30.6400   44.0590 C   0  0  0  0  0  0  0  0  0  0  0  0
   56.3750   29.3230   44.1660 C   0  0  2  0  0  0  0  0  0  0  0  0
   55.4100   29.4130   45.1800 O   0  0  0  0  0  0  0  0  0  0  0  0
   57.3130   28.1380   44.4450 C   0  0  0  0  0  0  0  0  0  0  0  0
   57.2280   27.7280   45.8490 N   0  0  0  0  0  0  0  0  0  0  0  0
   57.5880   28.6160   46.8090 O   0  0  0  0  0  0  0  0  0  0  0  0
   56.7190   26.4370   46.2310 C   0  0  0  0  0  0  0  0  0  0  0  0
   57.5770   25.4700   46.8390 N   0  0  0  0  0  0  0  0  0  0  0  0
   55.5070   26.1490   46.0380 O   0  0  0  0  0  0  0  0  0  0  0  0
   60.5924   29.9997   48.1150 H   0  0  0  0  0  0  0  0  0  0  0  0
   59.6936   29.5633   46.6222 H   0  0  0  0  0  0  0  0  0  0  0  0
   60.8024   30.9765   46.6222 H   0  0  0  0  0  0  0  0  0  0  0  0
   57.9951   30.7300   47.6111 H   0  0  0  0  0  0  0  0  0  0  0  0
   59.1260   31.6512   48.6768 H   0  0  0  0  0  0  0  0  0  0  0  0
   60.2442   33.6671   47.9016 H   0  0  0  0  0  0  0  0  0  0  0  0
   60.1101   35.6591   46.4119 H   0  0  0  0  0  0  0  0  0  0  0  0
   58.6432   35.6170   44.3963 H   0  0  0  0  0  0  0  0  0  0  0  0
   57.3072   33.5817   43.8626 H   0  0  0  0  0  0  0  0  0  0  0  0
   56.6499   31.3087   43.3537 H   0  0  0  0  0  0  0  0  0  0  0  0
   58.1802   30.4041   43.7074 H   0  0  0  0  0  0  0  0  0  0  0  0
   55.8725   29.1516   43.2026 H   0  0  0  0  0  0  0  0  0  0  0  0
   55.8800   29.7210   45.9990 H   0  0  0  0  0  0  0  0  0  0  0  0
   57.0256   27.2916   43.8039 H   0  0  0  0  0  0  0  0  0  0  0  0
   58.3464   28.4473   44.2294 H   0  0  0  0  0  0  0  0  0  0  0  0
   57.2110   29.4830   46.5100 H   0  0  0  0  0  0  0  0  0  0  0  0
   58.5870   25.6750   47.0110 H   0  0  0  0  0  0  0  0  0  0  0  0
   57.2010   24.5370   47.1180 H   0  0  0  0  0  0  0  0  0  0  0  0
  1  2  1  0
  2  3  1  0
  3  4  2  0
  4  5  1  0
  5  6  2  0
  6  7  1  0
  7  8  2  0
  8  9  1  0
  9 10  1  0
 10 11  1  0
 11 12  1  0
 11 13  1  0
 13 14  1  0
 14 15  1  0
 14 16  1  0
 16 17  1  0
 16 18  2  0
  8  3  1  0
  1 19  1  0
  1 20  1  0
  1 21  1  0
  2 22  1  0
  2 23  1  0
  4 24  1  0
  5 25  1  0
  6 26  1  0
  7 27  1  0
 10 28  1  0
 10 29  1  0
 11 30  1  6
 12 31  1  0
 13 32  1  0
 13 33  1  0
 15 34  1  0
 17 35  1  0
 17 36  1  0
M  END
>  <UniqueID>  (32) 
30

>  <SMILES>  (32) 
CCc1ccccc1OC[C@H](O)CN(O)C(N)=O

>  <Energy>  (32) 
25.578016666505487

>  <Genealogy>  (32) 
CCc1ccccc1OC[C@H](O)CN(O)C(N)=O (chirality)
CCc1ccccc1OC[C@H](O)CN(O)C(N)=O (3D coordinates assigned)
CCc1ccccc1OC[C@H](O)CN(O)C(N)=O (optimized conformer: 25.578016666505487 kcal/mol)

>  <smiles>  (32) 
CCc1ccccc1OCC(O)CN(O)C(N)=O

>  <score_type>  (32) 
oracle

>  <origin>  (32) 
adg

>  <m_score__min__energy>  (32) 
-6.8700000000000001

>  <m_primary>  (32) 
energy

$$$$
32:0
     RDKit          3D

 44 46  0  0  0  0  0  0  0  0999 V2000
   55.2320   25.0090   45.6350 C   0  0  0  0  0  0  0  0  0  0  0  0
   55.3600   26.3930   45.9420 O   0  0  0  0  0  0  0  0  0  0  0  0
   56.5820   27.0800   46.0210 C   0  0  0  0  0  0  0  0  0  0  0  0
   57.7190   26.5140   46.6320 C   0  0  0  0  0  0  0  0  0  0  0  0
   58.9150   27.2310   46.6940 C   0  0  0  0  0  0  0  0  0  0  0  0
   58.9940   28.5160   46.1510 C   0  0  0  0  0  0  0  0  0  0  0  0
   60.5290   29.4390   46.2570 S   0  0  0  0  0  0  0  0  0  0  0  0
   59.7330   30.8300   47.0700 C   0  0  0  0  0  0  0  0  0  0  0  0
   59.4250   31.9200   46.3200 N   0  0  0  0  0  0  0  0  0  0  0  0
   58.8520   33.0250   46.8640 C   0  0  0  0  0  0  0  0  0  0  0  0
   58.5520   34.2170   45.9960 C   0  0  0  0  0  0  0  0  0  0  0  0
   58.3600   33.7800   44.5400 C   0  0  0  0  0  0  0  0  0  0  0  0
   59.6600   35.2670   46.1130 C   0  0  0  0  0  0  0  0  0  0  0  0
   58.5810   33.0580   48.1950 N   0  0  0  0  0  0  0  0  0  0  0  0
   58.8580   31.9980   48.9970 C   0  0  0  0  0  0  0  0  0  0  0  0
   58.5630   32.0620   50.3630 C   0  0  0  0  0  0  0  0  0  0  0  0
   58.8430   30.9710   51.1920 C   0  0  0  0  0  0  0  0  0  0  0  0
   59.4140   29.8130   50.6570 C   0  0  0  0  0  0  0  0  0  0  0  0
   59.7120   29.7390   49.2930 C   0  0  0  0  0  0  0  0  0  0  0  0
   59.4440   30.8340   48.4500 C   0  0  0  0  0  0  0  0  0  0  0  0
   57.8740   29.0820   45.5340 C   0  0  0  0  0  0  0  0  0  0  0  0
   56.6600   28.3700   45.4710 C   0  0  0  0  0  0  0  0  0  0  0  0
   55.5100   28.9110   44.8730 O   0  0  0  0  0  0  0  0  0  0  0  0
   55.5220   29.7630   43.7310 C   0  0  0  0  0  0  0  0  0  0  0  0
   55.1784   24.4298   46.5686 H   0  0  0  0  0  0  0  0  0  0  0  0
   54.3150   24.8466   45.0496 H   0  0  0  0  0  0  0  0  0  0  0  0
   56.1037   24.6811   45.0496 H   0  0  0  0  0  0  0  0  0  0  0  0
   57.6636   25.5030   47.0618 H   0  0  0  0  0  0  0  0  0  0  0  0
   59.7985   26.7828   47.1721 H   0  0  0  0  0  0  0  0  0  0  0  0
   57.6154   34.6766   46.3446 H   0  0  0  0  0  0  0  0  0  0  0  0
   57.9177   32.7732   44.5147 H   0  0  0  0  0  0  0  0  0  0  0  0
   57.6900   34.4878   44.0300 H   0  0  0  0  0  0  0  0  0  0  0  0
   59.3345   33.7653   44.0300 H   0  0  0  0  0  0  0  0  0  0  0  0
   59.8678   35.4640   47.1751 H   0  0  0  0  0  0  0  0  0  0  0  0
   60.5719   34.8938   45.6240 H   0  0  0  0  0  0  0  0  0  0  0  0
   59.3363   36.1977   45.6240 H   0  0  0  0  0  0  0  0  0  0  0  0
   58.1104   32.9712   50.7854 H   0  0  0  0  0  0  0  0  0  0  0  0
   58.6135   31.0244   52.2665 H   0  0  0  0  0  0  0  0  0  0  0  0
   59.6299   28.9560   51.3119 H   0  0  0  0  0  0  0  0  0  0  0  0
   60.1570   28.8228   48.8776 H   0  0  0  0  0  0  0  0  0  0  0  0
   57.9412   30.0886   45.0955 H   0  0  0  0  0  0  0  0  0  0  0  0
   55.5368   30.8134   44.0573 H   0  0  0  0  0  0  0  0  0  0  0  0
   56.4173   29.5540   43.1270 H   0  0  0  0  0  0  0  0  0  0  0  0
   54.6212   29.5793   43.1270 H   0  0  0  0  0  0  0  0  0  0  0  0
  1  2  1  0
  2  3  1  0
  3  4  2  0
  4  5  1  0
  5  6  2  0
  6  7  1  0
  7  8  1  0
  8  9  2  0
  9 10  1  0
 10 11  1  0
 11 12  1  0
 11 13  1  0
 10 14  2  0
 14 15  1  0
 15 16  2  0
 16 17  1  0
 17 18  2  0
 18 19  1  0
 19 20  2  0
  6 21  1  0
 21 22  2  0
 22 23  1  0
 23 24  1  0
 22  3  1  0
 20  8  1  0
 20 15  1  0
  1 25  1  0
  1 26  1  0
  1 27  1  0
  4 28  1  0
  5 29  1  0
 11 30  1  0
 12 31  1  0
 12 32  1  0
 12 33  1  0
 13 34  1  0
 13 35  1  0
 13 36  1  0
 16 37  1  0
 17 38  1  0
 18 39  1  0
 19 40  1  0
 21 41  1  0
 24 42  1  0
 24 43  1  0
 24 44  1  0
M  END
>  <UniqueID>  (33) 
31

>  <SMILES>  (33) 
COc1ccc(Sc2nc(C(C)C)nc3ccccc23)cc1OC

>  <Energy>  (33) 
39.5703126028351

>  <Genealogy>  (33) 
COc1ccc(Sc2nc(C(C)C)nc3ccccc23)cc1OC (3D coordinates assigned)
COc1ccc(Sc2nc(C(C)C)nc3ccccc23)cc1OC (optimized conformer: 39.5703126028351 kcal/mol)

>  <smiles>  (33) 
COc1ccc(Sc2nc(C(C)C)nc3ccccc23)cc1OC

>  <score_type>  (33) 
oracle

>  <origin>  (33) 
adg

>  <m_score__min__energy>  (33) 
-8.4299999999999997

>  <m_primary>  (33) 
energy

$$$$
33:0
     RDKit          3D

 46 48  0  0  0  0  0  0  0  0999 V2000
   55.0990   25.2530   45.7410 C   0  0  0  0  0  0  0  0  0  0  0  0
   55.2290   26.6840   45.9870 N   0  0  0  0  0  0  0  0  0  0  0  0
   56.8880   27.1630   45.8050 S   0  0  0  0  0  0  0  0  0  0  0  0
   57.5350   26.3100   44.7490 O   0  0  0  0  0  0  0  0  0  0  0  0
   57.6230   26.9550   47.0990 O   0  0  0  0  0  0  0  0  0  0  0  0
   56.9860   28.8530   45.3140 C   0  0  0  0  0  0  0  0  0  0  0  0
   56.1710   29.3410   44.2610 C   0  0  0  0  0  0  0  0  0  0  0  0
   56.2550   30.6860   43.8520 C   0  0  0  0  0  0  0  0  0  0  0  0
   57.1630   31.5110   44.5090 C   0  0  0  0  0  0  0  0  0  0  0  0
   57.3970   32.7890   44.2810 O   0  0  0  0  0  0  0  0  0  0  0  0
   58.3320   33.1570   45.1340 C   0  0  0  0  0  0  0  0  0  0  0  0
   58.9060   34.4160   45.2720 C   0  0  0  0  0  0  0  0  0  0  0  0
   59.8960   34.5880   46.2570 C   0  0  0  0  0  0  0  0  0  0  0  0
   60.2990   33.5050   47.0860 C   0  0  0  0  0  0  0  0  0  0  0  0
   61.3400   33.6960   48.1180 C   0  0  0  0  0  0  0  0  0  0  0  0
   61.1760   34.5510   49.0320 O   0  0  0  0  0  0  0  0  0  0  0  0
   62.5110   32.9270   48.0760 O   0  0  0  0  0  0  0  0  0  0  0  0
   63.8180   33.4880   47.9820 C   0  0  0  0  0  0  0  0  0  0  0  0
   64.5420   33.3910   49.3370 C   0  0  0  0  0  0  0  0  0  0  0  0
   63.6040   33.2010   50.4690 N   0  0  0  0  0  0  0  0  0  0  0  0
   63.6180   31.8100   50.9610 C   0  0  0  0  0  0  0  0  0  0  0  0
   63.9570   34.1150   51.5690 C   0  0  0  0  0  0  0  0  0  0  0  0
   59.6940   32.2360   46.9180 C   0  0  0  0  0  0  0  0  0  0  0  0
   58.7180   32.1040   45.9350 C   0  0  0  0  0  0  0  0  0  0  0  0
   57.9580   31.0350   45.5290 C   0  0  0  0  0  0  0  0  0  0  0  0
   57.8990   29.7120   45.9580 C   0  0  0  0  0  0  0  0  0  0  0  0
   55.0505   24.7188   46.7013 H   0  0  0  0  0  0  0  0  0  0  0  0
   54.1798   25.0615   45.1680 H   0  0  0  0  0  0  0  0  0  0  0  0
   55.9687   24.8990   45.1680 H   0  0  0  0  0  0  0  0  0  0  0  0
   55.4662   28.6622   43.7587 H   0  0  0  0  0  0  0  0  0  0  0  0
   55.6228   31.0723   43.0389 H   0  0  0  0  0  0  0  0  0  0  0  0
   58.5951   35.2532   44.6298 H   0  0  0  0  0  0  0  0  0  0  0  0
   60.3650   35.5744   46.3877 H   0  0  0  0  0  0  0  0  0  0  0  0
   64.3944   32.9389   47.2229 H   0  0  0  0  0  0  0  0  0  0  0  0
   63.7322   34.5473   47.6982 H   0  0  0  0  0  0  0  0  0  0  0  0
   65.2354   32.5376   49.3063 H   0  0  0  0  0  0  0  0  0  0  0  0
   65.0751   34.3393   49.5000 H   0  0  0  0  0  0  0  0  0  0  0  0
   62.6300   33.4360   50.1600 H   0  0  0  0  0  0  0  0  0  0  0  0
   63.6180   31.8101   52.0610 H   0  0  0  0  0  0  0  0  0  0  0  0
   62.7251   31.2824   50.5944 H   0  0  0  0  0  0  0  0  0  0  0  0
   64.5213   31.3005   50.5944 H   0  0  0  0  0  0  0  0  0  0  0  0
   63.7659   33.6201   52.5326 H   0  0  0  0  0  0  0  0  0  0  0  0
   65.0222   34.3801   51.4979 H   0  0  0  0  0  0  0  0  0  0  0  0
   63.3465   35.0273   51.4979 H   0  0  0  0  0  0  0  0  0  0  0  0
   59.9864   31.3809   47.5451 H   0  0  0  0  0  0  0  0  0  0  0  0
   58.5434   29.3492   46.7723 H   0  0  0  0  0  0  0  0  0  0  0  0
  1  2  1  0
  2  3  1  0
  3  4  2  0
  3  5  2  0
  3  6  1  0
  6  7  2  0
  7  8  1  0
  8  9  2  0
  9 10  1  0
 10 11  1  0
 11 12  2  0
 12 13  1  0
 13 14  2  0
 14 15  1  0
 15 16  2  0
 15 17  1  0
 17 18  1  0
 18 19  1  0
 19 20  1  0
 20 21  1  0
 20 22  1  0
 14 23  1  0
 23 24  2  0
 24 25  1  0
 25 26  2  0
 26  6  1  0
 25  9  1  0
 24 11  1  0
  1 27  1  0
  1 28  1  0
  1 29  1  0
  7 30  1  0
  8 31  1  0
 12 32  1  0
 13 33  1  0
 18 34  1  0
 18 35  1  0
 19 36  1  0
 19 37  1  0
 20 38  1  0
 21 39  1  0
 21 40  1  0
 21 41  1  0
 22 42  1  0
 22 43  1  0
 22 44  1  0
 23 45  1  0
 26 46  1  0
M  CHG  2   2  -1  20   1
M  END
>  <UniqueID>  (34) 
32

>  <SMILES>  (34) 
C[N-]S(=O)(=O)c1ccc2oc3ccc(C(=O)OCC[NH+](C)C)cc3c2c1

>  <Energy>  (34) 
85.85341293712234

>  <Genealogy>  (34) 
C[N-]S(=O)(=O)c1ccc2oc3ccc(C(=O)OCC[NH+](C)C)cc3c2c1 (protonated)
C[N-]S(=O)(=O)c1ccc2oc3ccc(C(=O)OCC[NH+](C)C)cc3c2c1 (3D coordinates assigned)
C[N-]S(=O)(=O)c1ccc2oc3ccc(C(=O)OCC[NH+](C)C)cc3c2c1 (optimized conformer: 85.85341293712234 kcal/mol)

>  <smiles>  (34) 
CNS(=O)(=O)c1ccc2oc3ccc(C(=O)OCCN(C)C)cc3c2c1

>  <score_type>  (34) 
oracle

>  <origin>  (34) 
adg

>  <m_score__min__energy>  (34) 
-8.5500000000000007

>  <m_primary>  (34) 
energy

$$$$
34:0
     RDKit          3D

 44 45  0  0  0  0  0  0  0  0999 V2000
   57.4170   28.5740   45.9060 C   0  0  0  0  0  0  0  0  0  0  0  0
   57.3730   29.5530   44.7660 C   0  0  0  0  0  0  0  0  0  0  0  0
   56.4980   29.3420   43.6890 C   0  0  0  0  0  0  0  0  0  0  0  0
   56.4540   30.2480   42.6260 C   0  0  0  0  0  0  0  0  0  0  0  0
   57.2830   31.3700   42.6300 C   0  0  0  0  0  0  0  0  0  0  0  0
   58.1590   31.5920   43.6960 C   0  0  0  0  0  0  0  0  0  0  0  0
   58.2130   30.6850   44.7740 C   0  0  0  0  0  0  0  0  0  0  0  0
   59.0820   30.8770   45.8610 O   0  0  0  0  0  0  0  0  0  0  0  0
   60.2880   30.1480   46.0720 C   0  0  0  0  0  0  0  0  0  0  0  0
   61.0950   30.8240   47.1830 C   0  0  0  0  0  0  0  0  0  0  0  0
   60.2790   31.0430   48.4670 C   0  0  0  0  0  0  0  0  0  0  0  0
   59.4760   32.3710   48.5570 C   0  0  0  0  0  0  0  0  0  0  0  0
   59.1750   33.0710   47.2740 N   0  0  0  0  0  0  0  0  0  0  0  0
   57.7650   33.5040   47.1440 C   0  0  0  0  0  0  0  0  0  0  0  0
   57.4400   33.9380   45.6990 C   0  0  0  0  0  0  0  0  0  0  0  0
   58.6480   34.5610   44.9790 C   0  0  0  0  0  0  0  0  0  0  0  0
   59.6180   35.2010   45.9730 C   0  0  0  0  0  0  0  0  0  0  0  0
   60.1480   34.1600   46.9810 C   0  0  0  0  0  0  0  0  0  0  0  0
   57.3924   29.1209   46.8601 H   0  0  0  0  0  0  0  0  0  0  0  0
   56.5481   27.9021   45.8460 H   0  0  0  0  0  0  0  0  0  0  0  0
   58.3426   27.9827   45.8460 H   0  0  0  0  0  0  0  0  0  0  0  0
   55.8431   28.4583   43.6817 H   0  0  0  0  0  0  0  0  0  0  0  0
   55.7653   30.0764   41.7856 H   0  0  0  0  0  0  0  0  0  0  0  0
   57.2471   32.0817   41.7920 H   0  0  0  0  0  0  0  0  0  0  0  0
   58.8097   32.4789   43.6940 H   0  0  0  0  0  0  0  0  0  0  0  0
   60.0476   29.1160   46.3673 H   0  0  0  0  0  0  0  0  0  0  0  0
   60.8778   30.1314   45.1436 H   0  0  0  0  0  0  0  0  0  0  0  0
   61.9621   30.1907   47.4220 H   0  0  0  0  0  0  0  0  0  0  0  0
   61.4004   31.8140   46.8133 H   0  0  0  0  0  0  0  0  0  0  0  0
   59.5632   30.2124   48.5545 H   0  0  0  0  0  0  0  0  0  0  0  0
   61.0194   31.0934   49.2790 H   0  0  0  0  0  0  0  0  0  0  0  0
   58.5162   32.1456   49.0447 H   0  0  0  0  0  0  0  0  0  0  0  0
   60.1284   33.0613   49.1118 H   0  0  0  0  0  0  0  0  0  0  0  0
   59.3230   32.3470   46.5280 H   0  0  0  0  0  0  0  0  0  0  0  0
   57.1067   32.6681   47.4232 H   0  0  0  0  0  0  0  0  0  0  0  0
   57.6049   34.3658   47.8086 H   0  0  0  0  0  0  0  0  0  0  0  0
   57.1100   33.0548   45.1324 H   0  0  0  0  0  0  0  0  0  0  0  0
   56.6536   34.7053   45.7521 H   0  0  0  0  0  0  0  0  0  0  0  0
   59.1757   33.7750   44.4189 H   0  0  0  0  0  0  0  0  0  0  0  0
   58.2810   35.3439   44.2990 H   0  0  0  0  0  0  0  0  0  0  0  0
   60.4667   35.6307   45.4207 H   0  0  0  0  0  0  0  0  0  0  0  0
   59.0820   35.9843   46.5291 H   0  0  0  0  0  0  0  0  0  0  0  0
   61.0622   33.7088   46.5679 H   0  0  0  0  0  0  0  0  0  0  0  0
   60.3362   34.6901   47.9263 H   0  0  0  0  0  0  0  0  0  0  0  0
  1  2  1  0
  2  3  2  0
  3  4  1  0
  4  5  2  0
  5  6  1  0
  6  7  2  0
  7  8  1  0
  8  9  1  0
  9 10  1  0
 10 11  1  0
 11 12  1  0
 12 13  1  0
 13 14  1  0
 14 15  1  0
 15 16  1  0
 16 17  1  0
 17 18  1  0
  7  2  1  0
 18 13  1  0
  1 19  1  0
  1 20  1  0
  1 21  1  0
  3 22  1  0
  4 23  1  0
  5 24  1  0
  6 25  1  0
  9 26  1  0
  9 27  1  0
 10 28  1  0
 10 29  1  0
 11 30  1  0
 11 31  1  0
 12 32  1  0
 12 33  1  0
 13 34  1  0
 14 35  1  0
 14 36  1  0
 15 37  1  0
 15 38  1  0
 16 39  1  0
 16 40  1  0
 17 41  1  0
 17 42  1  0
 18 43  1  0
 18 44  1  0
M  CHG  1  13   1
M  END
>  <UniqueID>  (35) 
33

>  <SMILES>  (35) 
Cc1ccccc1OCCCC[NH+]1CCCCC1

>  <Energy>  (35) 
50.49710267501528

>  <Genealogy>  (35) 
Cc1ccccc1OCCCC[NH+]1CCCCC1 (protonated)
Cc1ccccc1OCCCC[NH+]1CCCCC1 (3D coordinates assigned)
Cc1ccccc1OCCCC[NH+]1CCCCC1 (nonaromatic ring conformer: 50.49710267501528 kcal/mol)

>  <smiles>  (35) 
Cc1ccccc1OCCCCN1CCCCC1

>  <score_type>  (35) 
oracle

>  <origin>  (35) 
adg

>  <m_score__min__energy>  (35) 
-4.3399999999999999

>  <m_primary>  (35) 
energy

$$$$
35:0
     RDKit          3D

 28 29  0  0  0  0  0  0  0  0999 V2000
   57.0390   20.9500   42.9840 C   0  0  0  0  0  0  0  0  0  0  0  0
   55.9180   21.8210   43.0890 O   0  0  0  0  0  0  0  0  0  0  0  0
   55.8780   22.9670   43.8980 C   0  0  0  0  0  0  0  0  0  0  0  0
   54.7640   23.2890   44.6960 C   0  0  0  0  0  0  0  0  0  0  0  0
   54.7710   24.4430   45.4850 C   0  0  0  0  0  0  0  0  0  0  0  0
   55.8910   25.2970   45.4870 C   0  0  0  0  0  0  0  0  0  0  0  0
   55.9490   26.4700   46.2560 O   0  0  0  0  0  0  0  0  0  0  0  0
   57.0260   27.4060   46.2520 C   0  0  0  0  0  0  0  0  0  0  0  0
   56.7820   28.4860   45.2470 C   0  0  0  0  0  0  0  0  0  0  0  0
   57.7320   29.0700   44.6050 N   0  0  0  0  0  0  0  0  0  0  0  0
   57.1560   30.0620   43.7090 C   0  0  0  0  0  0  0  0  0  0  0  0
   55.6410   29.9620   43.9420 C   0  0  0  0  0  0  0  0  0  0  0  0
   55.5240   28.9510   44.9250 O   0  0  0  0  0  0  0  0  0  0  0  0
   56.9960   24.9700   44.6930 C   0  0  0  0  0  0  0  0  0  0  0  0
   56.9890   23.8150   43.9050 C   0  0  0  0  0  0  0  0  0  0  0  0
   57.3882   20.6787   43.9912 H   0  0  0  0  0  0  0  0  0  0  0  0
   56.7465   20.0399   42.4398 H   0  0  0  0  0  0  0  0  0  0  0  0
   57.8486   21.4583   42.4398 H   0  0  0  0  0  0  0  0  0  0  0  0
   53.8837   22.6294   44.6988 H   0  0  0  0  0  0  0  0  0  0  0  0
   53.8971   24.6854   46.1076 H   0  0  0  0  0  0  0  0  0  0  0  0
   57.1171   27.8563   47.2515 H   0  0  0  0  0  0  0  0  0  0  0  0
   57.9535   26.8777   45.9862 H   0  0  0  0  0  0  0  0  0  0  0  0
   57.5215   31.0691   43.9583 H   0  0  0  0  0  0  0  0  0  0  0  0
   57.4290   29.8835   42.6585 H   0  0  0  0  0  0  0  0  0  0  0  0
   55.2359   30.9164   44.3094 H   0  0  0  0  0  0  0  0  0  0  0  0
   55.0804   29.7335   43.0236 H   0  0  0  0  0  0  0  0  0  0  0  0
   57.8779   25.6274   44.6888 H   0  0  0  0  0  0  0  0  0  0  0  0
   57.8649   23.5718   43.2856 H   0  0  0  0  0  0  0  0  0  0  0  0
  1  2  1  0
  2  3  1  0
  3  4  2  0
  4  5  1  0
  5  6  2  0
  6  7  1  0
  7  8  1  0
  8  9  1  0
  9 10  2  0
 10 11  1  0
 11 12  1  0
 12 13  1  0
  6 14  1  0
 14 15  2  0
 15  3  1  0
 13  9  1  0
  1 16  1  0
  1 17  1  0
  1 18  1  0
  4 19  1  0
  5 20  1  0
  8 21  1  0
  8 22  1  0
 11 23  1  0
 11 24  1  0
 12 25  1  0
 12 26  1  0
 14 27  1  0
 15 28  1  0
M  END
>  <UniqueID>  (36) 
34

>  <SMILES>  (36) 
COc1ccc(OCC2=NCCO2)cc1

>  <Energy>  (36) 
39.06668065167651

>  <Genealogy>  (36) 
COc1ccc(OCC2=NCCO2)cc1 (3D coordinates assigned)
COc1ccc(OCC2=NCCO2)cc1 (nonaromatic ring conformer: 39.06668065167651 kcal/mol)

>  <smiles>  (36) 
COc1ccc(OCC2=NCCO2)cc1

>  <score_type>  (36) 
oracle

>  <origin>  (36) 
adg

>  <m_score__min__energy>  (36) 
-5.7699999999999996

>  <m_primary>  (36) 
energy

$$$$
36:0
     RDKit          3D

 59 62  0  0  0  0  0  0  0  0999 V2000
   66.7430   33.2920   50.6590 C   0  0  0  0  0  0  0  0  0  0  0  0
   65.3870   33.5830   50.9830 O   0  0  0  0  0  0  0  0  0  0  0  0
   64.2800   33.1230   50.2520 C   0  0  0  0  0  0  0  0  0  0  0  0
   63.4180   34.0140   49.5670 C   0  0  0  0  0  0  0  0  0  0  0  0
   62.3420   33.4730   48.8710 C   0  0  0  0  0  0  0  0  0  0  0  0
   61.4290   34.1200   48.1280 N   0  0  0  0  0  0  0  0  0  0  0  0
   60.6220   33.1390   47.6520 C   0  0  0  0  0  0  0  0  0  0  0  0
   59.4440   33.4180   46.7990 C   0  0  0  0  0  0  0  0  0  0  0  0
   59.6190   33.9710   45.5210 C   0  0  0  0  0  0  0  0  0  0  0  0
   58.5120   34.2420   44.7100 C   0  0  0  0  0  0  0  0  0  0  0  0
   57.2220   33.9730   45.1750 C   0  0  0  0  0  0  0  0  0  0  0  0
   57.0370   33.4380   46.4520 C   0  0  0  0  0  0  0  0  0  0  0  0
   58.1410   33.1670   47.2650 C   0  0  0  0  0  0  0  0  0  0  0  0
   61.0100   31.9010   48.0730 N   0  0  0  0  0  0  0  0  0  0  0  0
   60.4720   30.6220   47.6950 C   0  0  0  0  0  0  0  0  0  0  0  0
   59.9750   29.7480   48.6730 C   0  0  0  0  0  0  0  0  0  0  0  0
   59.4700   28.4960   48.3080 C   0  0  0  0  0  0  0  0  0  0  0  0
   59.4560   28.0990   46.9650 C   0  0  0  0  0  0  0  0  0  0  0  0
   58.9380   26.8290   46.6580 O   0  0  0  0  0  0  0  0  0  0  0  0
   58.0450   26.5340   45.5840 C   0  0  0  0  0  0  0  0  0  0  0  0
   56.5970   26.8520   45.9770 C   0  0  0  0  0  0  0  0  0  0  0  0
   55.8940   25.6290   46.4240 N   0  0  0  0  0  0  0  0  0  0  0  0
   56.7360   24.8380   47.3380 C   0  0  0  0  0  0  0  0  0  0  0  0
   55.5260   24.8030   45.2620 C   0  0  0  0  0  0  0  0  0  0  0  0
   59.9490   28.9810   45.9840 C   0  0  0  0  0  0  0  0  0  0  0  0
   60.4560   30.2310   46.3500 C   0  0  0  0  0  0  0  0  0  0  0  0
   62.0960   32.1340   48.8400 C   0  0  0  0  0  0  0  0  0  0  0  0
   62.9310   31.2190   49.4820 C   0  0  0  0  0  0  0  0  0  0  0  0
   64.0400   31.7250   50.2070 C   0  0  0  0  0  0  0  0  0  0  0  0
   64.9240   30.8780   50.8920 O   0  0  0  0  0  0  0  0  0  0  0  0
   64.5210   29.7570   51.6730 C   0  0  0  0  0  0  0  0  0  0  0  0
   67.3228   33.1676   51.5855 H   0  0  0  0  0  0  0  0  0  0  0  0
   66.7883   32.3637   50.0706 H   0  0  0  0  0  0  0  0  0  0  0  0
   67.1652   34.1200   50.0706 H   0  0  0  0  0  0  0  0  0  0  0  0
   63.5939   35.0997   49.5849 H   0  0  0  0  0  0  0  0  0  0  0  0
   61.3540   35.1500   47.9680 H   0  0  0  0  0  0  0  0  0  0  0  0
   60.6324   34.1926   45.1550 H   0  0  0  0  0  0  0  0  0  0  0  0
   58.6570   34.6670   43.7058 H   0  0  0  0  0  0  0  0  0  0  0  0
   56.3520   34.1826   44.5353 H   0  0  0  0  0  0  0  0  0  0  0  0
   56.0209   33.2297   46.8183 H   0  0  0  0  0  0  0  0  0  0  0  0
   57.9901   32.7555   48.2739 H   0  0  0  0  0  0  0  0  0  0  0  0
   59.9825   30.0485   49.7311 H   0  0  0  0  0  0  0  0  0  0  0  0
   59.0808   27.8178   49.0817 H   0  0  0  0  0  0  0  0  0  0  0  0
   58.3221   27.1389   44.7080 H   0  0  0  0  0  0  0  0  0  0  0  0
   58.1191   25.4622   45.3480 H   0  0  0  0  0  0  0  0  0  0  0  0
   56.5984   27.5869   46.7955 H   0  0  0  0  0  0  0  0  0  0  0  0
   56.0741   27.2586   45.0988 H   0  0  0  0  0  0  0  0  0  0  0  0
   56.4766   25.0817   48.3788 H   0  0  0  0  0  0  0  0  0  0  0  0
   56.5651   23.7662   47.1588 H   0  0  0  0  0  0  0  0  0  0  0  0
   57.7950   25.0754   47.1588 H   0  0  0  0  0  0  0  0  0  0  0  0
   55.1013   23.8497   45.6096 H   0  0  0  0  0  0  0  0  0  0  0  0
   54.7805   25.3366   44.6542 H   0  0  0  0  0  0  0  0  0  0  0  0
   56.4213   24.6056   44.6542 H   0  0  0  0  0  0  0  0  0  0  0  0
   59.9350   28.6847   44.9247 H   0  0  0  0  0  0  0  0  0  0  0  0
   60.8445   30.9113   45.5778 H   0  0  0  0  0  0  0  0  0  0  0  0
   62.7351   30.1379   49.4275 H   0  0  0  0  0  0  0  0  0  0  0  0
   64.6096   30.0035   52.7413 H   0  0  0  0  0  0  0  0  0  0  0  0
   63.4759   29.5047   51.4404 H   0  0  0  0  0  0  0  0  0  0  0  0
   65.1663   28.8970   51.4404 H   0  0  0  0  0  0  0  0  0  0  0  0
  1  2  1  0
  2  3  1  0
  3  4  2  0
  4  5  1  0
  5  6  1  0
  6  7  2  0
  7  8  1  0
  8  9  2  0
  9 10  1  0
 10 11  2  0
 11 12  1  0
 12 13  2  0
  7 14  1  0
 14 15  1  0
 15 16  2  0
 16 17  1  0
 17 18  2  0
 18 19  1  0
 19 20  1  0
 20 21  1  0
 21 22  1  0
 22 23  1  0
 22 24  1  0
 18 25  1  0
 25 26  2  0
 14 27  1  0
 27 28  1  0
 28 29  2  0
 29 30  1  0
 30 31  1  0
 29  3  1  0
 27  5  2  0
 13  8  1  0
 26 15  1  0
  1 32  1  0
  1 33  1  0
  1 34  1  0
  4 35  1  0
  6 36  1  0
  9 37  1  0
 10 38  1  0
 11 39  1  0
 12 40  1  0
 13 41  1  0
 16 42  1  0
 17 43  1  0
 20 44  1  0
 20 45  1  0
 21 46  1  0
 21 47  1  0
 23 48  1  0
 23 49  1  0
 23 50  1  0
 24 51  1  0
 24 52  1  0
 24 53  1  0
 25 54  1  0
 26 55  1  0
 28 56  1  0
 31 57  1  0
 31 58  1  0
 31 59  1  0
M  CHG  1   6   1
M  END
>  <UniqueID>  (37) 
35

>  <SMILES>  (37) 
COc1cc2[nH+]c(-c3ccccc3)n(-c3ccc(OCCN(C)C)cc3)c2cc1OC

>  <Energy>  (37) 
109.27288339851086

>  <Genealogy>  (37) 
COc1cc2[nH+]c(-c3ccccc3)n(-c3ccc(OCCN(C)C)cc3)c2cc1OC (protonated)
COc1cc2[nH+]c(-c3ccccc3)n(-c3ccc(OCCN(C)C)cc3)c2cc1OC (3D coordinates assigned)
COc1cc2[nH+]c(-c3ccccc3)n(-c3ccc(OCCN(C)C)cc3)c2cc1OC (optimized conformer: 109.27288339851086 kcal/mol)

>  <smiles>  (37) 
COc1cc2nc(-c3ccccc3)n(-c3ccc(OCCN(C)C)cc3)c2cc1OC

>  <score_type>  (37) 
oracle

>  <origin>  (37) 
adg

>  <m_score__min__energy>  (37) 
-5.9500000000000002

>  <m_primary>  (37) 
energy

$$$$
37:0
     RDKit          3D

 56 59  0  0  0  0  0  0  0  0999 V2000
   59.4870   22.2380   44.8550 C   0  0  0  0  0  0  0  0  0  0  0  0
   58.0910   21.8380   44.3820 C   0  0  0  0  0  0  0  0  0  0  0  0
   57.2300   23.0410   44.2870 N   0  0  0  0  0  0  0  0  0  0  0  0
   56.4300   23.0200   43.0370 C   0  0  0  0  0  0  0  0  0  0  0  0
   54.9740   23.3680   43.3220 C   0  0  0  0  0  0  0  0  0  0  0  0
   56.3530   23.1770   45.4740 C   0  0  0  0  0  0  0  0  0  0  0  0
   56.6440   24.4510   46.2300 C   0  0  0  0  0  0  0  0  0  0  0  0
   55.7030   25.2620   46.4420 O   0  0  0  0  0  0  0  0  0  0  0  0
   57.9400   24.7430   46.7690 N   0  0  0  0  0  0  0  0  0  0  0  0
   58.5150   26.0450   46.9090 C   0  0  0  0  0  0  0  0  0  0  0  0
   59.8000   26.2890   46.4180 C   0  0  0  0  0  0  0  0  0  0  0  0
   60.3630   27.5580   46.5650 C   0  0  0  0  0  0  0  0  0  0  0  0
   59.6480   28.5690   47.2220 C   0  0  0  0  0  0  0  0  0  0  0  0
   60.2020   29.8930   47.3670 N   0  0  0  0  0  0  0  0  0  0  0  0
   59.8320   30.9090   46.5130 C   0  0  0  0  0  0  0  0  0  0  0  0
   58.7520   30.7460   45.5130 C   0  0  0  0  0  0  0  0  0  0  0  0
   58.6960   29.6040   44.6960 C   0  0  0  0  0  0  0  0  0  0  0  0
   57.6770   29.4650   43.7490 C   0  0  0  0  0  0  0  0  0  0  0  0
   56.7000   30.4560   43.6220 C   0  0  0  0  0  0  0  0  0  0  0  0
   56.7370   31.5850   44.4450 C   0  0  0  0  0  0  0  0  0  0  0  0
   57.7550   31.7270   45.3940 C   0  0  0  0  0  0  0  0  0  0  0  0
   60.4630   32.1120   46.5740 N   0  0  0  0  0  0  0  0  0  0  0  0
   61.4400   32.3590   47.4790 C   0  0  0  0  0  0  0  0  0  0  0  0
   62.0670   33.6110   47.5070 C   0  0  0  0  0  0  0  0  0  0  0  0
   63.0740   33.8680   48.4410 C   0  0  0  0  0  0  0  0  0  0  0  0
   63.4540   32.8770   49.3520 C   0  0  0  0  0  0  0  0  0  0  0  0
   62.8320   31.6250   49.3290 C   0  0  0  0  0  0  0  0  0  0  0  0
   61.8190   31.3570   48.3890 C   0  0  0  0  0  0  0  0  0  0  0  0
   61.1780   30.1090   48.3090 C   0  0  0  0  0  0  0  0  0  0  0  0
   61.5180   29.1790   49.0940 O   0  0  0  0  0  0  0  0  0  0  0  0
   58.3740   28.2740   47.7260 C   0  0  0  0  0  0  0  0  0  0  0  0
   57.8430   27.0340   47.5590 N   0  0  0  0  0  0  0  0  0  0  0  0
   59.5134   22.2456   45.9547 H   0  0  0  0  0  0  0  0  0  0  0  0
   60.2239   21.5149   44.4755 H   0  0  0  0  0  0  0  0  0  0  0  0
   59.7291   23.2417   44.4755 H   0  0  0  0  0  0  0  0  0  0  0  0
   58.1629   21.3612   43.3933 H   0  0  0  0  0  0  0  0  0  0  0  0
   57.6514   21.1323   45.1023 H   0  0  0  0  0  0  0  0  0  0  0  0
   56.8449   23.7541   42.3306 H   0  0  0  0  0  0  0  0  0  0  0  0
   56.4736   22.0086   42.6067 H   0  0  0  0  0  0  0  0  0  0  0  0
   54.8123   23.4066   44.4094 H   0  0  0  0  0  0  0  0  0  0  0  0
   54.7381   24.3478   42.8812 H   0  0  0  0  0  0  0  0  0  0  0  0
   54.3206   22.6007   42.8812 H   0  0  0  0  0  0  0  0  0  0  0  0
   55.3036   23.1880   45.1444 H   0  0  0  0  0  0  0  0  0  0  0  0
   56.5424   22.3255   46.1441 H   0  0  0  0  0  0  0  0  0  0  0  0
   60.3640   25.4871   45.9192 H   0  0  0  0  0  0  0  0  0  0  0  0
   61.3669   27.7644   46.1656 H   0  0  0  0  0  0  0  0  0  0  0  0
   59.4567   28.8166   44.8020 H   0  0  0  0  0  0  0  0  0  0  0  0
   57.6443   28.5750   43.1034 H   0  0  0  0  0  0  0  0  0  0  0  0
   55.9011   30.3474   42.8737 H   0  0  0  0  0  0  0  0  0  0  0  0
   55.9651   32.3625   44.3465 H   0  0  0  0  0  0  0  0  0  0  0  0
   57.7743   32.6104   46.0492 H   0  0  0  0  0  0  0  0  0  0  0  0
   61.7666   34.3924   46.7934 H   0  0  0  0  0  0  0  0  0  0  0  0
   63.5683   34.8505   48.4598 H   0  0  0  0  0  0  0  0  0  0  0  0
   64.2445   33.0832   50.0887 H   0  0  0  0  0  0  0  0  0  0  0  0
   63.1347   30.8482   50.0466 H   0  0  0  0  0  0  0  0  0  0  0  0
   57.8021   29.0483   48.2583 H   0  0  0  0  0  0  0  0  0  0  0  0
  1  2  1  0
  2  3  1  0
  3  4  1  0
  4  5  1  0
  3  6  1  0
  6  7  1  0
  7  8  2  0
  7  9  1  0
  9 10  1  0
 10 11  2  0
 11 12  1  0
 12 13  2  0
 13 14  1  0
 14 15  1  0
 15 16  1  0
 16 17  2  0
 17 18  1  0
 18 19  2  0
 19 20  1  0
 20 21  2  0
 15 22  2  0
 22 23  1  0
 23 24  2  0
 24 25  1  0
 25 26  2  0
 26 27  1  0
 27 28  2  0
 28 29  1  0
 29 30  2  0
 13 31  1  0
 31 32  2  0
 32 10  1  0
 29 14  1  0
 21 16  1  0
 28 23  1  0
  1 33  1  0
  1 34  1  0
  1 35  1  0
  2 36  1  0
  2 37  1  0
  4 38  1  0
  4 39  1  0
  5 40  1  0
  5 41  1  0
  5 42  1  0
  6 43  1  0
  6 44  1  0
 11 45  1  0
 12 46  1  0
 17 47  1  0
 18 48  1  0
 19 49  1  0
 20 50  1  0
 21 51  1  0
 24 52  1  0
 25 53  1  0
 26 54  1  0
 27 55  1  0
 31 56  1  0
M  CHG  1   9  -1
M  END
>  <UniqueID>  (38) 
36

>  <SMILES>  (38) 
CCN(CC)CC(=O)[N-]c1ccc(-n2c(-c3ccccc3)nc3ccccc3c2=O)cn1

>  <Energy>  (38) 
80.00752787853637

>  <Genealogy>  (38) 
CCN(CC)CC(=O)[N-]c1ccc(-n2c(-c3ccccc3)nc3ccccc3c2=O)cn1 (protonated)
CCN(CC)CC(=O)[N-]c1ccc(-n2c(-c3ccccc3)nc3ccccc3c2=O)cn1 (3D coordinates assigned)
CCN(CC)CC(=O)[N-]c1ccc(-n2c(-c3ccccc3)nc3ccccc3c2=O)cn1 (optimized conformer: 80.00752787853637 kcal/mol)

>  <smiles>  (38) 
CCN(CC)CC(=O)Nc1ccc(-n2c(-c3ccccc3)nc3ccccc3c2=O)cn1

>  <score_type>  (38) 
oracle

>  <origin>  (38) 
adg

>  <m_score__min__energy>  (38) 
-9.6899999999999995

>  <m_primary>  (38) 
energy

$$$$
38:0
     RDKit          3D

 53 55  0  0  0  0  0  0  0  0999 V2000
   63.3420   33.8720   46.3790 C   0  0  0  0  0  0  0  0  0  0  0  0
   63.2040   33.7420   47.8960 C   0  0  0  0  0  0  0  0  0  0  0  0
   61.8270   33.2150   48.3340 C   0  0  0  0  0  0  0  0  0  0  0  0
   61.0290   34.1660   49.2550 C   0  0  0  0  0  0  0  0  0  0  0  0
   59.6500   34.5850   48.7000 C   0  0  0  0  0  0  0  0  0  0  0  0
   59.6450   34.9920   47.2150 C   0  0  0  0  0  0  0  0  0  0  0  0
   58.9840   33.9580   46.3370 C   0  0  0  0  0  0  0  0  0  0  0  0
   58.4890   34.3170   45.0730 C   0  0  0  0  0  0  0  0  0  0  0  0
   57.9370   33.3490   44.2290 C   0  0  0  0  0  0  0  0  0  0  0  0
   57.8710   32.0090   44.6380 C   0  0  0  0  0  0  0  0  0  0  0  0
   57.3440   30.9580   43.6970 C   0  0  0  0  0  0  0  0  0  0  0  0
   57.6260   29.6180   44.2240 N   0  0  0  0  0  0  0  0  0  0  0  0
   58.8730   29.1470   44.1240 N   0  0  0  0  0  0  0  0  0  0  0  0
   59.2220   27.9230   44.5950 C   0  0  0  0  0  0  0  0  0  0  0  0
   58.2660   27.1300   45.2220 C   0  0  0  0  0  0  0  0  0  0  0  0
   58.6060   25.9100   45.7060 F   0  0  0  0  0  0  0  0  0  0  0  0
   56.9670   27.6130   45.3670 C   0  0  0  0  0  0  0  0  0  0  0  0
   56.0120   26.8180   46.0150 O   0  0  0  0  0  0  0  0  0  0  0  0
   56.0520   25.4180   46.0890 C   0  0  0  0  0  0  0  0  0  0  0  0
   55.5690   24.6010   45.0480 C   0  0  0  0  0  0  0  0  0  0  0  0
   55.5980   23.2080   45.1760 C   0  0  0  0  0  0  0  0  0  0  0  0
   56.1130   22.6220   46.3350 C   0  0  0  0  0  0  0  0  0  0  0  0
   56.5880   23.4280   47.3740 C   0  0  0  0  0  0  0  0  0  0  0  0
   56.5500   24.8200   47.2540 C   0  0  0  0  0  0  0  0  0  0  0  0
   56.6470   28.8710   44.8270 C   0  0  0  0  0  0  0  0  0  0  0  0
   55.4610   29.2970   44.8870 O   0  0  0  0  0  0  0  0  0  0  0  0
   58.3480   31.6530   45.9090 C   0  0  0  0  0  0  0  0  0  0  0  0
   58.8950   32.6210   46.7540 C   0  0  0  0  0  0  0  0  0  0  0  0
   64.1242   34.6088   46.1438 H   0  0  0  0  0  0  0  0  0  0  0  0
   63.6164   32.8966   45.9509 H   0  0  0  0  0  0  0  0  0  0  0  0
   62.3847   34.2041   45.9509 H   0  0  0  0  0  0  0  0  0  0  0  0
   63.9762   33.0480   48.2595 H   0  0  0  0  0  0  0  0  0  0  0  0
   63.3207   34.7489   48.3233 H   0  0  0  0  0  0  0  0  0  0  0  0
   61.2277   33.0323   47.4299 H   0  0  0  0  0  0  0  0  0  0  0  0
   62.0176   32.3047   48.9214 H   0  0  0  0  0  0  0  0  0  0  0  0
   60.8723   33.6599   50.2190 H   0  0  0  0  0  0  0  0  0  0  0  0
   61.6236   35.0870   49.3453 H   0  0  0  0  0  0  0  0  0  0  0  0
   58.9598   33.7375   48.8243 H   0  0  0  0  0  0  0  0  0  0  0  0
   59.3485   35.4789   49.2658 H   0  0  0  0  0  0  0  0  0  0  0  0
   59.1017   35.9428   47.1112 H   0  0  0  0  0  0  0  0  0  0  0  0
   60.6916   35.0880   46.8902 H   0  0  0  0  0  0  0  0  0  0  0  0
   58.5359   35.3659   44.7451 H   0  0  0  0  0  0  0  0  0  0  0  0
   57.5528   33.6394   43.2400 H   0  0  0  0  0  0  0  0  0  0  0  0
   56.2569   31.0829   43.5850 H   0  0  0  0  0  0  0  0  0  0  0  0
   57.8378   31.0707   42.7206 H   0  0  0  0  0  0  0  0  0  0  0  0
   60.2542   27.5601   44.4818 H   0  0  0  0  0  0  0  0  0  0  0  0
   55.1680   25.0594   44.1320 H   0  0  0  0  0  0  0  0  0  0  0  0
   55.2149   22.5735   44.3632 H   0  0  0  0  0  0  0  0  0  0  0  0
   56.1448   21.5266   46.4301 H   0  0  0  0  0  0  0  0  0  0  0  0
   56.9921   22.9661   48.2869 H   0  0  0  0  0  0  0  0  0  0  0  0
   56.9133   25.4499   48.0794 H   0  0  0  0  0  0  0  0  0  0  0  0
   58.2907   30.6060   46.2414 H   0  0  0  0  0  0  0  0  0  0  0  0
   59.2581   32.3339   47.7519 H   0  0  0  0  0  0  0  0  0  0  0  0
  1  2  1  0
  2  3  1  0
  3  4  1  0
  4  5  1  0
  5  6  1  0
  6  7  1  0
  7  8  2  0
  8  9  1  0
  9 10  2  0
 10 11  1  0
 11 12  1  0
 12 13  1  0
 13 14  2  0
 14 15  1  0
 15 16  1  0
 15 17  2  0
 17 18  1  0
 18 19  1  0
 19 20  2  0
 20 21  1  0
 21 22  2  0
 22 23  1  0
 23 24  2  0
 17 25  1  0
 25 26  2  0
 10 27  1  0
 27 28  2  0
 28  7  1  0
 25 12  1  0
 24 19  1  0
  1 29  1  0
  1 30  1  0
  1 31  1  0
  2 32  1  0
  2 33  1  0
  3 34  1  0
  3 35  1  0
  4 36  1  0
  4 37  1  0
  5 38  1  0
  5 39  1  0
  6 40  1  0
  6 41  1  0
  8 42  1  0
  9 43  1  0
 11 44  1  0
 11 45  1  0
 14 46  1  0
 20 47  1  0
 21 48  1  0
 22 49  1  0
 23 50  1  0
 24 51  1  0
 27 52  1  0
 28 53  1  0
M  END
>  <UniqueID>  (39) 
37

>  <SMILES>  (39) 
CCCCCCc1ccc(Cn2ncc(F)c(Oc3ccccc3)c2=O)cc1

>  <Energy>  (39) 
55.13808226417729

>  <Genealogy>  (39) 
CCCCCCc1ccc(Cn2ncc(F)c(Oc3ccccc3)c2=O)cc1 (3D coordinates assigned)
CCCCCCc1ccc(Cn2ncc(F)c(Oc3ccccc3)c2=O)cc1 (optimized conformer: 55.13808226417729 kcal/mol)

>  <smiles>  (39) 
CCCCCCc1ccc(Cn2ncc(F)c(Oc3ccccc3)c2=O)cc1

>  <score_type>  (39) 
oracle

>  <origin>  (39) 
adg

>  <m_score__min__energy>  (39) 
-8.6500000000000004

>  <m_primary>  (39) 
energy

$$$$
39:0
     RDKit          3D

 56 57  0  0  0  0  0  0  0  0999 V2000
   58.5050   34.3050   52.4320 C   0  0  0  0  0  0  0  0  0  0  0  0
   59.4500   33.2060   51.9290 C   0  0  0  0  0  0  0  0  0  0  0  0
   59.6480   33.2590   50.4530 N   0  0  0  0  0  0  0  0  0  0  0  0
   58.7260   32.3060   49.7760 C   0  0  0  0  0  0  0  0  0  0  0  0
   57.9670   31.4260   50.7770 C   0  0  0  0  0  0  0  0  0  0  0  0
   61.0640   32.9460   50.1150 C   0  0  0  0  0  0  0  0  0  0  0  0
   61.8580   34.1460   49.5410 C   0  0  0  0  0  0  0  0  0  0  0  0
   62.0310   34.1640   48.0050 C   0  0  0  0  0  0  0  0  0  0  0  0
   60.9540   33.4080   47.2450 C   0  0  0  0  0  0  0  0  0  0  0  0
   61.0120   32.0040   47.2000 C   0  0  0  0  0  0  0  0  0  0  0  0
   60.0820   31.2700   46.4670 C   0  0  0  0  0  0  0  0  0  0  0  0
   59.0440   31.9180   45.7830 C   0  0  0  0  0  0  0  0  0  0  0  0
   58.0780   31.1390   44.9700 C   0  0  0  0  0  0  0  0  0  0  0  0
   57.7900   31.5150   43.6470 C   0  0  0  0  0  0  0  0  0  0  0  0
   56.8840   30.7740   42.8850 C   0  0  0  0  0  0  0  0  0  0  0  0
   56.2610   29.6510   43.4310 C   0  0  0  0  0  0  0  0  0  0  0  0
   56.5380   29.2540   44.7430 C   0  0  0  0  0  0  0  0  0  0  0  0
   55.8860   28.0840   45.2560 N   0  0  0  0  0  0  0  0  0  0  0  0
   56.6740   26.6350   45.7920 S   0  0  0  0  0  0  0  0  0  0  0  0
   57.9350   27.0290   46.9860 C   0  0  0  0  0  0  0  0  0  0  0  0
   57.3210   25.9700   44.6100 O   0  0  0  0  0  0  0  0  0  0  0  0
   55.6670   25.6910   46.3860 O   0  0  0  0  0  0  0  0  0  0  0  0
   57.4450   30.0050   45.5130 C   0  0  0  0  0  0  0  0  0  0  0  0
   58.9330   33.3140   45.8790 C   0  0  0  0  0  0  0  0  0  0  0  0
   59.8610   34.0670   46.6190 C   0  0  0  0  0  0  0  0  0  0  0  0
   59.6600   35.5580   46.7200 C   0  0  0  0  0  0  0  0  0  0  0  0
   58.5008   34.3098   53.5320 H   0  0  0  0  0  0  0  0  0  0  0  0
   58.8493   35.2821   52.0623 H   0  0  0  0  0  0  0  0  0  0  0  0
   57.4873   34.1110   52.0623 H   0  0  0  0  0  0  0  0  0  0  0  0
   60.4263   33.3272   52.4210 H   0  0  0  0  0  0  0  0  0  0  0  0
   58.9942   32.2347   52.1717 H   0  0  0  0  0  0  0  0  0  0  0  0
   59.4240   34.2260   50.1280 H   0  0  0  0  0  0  0  0  0  0  0  0
   57.9972   32.8783   49.1834 H   0  0  0  0  0  0  0  0  0  0  0  0
   59.3311   31.6464   49.1367 H   0  0  0  0  0  0  0  0  0  0  0  0
   58.2276   31.7282   51.8021 H   0  0  0  0  0  0  0  0  0  0  0  0
   56.8844   31.5460   50.6234 H   0  0  0  0  0  0  0  0  0  0  0  0
   58.2446   30.3728   50.6234 H   0  0  0  0  0  0  0  0  0  0  0  0
   61.5697   32.6031   51.0297 H   0  0  0  0  0  0  0  0  0  0  0  0
   61.0396   32.1769   49.3289 H   0  0  0  0  0  0  0  0  0  0  0  0
   61.3340   35.0682   49.8326 H   0  0  0  0  0  0  0  0  0  0  0  0
   62.8732   34.0588   49.9554 H   0  0  0  0  0  0  0  0  0  0  0  0
   62.0186   35.2114   47.6693 H   0  0  0  0  0  0  0  0  0  0  0  0
   62.9831   33.6570   47.7895 H   0  0  0  0  0  0  0  0  0  0  0  0
   61.8040   31.4768   47.7521 H   0  0  0  0  0  0  0  0  0  0  0  0
   60.1628   30.1738   46.4246 H   0  0  0  0  0  0  0  0  0  0  0  0
   58.2804   32.3971   43.2095 H   0  0  0  0  0  0  0  0  0  0  0  0
   56.6608   31.0765   41.8512 H   0  0  0  0  0  0  0  0  0  0  0  0
   55.5470   29.0739   42.8251 H   0  0  0  0  0  0  0  0  0  0  0  0
   57.5309   26.9027   48.0013 H   0  0  0  0  0  0  0  0  0  0  0  0
   58.7944   26.3565   46.8471 H   0  0  0  0  0  0  0  0  0  0  0  0
   58.2587   28.0711   46.8471 H   0  0  0  0  0  0  0  0  0  0  0  0
   57.6614   29.7033   46.5485 H   0  0  0  0  0  0  0  0  0  0  0  0
   58.1060   33.8273   45.3666 H   0  0  0  0  0  0  0  0  0  0  0  0
   59.6204   35.8517   47.7793 H   0  0  0  0  0  0  0  0  0  0  0  0
   60.4966   36.0750   46.2272 H   0  0  0  0  0  0  0  0  0  0  0  0
   58.7164   35.8350   46.2272 H   0  0  0  0  0  0  0  0  0  0  0  0
  1  2  1  0
  2  3  1  0
  3  4  1  0
  4  5  1  0
  3  6  1  0
  6  7  1  0
  7  8  1  0
  8  9  1  0
  9 10  2  0
 10 11  1  0
 11 12  2  0
 12 13  1  0
 13 14  2  0
 14 15  1  0
 15 16  2  0
 16 17  1  0
 17 18  1  0
 18 19  1  0
 19 20  1  0
 19 21  2  0
 19 22  2  0
 17 23  2  0
 12 24  1  0
 24 25  2  0
 25 26  1  0
 25  9  1  0
 23 13  1  0
  1 27  1  0
  1 28  1  0
  1 29  1  0
  2 30  1  0
  2 31  1  0
  3 32  1  0
  4 33  1  0
  4 34  1  0
  5 35  1  0
  5 36  1  0
  5 37  1  0
  6 38  1  0
  6 39  1  0
  7 40  1  0
  7 41  1  0
  8 42  1  0
  8 43  1  0
 10 44  1  0
 11 45  1  0
 14 46  1  0
 15 47  1  0
 16 48  1  0
 20 49  1  0
 20 50  1  0
 20 51  1  0
 23 52  1  0
 24 53  1  0
 26 54  1  0
 26 55  1  0
 26 56  1  0
M  CHG  2   3   1  18  -1
M  END
>  <UniqueID>  (40) 
38

>  <SMILES>  (40) 
CC[NH+](CC)CCCc1ccc(-c2cccc([N-]S(C)(=O)=O)c2)cc1C

>  <Energy>  (40) 
60.44852199437485

>  <Genealogy>  (40) 
CC[NH+](CC)CCCc1ccc(-c2cccc([N-]S(C)(=O)=O)c2)cc1C (protonated)
CC[NH+](CC)CCCc1ccc(-c2cccc([N-]S(C)(=O)=O)c2)cc1C (3D coordinates assigned)
CC[NH+](CC)CCCc1ccc(-c2cccc([N-]S(C)(=O)=O)c2)cc1C (optimized conformer: 60.44852199437485 kcal/mol)

>  <smiles>  (40) 
CCN(CC)CCCc1ccc(-c2cccc(NS(C)(=O)=O)c2)cc1C

>  <score_type>  (40) 
oracle

>  <origin>  (40) 
adg

>  <m_score__min__energy>  (40) 
-9.0999999999999996

>  <m_primary>  (40) 
energy

$$$$
40:0
     RDKit          3D

 51 53  0  0  0  0  0  0  0  0999 V2000
   56.2900   29.7330   42.9450 C   0  0  0  0  0  0  0  0  0  0  0  0
   57.2570   30.1480   44.0070 C   0  0  0  0  0  0  0  0  0  0  0  0
   58.4730   29.4890   44.1560 C   0  0  0  0  0  0  0  0  0  0  0  0
   59.3510   29.8940   45.1710 C   0  0  0  0  0  0  0  0  0  0  0  0
   60.6590   29.1540   45.3210 C   0  0  0  0  0  0  0  0  0  0  0  0
   58.9960   30.9300   46.0120 N   0  0  0  0  0  0  0  0  0  0  0  0
   59.8930   31.3470   47.1130 C   0  0  0  0  0  0  0  0  0  0  0  0
   59.2970   31.0350   48.4330 N   0  0  0  0  0  0  0  0  0  0  0  0
   59.2730   32.2490   49.2650 C   0  0  0  0  0  0  0  0  0  0  0  0
   60.0290   29.9550   49.1350 C   0  0  0  0  0  0  0  0  0  0  0  0
   59.6500   28.6040   48.6030 C   0  0  0  0  0  0  0  0  0  0  0  0
   60.2280   27.5850   49.0680 O   0  0  0  0  0  0  0  0  0  0  0  0
   58.5540   28.4700   47.6830 N   0  0  0  0  0  0  0  0  0  0  0  0
   58.3010   27.3250   46.8440 C   0  0  0  0  0  0  0  0  0  0  0  0
   57.0420   27.0800   46.2670 C   0  0  0  0  0  0  0  0  0  0  0  0
   56.8190   25.9260   45.5110 C   0  0  0  0  0  0  0  0  0  0  0  0
   57.8450   24.9870   45.3170 C   0  0  0  0  0  0  0  0  0  0  0  0
   57.5760   23.7510   44.5380 C   0  0  0  0  0  0  0  0  0  0  0  0
   58.3800   22.6030   44.6700 C   0  0  0  0  0  0  0  0  0  0  0  0
   58.0870   21.4670   43.9150 C   0  0  0  0  0  0  0  0  0  0  0  0
   57.0050   21.4760   43.0330 C   0  0  0  0  0  0  0  0  0  0  0  0
   56.2320   22.6300   42.9170 C   0  0  0  0  0  0  0  0  0  0  0  0
   56.5320   23.7290   43.6600 N   0  0  0  0  0  0  0  0  0  0  0  0
   59.0990   25.2240   45.9070 C   0  0  0  0  0  0  0  0  0  0  0  0
   59.3210   26.3790   46.6610 C   0  0  0  0  0  0  0  0  0  0  0  0
   57.7850   31.5570   45.8360 C   0  0  0  0  0  0  0  0  0  0  0  0
   57.4350   32.5130   46.5800 O   0  0  0  0  0  0  0  0  0  0  0  0
   56.9390   31.1580   44.8520 N   0  0  0  0  0  0  0  0  0  0  0  0
   55.3759   29.3407   43.4145 H   0  0  0  0  0  0  0  0  0  0  0  0
   56.0371   30.6018   42.3196 H   0  0  0  0  0  0  0  0  0  0  0  0
   56.7455   28.9511   42.3196 H   0  0  0  0  0  0  0  0  0  0  0  0
   58.7424   28.6598   43.4852 H   0  0  0  0  0  0  0  0  0  0  0  0
   60.8869   29.0251   46.3894 H   0  0  0  0  0  0  0  0  0  0  0  0
   60.5791   28.1673   44.8414 H   0  0  0  0  0  0  0  0  0  0  0  0
   61.4636   29.7307   44.8414 H   0  0  0  0  0  0  0  0  0  0  0  0
   60.8513   30.8155   47.0167 H   0  0  0  0  0  0  0  0  0  0  0  0
   60.0459   32.4343   47.0466 H   0  0  0  0  0  0  0  0  0  0  0  0
   59.2786   31.9653   50.3278 H   0  0  0  0  0  0  0  0  0  0  0  0
   60.1592   32.8622   49.0445 H   0  0  0  0  0  0  0  0  0  0  0  0
   58.3633   32.8267   49.0445 H   0  0  0  0  0  0  0  0  0  0  0  0
   61.1097   30.1049   48.9949 H   0  0  0  0  0  0  0  0  0  0  0  0
   59.7656   29.9941   50.2023 H   0  0  0  0  0  0  0  0  0  0  0  0
   57.8870   29.2720   47.6200 H   0  0  0  0  0  0  0  0  0  0  0  0
   56.2258   27.8030   46.4120 H   0  0  0  0  0  0  0  0  0  0  0  0
   55.8295   25.7514   45.0633 H   0  0  0  0  0  0  0  0  0  0  0  0
   59.2336   22.6017   45.3638 H   0  0  0  0  0  0  0  0  0  0  0  0
   58.7082   20.5647   44.0147 H   0  0  0  0  0  0  0  0  0  0  0  0
   56.7654   20.5832   42.4368 H   0  0  0  0  0  0  0  0  0  0  0  0
   55.3783   22.6519   42.2237 H   0  0  0  0  0  0  0  0  0  0  0  0
   59.9115   24.4945   45.7739 H   0  0  0  0  0  0  0  0  0  0  0  0
   60.3076   26.5489   47.1168 H   0  0  0  0  0  0  0  0  0  0  0  0
  1  2  1  0
  2  3  1  0
  3  4  2  0
  4  5  1  0
  4  6  1  0
  6  7  1  0
  7  8  1  0
  8  9  1  0
  8 10  1  0
 10 11  1  0
 11 12  2  0
 11 13  1  0
 13 14  1  0
 14 15  2  0
 15 16  1  0
 16 17  2  0
 17 18  1  0
 18 19  2  0
 19 20  1  0
 20 21  2  0
 21 22  1  0
 22 23  2  0
 17 24  1  0
 24 25  2  0
  6 26  1  0
 26 27  2  0
 26 28  1  0
 28  2  2  0
 25 14  1  0
 23 18  1  0
  1 29  1  0
  1 30  1  0
  1 31  1  0
  3 32  1  0
  5 33  1  0
  5 34  1  0
  5 35  1  0
  7 36  1  0
  7 37  1  0
  9 38  1  0
  9 39  1  0
  9 40  1  0
 10 41  1  0
 10 42  1  0
 13 43  1  0
 15 44  1  0
 16 45  1  0
 19 46  1  0
 20 47  1  0
 21 48  1  0
 22 49  1  0
 24 50  1  0
 25 51  1  0
M  END
>  <UniqueID>  (41) 
39

>  <SMILES>  (41) 
Cc1cc(C)n(CN(C)CC(=O)Nc2ccc(-c3ccccn3)cc2)c(=O)n1

>  <Energy>  (41) 
60.90150371939503

>  <Genealogy>  (41) 
Cc1cc(C)n(CN(C)CC(=O)Nc2ccc(-c3ccccn3)cc2)c(=O)n1 (3D coordinates assigned)
Cc1cc(C)n(CN(C)CC(=O)Nc2ccc(-c3ccccn3)cc2)c(=O)n1 (optimized conformer: 60.90150371939503 kcal/mol)

>  <smiles>  (41) 
Cc1cc(C)n(CN(C)CC(=O)Nc2ccc(-c3ccccn3)cc2)c(=O)n1

>  <score_type>  (41) 
oracle

>  <origin>  (41) 
adg

>  <m_score__min__energy>  (41) 
-8.5899999999999999

>  <m_primary>  (41) 
energy

$$$$
41:0
     RDKit          3D

 44 46  0  0  0  0  0  0  0  0999 V2000
   64.2020   33.0710   49.0010 C   0  0  0  0  0  0  0  0  0  0  0  0
   63.7660   33.5040   47.6020 C   0  0  0  0  0  0  0  0  0  0  0  0
   62.4940   32.7840   47.1210 C   0  0  0  0  0  0  0  0  0  0  0  0
   62.4490   31.2900   47.4840 C   0  0  0  0  0  0  0  0  0  0  0  0
   61.0750   30.8060   47.6460 N   0  0  0  0  0  0  0  0  0  0  0  0
   60.1610   31.1250   48.6150 C   0  0  0  0  0  0  0  0  0  0  0  0
   60.3990   32.0940   49.7400 C   0  0  0  0  0  0  0  0  0  0  0  0
   59.4260   33.1970   49.6850 N   0  0  0  0  0  0  0  0  0  0  0  0
   59.8590   34.2700   48.7750 C   0  0  0  0  0  0  0  0  0  0  0  0
   59.2380   34.1330   47.4050 C   0  0  0  0  0  0  0  0  0  0  0  0
   58.0140   33.4630   47.2480 C   0  0  0  0  0  0  0  0  0  0  0  0
   57.4250   33.3580   45.9840 C   0  0  0  0  0  0  0  0  0  0  0  0
   58.0530   33.9230   44.8700 C   0  0  0  0  0  0  0  0  0  0  0  0
   59.2690   34.5950   45.0190 C   0  0  0  0  0  0  0  0  0  0  0  0
   59.8600   34.7030   46.2810 C   0  0  0  0  0  0  0  0  0  0  0  0
   58.9310   30.4930   48.3790 C   0  0  0  0  0  0  0  0  0  0  0  0
   59.1550   29.7760   47.2320 C   0  0  0  0  0  0  0  0  0  0  0  0
   58.3190   28.7880   46.1730 S   0  0  0  0  0  0  0  0  0  0  0  0
   59.6700   28.6190   45.1330 C   0  0  0  0  0  0  0  0  0  0  0  0
   60.7600   29.3500   45.6280 C   0  0  0  0  0  0  0  0  0  0  0  0
   60.4120   29.9770   46.8200 C   0  0  0  0  0  0  0  0  0  0  0  0
   63.6329   33.6362   49.7538 H   0  0  0  0  0  0  0  0  0  0  0  0
   64.0106   31.9953   49.1282 H   0  0  0  0  0  0  0  0  0  0  0  0
   65.2764   33.2698   49.1282 H   0  0  0  0  0  0  0  0  0  0  0  0
   63.5730   34.5869   47.6141 H   0  0  0  0  0  0  0  0  0  0  0  0
   64.5771   33.2402   46.9073 H   0  0  0  0  0  0  0  0  0  0  0  0
   61.6231   33.2777   47.5769 H   0  0  0  0  0  0  0  0  0  0  0  0
   62.4875   32.8463   46.0228 H   0  0  0  0  0  0  0  0  0  0  0  0
   62.9361   30.7149   46.6827 H   0  0  0  0  0  0  0  0  0  0  0  0
   62.9715   31.1572   48.4428 H   0  0  0  0  0  0  0  0  0  0  0  0
   60.2948   31.5669   50.6999 H   0  0  0  0  0  0  0  0  0  0  0  0
   61.4131   32.5091   49.6434 H   0  0  0  0  0  0  0  0  0  0  0  0
   58.5100   32.8290   49.3350 H   0  0  0  0  0  0  0  0  0  0  0  0
   59.2750   33.5850   50.6470 H   0  0  0  0  0  0  0  0  0  0  0  0
   59.5647   35.2395   49.2033 H   0  0  0  0  0  0  0  0  0  0  0  0
   60.9510   34.2007   48.6622 H   0  0  0  0  0  0  0  0  0  0  0  0
   57.5164   33.0189   48.1228 H   0  0  0  0  0  0  0  0  0  0  0  0
   56.4669   32.8305   45.8662 H   0  0  0  0  0  0  0  0  0  0  0  0
   57.5897   33.8385   43.8759 H   0  0  0  0  0  0  0  0  0  0  0  0
   59.7619   35.0397   44.1419 H   0  0  0  0  0  0  0  0  0  0  0  0
   60.8154   35.2361   46.3949 H   0  0  0  0  0  0  0  0  0  0  0  0
   58.0072   30.5573   48.9726 H   0  0  0  0  0  0  0  0  0  0  0  0
   59.6810   28.0224   44.2089 H   0  0  0  0  0  0  0  0  0  0  0  0
   61.7457   29.4176   45.1444 H   0  0  0  0  0  0  0  0  0  0  0  0
  1  2  1  0
  2  3  1  0
  3  4  1  0
  4  5  1  0
  5  6  1  0
  6  7  1  0
  7  8  1  0
  8  9  1  0
  9 10  1  0
 10 11  2  0
 11 12  1  0
 12 13  2  0
 13 14  1  0
 14 15  2  0
  6 16  2  0
 16 17  1  0
 17 18  1  0
 18 19  1  0
 19 20  2  0
 20 21  1  0
 21  5  1  0
 15 10  1  0
 21 17  2  0
  1 22  1  0
  1 23  1  0
  1 24  1  0
  2 25  1  0
  2 26  1  0
  3 27  1  0
  3 28  1  0
  4 29  1  0
  4 30  1  0
  7 31  1  0
  7 32  1  0
  8 33  1  0
  8 34  1  0
  9 35  1  0
  9 36  1  0
 11 37  1  0
 12 38  1  0
 13 39  1  0
 14 40  1  0
 15 41  1  0
 16 42  1  0
 19 43  1  0
 20 44  1  0
M  CHG  1   8   1
M  END
>  <UniqueID>  (42) 
40

>  <SMILES>  (42) 
CCCCn1c(C[NH2+]Cc2ccccc2)cc2sccc21

>  <Energy>  (42) 
112.49092682811101

>  <Genealogy>  (42) 
CCCCn1c(C[NH2+]Cc2ccccc2)cc2sccc21 (protonated)
CCCCn1c(C[NH2+]Cc2ccccc2)cc2sccc21 (3D coordinates assigned)
CCCCn1c(C[NH2+]Cc2ccccc2)cc2sccc21 (optimized conformer: 112.49092682811101 kcal/mol)

>  <smiles>  (42) 
CCCCn1c(CNCc2ccccc2)cc2sccc21

>  <score_type>  (42) 
oracle

>  <origin>  (42) 
adg

>  <m_score__min__energy>  (42) 
-5.2000000000000002

>  <m_primary>  (42) 
energy

$$$$
42:0
     RDKit          3D

 62 65  0  0  0  0  0  0  0  0999 V2000
   61.2460   30.5180   49.5330 C   0  0  0  0  0  0  0  0  0  0  0  0
   60.6800   29.6650   48.4020 C   0  0  0  0  0  0  0  0  0  0  0  0
   59.2740   29.1620   48.7380 C   0  0  0  0  0  0  0  0  0  0  0  0
   58.5730   28.7090   47.4980 C   0  0  0  0  0  0  0  0  0  0  0  0
   58.3310   27.4120   47.2110 N   0  0  0  0  0  0  0  0  0  0  0  0
   57.6750   27.4700   46.0340 C   0  0  0  0  0  0  0  0  0  0  0  0
   57.1740   26.2720   45.3340 C   0  0  0  0  0  0  0  0  0  0  0  0
   57.7590   25.8360   44.1330 C   0  0  0  0  0  0  0  0  0  0  0  0
   57.2800   24.6920   43.4880 C   0  0  0  0  0  0  0  0  0  0  0  0
   56.2230   23.9660   44.0430 C   0  0  0  0  0  0  0  0  0  0  0  0
   55.6530   24.3770   45.2510 C   0  0  0  0  0  0  0  0  0  0  0  0
   56.1310   25.5190   45.9000 C   0  0  0  0  0  0  0  0  0  0  0  0
   57.5250   28.8000   45.6680 C   0  0  0  0  0  0  0  0  0  0  0  0
   56.7800   29.3800   44.4910 C   0  0  0  0  0  0  0  0  0  0  0  0
   56.5860   30.8320   44.6250 N   0  0  0  0  0  0  0  0  0  0  0  0
   57.5810   31.5850   43.8530 C   0  0  0  0  0  0  0  0  0  0  0  0
   57.4380   33.0930   44.0850 C   0  0  0  0  0  0  0  0  0  0  0  0
   58.0820   33.4860   45.3600 N   0  0  0  0  0  0  0  0  0  0  0  0
   58.5220   32.3160   46.1710 C   0  0  0  0  0  0  0  0  0  0  0  0
   60.0430   32.2440   46.3800 C   0  0  0  0  0  0  0  0  0  0  0  0
   60.5370   33.5240   46.8980 N   0  0  0  0  0  0  0  0  0  0  0  0
   61.6520   33.5710   47.8130 C   0  0  0  0  0  0  0  0  0  0  0  0
   62.9090   33.0780   47.4170 C   0  0  0  0  0  0  0  0  0  0  0  0
   63.9950   33.1190   48.2970 C   0  0  0  0  0  0  0  0  0  0  0  0
   63.8390   33.6460   49.5820 C   0  0  0  0  0  0  0  0  0  0  0  0
   62.5940   34.1290   49.9910 C   0  0  0  0  0  0  0  0  0  0  0  0
   61.5010   34.0940   49.1150 C   0  0  0  0  0  0  0  0  0  0  0  0
   60.2950   34.5350   49.5550 F   0  0  0  0  0  0  0  0  0  0  0  0
   59.9380   34.7710   46.4070 C   0  0  0  0  0  0  0  0  0  0  0  0
   59.1280   34.5090   45.1350 C   0  0  0  0  0  0  0  0  0  0  0  0
   58.0910   29.5330   46.5950 O   0  0  0  0  0  0  0  0  0  0  0  0
   60.9569   30.0823   50.5008 H   0  0  0  0  0  0  0  0  0  0  0  0
   62.3430   30.5468   49.4569 H   0  0  0  0  0  0  0  0  0  0  0  0
   60.8462   31.5400   49.4569 H   0  0  0  0  0  0  0  0  0  0  0  0
   60.6348   30.2700   47.4844 H   0  0  0  0  0  0  0  0  0  0  0  0
   61.3368   28.7940   48.2605 H   0  0  0  0  0  0  0  0  0  0  0  0
   59.3488   28.3190   49.4407 H   0  0  0  0  0  0  0  0  0  0  0  0
   58.7003   29.9830   49.1927 H   0  0  0  0  0  0  0  0  0  0  0  0
   58.5986   26.3981   43.6980 H   0  0  0  0  0  0  0  0  0  0  0  0
   57.7357   24.3630   42.5425 H   0  0  0  0  0  0  0  0  0  0  0  0
   55.8399   23.0718   43.5296 H   0  0  0  0  0  0  0  0  0  0  0  0
   54.8264   23.8006   45.6920 H   0  0  0  0  0  0  0  0  0  0  0  0
   55.6888   25.8297   46.8581 H   0  0  0  0  0  0  0  0  0  0  0  0
   57.3541   29.1812   43.5740 H   0  0  0  0  0  0  0  0  0  0  0  0
   55.7881   28.9064   44.4489 H   0  0  0  0  0  0  0  0  0  0  0  0
   56.6650   31.0990   45.6360 H   0  0  0  0  0  0  0  0  0  0  0  0
   58.5884   31.2686   44.1612 H   0  0  0  0  0  0  0  0  0  0  0  0
   57.4198   31.3805   42.7843 H   0  0  0  0  0  0  0  0  0  0  0  0
   57.9174   33.6337   43.2557 H   0  0  0  0  0  0  0  0  0  0  0  0
   56.3684   33.3451   44.1346 H   0  0  0  0  0  0  0  0  0  0  0  0
   58.0387   32.3760   47.1573 H   0  0  0  0  0  0  0  0  0  0  0  0
   58.2316   31.4126   45.6146 H   0  0  0  0  0  0  0  0  0  0  0  0
   60.2748   31.4453   47.1000 H   0  0  0  0  0  0  0  0  0  0  0  0
   60.5310   32.0303   45.4176 H   0  0  0  0  0  0  0  0  0  0  0  0
   63.0382   32.6576   46.4087 H   0  0  0  0  0  0  0  0  0  0  0  0
   64.9750   32.7353   47.9769 H   0  0  0  0  0  0  0  0  0  0  0  0
   64.6961   33.6803   50.2707 H   0  0  0  0  0  0  0  0  0  0  0  0
   62.4711   34.5384   51.0046 H   0  0  0  0  0  0  0  0  0  0  0  0
   59.2741   35.1835   47.1810 H   0  0  0  0  0  0  0  0  0  0  0  0
   60.7413   35.4866   46.1775 H   0  0  0  0  0  0  0  0  0  0  0  0
   58.6487   35.4466   44.8168 H   0  0  0  0  0  0  0  0  0  0  0  0
   59.8136   34.1373   44.3592 H   0  0  0  0  0  0  0  0  0  0  0  0
  1  2  1  0
  2  3  1  0
  3  4  1  0
  4  5  2  0
  5  6  1  0
  6  7  1  0
  7  8  2  0
  8  9  1  0
  9 10  2  0
 10 11  1  0
 11 12  2  0
  6 13  2  0
 13 14  1  0
 14 15  1  0
 15 16  1  0
 16 17  1  0
 17 18  1  0
 18 19  1  0
 19 20  1  0
 20 21  1  0
 21 22  1  0
 22 23  2  0
 23 24  1  0
 24 25  2  0
 25 26  1  0
 26 27  2  0
 27 28  1  0
 21 29  1  0
 29 30  1  0
 13 31  1  0
 31  4  1  0
 12  7  1  0
 30 18  1  0
 27 22  1  0
  1 32  1  0
  1 33  1  0
  1 34  1  0
  2 35  1  0
  2 36  1  0
  3 37  1  0
  3 38  1  0
  8 39  1  0
  9 40  1  0
 10 41  1  0
 11 42  1  0
 12 43  1  0
 14 44  1  0
 14 45  1  0
 15 46  1  0
 16 47  1  0
 16 48  1  0
 17 49  1  0
 17 50  1  0
 19 51  1  0
 19 52  1  0
 20 53  1  0
 20 54  1  0
 23 55  1  0
 24 56  1  0
 25 57  1  0
 26 58  1  0
 29 59  1  0
 29 60  1  0
 30 61  1  0
 30 62  1  0
M  END
>  <UniqueID>  (43) 
41

>  <SMILES>  (43) 
CCCc1nc(-c2ccccc2)c(CNCCN2CCN(c3ccccc3F)CC2)o1

>  <Energy>  (43) 
103.97184622628326

>  <Genealogy>  (43) 
CCCc1nc(-c2ccccc2)c(CNCCN2CCN(c3ccccc3F)CC2)o1 (3D coordinates assigned)
CCCc1nc(-c2ccccc2)c(CNCCN2CCN(c3ccccc3F)CC2)o1 (nonaromatic ring conformer: 103.97184622628326 kcal/mol)

>  <smiles>  (43) 
CCCc1nc(-c2ccccc2)c(CNCCN2CCN(c3ccccc3F)CC2)o1

>  <score_type>  (43) 
oracle

>  <origin>  (43) 
adg

>  <m_score__min__energy>  (43) 
-8.3699999999999992

>  <m_primary>  (43) 
energy

$$$$
43:0
     RDKit          3D

 50 53  0  0  0  0  0  0  0  0999 V2000
   63.2320   31.6040   47.4670 C   0  0  0  0  0  0  0  0  0  0  0  0
   63.7860   32.9920   47.1370 C   0  0  0  0  0  0  0  0  0  0  0  0
   62.6880   33.9450   46.6110 C   0  0  0  0  0  0  0  0  0  0  0  0
   61.3890   33.6860   47.2710 N   0  0  0  0  0  0  0  0  0  0  0  0
   61.4210   34.1840   48.6660 C   0  0  0  0  0  0  0  0  0  0  0  0
   60.0460   34.0630   49.3690 C   0  0  0  0  0  0  0  0  0  0  0  0
   59.0020   33.3050   48.5310 C   0  0  0  0  0  0  0  0  0  0  0  0
   59.2750   31.8130   48.5210 C   0  0  0  0  0  0  0  0  0  0  0  0
   59.8900   31.0380   49.5080 C   0  0  0  0  0  0  0  0  0  0  0  0
   59.9420   29.7420   49.1300 N   0  0  0  0  0  0  0  0  0  0  0  0
   59.3640   29.6800   47.9160 C   0  0  0  0  0  0  0  0  0  0  0  0
   59.1850   28.5480   47.1140 C   0  0  0  0  0  0  0  0  0  0  0  0
   59.6590   27.1950   47.5610 C   0  0  0  0  0  0  0  0  0  0  0  0
   58.5720   28.7290   45.8550 C   0  0  0  0  0  0  0  0  0  0  0  0
   58.1460   30.0160   45.4240 C   0  0  0  0  0  0  0  0  0  0  0  0
   57.5310   30.2050   44.1340 N   0  0  0  0  0  0  0  0  0  0  0  0
   56.7100   29.3630   43.4720 C   0  0  0  0  0  0  0  0  0  0  0  0
   56.3670   29.8810   42.2810 N   0  0  0  0  0  0  0  0  0  0  0  0
   57.0050   31.0650   42.2470 C   0  0  0  0  0  0  0  0  0  0  0  0
   57.7200   31.2710   43.3700 N   0  0  0  0  0  0  0  0  0  0  0  0
   58.3340   31.1260   46.2790 C   0  0  0  0  0  0  0  0  0  0  0  0
   58.9470   30.9210   47.5130 C   0  0  0  0  0  0  0  0  0  0  0  0
   58.9050   33.9200   47.1160 C   0  0  0  0  0  0  0  0  0  0  0  0
   60.2780   34.3180   46.5270 C   0  0  0  0  0  0  0  0  0  0  0  0
   63.1822   31.4792   48.5588 H   0  0  0  0  0  0  0  0  0  0  0  0
   62.2237   31.5006   47.0397 H   0  0  0  0  0  0  0  0  0  0  0  0
   63.8920   30.8347   47.0397 H   0  0  0  0  0  0  0  0  0  0  0  0
   64.2250   33.4248   48.0481 H   0  0  0  0  0  0  0  0  0  0  0  0
   64.5422   32.8764   46.3465 H   0  0  0  0  0  0  0  0  0  0  0  0
   62.9900   34.9839   46.8099 H   0  0  0  0  0  0  0  0  0  0  0  0
   62.5685   33.7741   45.5309 H   0  0  0  0  0  0  0  0  0  0  0  0
   62.1601   33.5989   49.2329 H   0  0  0  0  0  0  0  0  0  0  0  0
   61.6886   35.2505   48.6349 H   0  0  0  0  0  0  0  0  0  0  0  0
   60.1855   33.5288   50.3204 H   0  0  0  0  0  0  0  0  0  0  0  0
   59.6652   35.0838   49.5205 H   0  0  0  0  0  0  0  0  0  0  0  0
   58.0135   33.4207   48.9995 H   0  0  0  0  0  0  0  0  0  0  0  0
   60.2778   31.4289   50.4603 H   0  0  0  0  0  0  0  0  0  0  0  0
   60.3560   28.9560   49.6780 H   0  0  0  0  0  0  0  0  0  0  0  0
   59.6727   27.1560   48.6602 H   0  0  0  0  0  0  0  0  0  0  0  0
   58.9781   26.4220   47.1751 H   0  0  0  0  0  0  0  0  0  0  0  0
   60.6734   27.0159   47.1751 H   0  0  0  0  0  0  0  0  0  0  0  0
   58.4214   27.8607   45.1967 H   0  0  0  0  0  0  0  0  0  0  0  0
   56.3695   28.3893   43.8540 H   0  0  0  0  0  0  0  0  0  0  0  0
   55.7510   29.4610   41.5500 H   0  0  0  0  0  0  0  0  0  0  0  0
   56.9498   31.7749   41.4085 H   0  0  0  0  0  0  0  0  0  0  0  0
   58.0032   32.1304   45.9762 H   0  0  0  0  0  0  0  0  0  0  0  0
   58.4381   33.1829   46.4462 H   0  0  0  0  0  0  0  0  0  0  0  0
   58.3077   34.8398   47.2007 H   0  0  0  0  0  0  0  0  0  0  0  0
   60.3230   33.9969   45.4759 H   0  0  0  0  0  0  0  0  0  0  0  0
   60.3852   35.4098   46.6070 H   0  0  0  0  0  0  0  0  0  0  0  0
  1  2  1  0
  2  3  1  0
  3  4  1  0
  4  5  1  0
  5  6  1  0
  6  7  1  0
  7  8  1  0
  8  9  2  0
  9 10  1  0
 10 11  1  0
 11 12  2  0
 12 13  1  0
 12 14  1  0
 14 15  2  0
 15 16  1  0
 16 17  1  0
 17 18  2  0
 18 19  1  0
 19 20  2  0
 15 21  1  0
 21 22  2  0
  7 23  1  0
 23 24  1  0
 24  4  1  0
 22  8  1  0
 22 11  1  0
 20 16  1  0
  1 25  1  0
  1 26  1  0
  1 27  1  0
  2 28  1  0
  2 29  1  0
  3 30  1  0
  3 31  1  0
  5 32  1  0
  5 33  1  0
  6 34  1  0
  6 35  1  0
  7 36  1  0
  9 37  1  0
 10 38  1  0
 13 39  1  0
 13 40  1  0
 13 41  1  0
 14 42  1  0
 17 43  1  0
 18 44  1  0
 19 45  1  0
 21 46  1  0
 23 47  1  0
 23 48  1  0
 24 49  1  0
 24 50  1  0
M  CHG  1  18   1
M  END
>  <UniqueID>  (44) 
42

>  <SMILES>  (44) 
CCCN1CCC(c2c[nH]c3c(C)cc(-n4c[nH+]cn4)cc23)CC1

>  <Energy>  (44) 
127.56094098686457

>  <Genealogy>  (44) 
CCCN1CCC(c2c[nH]c3c(C)cc(-n4c[nH+]cn4)cc23)CC1 (protonated)
CCCN1CCC(c2c[nH]c3c(C)cc(-n4c[nH+]cn4)cc23)CC1 (3D coordinates assigned)
CCCN1CCC(c2c[nH]c3c(C)cc(-n4c[nH+]cn4)cc23)CC1 (nonaromatic ring conformer: 127.56094098686457 kcal/mol)

>  <smiles>  (44) 
CCCN1CCC(c2c[nH]c3c(C)cc(-n4cncn4)cc23)CC1

>  <score_type>  (44) 
oracle

>  <origin>  (44) 
adg

>  <m_score__min__energy>  (44) 
-6.9000000000000004

>  <m_primary>  (44) 
energy

$$$$
44:0
     RDKit          3D

 49 51  0  0  0  0  0  0  0  0999 V2000
   56.3450   29.3920   45.2310 O   0  0  0  0  0  0  0  0  0  0  0  0
   57.3830   29.2590   44.5260 C   0  0  0  0  0  0  0  0  0  0  0  0
   57.8020   27.8900   44.0850 C   0  0  0  0  0  0  0  0  0  0  0  0
   57.9020   26.9490   45.2910 C   0  0  0  0  0  0  0  0  0  0  0  0
   59.2150   27.0980   45.9530 N   0  0  0  0  0  0  0  0  0  0  0  0
   59.0420   27.4580   47.3810 C   0  0  0  0  0  0  0  0  0  0  0  0
   60.3310   28.0500   47.9670 C   0  0  0  0  0  0  0  0  0  0  0  0
   60.7430   29.2830   47.2570 N   0  0  0  0  0  0  0  0  0  0  0  0
   60.6080   30.5250   48.0510 C   0  0  0  0  0  0  0  0  0  0  0  0
   61.5040   31.6560   47.5830 C   0  0  0  0  0  0  0  0  0  0  0  0
   62.8910   31.6070   47.8170 C   0  0  0  0  0  0  0  0  0  0  0  0
   63.7190   32.6450   47.3820 C   0  0  0  0  0  0  0  0  0  0  0  0
   63.1720   33.7500   46.7250 C   0  0  0  0  0  0  0  0  0  0  0  0
   61.7940   33.8230   46.5130 C   0  0  0  0  0  0  0  0  0  0  0  0
   60.9610   32.7860   46.9460 C   0  0  0  0  0  0  0  0  0  0  0  0
   60.2170   29.4000   45.8790 C   0  0  0  0  0  0  0  0  0  0  0  0
   60.1180   28.0210   45.2130 C   0  0  0  0  0  0  0  0  0  0  0  0
   58.1640   30.4040   44.1480 N   0  0  0  0  0  0  0  0  0  0  0  0
   58.0210   31.7070   44.7380 C   0  0  0  0  0  0  0  0  0  0  0  0
   57.8970   32.8630   43.9440 C   0  0  0  0  0  0  0  0  0  0  0  0
   57.7280   34.1150   44.5440 C   0  0  0  0  0  0  0  0  0  0  0  0
   57.6680   34.2230   45.9350 C   0  0  0  0  0  0  0  0  0  0  0  0
   57.7670   33.0780   46.7310 C   0  0  0  0  0  0  0  0  0  0  0  0
   57.7000   33.1820   48.0820 F   0  0  0  0  0  0  0  0  0  0  0  0
   57.9340   31.8240   46.1350 C   0  0  0  0  0  0  0  0  0  0  0  0
   57.0595   27.4940   43.3766 H   0  0  0  0  0  0  0  0  0  0  0  0
   58.7874   27.9564   43.6008 H   0  0  0  0  0  0  0  0  0  0  0  0
   57.1046   27.1931   46.0083 H   0  0  0  0  0  0  0  0  0  0  0  0
   57.7931   25.9109   44.9437 H   0  0  0  0  0  0  0  0  0  0  0  0
   58.2349   28.2003   47.4682 H   0  0  0  0  0  0  0  0  0  0  0  0
   58.7932   26.5448   47.9416 H   0  0  0  0  0  0  0  0  0  0  0  0
   60.1629   28.2892   49.0274 H   0  0  0  0  0  0  0  0  0  0  0  0
   61.1323   27.3053   47.8516 H   0  0  0  0  0  0  0  0  0  0  0  0
   59.5631   30.8632   47.9894 H   0  0  0  0  0  0  0  0  0  0  0  0
   60.9139   30.2808   49.0790 H   0  0  0  0  0  0  0  0  0  0  0  0
   63.3259   30.7460   48.3457 H   0  0  0  0  0  0  0  0  0  0  0  0
   64.8037   32.5921   47.5572 H   0  0  0  0  0  0  0  0  0  0  0  0
   63.8265   34.5619   46.3750 H   0  0  0  0  0  0  0  0  0  0  0  0
   61.3625   34.6977   46.0045 H   0  0  0  0  0  0  0  0  0  0  0  0
   59.8747   32.8549   46.7873 H   0  0  0  0  0  0  0  0  0  0  0  0
   59.2168   29.8566   45.9126 H   0  0  0  0  0  0  0  0  0  0  0  0
   60.9049   30.0259   45.2917 H   0  0  0  0  0  0  0  0  0  0  0  0
   59.7320   28.1490   44.1909 H   0  0  0  0  0  0  0  0  0  0  0  0
   61.1241   27.5762   45.2107 H   0  0  0  0  0  0  0  0  0  0  0  0
   58.8310   30.2960   43.3510 H   0  0  0  0  0  0  0  0  0  0  0  0
   57.9332   32.7812   42.8476 H   0  0  0  0  0  0  0  0  0  0  0  0
   57.6422   35.0162   43.9191 H   0  0  0  0  0  0  0  0  0  0  0  0
   57.5427   35.2097   46.4047 H   0  0  0  0  0  0  0  0  0  0  0  0
   57.9976   30.9238   46.7640 H   0  0  0  0  0  0  0  0  0  0  0  0
  1  2  2  0
  2  3  1  0
  3  4  1  0
  4  5  1  0
  5  6  1  0
  6  7  1  0
  7  8  1  0
  8  9  1  0
  9 10  1  0
 10 11  2  0
 11 12  1  0
 12 13  2  0
 13 14  1  0
 14 15  2  0
  8 16  1  0
 16 17  1  0
  2 18  1  0
 18 19  1  0
 19 20  2  0
 20 21  1  0
 21 22  2  0
 22 23  1  0
 23 24  1  0
 23 25  2  0
 17  5  1  0
 25 19  1  0
 15 10  1  0
  3 26  1  0
  3 27  1  0
  4 28  1  0
  4 29  1  0
  6 30  1  0
  6 31  1  0
  7 32  1  0
  7 33  1  0
  9 34  1  0
  9 35  1  0
 11 36  1  0
 12 37  1  0
 13 38  1  0
 14 39  1  0
 15 40  1  0
 16 41  1  0
 16 42  1  0
 17 43  1  0
 17 44  1  0
 18 45  1  0
 20 46  1  0
 21 47  1  0
 22 48  1  0
 25 49  1  0
M  END
>  <UniqueID>  (45) 
43

>  <SMILES>  (45) 
O=C(CCN1CCN(Cc2ccccc2)CC1)Nc1cccc(F)c1

>  <Energy>  (45) 
66.219735781408

>  <Genealogy>  (45) 
O=C(CCN1CCN(Cc2ccccc2)CC1)Nc1cccc(F)c1 (3D coordinates assigned)
O=C(CCN1CCN(Cc2ccccc2)CC1)Nc1cccc(F)c1 (nonaromatic ring conformer: 66.219735781408 kcal/mol)

>  <smiles>  (45) 
O=C(CCN1CCN(Cc2ccccc2)CC1)Nc1cccc(F)c1

>  <score_type>  (45) 
oracle

>  <origin>  (45) 
adg

>  <m_score__min__energy>  (45) 
-8.8100000000000005

>  <m_primary>  (45) 
energy

$$$$
45:0
     RDKit          3D

 66 68  0  0  0  0  0  0  0  0999 V2000
   65.5510   32.2920   50.1830 C   0  0  0  0  0  0  0  0  0  0  0  0
   64.5330   33.4430   50.2100 C   0  0  0  0  0  0  0  0  0  0  0  0
   63.4160   33.3180   49.2400 N   0  0  0  0  0  0  0  0  0  0  0  0
   63.7690   32.9540   47.8500 C   0  0  0  0  0  0  0  0  0  0  0  0
   63.0950   31.6450   47.4450 C   0  0  0  0  0  0  0  0  0  0  0  0
   62.3760   34.3670   49.3440 C   0  0  0  0  0  0  0  0  0  0  0  0
   61.1020   33.9000   50.0770 C   0  0  0  0  0  0  0  0  0  0  0  0
   60.9950   32.4290   50.1120 N   0  0  0  0  0  0  0  0  0  0  0  0
   60.2030   31.9210   49.0100 C   0  0  0  0  0  0  0  0  0  0  0  0
   59.4640   32.8270   48.2320 C   0  0  0  0  0  0  0  0  0  0  0  0
   58.6870   32.4090   47.1490 C   0  0  0  0  0  0  0  0  0  0  0  0
   58.6060   31.0280   46.8460 C   0  0  0  0  0  0  0  0  0  0  0  0
   59.3360   30.1160   47.6250 C   0  0  0  0  0  0  0  0  0  0  0  0
   60.1440   30.5350   48.7010 C   0  0  0  0  0  0  0  0  0  0  0  0
   60.8880   29.5630   49.4760 N   0  0  0  0  0  0  0  0  0  0  0  0
   60.3480   28.8970   50.6650 C   0  0  0  0  0  0  0  0  0  0  0  0
   60.9640   29.4840   51.9520 C   0  0  0  0  0  0  0  0  0  0  0  0
   61.9610   30.5540   51.7210 N   0  0  0  0  0  0  0  0  0  0  0  0
   63.2760   30.0370   51.3100 C   0  0  0  0  0  0  0  0  0  0  0  0
   62.0850   31.4810   52.8560 C   0  0  0  0  0  0  0  0  0  0  0  0
   57.7400   30.4870   45.7690 C   0  0  0  0  0  0  0  0  0  0  0  0
   57.1670   29.3770   45.9430 O   0  0  0  0  0  0  0  0  0  0  0  0
   57.5850   31.1640   44.5130 N   0  0  0  0  0  0  0  0  0  0  0  0
   56.9720   30.5420   43.3510 C   0  0  0  0  0  0  0  0  0  0  0  0
   57.3340   31.4330   42.1710 C   0  0  0  0  0  0  0  0  0  0  0  0
   57.7480   32.7710   42.7770 C   0  0  0  0  0  0  0  0  0  0  0  0
   58.1610   32.4600   44.2210 C   0  0  1  0  0  0  0  0  0  0  0  0
   57.6460   33.4740   45.2000 C   0  0  0  0  0  0  0  0  0  0  0  0
   57.9260   33.4200   46.4650 N   0  0  0  0  0  0  0  0  0  0  0  0
   65.8060   32.0037   51.2135 H   0  0  0  0  0  0  0  0  0  0  0  0
   65.1151   31.4292   49.6581 H   0  0  0  0  0  0  0  0  0  0  0  0
   66.4606   32.6192   49.6581 H   0  0  0  0  0  0  0  0  0  0  0  0
   64.1025   33.4936   51.2210 H   0  0  0  0  0  0  0  0  0  0  0  0
   65.0872   34.3492   49.9243 H   0  0  0  0  0  0  0  0  0  0  0  0
   63.4382   33.7548   47.1723 H   0  0  0  0  0  0  0  0  0  0  0  0
   64.8594   32.8241   47.7854 H   0  0  0  0  0  0  0  0  0  0  0  0
   62.8072   31.0861   48.3477 H   0  0  0  0  0  0  0  0  0  0  0  0
   62.1976   31.8641   46.8478 H   0  0  0  0  0  0  0  0  0  0  0  0
   63.7946   31.0418   46.8478 H   0  0  0  0  0  0  0  0  0  0  0  0
   62.7983   35.2229   49.8909 H   0  0  0  0  0  0  0  0  0  0  0  0
   62.0802   34.6320   48.3182 H   0  0  0  0  0  0  0  0  0  0  0  0
   61.1264   34.2794   51.1092 H   0  0  0  0  0  0  0  0  0  0  0  0
   60.2315   34.2921   49.5307 H   0  0  0  0  0  0  0  0  0  0  0  0
   61.9550   32.0090   50.1020 H   0  0  0  0  0  0  0  0  0  0  0  0
   60.5770   32.1230   51.0190 H   0  0  0  0  0  0  0  0  0  0  0  0
   59.4980   33.8975   48.4828 H   0  0  0  0  0  0  0  0  0  0  0  0
   59.2755   29.0434   47.3886 H   0  0  0  0  0  0  0  0  0  0  0  0
   61.8580   29.3080   49.1910 H   0  0  0  0  0  0  0  0  0  0  0  0
   59.2572   29.0364   50.6917 H   0  0  0  0  0  0  0  0  0  0  0  0
   60.5973   27.8269   50.6123 H   0  0  0  0  0  0  0  0  0  0  0  0
   60.1500   29.8989   52.5646 H   0  0  0  0  0  0  0  0  0  0  0  0
   61.4976   28.6600   52.4483 H   0  0  0  0  0  0  0  0  0  0  0  0
   63.8732   29.8022   52.2034 H   0  0  0  0  0  0  0  0  0  0  0  0
   63.1403   29.1253   50.7097 H   0  0  0  0  0  0  0  0  0  0  0  0
   63.7975   30.7970   50.7097 H   0  0  0  0  0  0  0  0  0  0  0  0
   62.0098   30.9188   53.7985 H   0  0  0  0  0  0  0  0  0  0  0  0
   63.0592   31.9897   52.8092 H   0  0  0  0  0  0  0  0  0  0  0  0
   61.2788   32.2279   52.8092 H   0  0  0  0  0  0  0  0  0  0  0  0
   57.3712   29.5277   43.2030 H   0  0  0  0  0  0  0  0  0  0  0  0
   55.8826   30.4449   43.4685 H   0  0  0  0  0  0  0  0  0  0  0  0
   58.1671   30.9956   41.6013 H   0  0  0  0  0  0  0  0  0  0  0  0
   56.4910   31.5462   41.4735 H   0  0  0  0  0  0  0  0  0  0  0  0
   58.5939   33.1996   42.2196 H   0  0  0  0  0  0  0  0  0  0  0  0
   56.9307   33.5061   42.7369 H   0  0  0  0  0  0  0  0  0  0  0  0
   59.2568   32.4779   44.3158 H   0  0  0  0  0  0  0  0  0  0  0  0
   57.0088   34.2915   44.8318 H   0  0  0  0  0  0  0  0  0  0  0  0
  1  2  1  0
  2  3  1  0
  3  4  1  0
  4  5  1  0
  3  6  1  0
  6  7  1  0
  7  8  1  0
  8  9  1  0
  9 10  2  0
 10 11  1  0
 11 12  2  0
 12 13  1  0
 13 14  2  0
 14 15  1  0
 15 16  1  0
 16 17  1  0
 17 18  1  0
 18 19  1  0
 18 20  1  0
 12 21  1  0
 21 22  2  0
 21 23  1  0
 23 24  1  0
 24 25  1  0
 25 26  1  0
 26 27  1  0
 27 28  1  0
 28 29  2  0
 14  9  1  0
 27 23  1  0
 29 11  1  0
  1 30  1  0
  1 31  1  0
  1 32  1  0
  2 33  1  0
  2 34  1  0
  4 35  1  0
  4 36  1  0
  5 37  1  0
  5 38  1  0
  5 39  1  0
  6 40  1  0
  6 41  1  0
  7 42  1  0
  7 43  1  0
  8 44  1  0
  8 45  1  0
 10 46  1  0
 13 47  1  0
 15 48  1  0
 16 49  1  0
 16 50  1  0
 17 51  1  0
 17 52  1  0
 19 53  1  0
 19 54  1  0
 19 55  1  0
 20 56  1  0
 20 57  1  0
 20 58  1  0
 24 59  1  0
 24 60  1  0
 25 61  1  0
 25 62  1  0
 26 63  1  0
 26 64  1  0
 27 65  1  6
 28 66  1  0
M  CHG  1   8   1
M  END
>  <UniqueID>  (46) 
44

>  <SMILES>  (46) 
CCN(CC)CC[NH2+]c1cc2c(cc1NCCN(C)C)C(=O)N1CCC[C@H]1C=N2

>  <Energy>  (46) 
87.5256010954902

>  <Genealogy>  (46) 
CCN(CC)CC[NH2+]c1cc2c(cc1NCCN(C)C)C(=O)N1CCCC1C=N2 (protonated)
CCN(CC)CC[NH2+]c1cc2c(cc1NCCN(C)C)C(=O)N1CCC[C@H]1C=N2 (chirality)
CCN(CC)CC[NH2+]c1cc2c(cc1NCCN(C)C)C(=O)N1CCC[C@H]1C=N2 (3D coordinates assigned)
CCN(CC)CC[NH2+]c1cc2c(cc1NCCN(C)C)C(=O)N1CCC[C@H]1C=N2 (nonaromatic ring conformer: 87.5256010954902 kcal/mol)

>  <smiles>  (46) 
CCN(CC)CCNc1cc2c(cc1NCCN(C)C)C(=O)N1CCCC1C=N2

>  <score_type>  (46) 
oracle

>  <origin>  (46) 
adg

>  <m_score__min__energy>  (46) 
-3.1099999999999999

>  <m_primary>  (46) 
energy

$$$$
46:0
     RDKit          3D

 60 62  0  0  0  0  0  0  0  0999 V2000
   63.5960   33.6890   46.9310 C   0  0  0  0  0  0  0  0  0  0  0  0
   63.4530   32.3480   47.4790 N   0  0  0  0  0  0  0  0  0  0  0  0
   62.7570   32.1040   48.7090 C   0  0  0  0  0  0  0  0  0  0  0  0
   63.6550   31.7980   50.0480 S   0  0  0  0  0  0  0  0  0  0  0  0
   61.3150   31.9040   48.7550 N   0  0  2  0  0  0  0  0  0  0  0  0
   60.5890   32.9080   49.5760 C   0  0  0  0  0  0  0  0  0  0  0  0
   60.0550   34.1120   48.7670 C   0  0  0  0  0  0  0  0  0  0  0  0
   58.8950   33.7520   47.8210 C   0  0  0  0  0  0  0  0  0  0  0  0
   59.3980   32.9850   46.6580 N   0  0  0  0  0  0  0  0  0  0  0  0
   58.3610   32.1070   46.0620 C   0  0  0  0  0  0  0  0  0  0  0  0
   57.5820   32.7960   44.9220 C   0  0  0  0  0  0  0  0  0  0  0  0
   57.5960   34.1970   45.0840 O   0  0  0  0  0  0  0  0  0  0  0  0
   58.9090   34.6950   44.8940 C   0  0  0  0  0  0  0  0  0  0  0  0
   59.9890   33.8650   45.6300 C   0  0  0  0  0  0  0  0  0  0  0  0
   60.9600   30.5110   49.1290 C   0  0  0  0  0  0  0  0  0  0  0  0
   60.3900   29.6800   47.9940 C   0  0  0  0  0  0  0  0  0  0  0  0
   59.3620   28.7610   48.2590 C   0  0  0  0  0  0  0  0  0  0  0  0
   58.8240   27.9840   47.2250 C   0  0  0  0  0  0  0  0  0  0  0  0
   57.7810   27.0790   47.4640 C   0  0  0  0  0  0  0  0  0  0  0  0
   57.2510   26.3120   46.4070 C   0  0  0  0  0  0  0  0  0  0  0  0
   56.2070   25.3940   46.6060 O   0  0  0  0  0  0  0  0  0  0  0  0
   56.3100   24.2130   47.3950 C   0  0  0  0  0  0  0  0  0  0  0  0
   57.7710   26.4580   45.1100 C   0  0  0  0  0  0  0  0  0  0  0  0
   57.2200   25.6790   44.0820 O   0  0  0  0  0  0  0  0  0  0  0  0
   57.2880   24.2570   44.0220 C   0  0  0  0  0  0  0  0  0  0  0  0
   58.8190   27.3700   44.8770 C   0  0  0  0  0  0  0  0  0  0  0  0
   59.3430   28.1280   45.9260 C   0  0  0  0  0  0  0  0  0  0  0  0
   60.3570   29.0030   45.6930 N   0  0  0  0  0  0  0  0  0  0  0  0
   60.8940   29.7670   46.6800 C   0  0  0  0  0  0  0  0  0  0  0  0
   61.8470   30.5430   46.4050 O   0  0  0  0  0  0  0  0  0  0  0  0
   63.6734   34.4150   47.7538 H   0  0  0  0  0  0  0  0  0  0  0  0
   64.5044   33.7374   46.3126 H   0  0  0  0  0  0  0  0  0  0  0  0
   62.7182   33.9279   46.3126 H   0  0  0  0  0  0  0  0  0  0  0  0
   64.1100   31.6130   47.1340 H   0  0  0  0  0  0  0  0  0  0  0  0
   60.9640   32.0060   47.7750 H   0  0  0  0  0  0  0  0  0  0  0  0
   59.7355   32.4090   50.0582 H   0  0  0  0  0  0  0  0  0  0  0  0
   61.3111   33.3076   50.3032 H   0  0  0  0  0  0  0  0  0  0  0  0
   59.7026   34.8774   49.4740 H   0  0  0  0  0  0  0  0  0  0  0  0
   60.8835   34.4724   48.1395 H   0  0  0  0  0  0  0  0  0  0  0  0
   58.1583   33.1433   48.3657 H   0  0  0  0  0  0  0  0  0  0  0  0
   58.4260   34.6798   47.4615 H   0  0  0  0  0  0  0  0  0  0  0  0
   58.8499   31.2071   45.6606 H   0  0  0  0  0  0  0  0  0  0  0  0
   57.6400   31.8584   46.8547 H   0  0  0  0  0  0  0  0  0  0  0  0
   58.0484   32.5392   43.9594 H   0  0  0  0  0  0  0  0  0  0  0  0
   56.5388   32.4478   44.9458 H   0  0  0  0  0  0  0  0  0  0  0  0
   59.1341   34.6852   43.8173 H   0  0  0  0  0  0  0  0  0  0  0  0
   58.9366   35.7117   45.3129 H   0  0  0  0  0  0  0  0  0  0  0  0
   60.5238   33.2451   44.8953 H   0  0  0  0  0  0  0  0  0  0  0  0
   60.6748   34.5639   46.1313 H   0  0  0  0  0  0  0  0  0  0  0  0
   61.8685   30.0121   49.4974 H   0  0  0  0  0  0  0  0  0  0  0  0
   60.1699   30.5835   49.8909 H   0  0  0  0  0  0  0  0  0  0  0  0
   58.9772   28.6506   49.2836 H   0  0  0  0  0  0  0  0  0  0  0  0
   57.3746   26.9669   48.4800 H   0  0  0  0  0  0  0  0  0  0  0  0
   56.2866   24.4814   48.4615 H   0  0  0  0  0  0  0  0  0  0  0  0
   55.4667   23.5447   47.1665 H   0  0  0  0  0  0  0  0  0  0  0  0
   57.2562   23.7007   47.1665 H   0  0  0  0  0  0  0  0  0  0  0  0
   57.3076   23.8475   45.0427 H   0  0  0  0  0  0  0  0  0  0  0  0
   56.4073   23.8700   43.4885 H   0  0  0  0  0  0  0  0  0  0  0  0
   58.2016   23.9558   43.4885 H   0  0  0  0  0  0  0  0  0  0  0  0
   59.2272   27.4857   43.8621 H   0  0  0  0  0  0  0  0  0  0  0  0
  1  2  1  0
  2  3  1  0
  3  4  2  0
  3  5  1  0
  5  6  1  0
  6  7  1  0
  7  8  1  0
  8  9  1  0
  9 10  1  0
 10 11  1  0
 11 12  1  0
 12 13  1  0
 13 14  1  0
  5 15  1  0
 15 16  1  0
 16 17  2  0
 17 18  1  0
 18 19  2  0
 19 20  1  0
 20 21  1  0
 21 22  1  0
 20 23  2  0
 23 24  1  0
 24 25  1  0
 23 26  1  0
 26 27  2  0
 27 28  1  0
 28 29  1  0
 29 30  2  0
 14  9  1  0
 29 16  1  0
 27 18  1  0
  1 31  1  0
  1 32  1  0
  1 33  1  0
  2 34  1  0
  5 35  1  6
  6 36  1  0
  6 37  1  0
  7 38  1  0
  7 39  1  0
  8 40  1  0
  8 41  1  0
 10 42  1  0
 10 43  1  0
 11 44  1  0
 11 45  1  0
 13 46  1  0
 13 47  1  0
 14 48  1  0
 14 49  1  0
 15 50  1  0
 15 51  1  0
 17 52  1  0
 19 53  1  0
 22 54  1  0
 22 55  1  0
 22 56  1  0
 25 57  1  0
 25 58  1  0
 25 59  1  0
 26 60  1  0
M  CHG  2   5   1  28  -1
M  END
>  <UniqueID>  (47) 
45

>  <SMILES>  (47) 
CNC(=S)[N@H+](CCCN1CCOCC1)Cc1cc2cc(OC)c(OC)cc2[n-]c1=O

>  <Energy>  (47) 
84.90313674612962

>  <Genealogy>  (47) 
CNC(=S)[NH+](CCCN1CCOCC1)Cc1cc2cc(OC)c(OC)cc2[n-]c1=O (protonated)
CNC(=S)[N@H+](CCCN1CCOCC1)Cc1cc2cc(OC)c(OC)cc2[n-]c1=O (chirality)
CNC(=S)[N@H+](CCCN1CCOCC1)Cc1cc2cc(OC)c(OC)cc2[n-]c1=O (3D coordinates assigned)
CNC(=S)[N@H+](CCCN1CCOCC1)Cc1cc2cc(OC)c(OC)cc2[n-]c1=O (nonaromatic ring conformer: 84.90313674612962 kcal/mol)

>  <smiles>  (47) 
CNC(=S)N(CCCN1CCOCC1)Cc1cc2cc(OC)c(OC)cc2[nH]c1=O

>  <score_type>  (47) 
oracle

>  <origin>  (47) 
adg

>  <m_score__min__energy>  (47) 
-8.3200000000000003

>  <m_primary>  (47) 
energy

$$$$
47:0
     RDKit          3D

 43 45  0  0  0  0  0  0  0  0999 V2000
   60.7310   29.7140   46.8630 C   0  0  0  0  0  0  0  0  0  0  0  0
   59.9230   28.8100   45.9380 C   0  0  0  0  0  0  0  0  0  0  0  0
   58.9420   29.6140   45.1270 C   0  0  0  0  0  0  0  0  0  0  0  0
   58.9030   30.9610   45.3020 N   0  0  0  0  0  0  0  0  0  0  0  0
   58.0640   31.7580   44.5850 C   0  0  0  0  0  0  0  0  0  0  0  0
   58.0490   33.1810   44.8370 N   0  0  0  0  0  0  0  0  0  0  0  0
   57.0100   33.8170   45.6500 C   0  0  0  0  0  0  0  0  0  0  0  0
   57.3480   33.6730   47.1340 C   0  0  0  0  0  0  0  0  0  0  0  0
   58.6940   33.2570   47.3050 O   0  0  0  0  0  0  0  0  0  0  0  0
   59.6640   34.2720   47.0500 C   0  0  1  0  0  0  0  0  0  0  0  0
   61.0790   33.8930   47.5090 C   0  0  0  0  0  0  0  0  0  0  0  0
   62.1260   33.7010   46.5790 C   0  0  0  0  0  0  0  0  0  0  0  0
   63.4050   33.3370   47.0050 C   0  0  0  0  0  0  0  0  0  0  0  0
   63.6630   33.1390   48.3590 C   0  0  0  0  0  0  0  0  0  0  0  0
   62.6360   33.2850   49.2910 C   0  0  0  0  0  0  0  0  0  0  0  0
   61.3480   33.6470   48.8790 C   0  0  0  0  0  0  0  0  0  0  0  0
   60.0960   33.7490   50.1150 Cl  0  0  0  0  0  0  0  0  0  0  0  0
   59.5550   34.9490   45.6410 C   0  0  0  0  0  0  0  0  0  0  0  0
   59.2190   33.9930   44.4930 C   0  0  0  0  0  0  0  0  0  0  0  0
   57.2280   31.1890   43.6660 N   0  0  0  0  0  0  0  0  0  0  0  0
   57.2390   29.8470   43.4490 C   0  0  0  0  0  0  0  0  0  0  0  0
   58.1030   29.0230   44.1690 C   0  0  0  0  0  0  0  0  0  0  0  0
   58.0990   27.2910   43.8540 Cl  0  0  0  0  0  0  0  0  0  0  0  0
   60.5061   29.4623   47.9099 H   0  0  0  0  0  0  0  0  0  0  0  0
   61.8045   29.5673   46.6731 H   0  0  0  0  0  0  0  0  0  0  0  0
   60.4652   30.7644   46.6731 H   0  0  0  0  0  0  0  0  0  0  0  0
   60.6092   28.2852   45.2570 H   0  0  0  0  0  0  0  0  0  0  0  0
   59.3646   28.0873   46.5511 H   0  0  0  0  0  0  0  0  0  0  0  0
   56.9479   34.8846   45.3922 H   0  0  0  0  0  0  0  0  0  0  0  0
   56.0448   33.3288   45.4499 H   0  0  0  0  0  0  0  0  0  0  0  0
   57.2039   34.6428   47.6327 H   0  0  0  0  0  0  0  0  0  0  0  0
   56.6851   32.9141   47.5751 H   0  0  0  0  0  0  0  0  0  0  0  0
   59.3914   35.1038   47.7162 H   0  0  0  0  0  0  0  0  0  0  0  0
   61.9307   33.8402   45.5055 H   0  0  0  0  0  0  0  0  0  0  0  0
   64.2115   33.2062   46.2685 H   0  0  0  0  0  0  0  0  0  0  0  0
   64.6754   32.8678   48.6929 H   0  0  0  0  0  0  0  0  0  0  0  0
   62.8396   33.1144   50.3584 H   0  0  0  0  0  0  0  0  0  0  0  0
   58.7674   35.7153   45.6897 H   0  0  0  0  0  0  0  0  0  0  0  0
   60.5498   35.3623   45.4184 H   0  0  0  0  0  0  0  0  0  0  0  0
   59.0025   34.5763   43.5859 H   0  0  0  0  0  0  0  0  0  0  0  0
   60.0777   33.3286   44.3161 H   0  0  0  0  0  0  0  0  0  0  0  0
   56.5420   31.7620   43.1290 H   0  0  0  0  0  0  0  0  0  0  0  0
   56.5622   29.4086   42.7009 H   0  0  0  0  0  0  0  0  0  0  0  0
  1  2  1  0
  2  3  1  0
  3  4  2  0
  4  5  1  0
  5  6  1  0
  6  7  1  0
  7  8  1  0
  8  9  1  0
  9 10  1  0
 10 11  1  0
 11 12  2  0
 12 13  1  0
 13 14  2  0
 14 15  1  0
 15 16  2  0
 16 17  1  0
 10 18  1  0
 18 19  1  0
  5 20  2  0
 20 21  1  0
 21 22  2  0
 22 23  1  0
 22  3  1  0
 19  6  1  0
 16 11  1  0
  1 24  1  0
  1 25  1  0
  1 26  1  0
  2 27  1  0
  2 28  1  0
  7 29  1  0
  7 30  1  0
  8 31  1  0
  8 32  1  0
 10 33  1  1
 12 34  1  0
 13 35  1  0
 14 36  1  0
 15 37  1  0
 18 38  1  0
 18 39  1  0
 19 40  1  0
 19 41  1  0
 20 42  1  0
 21 43  1  0
M  CHG  1  20   1
M  END
>  <UniqueID>  (48) 
46

>  <SMILES>  (48) 
CCc1nc(N2CCO[C@@H](c3ccccc3Cl)CC2)[nH+]cc1Cl

>  <Energy>  (48) 
60.82756524573613

>  <Genealogy>  (48) 
CCc1nc(N2CCOC(c3ccccc3Cl)CC2)[nH+]cc1Cl (protonated)
CCc1nc(N2CCO[C@@H](c3ccccc3Cl)CC2)[nH+]cc1Cl (chirality)
CCc1nc(N2CCO[C@@H](c3ccccc3Cl)CC2)[nH+]cc1Cl (3D coordinates assigned)
CCc1nc(N2CCO[C@@H](c3ccccc3Cl)CC2)[nH+]cc1Cl (nonaromatic ring conformer: 60.82756524573613 kcal/mol)

>  <smiles>  (48) 
CCc1nc(N2CCOC(c3ccccc3Cl)CC2)ncc1Cl

>  <score_type>  (48) 
oracle

>  <origin>  (48) 
adg

>  <m_score__min__energy>  (48) 
-4.6799999999999997

>  <m_primary>  (48) 
energy

$$$$
