0:0
     RDKit          3D

 48 50  0  0  0  0  0  0  0  0999 V2000
   62.8110   33.8510   48.8100 C   0  0  0  0  0  0  0  0  0  0  0  0
   63.4020   33.0790   47.7060 N   0  0  0  0  0  0  0  0  0  0  0  0
   63.3300   33.8230   46.4380 C   0  0  0  0  0  0  0  0  0  0  0  0
   62.8540   31.7090   47.6000 C   0  0  0  0  0  0  0  0  0  0  0  0
   61.3180   31.6270   47.7120 C   0  0  0  0  0  0  0  0  0  0  0  0
   60.7220   31.7090   46.4170 O   0  0  0  0  0  0  0  0  0  0  0  0
   59.6990   32.5970   46.0380 C   0  0  0  0  0  0  0  0  0  0  0  0
   59.9030   33.9910   45.9830 C   0  0  0  0  0  0  0  0  0  0  0  0
   58.8540   34.8480   45.6390 C   0  0  0  0  0  0  0  0  0  0  0  0
   57.5930   34.3290   45.3500 C   0  0  0  0  0  0  0  0  0  0  0  0
   57.3760   32.9520   45.3960 C   0  0  0  0  0  0  0  0  0  0  0  0
   58.4220   32.0750   45.7310 C   0  0  0  0  0  0  0  0  0  0  0  0
   58.1690   30.6130   45.7510 C   0  0  0  0  0  0  0  0  0  0  0  0
   57.5830   29.9810   44.6430 C   0  0  0  0  0  0  0  0  0  0  0  0
   57.3480   28.6030   44.6540 C   0  0  0  0  0  0  0  0  0  0  0  0
   57.7080   27.8270   45.7700 C   0  0  0  0  0  0  0  0  0  0  0  0
   57.4560   26.4080   45.7930 N   0  0  0  0  0  0  0  0  0  0  0  0
   58.4780   25.3850   45.6240 C   0  0  0  0  0  0  0  0  0  0  0  0
   57.7970   24.0430   45.9560 C   0  0  0  0  0  0  0  0  0  0  0  0
   56.2860   24.3060   46.0080 C   0  0  0  0  0  0  0  0  0  0  0  0
   56.1960   25.7790   45.9620 C   0  0  0  0  0  0  0  0  0  0  0  0
   55.1050   26.4070   45.9960 O   0  0  0  0  0  0  0  0  0  0  0  0
   58.2890   28.4620   46.8810 C   0  0  0  0  0  0  0  0  0  0  0  0
   58.5250   29.8400   46.8680 C   0  0  0  0  0  0  0  0  0  0  0  0
   63.1368   33.4254   49.7706 H   0  0  0  0  0  0  0  0  0  0  0  0
   63.1403   34.8984   48.7425 H   0  0  0  0  0  0  0  0  0  0  0  0
   61.7140   33.8065   48.7425 H   0  0  0  0  0  0  0  0  0  0  0  0
   63.2260   34.8976   46.6488 H   0  0  0  0  0  0  0  0  0  0  0  0
   64.2491   33.6502   45.8588 H   0  0  0  0  0  0  0  0  0  0  0  0
   62.4611   33.4772   45.8588 H   0  0  0  0  0  0  0  0  0  0  0  0
   63.1505   31.2943   46.6253 H   0  0  0  0  0  0  0  0  0  0  0  0
   63.2615   31.1412   48.4494 H   0  0  0  0  0  0  0  0  0  0  0  0
   61.0387   30.6716   48.1802 H   0  0  0  0  0  0  0  0  0  0  0  0
   60.9585   32.4664   48.3254 H   0  0  0  0  0  0  0  0  0  0  0  0
   60.8951   34.4071   46.2125 H   0  0  0  0  0  0  0  0  0  0  0  0
   59.0238   35.9340   45.5962 H   0  0  0  0  0  0  0  0  0  0  0  0
   56.7678   35.0065   45.0853 H   0  0  0  0  0  0  0  0  0  0  0  0
   56.3781   32.5491   45.1682 H   0  0  0  0  0  0  0  0  0  0  0  0
   57.3066   30.5747   43.7592 H   0  0  0  0  0  0  0  0  0  0  0  0
   56.8781   28.1223   43.7833 H   0  0  0  0  0  0  0  0  0  0  0  0
   58.8460   25.3804   44.5874 H   0  0  0  0  0  0  0  0  0  0  0  0
   59.3436   25.5693   46.2773 H   0  0  0  0  0  0  0  0  0  0  0  0
   58.0245   23.3011   45.1764 H   0  0  0  0  0  0  0  0  0  0  0  0
   58.1592   23.6465   46.9160 H   0  0  0  0  0  0  0  0  0  0  0  0
   55.7772   23.8529   45.1444 H   0  0  0  0  0  0  0  0  0  0  0  0
   55.8039   23.8728   46.8968 H   0  0  0  0  0  0  0  0  0  0  0  0
   58.5602   27.8702   47.7677 H   0  0  0  0  0  0  0  0  0  0  0  0
   58.9929   30.3221   47.7390 H   0  0  0  0  0  0  0  0  0  0  0  0
  1  2  1  0
  2  3  1  0
  2  4  1  0
  4  5  1  0
  5  6  1  0
  6  7  1  0
  7  8  2  0
  8  9  1  0
  9 10  2  0
 10 11  1  0
 11 12  2  0
 12 13  1  0
 13 14  2  0
 14 15  1  0
 15 16  2  0
 16 17  1  0
 17 18  1  0
 18 19  1  0
 19 20  1  0
 20 21  1  0
 21 22  2  0
 16 23  1  0
 23 24  2  0
 12  7  1  0
 24 13  1  0
 21 17  1  0
  1 25  1  0
  1 26  1  0
  1 27  1  0
  3 28  1  0
  3 29  1  0
  3 30  1  0
  4 31  1  0
  4 32  1  0
  5 33  1  0
  5 34  1  0
  8 35  1  0
  9 36  1  0
 10 37  1  0
 11 38  1  0
 14 39  1  0
 15 40  1  0
 18 41  1  0
 18 42  1  0
 19 43  1  0
 19 44  1  0
 20 45  1  0
 20 46  1  0
 23 47  1  0
 24 48  1  0
M  END
>  <UniqueID>  (1) 
1

>  <SMILES>  (1) 
CN(C)CCOc1ccccc1-c1ccc(N2CCCC2=O)cc1

>  <Energy>  (1) 
67.35970612315926

>  <Genealogy>  (1) 
CN(C)CCOc1ccccc1-c1ccc(N2CCCC2=O)cc1 (3D coordinates assigned)
CN(C)CCOc1ccccc1-c1ccc(N2CCCC2=O)cc1 (nonaromatic ring conformer: 67.35970612315926 kcal/mol)

>  <smiles>  (1) 
CN(C)CCOc1ccccc1-c1ccc(N2CCCC2=O)cc1

>  <score_type>  (1) 
oracle

>  <origin>  (1) 
adg

>  <m_score__min__energy>  (1) 
-7.8300000000000001

>  <m_primary>  (1) 
energy

$$$$
1:0
     RDKit          3D

 49 52  0  0  0  0  0  0  0  0999 V2000
   63.1410   33.8440   46.6370 C   0  0  0  0  0  0  0  0  0  0  0  0
   63.7130   32.6990   47.4770 C   0  0  0  0  0  0  0  0  0  0  0  0
   62.6680   31.9450   48.1910 N   0  0  0  0  0  0  0  0  0  0  0  0
   61.8800   31.0890   47.2870 C   0  0  0  0  0  0  0  0  0  0  0  0
   60.4660   30.8050   47.8330 C   0  0  0  0  0  0  0  0  0  0  0  0
   59.3860   31.1070   46.8220 C   0  0  0  0  0  0  0  0  0  0  0  0
   58.5630   30.2300   46.0830 C   0  0  0  0  0  0  0  0  0  0  0  0
   57.8640   30.9300   45.1560 N   0  0  0  0  0  0  0  0  0  0  0  0
   58.1800   32.2290   45.3150 C   0  0  0  0  0  0  0  0  0  0  0  0
   57.7090   33.3260   44.5870 C   0  0  0  0  0  0  0  0  0  0  0  0
   58.2320   34.5930   44.8930 C   0  0  0  0  0  0  0  0  0  0  0  0
   59.2120   34.7380   45.8970 C   0  0  0  0  0  0  0  0  0  0  0  0
   59.6710   33.6180   46.6110 C   0  0  0  0  0  0  0  0  0  0  0  0
   59.1160   32.3700   46.3080 C   0  0  0  0  0  0  0  0  0  0  0  0
   56.9580   30.3240   44.1780 C   0  0  0  0  0  0  0  0  0  0  0  0
   57.4850   28.9400   43.7660 C   0  0  0  0  0  0  0  0  0  0  0  0
   57.8870   28.1190   44.9740 C   0  0  0  0  0  0  0  0  0  0  0  0
   57.7570   26.7220   44.9350 C   0  0  0  0  0  0  0  0  0  0  0  0
   58.1220   25.9410   46.0480 C   0  0  0  0  0  0  0  0  0  0  0  0
   58.0040   24.5440   46.0590 O   0  0  0  0  0  0  0  0  0  0  0  0
   57.7760   23.7460   44.9020 C   0  0  0  0  0  0  0  0  0  0  0  0
   58.6090   26.5750   47.1930 C   0  0  0  0  0  0  0  0  0  0  0  0
   58.7600   27.9630   47.2320 C   0  0  0  0  0  0  0  0  0  0  0  0
   58.4490   28.7460   46.1100 C   0  0  0  0  0  0  0  0  0  0  0  0
   62.7497   34.6273   47.3029 H   0  0  0  0  0  0  0  0  0  0  0  0
   63.9346   34.2651   46.0023 H   0  0  0  0  0  0  0  0  0  0  0  0
   62.3277   33.4623   46.0023 H   0  0  0  0  0  0  0  0  0  0  0  0
   64.2531   32.0093   46.8117 H   0  0  0  0  0  0  0  0  0  0  0  0
   64.3809   33.1400   48.2316 H   0  0  0  0  0  0  0  0  0  0  0  0
   63.1130   31.3550   48.9330 H   0  0  0  0  0  0  0  0  0  0  0  0
   62.0370   32.6420   48.6490 H   0  0  0  0  0  0  0  0  0  0  0  0
   61.7885   31.5928   46.3135 H   0  0  0  0  0  0  0  0  0  0  0  0
   62.4040   30.1263   47.1940 H   0  0  0  0  0  0  0  0  0  0  0  0
   60.4018   29.7428   48.1115 H   0  0  0  0  0  0  0  0  0  0  0  0
   60.3045   31.4605   48.7015 H   0  0  0  0  0  0  0  0  0  0  0  0
   56.9520   33.2005   43.7988 H   0  0  0  0  0  0  0  0  0  0  0  0
   57.8750   35.4781   44.3461 H   0  0  0  0  0  0  0  0  0  0  0  0
   59.6197   35.7344   46.1226 H   0  0  0  0  0  0  0  0  0  0  0  0
   60.4448   33.7197   47.3862 H   0  0  0  0  0  0  0  0  0  0  0  0
   55.9585   30.2159   44.6244 H   0  0  0  0  0  0  0  0  0  0  0  0
   56.8997   30.9693   43.2891 H   0  0  0  0  0  0  0  0  0  0  0  0
   56.6959   28.4056   43.2167 H   0  0  0  0  0  0  0  0  0  0  0  0
   58.3735   29.0824   43.1332 H   0  0  0  0  0  0  0  0  0  0  0  0
   57.3675   26.2344   44.0292 H   0  0  0  0  0  0  0  0  0  0  0  0
   57.4858   22.7302   45.2085 H   0  0  0  0  0  0  0  0  0  0  0  0
   56.9695   24.1924   44.3018 H   0  0  0  0  0  0  0  0  0  0  0  0
   58.6966   23.6989   44.3018 H   0  0  0  0  0  0  0  0  0  0  0  0
   58.8769   25.9742   48.0746 H   0  0  0  0  0  0  0  0  0  0  0  0
   59.1258   28.4463   48.1500 H   0  0  0  0  0  0  0  0  0  0  0  0
  1  2  1  0
  2  3  1  0
  3  4  1  0
  4  5  1  0
  5  6  1  0
  6  7  2  0
  7  8  1  0
  8  9  1  0
  9 10  2  0
 10 11  1  0
 11 12  2  0
 12 13  1  0
 13 14  2  0
  8 15  1  0
 15 16  1  0
 16 17  1  0
 17 18  2  0
 18 19  1  0
 19 20  1  0
 20 21  1  0
 19 22  2  0
 22 23  1  0
 23 24  2  0
 14  6  1  0
 24 17  1  0
 24  7  1  0
 14  9  1  0
  1 25  1  0
  1 26  1  0
  1 27  1  0
  2 28  1  0
  2 29  1  0
  3 30  1  0
  3 31  1  0
  4 32  1  0
  4 33  1  0
  5 34  1  0
  5 35  1  0
 10 36  1  0
 11 37  1  0
 12 38  1  0
 13 39  1  0
 15 40  1  0
 15 41  1  0
 16 42  1  0
 16 43  1  0
 18 44  1  0
 21 45  1  0
 21 46  1  0
 21 47  1  0
 22 48  1  0
 23 49  1  0
M  CHG  1   3   1
M  END
>  <UniqueID>  (2) 
2

>  <SMILES>  (2) 
CC[NH2+]CCc1c2n(c3ccccc13)CCc1cc(OC)ccc1-2

>  <Energy>  (2) 
91.23912272214257

>  <Genealogy>  (2) 
CC[NH2+]CCc1c2n(c3ccccc13)CCc1cc(OC)ccc1-2 (protonated)
CC[NH2+]CCc1c2n(c3ccccc13)CCc1cc(OC)ccc1-2 (3D coordinates assigned)
CC[NH2+]CCc1c2n(c3ccccc13)CCc1cc(OC)ccc1-2 (nonaromatic ring conformer: 91.23912272214257 kcal/mol)

>  <smiles>  (2) 
CCNCCc1c2n(c3ccccc13)CCc1cc(OC)ccc1-2

>  <score_type>  (2) 
oracle

>  <origin>  (2) 
adg

>  <m_score__min__energy>  (2) 
-6.3600000000000003

>  <m_primary>  (2) 
energy

$$$$
2:0
     RDKit          3D

 76 78  0  0  0  0  0  0  0  0999 V2000
   58.9100   34.9450   53.5200 C   0  0  0  0  0  0  0  0  0  0  0  0
   58.1450   34.0220   52.5790 C   0  0  0  0  0  0  0  0  0  0  0  0
   58.6730   32.6430   52.7060 N   0  0  0  0  0  0  0  0  0  0  0  0
   59.6340   32.4970   53.8300 C   0  0  0  0  0  0  0  0  0  0  0  0
   59.2620   31.4010   54.8410 C   0  0  0  0  0  0  0  0  0  0  0  0
   57.6060   31.6180   52.6640 C   0  0  0  0  0  0  0  0  0  0  0  0
   57.2120   31.2500   51.2250 C   0  0  0  0  0  0  0  0  0  0  0  0
   58.2780   30.6560   50.5030 O   0  0  0  0  0  0  0  0  0  0  0  0
   59.1240   29.8800   51.3360 C   0  0  0  0  0  0  0  0  0  0  0  0
   60.5480   30.4420   51.4130 C   0  0  0  0  0  0  0  0  0  0  0  0
   60.8260   31.2030   50.2550 O   0  0  0  0  0  0  0  0  0  0  0  0
   61.6180   30.4670   49.3420 C   0  0  0  0  0  0  0  0  0  0  0  0
   60.7330   29.5930   48.4220 C   0  0  0  0  0  0  0  0  0  0  0  0
   59.3830   30.1700   48.1820 N   0  0  0  0  0  0  0  0  0  0  0  0
   59.0830   30.2740   46.7580 C   0  0  0  0  0  0  0  0  0  0  0  0
   58.8210   29.1090   46.0010 C   0  0  0  0  0  0  0  0  0  0  0  0
   59.3240   27.8490   46.3940 C   0  0  0  0  0  0  0  0  0  0  0  0
   59.0440   26.7070   45.6480 C   0  0  0  0  0  0  0  0  0  0  0  0
   58.2760   26.7980   44.4930 C   0  0  0  0  0  0  0  0  0  0  0  0
   57.7780   28.0330   44.0790 C   0  0  0  0  0  0  0  0  0  0  0  0
   58.0220   29.2080   44.8340 C   0  0  0  0  0  0  0  0  0  0  0  0
   57.4940   30.4270   44.4650 N   0  0  0  0  0  0  0  0  0  0  0  0
   56.3750   30.4850   43.4990 C   0  0  0  0  0  0  0  0  0  0  0  0
   58.0290   31.5880   44.9880 C   0  0  0  0  0  0  0  0  0  0  0  0
   57.7520   32.8470   44.4060 C   0  0  0  0  0  0  0  0  0  0  0  0
   58.2900   34.0130   44.9300 C   0  0  0  0  0  0  0  0  0  0  0  0
   59.1900   33.9560   45.9840 C   0  0  0  0  0  0  0  0  0  0  0  0
   59.5540   32.7230   46.5520 C   0  0  0  0  0  0  0  0  0  0  0  0
   60.6290   32.6450   47.4610 O   0  0  0  0  0  0  0  0  0  0  0  0
   61.4740   33.7260   47.8650 C   0  0  0  0  0  0  0  0  0  0  0  0
   61.1790   34.1540   49.3110 C   0  0  0  0  0  0  0  0  0  0  0  0
   59.6790   34.3110   49.5830 C   0  0  0  0  0  0  0  0  0  0  0  0
   59.0290   33.0080   49.6730 N   0  0  0  0  0  0  0  0  0  0  0  0
   58.8910   31.5340   46.1250 C   0  0  0  0  0  0  0  0  0  0  0  0
   58.6854   34.6740   54.5622 H   0  0  0  0  0  0  0  0  0  0  0  0
   59.9899   34.8404   53.3385 H   0  0  0  0  0  0  0  0  0  0  0  0
   58.6069   35.9867   53.3385 H   0  0  0  0  0  0  0  0  0  0  0  0
   57.0771   34.0320   52.8428 H   0  0  0  0  0  0  0  0  0  0  0  0
   58.2687   34.3691   51.5425 H   0  0  0  0  0  0  0  0  0  0  0  0
   60.6219   32.2573   53.4098 H   0  0  0  0  0  0  0  0  0  0  0  0
   59.6233   33.4497   54.3797 H   0  0  0  0  0  0  0  0  0  0  0  0
   59.3925   31.7856   55.8633 H   0  0  0  0  0  0  0  0  0  0  0  0
   58.2131   31.1051   54.6917 H   0  0  0  0  0  0  0  0  0  0  0  0
   59.9141   30.5278   54.6917 H   0  0  0  0  0  0  0  0  0  0  0  0
   57.9640   30.7126   53.1760 H   0  0  0  0  0  0  0  0  0  0  0  0
   56.7177   32.0342   53.1618 H   0  0  0  0  0  0  0  0  0  0  0  0
   56.3719   30.5408   51.2601 H   0  0  0  0  0  0  0  0  0  0  0  0
   56.9361   32.1802   50.7068 H   0  0  0  0  0  0  0  0  0  0  0  0
   58.6978   29.8589   52.3499 H   0  0  0  0  0  0  0  0  0  0  0  0
   59.1859   28.8710   50.9022 H   0  0  0  0  0  0  0  0  0  0  0  0
   60.6399   31.0832   52.3020 H   0  0  0  0  0  0  0  0  0  0  0  0
   61.2637   29.6094   51.4807 H   0  0  0  0  0  0  0  0  0  0  0  0
   62.1989   31.1671   48.7235 H   0  0  0  0  0  0  0  0  0  0  0  0
   62.2900   29.8084   49.9117 H   0  0  0  0  0  0  0  0  0  0  0  0
   61.2416   29.4800   47.4532 H   0  0  0  0  0  0  0  0  0  0  0  0
   60.5890   28.6280   48.9299 H   0  0  0  0  0  0  0  0  0  0  0  0
   58.6910   29.5700   48.6650 H   0  0  0  0  0  0  0  0  0  0  0  0
   59.3060   31.1140   48.6260 H   0  0  0  0  0  0  0  0  0  0  0  0
   59.9437   27.7690   47.2993 H   0  0  0  0  0  0  0  0  0  0  0  0
   59.4316   25.7304   45.9736 H   0  0  0  0  0  0  0  0  0  0  0  0
   58.0606   25.8940   43.9044 H   0  0  0  0  0  0  0  0  0  0  0  0
   57.1873   28.0965   43.1532 H   0  0  0  0  0  0  0  0  0  0  0  0
   55.4214   30.5344   44.0451 H   0  0  0  0  0  0  0  0  0  0  0  0
   56.4823   31.3788   42.8668 H   0  0  0  0  0  0  0  0  0  0  0  0
   56.3893   29.5849   42.8668 H   0  0  0  0  0  0  0  0  0  0  0  0
   57.0987   32.9023   43.5227 H   0  0  0  0  0  0  0  0  0  0  0  0
   58.0018   34.9871   44.5080 H   0  0  0  0  0  0  0  0  0  0  0  0
   59.6237   34.8862   46.3797 H   0  0  0  0  0  0  0  0  0  0  0  0
   62.5241   33.4064   47.7929 H   0  0  0  0  0  0  0  0  0  0  0  0
   61.2821   34.5832   47.2029 H   0  0  0  0  0  0  0  0  0  0  0  0
   61.5833   33.3921   49.9937 H   0  0  0  0  0  0  0  0  0  0  0  0
   61.6519   35.1340   49.4722 H   0  0  0  0  0  0  0  0  0  0  0  0
   59.5391   34.8500   50.5317 H   0  0  0  0  0  0  0  0  0  0  0  0
   59.2273   34.8734   48.7525 H   0  0  0  0  0  0  0  0  0  0  0  0
   59.2120   32.6270   50.6280 H   0  0  0  0  0  0  0  0  0  0  0  0
   59.5010   32.3600   48.9990 H   0  0  0  0  0  0  0  0  0  0  0  0
  1  2  1  0
  2  3  1  0
  3  4  1  0
  4  5  1  0
  3  6  1  0
  6  7  1  0
  7  8  1  0
  8  9  1  0
  9 10  1  0
 10 11  1  0
 11 12  1  0
 12 13  1  0
 13 14  1  0
 14 15  1  0
 15 16  2  0
 16 17  1  0
 17 18  2  0
 18 19  1  0
 19 20  2  0
 20 21  1  0
 21 22  2  0
 22 23  1  0
 22 24  1  0
 24 25  2  0
 25 26  1  0
 26 27  2  0
 27 28  1  0
 28 29  1  0
 29 30  1  0
 30 31  1  0
 31 32  1  0
 32 33  1  0
 28 34  2  0
 34 15  1  0
 21 16  1  0
 34 24  1  0
  1 35  1  0
  1 36  1  0
  1 37  1  0
  2 38  1  0
  2 39  1  0
  4 40  1  0
  4 41  1  0
  5 42  1  0
  5 43  1  0
  5 44  1  0
  6 45  1  0
  6 46  1  0
  7 47  1  0
  7 48  1  0
  9 49  1  0
  9 50  1  0
 10 51  1  0
 10 52  1  0
 12 53  1  0
 12 54  1  0
 13 55  1  0
 13 56  1  0
 14 57  1  0
 14 58  1  0
 17 59  1  0
 18 60  1  0
 19 61  1  0
 20 62  1  0
 23 63  1  0
 23 64  1  0
 23 65  1  0
 25 66  1  0
 26 67  1  0
 27 68  1  0
 30 69  1  0
 30 70  1  0
 31 71  1  0
 31 72  1  0
 32 73  1  0
 32 74  1  0
 33 75  1  0
 33 76  1  0
M  CHG  2  14   1  22   1
M  END
>  <UniqueID>  (3) 
3

>  <SMILES>  (3) 
CCN(CC)CCOCCOCC[NH2+]c1c2ccccc2[n+](C)c2cccc(OCCCN)c12

>  <Energy>  (3) 
113.35531919613611

>  <Genealogy>  (3) 
CCN(CC)CCOCCOCC[NH2+]c1c2ccccc2[n+](C)c2cccc(OCCCN)c12 (protonated)
CCN(CC)CCOCCOCC[NH2+]c1c2ccccc2[n+](C)c2cccc(OCCCN)c12 (3D coordinates assigned)
CCN(CC)CCOCCOCC[NH2+]c1c2ccccc2[n+](C)c2cccc(OCCCN)c12 (optimized conformer: 113.35531919613611 kcal/mol)

>  <smiles>  (3) 
CCN(CC)CCOCCOCCNc1c2ccccc2[n+](C)c2cccc(OCCCN)c12

>  <score_type>  (3) 
oracle

>  <origin>  (3) 
adg

>  <m_score__min__energy>  (3) 
-3.2400000000000002

>  <m_primary>  (3) 
energy

$$$$
3:0
     RDKit          3D

 35 37  0  0  0  0  0  0  0  0999 V2000
   54.7270   24.0360   45.0740 C   0  0  0  0  0  0  0  0  0  0  0  0
   55.1410   24.9430   46.0900 O   0  0  0  0  0  0  0  0  0  0  0  0
   56.3340   25.6810   46.0560 C   0  0  0  0  0  0  0  0  0  0  0  0
   57.5470   24.9830   46.0950 C   0  0  0  0  0  0  0  0  0  0  0  0
   58.7650   25.6670   46.0630 C   0  0  0  0  0  0  0  0  0  0  0  0
   58.7840   27.0700   45.9910 C   0  0  0  0  0  0  0  0  0  0  0  0
   59.9800   27.8040   45.9520 C   0  0  0  0  0  0  0  0  0  0  0  0
   61.1000   27.2250   45.9770 O   0  0  0  0  0  0  0  0  0  0  0  0
   59.9270   29.1960   45.8800 C   0  0  0  0  0  0  0  0  0  0  0  0
   58.6760   29.8380   45.8510 C   0  0  0  0  0  0  0  0  0  0  0  0
   58.5690   31.3170   45.7760 C   0  0  0  0  0  0  0  0  0  0  0  0
   59.5570   32.1300   46.3640 C   0  0  0  0  0  0  0  0  0  0  0  0
   59.4530   33.5210   46.3160 C   0  0  0  0  0  0  0  0  0  0  0  0
   58.3630   34.1200   45.6860 C   0  0  0  0  0  0  0  0  0  0  0  0
   57.3720   33.3310   45.1030 C   0  0  0  0  0  0  0  0  0  0  0  0
   57.4610   31.9240   45.1400 C   0  0  0  0  0  0  0  0  0  0  0  0
   56.4820   31.1110   44.5440 O   0  0  0  0  0  0  0  0  0  0  0  0
   56.6250   30.4610   43.2840 C   0  0  0  0  0  0  0  0  0  0  0  0
   57.5620   29.1070   45.8860 O   0  0  0  0  0  0  0  0  0  0  0  0
   57.5640   27.7790   45.9530 C   0  0  0  0  0  0  0  0  0  0  0  0
   56.3490   27.0870   45.9850 C   0  0  0  0  0  0  0  0  0  0  0  0
   54.3130   23.1290   45.5387 H   0  0  0  0  0  0  0  0  0  0  0  0
   53.9570   24.5120   44.4491 H   0  0  0  0  0  0  0  0  0  0  0  0
   55.5911   23.7661   44.4491 H   0  0  0  0  0  0  0  0  0  0  0  0
   57.5411   23.8845   46.1514 H   0  0  0  0  0  0  0  0  0  0  0  0
   59.7107   25.1060   46.0942 H   0  0  0  0  0  0  0  0  0  0  0  0
   60.8548   29.7860   45.8462 H   0  0  0  0  0  0  0  0  0  0  0  0
   60.4184   31.6647   46.8656 H   0  0  0  0  0  0  0  0  0  0  0  0
   60.2326   34.1459   46.7761 H   0  0  0  0  0  0  0  0  0  0  0  0
   58.2846   35.2166   45.6488 H   0  0  0  0  0  0  0  0  0  0  0  0
   56.5134   33.8102   44.6100 H   0  0  0  0  0  0  0  0  0  0  0  0
   56.8588   29.3981   43.4442 H   0  0  0  0  0  0  0  0  0  0  0  0
   55.6861   30.5486   42.7176 H   0  0  0  0  0  0  0  0  0  0  0  0
   57.4404   30.9345   42.7176 H   0  0  0  0  0  0  0  0  0  0  0  0
   55.4008   27.6438   45.9546 H   0  0  0  0  0  0  0  0  0  0  0  0
  1  2  1  0
  2  3  1  0
  3  4  2  0
  4  5  1  0
  5  6  2  0
  6  7  1  0
  7  8  2  0
  7  9  1  0
  9 10  2  0
 10 11  1  0
 11 12  2  0
 12 13  1  0
 13 14  2  0
 14 15  1  0
 15 16  2  0
 16 17  1  0
 17 18  1  0
 10 19  1  0
 19 20  1  0
 20 21  2  0
 21  3  1  0
 20  6  1  0
 16 11  1  0
  1 22  1  0
  1 23  1  0
  1 24  1  0
  4 25  1  0
  5 26  1  0
  9 27  1  0
 12 28  1  0
 13 29  1  0
 14 30  1  0
 15 31  1  0
 18 32  1  0
 18 33  1  0
 18 34  1  0
 21 35  1  0
M  END
>  <UniqueID>  (4) 
4

>  <SMILES>  (4) 
COc1ccc2c(=O)cc(-c3ccccc3OC)oc2c1

>  <Energy>  (4) 
46.22303149740279

>  <Genealogy>  (4) 
COc1ccc2c(=O)cc(-c3ccccc3OC)oc2c1 (3D coordinates assigned)
COc1ccc2c(=O)cc(-c3ccccc3OC)oc2c1 (optimized conformer: 46.22303149740279 kcal/mol)

>  <smiles>  (4) 
COc1ccc2c(=O)cc(-c3ccccc3OC)oc2c1

>  <score_type>  (4) 
oracle

>  <origin>  (4) 
adg

>  <m_score__min__energy>  (4) 
-6.9100000000000001

>  <m_primary>  (4) 
energy

$$$$
4:0
     RDKit          3D

 29 30  0  0  0  0  0  0  0  0999 V2000
   59.2255   34.8277   45.2244 H   0  0  0  0  0  0  0  0  0  0  0  0
   58.7380   33.8510   45.0890 C   0  0  0  0  0  0  0  0  0  0  0  0
   58.3960   33.0840   46.2020 C   0  0  0  0  0  0  0  0  0  0  0  0
   58.6205   33.4532   47.2136 H   0  0  0  0  0  0  0  0  0  0  0  0
   57.7690   31.8480   46.0340 C   0  0  0  0  0  0  0  0  0  0  0  0
   57.5093   31.2435   46.9155 H   0  0  0  0  0  0  0  0  0  0  0  0
   57.4670   31.3700   44.7470 C   0  0  0  0  0  0  0  0  0  0  0  0
   56.7800   30.0610   44.6080 C   0  0  0  0  0  0  0  0  0  0  0  0
   55.5210   30.0280   44.6070 O   0  0  0  0  0  0  0  0  0  0  0  0
   57.4970   28.8190   44.5280 N   0  0  0  0  0  0  0  0  0  0  0  0
   57.1610   27.6940   45.0900 C   0  0  0  0  0  0  0  0  0  0  0  0
   57.9310   26.5490   45.2140 C   0  0  0  0  0  0  0  0  0  0  0  0
   58.9656   26.3812   44.8801 H   0  0  0  0  0  0  0  0  0  0  0  0
   57.0820   25.6680   45.8600 C   0  0  0  0  0  0  0  0  0  0  0  0
   57.3950   24.2600   46.2320 C   0  0  0  0  0  0  0  0  0  0  0  0
   57.4158   24.1662   47.3278 H   0  0  0  0  0  0  0  0  0  0  0  0
   56.6234   23.5921   45.8215 H   0  0  0  0  0  0  0  0  0  0  0  0
   58.3769   23.9819   45.8215 H   0  0  0  0  0  0  0  0  0  0  0  0
   55.9250   26.2550   46.0720 O   0  0  0  0  0  0  0  0  0  0  0  0
   55.9450   27.4730   45.6170 N   0  0  0  0  0  0  0  0  0  0  0  0
   55.1460   28.1440   45.6640 H   0  0  0  0  0  0  0  0  0  0  0  0
   57.8370   32.1340   43.6160 C   0  0  0  0  0  0  0  0  0  0  0  0
   57.5850   31.6220   42.3320 O   0  0  0  0  0  0  0  0  0  0  0  0
   57.7290   32.3620   41.1230 C   0  0  0  0  0  0  0  0  0  0  0  0
   57.9342   33.4163   41.3606 H   0  0  0  0  0  0  0  0  0  0  0  0
   58.5636   31.9490   40.5375 H   0  0  0  0  0  0  0  0  0  0  0  0
   56.8004   32.2921   40.5375 H   0  0  0  0  0  0  0  0  0  0  0  0
   58.4630   33.3820   43.8030 C   0  0  0  0  0  0  0  0  0  0  0  0
   58.7372   33.9916   42.9294 H   0  0  0  0  0  0  0  0  0  0  0  0
  1  2  1  0
  2  3  2  0
  3  4  1  0
  3  5  1  0
  5  6  1  0
  5  7  2  0
  7  8  1  0
  8  9  2  0
  8 10  1  0
 10 11  2  0
 11 12  1  0
 12 13  1  0
 12 14  2  0
 14 15  1  0
 15 16  1  0
 15 17  1  0
 15 18  1  0
 14 19  1  0
 19 20  1  0
 20 21  1  0
  7 22  1  0
 22 23  1  0
 23 24  1  0
 24 25  1  0
 24 26  1  0
 24 27  1  0
 22 28  2  0
 28 29  1  0
 28  2  1  0
 20 11  1  0
M  END
>  <UniqueID>  (5) 
5

>  <SMILES>  (5) 
COc1ccccc1C(=O)/N=c1\cc(C)o[nH]1

>  <Energy>  (5) 
68.66765818471947

>  <Genealogy>  (5) 
COc1ccccc1C(=O)/N=c1\cc(C)o[nH]1 (cis-trans isomerization)
COc1ccccc1C(=O)/N=c1\cc(C)o[nH]1 (3D coordinates assigned)
COc1ccccc1C(=O)/N=c1\cc(C)o[nH]1 (optimized conformer: 68.66765818471947 kcal/mol)

>  <smiles>  (5) 
COc1ccccc1C(=O)N=c1cc(C)o[nH]1

>  <score_type>  (5) 
oracle

>  <origin>  (5) 
adg

>  <m_score__min__energy>  (5) 
-6.9900000000000002

>  <m_primary>  (5) 
energy

$$$$
5:0
     RDKit          3D

 40 41  0  0  0  0  0  0  0  0999 V2000
   53.9030   28.5570   44.1720 H   0  0  0  0  0  0  0  0  0  0  0  0
   54.7600   29.0950   44.1940 O   0  0  0  0  0  0  0  0  0  0  0  0
   55.8680   28.7040   44.9210 N   0  0  0  0  0  0  0  0  0  0  0  0
   57.1020   29.0010   44.6190 C   0  0  0  0  0  0  0  0  0  0  0  0
   57.4180   30.3000   43.9730 C   0  0  0  0  0  0  0  0  0  0  0  0
   58.2300   31.2850   44.5890 C   0  0  0  0  0  0  0  0  0  0  0  0
   58.7460   31.1360   45.8840 O   0  0  0  0  0  0  0  0  0  0  0  0
   59.4030   32.1390   46.6080 C   0  0  0  0  0  0  0  0  0  0  0  0
   60.7250   31.9100   47.0060 C   0  0  0  0  0  0  0  0  0  0  0  0
   61.2187   30.9630   46.7427 H   0  0  0  0  0  0  0  0  0  0  0  0
   61.4220   32.8770   47.7360 C   0  0  0  0  0  0  0  0  0  0  0  0
   62.4592   32.6869   48.0492 H   0  0  0  0  0  0  0  0  0  0  0  0
   60.8040   34.0830   48.0680 C   0  0  0  0  0  0  0  0  0  0  0  0
   61.3467   34.8346   48.6601 H   0  0  0  0  0  0  0  0  0  0  0  0
   59.4950   34.3360   47.6480 C   0  0  0  0  0  0  0  0  0  0  0  0
   59.0145   35.2927   47.9005 H   0  0  0  0  0  0  0  0  0  0  0  0
   58.7920   33.3770   46.9070 C   0  0  0  0  0  0  0  0  0  0  0  0
   57.2070   33.8080   46.2790 Cl  0  0  0  0  0  0  0  0  0  0  0  0
   58.5590   32.4080   43.8950 N   0  0  0  0  0  0  0  0  0  0  0  0
   58.1090   32.6410   42.6350 C   0  0  0  0  0  0  0  0  0  0  0  0
   58.3964   33.5646   42.1112 H   0  0  0  0  0  0  0  0  0  0  0  0
   57.2840   31.7120   42.0050 C   0  0  0  0  0  0  0  0  0  0  0  0
   56.9051   31.9028   40.9901 H   0  0  0  0  0  0  0  0  0  0  0  0
   56.9440   30.5380   42.6750 C   0  0  0  0  0  0  0  0  0  0  0  0
   56.3003   29.7941   42.1828 H   0  0  0  0  0  0  0  0  0  0  0  0
   58.1380   28.0070   44.8350 N   0  0  0  0  0  0  0  0  0  0  0  0
   59.5380   28.2490   44.4490 C   0  0  0  0  0  0  0  0  0  0  0  0
   59.5645   28.9808   43.6282 H   0  0  0  0  0  0  0  0  0  0  0  0
   59.9849   27.2968   44.1273 H   0  0  0  0  0  0  0  0  0  0  0  0
   60.3380   28.7910   45.6280 C   0  0  0  0  0  0  0  0  0  0  0  0
   59.8664   28.4715   46.5690 H   0  0  0  0  0  0  0  0  0  0  0  0
   61.3662   28.4028   45.5829 H   0  0  0  0  0  0  0  0  0  0  0  0
   60.3587   29.8899   45.5829 H   0  0  0  0  0  0  0  0  0  0  0  0
   57.7750   26.6540   45.2930 C   0  0  0  0  0  0  0  0  0  0  0  0
   56.7889   26.3882   44.8845 H   0  0  0  0  0  0  0  0  0  0  0  0
   58.5405   25.9470   44.9408 H   0  0  0  0  0  0  0  0  0  0  0  0
   57.7180   26.5910   46.8150 C   0  0  0  0  0  0  0  0  0  0  0  0
   58.3990   27.3437   47.2389 H   0  0  0  0  0  0  0  0  0  0  0  0
   56.6909   26.7945   47.1522 H   0  0  0  0  0  0  0  0  0  0  0  0
   58.0229   25.5893   47.1522 H   0  0  0  0  0  0  0  0  0  0  0  0
  1  2  1  0
  2  3  1  0
  3  4  2  0
  4  5  1  0
  5  6  2  0
  6  7  1  0
  7  8  1  0
  8  9  2  0
  9 10  1  0
  9 11  1  0
 11 12  1  0
 11 13  2  0
 13 14  1  0
 13 15  1  0
 15 16  1  0
 15 17  2  0
 17 18  1  0
  6 19  1  0
 19 20  2  0
 20 21  1  0
 20 22  1  0
 22 23  1  0
 22 24  2  0
 24 25  1  0
  4 26  1  0
 26 27  1  0
 27 28  1  0
 27 29  1  0
 27 30  1  0
 30 31  1  0
 30 32  1  0
 30 33  1  0
 26 34  1  0
 34 35  1  0
 34 36  1  0
 34 37  1  0
 37 38  1  0
 37 39  1  0
 37 40  1  0
 24  5  1  0
 17  8  1  0
M  END
>  <UniqueID>  (6) 
6

>  <SMILES>  (6) 
CCN(CC)/C(=N/O)c1cccnc1Oc1ccccc1Cl

>  <Energy>  (6) 
52.13536883917226

>  <Genealogy>  (6) 
CCN(CC)/C(=N/O)c1cccnc1Oc1ccccc1Cl (cis-trans isomerization)
CCN(CC)/C(=N/O)c1cccnc1Oc1ccccc1Cl (3D coordinates assigned)
CCN(CC)/C(=N/O)c1cccnc1Oc1ccccc1Cl (optimized conformer: 52.13536883917226 kcal/mol)

>  <smiles>  (6) 
CCN(CC)C(=NO)c1cccnc1Oc1ccccc1Cl

>  <score_type>  (6) 
oracle

>  <origin>  (6) 
adg

>  <m_score__min__energy>  (6) 
-7.0899999999999999

>  <m_primary>  (6) 
energy

$$$$
6:0
     RDKit          3D

 58 61  0  0  0  0  0  0  0  0999 V2000
   62.1250   33.6720   46.4280 C   0  0  0  0  0  0  0  0  0  0  0  0
   63.4810   33.4820   47.1070 C   0  0  0  0  0  0  0  0  0  0  0  0
   63.6170   32.1030   47.6290 N   0  0  0  0  0  0  0  0  0  0  0  0
   63.9610   32.0950   49.0760 C   0  0  0  0  0  0  0  0  0  0  0  0
   63.6910   33.4720   49.6760 C   0  0  0  0  0  0  0  0  0  0  0  0
   62.3950   31.3150   47.3440 C   0  0  0  0  0  0  0  0  0  0  0  0
   61.6890   30.9090   48.6440 C   0  0  0  0  0  0  0  0  0  0  0  0
   60.8330   29.6520   48.4570 C   0  0  0  0  0  0  0  0  0  0  0  0
   59.4340   30.0110   48.2210 N   0  0  0  0  0  0  0  0  0  0  0  0
   59.0330   30.7390   47.0520 C   0  0  0  0  0  0  0  0  0  0  0  0
   59.0350   32.1520   47.0210 C   0  0  0  0  0  0  0  0  0  0  0  0
   59.3040   32.8960   48.1860 C   0  0  0  0  0  0  0  0  0  0  0  0
   59.2780   34.2890   48.1620 C   0  0  0  0  0  0  0  0  0  0  0  0
   58.9680   34.9630   46.9860 C   0  0  0  0  0  0  0  0  0  0  0  0
   58.6860   34.2530   45.8180 C   0  0  0  0  0  0  0  0  0  0  0  0
   58.7250   32.8380   45.7970 C   0  0  0  0  0  0  0  0  0  0  0  0
   58.4590   32.1210   44.6380 N   0  0  0  0  0  0  0  0  0  0  0  0
   58.2460   32.8010   43.3470 C   0  0  0  0  0  0  0  0  0  0  0  0
   58.3750   30.7540   44.7250 C   0  0  0  0  0  0  0  0  0  0  0  0
   58.0380   29.8990   43.7260 N   0  0  0  0  0  0  0  0  0  0  0  0
   58.1120   28.6700   44.2760 C   0  0  0  0  0  0  0  0  0  0  0  0
   57.8590   27.4580   43.6400 C   0  0  0  0  0  0  0  0  0  0  0  0
   57.9870   26.2770   44.3910 C   0  0  0  0  0  0  0  0  0  0  0  0
   58.3450   26.3210   45.7640 C   0  0  0  0  0  0  0  0  0  0  0  0
   58.4700   25.1020   46.5190 N   0  0  0  0  0  0  0  0  0  0  0  0
   57.9090   24.9780   47.6260 O   0  0  0  0  0  0  0  0  0  0  0  0
   59.2260   24.0570   46.0370 O   0  0  0  0  0  0  0  0  0  0  0  0
   58.5770   27.5730   46.3800 C   0  0  0  0  0  0  0  0  0  0  0  0
   58.4740   28.7270   45.6030 C   0  0  0  0  0  0  0  0  0  0  0  0
   58.6460   30.0710   45.8930 C   0  0  0  0  0  0  0  0  0  0  0  0
   61.3434   33.7815   47.1942 H   0  0  0  0  0  0  0  0  0  0  0  0
   62.1525   34.5751   45.8005 H   0  0  0  0  0  0  0  0  0  0  0  0
   61.9032   32.7962   45.8005 H   0  0  0  0  0  0  0  0  0  0  0  0
   64.2806   33.6717   46.3758 H   0  0  0  0  0  0  0  0  0  0  0  0
   63.5571   34.1872   47.9478 H   0  0  0  0  0  0  0  0  0  0  0  0
   63.3468   31.3436   49.5938 H   0  0  0  0  0  0  0  0  0  0  0  0
   65.0261   31.8475   49.1961 H   0  0  0  0  0  0  0  0  0  0  0  0
   63.7046   33.4027   50.7737 H   0  0  0  0  0  0  0  0  0  0  0  0
   64.4683   34.1757   49.3434 H   0  0  0  0  0  0  0  0  0  0  0  0
   62.7055   33.8301   49.3434 H   0  0  0  0  0  0  0  0  0  0  0  0
   61.7085   31.9226   46.7361 H   0  0  0  0  0  0  0  0  0  0  0  0
   62.6840   30.4027   46.8017 H   0  0  0  0  0  0  0  0  0  0  0  0
   62.4483   30.7114   49.4150 H   0  0  0  0  0  0  0  0  0  0  0  0
   61.0256   31.7332   48.9450 H   0  0  0  0  0  0  0  0  0  0  0  0
   61.2104   29.0828   47.5947 H   0  0  0  0  0  0  0  0  0  0  0  0
   60.8932   29.0432   49.3712 H   0  0  0  0  0  0  0  0  0  0  0  0
   58.7100   29.7550   48.9290 H   0  0  0  0  0  0  0  0  0  0  0  0
   59.5371   32.3721   49.1247 H   0  0  0  0  0  0  0  0  0  0  0  0
   59.5035   34.8573   49.0764 H   0  0  0  0  0  0  0  0  0  0  0  0
   58.9449   36.0627   46.9762 H   0  0  0  0  0  0  0  0  0  0  0  0
   58.4295   34.8013   44.8996 H   0  0  0  0  0  0  0  0  0  0  0  0
   57.9216   33.8365   43.5271 H   0  0  0  0  0  0  0  0  0  0  0  0
   59.1858   32.8053   42.7754 H   0  0  0  0  0  0  0  0  0  0  0  0
   57.4717   32.2684   42.7754 H   0  0  0  0  0  0  0  0  0  0  0  0
   57.7530   30.1070   42.7450 H   0  0  0  0  0  0  0  0  0  0  0  0
   57.5672   27.4255   42.5799 H   0  0  0  0  0  0  0  0  0  0  0  0
   57.8073   25.3051   43.9082 H   0  0  0  0  0  0  0  0  0  0  0  0
   58.8329   27.6353   47.4480 H   0  0  0  0  0  0  0  0  0  0  0  0
  1  2  1  0
  2  3  1  0
  3  4  1  0
  4  5  1  0
  3  6  1  0
  6  7  1  0
  7  8  1  0
  8  9  1  0
  9 10  1  0
 10 11  2  0
 11 12  1  0
 12 13  2  0
 13 14  1  0
 14 15  2  0
 15 16  1  0
 16 17  2  0
 17 18  1  0
 17 19  1  0
 19 20  1  0
 20 21  1  0
 21 22  2  0
 22 23  1  0
 23 24  2  0
 24 25  1  0
 25 26  2  0
 25 27  1  0
 24 28  1  0
 28 29  2  0
 29 30  1  0
 30 10  1  0
 16 11  1  0
 30 19  2  0
 29 21  1  0
  1 31  1  0
  1 32  1  0
  1 33  1  0
  2 34  1  0
  2 35  1  0
  4 36  1  0
  4 37  1  0
  5 38  1  0
  5 39  1  0
  5 40  1  0
  6 41  1  0
  6 42  1  0
  7 43  1  0
  7 44  1  0
  8 45  1  0
  8 46  1  0
  9 47  1  0
 12 48  1  0
 13 49  1  0
 14 50  1  0
 15 51  1  0
 18 52  1  0
 18 53  1  0
 18 54  1  0
 20 55  1  0
 22 56  1  0
 23 57  1  0
 28 58  1  0
M  CHG  3  17   1  25   1  27  -1
M  END
>  <UniqueID>  (7) 
7

>  <SMILES>  (7) 
CCN(CC)CCCNc1c2ccccc2[n+](C)c2[nH]c3ccc([N+](=O)[O-])cc3c12

>  <Energy>  (7) 
114.20603392827344

>  <Genealogy>  (7) 
CCN(CC)CCCNc1c2ccccc2[n+](C)c2[nH]c3ccc([N+](=O)[O-])cc3c12 (3D coordinates assigned)
CCN(CC)CCCNc1c2ccccc2[n+](C)c2[nH]c3ccc([N+](=O)[O-])cc3c12 (optimized conformer: 114.20603392827344 kcal/mol)

>  <smiles>  (7) 
CCN(CC)CCCNc1c2ccccc2[n+](C)c2[nH]c3ccc([N+](=O)[O-])cc3c12

>  <score_type>  (7) 
oracle

>  <origin>  (7) 
adg

>  <m_score__min__energy>  (7) 
-6.6600000000000001

>  <m_primary>  (7) 
energy

$$$$
7:0
     RDKit          3D

 36 39  0  0  0  0  0  0  0  0999 V2000
   57.7950   32.3370   41.6290 C   0  0  0  0  0  0  0  0  0  0  0  0
   57.9530   32.0990   43.0580 N   0  0  0  0  0  0  0  0  0  0  0  0
   57.8410   33.0190   44.0340 C   0  0  0  0  0  0  0  0  0  0  0  0
   58.1390   32.4190   45.2430 C   0  0  0  0  0  0  0  0  0  0  0  0
   58.4430   31.1070   44.9180 C   0  0  0  0  0  0  0  0  0  0  0  0
   58.8250   30.0360   45.8570 C   0  0  0  0  0  0  0  0  0  0  0  0
   59.5290   30.1490   47.0620 C   0  0  0  0  0  0  0  0  0  0  0  0
   60.1830   31.3540   47.6120 C   0  0  0  0  0  0  0  0  0  0  0  0
   59.6760   31.9510   48.7790 C   0  0  0  0  0  0  0  0  0  0  0  0
   60.2900   33.0890   49.3150 C   0  0  0  0  0  0  0  0  0  0  0  0
   59.6380   33.8360   50.7620 Cl  0  0  0  0  0  0  0  0  0  0  0  0
   61.4200   33.6320   48.6960 C   0  0  0  0  0  0  0  0  0  0  0  0
   61.9450   33.0320   47.5470 C   0  0  0  0  0  0  0  0  0  0  0  0
   63.3720   33.7040   46.7810 Cl  0  0  0  0  0  0  0  0  0  0  0  0
   61.3360   31.8930   47.0110 C   0  0  0  0  0  0  0  0  0  0  0  0
   59.5770   28.9460   47.6810 N   0  0  0  0  0  0  0  0  0  0  0  0
   58.9350   28.0880   46.9070 N   0  0  0  0  0  0  0  0  0  0  0  0
   58.7330   26.7720   47.1710 C   0  0  0  0  0  0  0  0  0  0  0  0
   57.9920   26.0150   46.2530 C   0  0  0  0  0  0  0  0  0  0  0  0
   57.4730   26.6370   45.1010 C   0  0  0  0  0  0  0  0  0  0  0  0
   57.7030   28.0010   44.8680 C   0  0  0  0  0  0  0  0  0  0  0  0
   58.4670   28.6990   45.8070 C   0  0  0  0  0  0  0  0  0  0  0  0
   58.3300   30.9450   43.5850 N   0  0  0  0  0  0  0  0  0  0  0  0
   57.1928   33.2441   41.4728 H   0  0  0  0  0  0  0  0  0  0  0  0
   58.7847   32.4700   41.1678 H   0  0  0  0  0  0  0  0  0  0  0  0
   57.2882   31.4765   41.1678 H   0  0  0  0  0  0  0  0  0  0  0  0
   57.5592   34.0729   43.8930 H   0  0  0  0  0  0  0  0  0  0  0  0
   58.1356   32.8807   46.2414 H   0  0  0  0  0  0  0  0  0  0  0  0
   58.7922   31.5218   49.2736 H   0  0  0  0  0  0  0  0  0  0  0  0
   61.8963   34.5316   49.1130 H   0  0  0  0  0  0  0  0  0  0  0  0
   61.7602   31.4159   46.1152 H   0  0  0  0  0  0  0  0  0  0  0  0
   59.1407   26.3110   48.0827 H   0  0  0  0  0  0  0  0  0  0  0  0
   57.8173   24.9436   46.4310 H   0  0  0  0  0  0  0  0  0  0  0  0
   56.8844   26.0503   44.3804 H   0  0  0  0  0  0  0  0  0  0  0  0
   57.2964   28.5033   43.9778 H   0  0  0  0  0  0  0  0  0  0  0  0
   58.5250   30.0750   43.0410 H   0  0  0  0  0  0  0  0  0  0  0  0
  1  2  1  0
  2  3  1  0
  3  4  2  0
  4  5  1  0
  5  6  1  0
  6  7  1  0
  7  8  1  0
  8  9  2  0
  9 10  1  0
 10 11  1  0
 10 12  2  0
 12 13  1  0
 13 14  1  0
 13 15  2  0
  7 16  2  0
 16 17  1  0
 17 18  1  0
 18 19  2  0
 19 20  1  0
 20 21  2  0
 21 22  1  0
  5 23  2  0
 23  2  1  0
 22  6  2  0
 15  8  1  0
 22 17  1  0
  1 24  1  0
  1 25  1  0
  1 26  1  0
  3 27  1  0
  4 28  1  0
  9 29  1  0
 12 30  1  0
 15 31  1  0
 18 32  1  0
 19 33  1  0
 20 34  1  0
 21 35  1  0
 23 36  1  0
M  CHG  1  23   1
M  END
>  <UniqueID>  (8) 
8

>  <SMILES>  (8) 
Cn1ccc(-c2c(-c3cc(Cl)cc(Cl)c3)nn3ccccc23)[nH+]1

>  <Energy>  (8) 
111.96432442286606

>  <Genealogy>  (8) 
Cn1ccc(-c2c(-c3cc(Cl)cc(Cl)c3)nn3ccccc23)[nH+]1 (protonated)
Cn1ccc(-c2c(-c3cc(Cl)cc(Cl)c3)nn3ccccc23)[nH+]1 (3D coordinates assigned)
Cn1ccc(-c2c(-c3cc(Cl)cc(Cl)c3)nn3ccccc23)[nH+]1 (optimized conformer: 111.96432442286606 kcal/mol)

>  <smiles>  (8) 
Cn1ccc(-c2c(-c3cc(Cl)cc(Cl)c3)nn3ccccc23)n1

>  <score_type>  (8) 
oracle

>  <origin>  (8) 
adg

>  <m_score__min__energy>  (8) 
-6.5999999999999996

>  <m_primary>  (8) 
energy

$$$$
8:0
     RDKit          3D

 77 80  0  0  0  0  0  0  0  0999 V2000
   62.7650   33.8380   46.5080 C   0  0  0  0  0  0  0  0  0  0  0  0
   63.4380   32.7710   47.3630 C   0  0  0  0  0  0  0  0  0  0  0  0
   62.7500   32.6490   48.6690 N   0  0  0  0  0  0  0  0  0  0  0  0
   63.4440   33.4260   49.7220 C   0  0  0  0  0  0  0  0  0  0  0  0
   64.9430   33.1270   49.7600 C   0  0  0  0  0  0  0  0  0  0  0  0
   62.4890   31.2330   49.0330 C   0  0  0  0  0  0  0  0  0  0  0  0
   61.4880   30.5240   48.0970 C   0  0  0  0  0  0  0  0  0  0  0  0
   60.3480   29.8760   48.8910 C   0  0  0  0  0  0  0  0  0  0  0  0
   59.0600   30.4220   48.4650 N   0  0  0  0  0  0  0  0  0  0  0  0
   58.8080   30.6800   47.0770 C   0  0  0  0  0  0  0  0  0  0  0  0
   58.5510   29.5830   46.2330 C   0  0  0  0  0  0  0  0  0  0  0  0
   58.7200   28.2570   46.6910 C   0  0  0  0  0  0  0  0  0  0  0  0
   58.5120   27.1750   45.8380 C   0  0  0  0  0  0  0  0  0  0  0  0
   58.1390   27.3930   44.5180 C   0  0  0  0  0  0  0  0  0  0  0  0
   57.9420   28.6920   44.0520 C   0  0  0  0  0  0  0  0  0  0  0  0
   58.1100   29.8100   44.9090 C   0  0  0  0  0  0  0  0  0  0  0  0
   57.8470   31.0930   44.4840 N   0  0  0  0  0  0  0  0  0  0  0  0
   57.0430   31.3080   43.2590 C   0  0  0  0  0  0  0  0  0  0  0  0
   58.3110   32.1740   45.2110 C   0  0  0  0  0  0  0  0  0  0  0  0
   58.3200   33.4670   44.6400 C   0  0  0  0  0  0  0  0  0  0  0  0
   58.7260   34.5710   45.3640 C   0  0  0  0  0  0  0  0  0  0  0  0
   59.1870   34.4300   46.6580 C   0  0  0  0  0  0  0  0  0  0  0  0
   59.2900   33.1580   47.2710 C   0  0  0  0  0  0  0  0  0  0  0  0
   59.8710   33.0250   48.6010 N   0  0  0  0  0  0  0  0  0  0  0  0
   59.9480   34.2510   49.4180 C   0  0  0  0  0  0  0  0  0  0  0  0
   60.1840   33.9020   50.8970 C   0  0  0  0  0  0  0  0  0  0  0  0
   58.9340   33.3460   51.5900 C   0  0  0  0  0  0  0  0  0  0  0  0
   58.5980   32.0000   51.0680 N   0  0  0  0  0  0  0  0  0  0  0  0
   57.1360   31.7670   50.9550 C   0  0  0  0  0  0  0  0  0  0  0  0
   56.6200   30.7970   52.0340 C   0  0  0  0  0  0  0  0  0  0  0  0
   57.2510   29.5250   51.9920 O   0  0  0  0  0  0  0  0  0  0  0  0
   58.6140   29.5730   51.5870 C   0  0  0  0  0  0  0  0  0  0  0  0
   59.2890   30.9340   51.8250 C   0  0  0  0  0  0  0  0  0  0  0  0
   58.8070   32.0040   46.5440 C   0  0  0  0  0  0  0  0  0  0  0  0
   62.2927   34.5869   47.1608 H   0  0  0  0  0  0  0  0  0  0  0  0
   63.5179   34.3278   45.8730 H   0  0  0  0  0  0  0  0  0  0  0  0
   61.9986   33.3695   45.8730 H   0  0  0  0  0  0  0  0  0  0  0  0
   63.3946   31.8051   46.8384 H   0  0  0  0  0  0  0  0  0  0  0  0
   64.4853   33.0593   47.5360 H   0  0  0  0  0  0  0  0  0  0  0  0
   63.3007   34.4986   49.5247 H   0  0  0  0  0  0  0  0  0  0  0  0
   63.0155   33.1396   50.6938 H   0  0  0  0  0  0  0  0  0  0  0  0
   65.2772   33.0603   50.8059 H   0  0  0  0  0  0  0  0  0  0  0  0
   65.1394   32.1720   49.2507 H   0  0  0  0  0  0  0  0  0  0  0  0
   65.4908   33.9336   49.2507 H   0  0  0  0  0  0  0  0  0  0  0  0
   63.4423   30.6851   49.0003 H   0  0  0  0  0  0  0  0  0  0  0  0
   62.0405   31.2377   50.0374 H   0  0  0  0  0  0  0  0  0  0  0  0
   61.0649   31.2619   47.3995 H   0  0  0  0  0  0  0  0  0  0  0  0
   62.0233   29.7342   47.5495 H   0  0  0  0  0  0  0  0  0  0  0  0
   60.3569   28.7897   48.7182 H   0  0  0  0  0  0  0  0  0  0  0  0
   60.4908   30.0880   49.9609 H   0  0  0  0  0  0  0  0  0  0  0  0
   58.4700   30.9250   49.1680 H   0  0  0  0  0  0  0  0  0  0  0  0
   59.0195   28.0766   47.7340 H   0  0  0  0  0  0  0  0  0  0  0  0
   58.6432   26.1482   46.2100 H   0  0  0  0  0  0  0  0  0  0  0  0
   57.9988   26.5390   43.8390 H   0  0  0  0  0  0  0  0  0  0  0  0
   57.6517   28.8527   43.0032 H   0  0  0  0  0  0  0  0  0  0  0  0
   56.0152   31.5828   43.5385 H   0  0  0  0  0  0  0  0  0  0  0  0
   57.4903   32.1181   42.6643 H   0  0  0  0  0  0  0  0  0  0  0  0
   57.0263   30.3828   42.6643 H   0  0  0  0  0  0  0  0  0  0  0  0
   57.9967   33.5968   43.5966 H   0  0  0  0  0  0  0  0  0  0  0  0
   58.6818   35.5703   44.9063 H   0  0  0  0  0  0  0  0  0  0  0  0
   59.4807   35.3257   47.2250 H   0  0  0  0  0  0  0  0  0  0  0  0
   59.2880   32.3450   49.1350 H   0  0  0  0  0  0  0  0  0  0  0  0
   60.8530   32.6850   48.4890 H   0  0  0  0  0  0  0  0  0  0  0  0
   60.7790   34.8746   49.0567 H   0  0  0  0  0  0  0  0  0  0  0  0
   58.9967   34.7963   49.3298 H   0  0  0  0  0  0  0  0  0  0  0  0
   60.9820   33.1472   50.9557 H   0  0  0  0  0  0  0  0  0  0  0  0
   60.4594   34.8330   51.4141 H   0  0  0  0  0  0  0  0  0  0  0  0
   59.1219   33.2768   52.6716 H   0  0  0  0  0  0  0  0  0  0  0  0
   58.0898   34.0225   51.3907 H   0  0  0  0  0  0  0  0  0  0  0  0
   56.6139   32.7291   51.0637 H   0  0  0  0  0  0  0  0  0  0  0  0
   56.9395   31.3158   49.9713 H   0  0  0  0  0  0  0  0  0  0  0  0
   56.8017   31.2448   53.0222 H   0  0  0  0  0  0  0  0  0  0  0  0
   55.5486   30.6365   51.8433 H   0  0  0  0  0  0  0  0  0  0  0  0
   59.1693   28.8082   52.1498 H   0  0  0  0  0  0  0  0  0  0  0  0
   58.6302   29.3949   50.5016 H   0  0  0  0  0  0  0  0  0  0  0  0
   59.2530   31.1721   52.8983 H   0  0  0  0  0  0  0  0  0  0  0  0
   60.3324   30.8760   51.4815 H   0  0  0  0  0  0  0  0  0  0  0  0
  1  2  1  0
  2  3  1  0
  3  4  1  0
  4  5  1  0
  3  6  1  0
  6  7  1  0
  7  8  1  0
  8  9  1  0
  9 10  1  0
 10 11  2  0
 11 12  1  0
 12 13  2  0
 13 14  1  0
 14 15  2  0
 15 16  1  0
 16 17  2  0
 17 18  1  0
 17 19  1  0
 19 20  2  0
 20 21  1  0
 21 22  2  0
 22 23  1  0
 23 24  1  0
 24 25  1  0
 25 26  1  0
 26 27  1  0
 27 28  1  0
 28 29  1  0
 29 30  1  0
 30 31  1  0
 31 32  1  0
 32 33  1  0
 23 34  2  0
 34 10  1  0
 16 11  1  0
 34 19  1  0
 33 28  1  0
  1 35  1  0
  1 36  1  0
  1 37  1  0
  2 38  1  0
  2 39  1  0
  4 40  1  0
  4 41  1  0
  5 42  1  0
  5 43  1  0
  5 44  1  0
  6 45  1  0
  6 46  1  0
  7 47  1  0
  7 48  1  0
  8 49  1  0
  8 50  1  0
  9 51  1  0
 12 52  1  0
 13 53  1  0
 14 54  1  0
 15 55  1  0
 18 56  1  0
 18 57  1  0
 18 58  1  0
 20 59  1  0
 21 60  1  0
 22 61  1  0
 24 62  1  0
 24 63  1  0
 25 64  1  0
 25 65  1  0
 26 66  1  0
 26 67  1  0
 27 68  1  0
 27 69  1  0
 29 70  1  0
 29 71  1  0
 30 72  1  0
 30 73  1  0
 32 74  1  0
 32 75  1  0
 33 76  1  0
 33 77  1  0
M  CHG  2  17   1  24   1
M  END
>  <UniqueID>  (9) 
9

>  <SMILES>  (9) 
CCN(CC)CCCNc1c2ccccc2[n+](C)c2cccc([NH2+]CCCN3CCOCC3)c12

>  <Energy>  (9) 
130.07620874763677

>  <Genealogy>  (9) 
CCN(CC)CCCNc1c2ccccc2[n+](C)c2cccc([NH2+]CCCN3CCOCC3)c12 (protonated)
CCN(CC)CCCNc1c2ccccc2[n+](C)c2cccc([NH2+]CCCN3CCOCC3)c12 (3D coordinates assigned)
CCN(CC)CCCNc1c2ccccc2[n+](C)c2cccc([NH2+]CCCN3CCOCC3)c12 (nonaromatic ring conformer: 130.07620874763677 kcal/mol)

>  <smiles>  (9) 
CCN(CC)CCCNc1c2ccccc2[n+](C)c2cccc(NCCCN3CCOCC3)c12

>  <score_type>  (9) 
oracle

>  <origin>  (9) 
adg

>  <m_score__min__energy>  (9) 
-4.9100000000000001

>  <m_primary>  (9) 
energy

$$$$
9:0
     RDKit          3D

 46 47  0  0  0  0  0  0  0  0999 V2000
   57.4220   28.7050   43.7630 C   0  0  0  0  0  0  0  0  0  0  0  0
   56.0700   29.4100   43.7360 C   0  0  0  0  0  0  0  0  0  0  0  0
   56.0800   30.5530   44.6540 N   0  0  0  0  0  0  0  0  0  0  0  0
   57.1290   31.5070   44.2680 C   0  0  0  0  0  0  0  0  0  0  0  0
   57.3390   32.5540   45.3680 C   0  0  0  0  0  0  0  0  0  0  0  0
   58.1740   32.0060   46.5310 C   0  0  0  0  0  0  0  0  0  0  0  0
   57.9300   30.5650   46.6810 N   0  0  0  0  0  0  0  0  0  0  0  0
   59.0400   29.8990   47.3810 C   0  0  0  0  0  0  0  0  0  0  0  0
   58.6880   28.4460   47.7280 C   0  0  0  0  0  0  0  0  0  0  0  0
   57.6140   27.9290   46.8730 N   0  0  0  0  0  0  0  0  0  0  0  0
   57.5460   26.5780   46.3800 C   0  0  0  0  0  0  0  0  0  0  0  0
   58.7350   25.8460   46.2720 C   0  0  0  0  0  0  0  0  0  0  0  0
   58.7320   24.5230   45.8170 C   0  0  0  0  0  0  0  0  0  0  0  0
   59.9320   23.8160   45.7350 O   0  0  0  0  0  0  0  0  0  0  0  0
   57.5200   23.9120   45.4500 C   0  0  0  0  0  0  0  0  0  0  0  0
   57.4910   22.5810   44.9940 C   0  0  0  0  0  0  0  0  0  0  0  0
   56.2820   21.9870   44.6240 C   0  0  0  0  0  0  0  0  0  0  0  0
   55.0920   22.7100   44.7020 C   0  0  0  0  0  0  0  0  0  0  0  0
   55.1010   24.0330   45.1520 C   0  0  0  0  0  0  0  0  0  0  0  0
   56.3090   24.6480   45.5310 C   0  0  0  0  0  0  0  0  0  0  0  0
   56.3290   25.9830   45.9860 C   0  0  0  0  0  0  0  0  0  0  0  0
   55.1470   26.7170   46.0190 O   0  0  0  0  0  0  0  0  0  0  0  0
   57.7308   28.5440   44.8064 H   0  0  0  0  0  0  0  0  0  0  0  0
   57.3399   27.7349   43.2510 H   0  0  0  0  0  0  0  0  0  0  0  0
   58.1705   29.3276   43.2510 H   0  0  0  0  0  0  0  0  0  0  0  0
   55.8649   29.7649   42.7152 H   0  0  0  0  0  0  0  0  0  0  0  0
   55.2885   28.7025   44.0501 H   0  0  0  0  0  0  0  0  0  0  0  0
   56.3110   30.1950   45.6110 H   0  0  0  0  0  0  0  0  0  0  0  0
   58.0702   30.9620   44.1035 H   0  0  0  0  0  0  0  0  0  0  0  0
   56.8193   32.0198   43.3454 H   0  0  0  0  0  0  0  0  0  0  0  0
   57.8578   33.4228   44.9368 H   0  0  0  0  0  0  0  0  0  0  0  0
   56.3513   32.8354   45.7621 H   0  0  0  0  0  0  0  0  0  0  0  0
   59.2413   32.1767   46.3269 H   0  0  0  0  0  0  0  0  0  0  0  0
   57.8879   32.5221   47.4593 H   0  0  0  0  0  0  0  0  0  0  0  0
   57.8710   30.1530   45.7200 H   0  0  0  0  0  0  0  0  0  0  0  0
   59.9289   29.9075   46.7331 H   0  0  0  0  0  0  0  0  0  0  0  0
   59.2360   30.4421   48.3173 H   0  0  0  0  0  0  0  0  0  0  0  0
   59.5829   27.8206   47.5937 H   0  0  0  0  0  0  0  0  0  0  0  0
   58.3399   28.4172   48.7711 H   0  0  0  0  0  0  0  0  0  0  0  0
   56.9830   28.6390   46.4360 H   0  0  0  0  0  0  0  0  0  0  0  0
   59.6882   26.3196   46.5498 H   0  0  0  0  0  0  0  0  0  0  0  0
   60.0830   23.1020   45.0310 H   0  0  0  0  0  0  0  0  0  0  0  0
   58.4258   22.0050   44.9285 H   0  0  0  0  0  0  0  0  0  0  0  0
   56.2686   20.9456   44.2700 H   0  0  0  0  0  0  0  0  0  0  0  0
   54.1431   22.2373   44.4083 H   0  0  0  0  0  0  0  0  0  0  0  0
   54.1585   24.5971   45.2104 H   0  0  0  0  0  0  0  0  0  0  0  0
  1  2  1  0
  2  3  1  0
  3  4  1  0
  4  5  1  0
  5  6  1  0
  6  7  1  0
  7  8  1  0
  8  9  1  0
  9 10  1  0
 10 11  1  0
 11 12  2  0
 12 13  1  0
 13 14  1  0
 13 15  2  0
 15 16  1  0
 16 17  2  0
 17 18  1  0
 18 19  2  0
 19 20  1  0
 20 21  2  0
 21 22  1  0
 21 11  1  0
 20 15  1  0
  1 23  1  0
  1 24  1  0
  1 25  1  0
  2 26  1  0
  2 27  1  0
  3 28  1  0
  4 29  1  0
  4 30  1  0
  5 31  1  0
  5 32  1  0
  6 33  1  0
  6 34  1  0
  7 35  1  0
  8 36  1  0
  8 37  1  0
  9 38  1  0
  9 39  1  0
 10 40  1  0
 12 41  1  0
 14 42  1  0
 16 43  1  0
 17 44  1  0
 18 45  1  0
 19 46  1  0
M  CHG  1  22  -1
M  END
>  <UniqueID>  (10) 
10

>  <SMILES>  (10) 
CCNCCCNCCNc1cc(O)c2ccccc2c1[O-]

>  <Energy>  (10) 
42.37269022403769

>  <Genealogy>  (10) 
CCNCCCNCCNc1cc(O)c2ccccc2c1[O-] (protonated)
CCNCCCNCCNc1cc(O)c2ccccc2c1[O-] (3D coordinates assigned)
CCNCCCNCCNc1cc(O)c2ccccc2c1[O-] (optimized conformer: 42.37269022403769 kcal/mol)

>  <smiles>  (10) 
CCNCCCNCCNc1cc(O)c2ccccc2c1O

>  <score_type>  (10) 
oracle

>  <origin>  (10) 
adg

>  <m_score__min__energy>  (10) 
-9.2100000000000009

>  <m_primary>  (10) 
energy

$$$$
10:0
     RDKit          3D

 29 31  0  0  0  0  0  0  0  0999 V2000
   56.6290   30.3560   44.8710 O   0  0  0  0  0  0  0  0  0  0  0  0
   57.6850   30.7890   45.4020 C   0  0  0  0  0  0  0  0  0  0  0  0
   58.0770   32.1920   45.4830 C   0  0  0  0  0  0  0  0  0  0  0  0
   57.4160   33.3460   45.0650 C   0  0  0  0  0  0  0  0  0  0  0  0
   58.0510   34.5830   45.2750 C   0  0  0  0  0  0  0  0  0  0  0  0
   59.3200   34.6400   45.8930 C   0  0  0  0  0  0  0  0  0  0  0  0
   59.9670   33.4600   46.3030 C   0  0  0  0  0  0  0  0  0  0  0  0
   59.3170   32.2470   46.0810 C   0  0  0  0  0  0  0  0  0  0  0  0
   59.7220   30.8810   46.3910 C   0  0  0  0  0  0  0  0  0  0  0  0
   60.7810   30.5510   46.9870 O   0  0  0  0  0  0  0  0  0  0  0  0
   58.7080   29.9610   45.9690 N   0  0  0  0  0  0  0  0  0  0  0  0
   58.7150   28.5270   46.0900 C   0  0  0  0  0  0  0  0  0  0  0  0
   59.9180   27.8390   46.3070 C   0  0  0  0  0  0  0  0  0  0  0  0
   59.9210   26.4490   46.4380 C   0  0  0  0  0  0  0  0  0  0  0  0
   58.7270   25.7310   46.3440 C   0  0  0  0  0  0  0  0  0  0  0  0
   57.5150   26.3980   46.1010 C   0  0  0  0  0  0  0  0  0  0  0  0
   56.2170   25.6320   46.0540 C   0  0  0  0  0  0  0  0  0  0  0  0
   56.1060   24.8550   47.1910 F   0  0  0  0  0  0  0  0  0  0  0  0
   55.1400   26.4990   45.9940 F   0  0  0  0  0  0  0  0  0  0  0  0
   56.1720   24.8100   44.9400 F   0  0  0  0  0  0  0  0  0  0  0  0
   57.5160   27.8010   45.9980 C   0  0  0  0  0  0  0  0  0  0  0  0
   56.4276   33.2906   44.5854 H   0  0  0  0  0  0  0  0  0  0  0  0
   57.5563   35.5123   44.9560 H   0  0  0  0  0  0  0  0  0  0  0  0
   59.8056   35.6137   46.0547 H   0  0  0  0  0  0  0  0  0  0  0  0
   60.9557   33.4935   46.7841 H   0  0  0  0  0  0  0  0  0  0  0  0
   60.8634   28.3972   46.3743 H   0  0  0  0  0  0  0  0  0  0  0  0
   60.8675   25.9174   46.6159 H   0  0  0  0  0  0  0  0  0  0  0  0
   58.7357   24.6373   46.4609 H   0  0  0  0  0  0  0  0  0  0  0  0
   56.5671   28.3356   45.8437 H   0  0  0  0  0  0  0  0  0  0  0  0
  1  2  2  0
  2  3  1  0
  3  4  2  0
  4  5  1  0
  5  6  2  0
  6  7  1  0
  7  8  2  0
  8  9  1  0
  9 10  2  0
  9 11  1  0
 11 12  1  0
 12 13  2  0
 13 14  1  0
 14 15  2  0
 15 16  1  0
 16 17  1  0
 17 18  1  0
 17 19  1  0
 17 20  1  0
 16 21  2  0
 11  2  1  0
 21 12  1  0
  8  3  1  0
  4 22  1  0
  5 23  1  0
  6 24  1  0
  7 25  1  0
 13 26  1  0
 14 27  1  0
 15 28  1  0
 21 29  1  0
M  END
>  <UniqueID>  (11) 
11

>  <SMILES>  (11) 
O=C1c2ccccc2C(=O)N1c1cccc(C(F)(F)F)c1

>  <Energy>  (11) 
69.23617812370425

>  <Genealogy>  (11) 
O=C1c2ccccc2C(=O)N1c1cccc(C(F)(F)F)c1 (3D coordinates assigned)
O=C1c2ccccc2C(=O)N1c1cccc(C(F)(F)F)c1 (nonaromatic ring conformer: 69.23617812370425 kcal/mol)

>  <smiles>  (11) 
O=C1c2ccccc2C(=O)N1c1cccc(C(F)(F)F)c1

>  <score_type>  (11) 
oracle

>  <origin>  (11) 
adg

>  <m_score__min__energy>  (11) 
-6.9299999999999997

>  <m_primary>  (11) 
energy

$$$$
11:0
     RDKit          3D

 53 55  0  0  0  0  0  0  0  0999 V2000
   55.0650   29.3090   44.7220 O   0  0  0  0  0  0  0  0  0  0  0  0
   56.4060   29.4350   44.3230 C   0  0  2  0  0  0  0  0  0  0  0  0
   57.3230   28.7020   45.3280 C   0  0  0  0  0  0  0  0  0  0  0  0
   58.6310   28.2870   44.7780 N   0  0  0  0  0  0  0  0  0  0  0  0
   59.1110   27.0030   45.3380 C   0  0  0  0  0  0  0  0  0  0  0  0
   57.9960   26.0350   45.6770 C   0  0  0  0  0  0  0  0  0  0  0  0
   57.5090   25.1340   44.7210 C   0  0  0  0  0  0  0  0  0  0  0  0
   56.4820   24.2470   45.0500 C   0  0  0  0  0  0  0  0  0  0  0  0
   55.9360   24.2700   46.3450 C   0  0  0  0  0  0  0  0  0  0  0  0
   54.9040   23.4060   46.7420 O   0  0  0  0  0  0  0  0  0  0  0  0
   54.9780   22.5050   47.8440 C   0  0  0  0  0  0  0  0  0  0  0  0
   54.0680   22.8940   48.8070 F   0  0  0  0  0  0  0  0  0  0  0  0
   56.2490   22.5310   48.3900 F   0  0  0  0  0  0  0  0  0  0  0  0
   56.4150   25.1630   47.2520 N   0  0  0  0  0  0  0  0  0  0  0  0
   57.4140   26.0360   46.9530 C   0  0  0  0  0  0  0  0  0  0  0  0
   59.6590   29.3480   44.7640 C   0  0  0  0  0  0  0  0  0  0  0  0
   59.0410   30.7510   44.9990 C   0  0  0  0  0  0  0  0  0  0  0  0
   58.2140   31.2310   43.8580 N   0  0  2  0  0  0  0  0  0  0  0  0
   58.4000   32.6990   43.6500 C   0  0  0  0  0  0  0  0  0  0  0  0
   57.6070   33.5610   44.6560 C   0  0  0  0  0  0  0  0  0  0  0  0
   58.3000   33.6940   45.9860 C   0  0  0  0  0  0  0  0  0  0  0  0
   57.9230   32.8840   47.0720 C   0  0  0  0  0  0  0  0  0  0  0  0
   58.5280   33.0530   48.3200 C   0  0  0  0  0  0  0  0  0  0  0  0
   59.5140   34.0270   48.4950 C   0  0  0  0  0  0  0  0  0  0  0  0
   59.8960   34.8360   47.4210 C   0  0  0  0  0  0  0  0  0  0  0  0
   59.2910   34.6740   46.1710 C   0  0  0  0  0  0  0  0  0  0  0  0
   56.7680   30.9240   44.0440 C   0  0  0  0  0  0  0  0  0  0  0  0
   54.7840   28.3790   44.5170 H   0  0  0  0  0  0  0  0  0  0  0  0
   56.5706   28.9340   43.3577 H   0  0  0  0  0  0  0  0  0  0  0  0
   57.5064   29.3746   46.1789 H   0  0  0  0  0  0  0  0  0  0  0  0
   56.7976   27.7787   45.6134 H   0  0  0  0  0  0  0  0  0  0  0  0
   59.7723   26.5269   44.5991 H   0  0  0  0  0  0  0  0  0  0  0  0
   59.6331   27.2359   46.2778 H   0  0  0  0  0  0  0  0  0  0  0  0
   57.9371   25.1253   43.7078 H   0  0  0  0  0  0  0  0  0  0  0  0
   56.1031   23.5356   44.3014 H   0  0  0  0  0  0  0  0  0  0  0  0
   54.7512   21.4865   47.4958 H   0  0  0  0  0  0  0  0  0  0  0  0
   57.7671   26.7460   47.7153 H   0  0  0  0  0  0  0  0  0  0  0  0
   60.3921   29.1441   45.5583 H   0  0  0  0  0  0  0  0  0  0  0  0
   60.1386   29.3468   43.7740 H   0  0  0  0  0  0  0  0  0  0  0  0
   58.4056   30.7064   45.8958 H   0  0  0  0  0  0  0  0  0  0  0  0
   59.8754   31.4582   45.1156 H   0  0  0  0  0  0  0  0  0  0  0  0
   58.5170   30.7600   42.9740 H   0  0  0  0  0  0  0  0  0  0  0  0
   59.4694   32.9342   43.7548 H   0  0  0  0  0  0  0  0  0  0  0  0
   58.0211   32.9374   42.6452 H   0  0  0  0  0  0  0  0  0  0  0  0
   57.4723   34.5654   44.2282 H   0  0  0  0  0  0  0  0  0  0  0  0
   56.6441   33.0598   44.8337 H   0  0  0  0  0  0  0  0  0  0  0  0
   57.1487   32.1142   46.9384 H   0  0  0  0  0  0  0  0  0  0  0  0
   58.2274   32.4179   49.1663 H   0  0  0  0  0  0  0  0  0  0  0  0
   59.9899   34.1573   49.4781 H   0  0  0  0  0  0  0  0  0  0  0  0
   60.6739   35.6013   47.5595 H   0  0  0  0  0  0  0  0  0  0  0  0
   59.5914   35.3155   45.3294 H   0  0  0  0  0  0  0  0  0  0  0  0
   56.4058   31.5213   44.8937 H   0  0  0  0  0  0  0  0  0  0  0  0
   56.2923   31.1648   43.0819 H   0  0  0  0  0  0  0  0  0  0  0  0
  1  2  1  0
  2  3  1  0
  3  4  1  0
  4  5  1  0
  5  6  1  0
  6  7  2  0
  7  8  1  0
  8  9  2  0
  9 10  1  0
 10 11  1  0
 11 12  1  0
 11 13  1  0
  9 14  1  0
 14 15  2  0
  4 16  1  0
 16 17  1  0
 17 18  1  0
 18 19  1  0
 19 20  1  0
 20 21  1  0
 21 22  2  0
 22 23  1  0
 23 24  2  0
 24 25  1  0
 25 26  2  0
 18 27  1  0
 27  2  1  0
 15  6  1  0
 26 21  1  0
  1 28  1  0
  2 29  1  6
  3 30  1  0
  3 31  1  0
  5 32  1  0
  5 33  1  0
  7 34  1  0
  8 35  1  0
 11 36  1  0
 15 37  1  0
 16 38  1  0
 16 39  1  0
 17 40  1  0
 17 41  1  0
 18 42  1  6
 19 43  1  0
 19 44  1  0
 20 45  1  0
 20 46  1  0
 22 47  1  0
 23 48  1  0
 24 49  1  0
 25 50  1  0
 26 51  1  0
 27 52  1  0
 27 53  1  0
M  CHG  1  18   1
M  END
>  <UniqueID>  (12) 
12

>  <SMILES>  (12) 
O[C@@H]1CN(Cc2ccc(OC(F)F)nc2)CC[N@H+](CCc2ccccc2)C1

>  <Energy>  (12) 
76.7505377370131

>  <Genealogy>  (12) 
OC1CN(Cc2ccc(OC(F)F)nc2)CC[NH+](CCc2ccccc2)C1 (protonated)
O[C@@H]1CN(Cc2ccc(OC(F)F)nc2)CC[N@H+](CCc2ccccc2)C1 (chirality)
O[C@@H]1CN(Cc2ccc(OC(F)F)nc2)CC[N@H+](CCc2ccccc2)C1 (3D coordinates assigned)
O[C@@H]1CN(Cc2ccc(OC(F)F)nc2)CC[N@H+](CCc2ccccc2)C1 (nonaromatic ring conformer: 76.7505377370131 kcal/mol)

>  <smiles>  (12) 
OC1CN(CCc2ccccc2)CCN(Cc2ccc(OC(F)F)nc2)C1

>  <score_type>  (12) 
oracle

>  <origin>  (12) 
adg

>  <m_score__min__energy>  (12) 
-4.6600000000000001

>  <m_primary>  (12) 
energy

$$$$
12:0
     RDKit          3D

 46 48  0  0  0  0  0  0  0  0999 V2000
   61.3000   32.4180   50.5630 C   0  0  0  0  0  0  0  0  0  0  0  0
   61.6760   31.1330   49.8100 C   0  0  0  0  0  0  0  0  0  0  0  0
   60.8600   30.8710   48.5990 N   0  0  0  0  0  0  0  0  0  0  0  0
   61.6460   31.0550   47.3550 C   0  0  0  0  0  0  0  0  0  0  0  0
   62.1740   32.4830   47.1980 C   0  0  0  0  0  0  0  0  0  0  0  0
   60.0840   29.2970   48.6710 S   0  0  0  0  0  0  0  0  0  0  0  0
   61.0690   28.2530   49.1220 O   0  0  0  0  0  0  0  0  0  0  0  0
   58.9360   29.3180   49.6410 O   0  0  0  0  0  0  0  0  0  0  0  0
   59.4390   28.8650   47.0870 C   0  0  0  0  0  0  0  0  0  0  0  0
   60.1430   27.9700   46.2740 C   0  0  0  0  0  0  0  0  0  0  0  0
   59.6400   27.6120   45.0230 C   0  0  0  0  0  0  0  0  0  0  0  0
   58.4360   28.1540   44.5650 C   0  0  0  0  0  0  0  0  0  0  0  0
   57.9480   27.7500   43.3640 F   0  0  0  0  0  0  0  0  0  0  0  0
   57.7300   29.0770   45.3600 C   0  0  0  0  0  0  0  0  0  0  0  0
   56.4580   29.6770   44.8930 C   0  0  0  0  0  0  0  0  0  0  0  0
   55.4230   28.9620   44.8450 O   0  0  0  0  0  0  0  0  0  0  0  0
   56.3750   31.0410   44.4570 N   0  0  0  0  0  0  0  0  0  0  0  0
   57.2730   32.1010   44.8140 C   0  0  0  0  0  0  0  0  0  0  0  0
   57.9560   32.8580   43.8280 C   0  0  0  0  0  0  0  0  0  0  0  0
   58.8350   33.8850   44.2020 C   0  0  0  0  0  0  0  0  0  0  0  0
   59.0300   34.1240   45.5590 C   0  0  0  0  0  0  0  0  0  0  0  0
   60.0160   35.2690   46.2850 S   0  0  0  0  0  0  0  0  0  0  0  0
   59.6310   34.8230   47.8710 C   0  0  0  0  0  0  0  0  0  0  0  0
   58.7220   33.7650   47.8390 C   0  0  0  0  0  0  0  0  0  0  0  0
   58.3900   33.3790   46.5360 C   0  0  0  0  0  0  0  0  0  0  0  0
   57.5100   32.3550   46.1780 C   0  0  0  0  0  0  0  0  0  0  0  0
   58.2340   29.4180   46.6270 C   0  0  0  0  0  0  0  0  0  0  0  0
   61.3530   32.2368   51.6467 H   0  0  0  0  0  0  0  0  0  0  0  0
   62.0009   33.2209   50.2908 H   0  0  0  0  0  0  0  0  0  0  0  0
   60.2769   32.7165   50.2908 H   0  0  0  0  0  0  0  0  0  0  0  0
   62.7300   31.2091   49.5047 H   0  0  0  0  0  0  0  0  0  0  0  0
   61.4888   30.2980   50.5012 H   0  0  0  0  0  0  0  0  0  0  0  0
   60.0970   31.5880   48.6090 H   0  0  0  0  0  0  0  0  0  0  0  0
   62.5011   30.3632   47.3730 H   0  0  0  0  0  0  0  0  0  0  0  0
   60.9775   30.8518   46.5054 H   0  0  0  0  0  0  0  0  0  0  0  0
   62.3374   32.9249   48.1920 H   0  0  0  0  0  0  0  0  0  0  0  0
   63.1244   32.4637   46.6446 H   0  0  0  0  0  0  0  0  0  0  0  0
   61.4396   33.0867   46.6446 H   0  0  0  0  0  0  0  0  0  0  0  0
   61.0967   27.5470   46.6226 H   0  0  0  0  0  0  0  0  0  0  0  0
   60.1938   26.8996   44.3939 H   0  0  0  0  0  0  0  0  0  0  0  0
   57.7952   32.6381   42.7623 H   0  0  0  0  0  0  0  0  0  0  0  0
   59.3566   34.4859   43.4425 H   0  0  0  0  0  0  0  0  0  0  0  0
   60.0329   35.2919   48.7813 H   0  0  0  0  0  0  0  0  0  0  0  0
   58.3111   33.2865   48.7402 H   0  0  0  0  0  0  0  0  0  0  0  0
   57.0088   31.7550   46.9518 H   0  0  0  0  0  0  0  0  0  0  0  0
   57.6796   30.1238   47.2630 H   0  0  0  0  0  0  0  0  0  0  0  0
  1  2  1  0
  2  3  1  0
  3  4  1  0
  4  5  1  0
  3  6  1  0
  6  7  2  0
  6  8  2  0
  6  9  1  0
  9 10  2  0
 10 11  1  0
 11 12  2  0
 12 13  1  0
 12 14  1  0
 14 15  1  0
 15 16  2  0
 15 17  1  0
 17 18  1  0
 18 19  2  0
 19 20  1  0
 20 21  2  0
 21 22  1  0
 22 23  1  0
 23 24  2  0
 24 25  1  0
 25 26  2  0
 14 27  2  0
 27  9  1  0
 26 18  1  0
 25 21  1  0
  1 28  1  0
  1 29  1  0
  1 30  1  0
  2 31  1  0
  2 32  1  0
  3 33  1  0
  4 34  1  0
  4 35  1  0
  5 36  1  0
  5 37  1  0
  5 38  1  0
 10 39  1  0
 11 40  1  0
 19 41  1  0
 20 42  1  0
 23 43  1  0
 24 44  1  0
 26 45  1  0
 27 46  1  0
M  CHG  2   3   1  17  -1
M  END
>  <UniqueID>  (13) 
13

>  <SMILES>  (13) 
CC[NH+](CC)S(=O)(=O)c1ccc(F)c(C(=O)[N-]c2ccc3sccc3c2)c1

>  <Energy>  (13) 
86.36130832003279

>  <Genealogy>  (13) 
CC[NH+](CC)S(=O)(=O)c1ccc(F)c(C(=O)[N-]c2ccc3sccc3c2)c1 (protonated)
CC[NH+](CC)S(=O)(=O)c1ccc(F)c(C(=O)[N-]c2ccc3sccc3c2)c1 (3D coordinates assigned)
CC[NH+](CC)S(=O)(=O)c1ccc(F)c(C(=O)[N-]c2ccc3sccc3c2)c1 (optimized conformer: 86.36130832003279 kcal/mol)

>  <smiles>  (13) 
CCN(CC)S(=O)(=O)c1ccc(F)c(C(=O)Nc2ccc3sccc3c2)c1

>  <score_type>  (13) 
oracle

>  <origin>  (13) 
adg

>  <m_score__min__energy>  (13) 
-8.6899999999999995

>  <m_primary>  (13) 
energy

$$$$
13:0
     RDKit          3D

 43 43  0  0  0  0  0  0  0  0999 V2000
   55.5220   30.0870   43.7630 C   0  0  0  0  0  0  0  0  0  0  0  0
   56.1960   29.7570   44.9730 O   0  0  0  0  0  0  0  0  0  0  0  0
   57.4440   29.1140   45.0440 C   0  0  0  0  0  0  0  0  0  0  0  0
   57.5530   27.7100   45.1010 C   0  0  0  0  0  0  0  0  0  0  0  0
   58.8090   27.1010   45.1560 C   0  0  0  0  0  0  0  0  0  0  0  0
   59.9670   27.8800   45.1490 C   0  0  0  0  0  0  0  0  0  0  0  0
   59.8730   29.2720   45.0920 C   0  0  0  0  0  0  0  0  0  0  0  0
   58.6170   29.9000   45.0540 C   0  0  0  0  0  0  0  0  0  0  0  0
   58.5370   31.4040   44.9510 C   0  0  0  0  0  0  0  0  0  0  0  0
   57.7600   31.9530   46.0740 N   0  0  0  0  0  0  0  0  0  0  0  0
   57.0780   33.2170   45.7370 C   0  0  0  0  0  0  0  0  0  0  0  0
   57.9120   34.1900   44.8770 C   0  0  0  0  0  0  0  0  0  0  0  0
   59.2260   34.6880   45.5100 C   0  0  0  0  0  0  0  0  0  0  0  0
   59.1620   34.8800   47.0420 C   0  0  0  0  0  0  0  0  0  0  0  0
   60.3400   34.2740   47.8330 C   0  0  0  0  0  0  0  0  0  0  0  0
   60.3900   32.7400   47.8230 C   0  0  0  0  0  0  0  0  0  0  0  0
   59.1570   32.1780   48.3560 N   0  0  0  0  0  0  0  0  0  0  0  0
   59.0070   30.7740   48.5580 C   0  0  0  0  0  0  0  0  0  0  0  0
   58.1970   30.1230   47.8500 O   0  0  0  0  0  0  0  0  0  0  0  0
   54.5569   30.5595   43.9980 H   0  0  0  0  0  0  0  0  0  0  0  0
   56.1392   30.7849   43.1781 H   0  0  0  0  0  0  0  0  0  0  0  0
   55.3493   29.1716   43.1781 H   0  0  0  0  0  0  0  0  0  0  0  0
   56.6441   27.0904   45.1022 H   0  0  0  0  0  0  0  0  0  0  0  0
   58.8855   26.0048   45.2049 H   0  0  0  0  0  0  0  0  0  0  0  0
   60.9545   27.3970   45.1884 H   0  0  0  0  0  0  0  0  0  0  0  0
   60.7889   29.8811   45.0767 H   0  0  0  0  0  0  0  0  0  0  0  0
   59.5535   31.8237   44.9737 H   0  0  0  0  0  0  0  0  0  0  0  0
   58.0394   31.6717   44.0072 H   0  0  0  0  0  0  0  0  0  0  0  0
   58.3730   32.0800   46.9090 H   0  0  0  0  0  0  0  0  0  0  0  0
   57.0210   31.2580   46.3350 H   0  0  0  0  0  0  0  0  0  0  0  0
   56.1584   32.9735   45.1847 H   0  0  0  0  0  0  0  0  0  0  0  0
   56.8867   33.7308   46.6906 H   0  0  0  0  0  0  0  0  0  0  0  0
   58.1634   33.6782   43.9363 H   0  0  0  0  0  0  0  0  0  0  0  0
   57.2857   35.0848   44.7464 H   0  0  0  0  0  0  0  0  0  0  0  0
   60.0150   33.9546   45.2875 H   0  0  0  0  0  0  0  0  0  0  0  0
   59.4282   35.6787   45.0769 H   0  0  0  0  0  0  0  0  0  0  0  0
   59.1344   35.9602   47.2481 H   0  0  0  0  0  0  0  0  0  0  0  0
   58.2624   34.3436   47.3781 H   0  0  0  0  0  0  0  0  0  0  0  0
   61.2769   34.6513   47.3973 H   0  0  0  0  0  0  0  0  0  0  0  0
   60.2016   34.5761   48.8816 H   0  0  0  0  0  0  0  0  0  0  0  0
   60.5280   32.3906   46.7891 H   0  0  0  0  0  0  0  0  0  0  0  0
   61.2287   32.4109   48.4541 H   0  0  0  0  0  0  0  0  0  0  0  0
   59.5985   30.2620   49.3313 H   0  0  0  0  0  0  0  0  0  0  0  0
  1  2  1  0
  2  3  1  0
  3  4  2  0
  4  5  1  0
  5  6  2  0
  6  7  1  0
  7  8  2  0
  8  9  1  0
  9 10  1  0
 10 11  1  0
 11 12  1  0
 12 13  1  0
 13 14  1  0
 14 15  1  0
 15 16  1  0
 16 17  1  0
 17 18  1  0
 18 19  2  0
  8  3  1  0
  1 20  1  0
  1 21  1  0
  1 22  1  0
  4 23  1  0
  5 24  1  0
  6 25  1  0
  7 26  1  0
  9 27  1  0
  9 28  1  0
 10 29  1  0
 10 30  1  0
 11 31  1  0
 11 32  1  0
 12 33  1  0
 12 34  1  0
 13 35  1  0
 13 36  1  0
 14 37  1  0
 14 38  1  0
 15 39  1  0
 15 40  1  0
 16 41  1  0
 16 42  1  0
 18 43  1  0
M  CHG  2  10   1  17  -1
M  END
>  <UniqueID>  (14) 
14

>  <SMILES>  (14) 
COc1ccccc1C[NH2+]CCCCCC[N-]C=O

>  <Energy>  (14) 
32.278398873425814

>  <Genealogy>  (14) 
COc1ccccc1C[NH2+]CCCCCC[N-]C=O (protonated)
COc1ccccc1C[NH2+]CCCCCC[N-]C=O (3D coordinates assigned)
COc1ccccc1C[NH2+]CCCCCC[N-]C=O (optimized conformer: 32.278398873425814 kcal/mol)

>  <smiles>  (14) 
COc1ccccc1CNCCCCCCNC=O

>  <score_type>  (14) 
oracle

>  <origin>  (14) 
adg

>  <m_score__min__energy>  (14) 
-5.1900000000000004

>  <m_primary>  (14) 
energy

$$$$
14:0
     RDKit          3D

 68 71  0  0  0  0  0  0  0  0999 V2000
   57.6840   26.4020   46.7890 C   0  0  0  0  0  0  0  0  0  0  0  0
   57.4140   26.7450   45.3240 C   0  0  0  0  0  0  0  0  0  0  0  0
   57.9530   28.0830   44.9910 N   0  0  0  0  0  0  0  0  0  0  0  0
   57.7680   29.0150   46.1290 C   0  0  0  0  0  0  0  0  0  0  0  0
   57.8400   30.4770   45.6710 C   0  0  0  0  0  0  0  0  0  0  0  0
   56.7440   30.8040   44.7220 N   0  0  0  0  0  0  0  0  0  0  0  0
   57.0920   31.9620   43.8660 C   0  0  0  0  0  0  0  0  0  0  0  0
   58.0830   32.8990   44.5760 C   0  0  0  0  0  0  0  0  0  0  0  0
   57.3720   33.7960   45.6010 C   0  0  0  0  0  0  0  0  0  0  0  0
   57.8800   33.5490   46.9510 N   0  0  0  0  0  0  0  0  0  0  0  0
   59.1320   34.0990   47.3870 C   0  0  0  0  0  0  0  0  0  0  0  0
   59.7810   34.8600   46.6180 O   0  0  0  0  0  0  0  0  0  0  0  0
   59.6780   33.8370   48.7670 C   0  0  0  0  0  0  0  0  0  0  0  0
   59.4860   32.4460   49.2000 N   0  0  0  0  0  0  0  0  0  0  0  0
   59.8010   31.3110   48.5160 C   0  0  0  0  0  0  0  0  0  0  0  0
   60.4830   31.2880   46.8520 S   0  0  0  0  0  0  0  0  0  0  0  0
   62.2110   30.9810   47.3580 C   0  0  0  0  0  0  0  0  0  0  0  0
   62.6700   31.9720   48.4030 C   0  0  0  0  0  0  0  0  0  0  0  0
   62.8270   31.5260   49.7270 C   0  0  0  0  0  0  0  0  0  0  0  0
   63.2650   32.3950   50.7250 C   0  0  0  0  0  0  0  0  0  0  0  0
   63.5420   33.7260   50.4240 C   0  0  0  0  0  0  0  0  0  0  0  0
   63.4010   34.1900   49.1150 C   0  0  0  0  0  0  0  0  0  0  0  0
   62.9870   33.3230   48.0880 C   0  0  0  0  0  0  0  0  0  0  0  0
   62.8340   33.8800   46.6960 C   0  0  0  0  0  0  0  0  0  0  0  0
   59.3960   30.1720   49.1350 N   0  0  0  0  0  0  0  0  0  0  0  0
   58.7910   30.6310   50.2450 C   0  0  0  0  0  0  0  0  0  0  0  0
   58.1480   29.8810   51.2270 C   0  0  0  0  0  0  0  0  0  0  0  0
   57.5020   30.5790   52.2660 C   0  0  0  0  0  0  0  0  0  0  0  0
   57.5080   31.9920   52.2930 C   0  0  0  0  0  0  0  0  0  0  0  0
   58.1680   32.7200   51.2840 C   0  0  0  0  0  0  0  0  0  0  0  0
   58.8150   31.9950   50.2770 C   0  0  0  0  0  0  0  0  0  0  0  0
   56.2850   29.6320   43.9320 C   0  0  0  0  0  0  0  0  0  0  0  0
   57.4070   28.6060   43.7110 C   0  0  0  0  0  0  0  0  0  0  0  0
   57.1340   27.1007   47.4365 H   0  0  0  0  0  0  0  0  0  0  0  0
   57.3504   25.3737   46.9923 H   0  0  0  0  0  0  0  0  0  0  0  0
   58.7619   26.4848   46.9923 H   0  0  0  0  0  0  0  0  0  0  0  0
   57.8952   25.9921   44.6824 H   0  0  0  0  0  0  0  0  0  0  0  0
   56.3268   26.7506   45.1571 H   0  0  0  0  0  0  0  0  0  0  0  0
   56.7846   28.8310   46.5863 H   0  0  0  0  0  0  0  0  0  0  0  0
   58.5749   28.8393   46.8557 H   0  0  0  0  0  0  0  0  0  0  0  0
   57.7583   31.1319   46.5510 H   0  0  0  0  0  0  0  0  0  0  0  0
   58.8000   30.6311   45.1566 H   0  0  0  0  0  0  0  0  0  0  0  0
   57.5486   31.5957   42.9347 H   0  0  0  0  0  0  0  0  0  0  0  0
   56.1722   32.5256   43.6508 H   0  0  0  0  0  0  0  0  0  0  0  0
   58.8394   32.2924   45.0954 H   0  0  0  0  0  0  0  0  0  0  0  0
   58.5521   33.5442   43.8185 H   0  0  0  0  0  0  0  0  0  0  0  0
   57.5446   34.8501   45.3383 H   0  0  0  0  0  0  0  0  0  0  0  0
   56.2962   33.5671   45.5825 H   0  0  0  0  0  0  0  0  0  0  0  0
   57.3300   32.9420   47.5990 H   0  0  0  0  0  0  0  0  0  0  0  0
   60.7552   34.0597   48.7670 H   0  0  0  0  0  0  0  0  0  0  0  0
   59.1284   34.4815   49.4688 H   0  0  0  0  0  0  0  0  0  0  0  0
   62.2863   29.9648   47.7724 H   0  0  0  0  0  0  0  0  0  0  0  0
   62.8536   31.0931   46.4723 H   0  0  0  0  0  0  0  0  0  0  0  0
   62.6016   30.4791   49.9783 H   0  0  0  0  0  0  0  0  0  0  0  0
   63.3923   32.0280   51.7541 H   0  0  0  0  0  0  0  0  0  0  0  0
   63.8720   34.4121   51.2180 H   0  0  0  0  0  0  0  0  0  0  0  0
   63.6158   35.2439   48.8846 H   0  0  0  0  0  0  0  0  0  0  0  0
   62.5431   34.9392   46.7548 H   0  0  0  0  0  0  0  0  0  0  0  0
   63.7897   33.7916   46.1586 H   0  0  0  0  0  0  0  0  0  0  0  0
   62.0576   33.3158   46.1586 H   0  0  0  0  0  0  0  0  0  0  0  0
   58.1448   28.7816   51.1923 H   0  0  0  0  0  0  0  0  0  0  0  0
   56.9889   30.0200   53.0624 H   0  0  0  0  0  0  0  0  0  0  0  0
   56.9946   32.5259   53.1062 H   0  0  0  0  0  0  0  0  0  0  0  0
   58.1747   33.8200   51.2874 H   0  0  0  0  0  0  0  0  0  0  0  0
   55.4592   29.1435   44.4700 H   0  0  0  0  0  0  0  0  0  0  0  0
   55.9606   29.9955   42.9458 H   0  0  0  0  0  0  0  0  0  0  0  0
   57.0067   27.7642   43.1269 H   0  0  0  0  0  0  0  0  0  0  0  0
   58.2254   29.1117   43.1776 H   0  0  0  0  0  0  0  0  0  0  0  0
  1  2  1  0
  2  3  1  0
  3  4  1  0
  4  5  1  0
  5  6  1  0
  6  7  1  0
  7  8  1  0
  8  9  1  0
  9 10  1  0
 10 11  1  0
 11 12  2  0
 11 13  1  0
 13 14  1  0
 14 15  1  0
 15 16  1  0
 16 17  1  0
 17 18  1  0
 18 19  2  0
 19 20  1  0
 20 21  2  0
 21 22  1  0
 22 23  2  0
 23 24  1  0
 15 25  2  0
 25 26  1  0
 26 27  2  0
 27 28  1  0
 28 29  2  0
 29 30  1  0
 30 31  2  0
  6 32  1  0
 32 33  1  0
 33  3  1  0
 31 14  1  0
 23 18  1  0
 31 26  1  0
  1 34  1  0
  1 35  1  0
  1 36  1  0
  2 37  1  0
  2 38  1  0
  4 39  1  0
  4 40  1  0
  5 41  1  0
  5 42  1  0
  7 43  1  0
  7 44  1  0
  8 45  1  0
  8 46  1  0
  9 47  1  0
  9 48  1  0
 10 49  1  0
 13 50  1  0
 13 51  1  0
 17 52  1  0
 17 53  1  0
 19 54  1  0
 20 55  1  0
 21 56  1  0
 22 57  1  0
 24 58  1  0
 24 59  1  0
 24 60  1  0
 27 61  1  0
 28 62  1  0
 29 63  1  0
 30 64  1  0
 32 65  1  0
 32 66  1  0
 33 67  1  0
 33 68  1  0
M  END
>  <UniqueID>  (15) 
15

>  <SMILES>  (15) 
CCN1CCN(CCCNC(=O)Cn2c(SCc3ccccc3C)nc3ccccc32)CC1

>  <Energy>  (15) 
108.9685028703329

>  <Genealogy>  (15) 
CCN1CCN(CCCNC(=O)Cn2c(SCc3ccccc3C)nc3ccccc32)CC1 (3D coordinates assigned)
CCN1CCN(CCCNC(=O)Cn2c(SCc3ccccc3C)nc3ccccc32)CC1 (nonaromatic ring conformer: 108.9685028703329 kcal/mol)

>  <smiles>  (15) 
CCN1CCN(CCCNC(=O)Cn2c(SCc3ccccc3C)nc3ccccc32)CC1

>  <score_type>  (15) 
oracle

>  <origin>  (15) 
adg

>  <m_score__min__energy>  (15) 
-8.9299999999999997

>  <m_primary>  (15) 
energy

$$$$
15:0
     RDKit          3D

 49 53  0  0  0  0  0  0  0  0999 V2000
   63.3390   33.8560   46.0360 C   0  0  0  0  0  0  0  0  0  0  0  0
   63.6630   33.6560   47.5200 C   0  0  0  0  0  0  0  0  0  0  0  0
   63.7640   32.2320   47.8880 N   0  0  0  0  0  0  0  0  0  0  0  0
   63.6860   32.0260   49.3440 C   0  0  0  0  0  0  0  0  0  0  0  0
   62.4560   31.1850   49.7100 C   0  0  0  0  0  0  0  0  0  0  0  0
   61.2200   31.8880   49.3600 N   0  0  0  0  0  0  0  0  0  0  0  0
   60.5610   31.7050   48.0910 C   0  0  0  0  0  0  0  0  0  0  0  0
   60.3870   30.4060   47.5800 C   0  0  0  0  0  0  0  0  0  0  0  0
   59.6680   30.2380   46.4060 C   0  0  0  0  0  0  0  0  0  0  0  0
   59.1100   31.2920   45.7510 N   0  0  0  0  0  0  0  0  0  0  0  0
   59.3600   32.5860   46.1270 C   0  0  0  0  0  0  0  0  0  0  0  0
   59.0100   33.6840   45.3180 C   0  0  0  0  0  0  0  0  0  0  0  0
   59.2700   34.9880   45.7390 C   0  0  0  0  0  0  0  0  0  0  0  0
   59.9150   35.2180   46.9500 C   0  0  0  0  0  0  0  0  0  0  0  0
   60.3330   34.1460   47.7390 C   0  0  0  0  0  0  0  0  0  0  0  0
   60.0730   32.8170   47.3430 C   0  0  0  0  0  0  0  0  0  0  0  0
   58.3370   30.7050   44.6810 C   0  0  0  0  0  0  0  0  0  0  0  0
   57.3230   31.2350   43.8630 C   0  0  0  0  0  0  0  0  0  0  0  0
   56.6340   30.3570   42.9930 C   0  0  0  0  0  0  0  0  0  0  0  0
   56.8970   28.9640   43.0030 C   0  0  0  0  0  0  0  0  0  0  0  0
   57.8340   28.4440   43.9110 C   0  0  0  0  0  0  0  0  0  0  0  0
   58.0780   27.0740   44.1290 C   0  0  0  0  0  0  0  0  0  0  0  0
   58.9510   26.6750   45.1740 C   0  0  0  0  0  0  0  0  0  0  0  0
   59.5710   27.6360   46.0080 C   0  0  0  0  0  0  0  0  0  0  0  0
   59.3260   28.9830   45.7370 C   0  0  0  0  0  0  0  0  0  0  0  0
   58.5170   29.3490   44.7080 C   0  0  0  0  0  0  0  0  0  0  0  0
   62.4067   34.4315   45.9386 H   0  0  0  0  0  0  0  0  0  0  0  0
   64.1606   34.4043   45.5520 H   0  0  0  0  0  0  0  0  0  0  0  0
   63.2171   32.8758   45.5520 H   0  0  0  0  0  0  0  0  0  0  0  0
   64.6224   34.1465   47.7410 H   0  0  0  0  0  0  0  0  0  0  0  0
   62.8408   34.0951   48.1041 H   0  0  0  0  0  0  0  0  0  0  0  0
   64.6900   31.8800   47.5480 H   0  0  0  0  0  0  0  0  0  0  0  0
   63.0110   31.6850   47.4090 H   0  0  0  0  0  0  0  0  0  0  0  0
   64.5933   31.5049   49.6836 H   0  0  0  0  0  0  0  0  0  0  0  0
   63.6014   33.0067   49.8349 H   0  0  0  0  0  0  0  0  0  0  0  0
   62.4956   30.2317   49.1626 H   0  0  0  0  0  0  0  0  0  0  0  0
   62.4631   31.0052   50.7952 H   0  0  0  0  0  0  0  0  0  0  0  0
   60.8010   32.5370   50.0610 H   0  0  0  0  0  0  0  0  0  0  0  0
   60.8142   29.5377   48.1030 H   0  0  0  0  0  0  0  0  0  0  0  0
   58.5270   33.5117   44.3448 H   0  0  0  0  0  0  0  0  0  0  0  0
   58.9639   35.8378   45.1112 H   0  0  0  0  0  0  0  0  0  0  0  0
   60.0962   36.2494   47.2868 H   0  0  0  0  0  0  0  0  0  0  0  0
   60.8706   34.3388   48.6791 H   0  0  0  0  0  0  0  0  0  0  0  0
   57.0718   32.3053   43.8986 H   0  0  0  0  0  0  0  0  0  0  0  0
   55.8830   30.7615   42.2985 H   0  0  0  0  0  0  0  0  0  0  0  0
   56.3714   28.2956   42.3051 H   0  0  0  0  0  0  0  0  0  0  0  0
   57.5946   26.3179   43.4929 H   0  0  0  0  0  0  0  0  0  0  0  0
   59.1484   25.6054   45.3380 H   0  0  0  0  0  0  0  0  0  0  0  0
   60.2228   27.3320   46.8403 H   0  0  0  0  0  0  0  0  0  0  0  0
  1  2  1  0
  2  3  1  0
  3  4  1  0
  4  5  1  0
  5  6  1  0
  6  7  1  0
  7  8  2  0
  8  9  1  0
  9 10  2  0
 10 11  1  0
 11 12  2  0
 12 13  1  0
 13 14  2  0
 14 15  1  0
 15 16  2  0
 10 17  1  0
 17 18  2  0
 18 19  1  0
 19 20  2  0
 20 21  1  0
 21 22  1  0
 22 23  2  0
 23 24  1  0
 24 25  2  0
 25 26  1  0
 16  7  1  0
 26 17  1  0
 25  9  1  0
 16 11  1  0
 26 21  2  0
  1 27  1  0
  1 28  1  0
  1 29  1  0
  2 30  1  0
  2 31  1  0
  3 32  1  0
  3 33  1  0
  4 34  1  0
  4 35  1  0
  5 36  1  0
  5 37  1  0
  6 38  1  0
  8 39  1  0
 12 40  1  0
 13 41  1  0
 14 42  1  0
 15 43  1  0
 18 44  1  0
 19 45  1  0
 20 46  1  0
 22 47  1  0
 23 48  1  0
 24 49  1  0
M  CHG  2   3   1  10   1
M  END
>  <UniqueID>  (16) 
16

>  <SMILES>  (16) 
CC[NH2+]CCNc1cc2[n+](c3ccccc13)-c1cccc3cccc-2c13

>  <Energy>  (16) 
114.18615668700562

>  <Genealogy>  (16) 
CC[NH2+]CCNc1cc2[n+](c3ccccc13)-c1cccc3cccc-2c13 (protonated)
CC[NH2+]CCNc1cc2[n+](c3ccccc13)-c1cccc3cccc-2c13 (3D coordinates assigned)
CC[NH2+]CCNc1cc2[n+](c3ccccc13)-c1cccc3cccc-2c13 (optimized conformer: 114.18615668700562 kcal/mol)

>  <smiles>  (16) 
CCNCCNc1cc2[n+](c3ccccc13)-c1cccc3cccc-2c13

>  <score_type>  (16) 
oracle

>  <origin>  (16) 
adg

>  <m_score__min__energy>  (16) 
-5.8700000000000001

>  <m_primary>  (16) 
energy

$$$$
16:0
     RDKit          3D

 75 78  0  0  0  0  0  0  0  0999 V2000
   56.9780   26.4960   45.8880 C   0  0  0  0  0  0  0  0  0  0  0  0
   58.0880   26.6310   46.9450 C   0  0  0  0  0  0  0  0  0  0  0  0
   59.4700   26.7280   46.4060 N   0  0  0  0  0  0  0  0  0  0  0  0
   59.6350   27.4460   45.1220 C   0  0  0  0  0  0  0  0  0  0  0  0
   60.7400   28.4940   45.2220 C   0  0  0  0  0  0  0  0  0  0  0  0
   60.5070   27.0480   47.4120 C   0  0  0  0  0  0  0  0  0  0  0  0
   59.9620   27.8270   48.6160 C   0  0  0  0  0  0  0  0  0  0  0  0
   59.9280   29.3360   48.3530 C   0  0  0  0  0  0  0  0  0  0  0  0
   58.6620   29.7170   47.7260 N   0  0  0  0  0  0  0  0  0  0  0  0
   58.5420   30.9380   46.9770 C   0  0  0  0  0  0  0  0  0  0  0  0
   58.0760   30.9150   45.6540 C   0  0  0  0  0  0  0  0  0  0  0  0
   57.5720   29.7250   45.0880 C   0  0  0  0  0  0  0  0  0  0  0  0
   57.0670   29.7140   43.7910 C   0  0  0  0  0  0  0  0  0  0  0  0
   57.0390   30.8880   43.0460 C   0  0  0  0  0  0  0  0  0  0  0  0
   57.5360   32.0750   43.5830 C   0  0  0  0  0  0  0  0  0  0  0  0
   58.0970   32.1090   44.8850 C   0  0  0  0  0  0  0  0  0  0  0  0
   58.6510   33.2610   45.4110 N   0  0  0  0  0  0  0  0  0  0  0  0
   58.9620   34.4040   44.5240 C   0  0  0  0  0  0  0  0  0  0  0  0
   58.9460   33.3320   46.7610 C   0  0  0  0  0  0  0  0  0  0  0  0
   59.3000   34.5530   47.3880 C   0  0  0  0  0  0  0  0  0  0  0  0
   59.6780   34.5940   48.7300 C   0  0  0  0  0  0  0  0  0  0  0  0
   59.6750   33.4260   49.5030 C   0  0  0  0  0  0  0  0  0  0  0  0
   60.0880   33.4030   50.8460 O   0  0  0  0  0  0  0  0  0  0  0  0
   61.4450   33.3800   51.2880 C   0  0  0  0  0  0  0  0  0  0  0  0
   62.2690   32.4020   50.4170 C   0  0  0  0  0  0  0  0  0  0  0  0
   63.4410   33.0100   49.7060 N   0  0  0  0  0  0  0  0  0  0  0  0
   64.4600   33.4940   50.6690 C   0  0  0  0  0  0  0  0  0  0  0  0
   63.0210   34.0880   48.7810 C   0  0  0  0  0  0  0  0  0  0  0  0
   62.6510   33.4370   47.4510 C   0  0  0  0  0  0  0  0  0  0  0  0
   63.2760   32.0530   47.4880 C   0  0  0  0  0  0  0  0  0  0  0  0
   64.0390   31.9960   48.8040 C   0  0  0  0  0  0  0  0  0  0  0  0
   59.2510   32.2310   48.9270 C   0  0  0  0  0  0  0  0  0  0  0  0
   58.9040   32.1620   47.5620 C   0  0  0  0  0  0  0  0  0  0  0  0
   56.0063   26.3778   46.3898 H   0  0  0  0  0  0  0  0  0  0  0  0
   56.9587   27.3984   45.2593 H   0  0  0  0  0  0  0  0  0  0  0  0
   57.1755   25.6153   45.2593 H   0  0  0  0  0  0  0  0  0  0  0  0
   57.8883   27.5386   47.5335 H   0  0  0  0  0  0  0  0  0  0  0  0
   58.0572   25.7053   47.5384 H   0  0  0  0  0  0  0  0  0  0  0  0
   59.8952   26.7223   44.3355 H   0  0  0  0  0  0  0  0  0  0  0  0
   58.6899   27.9539   44.8794 H   0  0  0  0  0  0  0  0  0  0  0  0
   60.9562   28.6990   46.2809 H   0  0  0  0  0  0  0  0  0  0  0  0
   61.6482   28.1175   44.7286 H   0  0  0  0  0  0  0  0  0  0  0  0
   60.4121   29.4208   44.7286 H   0  0  0  0  0  0  0  0  0  0  0  0
   60.9449   26.1062   47.7743 H   0  0  0  0  0  0  0  0  0  0  0  0
   61.2533   27.6885   46.9193 H   0  0  0  0  0  0  0  0  0  0  0  0
   58.9403   27.4804   48.8307 H   0  0  0  0  0  0  0  0  0  0  0  0
   60.6306   27.6451   49.4704 H   0  0  0  0  0  0  0  0  0  0  0  0
   60.0356   29.8726   49.3072 H   0  0  0  0  0  0  0  0  0  0  0  0
   60.7543   29.5985   47.6760 H   0  0  0  0  0  0  0  0  0  0  0  0
   57.8260   29.1000   47.8320 H   0  0  0  0  0  0  0  0  0  0  0  0
   57.5782   28.7964   45.6777 H   0  0  0  0  0  0  0  0  0  0  0  0
   56.6901   28.7769   43.3553 H   0  0  0  0  0  0  0  0  0  0  0  0
   56.6226   30.8802   42.0279 H   0  0  0  0  0  0  0  0  0  0  0  0
   57.4923   32.9990   42.9877 H   0  0  0  0  0  0  0  0  0  0  0  0
   59.2023   35.2870   45.1344 H   0  0  0  0  0  0  0  0  0  0  0  0
   59.8241   34.1515   43.8891 H   0  0  0  0  0  0  0  0  0  0  0  0
   58.0908   34.6231   43.8891 H   0  0  0  0  0  0  0  0  0  0  0  0
   59.2762   35.4857   46.8053 H   0  0  0  0  0  0  0  0  0  0  0  0
   59.9803   35.5493   49.1839 H   0  0  0  0  0  0  0  0  0  0  0  0
   61.8723   34.3902   51.2050 H   0  0  0  0  0  0  0  0  0  0  0  0
   61.4778   33.0459   52.3355 H   0  0  0  0  0  0  0  0  0  0  0  0
   62.6456   31.6004   51.0694 H   0  0  0  0  0  0  0  0  0  0  0  0
   61.5871   32.0459   49.6307 H   0  0  0  0  0  0  0  0  0  0  0  0
   64.1037   33.3248   51.6958 H   0  0  0  0  0  0  0  0  0  0  0  0
   65.4014   32.9468   50.5127 H   0  0  0  0  0  0  0  0  0  0  0  0
   64.6307   34.5694   50.5127 H   0  0  0  0  0  0  0  0  0  0  0  0
   62.1503   34.6185   49.1940 H   0  0  0  0  0  0  0  0  0  0  0  0
   63.8338   34.8160   48.6418 H   0  0  0  0  0  0  0  0  0  0  0  0
   61.5581   33.3626   47.3504 H   0  0  0  0  0  0  0  0  0  0  0  0
   63.0127   34.0250   46.5946 H   0  0  0  0  0  0  0  0  0  0  0  0
   62.4970   31.2769   47.4596 H   0  0  0  0  0  0  0  0  0  0  0  0
   63.9324   31.8746   46.6236 H   0  0  0  0  0  0  0  0  0  0  0  0
   63.9462   30.9946   49.2496 H   0  0  0  0  0  0  0  0  0  0  0  0
   65.1078   32.2005   48.6431 H   0  0  0  0  0  0  0  0  0  0  0  0
   59.1857   31.3252   49.5477 H   0  0  0  0  0  0  0  0  0  0  0  0
  1  2  1  0
  2  3  1  0
  3  4  1  0
  4  5  1  0
  3  6  1  0
  6  7  1  0
  7  8  1  0
  8  9  1  0
  9 10  1  0
 10 11  2  0
 11 12  1  0
 12 13  2  0
 13 14  1  0
 14 15  2  0
 15 16  1  0
 16 17  2  0
 17 18  1  0
 17 19  1  0
 19 20  2  0
 20 21  1  0
 21 22  2  0
 22 23  1  0
 23 24  1  0
 24 25  1  0
 25 26  1  0
 26 27  1  0
 26 28  1  0
 28 29  1  0
 29 30  1  0
 30 31  1  0
 22 32  1  0
 32 33  2  0
 33 10  1  0
 16 11  1  0
 33 19  1  0
 31 26  1  0
  1 34  1  0
  1 35  1  0
  1 36  1  0
  2 37  1  0
  2 38  1  0
  4 39  1  0
  4 40  1  0
  5 41  1  0
  5 42  1  0
  5 43  1  0
  6 44  1  0
  6 45  1  0
  7 46  1  0
  7 47  1  0
  8 48  1  0
  8 49  1  0
  9 50  1  0
 12 51  1  0
 13 52  1  0
 14 53  1  0
 15 54  1  0
 18 55  1  0
 18 56  1  0
 18 57  1  0
 20 58  1  0
 21 59  1  0
 24 60  1  0
 24 61  1  0
 25 62  1  0
 25 63  1  0
 27 64  1  0
 27 65  1  0
 27 66  1  0
 28 67  1  0
 28 68  1  0
 29 69  1  0
 29 70  1  0
 30 71  1  0
 30 72  1  0
 31 73  1  0
 31 74  1  0
 32 75  1  0
M  CHG  2  17   1  26   1
M  END
>  <UniqueID>  (17) 
17

>  <SMILES>  (17) 
CCN(CC)CCCNc1c2ccccc2[n+](C)c2ccc(OCC[N+]3(C)CCCC3)cc12

>  <Energy>  (17) 
111.73955576266108

>  <Genealogy>  (17) 
CCN(CC)CCCNc1c2ccccc2[n+](C)c2ccc(OCC[N+]3(C)CCCC3)cc12 (3D coordinates assigned)
CCN(CC)CCCNc1c2ccccc2[n+](C)c2ccc(OCC[N+]3(C)CCCC3)cc12 (nonaromatic ring conformer: 111.73955576266108 kcal/mol)

>  <smiles>  (17) 
CCN(CC)CCCNc1c2ccccc2[n+](C)c2ccc(OCC[N+]3(C)CCCC3)cc12

>  <score_type>  (17) 
oracle

>  <origin>  (17) 
adg

>  <m_score__min__energy>  (17) 
-5.3300000000000001

>  <m_primary>  (17) 
energy

$$$$
17:0
     RDKit          3D

 93 96  0  0  0  0  0  0  0  0999 V2000
   59.9250   35.1270   46.3970 C   0  0  0  0  0  0  0  0  0  0  0  0
   60.8610   33.9220   46.3330 C   0  0  0  0  0  0  0  0  0  0  0  0
   61.0960   33.3810   47.6930 N   0  0  0  0  0  0  0  0  0  0  0  0
   62.3500   32.5930   47.7520 C   0  0  0  0  0  0  0  0  0  0  0  0
   63.4410   33.2770   46.9350 C   0  0  0  0  0  0  0  0  0  0  0  0
   61.0820   34.4560   48.7130 C   0  0  0  0  0  0  0  0  0  0  0  0
   61.8800   34.0110   49.9430 C   0  0  0  0  0  0  0  0  0  0  0  0
   61.1360   33.0850   50.7160 O   0  0  0  0  0  0  0  0  0  0  0  0
   60.7020   33.6560   51.9360 C   0  0  0  0  0  0  0  0  0  0  0  0
   59.8320   32.6820   52.7390 C   0  0  0  0  0  0  0  0  0  0  0  0
   59.6540   31.4610   52.0430 O   0  0  0  0  0  0  0  0  0  0  0  0
   58.3100   31.2940   51.6350 C   0  0  0  0  0  0  0  0  0  0  0  0
   58.1550   31.7350   50.1730 C   0  0  0  0  0  0  0  0  0  0  0  0
   59.4220   31.6850   49.4080 N   0  0  0  0  0  0  0  0  0  0  0  0
   59.3100   30.8990   48.1820 C   0  0  0  0  0  0  0  0  0  0  0  0
   58.5940   31.4140   47.0580 C   0  0  0  0  0  0  0  0  0  0  0  0
   58.0000   32.7070   47.0620 C   0  0  0  0  0  0  0  0  0  0  0  0
   57.2800   33.1810   45.9700 C   0  0  0  0  0  0  0  0  0  0  0  0
   57.1080   32.3840   44.8490 C   0  0  0  0  0  0  0  0  0  0  0  0
   57.6750   31.1160   44.8100 C   0  0  0  0  0  0  0  0  0  0  0  0
   58.4550   30.6180   45.8870 C   0  0  0  0  0  0  0  0  0  0  0  0
   59.0380   29.3740   45.8180 N   0  0  0  0  0  0  0  0  0  0  0  0
   59.1540   28.6800   44.5120 C   0  0  0  0  0  0  0  0  0  0  0  0
   59.5340   28.7770   46.9550 C   0  0  0  0  0  0  0  0  0  0  0  0
   59.7640   27.3810   46.9860 C   0  0  0  0  0  0  0  0  0  0  0  0
   60.3230   26.7660   48.0930 C   0  0  0  0  0  0  0  0  0  0  0  0
   60.7270   27.5240   49.1740 C   0  0  0  0  0  0  0  0  0  0  0  0
   60.5240   28.9150   49.1970 C   0  0  0  0  0  0  0  0  0  0  0  0
   61.0540   29.6750   50.2560 O   0  0  0  0  0  0  0  0  0  0  0  0
   62.0990   29.2940   51.1530 C   0  0  0  0  0  0  0  0  0  0  0  0
   62.5460   30.5060   52.0120 C   0  0  0  0  0  0  0  0  0  0  0  0
   63.9370   31.0360   51.7680 N   0  0  0  0  0  0  0  0  0  0  0  0
   64.2300   32.0870   52.7830 C   0  0  0  0  0  0  0  0  0  0  0  0
   64.8470   29.8500   51.9410 C   0  0  0  0  0  0  0  0  0  0  0  0
   66.3430   30.0430   51.5880 C   0  0  0  0  0  0  0  0  0  0  0  0
   66.7930   31.5080   51.5420 C   0  0  0  0  0  0  0  0  0  0  0  0
   66.4690   32.2510   50.2390 C   0  0  0  0  0  0  0  0  0  0  0  0
   65.0170   32.7380   50.1460 C   0  0  0  0  0  0  0  0  0  0  0  0
   63.9950   31.6020   50.3810 C   0  0  0  0  0  0  0  0  0  0  0  0
   59.8010   29.5480   48.1260 C   0  0  0  0  0  0  0  0  0  0  0  0
   59.7269   35.3820   47.4485 H   0  0  0  0  0  0  0  0  0  0  0  0
   60.3962   35.9844   45.8943 H   0  0  0  0  0  0  0  0  0  0  0  0
   58.9776   34.8825   45.8943 H   0  0  0  0  0  0  0  0  0  0  0  0
   60.4057   33.1416   45.7056 H   0  0  0  0  0  0  0  0  0  0  0  0
   61.8226   34.2380   45.9023 H   0  0  0  0  0  0  0  0  0  0  0  0
   62.6780   32.5100   48.7987 H   0  0  0  0  0  0  0  0  0  0  0  0
   62.1645   31.5918   47.3359 H   0  0  0  0  0  0  0  0  0  0  0  0
   64.1741   33.7366   47.6143 H   0  0  0  0  0  0  0  0  0  0  0  0
   63.9450   32.5329   46.3007 H   0  0  0  0  0  0  0  0  0  0  0  0
   62.9909   34.0549   46.3007 H   0  0  0  0  0  0  0  0  0  0  0  0
   61.5357   35.3654   48.2921 H   0  0  0  0  0  0  0  0  0  0  0  0
   60.0431   34.6644   49.0085 H   0  0  0  0  0  0  0  0  0  0  0  0
   62.8160   33.5363   49.6136 H   0  0  0  0  0  0  0  0  0  0  0  0
   62.0966   34.8942   50.5619 H   0  0  0  0  0  0  0  0  0  0  0  0
   61.5830   33.9258   52.5369 H   0  0  0  0  0  0  0  0  0  0  0  0
   60.0971   34.5447   51.7031 H   0  0  0  0  0  0  0  0  0  0  0  0
   60.3192   32.4774   53.7037 H   0  0  0  0  0  0  0  0  0  0  0  0
   58.8449   33.1423   52.8930 H   0  0  0  0  0  0  0  0  0  0  0  0
   58.0280   30.2349   51.7294 H   0  0  0  0  0  0  0  0  0  0  0  0
   57.6567   31.9082   52.2722 H   0  0  0  0  0  0  0  0  0  0  0  0
   57.4257   31.0724   49.6840 H   0  0  0  0  0  0  0  0  0  0  0  0
   57.8218   32.7833   50.1828 H   0  0  0  0  0  0  0  0  0  0  0  0
   59.7430   32.6490   49.1740 H   0  0  0  0  0  0  0  0  0  0  0  0
   60.2100   31.3840   50.0160 H   0  0  0  0  0  0  0  0  0  0  0  0
   58.1128   33.3470   47.9495 H   0  0  0  0  0  0  0  0  0  0  0  0
   56.8459   34.1914   45.9963 H   0  0  0  0  0  0  0  0  0  0  0  0
   56.5246   32.7541   43.9931 H   0  0  0  0  0  0  0  0  0  0  0  0
   57.5159   30.4833   43.9243 H   0  0  0  0  0  0  0  0  0  0  0  0
   59.3332   27.6079   44.6811 H   0  0  0  0  0  0  0  0  0  0  0  0
   58.2216   28.8107   43.9433 H   0  0  0  0  0  0  0  0  0  0  0  0
   59.9933   29.1068   43.9433 H   0  0  0  0  0  0  0  0  0  0  0  0
   59.4927   26.7714   46.1115 H   0  0  0  0  0  0  0  0  0  0  0  0
   60.4454   25.6730   48.1115 H   0  0  0  0  0  0  0  0  0  0  0  0
   61.2144   27.0328   50.0291 H   0  0  0  0  0  0  0  0  0  0  0  0
   61.7341   28.4955   51.8157 H   0  0  0  0  0  0  0  0  0  0  0  0
   62.9586   28.9369   50.5668 H   0  0  0  0  0  0  0  0  0  0  0  0
   61.8390   31.3271   51.8225 H   0  0  0  0  0  0  0  0  0  0  0  0
   62.5562   30.1366   53.0481 H   0  0  0  0  0  0  0  0  0  0  0  0
   64.1124   31.6652   53.7921 H   0  0  0  0  0  0  0  0  0  0  0  0
   65.2621   32.4446   52.6531 H   0  0  0  0  0  0  0  0  0  0  0  0
   63.5318   32.9270   52.6531 H   0  0  0  0  0  0  0  0  0  0  0  0
   64.7936   29.5441   52.9963 H   0  0  0  0  0  0  0  0  0  0  0  0
   64.4807   29.1061   51.2183 H   0  0  0  0  0  0  0  0  0  0  0  0
   66.9464   29.5202   52.3447 H   0  0  0  0  0  0  0  0  0  0  0  0
   66.4843   29.6366   50.5757 H   0  0  0  0  0  0  0  0  0  0  0  0
   66.3011   32.0411   52.3689 H   0  0  0  0  0  0  0  0  0  0  0  0
   67.8901   31.4926   51.6196 H   0  0  0  0  0  0  0  0  0  0  0  0
   67.1329   33.1248   50.1642 H   0  0  0  0  0  0  0  0  0  0  0  0
   66.6191   31.5353   49.4173 H   0  0  0  0  0  0  0  0  0  0  0  0
   64.8575   33.5184   50.9046 H   0  0  0  0  0  0  0  0  0  0  0  0
   64.8588   33.1245   49.1284 H   0  0  0  0  0  0  0  0  0  0  0  0
   62.9965   31.9939   50.1371 H   0  0  0  0  0  0  0  0  0  0  0  0
   64.3268   30.7722   49.7397 H   0  0  0  0  0  0  0  0  0  0  0  0
  1  2  1  0
  2  3  1  0
  3  4  1  0
  4  5  1  0
  3  6  1  0
  6  7  1  0
  7  8  1  0
  8  9  1  0
  9 10  1  0
 10 11  1  0
 11 12  1  0
 12 13  1  0
 13 14  1  0
 14 15  1  0
 15 16  2  0
 16 17  1  0
 17 18  2  0
 18 19  1  0
 19 20  2  0
 20 21  1  0
 21 22  2  0
 22 23  1  0
 22 24  1  0
 24 25  2  0
 25 26  1  0
 26 27  2  0
 27 28  1  0
 28 29  1  0
 29 30  1  0
 30 31  1  0
 31 32  1  0
 32 33  1  0
 32 34  1  0
 34 35  1  0
 35 36  1  0
 36 37  1  0
 37 38  1  0
 38 39  1  0
 28 40  2  0
 40 15  1  0
 21 16  1  0
 40 24  1  0
 39 32  1  0
  1 41  1  0
  1 42  1  0
  1 43  1  0
  2 44  1  0
  2 45  1  0
  4 46  1  0
  4 47  1  0
  5 48  1  0
  5 49  1  0
  5 50  1  0
  6 51  1  0
  6 52  1  0
  7 53  1  0
  7 54  1  0
  9 55  1  0
  9 56  1  0
 10 57  1  0
 10 58  1  0
 12 59  1  0
 12 60  1  0
 13 61  1  0
 13 62  1  0
 14 63  1  0
 14 64  1  0
 17 65  1  0
 18 66  1  0
 19 67  1  0
 20 68  1  0
 23 69  1  0
 23 70  1  0
 23 71  1  0
 25 72  1  0
 26 73  1  0
 27 74  1  0
 30 75  1  0
 30 76  1  0
 31 77  1  0
 31 78  1  0
 33 79  1  0
 33 80  1  0
 33 81  1  0
 34 82  1  0
 34 83  1  0
 35 84  1  0
 35 85  1  0
 36 86  1  0
 36 87  1  0
 37 88  1  0
 37 89  1  0
 38 90  1  0
 38 91  1  0
 39 92  1  0
 39 93  1  0
M  CHG  3  14   1  22   1  32   1
M  END
>  <UniqueID>  (18) 
18

>  <SMILES>  (18) 
CCN(CC)CCOCCOCC[NH2+]c1c2ccccc2[n+](C)c2cccc(OCC[N+]3(C)CCCCCC3)c12

>  <Energy>  (18) 
155.50902102380942

>  <Genealogy>  (18) 
CCN(CC)CCOCCOCC[NH2+]c1c2ccccc2[n+](C)c2cccc(OCC[N+]3(C)CCCCCC3)c12 (protonated)
CCN(CC)CCOCCOCC[NH2+]c1c2ccccc2[n+](C)c2cccc(OCC[N+]3(C)CCCCCC3)c12 (3D coordinates assigned)
CCN(CC)CCOCCOCC[NH2+]c1c2ccccc2[n+](C)c2cccc(OCC[N+]3(C)CCCCCC3)c12 (nonaromatic ring conformer: 155.50902102380942 kcal/mol)

>  <smiles>  (18) 
CCN(CC)CCOCCOCCNc1c2ccccc2[n+](C)c2cccc(OCC[N+]3(C)CCCCCC3)c12

>  <score_type>  (18) 
oracle

>  <origin>  (18) 
adg

>  <m_score__min__energy>  (18) 
-2.3999999999999999

>  <m_primary>  (18) 
energy

$$$$
18:0
     RDKit          3D

 56 59  0  0  0  0  0  0  0  0999 V2000
   57.1220   28.4630   45.2170 C   0  0  0  0  0  0  0  0  0  0  0  0
   58.5600   28.1070   44.8580 C   0  0  0  0  0  0  0  0  0  0  0  0
   59.5420   29.1300   45.4220 C   0  0  0  0  0  0  0  0  0  0  0  0
   59.2590   30.4070   44.8610 O   0  0  0  0  0  0  0  0  0  0  0  0
   58.8260   31.5400   45.5710 C   0  0  0  0  0  0  0  0  0  0  0  0
   57.9620   32.4390   44.9980 C   0  0  0  0  0  0  0  0  0  0  0  0
   57.4150   32.3720   43.6400 N   0  0  0  0  0  0  0  0  0  0  0  0
   57.2410   31.0450   43.0130 C   0  0  0  0  0  0  0  0  0  0  0  0
   58.2940   31.9620   42.5240 C   0  0  0  0  0  0  0  0  0  0  0  0
   57.4960   33.5810   45.8240 C   0  0  0  0  0  0  0  0  0  0  0  0
   56.8250   34.5130   45.3070 O   0  0  0  0  0  0  0  0  0  0  0  0
   57.7710   33.6320   47.2580 C   0  0  0  0  0  0  0  0  0  0  0  0
   58.5890   32.7470   47.8300 C   0  0  0  0  0  0  0  0  0  0  0  0
   58.8390   32.8180   49.2460 N   0  0  0  0  0  0  0  0  0  0  0  0
   58.3130   31.7850   50.1440 C   0  0  0  0  0  0  0  0  0  0  0  0
   58.1010   32.3750   51.5430 C   0  0  0  0  0  0  0  0  0  0  0  0
   59.3400   32.9660   52.1120 N   0  0  0  0  0  0  0  0  0  0  0  0
   59.0060   34.0440   53.0560 C   0  0  0  0  0  0  0  0  0  0  0  0
   60.3310   33.4240   51.1070 C   0  0  0  0  0  0  0  0  0  0  0  0
   59.6780   33.8890   49.7990 C   0  0  0  0  0  0  0  0  0  0  0  0
   59.3780   31.7700   46.9830 C   0  0  2  0  0  0  0  0  0  0  0  0
   60.8190   32.2380   46.9220 C   0  0  0  0  0  0  0  0  0  0  0  0
   61.8500   31.4410   47.4480 C   0  0  0  0  0  0  0  0  0  0  0  0
   63.1710   31.8860   47.4090 C   0  0  0  0  0  0  0  0  0  0  0  0
   63.4560   33.1350   46.8550 C   0  0  0  0  0  0  0  0  0  0  0  0
   62.4510   33.9080   46.3650 N   0  0  0  0  0  0  0  0  0  0  0  0
   61.1550   33.4960   46.3900 C   0  0  0  0  0  0  0  0  0  0  0  0
   57.0132   28.4899   46.3113 H   0  0  0  0  0  0  0  0  0  0  0  0
   56.8734   29.4498   44.7994 H   0  0  0  0  0  0  0  0  0  0  0  0
   56.4417   27.7062   44.7994 H   0  0  0  0  0  0  0  0  0  0  0  0
   58.7978   27.1160   45.2720 H   0  0  0  0  0  0  0  0  0  0  0  0
   58.6535   28.1037   43.7620 H   0  0  0  0  0  0  0  0  0  0  0  0
   59.4369   29.1770   46.5160 H   0  0  0  0  0  0  0  0  0  0  0  0
   60.5708   28.8342   45.1689 H   0  0  0  0  0  0  0  0  0  0  0  0
   56.6740   33.0520   43.3500 H   0  0  0  0  0  0  0  0  0  0  0  0
   57.5174   30.1350   43.5657 H   0  0  0  0  0  0  0  0  0  0  0  0
   56.4004   30.5080   42.5493 H   0  0  0  0  0  0  0  0  0  0  0  0
   59.3533   31.7340   42.7133 H   0  0  0  0  0  0  0  0  0  0  0  0
   58.5609   32.3895   41.5462 H   0  0  0  0  0  0  0  0  0  0  0  0
   57.2973   34.4104   47.8741 H   0  0  0  0  0  0  0  0  0  0  0  0
   57.3532   31.4156   49.7538 H   0  0  0  0  0  0  0  0  0  0  0  0
   59.0318   30.9545   50.2042 H   0  0  0  0  0  0  0  0  0  0  0  0
   57.3334   33.1604   51.4807 H   0  0  0  0  0  0  0  0  0  0  0  0
   57.7911   31.5535   52.2056 H   0  0  0  0  0  0  0  0  0  0  0  0
   59.1197   33.6771   54.0867 H   0  0  0  0  0  0  0  0  0  0  0  0
   59.6822   34.8963   52.8935 H   0  0  0  0  0  0  0  0  0  0  0  0
   57.9664   34.3646   52.8935 H   0  0  0  0  0  0  0  0  0  0  0  0
   60.9017   34.2625   51.5326 H   0  0  0  0  0  0  0  0  0  0  0  0
   60.9804   32.5689   50.8679 H   0  0  0  0  0  0  0  0  0  0  0  0
   59.0550   34.7735   49.9976 H   0  0  0  0  0  0  0  0  0  0  0  0
   60.4651   34.1413   49.0731 H   0  0  0  0  0  0  0  0  0  0  0  0
   59.2932   30.7891   47.4735 H   0  0  0  0  0  0  0  0  0  0  0  0
   61.6141   30.4626   47.8921 H   0  0  0  0  0  0  0  0  0  0  0  0
   63.9804   31.2589   47.8109 H   0  0  0  0  0  0  0  0  0  0  0  0
   64.4949   33.4941   46.8149 H   0  0  0  0  0  0  0  0  0  0  0  0
   60.3653   34.1502   45.9920 H   0  0  0  0  0  0  0  0  0  0  0  0
  1  2  1  0
  2  3  1  0
  3  4  1  0
  4  5  1  0
  5  6  2  0
  6  7  1  0
  7  8  1  0
  8  9  1  0
  6 10  1  0
 10 11  2  0
 10 12  1  0
 12 13  2  0
 13 14  1  0
 14 15  1  0
 15 16  1  0
 16 17  1  0
 17 18  1  0
 17 19  1  0
 19 20  1  0
 13 21  1  0
 21 22  1  0
 22 23  2  0
 23 24  1  0
 24 25  2  0
 25 26  1  0
 26 27  2  0
 21  5  1  0
 27 22  1  0
  9  7  1  0
 20 14  1  0
  1 28  1  0
  1 29  1  0
  1 30  1  0
  2 31  1  0
  2 32  1  0
  3 33  1  0
  3 34  1  0
  7 35  1  0
  8 36  1  0
  8 37  1  0
  9 38  1  0
  9 39  1  0
 12 40  1  0
 15 41  1  0
 15 42  1  0
 16 43  1  0
 16 44  1  0
 18 45  1  0
 18 46  1  0
 18 47  1  0
 19 48  1  0
 19 49  1  0
 20 50  1  0
 20 51  1  0
 21 52  1  1
 23 53  1  0
 24 54  1  0
 25 55  1  0
 27 56  1  0
M  CHG  1   7   1
M  END
>  <UniqueID>  (19) 
19

>  <SMILES>  (19) 
CCCOC1=C([NH+]2CC2)C(=O)C=C(N2CCN(C)CC2)[C@@H]1c1cccnc1

>  <Energy>  (19) 
422.4424967300599

>  <Genealogy>  (19) 
CCCOC1=C([NH+]2CC2)C(=O)C=C(N2CCN(C)CC2)C1c1cccnc1 (protonated)
CCCOC1=C([NH+]2CC2)C(=O)C=C(N2CCN(C)CC2)[C@@H]1c1cccnc1 (chirality)
CCCOC1=C([NH+]2CC2)C(=O)C=C(N2CCN(C)CC2)[C@@H]1c1cccnc1 (3D coordinates assigned)
CCCOC1=C([NH+]2CC2)C(=O)C=C(N2CCN(C)CC2)[C@@H]1c1cccnc1 (nonaromatic ring conformer: 422.4424967300599 kcal/mol)

>  <smiles>  (19) 
CCCOC1=C(N2CC2)C(=O)C=C(N2CCN(C)CC2)C1c1cccnc1

>  <score_type>  (19) 
oracle

>  <origin>  (19) 
adg

>  <m_score__min__energy>  (19) 
-5.7300000000000004

>  <m_primary>  (19) 
energy

$$$$
19:0
     RDKit          3D

 48 51  0  0  0  0  0  0  0  0999 V2000
   65.7980   32.6450   50.0980 C   0  0  0  0  0  0  0  0  0  0  0  0
   64.6180   32.0020   50.5710 O   0  0  0  0  0  0  0  0  0  0  0  0
   63.5450   31.6160   49.7560 C   0  0  0  0  0  0  0  0  0  0  0  0
   62.5430   30.8130   50.3090 C   0  0  0  0  0  0  0  0  0  0  0  0
   61.4510   30.4030   49.5390 C   0  0  0  0  0  0  0  0  0  0  0  0
   61.3380   30.8070   48.1980 C   0  0  0  0  0  0  0  0  0  0  0  0
   60.1940   30.3760   47.3640 C   0  0  0  0  0  0  0  0  0  0  0  0
   59.8800   29.0700   47.1700 N   0  0  0  0  0  0  0  0  0  0  0  0
   58.8010   29.0410   46.4060 N   0  0  0  0  0  0  0  0  0  0  0  0
   58.1540   27.9430   45.9350 C   0  0  0  0  0  0  0  0  0  0  0  0
   58.6330   26.5600   46.2610 C   0  0  0  0  0  0  0  0  0  0  0  0
   57.0610   28.1500   45.0740 C   0  0  0  0  0  0  0  0  0  0  0  0
   56.6780   29.4740   44.7590 C   0  0  0  0  0  0  0  0  0  0  0  0
   55.5350   29.7240   43.8290 C   0  0  0  0  0  0  0  0  0  0  0  0
   57.3780   30.5290   45.2690 N   0  0  0  0  0  0  0  0  0  0  0  0
   58.4210   30.2860   46.1010 C   0  0  0  0  0  0  0  0  0  0  0  0
   59.2750   31.1930   46.6890 C   0  0  0  0  0  0  0  0  0  0  0  0
   59.2970   32.6580   46.4880 C   0  0  0  0  0  0  0  0  0  0  0  0
   59.2380   33.1770   45.1840 C   0  0  0  0  0  0  0  0  0  0  0  0
   59.2410   34.5570   44.9720 C   0  0  0  0  0  0  0  0  0  0  0  0
   59.2990   35.4300   46.0570 C   0  0  0  0  0  0  0  0  0  0  0  0
   59.3550   34.9290   47.3590 C   0  0  0  0  0  0  0  0  0  0  0  0
   59.3590   33.5380   47.5890 C   0  0  0  0  0  0  0  0  0  0  0  0
   59.4410   33.0040   48.8850 O   0  0  0  0  0  0  0  0  0  0  0  0
   60.0160   33.6740   50.0020 C   0  0  0  0  0  0  0  0  0  0  0  0
   62.3510   31.5970   47.6340 C   0  0  0  0  0  0  0  0  0  0  0  0
   63.4430   32.0060   48.4070 C   0  0  0  0  0  0  0  0  0  0  0  0
   66.4041   32.9752   50.9545 H   0  0  0  0  0  0  0  0  0  0  0  0
   66.3803   31.9395   49.4871 H   0  0  0  0  0  0  0  0  0  0  0  0
   65.5208   33.5168   49.4871 H   0  0  0  0  0  0  0  0  0  0  0  0
   62.6148   30.5006   51.3612 H   0  0  0  0  0  0  0  0  0  0  0  0
   60.6767   29.7613   49.9847 H   0  0  0  0  0  0  0  0  0  0  0  0
   58.6763   26.4349   47.3530 H   0  0  0  0  0  0  0  0  0  0  0  0
   57.9383   25.8213   45.8346 H   0  0  0  0  0  0  0  0  0  0  0  0
   59.6357   26.4092   45.8346 H   0  0  0  0  0  0  0  0  0  0  0  0
   56.5126   27.2948   44.6522 H   0  0  0  0  0  0  0  0  0  0  0  0
   54.6242   29.9232   44.4127 H   0  0  0  0  0  0  0  0  0  0  0  0
   55.7617   30.5938   43.1949 H   0  0  0  0  0  0  0  0  0  0  0  0
   55.3779   28.8390   43.1949 H   0  0  0  0  0  0  0  0  0  0  0  0
   59.1891   32.4920   44.3247 H   0  0  0  0  0  0  0  0  0  0  0  0
   59.1976   34.9557   43.9477 H   0  0  0  0  0  0  0  0  0  0  0  0
   59.3007   36.5168   45.8870 H   0  0  0  0  0  0  0  0  0  0  0  0
   59.3963   35.6239   48.2107 H   0  0  0  0  0  0  0  0  0  0  0  0
   59.6342   33.2291   50.9328 H   0  0  0  0  0  0  0  0  0  0  0  0
   61.1106   33.5703   49.9681 H   0  0  0  0  0  0  0  0  0  0  0  0
   59.7474   34.7402   49.9681 H   0  0  0  0  0  0  0  0  0  0  0  0
   62.2862   31.8966   46.5776 H   0  0  0  0  0  0  0  0  0  0  0  0
   64.2258   32.6354   47.9586 H   0  0  0  0  0  0  0  0  0  0  0  0
  1  2  1  0
  2  3  1  0
  3  4  2  0
  4  5  1  0
  5  6  2  0
  6  7  1  0
  7  8  2  0
  8  9  1  0
  9 10  1  0
 10 11  1  0
 10 12  2  0
 12 13  1  0
 13 14  1  0
 13 15  2  0
 15 16  1  0
 16 17  2  0
 17 18  1  0
 18 19  2  0
 19 20  1  0
 20 21  2  0
 21 22  1  0
 22 23  2  0
 23 24  1  0
 24 25  1  0
  6 26  1  0
 26 27  2  0
 27  3  1  0
 17  7  1  0
 23 18  1  0
 16  9  1  0
  1 28  1  0
  1 29  1  0
  1 30  1  0
  4 31  1  0
  5 32  1  0
 11 33  1  0
 11 34  1  0
 11 35  1  0
 12 36  1  0
 14 37  1  0
 14 38  1  0
 14 39  1  0
 19 40  1  0
 20 41  1  0
 21 42  1  0
 22 43  1  0
 25 44  1  0
 25 45  1  0
 25 46  1  0
 26 47  1  0
 27 48  1  0
M  END
>  <UniqueID>  (20) 
20

>  <SMILES>  (20) 
COc1ccc(-c2nn3c(C)cc(C)nc3c2-c2ccccc2OC)cc1

>  <Energy>  (20) 
94.69420478360627

>  <Genealogy>  (20) 
COc1ccc(-c2nn3c(C)cc(C)nc3c2-c2ccccc2OC)cc1 (3D coordinates assigned)
COc1ccc(-c2nn3c(C)cc(C)nc3c2-c2ccccc2OC)cc1 (optimized conformer: 94.69420478360627 kcal/mol)

>  <smiles>  (20) 
COc1ccc(-c2nn3c(C)cc(C)nc3c2-c2ccccc2OC)cc1

>  <score_type>  (20) 
oracle

>  <origin>  (20) 
adg

>  <m_score__min__energy>  (20) 
-7.4900000000000002

>  <m_primary>  (20) 
energy

$$$$
20:0
     RDKit          3D

 59 61  0  0  0  0  0  0  0  0999 V2000
   64.7550   32.3910   49.9040 C   0  0  0  0  0  0  0  0  0  0  0  0
   63.4420   31.6460   49.6700 C   0  0  0  0  0  0  0  0  0  0  0  0
   62.5280   32.4480   48.8260 N   0  0  0  0  0  0  0  0  0  0  0  0
   62.8080   32.3650   47.3750 C   0  0  0  0  0  0  0  0  0  0  0  0
   63.2810   33.6830   46.7630 C   0  0  0  0  0  0  0  0  0  0  0  0
   62.1610   33.8040   49.3170 C   0  0  0  0  0  0  0  0  0  0  0  0
   60.9930   33.8450   50.3270 C   0  0  0  0  0  0  0  0  0  0  0  0
   60.6990   32.5330   50.7620 O   0  0  0  0  0  0  0  0  0  0  0  0
   59.3040   32.2870   50.7550 C   0  0  0  0  0  0  0  0  0  0  0  0
   58.8610   31.4640   49.5280 C   0  0  0  0  0  0  0  0  0  0  0  0
   59.9100   31.3270   48.4990 N   0  0  0  0  0  0  0  0  0  0  0  0
   59.3990   31.5010   47.1440 C   0  0  0  0  0  0  0  0  0  0  0  0
   59.3110   32.7910   46.5390 C   0  0  0  0  0  0  0  0  0  0  0  0
   59.7280   33.9760   47.2050 C   0  0  0  0  0  0  0  0  0  0  0  0
   59.7090   35.2100   46.5630 C   0  0  0  0  0  0  0  0  0  0  0  0
   59.2740   35.3090   45.2520 C   0  0  0  0  0  0  0  0  0  0  0  0
   58.8120   34.1790   44.5870 C   0  0  0  0  0  0  0  0  0  0  0  0
   58.7750   32.9120   45.2240 C   0  0  0  0  0  0  0  0  0  0  0  0
   58.2330   31.8160   44.5880 N   0  0  0  0  0  0  0  0  0  0  0  0
   57.3670   32.0060   43.4010 C   0  0  0  0  0  0  0  0  0  0  0  0
   58.4630   30.5480   45.0760 C   0  0  0  0  0  0  0  0  0  0  0  0
   58.1760   29.4000   44.2910 C   0  0  0  0  0  0  0  0  0  0  0  0
   58.3410   28.1100   44.8000 C   0  0  0  0  0  0  0  0  0  0  0  0
   58.0310   26.9690   43.9910 N   0  0  0  0  0  0  0  0  0  0  0  0
   58.8160   27.9420   46.0960 C   0  0  0  0  0  0  0  0  0  0  0  0
   59.1550   29.0460   46.8700 C   0  0  0  0  0  0  0  0  0  0  0  0
   59.0090   30.3660   46.3750 C   0  0  0  0  0  0  0  0  0  0  0  0
   64.9320   32.4914   50.9850 H   0  0  0  0  0  0  0  0  0  0  0  0
   65.5825   31.8279   49.4477 H   0  0  0  0  0  0  0  0  0  0  0  0
   64.6960   33.3902   49.4477 H   0  0  0  0  0  0  0  0  0  0  0  0
   63.6535   30.6911   49.1666 H   0  0  0  0  0  0  0  0  0  0  0  0
   62.9593   31.4666   50.6420 H   0  0  0  0  0  0  0  0  0  0  0  0
   63.5898   31.6078   47.2152 H   0  0  0  0  0  0  0  0  0  0  0  0
   61.8613   32.1028   46.8800 H   0  0  0  0  0  0  0  0  0  0  0  0
   63.5348   34.3901   47.5665 H   0  0  0  0  0  0  0  0  0  0  0  0
   64.1697   33.5004   46.1410 H   0  0  0  0  0  0  0  0  0  0  0  0
   62.4790   34.1072   46.1410 H   0  0  0  0  0  0  0  0  0  0  0  0
   63.0460   34.2410   49.8026 H   0  0  0  0  0  0  0  0  0  0  0  0
   61.8209   34.3659   48.4347 H   0  0  0  0  0  0  0  0  0  0  0  0
   61.2776   34.4626   51.1916 H   0  0  0  0  0  0  0  0  0  0  0  0
   60.1052   34.2780   49.8429 H   0  0  0  0  0  0  0  0  0  0  0  0
   59.0379   31.7331   51.6673 H   0  0  0  0  0  0  0  0  0  0  0  0
   58.7910   33.2591   50.7113 H   0  0  0  0  0  0  0  0  0  0  0  0
   58.5746   30.4581   49.8688 H   0  0  0  0  0  0  0  0  0  0  0  0
   58.0219   32.0029   49.0638 H   0  0  0  0  0  0  0  0  0  0  0  0
   60.3510   30.3840   48.5860 H   0  0  0  0  0  0  0  0  0  0  0  0
   60.7090   31.9500   48.7340 H   0  0  0  0  0  0  0  0  0  0  0  0
   60.0723   33.9159   48.2480 H   0  0  0  0  0  0  0  0  0  0  0  0
   60.0410   36.1113   47.0992 H   0  0  0  0  0  0  0  0  0  0  0  0
   59.2940   36.2809   44.7373 H   0  0  0  0  0  0  0  0  0  0  0  0
   58.4682   34.2691   43.5460 H   0  0  0  0  0  0  0  0  0  0  0  0
   56.3411   32.2311   43.7279 H   0  0  0  0  0  0  0  0  0  0  0  0
   57.7509   32.8413   42.7969 H   0  0  0  0  0  0  0  0  0  0  0  0
   57.3660   31.0867   42.7969 H   0  0  0  0  0  0  0  0  0  0  0  0
   57.8159   29.5296   43.2597 H   0  0  0  0  0  0  0  0  0  0  0  0
   57.0890   26.8650   43.5520 H   0  0  0  0  0  0  0  0  0  0  0  0
   58.7480   26.2320   43.8090 H   0  0  0  0  0  0  0  0  0  0  0  0
   58.9242   26.9292   46.5115 H   0  0  0  0  0  0  0  0  0  0  0  0
   59.5444   28.8919   47.8872 H   0  0  0  0  0  0  0  0  0  0  0  0
  1  2  1  0
  2  3  1  0
  3  4  1  0
  4  5  1  0
  3  6  1  0
  6  7  1  0
  7  8  1  0
  8  9  1  0
  9 10  1  0
 10 11  1  0
 11 12  1  0
 12 13  2  0
 13 14  1  0
 14 15  2  0
 15 16  1  0
 16 17  2  0
 17 18  1  0
 18 19  2  0
 19 20  1  0
 19 21  1  0
 21 22  2  0
 22 23  1  0
 23 24  1  0
 23 25  2  0
 25 26  1  0
 26 27  2  0
 27 12  1  0
 18 13  1  0
 27 21  1  0
  1 28  1  0
  1 29  1  0
  1 30  1  0
  2 31  1  0
  2 32  1  0
  4 33  1  0
  4 34  1  0
  5 35  1  0
  5 36  1  0
  5 37  1  0
  6 38  1  0
  6 39  1  0
  7 40  1  0
  7 41  1  0
  9 42  1  0
  9 43  1  0
 10 44  1  0
 10 45  1  0
 11 46  1  0
 11 47  1  0
 14 48  1  0
 15 49  1  0
 16 50  1  0
 17 51  1  0
 20 52  1  0
 20 53  1  0
 20 54  1  0
 22 55  1  0
 24 56  1  0
 24 57  1  0
 25 58  1  0
 26 59  1  0
M  CHG  2  11   1  19   1
M  END
>  <UniqueID>  (21) 
21

>  <SMILES>  (21) 
CCN(CC)CCOCC[NH2+]c1c2ccccc2[n+](C)c2cc(N)ccc12

>  <Energy>  (21) 
92.47416561979733

>  <Genealogy>  (21) 
CCN(CC)CCOCC[NH2+]c1c2ccccc2[n+](C)c2cc(N)ccc12 (protonated)
CCN(CC)CCOCC[NH2+]c1c2ccccc2[n+](C)c2cc(N)ccc12 (3D coordinates assigned)
CCN(CC)CCOCC[NH2+]c1c2ccccc2[n+](C)c2cc(N)ccc12 (optimized conformer: 92.47416561979733 kcal/mol)

>  <smiles>  (21) 
CCN(CC)CCOCCNc1c2ccccc2[n+](C)c2cc(N)ccc12

>  <score_type>  (21) 
oracle

>  <origin>  (21) 
adg

>  <m_score__min__energy>  (21) 
-4.5899999999999999

>  <m_primary>  (21) 
energy

$$$$
21:0
     RDKit          3D

 44 46  0  0  0  0  0  0  0  0999 V2000
   56.5440   30.1330   42.9060 C   0  0  0  0  0  0  0  0  0  0  0  0
   55.5560   30.2680   44.0600 C   0  0  0  0  0  0  0  0  0  0  0  0
   55.8460   29.2610   45.0890 N   0  0  0  0  0  0  0  0  0  0  0  0
   57.1610   28.6260   44.8870 C   0  0  0  0  0  0  0  0  0  0  0  0
   58.3030   29.3250   45.6590 C   0  0  0  0  0  0  0  0  0  0  0  0
   57.8330   30.2890   46.6750 N   0  0  0  0  0  0  0  0  0  0  0  0
   58.8720   31.2250   47.0700 C   0  0  0  0  0  0  0  0  0  0  0  0
   58.9050   32.5150   46.5120 C   0  0  0  0  0  0  0  0  0  0  0  0
   59.8670   33.4320   46.8610 C   0  0  0  0  0  0  0  0  0  0  0  0
   60.8470   33.1430   47.7740 N   0  0  0  0  0  0  0  0  0  0  0  0
   61.8580   34.1620   48.1170 C   0  0  0  0  0  0  0  0  0  0  0  0
   60.8710   31.8910   48.3650 C   0  0  0  0  0  0  0  0  0  0  0  0
   61.8650   31.5550   49.3200 C   0  0  0  0  0  0  0  0  0  0  0  0
   61.8990   30.2970   49.9130 C   0  0  0  0  0  0  0  0  0  0  0  0
   60.9530   29.3410   49.5760 C   0  0  0  0  0  0  0  0  0  0  0  0
   59.9600   29.6320   48.6460 C   0  0  0  0  0  0  0  0  0  0  0  0
   59.8880   30.9020   48.0230 C   0  0  0  0  0  0  0  0  0  0  0  0
   59.6850   34.7360   46.1310 C   0  0  0  0  0  0  0  0  0  0  0  0
   58.4450   34.5330   45.2450 C   0  0  0  0  0  0  0  0  0  0  0  0
   58.0190   33.1400   45.5380 C   0  0  0  0  0  0  0  0  0  0  0  0
   57.0200   32.5960   44.9980 O   0  0  0  0  0  0  0  0  0  0  0  0
   57.5590   29.9943   43.3066 H   0  0  0  0  0  0  0  0  0  0  0  0
   56.2712   29.2638   42.2895 H   0  0  0  0  0  0  0  0  0  0  0  0
   56.5144   31.0435   42.2895 H   0  0  0  0  0  0  0  0  0  0  0  0
   55.6433   31.2729   44.4987 H   0  0  0  0  0  0  0  0  0  0  0  0
   54.5348   30.1140   43.6813 H   0  0  0  0  0  0  0  0  0  0  0  0
   55.8020   29.7180   46.0280 H   0  0  0  0  0  0  0  0  0  0  0  0
   57.0996   27.5810   45.2251 H   0  0  0  0  0  0  0  0  0  0  0  0
   57.3981   28.7020   43.8156 H   0  0  0  0  0  0  0  0  0  0  0  0
   58.9030   28.5537   46.1641 H   0  0  0  0  0  0  0  0  0  0  0  0
   58.8860   29.8958   44.9212 H   0  0  0  0  0  0  0  0  0  0  0  0
   57.3920   29.8050   47.4830 H   0  0  0  0  0  0  0  0  0  0  0  0
   57.0370   30.8300   46.2700 H   0  0  0  0  0  0  0  0  0  0  0  0
   61.9394   34.2441   49.2109 H   0  0  0  0  0  0  0  0  0  0  0  0
   62.8316   33.8681   47.6979 H   0  0  0  0  0  0  0  0  0  0  0  0
   61.5565   35.1333   47.6979 H   0  0  0  0  0  0  0  0  0  0  0  0
   62.6227   32.3029   49.5966 H   0  0  0  0  0  0  0  0  0  0  0  0
   62.6789   30.0600   50.6516 H   0  0  0  0  0  0  0  0  0  0  0  0
   60.9878   28.3473   50.0464 H   0  0  0  0  0  0  0  0  0  0  0  0
   59.2174   28.8619   48.3899 H   0  0  0  0  0  0  0  0  0  0  0  0
   59.5193   35.5572   46.8439 H   0  0  0  0  0  0  0  0  0  0  0  0
   60.5732   35.0033   45.5397 H   0  0  0  0  0  0  0  0  0  0  0  0
   57.6529   35.2484   45.5110 H   0  0  0  0  0  0  0  0  0  0  0  0
   58.6556   34.6961   44.1777 H   0  0  0  0  0  0  0  0  0  0  0  0
  1  2  1  0
  2  3  1  0
  3  4  1  0
  4  5  1  0
  5  6  1  0
  6  7  1  0
  7  8  2  0
  8  9  1  0
  9 10  2  0
 10 11  1  0
 10 12  1  0
 12 13  2  0
 13 14  1  0
 14 15  2  0
 15 16  1  0
 16 17  2  0
  9 18  1  0
 18 19  1  0
 19 20  1  0
 20 21  2  0
 17  7  1  0
 20  8  1  0
 17 12  1  0
  1 22  1  0
  1 23  1  0
  1 24  1  0
  2 25  1  0
  2 26  1  0
  3 27  1  0
  4 28  1  0
  4 29  1  0
  5 30  1  0
  5 31  1  0
  6 32  1  0
  6 33  1  0
 11 34  1  0
 11 35  1  0
 11 36  1  0
 13 37  1  0
 14 38  1  0
 15 39  1  0
 16 40  1  0
 18 41  1  0
 18 42  1  0
 19 43  1  0
 19 44  1  0
M  CHG  2   6   1  10   1
M  END
>  <UniqueID>  (22) 
22

>  <SMILES>  (22) 
CCNCC[NH2+]c1c2c([n+](C)c3ccccc13)CCC2=O

>  <Energy>  (22) 
73.0464327018624

>  <Genealogy>  (22) 
CCNCC[NH2+]c1c2c([n+](C)c3ccccc13)CCC2=O (protonated)
CCNCC[NH2+]c1c2c([n+](C)c3ccccc13)CCC2=O (3D coordinates assigned)
CCNCC[NH2+]c1c2c([n+](C)c3ccccc13)CCC2=O (nonaromatic ring conformer: 73.0464327018624 kcal/mol)

>  <smiles>  (22) 
CCNCCNc1c2c([n+](C)c3ccccc13)CCC2=O

>  <score_type>  (22) 
oracle

>  <origin>  (22) 
adg

>  <m_score__min__energy>  (22) 
-3.9900000000000002

>  <m_primary>  (22) 
energy

$$$$
22:0
     RDKit          3D

 45 45  0  0  0  0  0  0  0  0999 V2000
   63.3400   33.8420   46.4480 C   0  0  0  0  0  0  0  0  0  0  0  0
   62.9750   33.1060   47.7360 C   0  0  0  0  0  0  0  0  0  0  0  0
   62.5130   31.6580   47.4910 C   0  0  0  0  0  0  0  0  0  0  0  0
   61.4480   31.1440   48.4780 C   0  0  0  0  0  0  0  0  0  0  0  0
   60.7740   29.8490   48.0070 C   0  0  0  0  0  0  0  0  0  0  0  0
   59.9750   30.1010   46.7680 C   0  0  0  0  0  0  0  0  0  0  0  0
   60.4180   29.7200   45.6500 O   0  0  0  0  0  0  0  0  0  0  0  0
   58.7880   30.8380   46.8550 O   0  0  0  0  0  0  0  0  0  0  0  0
   58.5700   32.0660   46.2160 C   0  0  0  0  0  0  0  0  0  0  0  0
   59.3190   33.1710   46.6340 C   0  0  0  0  0  0  0  0  0  0  0  0
   59.1420   34.4160   46.0280 C   0  0  0  0  0  0  0  0  0  0  0  0
   58.2090   34.5680   45.0030 C   0  0  0  0  0  0  0  0  0  0  0  0
   57.4370   33.4790   44.5910 C   0  0  0  0  0  0  0  0  0  0  0  0
   57.5900   32.2200   45.2100 C   0  0  0  0  0  0  0  0  0  0  0  0
   56.7890   31.1160   44.8690 O   0  0  0  0  0  0  0  0  0  0  0  0
   56.6440   30.5470   43.5660 C   0  0  0  0  0  0  0  0  0  0  0  0
   57.0850   29.0820   43.5610 C   0  0  0  0  0  0  0  0  0  0  0  0
   58.0260   28.8260   44.6580 N   0  0  0  0  0  0  0  0  0  0  0  0
   57.3940   28.0740   45.7510 C   0  0  0  0  0  0  0  0  0  0  0  0
   58.3420   26.9950   46.2650 C   0  0  0  0  0  0  0  0  0  0  0  0
   63.8161   34.8020   46.6966 H   0  0  0  0  0  0  0  0  0  0  0  0
   64.0380   33.2279   45.8600 H   0  0  0  0  0  0  0  0  0  0  0  0
   62.4287   34.0260   45.8600 H   0  0  0  0  0  0  0  0  0  0  0  0
   63.8587   33.0860   48.3908 H   0  0  0  0  0  0  0  0  0  0  0  0
   62.1347   33.6460   48.1968 H   0  0  0  0  0  0  0  0  0  0  0  0
   62.0948   31.5995   46.4753 H   0  0  0  0  0  0  0  0  0  0  0  0
   63.3992   31.0220   47.6328 H   0  0  0  0  0  0  0  0  0  0  0  0
   61.9304   30.9558   49.4485 H   0  0  0  0  0  0  0  0  0  0  0  0
   60.6669   31.9149   48.5521 H   0  0  0  0  0  0  0  0  0  0  0  0
   61.5459   29.0948   47.7940 H   0  0  0  0  0  0  0  0  0  0  0  0
   60.1019   29.4868   48.7989 H   0  0  0  0  0  0  0  0  0  0  0  0
   60.0526   33.0581   47.4459 H   0  0  0  0  0  0  0  0  0  0  0  0
   59.7393   35.2782   46.3595 H   0  0  0  0  0  0  0  0  0  0  0  0
   58.0806   35.5469   44.5180 H   0  0  0  0  0  0  0  0  0  0  0  0
   56.7054   33.6036   43.7791 H   0  0  0  0  0  0  0  0  0  0  0  0
   55.5887   30.6070   43.2616 H   0  0  0  0  0  0  0  0  0  0  0  0
   57.2775   31.1084   42.8635 H   0  0  0  0  0  0  0  0  0  0  0  0
   56.2020   28.4375   43.6833 H   0  0  0  0  0  0  0  0  0  0  0  0
   57.5838   28.8633   42.6053 H   0  0  0  0  0  0  0  0  0  0  0  0
   58.3330   29.7530   45.0350 H   0  0  0  0  0  0  0  0  0  0  0  0
   57.1489   28.7636   46.5722 H   0  0  0  0  0  0  0  0  0  0  0  0
   56.4770   27.5967   45.3750 H   0  0  0  0  0  0  0  0  0  0  0  0
   58.3392   26.9982   47.3650 H   0  0  0  0  0  0  0  0  0  0  0  0
   58.0105   26.0116   45.9003 H   0  0  0  0  0  0  0  0  0  0  0  0
   59.3599   27.1972   45.9003 H   0  0  0  0  0  0  0  0  0  0  0  0
  1  2  1  0
  2  3  1  0
  3  4  1  0
  4  5  1  0
  5  6  1  0
  6  7  2  0
  6  8  1  0
  8  9  1  0
  9 10  2  0
 10 11  1  0
 11 12  2  0
 12 13  1  0
 13 14  2  0
 14 15  1  0
 15 16  1  0
 16 17  1  0
 17 18  1  0
 18 19  1  0
 19 20  1  0
 14  9  1  0
  1 21  1  0
  1 22  1  0
  1 23  1  0
  2 24  1  0
  2 25  1  0
  3 26  1  0
  3 27  1  0
  4 28  1  0
  4 29  1  0
  5 30  1  0
  5 31  1  0
 10 32  1  0
 11 33  1  0
 12 34  1  0
 13 35  1  0
 16 36  1  0
 16 37  1  0
 17 38  1  0
 17 39  1  0
 18 40  1  0
 19 41  1  0
 19 42  1  0
 20 43  1  0
 20 44  1  0
 20 45  1  0
M  END
>  <UniqueID>  (23) 
23

>  <SMILES>  (23) 
CCCCCC(=O)Oc1ccccc1OCCNCC

>  <Energy>  (23) 
35.844917165037394

>  <Genealogy>  (23) 
CCCCCC(=O)Oc1ccccc1OCCNCC (3D coordinates assigned)
CCCCCC(=O)Oc1ccccc1OCCNCC (optimized conformer: 35.844917165037394 kcal/mol)

>  <smiles>  (23) 
CCCCCC(=O)Oc1ccccc1OCCNCC

>  <score_type>  (23) 
oracle

>  <origin>  (23) 
adg

>  <m_score__min__energy>  (23) 
-5.2400000000000002

>  <m_primary>  (23) 
energy

$$$$
23:0
     RDKit          3D

 64 66  0  0  0  0  0  0  0  0999 V2000
   60.6420   33.8150   50.3910 C   0  0  0  0  0  0  0  0  0  0  0  0
   60.8180   34.2440   48.9360 C   0  0  0  0  0  0  0  0  0  0  0  0
   61.7580   33.3460   48.2310 N   0  0  0  0  0  0  0  0  0  0  0  0
   61.9350   33.5640   46.7720 C   0  0  0  0  0  0  0  0  0  0  0  0
   63.3790   33.8390   46.3260 C   0  0  0  0  0  0  0  0  0  0  0  0
   63.0060   33.0680   48.9760 C   0  0  0  0  0  0  0  0  0  0  0  0
   63.2280   31.5770   49.2760 C   0  0  0  0  0  0  0  0  0  0  0  0
   62.0250   30.9850   49.7270 O   0  0  0  0  0  0  0  0  0  0  0  0
   62.1170   30.5860   51.0830 C   0  0  0  0  0  0  0  0  0  0  0  0
   61.2170   29.3740   51.3390 C   0  0  0  0  0  0  0  0  0  0  0  0
   60.1300   29.3560   50.4310 O   0  0  0  0  0  0  0  0  0  0  0  0
   59.1850   30.3550   50.7590 C   0  0  0  0  0  0  0  0  0  0  0  0
   58.8760   31.2080   49.5240 C   0  0  0  0  0  0  0  0  0  0  0  0
   59.8780   31.0610   48.4500 N   0  0  0  0  0  0  0  0  0  0  0  0
   59.2620   30.7480   47.1640 C   0  0  0  0  0  0  0  0  0  0  0  0
   58.7460   31.7710   46.3140 C   0  0  0  0  0  0  0  0  0  0  0  0
   58.8280   33.1490   46.6480 C   0  0  0  0  0  0  0  0  0  0  0  0
   58.3770   34.1340   45.7740 C   0  0  0  0  0  0  0  0  0  0  0  0
   57.8460   33.7850   44.5430 C   0  0  0  0  0  0  0  0  0  0  0  0
   57.7280   32.4450   44.1930 C   0  0  0  0  0  0  0  0  0  0  0  0
   58.1300   31.4120   45.0800 C   0  0  0  0  0  0  0  0  0  0  0  0
   57.9420   30.0850   44.7520 N   0  0  0  0  0  0  0  0  0  0  0  0
   57.0230   29.7190   43.6480 C   0  0  0  0  0  0  0  0  0  0  0  0
   58.5830   29.0970   45.4670 C   0  0  0  0  0  0  0  0  0  0  0  0
   58.6480   27.7640   44.9810 C   0  0  0  0  0  0  0  0  0  0  0  0
   59.2260   26.7470   45.7350 C   0  0  0  0  0  0  0  0  0  0  0  0
   59.2670   25.4810   45.2490 F   0  0  0  0  0  0  0  0  0  0  0  0
   59.7590   27.0270   46.9840 C   0  0  0  0  0  0  0  0  0  0  0  0
   59.7570   28.3310   47.4680 C   0  0  0  0  0  0  0  0  0  0  0  0
   59.2050   29.3980   46.7110 C   0  0  0  0  0  0  0  0  0  0  0  0
   60.9748   34.6262   51.0553 H   0  0  0  0  0  0  0  0  0  0  0  0
   59.5813   33.5958   50.5829 H   0  0  0  0  0  0  0  0  0  0  0  0
   61.2431   32.9140   50.5829 H   0  0  0  0  0  0  0  0  0  0  0  0
   59.8416   34.2119   48.4304 H   0  0  0  0  0  0  0  0  0  0  0  0
   61.2268   35.2650   48.9177 H   0  0  0  0  0  0  0  0  0  0  0  0
   61.5816   32.6641   46.2474 H   0  0  0  0  0  0  0  0  0  0  0  0
   61.3599   34.4685   46.5248 H   0  0  0  0  0  0  0  0  0  0  0  0
   64.0195   33.9610   47.2120 H   0  0  0  0  0  0  0  0  0  0  0  0
   63.7438   32.9942   45.7233 H   0  0  0  0  0  0  0  0  0  0  0  0
   63.4078   34.7588   45.7233 H   0  0  0  0  0  0  0  0  0  0  0  0
   63.8551   33.4322   48.3791 H   0  0  0  0  0  0  0  0  0  0  0  0
   62.9228   33.5818   49.9451 H   0  0  0  0  0  0  0  0  0  0  0  0
   63.5624   31.0679   48.3600 H   0  0  0  0  0  0  0  0  0  0  0  0
   63.9926   31.4787   50.0607 H   0  0  0  0  0  0  0  0  0  0  0  0
   63.1591   30.3201   51.3137 H   0  0  0  0  0  0  0  0  0  0  0  0
   61.7910   31.4175   51.7251 H   0  0  0  0  0  0  0  0  0  0  0  0
   61.8067   28.4538   51.2144 H   0  0  0  0  0  0  0  0  0  0  0  0
   60.8208   29.4381   52.3632 H   0  0  0  0  0  0  0  0  0  0  0  0
   58.2592   29.8786   51.1139 H   0  0  0  0  0  0  0  0  0  0  0  0
   59.5989   30.9990   51.5489 H   0  0  0  0  0  0  0  0  0  0  0  0
   57.8939   30.9086   49.1292 H   0  0  0  0  0  0  0  0  0  0  0  0
   58.8900   32.2609   49.8422 H   0  0  0  0  0  0  0  0  0  0  0  0
   60.5050   31.8890   48.4290 H   0  0  0  0  0  0  0  0  0  0  0  0
   60.5480   30.3040   48.7090 H   0  0  0  0  0  0  0  0  0  0  0  0
   59.2567   33.4439   47.6172 H   0  0  0  0  0  0  0  0  0  0  0  0
   58.4425   35.1936   46.0619 H   0  0  0  0  0  0  0  0  0  0  0  0
   57.5180   34.5677   43.8431 H   0  0  0  0  0  0  0  0  0  0  0  0
   57.3147   32.1796   43.2087 H   0  0  0  0  0  0  0  0  0  0  0  0
   56.0781   29.3427   44.0670 H   0  0  0  0  0  0  0  0  0  0  0  0
   56.8222   30.6058   43.0289 H   0  0  0  0  0  0  0  0  0  0  0  0
   57.4868   28.9370   43.0289 H   0  0  0  0  0  0  0  0  0  0  0  0
   58.2333   27.5309   43.9892 H   0  0  0  0  0  0  0  0  0  0  0  0
   60.1844   26.2161   47.5935 H   0  0  0  0  0  0  0  0  0  0  0  0
   60.1916   28.5398   48.4567 H   0  0  0  0  0  0  0  0  0  0  0  0
  1  2  1  0
  2  3  1  0
  3  4  1  0
  4  5  1  0
  3  6  1  0
  6  7  1  0
  7  8  1  0
  8  9  1  0
  9 10  1  0
 10 11  1  0
 11 12  1  0
 12 13  1  0
 13 14  1  0
 14 15  1  0
 15 16  2  0
 16 17  1  0
 17 18  2  0
 18 19  1  0
 19 20  2  0
 20 21  1  0
 21 22  2  0
 22 23  1  0
 22 24  1  0
 24 25  2  0
 25 26  1  0
 26 27  1  0
 26 28  2  0
 28 29  1  0
 29 30  2  0
 30 15  1  0
 21 16  1  0
 30 24  1  0
  1 31  1  0
  1 32  1  0
  1 33  1  0
  2 34  1  0
  2 35  1  0
  4 36  1  0
  4 37  1  0
  5 38  1  0
  5 39  1  0
  5 40  1  0
  6 41  1  0
  6 42  1  0
  7 43  1  0
  7 44  1  0
  9 45  1  0
  9 46  1  0
 10 47  1  0
 10 48  1  0
 12 49  1  0
 12 50  1  0
 13 51  1  0
 13 52  1  0
 14 53  1  0
 14 54  1  0
 17 55  1  0
 18 56  1  0
 19 57  1  0
 20 58  1  0
 23 59  1  0
 23 60  1  0
 23 61  1  0
 25 62  1  0
 28 63  1  0
 29 64  1  0
M  CHG  2  14   1  22   1
M  END
>  <UniqueID>  (24) 
24

>  <SMILES>  (24) 
CCN(CC)CCOCCOCC[NH2+]c1c2ccccc2[n+](C)c2cc(F)ccc12

>  <Energy>  (24) 
101.07804266434692

>  <Genealogy>  (24) 
CCN(CC)CCOCCOCC[NH2+]c1c2ccccc2[n+](C)c2cc(F)ccc12 (protonated)
CCN(CC)CCOCCOCC[NH2+]c1c2ccccc2[n+](C)c2cc(F)ccc12 (3D coordinates assigned)
CCN(CC)CCOCCOCC[NH2+]c1c2ccccc2[n+](C)c2cc(F)ccc12 (optimized conformer: 101.07804266434692 kcal/mol)

>  <smiles>  (24) 
CCN(CC)CCOCCOCCNc1c2ccccc2[n+](C)c2cc(F)ccc12

>  <score_type>  (24) 
oracle

>  <origin>  (24) 
adg

>  <m_score__min__energy>  (24) 
-3.8300000000000001

>  <m_primary>  (24) 
energy

$$$$
24:0
     RDKit          3D

 19 20  0  0  0  0  0  0  0  0999 V2000
   59.6210   22.3530   44.8420 C   0  0  0  0  0  0  0  0  0  0  0  0
   58.1710   22.5230   44.8700 N   0  0  0  0  0  0  0  0  0  0  0  0
   57.2460   21.5760   44.5870 C   0  0  0  0  0  0  0  0  0  0  0  0
   55.9640   22.0960   44.7170 C   0  0  0  0  0  0  0  0  0  0  0  0
   56.1360   23.4140   45.0950 C   0  0  0  0  0  0  0  0  0  0  0  0
   55.2030   24.4160   45.3670 C   0  0  0  0  0  0  0  0  0  0  0  0
   53.3210   24.0780   45.2430 Br  0  0  0  0  0  0  0  0  0  0  0  0
   55.6900   25.6870   45.7370 C   0  0  0  0  0  0  0  0  0  0  0  0
   54.7970   26.7160   46.0180 O   0  0  0  0  0  0  0  0  0  0  0  0
   57.0840   25.9200   45.8240 C   0  0  0  0  0  0  0  0  0  0  0  0
   57.7510   27.6420   46.3250 Br  0  0  0  0  0  0  0  0  0  0  0  0
   57.9980   24.8870   45.5420 C   0  0  0  0  0  0  0  0  0  0  0  0
   57.4870   23.6400   45.1790 C   0  0  0  0  0  0  0  0  0  0  0  0
   60.0049   22.3080   45.8719 H   0  0  0  0  0  0  0  0  0  0  0  0
   59.8706   21.4194   44.3165 H   0  0  0  0  0  0  0  0  0  0  0  0
   60.0798   23.2035   44.3165 H   0  0  0  0  0  0  0  0  0  0  0  0
   57.4767   20.5408   44.2953 H   0  0  0  0  0  0  0  0  0  0  0  0
   55.0123   21.5692   44.5534 H   0  0  0  0  0  0  0  0  0  0  0  0
   59.0828   25.0577   45.6059 H   0  0  0  0  0  0  0  0  0  0  0  0
  1  2  1  0
  2  3  1  0
  3  4  2  0
  4  5  1  0
  5  6  2  0
  6  7  1  0
  6  8  1  0
  8  9  1  0
  8 10  2  0
 10 11  1  0
 10 12  1  0
 12 13  2  0
 13  2  1  0
 13  5  1  0
  1 14  1  0
  1 15  1  0
  1 16  1  0
  3 17  1  0
  4 18  1  0
 12 19  1  0
M  CHG  1   9  -1
M  END
>  <UniqueID>  (25) 
25

>  <SMILES>  (25) 
Cn1ccc2c(Br)c([O-])c(Br)cc21

>  <Energy>  (25) 
53.06118674379061

>  <Genealogy>  (25) 
Cn1ccc2c(Br)c([O-])c(Br)cc21 (protonated)
Cn1ccc2c(Br)c([O-])c(Br)cc21 (3D coordinates assigned)
Cn1ccc2c(Br)c([O-])c(Br)cc21 (optimized conformer: 53.06118674379061 kcal/mol)

>  <smiles>  (25) 
Cn1ccc2c(Br)c(O)c(Br)cc21

>  <score_type>  (25) 
oracle

>  <origin>  (25) 
adg

>  <m_score__min__energy>  (25) 
-9.1699999999999999

>  <m_primary>  (25) 
energy

$$$$
25:0
     RDKit          3D

 49 51  0  0  0  0  0  0  0  0999 V2000
   56.4160   26.1230   46.1860 C   0  0  0  0  0  0  0  0  0  0  0  0
   57.7570   26.4370   45.5270 C   0  0  0  0  0  0  0  0  0  0  0  0
   58.7500   26.8570   46.5420 N   0  0  0  0  0  0  0  0  0  0  0  0
   58.6640   26.0110   47.7470 C   0  0  0  0  0  0  0  0  0  0  0  0
   60.1310   26.8640   45.9980 C   0  0  0  0  0  0  0  0  0  0  0  0
   60.6490   28.3050   45.9000 C   0  0  0  0  0  0  0  0  0  0  0  0
   60.2700   29.1050   47.0760 N   0  0  0  0  0  0  0  0  0  0  0  0
   59.9510   30.4690   46.6810 C   0  0  0  0  0  0  0  0  0  0  0  0
   60.8640   31.5280   46.9290 C   0  0  0  0  0  0  0  0  0  0  0  0
   62.0500   31.3280   47.6820 C   0  0  0  0  0  0  0  0  0  0  0  0
   62.9860   32.3470   47.8330 C   0  0  0  0  0  0  0  0  0  0  0  0
   62.7710   33.5820   47.2410 C   0  0  0  0  0  0  0  0  0  0  0  0
   61.5930   33.8240   46.5390 C   0  0  0  0  0  0  0  0  0  0  0  0
   60.5920   32.8260   46.4160 C   0  0  0  0  0  0  0  0  0  0  0  0
   59.3830   33.0960   45.8060 N   0  0  0  0  0  0  0  0  0  0  0  0
   58.9840   34.5000   45.5490 C   0  0  0  0  0  0  0  0  0  0  0  0
   58.5180   32.0680   45.4860 C   0  0  0  0  0  0  0  0  0  0  0  0
   57.3920   32.2840   44.6510 C   0  0  0  0  0  0  0  0  0  0  0  0
   56.4650   31.2760   44.4090 C   0  0  0  0  0  0  0  0  0  0  0  0
   56.6290   30.0200   44.9870 C   0  0  0  0  0  0  0  0  0  0  0  0
   55.6520   28.9970   44.7670 N   0  0  0  0  0  0  0  0  0  0  0  0
   57.7590   29.7610   45.7650 C   0  0  0  0  0  0  0  0  0  0  0  0
   58.7480   30.7550   45.9820 C   0  0  0  0  0  0  0  0  0  0  0  0
   56.5298   26.1496   47.2798 H   0  0  0  0  0  0  0  0  0  0  0  0
   55.6713   26.8711   45.8765 H   0  0  0  0  0  0  0  0  0  0  0  0
   56.0808   25.1221   45.8765 H   0  0  0  0  0  0  0  0  0  0  0  0
   58.1255   25.5383   45.0108 H   0  0  0  0  0  0  0  0  0  0  0  0
   57.6157   27.2574   44.8080 H   0  0  0  0  0  0  0  0  0  0  0  0
   58.7283   26.6437   48.6445 H   0  0  0  0  0  0  0  0  0  0  0  0
   57.7062   25.4700   47.7476 H   0  0  0  0  0  0  0  0  0  0  0  0
   59.4933   25.2883   47.7476 H   0  0  0  0  0  0  0  0  0  0  0  0
   60.7878   26.2853   46.6641 H   0  0  0  0  0  0  0  0  0  0  0  0
   60.1262   26.4129   44.9947 H   0  0  0  0  0  0  0  0  0  0  0  0
   61.7461   28.2842   45.8225 H   0  0  0  0  0  0  0  0  0  0  0  0
   60.1977   28.7701   45.0111 H   0  0  0  0  0  0  0  0  0  0  0  0
   61.0270   29.1000   47.7930 H   0  0  0  0  0  0  0  0  0  0  0  0
   59.4730   28.6560   47.5790 H   0  0  0  0  0  0  0  0  0  0  0  0
   62.2327   30.3514   48.1542 H   0  0  0  0  0  0  0  0  0  0  0  0
   63.8978   32.1721   48.4230 H   0  0  0  0  0  0  0  0  0  0  0  0
   63.5319   34.3718   47.3259 H   0  0  0  0  0  0  0  0  0  0  0  0
   61.4356   34.8070   46.0712 H   0  0  0  0  0  0  0  0  0  0  0  0
   58.8361   35.0203   46.5068 H   0  0  0  0  0  0  0  0  0  0  0  0
   59.7738   35.0064   44.9747 H   0  0  0  0  0  0  0  0  0  0  0  0
   58.0459   34.5153   44.9747 H   0  0  0  0  0  0  0  0  0  0  0  0
   57.2489   33.2700   44.1848 H   0  0  0  0  0  0  0  0  0  0  0  0
   55.5995   31.4716   43.7589 H   0  0  0  0  0  0  0  0  0  0  0  0
   54.7740   28.9660   45.3310 H   0  0  0  0  0  0  0  0  0  0  0  0
   55.8000   28.2630   44.0380 H   0  0  0  0  0  0  0  0  0  0  0  0
   57.8850   28.7669   46.2186 H   0  0  0  0  0  0  0  0  0  0  0  0
  1  2  1  0
  2  3  1  0
  3  4  1  0
  3  5  1  0
  5  6  1  0
  6  7  1  0
  7  8  1  0
  8  9  2  0
  9 10  1  0
 10 11  2  0
 11 12  1  0
 12 13  2  0
 13 14  1  0
 14 15  2  0
 15 16  1  0
 15 17  1  0
 17 18  2  0
 18 19  1  0
 19 20  2  0
 20 21  1  0
 20 22  1  0
 22 23  2  0
 23  8  1  0
 14  9  1  0
 23 17  1  0
  1 24  1  0
  1 25  1  0
  1 26  1  0
  2 27  1  0
  2 28  1  0
  4 29  1  0
  4 30  1  0
  4 31  1  0
  5 32  1  0
  5 33  1  0
  6 34  1  0
  6 35  1  0
  7 36  1  0
  7 37  1  0
 10 38  1  0
 11 39  1  0
 12 40  1  0
 13 41  1  0
 16 42  1  0
 16 43  1  0
 16 44  1  0
 18 45  1  0
 19 46  1  0
 21 47  1  0
 21 48  1  0
 22 49  1  0
M  CHG  2   7   1  15   1
M  END
>  <UniqueID>  (26) 
26

>  <SMILES>  (26) 
CCN(C)CC[NH2+]c1c2ccccc2[n+](C)c2ccc(N)cc12

>  <Energy>  (26) 
77.43195825069878

>  <Genealogy>  (26) 
CCN(C)CC[NH2+]c1c2ccccc2[n+](C)c2ccc(N)cc12 (protonated)
CCN(C)CC[NH2+]c1c2ccccc2[n+](C)c2ccc(N)cc12 (3D coordinates assigned)
CCN(C)CC[NH2+]c1c2ccccc2[n+](C)c2ccc(N)cc12 (optimized conformer: 77.43195825069878 kcal/mol)

>  <smiles>  (26) 
CCN(C)CCNc1c2ccccc2[n+](C)c2ccc(N)cc12

>  <score_type>  (26) 
oracle

>  <origin>  (26) 
adg

>  <m_score__min__energy>  (26) 
-4.25

>  <m_primary>  (26) 
energy

$$$$
26:0
     RDKit          3D

 46 48  0  0  0  0  0  0  0  0999 V2000
   55.8390   29.8280   43.3130 C   0  0  0  0  0  0  0  0  0  0  0  0
   55.8990   29.3520   44.7590 C   0  0  0  0  0  0  0  0  0  0  0  0
   56.8800   28.2670   44.8830 N   0  0  0  0  0  0  0  0  0  0  0  0
   58.1140   28.5210   44.1210 C   0  0  0  0  0  0  0  0  0  0  0  0
   59.3890   27.9320   44.7590 C   0  0  0  0  0  0  0  0  0  0  0  0
   59.8190   28.6670   46.0350 C   0  0  0  0  0  0  0  0  0  0  0  0
   58.6720   29.3240   46.6610 N   0  0  0  0  0  0  0  0  0  0  0  0
   58.7550   30.6730   47.1520 C   0  0  0  0  0  0  0  0  0  0  0  0
   58.6390   31.7540   46.2630 C   0  0  0  0  0  0  0  0  0  0  0  0
   58.3400   31.5400   44.9000 C   0  0  0  0  0  0  0  0  0  0  0  0
   58.1920   32.6150   44.0270 C   0  0  0  0  0  0  0  0  0  0  0  0
   57.8100   32.3300   42.3390 Cl  0  0  0  0  0  0  0  0  0  0  0  0
   58.3260   33.9170   44.4990 C   0  0  0  0  0  0  0  0  0  0  0  0
   58.6320   34.1510   45.8390 C   0  0  0  0  0  0  0  0  0  0  0  0
   58.8300   33.0770   46.7430 C   0  0  0  0  0  0  0  0  0  0  0  0
   59.1890   33.2900   48.0620 N   0  0  0  0  0  0  0  0  0  0  0  0
   59.6800   34.6200   48.4890 C   0  0  0  0  0  0  0  0  0  0  0  0
   59.1070   32.2560   48.9750 C   0  0  0  0  0  0  0  0  0  0  0  0
   59.1910   32.4850   50.3730 C   0  0  0  0  0  0  0  0  0  0  0  0
   59.1320   31.4280   51.2820 C   0  0  0  0  0  0  0  0  0  0  0  0
   59.2410   31.7440   53.0050 Cl  0  0  0  0  0  0  0  0  0  0  0  0
   58.9660   30.1240   50.8270 C   0  0  0  0  0  0  0  0  0  0  0  0
   58.8440   29.8710   49.4640 C   0  0  0  0  0  0  0  0  0  0  0  0
   58.9120   30.9220   48.5260 C   0  0  0  0  0  0  0  0  0  0  0  0
   55.7015   30.9192   43.2916 H   0  0  0  0  0  0  0  0  0  0  0  0
   56.7772   29.5666   42.8017 H   0  0  0  0  0  0  0  0  0  0  0  0
   54.9950   29.3419   42.8017 H   0  0  0  0  0  0  0  0  0  0  0  0
   56.1962   30.1894   45.4075 H   0  0  0  0  0  0  0  0  0  0  0  0
   54.9080   28.9832   45.0623 H   0  0  0  0  0  0  0  0  0  0  0  0
   56.4490   27.3640   44.5780 H   0  0  0  0  0  0  0  0  0  0  0  0
   57.9963   28.0823   43.1192 H   0  0  0  0  0  0  0  0  0  0  0  0
   58.2498   29.6123   44.0977 H   0  0  0  0  0  0  0  0  0  0  0  0
   59.2001   26.8776   45.0093 H   0  0  0  0  0  0  0  0  0  0  0  0
   60.2027   28.0426   44.0271 H   0  0  0  0  0  0  0  0  0  0  0  0
   60.2509   27.9428   46.7414 H   0  0  0  0  0  0  0  0  0  0  0  0
   60.5648   29.4310   45.7704 H   0  0  0  0  0  0  0  0  0  0  0  0
   57.7540   28.8250   46.6970 H   0  0  0  0  0  0  0  0  0  0  0  0
   58.2227   30.5131   44.5234 H   0  0  0  0  0  0  0  0  0  0  0  0
   58.1899   34.7653   43.8121 H   0  0  0  0  0  0  0  0  0  0  0  0
   58.7213   35.1860   46.2007 H   0  0  0  0  0  0  0  0  0  0  0  0
   59.6980   34.6688   49.5878 H   0  0  0  0  0  0  0  0  0  0  0  0
   60.6959   34.7786   48.0982 H   0  0  0  0  0  0  0  0  0  0  0  0
   59.0108   35.4007   48.0982 H   0  0  0  0  0  0  0  0  0  0  0  0
   59.3046   33.5134   50.7464 H   0  0  0  0  0  0  0  0  0  0  0  0
   58.9311   29.2918   51.5455 H   0  0  0  0  0  0  0  0  0  0  0  0
   58.6928   28.8392   49.1141 H   0  0  0  0  0  0  0  0  0  0  0  0
  1  2  1  0
  2  3  1  0
  3  4  1  0
  4  5  1  0
  5  6  1  0
  6  7  1  0
  7  8  1  0
  8  9  2  0
  9 10  1  0
 10 11  2  0
 11 12  1  0
 11 13  1  0
 13 14  2  0
 14 15  1  0
 15 16  2  0
 16 17  1  0
 16 18  1  0
 18 19  2  0
 19 20  1  0
 20 21  1  0
 20 22  2  0
 22 23  1  0
 23 24  2  0
 24  8  1  0
 15  9  1  0
 24 18  1  0
  1 25  1  0
  1 26  1  0
  1 27  1  0
  2 28  1  0
  2 29  1  0
  3 30  1  0
  4 31  1  0
  4 32  1  0
  5 33  1  0
  5 34  1  0
  6 35  1  0
  6 36  1  0
  7 37  1  0
 10 38  1  0
 13 39  1  0
 14 40  1  0
 17 41  1  0
 17 42  1  0
 17 43  1  0
 19 44  1  0
 22 45  1  0
 23 46  1  0
M  CHG  1  16   1
M  END
>  <UniqueID>  (27) 
27

>  <SMILES>  (27) 
CCNCCCNc1c2cc(Cl)ccc2[n+](C)c2cc(Cl)ccc12

>  <Energy>  (27) 
67.55288493455694

>  <Genealogy>  (27) 
CCNCCCNc1c2cc(Cl)ccc2[n+](C)c2cc(Cl)ccc12 (3D coordinates assigned)
CCNCCCNc1c2cc(Cl)ccc2[n+](C)c2cc(Cl)ccc12 (optimized conformer: 67.55288493455694 kcal/mol)

>  <smiles>  (27) 
CCNCCCNc1c2cc(Cl)ccc2[n+](C)c2cc(Cl)ccc12

>  <score_type>  (27) 
oracle

>  <origin>  (27) 
adg

>  <m_score__min__energy>  (27) 
-6.0800000000000001

>  <m_primary>  (27) 
energy

$$$$
27:0
     RDKit          3D

 35 36  0  0  0  0  0  0  0  0999 V2000
   55.2328   24.3516   46.8116 H   0  0  0  0  0  0  0  0  0  0  0  0
   55.9630   25.1220   46.5230 C   0  0  0  0  0  0  0  0  0  0  0  0
   55.5330   26.3220   46.0520 N   0  0  0  0  0  0  0  0  0  0  0  0
   56.3940   27.3090   45.6790 C   0  0  0  0  0  0  0  0  0  0  0  0
   55.8980   28.4300   45.2430 N   0  0  0  0  0  0  0  0  0  0  0  0
   56.5860   29.4630   44.0250 S   0  0  0  0  0  0  0  0  0  0  0  0
   55.4740   30.1120   43.2500 O   0  0  0  0  0  0  0  0  0  0  0  0
   57.4140   28.6310   43.0850 O   0  0  0  0  0  0  0  0  0  0  0  0
   57.5660   30.7210   44.7720 C   0  0  0  0  0  0  0  0  0  0  0  0
   57.3150   32.0690   44.4950 C   0  0  0  0  0  0  0  0  0  0  0  0
   56.4954   32.3454   43.8154 H   0  0  0  0  0  0  0  0  0  0  0  0
   58.1010   33.0650   45.0780 C   0  0  0  0  0  0  0  0  0  0  0  0
   57.8956   34.1225   44.8554 H   0  0  0  0  0  0  0  0  0  0  0  0
   59.1550   32.7260   45.9490 C   0  0  0  0  0  0  0  0  0  0  0  0
   59.9720   33.7000   46.5530 O   0  0  0  0  0  0  0  0  0  0  0  0
   59.5440   34.6790   47.5000 C   0  0  0  0  0  0  0  0  0  0  0  0
   58.4492   34.7742   47.4508 H   0  0  0  0  0  0  0  0  0  0  0  0
   60.0226   35.6389   47.2562 H   0  0  0  0  0  0  0  0  0  0  0  0
   59.9480   34.2760   48.9140 C   0  0  0  0  0  0  0  0  0  0  0  0
   59.3643   34.8583   49.6421 H   0  0  0  0  0  0  0  0  0  0  0  0
   59.7513   33.2036   49.0600 H   0  0  0  0  0  0  0  0  0  0  0  0
   61.0199   34.4754   49.0600 H   0  0  0  0  0  0  0  0  0  0  0  0
   59.3990   31.3680   46.2370 C   0  0  0  0  0  0  0  0  0  0  0  0
   60.5170   30.9820   47.1640 C   0  0  0  0  0  0  0  0  0  0  0  0
   60.1851   31.0966   48.2064 H   0  0  0  0  0  0  0  0  0  0  0  0
   60.7990   29.9345   46.9821 H   0  0  0  0  0  0  0  0  0  0  0  0
   61.3853   31.6324   46.9821 H   0  0  0  0  0  0  0  0  0  0  0  0
   58.6020   30.3750   45.6460 C   0  0  0  0  0  0  0  0  0  0  0  0
   58.7938   29.3157   45.8721 H   0  0  0  0  0  0  0  0  0  0  0  0
   57.7820   27.0800   45.7820 C   0  0  0  0  0  0  0  0  0  0  0  0
   58.4968   27.8608   45.4830 H   0  0  0  0  0  0  0  0  0  0  0  0
   58.2410   25.8530   46.2670 C   0  0  0  0  0  0  0  0  0  0  0  0
   59.3214   25.6652   46.3540 H   0  0  0  0  0  0  0  0  0  0  0  0
   57.3290   24.8660   46.6410 C   0  0  0  0  0  0  0  0  0  0  0  0
   57.6828   23.8976   47.0243 H   0  0  0  0  0  0  0  0  0  0  0  0
  1  2  1  0
  2  3  1  0
  3  4  1  0
  4  5  2  0
  5  6  1  0
  6  7  2  0
  6  8  2  0
  6  9  1  0
  9 10  2  0
 10 11  1  0
 10 12  1  0
 12 13  1  0
 12 14  2  0
 14 15  1  0
 15 16  1  0
 16 17  1  0
 16 18  1  0
 16 19  1  0
 19 20  1  0
 19 21  1  0
 19 22  1  0
 14 23  1  0
 23 24  1  0
 24 25  1  0
 24 26  1  0
 24 27  1  0
 23 28  2  0
 28 29  1  0
  4 30  1  0
 30 31  1  0
 30 32  2  0
 32 33  1  0
 32 34  1  0
 34 35  1  0
 34  2  2  0
 28  9  1  0
M  CHG  1   3  -1
M  END
>  <UniqueID>  (28) 
28

>  <SMILES>  (28) 
CCOc1ccc(S(=O)(=O)/N=c2\cccc[n-]2)cc1C

>  <Energy>  (28) 
38.86791123018455

>  <Genealogy>  (28) 
CCOc1ccc(S(=O)(=O)N=c2cccc[n-]2)cc1C (protonated)
CCOc1ccc(S(=O)(=O)/N=c2\cccc[n-]2)cc1C (cis-trans isomerization)
CCOc1ccc(S(=O)(=O)/N=c2\cccc[n-]2)cc1C (3D coordinates assigned)
CCOc1ccc(S(=O)(=O)/N=c2\cccc[n-]2)cc1C (optimized conformer: 38.86791123018455 kcal/mol)

>  <smiles>  (28) 
CCOc1ccc(S(=O)(=O)N=c2cccc[nH]2)cc1C

>  <score_type>  (28) 
oracle

>  <origin>  (28) 
adg

>  <m_score__min__energy>  (28) 
-8.9499999999999993

>  <m_primary>  (28) 
energy

$$$$
28:0
     RDKit          3D

 52 55  0  0  0  0  0  0  0  0999 V2000
   56.6346   26.3394   44.7098 H   0  0  0  0  0  0  0  0  0  0  0  0
   57.3740   26.9170   45.2840 C   0  0  0  0  0  0  0  0  0  0  0  0
   58.3170   26.2530   46.0560 C   0  0  0  0  0  0  0  0  0  0  0  0
   58.3415   25.1533   46.0616 H   0  0  0  0  0  0  0  0  0  0  0  0
   59.2330   26.9690   46.8240 C   0  0  0  0  0  0  0  0  0  0  0  0
   59.9881   26.4247   47.4101 H   0  0  0  0  0  0  0  0  0  0  0  0
   59.2100   28.3830   46.8640 C   0  0  0  0  0  0  0  0  0  0  0  0
   60.0860   29.1860   47.6730 C   0  0  0  0  0  0  0  0  0  0  0  0
   60.7720   28.7460   48.7010 N   0  0  0  0  0  0  0  0  0  0  0  0
   60.8280   29.1520   50.1010 C   0  0  0  0  0  0  0  0  0  0  0  0
   61.1327   30.2069   50.1664 H   0  0  0  0  0  0  0  0  0  0  0  0
   61.5587   28.5291   50.6378 H   0  0  0  0  0  0  0  0  0  0  0  0
   59.4440   28.9790   50.7300 C   0  0  0  0  0  0  0  0  0  0  0  0
   59.5621   28.5801   51.7483 H   0  0  0  0  0  0  0  0  0  0  0  0
   58.8647   28.2868   50.1013 H   0  0  0  0  0  0  0  0  0  0  0  0
   58.6850   30.3110   50.8020 C   0  0  0  0  0  0  0  0  0  0  0  0
   58.5660   30.7158   49.7861 H   0  0  0  0  0  0  0  0  0  0  0  0
   59.2572   31.0146   51.4245 H   0  0  0  0  0  0  0  0  0  0  0  0
   57.3470   30.1110   51.4080 N   0  0  0  0  0  0  0  0  0  0  0  0
   56.6880   31.4060   51.6540 C   0  0  0  0  0  0  0  0  0  0  0  0
   56.6026   31.5739   52.7377 H   0  0  0  0  0  0  0  0  0  0  0  0
   57.2852   32.2127   51.2039 H   0  0  0  0  0  0  0  0  0  0  0  0
   55.6843   31.3980   51.2039 H   0  0  0  0  0  0  0  0  0  0  0  0
   57.4200   29.3260   52.6580 C   0  0  0  0  0  0  0  0  0  0  0  0
   58.0997   29.8282   53.3621 H   0  0  0  0  0  0  0  0  0  0  0  0
   57.7941   28.3182   52.4249 H   0  0  0  0  0  0  0  0  0  0  0  0
   56.0370   29.2060   53.2930 C   0  0  0  0  0  0  0  0  0  0  0  0
   56.1346   29.2145   54.3886 H   0  0  0  0  0  0  0  0  0  0  0  0
   55.4123   30.0533   52.9740 H   0  0  0  0  0  0  0  0  0  0  0  0
   55.5676   28.2637   52.9740 H   0  0  0  0  0  0  0  0  0  0  0  0
   60.1540   30.5820   47.4190 C   0  0  0  0  0  0  0  0  0  0  0  0
   61.0650   31.4130   48.1080 C   0  0  0  0  0  0  0  0  0  0  0  0
   61.7531   30.9702   48.8431 H   0  0  0  0  0  0  0  0  0  0  0  0
   61.1050   32.7870   47.8700 C   0  0  0  0  0  0  0  0  0  0  0  0
   61.8247   33.4155   48.4150 H   0  0  0  0  0  0  0  0  0  0  0  0
   60.2360   33.3700   46.9430 C   0  0  0  0  0  0  0  0  0  0  0  0
   60.2790   34.7530   46.7070 C   0  0  0  0  0  0  0  0  0  0  0  0
   61.0000   35.3794   47.2527 H   0  0  0  0  0  0  0  0  0  0  0  0
   59.4110   35.3370   45.7830 C   0  0  0  0  0  0  0  0  0  0  0  0
   59.4500   36.4214   45.6024 H   0  0  0  0  0  0  0  0  0  0  0  0
   58.4940   34.5480   45.0880 C   0  0  0  0  0  0  0  0  0  0  0  0
   57.8110   35.0127   44.3617 H   0  0  0  0  0  0  0  0  0  0  0  0
   58.4400   33.1700   45.3110 C   0  0  0  0  0  0  0  0  0  0  0  0
   57.7153   32.5550   44.7572 H   0  0  0  0  0  0  0  0  0  0  0  0
   59.3080   32.5620   46.2410 C   0  0  0  0  0  0  0  0  0  0  0  0
   59.2730   31.1690   46.4840 C   0  0  0  0  0  0  0  0  0  0  0  0
   58.3760   30.3900   45.8340 N   0  0  0  0  0  0  0  0  0  0  0  0
   58.3030   29.0460   45.9890 C   0  0  0  0  0  0  0  0  0  0  0  0
   57.3560   28.3160   45.2300 C   0  0  0  0  0  0  0  0  0  0  0  0
   56.3870   28.9810   44.3920 N   0  0  0  0  0  0  0  0  0  0  0  0
   56.6210   29.1610   43.1790 O   0  0  0  0  0  0  0  0  0  0  0  0
   55.1520   29.3360   44.8820 O   0  0  0  0  0  0  0  0  0  0  0  0
  1  2  1  0
  2  3  2  0
  3  4  1  0
  3  5  1  0
  5  6  1  0
  5  7  2  0
  7  8  1  0
  8  9  2  0
  9 10  1  0
 10 11  1  0
 10 12  1  0
 10 13  1  0
 13 14  1  0
 13 15  1  0
 13 16  1  0
 16 17  1  0
 16 18  1  0
 16 19  1  0
 19 20  1  0
 20 21  1  0
 20 22  1  0
 20 23  1  0
 19 24  1  0
 24 25  1  0
 24 26  1  0
 24 27  1  0
 27 28  1  0
 27 29  1  0
 27 30  1  0
  8 31  1  0
 31 32  2  0
 32 33  1  0
 32 34  1  0
 34 35  1  0
 34 36  2  0
 36 37  1  0
 37 38  1  0
 37 39  2  0
 39 40  1  0
 39 41  1  0
 41 42  1  0
 41 43  2  0
 43 44  1  0
 43 45  1  0
 45 46  2  0
 46 47  1  0
 47 48  1  0
 48 49  2  0
 49 50  1  0
 50 51  2  0
 50 52  1  0
 49  2  1  0
 48  7  1  0
 46 31  1  0
 45 36  1  0
M  CHG  3  47  -1  50   1  52  -1
M  END
>  <UniqueID>  (29) 
29

>  <SMILES>  (29) 
CCN(C)CCC/N=c1\c2cccc([N+](=O)[O-])c2[n-]c2c1ccc1ccccc12

>  <Energy>  (29) 
83.11675006048279

>  <Genealogy>  (29) 
CCN(C)CCCN=c1c2cccc([N+](=O)[O-])c2[n-]c2c1ccc1ccccc12 (protonated)
CCN(C)CCC/N=c1\c2cccc([N+](=O)[O-])c2[n-]c2c1ccc1ccccc12 (cis-trans isomerization)
CCN(C)CCC/N=c1\c2cccc([N+](=O)[O-])c2[n-]c2c1ccc1ccccc12 (3D coordinates assigned)
CCN(C)CCC/N=c1\c2cccc([N+](=O)[O-])c2[n-]c2c1ccc1ccccc12 (optimized conformer: 83.11675006048279 kcal/mol)

>  <smiles>  (29) 
CCN(C)CCCN=c1c2cccc([N+](=O)[O-])c2[nH]c2c1ccc1ccccc12

>  <score_type>  (29) 
oracle

>  <origin>  (29) 
adg

>  <m_score__min__energy>  (29) 
-9.6300000000000008

>  <m_primary>  (29) 
energy

$$$$
29:0
     RDKit          3D

 68 71  0  0  0  0  0  0  0  0999 V2000
   63.7440   33.4980   46.9050 C   0  0  0  0  0  0  0  0  0  0  0  0
   62.7540   34.1010   47.8890 C   0  0  0  0  0  0  0  0  0  0  0  0
   62.7260   33.3140   49.0630 O   0  0  0  0  0  0  0  0  0  0  0  0
   63.0360   31.9690   48.7560 C   0  0  0  0  0  0  0  0  0  0  0  0
   61.8230   31.2540   48.2200 C   0  0  0  0  0  0  0  0  0  0  0  0
   60.7520   30.9310   49.0670 C   0  0  0  0  0  0  0  0  0  0  0  0
   59.6560   30.2170   48.5760 C   0  0  0  0  0  0  0  0  0  0  0  0
   59.6330   29.7940   47.2400 C   0  0  0  0  0  0  0  0  0  0  0  0
   58.4670   29.0620   46.7220 C   0  0  0  0  0  0  0  0  0  0  0  0
   58.1600   27.7660   47.0730 C   0  0  0  0  0  0  0  0  0  0  0  0
   57.0240   27.4670   46.3430 C   0  0  0  0  0  0  0  0  0  0  0  0
   56.2520   26.2050   46.3310 C   0  0  0  0  0  0  0  0  0  0  0  0
   55.0390   26.2620   45.9950 O   0  0  0  0  0  0  0  0  0  0  0  0
   56.8220   24.8540   46.7260 C   0  0  0  0  0  0  0  0  0  0  0  0
   58.1680   24.5260   46.0340 C   0  0  0  0  0  0  0  0  0  0  0  0
   58.1500   23.1930   45.2670 C   0  0  0  0  0  0  0  0  0  0  0  0
   57.6460   22.0610   46.0860 N   0  0  0  0  0  0  0  0  0  0  0  0
   57.3920   20.8590   45.2550 C   0  0  0  0  0  0  0  0  0  0  0  0
   56.6710   21.1780   43.9370 C   0  0  0  0  0  0  0  0  0  0  0  0
   55.9400   20.0710   43.5380 F   0  0  0  0  0  0  0  0  0  0  0  0
   55.7940   22.2340   44.1000 F   0  0  0  0  0  0  0  0  0  0  0  0
   57.5930   21.4830   42.9510 F   0  0  0  0  0  0  0  0  0  0  0  0
   56.4570   22.3840   46.9260 C   0  0  0  0  0  0  0  0  0  0  0  0
   55.7950   23.7250   46.5810 C   0  0  0  0  0  0  0  0  0  0  0  0
   56.6830   28.5330   45.5930 N   0  0  0  0  0  0  0  0  0  0  0  0
   57.5560   29.5040   45.8200 N   0  0  0  0  0  0  0  0  0  0  0  0
   57.4250   30.8220   45.1780 C   0  0  0  0  0  0  0  0  0  0  0  0
   58.2330   30.9210   43.8720 C   0  0  0  0  0  0  0  0  0  0  0  0
   58.0060   32.2860   43.2040 C   0  0  0  0  0  0  0  0  0  0  0  0
   58.3500   33.4330   44.1650 C   0  0  0  0  0  0  0  0  0  0  0  0
   57.5570   33.3220   45.4740 C   0  0  0  0  0  0  0  0  0  0  0  0
   57.7890   31.9630   46.1430 C   0  0  0  0  0  0  0  0  0  0  0  0
   60.6840   30.1440   46.3830 C   0  0  0  0  0  0  0  0  0  0  0  0
   61.7820   30.8570   46.8740 C   0  0  0  0  0  0  0  0  0  0  0  0
   64.5559   33.0035   47.4584 H   0  0  0  0  0  0  0  0  0  0  0  0
   63.2289   32.7601   46.2724 H   0  0  0  0  0  0  0  0  0  0  0  0
   64.1633   34.2942   46.2724 H   0  0  0  0  0  0  0  0  0  0  0  0
   63.0638   35.1260   48.1407 H   0  0  0  0  0  0  0  0  0  0  0  0
   61.7517   34.1246   47.4365 H   0  0  0  0  0  0  0  0  0  0  0  0
   63.8334   31.9457   47.9986 H   0  0  0  0  0  0  0  0  0  0  0  0
   63.3685   31.4633   49.6745 H   0  0  0  0  0  0  0  0  0  0  0  0
   60.7754   31.2412   50.1221 H   0  0  0  0  0  0  0  0  0  0  0  0
   58.8094   29.9864   49.2394 H   0  0  0  0  0  0  0  0  0  0  0  0
   58.6982   27.1142   47.7769 H   0  0  0  0  0  0  0  0  0  0  0  0
   57.0574   24.9323   47.7977 H   0  0  0  0  0  0  0  0  0  0  0  0
   58.4016   25.3336   45.3246 H   0  0  0  0  0  0  0  0  0  0  0  0
   58.9270   24.4360   46.8250 H   0  0  0  0  0  0  0  0  0  0  0  0
   57.5017   23.3042   44.3854 H   0  0  0  0  0  0  0  0  0  0  0  0
   59.1876   22.9603   44.9857 H   0  0  0  0  0  0  0  0  0  0  0  0
   58.3568   20.3856   45.0204 H   0  0  0  0  0  0  0  0  0  0  0  0
   56.7359   20.1928   45.8344 H   0  0  0  0  0  0  0  0  0  0  0  0
   55.7119   21.5859   46.7924 H   0  0  0  0  0  0  0  0  0  0  0  0
   56.8123   22.4621   47.9641 H   0  0  0  0  0  0  0  0  0  0  0  0
   55.4258   23.6959   45.5452 H   0  0  0  0  0  0  0  0  0  0  0  0
   54.9529   23.9051   47.2654 H   0  0  0  0  0  0  0  0  0  0  0  0
   56.3640   30.9333   44.9099 H   0  0  0  0  0  0  0  0  0  0  0  0
   59.3029   30.8014   44.0978 H   0  0  0  0  0  0  0  0  0  0  0  0
   57.9006   30.1282   43.1857 H   0  0  0  0  0  0  0  0  0  0  0  0
   58.6449   32.3605   42.3117 H   0  0  0  0  0  0  0  0  0  0  0  0
   56.9448   32.3680   42.9261 H   0  0  0  0  0  0  0  0  0  0  0  0
   59.4254   33.3982   44.3937 H   0  0  0  0  0  0  0  0  0  0  0  0
   58.0855   34.3837   43.6789 H   0  0  0  0  0  0  0  0  0  0  0  0
   57.8798   34.1199   46.1589 H   0  0  0  0  0  0  0  0  0  0  0  0
   56.4858   33.4213   45.2443 H   0  0  0  0  0  0  0  0  0  0  0  0
   58.8482   31.8744   46.4261 H   0  0  0  0  0  0  0  0  0  0  0  0
   57.1519   31.8916   47.0369 H   0  0  0  0  0  0  0  0  0  0  0  0
   60.6456   29.8574   45.3217 H   0  0  0  0  0  0  0  0  0  0  0  0
   62.6169   31.1078   46.2031 H   0  0  0  0  0  0  0  0  0  0  0  0
  1  2  1  0
  2  3  1  0
  3  4  1  0
  4  5  1  0
  5  6  2  0
  6  7  1  0
  7  8  2  0
  8  9  1  0
  9 10  2  0
 10 11  1  0
 11 12  1  0
 12 13  2  0
 12 14  1  0
 14 15  1  0
 15 16  1  0
 16 17  1  0
 17 18  1  0
 18 19  1  0
 19 20  1  0
 19 21  1  0
 19 22  1  0
 17 23  1  0
 23 24  1  0
 11 25  2  0
 25 26  1  0
 26 27  1  0
 27 28  1  0
 28 29  1  0
 29 30  1  0
 30 31  1  0
 31 32  1  0
  8 33  1  0
 33 34  2  0
 34  5  1  0
 26  9  1  0
 32 27  1  0
 24 14  1  0
  1 35  1  0
  1 36  1  0
  1 37  1  0
  2 38  1  0
  2 39  1  0
  4 40  1  0
  4 41  1  0
  6 42  1  0
  7 43  1  0
 10 44  1  0
 14 45  1  0
 15 46  1  0
 15 47  1  0
 16 48  1  0
 16 49  1  0
 18 50  1  0
 18 51  1  0
 23 52  1  0
 23 53  1  0
 24 54  1  0
 24 55  1  0
 27 56  1  0
 28 57  1  0
 28 58  1  0
 29 59  1  0
 29 60  1  0
 30 61  1  0
 30 62  1  0
 31 63  1  0
 31 64  1  0
 32 65  1  0
 32 66  1  0
 33 67  1  0
 34 68  1  0
M  END
>  <UniqueID>  (30) 
30

>  <SMILES>  (30) 
CCOCc1ccc(-c2cc(C(=O)C3CCN(CC(F)(F)F)CC3)nn2C2CCCCC2)cc1

>  <Energy>  (30) 
110.93844752427366

>  <Genealogy>  (30) 
CCOCc1ccc(-c2cc(C(=O)C3CCN(CC(F)(F)F)CC3)nn2C2CCCCC2)cc1 (3D coordinates assigned)
CCOCc1ccc(-c2cc(C(=O)C3CCN(CC(F)(F)F)CC3)nn2C2CCCCC2)cc1 (nonaromatic ring conformer: 110.93844752427366 kcal/mol)

>  <smiles>  (30) 
CCOCc1ccc(-c2cc(C(=O)C3CCN(CC(F)(F)F)CC3)nn2C2CCCCC2)cc1

>  <score_type>  (30) 
oracle

>  <origin>  (30) 
adg

>  <m_score__min__energy>  (30) 
-9.1099999999999994

>  <m_primary>  (30) 
energy

$$$$
30:0
     RDKit          3D

 25 26  0  0  0  0  0  0  0  0999 V2000
   57.7680   32.3230   42.8720 C   0  0  0  0  0  0  0  0  0  0  0  0
   58.0310   31.8490   44.2300 N   0  0  0  0  0  0  0  0  0  0  0  0
   57.6180   30.6900   44.8150 C   0  0  0  0  0  0  0  0  0  0  0  0
   56.7070   29.4230   43.9990 S   0  0  0  0  0  0  0  0  0  0  0  0
   57.7550   28.0170   43.6900 C   0  0  0  0  0  0  0  0  0  0  0  0
   55.5310   29.0160   44.8410 O   0  0  0  0  0  0  0  0  0  0  0  0
   56.2030   29.9440   42.6820 O   0  0  0  0  0  0  0  0  0  0  0  0
   57.9520   30.6210   46.1270 N   0  0  0  0  0  0  0  0  0  0  0  0
   58.5770   31.7820   46.3730 C   0  0  0  0  0  0  0  0  0  0  0  0
   59.0980   32.2410   47.5810 C   0  0  0  0  0  0  0  0  0  0  0  0
   59.6810   33.5220   47.5970 C   0  0  0  0  0  0  0  0  0  0  0  0
   60.4130   34.2100   49.2200 Br  0  0  0  0  0  0  0  0  0  0  0  0
   59.7210   34.3040   46.4200 C   0  0  0  0  0  0  0  0  0  0  0  0
   59.1810   33.8130   45.2160 C   0  0  0  0  0  0  0  0  0  0  0  0
   58.6200   32.5340   45.2320 C   0  0  0  0  0  0  0  0  0  0  0  0
   57.2347   33.2841   42.9159 H   0  0  0  0  0  0  0  0  0  0  0  0
   58.7211   32.4565   42.3392 H   0  0  0  0  0  0  0  0  0  0  0  0
   57.1503   31.5850   42.3392 H   0  0  0  0  0  0  0  0  0  0  0  0
   58.0784   27.5832   44.6477 H   0  0  0  0  0  0  0  0  0  0  0  0
   57.1969   27.2629   43.1157 H   0  0  0  0  0  0  0  0  0  0  0  0
   58.6371   28.3364   43.1157 H   0  0  0  0  0  0  0  0  0  0  0  0
   57.7450   29.8520   46.8030 H   0  0  0  0  0  0  0  0  0  0  0  0
   59.0552   31.6238   48.4905 H   0  0  0  0  0  0  0  0  0  0  0  0
   60.1778   35.3044   46.4450 H   0  0  0  0  0  0  0  0  0  0  0  0
   59.2002   34.4151   44.2956 H   0  0  0  0  0  0  0  0  0  0  0  0
  1  2  1  0
  2  3  1  0
  3  4  1  0
  4  5  1  0
  4  6  2  0
  4  7  2  0
  3  8  2  0
  8  9  1  0
  9 10  2  0
 10 11  1  0
 11 12  1  0
 11 13  2  0
 13 14  1  0
 14 15  2  0
 15  2  1  0
 15  9  1  0
  1 16  1  0
  1 17  1  0
  1 18  1  0
  5 19  1  0
  5 20  1  0
  5 21  1  0
  8 22  1  0
 10 23  1  0
 13 24  1  0
 14 25  1  0
M  CHG  1   8   1
M  END
>  <UniqueID>  (31) 
31

>  <SMILES>  (31) 
Cn1c(S(C)(=O)=O)[nH+]c2cc(Br)ccc21

>  <Energy>  (31) 
61.03704309280223

>  <Genealogy>  (31) 
Cn1c(S(C)(=O)=O)[nH+]c2cc(Br)ccc21 (protonated)
Cn1c(S(C)(=O)=O)[nH+]c2cc(Br)ccc21 (3D coordinates assigned)
Cn1c(S(C)(=O)=O)[nH+]c2cc(Br)ccc21 (optimized conformer: 61.03704309280223 kcal/mol)

>  <smiles>  (31) 
Cn1c(S(C)(=O)=O)nc2cc(Br)ccc21

>  <score_type>  (31) 
oracle

>  <origin>  (31) 
adg

>  <m_score__min__energy>  (31) 
-5.0300000000000002

>  <m_primary>  (31) 
energy

$$$$
31:0
     RDKit          3D

 51 52  0  0  0  0  0  0  0  0999 V2000
   59.6070   27.0180   47.6390 C   0  0  0  0  0  0  0  0  0  0  0  0
   59.4410   28.5330   47.7570 C   0  0  0  0  0  0  0  0  0  0  0  0
   58.9160   29.1270   46.5050 N   0  0  0  0  0  0  0  0  0  0  0  0
   60.0160   29.7740   45.7500 C   0  0  0  0  0  0  0  0  0  0  0  0
   60.7680   28.7540   44.8970 C   0  0  0  0  0  0  0  0  0  0  0  0
   58.2010   28.1210   45.6720 C   0  0  0  0  0  0  0  0  0  0  0  0
   57.1600   28.8010   44.7770 C   0  0  0  0  0  0  0  0  0  0  0  0
   56.7550   30.0860   45.3570 N   0  0  0  0  0  0  0  0  0  0  0  0
   56.8960   31.1730   44.3840 C   0  0  0  0  0  0  0  0  0  0  0  0
   57.6320   32.3150   45.0260 C   0  0  0  0  0  0  0  0  0  0  0  0
   58.0190   33.4340   44.2740 C   0  0  0  0  0  0  0  0  0  0  0  0
   58.6460   34.5150   44.8960 C   0  0  0  0  0  0  0  0  0  0  0  0
   58.8740   34.4950   46.2750 C   0  0  0  0  0  0  0  0  0  0  0  0
   58.4770   33.3960   47.0460 C   0  0  0  0  0  0  0  0  0  0  0  0
   58.7010   33.4390   48.4320 O   0  0  0  0  0  0  0  0  0  0  0  0
   59.9210   33.8430   49.0580 C   0  0  0  0  0  0  0  0  0  0  0  0
   61.1080   33.1900   48.3990 C   0  0  0  0  0  0  0  0  0  0  0  0
   61.4420   31.8600   48.7050 C   0  0  0  0  0  0  0  0  0  0  0  0
   62.5520   31.2560   48.1070 C   0  0  0  0  0  0  0  0  0  0  0  0
   63.3410   31.9780   47.2070 C   0  0  0  0  0  0  0  0  0  0  0  0
   63.0210   33.3030   46.9020 C   0  0  0  0  0  0  0  0  0  0  0  0
   63.7840   34.0000   46.0230 F   0  0  0  0  0  0  0  0  0  0  0  0
   61.9120   33.9110   47.4990 C   0  0  0  0  0  0  0  0  0  0  0  0
   57.8650   32.2990   46.4110 C   0  0  0  0  0  0  0  0  0  0  0  0
   59.6555   26.5750   48.6447 H   0  0  0  0  0  0  0  0  0  0  0  0
   58.7497   26.5966   47.0937 H   0  0  0  0  0  0  0  0  0  0  0  0
   60.5353   26.7922   47.0937 H   0  0  0  0  0  0  0  0  0  0  0  0
   58.7405   28.7519   48.5763 H   0  0  0  0  0  0  0  0  0  0  0  0
   60.4301   28.9715   47.9556 H   0  0  0  0  0  0  0  0  0  0  0  0
   59.5944   30.5502   45.0944 H   0  0  0  0  0  0  0  0  0  0  0  0
   60.7208   30.2177   46.4686 H   0  0  0  0  0  0  0  0  0  0  0  0
   61.2922   28.0430   45.5526 H   0  0  0  0  0  0  0  0  0  0  0  0
   60.0538   28.2093   44.2621 H   0  0  0  0  0  0  0  0  0  0  0  0
   61.4996   29.2752   44.2621 H   0  0  0  0  0  0  0  0  0  0  0  0
   58.9296   27.5915   45.0405 H   0  0  0  0  0  0  0  0  0  0  0  0
   57.6865   27.4120   46.3374 H   0  0  0  0  0  0  0  0  0  0  0  0
   57.5939   28.9726   43.7808 H   0  0  0  0  0  0  0  0  0  0  0  0
   56.2771   28.1501   44.6951 H   0  0  0  0  0  0  0  0  0  0  0  0
   55.7400   30.0190   45.6080 H   0  0  0  0  0  0  0  0  0  0  0  0
   57.4612   30.8149   43.5109 H   0  0  0  0  0  0  0  0  0  0  0  0
   55.9009   31.5099   44.0579 H   0  0  0  0  0  0  0  0  0  0  0  0
   57.8279   33.4598   43.1910 H   0  0  0  0  0  0  0  0  0  0  0  0
   58.9612   35.3841   44.2999 H   0  0  0  0  0  0  0  0  0  0  0  0
   59.3695   35.3499   46.7584 H   0  0  0  0  0  0  0  0  0  0  0  0
   60.0214   34.9355   48.9786 H   0  0  0  0  0  0  0  0  0  0  0  0
   59.8923   33.5343   50.1134 H   0  0  0  0  0  0  0  0  0  0  0  0
   60.8273   31.2914   49.4183 H   0  0  0  0  0  0  0  0  0  0  0  0
   62.8046   30.2121   48.3448 H   0  0  0  0  0  0  0  0  0  0  0  0
   64.2150   31.5021   46.7383 H   0  0  0  0  0  0  0  0  0  0  0  0
   61.6679   34.9574   47.2634 H   0  0  0  0  0  0  0  0  0  0  0  0
   57.5668   31.4220   47.0043 H   0  0  0  0  0  0  0  0  0  0  0  0
  1  2  1  0
  2  3  1  0
  3  4  1  0
  4  5  1  0
  3  6  1  0
  6  7  1  0
  7  8  1  0
  8  9  1  0
  9 10  1  0
 10 11  2  0
 11 12  1  0
 12 13  2  0
 13 14  1  0
 14 15  1  0
 15 16  1  0
 16 17  1  0
 17 18  2  0
 18 19  1  0
 19 20  2  0
 20 21  1  0
 21 22  1  0
 21 23  2  0
 14 24  2  0
 24 10  1  0
 23 17  1  0
  1 25  1  0
  1 26  1  0
  1 27  1  0
  2 28  1  0
  2 29  1  0
  4 30  1  0
  4 31  1  0
  5 32  1  0
  5 33  1  0
  5 34  1  0
  6 35  1  0
  6 36  1  0
  7 37  1  0
  7 38  1  0
  8 39  1  0
  9 40  1  0
  9 41  1  0
 11 42  1  0
 12 43  1  0
 13 44  1  0
 16 45  1  0
 16 46  1  0
 18 47  1  0
 19 48  1  0
 20 49  1  0
 23 50  1  0
 24 51  1  0
M  END
>  <UniqueID>  (32) 
32

>  <SMILES>  (32) 
CCN(CC)CCNCc1cccc(OCc2cccc(F)c2)c1

>  <Energy>  (32) 
43.95670223303974

>  <Genealogy>  (32) 
CCN(CC)CCNCc1cccc(OCc2cccc(F)c2)c1 (3D coordinates assigned)
CCN(CC)CCNCc1cccc(OCc2cccc(F)c2)c1 (optimized conformer: 43.95670223303974 kcal/mol)

>  <smiles>  (32) 
CCN(CC)CCNCc1cccc(OCc2cccc(F)c2)c1

>  <score_type>  (32) 
oracle

>  <origin>  (32) 
adg

>  <m_score__min__energy>  (32) 
-7.04

>  <m_primary>  (32) 
energy

$$$$
32:0
     RDKit          3D

 42 43  0  0  0  0  0  0  0  0999 V2000
   60.7830   28.9380   45.0630 C   0  0  0  0  0  0  0  0  0  0  0  0
   60.6280   29.7500   46.3490 C   0  0  0  0  0  0  0  0  0  0  0  0
   59.5610   30.7590   46.2120 N   0  0  0  0  0  0  0  0  0  0  0  0
   58.3360   30.2980   45.5700 C   0  0  0  0  0  0  0  0  0  0  0  0
   57.7160   29.0720   45.9240 C   0  0  0  0  0  0  0  0  0  0  0  0
   56.5440   28.6330   45.2830 C   0  0  0  0  0  0  0  0  0  0  0  0
   55.8910   27.4410   45.6340 O   0  0  0  0  0  0  0  0  0  0  0  0
   56.5530   26.2290   45.9790 C   0  0  0  0  0  0  0  0  0  0  0  0
   55.9990   29.4000   44.2570 C   0  0  0  0  0  0  0  0  0  0  0  0
   56.6050   30.5890   43.8650 C   0  0  0  0  0  0  0  0  0  0  0  0
   57.7670   31.0530   44.5040 C   0  0  0  0  0  0  0  0  0  0  0  0
   58.3380   32.3730   44.0260 C   0  0  0  0  0  0  0  0  0  0  0  0
   57.4310   33.4880   44.3500 N   0  0  0  0  0  0  0  0  0  0  0  0
   58.1030   34.5830   45.0710 C   0  0  0  0  0  0  0  0  0  0  0  0
   58.8700   34.0680   46.2640 C   0  0  0  0  0  0  0  0  0  0  0  0
   60.2490   34.3050   46.3870 C   0  0  0  0  0  0  0  0  0  0  0  0
   60.9390   33.8470   47.5100 C   0  0  0  0  0  0  0  0  0  0  0  0
   60.2510   33.1320   48.4910 C   0  0  0  0  0  0  0  0  0  0  0  0
   58.9230   32.8770   48.3420 N   0  0  0  0  0  0  0  0  0  0  0  0
   58.2280   33.3160   47.2600 C   0  0  0  0  0  0  0  0  0  0  0  0
   60.9838   27.8863   45.3154 H   0  0  0  0  0  0  0  0  0  0  0  0
   59.8562   29.0033   44.4742 H   0  0  0  0  0  0  0  0  0  0  0  0
   61.6206   29.3401   44.4742 H   0  0  0  0  0  0  0  0  0  0  0  0
   60.3756   29.0697   47.1757 H   0  0  0  0  0  0  0  0  0  0  0  0
   61.5765   30.2686   46.5523 H   0  0  0  0  0  0  0  0  0  0  0  0
   59.3250   31.0780   47.1780 H   0  0  0  0  0  0  0  0  0  0  0  0
   59.9310   31.5710   45.6660 H   0  0  0  0  0  0  0  0  0  0  0  0
   58.1613   28.4521   46.7162 H   0  0  0  0  0  0  0  0  0  0  0  0
   56.6030   26.1374   47.0740 H   0  0  0  0  0  0  0  0  0  0  0  0
   55.9955   25.3760   45.5648 H   0  0  0  0  0  0  0  0  0  0  0  0
   57.5720   26.2370   45.5648 H   0  0  0  0  0  0  0  0  0  0  0  0
   55.0816   29.0630   43.7522 H   0  0  0  0  0  0  0  0  0  0  0  0
   56.1681   31.1746   43.0427 H   0  0  0  0  0  0  0  0  0  0  0  0
   59.3079   32.5441   44.5160 H   0  0  0  0  0  0  0  0  0  0  0  0
   58.4612   32.3270   42.9339 H   0  0  0  0  0  0  0  0  0  0  0  0
   57.0880   33.8800   43.4420 H   0  0  0  0  0  0  0  0  0  0  0  0
   58.8017   35.0863   44.3865 H   0  0  0  0  0  0  0  0  0  0  0  0
   57.3348   35.2838   45.4298 H   0  0  0  0  0  0  0  0  0  0  0  0
   60.7853   34.8520   45.5976 H   0  0  0  0  0  0  0  0  0  0  0  0
   62.0148   34.0477   47.6208 H   0  0  0  0  0  0  0  0  0  0  0  0
   60.7826   32.7744   49.3852 H   0  0  0  0  0  0  0  0  0  0  0  0
   57.1577   33.0810   47.1643 H   0  0  0  0  0  0  0  0  0  0  0  0
  1  2  1  0
  2  3  1  0
  3  4  1  0
  4  5  2  0
  5  6  1  0
  6  7  1  0
  7  8  1  0
  6  9  2  0
  9 10  1  0
 10 11  2  0
 11 12  1  0
 12 13  1  0
 13 14  1  0
 14 15  1  0
 15 16  2  0
 16 17  1  0
 17 18  2  0
 18 19  1  0
 19 20  2  0
 11  4  1  0
 20 15  1  0
  1 21  1  0
  1 22  1  0
  1 23  1  0
  2 24  1  0
  2 25  1  0
  3 26  1  0
  3 27  1  0
  5 28  1  0
  8 29  1  0
  8 30  1  0
  8 31  1  0
  9 32  1  0
 10 33  1  0
 12 34  1  0
 12 35  1  0
 13 36  1  0
 14 37  1  0
 14 38  1  0
 16 39  1  0
 17 40  1  0
 18 41  1  0
 20 42  1  0
M  CHG  1   3   1
M  END
>  <UniqueID>  (33) 
33

>  <SMILES>  (33) 
CC[NH2+]c1cc(OC)ccc1CNCc1cccnc1

>  <Energy>  (33) 
44.70211265104392

>  <Genealogy>  (33) 
CC[NH2+]c1cc(OC)ccc1CNCc1cccnc1 (protonated)
CC[NH2+]c1cc(OC)ccc1CNCc1cccnc1 (3D coordinates assigned)
CC[NH2+]c1cc(OC)ccc1CNCc1cccnc1 (optimized conformer: 44.70211265104392 kcal/mol)

>  <smiles>  (33) 
CCNc1cc(OC)ccc1CNCc1cccnc1

>  <score_type>  (33) 
oracle

>  <origin>  (33) 
adg

>  <m_score__min__energy>  (33) 
-4.6200000000000001

>  <m_primary>  (33) 
energy

$$$$
33:0
     RDKit          3D

 56 58  0  0  0  0  0  0  0  0999 V2000
   54.6130   24.8780   45.5920 C   0  0  0  0  0  0  0  0  0  0  0  0
   55.1080   26.1380   45.9930 O   0  0  0  0  0  0  0  0  0  0  0  0
   56.4880   26.0540   46.2940 C   0  0  0  0  0  0  0  0  0  0  0  0
   57.3010   26.8450   45.2650 C   0  0  0  0  0  0  0  0  0  0  0  0
   58.0290   27.9450   45.9170 N   0  0  0  0  0  0  0  0  0  0  0  0
   59.0400   27.6450   46.9400 C   0  0  0  0  0  0  0  0  0  0  0  0
   60.3290   28.3940   46.6150 C   0  0  0  0  0  0  0  0  0  0  0  0
   60.0660   29.8390   46.5010 N   0  0  0  0  0  0  0  0  0  0  0  0
   60.9270   30.7880   47.2310 C   0  0  0  0  0  0  0  0  0  0  0  0
   60.1600   31.6660   48.1940 C   0  0  0  0  0  0  0  0  0  0  0  0
   60.0940   33.0630   48.2870 C   0  0  0  0  0  0  0  0  0  0  0  0
   60.7370   34.1240   47.4230 C   0  0  0  0  0  0  0  0  0  0  0  0
   59.7590   34.6450   46.3690 C   0  0  0  0  0  0  0  0  0  0  0  0
   62.0700   33.6860   46.8070 C   0  0  0  0  0  0  0  0  0  0  0  0
   59.2640   33.3980   49.2960 N   0  0  0  0  0  0  0  0  0  0  0  0
   58.8190   32.2870   49.8570 N   0  0  0  0  0  0  0  0  0  0  0  0
   57.8900   32.2760   50.9810 C   0  0  0  0  0  0  0  0  0  0  0  0
   59.3360   31.2170   49.2200 C   0  0  0  0  0  0  0  0  0  0  0  0
   59.0760   29.7830   49.5860 C   0  0  0  0  0  0  0  0  0  0  0  0
   58.8450   30.2700   45.8530 C   0  0  0  0  0  0  0  0  0  0  0  0
   58.6560   31.5750   45.5270 N   0  0  0  0  0  0  0  0  0  0  0  0
   57.5280   32.0000   44.9060 C   0  0  0  0  0  0  0  0  0  0  0  0
   57.3840   33.4370   44.5320 C   0  0  0  0  0  0  0  0  0  0  0  0
   56.5600   31.1060   44.5770 N   0  0  0  0  0  0  0  0  0  0  0  0
   56.6910   29.7890   44.8820 C   0  0  0  0  0  0  0  0  0  0  0  0
   57.8450   29.3290   45.5400 C   0  0  0  0  0  0  0  0  0  0  0  0
   54.3767   24.2766   46.4822 H   0  0  0  0  0  0  0  0  0  0  0  0
   53.7023   25.0163   44.9907 H   0  0  0  0  0  0  0  0  0  0  0  0
   55.3742   24.3594   44.9907 H   0  0  0  0  0  0  0  0  0  0  0  0
   56.6675   26.4695   47.2965 H   0  0  0  0  0  0  0  0  0  0  0  0
   56.7991   24.9993   46.2644 H   0  0  0  0  0  0  0  0  0  0  0  0
   58.0224   26.1717   44.7790 H   0  0  0  0  0  0  0  0  0  0  0  0
   56.6132   27.2678   44.5179 H   0  0  0  0  0  0  0  0  0  0  0  0
   58.6698   27.9627   47.9259 H   0  0  0  0  0  0  0  0  0  0  0  0
   59.2378   26.5630   46.9543 H   0  0  0  0  0  0  0  0  0  0  0  0
   61.0615   28.2207   47.4172 H   0  0  0  0  0  0  0  0  0  0  0  0
   60.7249   28.0258   45.6571 H   0  0  0  0  0  0  0  0  0  0  0  0
   61.6753   30.2159   47.7991 H   0  0  0  0  0  0  0  0  0  0  0  0
   61.3926   31.4487   46.4849 H   0  0  0  0  0  0  0  0  0  0  0  0
   60.9885   34.9589   48.0936 H   0  0  0  0  0  0  0  0  0  0  0  0
   58.8937   35.1060   46.8678 H   0  0  0  0  0  0  0  0  0  0  0  0
   60.2622   35.3946   45.7406 H   0  0  0  0  0  0  0  0  0  0  0  0
   59.4177   33.8092   45.7406 H   0  0  0  0  0  0  0  0  0  0  0  0
   62.7850   33.4511   47.6092 H   0  0  0  0  0  0  0  0  0  0  0  0
   61.9106   32.7930   46.1848 H   0  0  0  0  0  0  0  0  0  0  0  0
   62.4713   34.4995   46.1848 H   0  0  0  0  0  0  0  0  0  0  0  0
   58.4557   32.2827   51.9243 H   0  0  0  0  0  0  0  0  0  0  0  0
   57.2461   33.1666   50.9333 H   0  0  0  0  0  0  0  0  0  0  0  0
   57.2674   31.3704   50.9333 H   0  0  0  0  0  0  0  0  0  0  0  0
   59.0576   29.6816   50.6812 H   0  0  0  0  0  0  0  0  0  0  0  0
   58.1063   29.4690   49.1724 H   0  0  0  0  0  0  0  0  0  0  0  0
   59.8738   29.1486   49.1724 H   0  0  0  0  0  0  0  0  0  0  0  0
   57.3227   34.0489   45.4441 H   0  0  0  0  0  0  0  0  0  0  0  0
   58.2552   33.7504   43.9381 H   0  0  0  0  0  0  0  0  0  0  0  0
   56.4679   33.5713   43.9381 H   0  0  0  0  0  0  0  0  0  0  0  0
   55.8929   29.0812   44.6137 H   0  0  0  0  0  0  0  0  0  0  0  0
  1  2  1  0
  2  3  1  0
  3  4  1  0
  4  5  1  0
  5  6  1  0
  6  7  1  0
  7  8  1  0
  8  9  1  0
  9 10  1  0
 10 11  1  0
 11 12  1  0
 12 13  1  0
 12 14  1  0
 11 15  2  0
 15 16  1  0
 16 17  1  0
 16 18  1  0
 18 19  1  0
  8 20  1  0
 20 21  2  0
 21 22  1  0
 22 23  1  0
 22 24  2  0
 24 25  1  0
 25 26  2  0
 26  5  1  0
 18 10  2  0
 26 20  1  0
  1 27  1  0
  1 28  1  0
  1 29  1  0
  3 30  1  0
  3 31  1  0
  4 32  1  0
  4 33  1  0
  6 34  1  0
  6 35  1  0
  7 36  1  0
  7 37  1  0
  9 38  1  0
  9 39  1  0
 12 40  1  0
 13 41  1  0
 13 42  1  0
 13 43  1  0
 14 44  1  0
 14 45  1  0
 14 46  1  0
 17 47  1  0
 17 48  1  0
 17 49  1  0
 19 50  1  0
 19 51  1  0
 19 52  1  0
 23 53  1  0
 23 54  1  0
 23 55  1  0
 25 56  1  0
M  END
>  <UniqueID>  (34) 
34

>  <SMILES>  (34) 
COCCN1CCN(Cc2c(C(C)C)nn(C)c2C)c2nc(C)ncc21

>  <Energy>  (34) 
82.20290224339513

>  <Genealogy>  (34) 
COCCN1CCN(Cc2c(C(C)C)nn(C)c2C)c2nc(C)ncc21 (3D coordinates assigned)
COCCN1CCN(Cc2c(C(C)C)nn(C)c2C)c2nc(C)ncc21 (nonaromatic ring conformer: 82.20290224339513 kcal/mol)

>  <smiles>  (34) 
COCCN1CCN(Cc2c(C(C)C)nn(C)c2C)c2nc(C)ncc21

>  <score_type>  (34) 
oracle

>  <origin>  (34) 
adg

>  <m_score__min__energy>  (34) 
-7.79

>  <m_primary>  (34) 
energy

$$$$
34:0
     RDKit          3D

 75 79  0  0  0  0  0  0  0  0999 V2000
   59.4890   33.5580   49.5520 C   0  0  0  0  0  0  0  0  0  0  0  0
   58.5260   32.3630   49.5720 C   0  0  0  0  0  0  0  0  0  0  0  0
   58.8280   31.4170   50.6810 N   0  0  0  0  0  0  0  0  0  0  0  0
   57.5680   30.9550   51.3240 C   0  0  0  0  0  0  0  0  0  0  0  0
   57.0150   31.9760   52.3240 C   0  0  0  0  0  0  0  0  0  0  0  0
   59.7110   32.0720   51.6870 C   0  0  0  0  0  0  0  0  0  0  0  0
   60.9680   31.2320   51.9900 C   0  0  0  0  0  0  0  0  0  0  0  0
   61.9810   31.2620   50.8400 C   0  0  0  0  0  0  0  0  0  0  0  0
   61.3120   30.9350   49.5720 N   0  0  0  0  0  0  0  0  0  0  0  0
   61.9760   31.5230   48.3950 C   0  0  0  0  0  0  0  0  0  0  0  0
   61.5320   30.8070   47.1020 C   0  0  0  0  0  0  0  0  0  0  0  0
   60.1250   31.0810   46.7570 N   0  0  0  0  0  0  0  0  0  0  0  0
   59.1320   30.1810   46.4740 C   0  0  0  0  0  0  0  0  0  0  0  0
   58.0590   30.8200   45.8740 C   0  0  0  0  0  0  0  0  0  0  0  0
   58.3760   32.1580   45.8310 C   0  0  0  0  0  0  0  0  0  0  0  0
   57.7050   33.2290   45.2380 C   0  0  0  0  0  0  0  0  0  0  0  0
   58.3480   34.4770   45.2120 C   0  0  0  0  0  0  0  0  0  0  0  0
   59.6520   34.6140   45.7300 C   0  0  0  0  0  0  0  0  0  0  0  0
   60.3170   33.5100   46.2890 C   0  0  0  0  0  0  0  0  0  0  0  0
   59.6390   32.2850   46.3590 C   0  0  0  0  0  0  0  0  0  0  0  0
   57.0800   30.0840   45.0120 C   0  0  0  0  0  0  0  0  0  0  0  0
   57.8440   28.9710   44.2760 C   0  0  0  0  0  0  0  0  0  0  0  0
   58.5120   28.0730   45.2490 N   0  0  0  0  0  0  0  0  0  0  0  0
   59.2500   28.6990   46.3410 C   0  0  0  0  0  0  0  0  0  0  0  0
   59.8460   27.9190   47.2720 C   0  0  0  0  0  0  0  0  0  0  0  0
   60.0340   28.3410   48.6780 C   0  0  0  0  0  0  0  0  0  0  0  0
   59.2320   29.1590   49.2040 O   0  0  0  0  0  0  0  0  0  0  0  0
   61.0320   27.7370   49.4510 O   0  0  0  0  0  0  0  0  0  0  0  0
   61.0150   27.7320   50.8720 C   0  0  0  0  0  0  0  0  0  0  0  0
   60.2680   26.5210   46.8910 C   0  0  0  0  0  0  0  0  0  0  0  0
   59.2540   25.8460   46.0150 C   0  0  0  0  0  0  0  0  0  0  0  0
   59.1950   24.4440   45.9810 C   0  0  0  0  0  0  0  0  0  0  0  0
   58.2650   23.7990   45.1690 C   0  0  0  0  0  0  0  0  0  0  0  0
   57.3880   24.5480   44.3890 C   0  0  0  0  0  0  0  0  0  0  0  0
   57.4500   25.9440   44.3980 C   0  0  0  0  0  0  0  0  0  0  0  0
   58.4070   26.6210   45.1920 C   0  0  0  0  0  0  0  0  0  0  0  0
   59.7275   33.8540   50.5842 H   0  0  0  0  0  0  0  0  0  0  0  0
   60.4141   33.2747   49.0287 H   0  0  0  0  0  0  0  0  0  0  0  0
   59.0155   34.4018   49.0287 H   0  0  0  0  0  0  0  0  0  0  0  0
   57.4991   32.7374   49.6953 H   0  0  0  0  0  0  0  0  0  0  0  0
   58.6421   31.8193   48.6228 H   0  0  0  0  0  0  0  0  0  0  0  0
   59.3300   30.5850   50.2860 H   0  0  0  0  0  0  0  0  0  0  0  0
   56.8144   30.7829   50.5414 H   0  0  0  0  0  0  0  0  0  0  0  0
   57.7925   30.0310   51.8770 H   0  0  0  0  0  0  0  0  0  0  0  0
   57.2050   31.6252   53.3491 H   0  0  0  0  0  0  0  0  0  0  0  0
   57.5113   32.9456   52.1704 H   0  0  0  0  0  0  0  0  0  0  0  0
   55.9318   32.0901   52.1704 H   0  0  0  0  0  0  0  0  0  0  0  0
   60.0246   33.0523   51.2989 H   0  0  0  0  0  0  0  0  0  0  0  0
   59.1403   32.1767   52.6215 H   0  0  0  0  0  0  0  0  0  0  0  0
   61.4493   31.6301   52.8954 H   0  0  0  0  0  0  0  0  0  0  0  0
   60.6490   30.1885   52.1293 H   0  0  0  0  0  0  0  0  0  0  0  0
   62.4231   32.2668   50.7701 H   0  0  0  0  0  0  0  0  0  0  0  0
   62.7697   30.5201   51.0340 H   0  0  0  0  0  0  0  0  0  0  0  0
   61.3120   29.8950   49.4680 H   0  0  0  0  0  0  0  0  0  0  0  0
   61.7117   32.5886   48.3264 H   0  0  0  0  0  0  0  0  0  0  0  0
   63.0639   31.4054   48.5079 H   0  0  0  0  0  0  0  0  0  0  0  0
   62.1706   31.1475   46.2736 H   0  0  0  0  0  0  0  0  0  0  0  0
   61.6291   29.7243   47.2704 H   0  0  0  0  0  0  0  0  0  0  0  0
   56.7026   33.0991   44.8041 H   0  0  0  0  0  0  0  0  0  0  0  0
   57.8326   35.3505   44.7861 H   0  0  0  0  0  0  0  0  0  0  0  0
   60.1526   35.5929   45.6962 H   0  0  0  0  0  0  0  0  0  0  0  0
   61.3469   33.6047   46.6635 H   0  0  0  0  0  0  0  0  0  0  0  0
   56.2885   29.6443   45.6366 H   0  0  0  0  0  0  0  0  0  0  0  0
   56.6123   30.7701   44.2906 H   0  0  0  0  0  0  0  0  0  0  0  0
   57.1371   28.3863   43.6690 H   0  0  0  0  0  0  0  0  0  0  0  0
   58.6076   29.4289   43.6300 H   0  0  0  0  0  0  0  0  0  0  0  0
   62.0055   28.0232   51.2516 H   0  0  0  0  0  0  0  0  0  0  0  0
   60.2598   28.4461   51.2322 H   0  0  0  0  0  0  0  0  0  0  0  0
   60.7665   26.7228   51.2322 H   0  0  0  0  0  0  0  0  0  0  0  0
   61.2248   26.5738   46.3508 H   0  0  0  0  0  0  0  0  0  0  0  0
   60.3642   25.9318   47.8149 H   0  0  0  0  0  0  0  0  0  0  0  0
   59.8864   23.8519   46.5985 H   0  0  0  0  0  0  0  0  0  0  0  0
   58.2235   22.7001   45.1441 H   0  0  0  0  0  0  0  0  0  0  0  0
   56.6419   24.0379   43.7620 H   0  0  0  0  0  0  0  0  0  0  0  0
   56.7473   26.5235   43.7812 H   0  0  0  0  0  0  0  0  0  0  0  0
  1  2  1  0
  2  3  1  0
  3  4  1  0
  4  5  1  0
  3  6  1  0
  6  7  1  0
  7  8  1  0
  8  9  1  0
  9 10  1  0
 10 11  1  0
 11 12  1  0
 12 13  1  0
 13 14  2  0
 14 15  1  0
 15 16  2  0
 16 17  1  0
 17 18  2  0
 18 19  1  0
 19 20  2  0
 14 21  1  0
 21 22  1  0
 22 23  1  0
 23 24  1  0
 24 25  2  0
 25 26  1  0
 26 27  2  0
 26 28  1  0
 28 29  1  0
 25 30  1  0
 30 31  1  0
 31 32  2  0
 32 33  1  0
 33 34  2  0
 34 35  1  0
 35 36  2  0
 20 12  1  0
 36 23  1  0
 24 13  1  0
 36 31  1  0
 20 15  1  0
  1 37  1  0
  1 38  1  0
  1 39  1  0
  2 40  1  0
  2 41  1  0
  3 42  1  0
  4 43  1  0
  4 44  1  0
  5 45  1  0
  5 46  1  0
  5 47  1  0
  6 48  1  0
  6 49  1  0
  7 50  1  0
  7 51  1  0
  8 52  1  0
  8 53  1  0
  9 54  1  0
 10 55  1  0
 10 56  1  0
 11 57  1  0
 11 58  1  0
 16 59  1  0
 17 60  1  0
 18 61  1  0
 19 62  1  0
 21 63  1  0
 21 64  1  0
 22 65  1  0
 22 66  1  0
 29 67  1  0
 29 68  1  0
 29 69  1  0
 30 70  1  0
 30 71  1  0
 32 72  1  0
 33 73  1  0
 34 74  1  0
 35 75  1  0
M  CHG  1   3   1
M  END
>  <UniqueID>  (35) 
35

>  <SMILES>  (35) 
CC[NH+](CC)CCCNCCn1c2c(c3ccccc31)CCN1C2=C(C(=O)OC)Cc2ccccc21

>  <Energy>  (35) 
140.78584728999033

>  <Genealogy>  (35) 
CC[NH+](CC)CCCNCCn1c2c(c3ccccc31)CCN1C2=C(C(=O)OC)Cc2ccccc21 (protonated)
CC[NH+](CC)CCCNCCn1c2c(c3ccccc31)CCN1C2=C(C(=O)OC)Cc2ccccc21 (3D coordinates assigned)
CC[NH+](CC)CCCNCCn1c2c(c3ccccc31)CCN1C2=C(C(=O)OC)Cc2ccccc21 (nonaromatic ring conformer: 140.78584728999033 kcal/mol)

>  <smiles>  (35) 
CCN(CC)CCCNCCn1c2c(c3ccccc31)CCN1C2=C(C(=O)OC)Cc2ccccc21

>  <score_type>  (35) 
oracle

>  <origin>  (35) 
adg

>  <m_score__min__energy>  (35) 
-7.25

>  <m_primary>  (35) 
energy

$$$$
