0:0
     RDKit          3D

 35 37  0  0  0  0  0  0  0  0999 V2000
   56.6400   30.5460   42.5500 C   0  0  0  0  0  0  0  0  0  0  0  0
   55.6890   29.7840   43.4670 C   0  0  0  0  0  0  0  0  0  0  0  0
   56.0060   30.0370   44.8720 N   0  0  0  0  0  0  0  0  0  0  0  0
   57.3520   30.2950   45.3070 C   0  0  0  0  0  0  0  0  0  0  0  0
   58.2340   29.2260   45.5380 C   0  0  0  0  0  0  0  0  0  0  0  0
   57.8420   27.8970   45.2690 C   0  0  0  0  0  0  0  0  0  0  0  0
   58.7310   26.8420   45.4630 C   0  0  0  0  0  0  0  0  0  0  0  0
   60.0220   27.0920   45.9130 C   0  0  0  0  0  0  0  0  0  0  0  0
   60.4260   28.3960   46.1960 C   0  0  0  0  0  0  0  0  0  0  0  0
   59.5340   29.4890   46.0480 C   0  0  0  0  0  0  0  0  0  0  0  0
   59.9020   30.7810   46.3730 N   0  0  0  0  0  0  0  0  0  0  0  0
   61.1240   31.0230   47.1710 C   0  0  0  0  0  0  0  0  0  0  0  0
   59.1190   31.8450   45.9660 C   0  0  0  0  0  0  0  0  0  0  0  0
   59.5870   33.1830   46.0250 C   0  0  0  0  0  0  0  0  0  0  0  0
   58.7760   34.2480   45.6330 C   0  0  0  0  0  0  0  0  0  0  0  0
   57.4940   34.0110   45.1540 C   0  0  0  0  0  0  0  0  0  0  0  0
   57.0170   32.7070   45.0490 C   0  0  0  0  0  0  0  0  0  0  0  0
   57.8150   31.6140   45.4480 C   0  0  0  0  0  0  0  0  0  0  0  0
   57.3553   31.1191   43.1582 H   0  0  0  0  0  0  0  0  0  0  0  0
   57.1869   29.8333   41.9152 H   0  0  0  0  0  0  0  0  0  0  0  0
   56.0637   31.2351   41.9152 H   0  0  0  0  0  0  0  0  0  0  0  0
   54.6574   30.1087   43.2662 H   0  0  0  0  0  0  0  0  0  0  0  0
   55.7975   28.7072   43.2701 H   0  0  0  0  0  0  0  0  0  0  0  0
   55.2310   30.0830   45.5690 H   0  0  0  0  0  0  0  0  0  0  0  0
   56.8251   27.6924   44.9028 H   0  0  0  0  0  0  0  0  0  0  0  0
   58.4106   25.8095   45.2597 H   0  0  0  0  0  0  0  0  0  0  0  0
   60.7272   26.2584   46.0463 H   0  0  0  0  0  0  0  0  0  0  0  0
   61.4544   28.5805   46.5401 H   0  0  0  0  0  0  0  0  0  0  0  0
   60.8781   30.9743   48.2421 H   0  0  0  0  0  0  0  0  0  0  0  0
   61.8757   30.2563   46.9321 H   0  0  0  0  0  0  0  0  0  0  0  0
   61.5268   32.0184   46.9321 H   0  0  0  0  0  0  0  0  0  0  0  0
   60.6065   33.3839   46.3859 H   0  0  0  0  0  0  0  0  0  0  0  0
   59.1530   35.2790   45.7034 H   0  0  0  0  0  0  0  0  0  0  0  0
   56.8542   34.8551   44.8570 H   0  0  0  0  0  0  0  0  0  0  0  0
   56.0075   32.5272   44.6508 H   0  0  0  0  0  0  0  0  0  0  0  0
  1  2  1  0
  2  3  1  0
  3  4  1  0
  4  5  2  0
  5  6  1  0
  6  7  2  0
  7  8  1  0
  8  9  2  0
  9 10  1  0
 10 11  2  0
 11 12  1  0
 11 13  1  0
 13 14  2  0
 14 15  1  0
 15 16  2  0
 16 17  1  0
 17 18  2  0
 18  4  1  0
 10  5  1  0
 18 13  1  0
  1 19  1  0
  1 20  1  0
  1 21  1  0
  2 22  1  0
  2 23  1  0
  3 24  1  0
  6 25  1  0
  7 26  1  0
  8 27  1  0
  9 28  1  0
 12 29  1  0
 12 30  1  0
 12 31  1  0
 14 32  1  0
 15 33  1  0
 16 34  1  0
 17 35  1  0
M  CHG  1  11   1
M  END
>  <UniqueID>  (1) 
1

>  <SMILES>  (1) 
CCNc1c2ccccc2[n+](C)c2ccccc12

>  <Energy>  (1) 
60.35250810271578

>  <Genealogy>  (1) 
CCNc1c2ccccc2[n+](C)c2ccccc12 (3D coordinates assigned)
CCNc1c2ccccc2[n+](C)c2ccccc12 (optimized conformer: 60.35250810271578 kcal/mol)

>  <smiles>  (1) 
CCNc1c2ccccc2[n+](C)c2ccccc12

>  <score_type>  (1) 
oracle

>  <origin>  (1) 
adg

>  <m_score__min__energy>  (1) 
-5.4699999999999998

>  <m_primary>  (1) 
energy

$$$$
1:0
     RDKit          3D

 49 51  0  0  0  0  0  0  0  0999 V2000
   55.2780   29.7260   43.7580 C   0  0  0  0  0  0  0  0  0  0  0  0
   56.5290   30.4070   43.2180 C   0  0  0  0  0  0  0  0  0  0  0  0
   57.5760   30.4340   44.2430 N   0  0  0  0  0  0  0  0  0  0  0  0
   58.1760   31.5320   44.7700 C   0  0  0  0  0  0  0  0  0  0  0  0
   59.1430   31.1730   45.6850 C   0  0  0  0  0  0  0  0  0  0  0  0
   59.1830   29.7970   45.6820 C   0  0  0  0  0  0  0  0  0  0  0  0
   60.0010   28.9010   46.3670 C   0  0  0  0  0  0  0  0  0  0  0  0
   59.8090   27.5280   46.1330 C   0  0  0  0  0  0  0  0  0  0  0  0
   58.8190   27.0880   45.2260 C   0  0  0  0  0  0  0  0  0  0  0  0
   58.0110   28.0150   44.5430 C   0  0  0  0  0  0  0  0  0  0  0  0
   58.2150   29.3750   44.7950 C   0  0  0  0  0  0  0  0  0  0  0  0
   60.0240   32.1640   46.3770 C   0  0  0  0  0  0  0  0  0  0  0  0
   59.3800   33.5020   46.3700 N   0  0  0  0  0  0  0  0  0  0  0  0
   60.2830   34.5280   46.9380 C   0  0  0  0  0  0  0  0  0  0  0  0
   61.3870   33.9130   47.8140 C   0  0  0  0  0  0  0  0  0  0  0  0
   62.7940   33.8160   47.1660 C   0  0  0  0  0  0  0  0  0  0  0  0
   63.6730   32.7070   47.6280 N   0  0  0  0  0  0  0  0  0  0  0  0
   63.0620   31.3740   47.4720 C   0  0  0  0  0  0  0  0  0  0  0  0
   64.1960   32.8970   48.9910 C   0  0  0  0  0  0  0  0  0  0  0  0
   58.9660   33.8830   44.9950 C   0  0  0  0  0  0  0  0  0  0  0  0
   57.8370   32.9640   44.4880 C   0  0  0  0  0  0  0  0  0  0  0  0
   55.2998   29.7379   44.8577 H   0  0  0  0  0  0  0  0  0  0  0  0
   54.3860   30.2630   43.4031 H   0  0  0  0  0  0  0  0  0  0  0  0
   55.2448   28.6853   43.4031 H   0  0  0  0  0  0  0  0  0  0  0  0
   56.8941   29.8526   42.3409 H   0  0  0  0  0  0  0  0  0  0  0  0
   56.2797   31.4400   42.9338 H   0  0  0  0  0  0  0  0  0  0  0  0
   60.7713   29.2559   47.0675 H   0  0  0  0  0  0  0  0  0  0  0  0
   60.4337   26.7914   46.6596 H   0  0  0  0  0  0  0  0  0  0  0  0
   58.6789   26.0109   45.0524 H   0  0  0  0  0  0  0  0  0  0  0  0
   57.2416   27.6799   43.8318 H   0  0  0  0  0  0  0  0  0  0  0  0
   60.1880   31.8433   47.4163 H   0  0  0  0  0  0  0  0  0  0  0  0
   60.9879   32.2225   45.8502 H   0  0  0  0  0  0  0  0  0  0  0  0
   60.7538   35.0812   46.1120 H   0  0  0  0  0  0  0  0  0  0  0  0
   59.6797   35.1925   47.5740 H   0  0  0  0  0  0  0  0  0  0  0  0
   61.4765   34.5263   48.7228 H   0  0  0  0  0  0  0  0  0  0  0  0
   61.0740   32.8751   48.0007 H   0  0  0  0  0  0  0  0  0  0  0  0
   62.6530   33.6985   46.0814 H   0  0  0  0  0  0  0  0  0  0  0  0
   63.3128   34.7379   47.4675 H   0  0  0  0  0  0  0  0  0  0  0  0
   64.5050   32.7160   46.9900 H   0  0  0  0  0  0  0  0  0  0  0  0
   62.8644   30.9428   48.4645 H   0  0  0  0  0  0  0  0  0  0  0  0
   62.1165   31.4667   46.9176 H   0  0  0  0  0  0  0  0  0  0  0  0
   63.7494   30.7182   46.9176 H   0  0  0  0  0  0  0  0  0  0  0  0
   63.4238   32.6165   49.7224 H   0  0  0  0  0  0  0  0  0  0  0  0
   65.0842   32.2641   49.1345 H   0  0  0  0  0  0  0  0  0  0  0  0
   64.4708   33.9524   49.1345 H   0  0  0  0  0  0  0  0  0  0  0  0
   58.6086   34.9233   45.0014 H   0  0  0  0  0  0  0  0  0  0  0  0
   59.8322   33.7794   44.3249 H   0  0  0  0  0  0  0  0  0  0  0  0
   56.8985   33.2237   44.9997 H   0  0  0  0  0  0  0  0  0  0  0  0
   57.7205   33.1004   43.4027 H   0  0  0  0  0  0  0  0  0  0  0  0
  1  2  1  0
  2  3  1  0
  3  4  1  0
  4  5  2  0
  5  6  1  0
  6  7  2  0
  7  8  1  0
  8  9  2  0
  9 10  1  0
 10 11  2  0
  5 12  1  0
 12 13  1  0
 13 14  1  0
 14 15  1  0
 15 16  1  0
 16 17  1  0
 17 18  1  0
 17 19  1  0
 13 20  1  0
 20 21  1  0
 11  3  1  0
 21  4  1  0
 11  6  1  0
  1 22  1  0
  1 23  1  0
  1 24  1  0
  2 25  1  0
  2 26  1  0
  7 27  1  0
  8 28  1  0
  9 29  1  0
 10 30  1  0
 12 31  1  0
 12 32  1  0
 14 33  1  0
 14 34  1  0
 15 35  1  0
 15 36  1  0
 16 37  1  0
 16 38  1  0
 17 39  1  0
 18 40  1  0
 18 41  1  0
 18 42  1  0
 19 43  1  0
 19 44  1  0
 19 45  1  0
 20 46  1  0
 20 47  1  0
 21 48  1  0
 21 49  1  0
M  CHG  1  17   1
M  END
>  <UniqueID>  (2) 
2

>  <SMILES>  (2) 
CCn1c2c(c3ccccc31)CN(CCC[NH+](C)C)CC2

>  <Energy>  (2) 
88.7580246886498

>  <Genealogy>  (2) 
CCn1c2c(c3ccccc31)CN(CCC[NH+](C)C)CC2 (protonated)
CCn1c2c(c3ccccc31)CN(CCC[NH+](C)C)CC2 (3D coordinates assigned)
CCn1c2c(c3ccccc31)CN(CCC[NH+](C)C)CC2 (nonaromatic ring conformer: 88.7580246886498 kcal/mol)

>  <smiles>  (2) 
CCn1c2c(c3ccccc31)CN(CCCN(C)C)CC2

>  <score_type>  (2) 
oracle

>  <origin>  (2) 
adg

>  <m_score__min__energy>  (2) 
-6.0700000000000003

>  <m_primary>  (2) 
energy

$$$$
2:0
     RDKit          3D

 47 49  0  0  0  0  0  0  0  0999 V2000
   57.0120   30.9740   42.5450 C   0  0  0  0  0  0  0  0  0  0  0  0
   56.4600   29.7480   43.2700 C   0  0  0  0  0  0  0  0  0  0  0  0
   57.3520   28.5900   43.0960 N   0  0  0  0  0  0  0  0  0  0  0  0
   58.4140   28.5490   44.1210 C   0  0  0  0  0  0  0  0  0  0  0  0
   57.8620   28.4120   45.5510 C   0  0  0  0  0  0  0  0  0  0  0  0
   57.5480   29.7210   46.1260 N   0  0  0  0  0  0  0  0  0  0  0  0
   58.5870   30.5890   46.6100 C   0  0  0  0  0  0  0  0  0  0  0  0
   58.6670   31.9180   46.1590 C   0  0  0  0  0  0  0  0  0  0  0  0
   57.6900   32.4610   45.2990 C   0  0  0  0  0  0  0  0  0  0  0  0
   57.7900   33.7750   44.8470 C   0  0  0  0  0  0  0  0  0  0  0  0
   58.8610   34.5690   45.2420 C   0  0  0  0  0  0  0  0  0  0  0  0
   59.8460   34.0490   46.0820 C   0  0  0  0  0  0  0  0  0  0  0  0
   59.7770   32.7130   46.5460 C   0  0  0  0  0  0  0  0  0  0  0  0
   60.7680   32.1760   47.3420 N   0  0  0  0  0  0  0  0  0  0  0  0
   62.1210   32.7650   47.2830 C   0  0  0  0  0  0  0  0  0  0  0  0
   60.5410   30.9950   48.0250 C   0  0  0  0  0  0  0  0  0  0  0  0
   61.2990   30.6000   49.1770 C   0  0  0  0  0  0  0  0  0  0  0  0
   62.1350   31.5550   49.9940 C   0  0  0  0  0  0  0  0  0  0  0  0
   61.1630   29.2970   49.6810 C   0  0  0  0  0  0  0  0  0  0  0  0
   60.2140   28.4270   49.1590 C   0  0  0  0  0  0  0  0  0  0  0  0
   59.3580   28.8540   48.1530 C   0  0  0  0  0  0  0  0  0  0  0  0
   59.4960   30.1360   47.5850 C   0  0  0  0  0  0  0  0  0  0  0  0
   57.3466   31.7171   43.2838 H   0  0  0  0  0  0  0  0  0  0  0  0
   57.8624   30.6751   41.9146 H   0  0  0  0  0  0  0  0  0  0  0  0
   56.2245   31.4126   41.9146 H   0  0  0  0  0  0  0  0  0  0  0  0
   56.3686   29.9745   44.3426 H   0  0  0  0  0  0  0  0  0  0  0  0
   55.4760   29.5012   42.8447 H   0  0  0  0  0  0  0  0  0  0  0  0
   57.7680   28.6050   42.1370 H   0  0  0  0  0  0  0  0  0  0  0  0
   56.7830   27.7160   43.1880 H   0  0  0  0  0  0  0  0  0  0  0  0
   59.0687   27.6897   43.9138 H   0  0  0  0  0  0  0  0  0  0  0  0
   58.9603   29.5023   44.0682 H   0  0  0  0  0  0  0  0  0  0  0  0
   56.9465   27.8027   45.5252 H   0  0  0  0  0  0  0  0  0  0  0  0
   58.6300   27.9327   46.1759 H   0  0  0  0  0  0  0  0  0  0  0  0
   56.5850   30.1070   46.0030 H   0  0  0  0  0  0  0  0  0  0  0  0
   56.8394   31.8400   44.9815 H   0  0  0  0  0  0  0  0  0  0  0  0
   57.0204   34.1851   44.1765 H   0  0  0  0  0  0  0  0  0  0  0  0
   58.9317   35.6092   44.8914 H   0  0  0  0  0  0  0  0  0  0  0  0
   60.6887   34.6862   46.3884 H   0  0  0  0  0  0  0  0  0  0  0  0
   62.4949   32.9278   48.3046 H   0  0  0  0  0  0  0  0  0  0  0  0
   62.7964   32.0795   46.7502 H   0  0  0  0  0  0  0  0  0  0  0  0
   62.0794   33.7265   46.7502 H   0  0  0  0  0  0  0  0  0  0  0  0
   61.9683   31.3646   51.0645 H   0  0  0  0  0  0  0  0  0  0  0  0
   63.1987   31.4066   49.7564 H   0  0  0  0  0  0  0  0  0  0  0  0
   61.8472   32.5898   49.7564 H   0  0  0  0  0  0  0  0  0  0  0  0
   61.8161   28.9605   50.4997 H   0  0  0  0  0  0  0  0  0  0  0  0
   60.1408   27.3989   49.5432 H   0  0  0  0  0  0  0  0  0  0  0  0
   58.5627   28.1836   47.7951 H   0  0  0  0  0  0  0  0  0  0  0  0
  1  2  1  0
  2  3  1  0
  3  4  1  0
  4  5  1  0
  5  6  1  0
  6  7  1  0
  7  8  2  0
  8  9  1  0
  9 10  2  0
 10 11  1  0
 11 12  2  0
 12 13  1  0
 13 14  2  0
 14 15  1  0
 14 16  1  0
 16 17  2  0
 17 18  1  0
 17 19  1  0
 19 20  2  0
 20 21  1  0
 21 22  2  0
 22  7  1  0
 13  8  1  0
 22 16  1  0
  1 23  1  0
  1 24  1  0
  1 25  1  0
  2 26  1  0
  2 27  1  0
  3 28  1  0
  3 29  1  0
  4 30  1  0
  4 31  1  0
  5 32  1  0
  5 33  1  0
  6 34  1  0
  9 35  1  0
 10 36  1  0
 11 37  1  0
 12 38  1  0
 15 39  1  0
 15 40  1  0
 15 41  1  0
 18 42  1  0
 18 43  1  0
 18 44  1  0
 19 45  1  0
 20 46  1  0
 21 47  1  0
M  CHG  2   3   1  14   1
M  END
>  <UniqueID>  (3) 
3

>  <SMILES>  (3) 
CC[NH2+]CCNc1c2ccccc2[n+](C)c2c(C)cccc12

>  <Energy>  (3) 
80.56401914215286

>  <Genealogy>  (3) 
CC[NH2+]CCNc1c2ccccc2[n+](C)c2c(C)cccc12 (protonated)
CC[NH2+]CCNc1c2ccccc2[n+](C)c2c(C)cccc12 (3D coordinates assigned)
CC[NH2+]CCNc1c2ccccc2[n+](C)c2c(C)cccc12 (optimized conformer: 80.56401914215286 kcal/mol)

>  <smiles>  (3) 
CCNCCNc1c2ccccc2[n+](C)c2c(C)cccc12

>  <score_type>  (3) 
oracle

>  <origin>  (3) 
adg

>  <m_score__min__energy>  (3) 
-4.6600000000000001

>  <m_primary>  (3) 
energy

$$$$
3:0
     RDKit          3D

 58 59  0  0  0  0  0  0  0  0999 V2000
   58.8490   32.8980   51.5950 C   0  0  0  0  0  0  0  0  0  0  0  0
   57.8150   31.9570   50.9890 C   0  0  0  0  0  0  0  0  0  0  0  0
   58.2490   31.4790   49.7150 O   0  0  0  0  0  0  0  0  0  0  0  0
   59.1790   32.0950   48.8610 C   0  0  0  0  0  0  0  0  0  0  0  0
   58.8890   33.3340   48.2590 C   0  0  0  0  0  0  0  0  0  0  0  0
   59.8330   33.9910   47.4800 C   0  0  0  0  0  0  0  0  0  0  0  0
   61.1170   33.4650   47.3380 C   0  0  0  0  0  0  0  0  0  0  0  0
   62.0840   34.1860   46.6180 C   0  0  0  0  0  0  0  0  0  0  0  0
   63.3900   33.7080   46.5210 C   0  0  0  0  0  0  0  0  0  0  0  0
   63.7460   32.5200   47.1550 C   0  0  0  0  0  0  0  0  0  0  0  0
   62.7930   31.7840   47.8630 C   0  0  0  0  0  0  0  0  0  0  0  0
   61.4480   32.2210   47.9400 C   0  0  0  0  0  0  0  0  0  0  0  0
   60.4370   31.4730   48.6220 C   0  0  0  0  0  0  0  0  0  0  0  0
   60.7410   30.0480   49.1160 C   0  0  0  0  0  0  0  0  0  0  0  0
   59.5580   29.1680   49.2300 N   0  0  0  0  0  0  0  0  0  0  0  0
   59.7640   27.8390   48.6200 C   0  0  0  0  0  0  0  0  0  0  0  0
   59.2380   27.7500   47.1780 C   0  0  0  0  0  0  0  0  0  0  0  0
   58.4900   28.9130   46.8740 O   0  0  0  0  0  0  0  0  0  0  0  0
   58.8780   29.4440   45.6220 C   0  0  0  0  0  0  0  0  0  0  0  0
   58.7740   30.9750   45.6160 C   0  0  0  0  0  0  0  0  0  0  0  0
   57.3960   31.3900   45.2490 N   0  0  0  0  0  0  0  0  0  0  0  0
   57.1650   32.8470   45.3610 C   0  0  0  0  0  0  0  0  0  0  0  0
   58.2210   33.6300   44.5860 C   0  0  0  0  0  0  0  0  0  0  0  0
   56.9580   30.8420   43.9440 C   0  0  0  0  0  0  0  0  0  0  0  0
   55.8270   29.8120   44.0570 C   0  0  0  0  0  0  0  0  0  0  0  0
   58.7928   32.8468   52.6924 H   0  0  0  0  0  0  0  0  0  0  0  0
   59.8548   32.5990   51.2651 H   0  0  0  0  0  0  0  0  0  0  0  0
   58.6458   33.9275   51.2651 H   0  0  0  0  0  0  0  0  0  0  0  0
   57.6669   31.1011   51.6639 H   0  0  0  0  0  0  0  0  0  0  0  0
   56.8721   32.5077   50.8563 H   0  0  0  0  0  0  0  0  0  0  0  0
   57.8988   33.7893   48.4079 H   0  0  0  0  0  0  0  0  0  0  0  0
   59.5668   34.9301   46.9729 H   0  0  0  0  0  0  0  0  0  0  0  0
   61.8095   35.1321   46.1285 H   0  0  0  0  0  0  0  0  0  0  0  0
   64.1395   34.2692   45.9436 H   0  0  0  0  0  0  0  0  0  0  0  0
   64.7836   32.1593   47.0978 H   0  0  0  0  0  0  0  0  0  0  0  0
   63.0910   30.8529   48.3673 H   0  0  0  0  0  0  0  0  0  0  0  0
   61.4464   29.5841   48.4109 H   0  0  0  0  0  0  0  0  0  0  0  0
   61.1499   30.1520   50.1319 H   0  0  0  0  0  0  0  0  0  0  0  0
   59.3180   29.0200   50.2370 H   0  0  0  0  0  0  0  0  0  0  0  0
   58.7430   29.6100   48.7380 H   0  0  0  0  0  0  0  0  0  0  0  0
   60.8419   27.6198   48.6138 H   0  0  0  0  0  0  0  0  0  0  0  0
   59.1995   27.1108   49.2209 H   0  0  0  0  0  0  0  0  0  0  0  0
   60.0866   27.6682   46.4829 H   0  0  0  0  0  0  0  0  0  0  0  0
   58.5938   26.8640   47.0776 H   0  0  0  0  0  0  0  0  0  0  0  0
   59.9187   29.1536   45.4154 H   0  0  0  0  0  0  0  0  0  0  0  0
   58.2049   29.0447   44.8490 H   0  0  0  0  0  0  0  0  0  0  0  0
   59.0157   31.3603   46.6176 H   0  0  0  0  0  0  0  0  0  0  0  0
   59.4816   31.3817   44.8785 H   0  0  0  0  0  0  0  0  0  0  0  0
   56.1707   33.0857   44.9554 H   0  0  0  0  0  0  0  0  0  0  0  0
   57.2271   33.1308   46.4219 H   0  0  0  0  0  0  0  0  0  0  0  0
   58.8978   34.1318   45.2932 H   0  0  0  0  0  0  0  0  0  0  0  0
   58.7981   32.9398   43.9531 H   0  0  0  0  0  0  0  0  0  0  0  0
   57.7282   34.3827   43.9531 H   0  0  0  0  0  0  0  0  0  0  0  0
   56.6077   31.6753   43.3172 H   0  0  0  0  0  0  0  0  0  0  0  0
   57.8234   30.3230   43.5061 H   0  0  0  0  0  0  0  0  0  0  0  0
   55.6131   29.6172   45.1183 H   0  0  0  0  0  0  0  0  0  0  0  0
   54.9237   30.2041   43.5669 H   0  0  0  0  0  0  0  0  0  0  0  0
   56.1331   28.8760   43.5669 H   0  0  0  0  0  0  0  0  0  0  0  0
  1  2  1  0
  2  3  1  0
  3  4  1  0
  4  5  2  0
  5  6  1  0
  6  7  2  0
  7  8  1  0
  8  9  2  0
  9 10  1  0
 10 11  2  0
 11 12  1  0
 12 13  2  0
 13 14  1  0
 14 15  1  0
 15 16  1  0
 16 17  1  0
 17 18  1  0
 18 19  1  0
 19 20  1  0
 20 21  1  0
 21 22  1  0
 22 23  1  0
 21 24  1  0
 24 25  1  0
 13  4  1  0
 12  7  1  0
  1 26  1  0
  1 27  1  0
  1 28  1  0
  2 29  1  0
  2 30  1  0
  5 31  1  0
  6 32  1  0
  8 33  1  0
  9 34  1  0
 10 35  1  0
 11 36  1  0
 14 37  1  0
 14 38  1  0
 15 39  1  0
 15 40  1  0
 16 41  1  0
 16 42  1  0
 17 43  1  0
 17 44  1  0
 19 45  1  0
 19 46  1  0
 20 47  1  0
 20 48  1  0
 22 49  1  0
 22 50  1  0
 23 51  1  0
 23 52  1  0
 23 53  1  0
 24 54  1  0
 24 55  1  0
 25 56  1  0
 25 57  1  0
 25 58  1  0
M  CHG  1  15   1
M  END
>  <UniqueID>  (4) 
4

>  <SMILES>  (4) 
CCOc1ccc2ccccc2c1C[NH2+]CCOCCN(CC)CC

>  <Energy>  (4) 
70.2927399958893

>  <Genealogy>  (4) 
CCOc1ccc2ccccc2c1C[NH2+]CCOCCN(CC)CC (protonated)
CCOc1ccc2ccccc2c1C[NH2+]CCOCCN(CC)CC (3D coordinates assigned)
CCOc1ccc2ccccc2c1C[NH2+]CCOCCN(CC)CC (optimized conformer: 70.2927399958893 kcal/mol)

>  <smiles>  (4) 
CCOc1ccc2ccccc2c1CNCCOCCN(CC)CC

>  <score_type>  (4) 
oracle

>  <origin>  (4) 
adg

>  <m_score__min__energy>  (4) 
-4.2199999999999998

>  <m_primary>  (4) 
energy

$$$$
4:0
     RDKit          3D

 54 56  0  0  0  0  0  0  0  0999 V2000
   59.8980   35.6150   46.0840 C   0  0  0  0  0  0  0  0  0  0  0  0
   59.0180   34.4420   45.7680 C   0  0  0  0  0  0  0  0  0  0  0  0
   58.2320   33.8540   46.7690 C   0  0  0  0  0  0  0  0  0  0  0  0
   57.4040   32.7700   46.4690 C   0  0  0  0  0  0  0  0  0  0  0  0
   57.3250   32.2750   45.1560 C   0  0  0  0  0  0  0  0  0  0  0  0
   56.5240   31.1230   44.8490 N   0  0  0  0  0  0  0  0  0  0  0  0
   56.9910   29.8900   44.2890 C   0  0  0  0  0  0  0  0  0  0  0  0
   56.3600   29.3900   43.3220 O   0  0  0  0  0  0  0  0  0  0  0  0
   58.1890   29.1660   44.8620 C   0  0  0  0  0  0  0  0  0  0  0  0
   58.6670   29.7140   46.1490 N   0  0  0  0  0  0  0  0  0  0  0  0
   58.4980   28.7820   47.2850 C   0  0  0  0  0  0  0  0  0  0  0  0
   59.0950   29.3540   48.5930 C   0  0  0  0  0  0  0  0  0  0  0  0
   59.3400   30.8730   48.4940 C   0  0  0  0  0  0  0  0  0  0  0  0
   59.9310   31.4500   49.7990 C   0  0  0  0  0  0  0  0  0  0  0  0
   59.0670   32.4960   50.3870 N   0  0  0  0  0  0  0  0  0  0  0  0
   57.7930   31.9340   50.8720 C   0  0  0  0  0  0  0  0  0  0  0  0
   57.6820   32.2210   52.3590 C   0  0  0  0  0  0  0  0  0  0  0  0
   58.6220   33.3780   52.5810 C   0  0  0  0  0  0  0  0  0  0  0  0
   57.9590   34.5790   52.3670 F   0  0  0  0  0  0  0  0  0  0  0  0
   59.1510   33.3540   53.8600 F   0  0  0  0  0  0  0  0  0  0  0  0
   59.6980   33.1750   51.5320 C   0  0  0  0  0  0  0  0  0  0  0  0
   60.2680   31.1990   47.2980 C   0  0  0  0  0  0  0  0  0  0  0  0
   60.0310   30.2660   46.0960 C   0  0  0  0  0  0  0  0  0  0  0  0
   58.1120   32.8620   44.1460 C   0  0  0  0  0  0  0  0  0  0  0  0
   58.0390   32.3520   42.7310 C   0  0  0  0  0  0  0  0  0  0  0  0
   58.9440   33.9520   44.4570 C   0  0  0  0  0  0  0  0  0  0  0  0
   59.9820   35.7270   47.1751 H   0  0  0  0  0  0  0  0  0  0  0  0
   60.8971   35.4501   45.6543 H   0  0  0  0  0  0  0  0  0  0  0  0
   59.4602   36.5281   45.6543 H   0  0  0  0  0  0  0  0  0  0  0  0
   58.2676   34.2482   47.7953 H   0  0  0  0  0  0  0  0  0  0  0  0
   56.8093   32.3002   47.2663 H   0  0  0  0  0  0  0  0  0  0  0  0
   57.9144   28.1120   45.0161 H   0  0  0  0  0  0  0  0  0  0  0  0
   59.0097   29.2903   44.1401 H   0  0  0  0  0  0  0  0  0  0  0  0
   57.4244   28.5956   47.4356 H   0  0  0  0  0  0  0  0  0  0  0  0
   59.0318   27.8507   47.0448 H   0  0  0  0  0  0  0  0  0  0  0  0
   58.3950   29.1593   49.4189 H   0  0  0  0  0  0  0  0  0  0  0  0
   60.0628   28.8623   48.7709 H   0  0  0  0  0  0  0  0  0  0  0  0
   58.3620   31.3496   48.3314 H   0  0  0  0  0  0  0  0  0  0  0  0
   60.0455   30.6339   50.5276 H   0  0  0  0  0  0  0  0  0  0  0  0
   60.9011   31.9088   49.5573 H   0  0  0  0  0  0  0  0  0  0  0  0
   56.9526   32.4025   50.3388 H   0  0  0  0  0  0  0  0  0  0  0  0
   57.7636   30.8493   50.6917 H   0  0  0  0  0  0  0  0  0  0  0  0
   56.6518   32.4978   52.6275 H   0  0  0  0  0  0  0  0  0  0  0  0
   57.9343   31.3472   52.9777 H   0  0  0  0  0  0  0  0  0  0  0  0
   60.1049   34.1470   51.2163 H   0  0  0  0  0  0  0  0  0  0  0  0
   60.5271   32.5742   51.9340 H   0  0  0  0  0  0  0  0  0  0  0  0
   60.0839   32.2362   46.9812 H   0  0  0  0  0  0  0  0  0  0  0  0
   61.3063   31.0563   47.6321 H   0  0  0  0  0  0  0  0  0  0  0  0
   60.1580   30.8345   45.1629 H   0  0  0  0  0  0  0  0  0  0  0  0
   60.7567   29.4401   46.1311 H   0  0  0  0  0  0  0  0  0  0  0  0
   57.8831   31.2631   42.7413 H   0  0  0  0  0  0  0  0  0  0  0  0
   57.2012   32.8374   42.2090 H   0  0  0  0  0  0  0  0  0  0  0  0
   58.9793   32.5829   42.2090 H   0  0  0  0  0  0  0  0  0  0  0  0
   59.5423   34.4245   43.6641 H   0  0  0  0  0  0  0  0  0  0  0  0
  1  2  1  0
  2  3  2  0
  3  4  1  0
  4  5  2  0
  5  6  1  0
  6  7  1  0
  7  8  2  0
  7  9  1  0
  9 10  1  0
 10 11  1  0
 11 12  1  0
 12 13  1  0
 13 14  1  0
 14 15  1  0
 15 16  1  0
 16 17  1  0
 17 18  1  0
 18 19  1  0
 18 20  1  0
 18 21  1  0
 13 22  1  0
 22 23  1  0
  5 24  1  0
 24 25  1  0
 24 26  2  0
 26  2  1  0
 23 10  1  0
 21 15  1  0
  1 27  1  0
  1 28  1  0
  1 29  1  0
  3 30  1  0
  4 31  1  0
  9 32  1  0
  9 33  1  0
 11 34  1  0
 11 35  1  0
 12 36  1  0
 12 37  1  0
 13 38  1  0
 14 39  1  0
 14 40  1  0
 16 41  1  0
 16 42  1  0
 17 43  1  0
 17 44  1  0
 21 45  1  0
 21 46  1  0
 22 47  1  0
 22 48  1  0
 23 49  1  0
 23 50  1  0
 25 51  1  0
 25 52  1  0
 25 53  1  0
 26 54  1  0
M  CHG  1   6  -1
M  END
>  <UniqueID>  (5) 
5

>  <SMILES>  (5) 
Cc1ccc([N-]C(=O)CN2CCC(CN3CCC(F)(F)C3)CC2)c(C)c1

>  <Energy>  (5) 
69.06463734451803

>  <Genealogy>  (5) 
Cc1ccc([N-]C(=O)CN2CCC(CN3CCC(F)(F)C3)CC2)c(C)c1 (protonated)
Cc1ccc([N-]C(=O)CN2CCC(CN3CCC(F)(F)C3)CC2)c(C)c1 (3D coordinates assigned)
Cc1ccc([N-]C(=O)CN2CCC(CN3CCC(F)(F)C3)CC2)c(C)c1 (nonaromatic ring conformer: 69.06463734451803 kcal/mol)

>  <smiles>  (5) 
Cc1ccc(NC(=O)CN2CCC(CN3CCC(F)(F)C3)CC2)c(C)c1

>  <score_type>  (5) 
oracle

>  <origin>  (5) 
adg

>  <m_score__min__energy>  (5) 
-9.6699999999999999

>  <m_primary>  (5) 
energy

$$$$
5:0
     RDKit          3D

 29 30  0  0  0  0  0  0  0  0999 V2000
   60.0020   36.0750   46.0010 C   0  0  0  0  0  0  0  0  0  0  0  0
   59.3270   34.7500   46.1940 C   0  0  0  0  0  0  0  0  0  0  0  0
   59.2350   34.1860   47.4740 C   0  0  0  0  0  0  0  0  0  0  0  0
   58.6590   32.9200   47.6510 C   0  0  0  0  0  0  0  0  0  0  0  0
   58.5250   32.3390   49.0280 C   0  0  0  0  0  0  0  0  0  0  0  0
   58.1490   32.2300   46.5420 C   0  0  0  0  0  0  0  0  0  0  0  0
   58.2370   32.7800   45.2530 C   0  0  0  0  0  0  0  0  0  0  0  0
   57.7370   32.0480   44.1150 N   0  0  0  0  0  0  0  0  0  0  0  0
   58.0000   32.3950   42.7270 C   0  0  0  0  0  0  0  0  0  0  0  0
   57.0800   31.4960   41.8810 C   0  0  0  0  0  0  0  0  0  0  0  0
   56.5260   30.4110   42.8160 C   0  0  0  0  0  0  0  0  0  0  0  0
   56.9330   30.8800   44.1550 C   0  0  0  0  0  0  0  0  0  0  0  0
   56.6530   30.2640   45.2180 O   0  0  0  0  0  0  0  0  0  0  0  0
   58.8480   34.0350   45.0860 C   0  0  0  0  0  0  0  0  0  0  0  0
   60.2276   36.5179   46.9823 H   0  0  0  0  0  0  0  0  0  0  0  0
   60.9370   35.9318   45.4396 H   0  0  0  0  0  0  0  0  0  0  0  0
   59.3365   36.7472   45.4396 H   0  0  0  0  0  0  0  0  0  0  0  0
   59.6168   34.7397   48.3444 H   0  0  0  0  0  0  0  0  0  0  0  0
   58.7061   33.1244   49.7766 H   0  0  0  0  0  0  0  0  0  0  0  0
   57.5101   31.9352   49.1584 H   0  0  0  0  0  0  0  0  0  0  0  0
   59.2605   31.5315   49.1584 H   0  0  0  0  0  0  0  0  0  0  0  0
   57.6750   31.2475   46.6832 H   0  0  0  0  0  0  0  0  0  0  0  0
   57.7678   33.4552   42.5478 H   0  0  0  0  0  0  0  0  0  0  0  0
   59.0584   32.2438   42.4684 H   0  0  0  0  0  0  0  0  0  0  0  0
   56.2547   32.0896   41.4609 H   0  0  0  0  0  0  0  0  0  0  0  0
   57.6338   31.0463   41.0437 H   0  0  0  0  0  0  0  0  0  0  0  0
   55.4308   30.3442   42.7375 H   0  0  0  0  0  0  0  0  0  0  0  0
   56.9011   29.4045   42.5789 H   0  0  0  0  0  0  0  0  0  0  0  0
   58.9515   34.4605   44.0769 H   0  0  0  0  0  0  0  0  0  0  0  0
  1  2  1  0
  2  3  2  0
  3  4  1  0
  4  5  1  0
  4  6  2  0
  6  7  1  0
  7  8  1  0
  8  9  1  0
  9 10  1  0
 10 11  1  0
 11 12  1  0
 12 13  2  0
  7 14  2  0
 14  2  1  0
 12  8  1  0
  1 15  1  0
  1 16  1  0
  1 17  1  0
  3 18  1  0
  5 19  1  0
  5 20  1  0
  5 21  1  0
  6 22  1  0
  9 23  1  0
  9 24  1  0
 10 25  1  0
 10 26  1  0
 11 27  1  0
 11 28  1  0
 14 29  1  0
M  END
>  <UniqueID>  (6) 
6

>  <SMILES>  (6) 
Cc1cc(C)cc(N2CCCC2=O)c1

>  <Energy>  (6) 
36.874030991951614

>  <Genealogy>  (6) 
Cc1cc(C)cc(N2CCCC2=O)c1 (3D coordinates assigned)
Cc1cc(C)cc(N2CCCC2=O)c1 (nonaromatic ring conformer: 36.874030991951614 kcal/mol)

>  <smiles>  (6) 
Cc1cc(C)cc(N2CCCC2=O)c1

>  <score_type>  (6) 
oracle

>  <origin>  (6) 
adg

>  <m_score__min__energy>  (6) 
-6.2400000000000002

>  <m_primary>  (6) 
energy

$$$$
6:0
     RDKit          3D

 51 54  0  0  0  0  0  0  0  0999 V2000
   59.3240   33.5030   51.7670 C   0  0  0  0  0  0  0  0  0  0  0  0
   60.3430   33.1800   50.6780 C   0  0  0  0  0  0  0  0  0  0  0  0
   59.7040   33.2040   49.3520 N   0  0  0  0  0  0  0  0  0  0  0  0
   58.7380   32.2770   49.0760 C   0  0  0  0  0  0  0  0  0  0  0  0
   58.1260   32.2260   47.8260 C   0  0  0  0  0  0  0  0  0  0  0  0
   58.5060   33.1300   46.8260 C   0  0  0  0  0  0  0  0  0  0  0  0
   57.9020   33.0930   45.5500 C   0  0  0  0  0  0  0  0  0  0  0  0
   56.9180   32.1250   45.2930 O   0  0  0  0  0  0  0  0  0  0  0  0
   56.8770   31.2510   44.1680 C   0  0  0  0  0  0  0  0  0  0  0  0
   56.1990   29.9550   44.5100 C   0  0  0  0  0  0  0  0  0  0  0  0
   55.2690   29.5360   43.7720 O   0  0  0  0  0  0  0  0  0  0  0  0
   56.6290   29.1410   45.6060 N   0  0  0  0  0  0  0  0  0  0  0  0
   56.9330   27.7170   45.5100 C   0  0  0  0  0  0  0  0  0  0  0  0
   58.4060   27.5090   45.1590 C   0  0  0  0  0  0  0  0  0  0  0  0
   59.2600   28.5830   45.7690 C   0  0  0  0  0  0  0  0  0  0  0  0
   59.6300   29.7900   45.1830 C   0  0  0  0  0  0  0  0  0  0  0  0
   60.3460   30.5380   46.0540 N   0  0  0  0  0  0  0  0  0  0  0  0
   60.4210   29.8200   47.1880 C   0  0  0  0  0  0  0  0  0  0  0  0
   61.0490   30.1790   48.3800 C   0  0  0  0  0  0  0  0  0  0  0  0
   61.0010   29.2650   49.4500 C   0  0  0  0  0  0  0  0  0  0  0  0
   60.3300   28.0300   49.3070 C   0  0  0  0  0  0  0  0  0  0  0  0
   59.7000   27.6960   48.0960 C   0  0  0  0  0  0  0  0  0  0  0  0
   59.7690   28.6200   47.0520 C   0  0  0  0  0  0  0  0  0  0  0  0
   58.3010   34.0270   44.5750 C   0  0  0  0  0  0  0  0  0  0  0  0
   59.2840   34.9760   44.8610 C   0  0  0  0  0  0  0  0  0  0  0  0
   59.8880   35.0060   46.1180 C   0  0  0  0  0  0  0  0  0  0  0  0
   59.5080   34.0870   47.1120 C   0  0  0  0  0  0  0  0  0  0  0  0
   60.1050   34.0980   48.3910 C   0  0  0  0  0  0  0  0  0  0  0  0
   61.0160   34.9360   48.6500 O   0  0  0  0  0  0  0  0  0  0  0  0
   59.7847   33.3570   52.7552 H   0  0  0  0  0  0  0  0  0  0  0  0
   58.9978   34.5486   51.6654 H   0  0  0  0  0  0  0  0  0  0  0  0
   58.4550   32.8363   51.6654 H   0  0  0  0  0  0  0  0  0  0  0  0
   61.1504   33.9266   50.7045 H   0  0  0  0  0  0  0  0  0  0  0  0
   60.7509   32.1745   50.8587 H   0  0  0  0  0  0  0  0  0  0  0  0
   58.4390   31.5593   49.8542 H   0  0  0  0  0  0  0  0  0  0  0  0
   57.3458   31.4772   47.6245 H   0  0  0  0  0  0  0  0  0  0  0  0
   56.3238   31.7410   43.3532 H   0  0  0  0  0  0  0  0  0  0  0  0
   57.9100   31.0323   43.8596 H   0  0  0  0  0  0  0  0  0  0  0  0
   56.7188   27.2348   46.4752 H   0  0  0  0  0  0  0  0  0  0  0  0
   56.3115   27.2720   44.7190 H   0  0  0  0  0  0  0  0  0  0  0  0
   58.7321   26.5300   45.5401 H   0  0  0  0  0  0  0  0  0  0  0  0
   58.5157   27.5521   44.0653 H   0  0  0  0  0  0  0  0  0  0  0  0
   59.3761   30.0931   44.1565 H   0  0  0  0  0  0  0  0  0  0  0  0
   60.7520   31.4860   45.8780 H   0  0  0  0  0  0  0  0  0  0  0  0
   61.5653   31.1450   48.4812 H   0  0  0  0  0  0  0  0  0  0  0  0
   61.4892   29.5142   50.4037 H   0  0  0  0  0  0  0  0  0  0  0  0
   60.3004   27.3242   50.1502 H   0  0  0  0  0  0  0  0  0  0  0  0
   59.1707   26.7393   47.9750 H   0  0  0  0  0  0  0  0  0  0  0  0
   57.8341   34.0088   43.5792 H   0  0  0  0  0  0  0  0  0  0  0  0
   59.5835   35.7032   44.0919 H   0  0  0  0  0  0  0  0  0  0  0  0
   60.6663   35.7531   46.3329 H   0  0  0  0  0  0  0  0  0  0  0  0
  1  2  1  0
  2  3  1  0
  3  4  1  0
  4  5  2  0
  5  6  1  0
  6  7  2  0
  7  8  1  0
  8  9  1  0
  9 10  1  0
 10 11  2  0
 10 12  1  0
 12 13  1  0
 13 14  1  0
 14 15  1  0
 15 16  2  0
 16 17  1  0
 17 18  1  0
 18 19  2  0
 19 20  1  0
 20 21  2  0
 21 22  1  0
 22 23  2  0
  7 24  1  0
 24 25  2  0
 25 26  1  0
 26 27  2  0
 27 28  1  0
 28 29  2  0
 28  3  1  0
 27  6  1  0
 23 15  1  0
 23 18  1  0
  1 30  1  0
  1 31  1  0
  1 32  1  0
  2 33  1  0
  2 34  1  0
  4 35  1  0
  5 36  1  0
  9 37  1  0
  9 38  1  0
 13 39  1  0
 13 40  1  0
 14 41  1  0
 14 42  1  0
 16 43  1  0
 17 44  1  0
 19 45  1  0
 20 46  1  0
 21 47  1  0
 22 48  1  0
 24 49  1  0
 25 50  1  0
 26 51  1  0
M  CHG  1  12  -1
M  END
>  <UniqueID>  (7) 
7

>  <SMILES>  (7) 
CCn1ccc2c(OCC(=O)[N-]CCc3c[nH]c4ccccc34)cccc2c1=O

>  <Energy>  (7) 
87.63582302123392

>  <Genealogy>  (7) 
CCn1ccc2c(OCC(=O)[N-]CCc3c[nH]c4ccccc34)cccc2c1=O (protonated)
CCn1ccc2c(OCC(=O)[N-]CCc3c[nH]c4ccccc34)cccc2c1=O (3D coordinates assigned)
CCn1ccc2c(OCC(=O)[N-]CCc3c[nH]c4ccccc34)cccc2c1=O (optimized conformer: 87.63582302123392 kcal/mol)

>  <smiles>  (7) 
CCn1ccc2c(OCC(=O)NCCc3c[nH]c4ccccc34)cccc2c1=O

>  <score_type>  (7) 
oracle

>  <origin>  (7) 
adg

>  <m_score__min__energy>  (7) 
-10.300000000000001

>  <m_primary>  (7) 
energy

$$$$
7:0
     RDKit          3D

 30 30  0  0  0  0  0  0  0  0999 V2000
   57.7900   27.8490   44.0830 C   0  0  0  0  0  0  0  0  0  0  0  0
   57.0700   28.1800   45.3930 C   0  0  0  0  0  0  0  0  0  0  0  0
   55.9010   29.0520   45.1840 N   0  0  0  0  0  0  0  0  0  0  0  0
   55.9910   29.8370   43.9440 C   0  0  0  0  0  0  0  0  0  0  0  0
   57.0090   30.9660   44.0980 C   0  0  0  0  0  0  0  0  0  0  0  0
   57.3260   31.1400   45.4760 O   0  0  0  0  0  0  0  0  0  0  0  0
   58.5400   31.6560   45.9540 C   0  0  0  0  0  0  0  0  0  0  0  0
   59.5630   30.8260   46.4520 C   0  0  0  0  0  0  0  0  0  0  0  0
   60.7580   31.3790   46.9200 C   0  0  0  0  0  0  0  0  0  0  0  0
   60.9460   32.7680   46.9100 C   0  0  0  0  0  0  0  0  0  0  0  0
   62.2450   33.3580   47.3760 C   0  0  0  0  0  0  0  0  0  0  0  0
   59.9370   33.5960   46.3990 C   0  0  0  0  0  0  0  0  0  0  0  0
   58.7400   33.0450   45.9310 C   0  0  0  0  0  0  0  0  0  0  0  0
   57.3820   34.2100   45.2490 Br  0  0  0  0  0  0  0  0  0  0  0  0
   58.7687   27.3991   44.3061 H   0  0  0  0  0  0  0  0  0  0  0  0
   57.1842   27.1390   43.5009 H   0  0  0  0  0  0  0  0  0  0  0  0
   57.9345   28.7711   43.5009 H   0  0  0  0  0  0  0  0  0  0  0  0
   56.7328   27.2419   45.8581 H   0  0  0  0  0  0  0  0  0  0  0  0
   57.7790   28.7172   46.0401 H   0  0  0  0  0  0  0  0  0  0  0  0
   55.7970   29.7030   45.9980 H   0  0  0  0  0  0  0  0  0  0  0  0
   56.3030   29.1781   43.1203 H   0  0  0  0  0  0  0  0  0  0  0  0
   55.0051   30.2741   43.7273 H   0  0  0  0  0  0  0  0  0  0  0  0
   57.9233   30.7128   43.5413 H   0  0  0  0  0  0  0  0  0  0  0  0
   56.5822   31.8989   43.7011 H   0  0  0  0  0  0  0  0  0  0  0  0
   59.4205   29.7355   46.4727 H   0  0  0  0  0  0  0  0  0  0  0  0
   61.5547   30.7213   47.2979 H   0  0  0  0  0  0  0  0  0  0  0  0
   62.2692   33.3690   48.4757 H   0  0  0  0  0  0  0  0  0  0  0  0
   63.0804   32.7510   46.9969 H   0  0  0  0  0  0  0  0  0  0  0  0
   62.3375   34.3865   46.9969 H   0  0  0  0  0  0  0  0  0  0  0  0
   60.0876   34.6851   46.3659 H   0  0  0  0  0  0  0  0  0  0  0  0
  1  2  1  0
  2  3  1  0
  3  4  1  0
  4  5  1  0
  5  6  1  0
  6  7  1  0
  7  8  2  0
  8  9  1  0
  9 10  2  0
 10 11  1  0
 10 12  1  0
 12 13  2  0
 13 14  1  0
 13  7  1  0
  1 15  1  0
  1 16  1  0
  1 17  1  0
  2 18  1  0
  2 19  1  0
  3 20  1  0
  4 21  1  0
  4 22  1  0
  5 23  1  0
  5 24  1  0
  8 25  1  0
  9 26  1  0
 11 27  1  0
 11 28  1  0
 11 29  1  0
 12 30  1  0
M  END
>  <UniqueID>  (8) 
8

>  <SMILES>  (8) 
CCNCCOc1ccc(C)cc1Br

>  <Energy>  (8) 
23.546581908271392

>  <Genealogy>  (8) 
CCNCCOc1ccc(C)cc1Br (3D coordinates assigned)
CCNCCOc1ccc(C)cc1Br (optimized conformer: 23.546581908271392 kcal/mol)

>  <smiles>  (8) 
CCNCCOc1ccc(C)cc1Br

>  <score_type>  (8) 
oracle

>  <origin>  (8) 
adg

>  <m_score__min__energy>  (8) 
-5.9900000000000002

>  <m_primary>  (8) 
energy

$$$$
8:0
     RDKit          3D

 25 26  0  0  0  0  0  0  0  0999 V2000
   57.5240   28.2980   45.0930 C   0  0  0  0  0  0  0  0  0  0  0  0
   56.6430   29.4360   44.6780 C   0  0  0  0  0  0  0  0  0  0  0  0
   55.4010   29.3510   44.8740 O   0  0  0  0  0  0  0  0  0  0  0  0
   57.2060   30.6880   44.1260 C   0  0  0  0  0  0  0  0  0  0  0  0
   57.0830   30.9110   42.7470 C   0  0  0  0  0  0  0  0  0  0  0  0
   57.5520   32.1020   42.1830 C   0  0  0  0  0  0  0  0  0  0  0  0
   57.3920   32.3600   40.7190 C   0  0  0  0  0  0  0  0  0  0  0  0
   58.1300   33.0430   42.9750 N   0  0  0  0  0  0  0  0  0  0  0  0
   58.2920   32.8620   44.3110 C   0  0  0  0  0  0  0  0  0  0  0  0
   58.9150   33.8580   45.0720 C   0  0  0  0  0  0  0  0  0  0  0  0
   59.1200   33.6710   46.4400 C   0  0  0  0  0  0  0  0  0  0  0  0
   58.7120   32.4860   47.0540 C   0  0  0  0  0  0  0  0  0  0  0  0
   58.0850   31.4850   46.3060 C   0  0  0  0  0  0  0  0  0  0  0  0
   57.8450   31.6660   44.9280 C   0  0  0  0  0  0  0  0  0  0  0  0
   57.5638   28.2466   46.1911 H   0  0  0  0  0  0  0  0  0  0  0  0
   57.1174   27.3560   44.6963 H   0  0  0  0  0  0  0  0  0  0  0  0
   58.5378   28.4556   44.6963 H   0  0  0  0  0  0  0  0  0  0  0  0
   56.6165   30.1474   42.1072 H   0  0  0  0  0  0  0  0  0  0  0  0
   56.8176   33.2863   40.5706 H   0  0  0  0  0  0  0  0  0  0  0  0
   58.3836   32.4651   40.2547 H   0  0  0  0  0  0  0  0  0  0  0  0
   56.8571   31.5184   40.2547 H   0  0  0  0  0  0  0  0  0  0  0  0
   59.2440   34.7908   44.5906 H   0  0  0  0  0  0  0  0  0  0  0  0
   59.6041   34.4592   47.0353 H   0  0  0  0  0  0  0  0  0  0  0  0
   58.8844   32.3390   48.1304 H   0  0  0  0  0  0  0  0  0  0  0  0
   57.7766   30.5495   46.7957 H   0  0  0  0  0  0  0  0  0  0  0  0
  1  2  1  0
  2  3  2  0
  2  4  1  0
  4  5  2  0
  5  6  1  0
  6  7  1  0
  6  8  2  0
  8  9  1  0
  9 10  2  0
 10 11  1  0
 11 12  2  0
 12 13  1  0
 13 14  2  0
 14  4  1  0
 14  9  1  0
  1 15  1  0
  1 16  1  0
  1 17  1  0
  5 18  1  0
  7 19  1  0
  7 20  1  0
  7 21  1  0
 10 22  1  0
 11 23  1  0
 12 24  1  0
 13 25  1  0
M  END
>  <UniqueID>  (9) 
9

>  <SMILES>  (9) 
CC(=O)c1cc(C)nc2ccccc12

>  <Energy>  (9) 
34.06202177598349

>  <Genealogy>  (9) 
CC(=O)c1cc(C)nc2ccccc12 (3D coordinates assigned)
CC(=O)c1cc(C)nc2ccccc12 (optimized conformer: 34.06202177598349 kcal/mol)

>  <smiles>  (9) 
CC(=O)c1cc(C)nc2ccccc12

>  <score_type>  (9) 
oracle

>  <origin>  (9) 
adg

>  <m_score__min__energy>  (9) 
-6.7400000000000002

>  <m_primary>  (9) 
energy

$$$$
9:0
     RDKit          3D

 54 59  0  0  0  0  0  0  0  0999 V2000
   63.2420   33.4160   51.8820 C   0  0  0  0  0  0  0  0  0  0  0  0
   61.8650   33.3030   51.3910 N   0  0  0  0  0  0  0  0  0  0  0  0
   60.7560   33.2230   52.1750 C   0  0  0  0  0  0  0  0  0  0  0  0
   60.6810   33.0930   53.5690 C   0  0  0  0  0  0  0  0  0  0  0  0
   59.4090   33.0500   54.1680 C   0  0  0  0  0  0  0  0  0  0  0  0
   58.2420   33.1370   53.3810 C   0  0  0  0  0  0  0  0  0  0  0  0
   58.3350   33.2640   51.9850 C   0  0  0  0  0  0  0  0  0  0  0  0
   59.6090   33.2970   51.4180 C   0  0  0  0  0  0  0  0  0  0  0  0
   60.0150   33.4150   50.1110 C   0  0  0  0  0  0  0  0  0  0  0  0
   59.2540   33.5740   48.9640 C   0  0  0  0  0  0  0  0  0  0  0  0
   59.9100   33.7150   47.7340 C   0  0  0  0  0  0  0  0  0  0  0  0
   59.0700   33.8760   46.5260 C   0  0  0  0  0  0  0  0  0  0  0  0
   58.8620   35.0370   46.0800 O   0  0  0  0  0  0  0  0  0  0  0  0
   58.5140   32.7310   45.8480 N   0  0  0  0  0  0  0  0  0  0  0  0
   57.5560   32.9230   44.7490 C   0  0  0  0  0  0  0  0  0  0  0  0
   57.3660   31.6270   43.9570 C   0  0  0  0  0  0  0  0  0  0  0  0
   57.0020   30.5250   44.8680 N   0  0  0  0  0  0  0  0  0  0  0  0
   56.9180   29.2380   44.1610 C   0  0  0  0  0  0  0  0  0  0  0  0
   57.4550   28.1750   45.1000 C   0  0  0  0  0  0  0  0  0  0  0  0
   58.4640   28.9110   45.9480 C   0  0  0  0  0  0  0  0  0  0  0  0
   57.9260   30.3390   46.0120 C   0  0  1  0  0  0  0  0  0  0  0  0
   59.0560   31.3890   46.0960 C   0  0  0  0  0  0  0  0  0  0  0  0
   61.3350   33.6580   47.6730 C   0  0  0  0  0  0  0  0  0  0  0  0
   62.0110   33.8100   46.4440 C   0  0  0  0  0  0  0  0  0  0  0  0
   63.3970   33.6930   46.3740 C   0  0  0  0  0  0  0  0  0  0  0  0
   64.1340   33.4080   47.5170 C   0  0  0  0  0  0  0  0  0  0  0  0
   63.4990   33.2770   48.7520 C   0  0  0  0  0  0  0  0  0  0  0  0
   62.1020   33.4500   48.8700 C   0  0  0  0  0  0  0  0  0  0  0  0
   61.3990   33.3830   50.1040 C   0  0  0  0  0  0  0  0  0  0  0  0
   63.2402   33.4159   52.9820 H   0  0  0  0  0  0  0  0  0  0  0  0
   63.8329   32.5633   51.5162 H   0  0  0  0  0  0  0  0  0  0  0  0
   63.6859   34.3536   51.5162 H   0  0  0  0  0  0  0  0  0  0  0  0
   61.5940   33.0263   54.1790 H   0  0  0  0  0  0  0  0  0  0  0  0
   59.3238   32.9476   55.2599 H   0  0  0  0  0  0  0  0  0  0  0  0
   57.2536   33.1053   53.8628 H   0  0  0  0  0  0  0  0  0  0  0  0
   57.4328   33.3351   51.3597 H   0  0  0  0  0  0  0  0  0  0  0  0
   58.1554   33.5892   49.0181 H   0  0  0  0  0  0  0  0  0  0  0  0
   56.5873   33.2354   45.1662 H   0  0  0  0  0  0  0  0  0  0  0  0
   57.9493   33.6947   44.0709 H   0  0  0  0  0  0  0  0  0  0  0  0
   56.5644   31.7671   43.2169 H   0  0  0  0  0  0  0  0  0  0  0  0
   58.3073   31.3759   43.4462 H   0  0  0  0  0  0  0  0  0  0  0  0
   55.8719   29.0181   43.9015 H   0  0  0  0  0  0  0  0  0  0  0  0
   57.5007   29.2659   43.2284 H   0  0  0  0  0  0  0  0  0  0  0  0
   56.6488   27.7607   45.7232 H   0  0  0  0  0  0  0  0  0  0  0  0
   57.8954   27.3210   44.5644 H   0  0  0  0  0  0  0  0  0  0  0  0
   58.5236   28.4707   46.9543 H   0  0  0  0  0  0  0  0  0  0  0  0
   59.4812   28.8613   45.5323 H   0  0  0  0  0  0  0  0  0  0  0  0
   57.3617   30.4981   46.9427 H   0  0  0  0  0  0  0  0  0  0  0  0
   59.5081   31.3582   47.0983 H   0  0  0  0  0  0  0  0  0  0  0  0
   59.8179   31.1611   45.3360 H   0  0  0  0  0  0  0  0  0  0  0  0
   61.4367   34.0234   45.5304 H   0  0  0  0  0  0  0  0  0  0  0  0
   63.9102   33.8267   45.4103 H   0  0  0  0  0  0  0  0  0  0  0  0
   65.2249   33.2849   47.4475 H   0  0  0  0  0  0  0  0  0  0  0  0
   64.0937   33.0359   49.6454 H   0  0  0  0  0  0  0  0  0  0  0  0
  1  2  1  0
  2  3  1  0
  3  4  2  0
  4  5  1  0
  5  6  2  0
  6  7  1  0
  7  8  2  0
  8  9  1  0
  9 10  2  0
 10 11  1  0
 11 12  1  0
 12 13  2  0
 12 14  1  0
 14 15  1  0
 15 16  1  0
 16 17  1  0
 17 18  1  0
 18 19  1  0
 19 20  1  0
 20 21  1  0
 21 22  1  0
 11 23  2  0
 23 24  1  0
 24 25  2  0
 25 26  1  0
 26 27  2  0
 27 28  1  0
 28 29  2  0
 29  2  1  0
  8  3  1  0
 29  9  1  0
 22 14  1  0
 28 23  1  0
 21 17  1  0
  1 30  1  0
  1 31  1  0
  1 32  1  0
  4 33  1  0
  5 34  1  0
  6 35  1  0
  7 36  1  0
 10 37  1  0
 15 38  1  0
 15 39  1  0
 16 40  1  0
 16 41  1  0
 18 42  1  0
 18 43  1  0
 19 44  1  0
 19 45  1  0
 20 46  1  0
 20 47  1  0
 21 48  1  1
 22 49  1  0
 22 50  1  0
 24 51  1  0
 25 52  1  0
 26 53  1  0
 27 54  1  0
M  END
>  <UniqueID>  (10) 
10

>  <SMILES>  (10) 
Cn1c2ccccc2c2cc(C(=O)N3CCN4CCC[C@H]4C3)c3ccccc3c21

>  <Energy>  (10) 
127.02075820625717

>  <Genealogy>  (10) 
Cn1c2ccccc2c2cc(C(=O)N3CCN4CCC[C@H]4C3)c3ccccc3c21 (chirality)
Cn1c2ccccc2c2cc(C(=O)N3CCN4CCC[C@H]4C3)c3ccccc3c21 (3D coordinates assigned)
Cn1c2ccccc2c2cc(C(=O)N3CCN4CCC[C@H]4C3)c3ccccc3c21 (nonaromatic ring conformer: 127.02075820625717 kcal/mol)

>  <smiles>  (10) 
Cn1c2ccccc2c2cc(C(=O)N3CCN4CCCC4C3)c3ccccc3c21

>  <score_type>  (10) 
oracle

>  <origin>  (10) 
adg

>  <m_score__min__energy>  (10) 
-9.75

>  <m_primary>  (10) 
energy

$$$$
10:0
     RDKit          3D

 37 38  0  0  0  0  0  0  0  0999 V2000
   59.5880   33.5980   49.1290 C   0  0  0  0  0  0  0  0  0  0  0  0
   60.2370   34.5100   48.0940 C   0  0  0  0  0  0  0  0  0  0  0  0
   59.2920   34.7880   46.9980 N   0  0  0  0  0  0  0  0  0  0  0  0
   59.6680   34.1250   45.7400 C   0  0  0  0  0  0  0  0  0  0  0  0
   58.9610   32.7960   45.5980 C   0  0  0  0  0  0  0  0  0  0  0  0
   57.7500   32.7380   44.9020 C   0  0  0  0  0  0  0  0  0  0  0  0
   57.2310   33.8540   44.3290 F   0  0  0  0  0  0  0  0  0  0  0  0
   57.0530   31.5430   44.8070 C   0  0  0  0  0  0  0  0  0  0  0  0
   57.5480   30.3670   45.4000 C   0  0  0  0  0  0  0  0  0  0  0  0
   56.8090   29.1730   45.3140 C   0  0  0  0  0  0  0  0  0  0  0  0
   55.7090   29.1560   44.6930 O   0  0  0  0  0  0  0  0  0  0  0  0
   57.2880   28.0060   45.9250 C   0  0  0  0  0  0  0  0  0  0  0  0
   56.5360   26.7210   45.8850 C   0  0  0  0  0  0  0  0  0  0  0  0
   57.1350   25.6210   45.7550 O   0  0  0  0  0  0  0  0  0  0  0  0
   55.1500   26.7140   45.9900 O   0  0  0  0  0  0  0  0  0  0  0  0
   58.5180   28.0580   46.5890 C   0  0  0  0  0  0  0  0  0  0  0  0
   59.2660   29.2040   46.6510 N   0  0  0  0  0  0  0  0  0  0  0  0
   60.5640   29.0850   47.3490 C   0  0  0  0  0  0  0  0  0  0  0  0
   60.3860   29.2480   48.8580 C   0  0  0  0  0  0  0  0  0  0  0  0
   58.7890   30.3850   46.0970 C   0  0  0  0  0  0  0  0  0  0  0  0
   59.4780   31.6320   46.2000 C   0  0  0  0  0  0  0  0  0  0  0  0
   60.6260   31.7650   46.9080 F   0  0  0  0  0  0  0  0  0  0  0  0
   59.8401   33.9523   50.1394 H   0  0  0  0  0  0  0  0  0  0  0  0
   58.4960   33.6126   48.9972 H   0  0  0  0  0  0  0  0  0  0  0  0
   59.9596   32.5711   48.9972 H   0  0  0  0  0  0  0  0  0  0  0  0
   60.5258   35.4567   48.5739 H   0  0  0  0  0  0  0  0  0  0  0  0
   61.1270   34.0109   47.6831 H   0  0  0  0  0  0  0  0  0  0  0  0
   59.3020   35.8190   46.8170 H   0  0  0  0  0  0  0  0  0  0  0  0
   59.3909   34.7724   44.8949 H   0  0  0  0  0  0  0  0  0  0  0  0
   60.7534   33.9465   45.7477 H   0  0  0  0  0  0  0  0  0  0  0  0
   56.0991   31.5140   44.2600 H   0  0  0  0  0  0  0  0  0  0  0  0
   58.8973   27.1484   47.0777 H   0  0  0  0  0  0  0  0  0  0  0  0
   60.9954   28.0946   47.1417 H   0  0  0  0  0  0  0  0  0  0  0  0
   61.2337   29.8783   46.9854 H   0  0  0  0  0  0  0  0  0  0  0  0
   61.0985   28.5955   49.3839 H   0  0  0  0  0  0  0  0  0  0  0  0
   60.5722   30.2953   49.1382 H   0  0  0  0  0  0  0  0  0  0  0  0
   59.3591   28.9705   49.1382 H   0  0  0  0  0  0  0  0  0  0  0  0
  1  2  1  0
  2  3  1  0
  3  4  1  0
  4  5  1  0
  5  6  2  0
  6  7  1  0
  6  8  1  0
  8  9  2  0
  9 10  1  0
 10 11  2  0
 10 12  1  0
 12 13  1  0
 13 14  2  0
 13 15  1  0
 12 16  2  0
 16 17  1  0
 17 18  1  0
 18 19  1  0
 17 20  1  0
 20 21  2  0
 21 22  1  0
 21  5  1  0
 20  9  1  0
  1 23  1  0
  1 24  1  0
  1 25  1  0
  2 26  1  0
  2 27  1  0
  3 28  1  0
  4 29  1  0
  4 30  1  0
  8 31  1  0
 16 32  1  0
 18 33  1  0
 18 34  1  0
 19 35  1  0
 19 36  1  0
 19 37  1  0
M  CHG  1  15  -1
M  END
>  <UniqueID>  (11) 
11

>  <SMILES>  (11) 
CCNCc1c(F)cc2c(=O)c(C(=O)[O-])cn(CC)c2c1F

>  <Energy>  (11) 
50.097412733190104

>  <Genealogy>  (11) 
CCNCc1c(F)cc2c(=O)c(C(=O)[O-])cn(CC)c2c1F (protonated)
CCNCc1c(F)cc2c(=O)c(C(=O)[O-])cn(CC)c2c1F (3D coordinates assigned)
CCNCc1c(F)cc2c(=O)c(C(=O)[O-])cn(CC)c2c1F (optimized conformer: 50.097412733190104 kcal/mol)

>  <smiles>  (11) 
CCNCc1c(F)cc2c(=O)c(C(=O)O)cn(CC)c2c1F

>  <score_type>  (11) 
oracle

>  <origin>  (11) 
adg

>  <m_score__min__energy>  (11) 
-8.8699999999999992

>  <m_primary>  (11) 
energy

$$$$
11:0
     RDKit          3D

 73 76  0  0  0  0  0  0  0  0999 V2000
   58.6600   32.5950   51.5850 C   0  0  0  0  0  0  0  0  0  0  0  0
   58.1110   31.5650   50.5910 C   0  0  0  0  0  0  0  0  0  0  0  0
   58.7320   30.2200   50.7560 N   0  0  0  0  0  0  0  0  0  0  0  0
   58.8290   29.8010   52.1790 C   0  0  0  0  0  0  0  0  0  0  0  0
   57.4600   29.6170   52.8410 C   0  0  0  0  0  0  0  0  0  0  0  0
   60.0470   30.1240   50.0590 C   0  0  0  0  0  0  0  0  0  0  0  0
   60.0220   29.5100   48.6380 C   0  0  0  0  0  0  0  0  0  0  0  0
   58.6940   29.5590   48.0160 N   0  0  0  0  0  0  0  0  0  0  0  0
   58.4960   29.7990   46.6050 C   0  0  0  0  0  0  0  0  0  0  0  0
   58.3680   28.7320   45.6760 C   0  0  0  0  0  0  0  0  0  0  0  0
   58.7010   27.4070   46.0310 C   0  0  0  0  0  0  0  0  0  0  0  0
   58.5580   26.3640   45.1190 C   0  0  0  0  0  0  0  0  0  0  0  0
   58.0930   26.6160   43.8330 C   0  0  0  0  0  0  0  0  0  0  0  0
   57.7710   27.9150   43.4420 C   0  0  0  0  0  0  0  0  0  0  0  0
   57.8910   29.0010   44.3450 C   0  0  0  0  0  0  0  0  0  0  0  0
   57.5720   30.2940   43.9610 N   0  0  0  0  0  0  0  0  0  0  0  0
   56.9650   30.5790   42.6490 C   0  0  0  0  0  0  0  0  0  0  0  0
   57.8770   31.3180   44.8180 C   0  0  0  0  0  0  0  0  0  0  0  0
   57.8530   32.6430   44.5260 N   0  0  0  0  0  0  0  0  0  0  0  0
   58.3480   33.2530   45.6200 C   0  0  0  0  0  0  0  0  0  0  0  0
   58.6240   34.6100   45.7600 C   0  0  0  0  0  0  0  0  0  0  0  0
   59.2680   35.0390   46.9330 C   0  0  0  0  0  0  0  0  0  0  0  0
   59.6470   34.1120   47.9290 C   0  0  0  0  0  0  0  0  0  0  0  0
   60.3280   34.5910   49.0570 O   0  0  0  0  0  0  0  0  0  0  0  0
   61.3000   33.8510   49.7970 C   0  0  0  0  0  0  0  0  0  0  0  0
   62.7250   34.2030   49.3200 C   0  0  0  0  0  0  0  0  0  0  0  0
   63.4750   33.0940   48.6470 N   0  0  0  0  0  0  0  0  0  0  0  0
   63.7290   33.4060   47.2170 C   0  0  0  0  0  0  0  0  0  0  0  0
   64.7600   32.8100   49.3250 C   0  0  0  0  0  0  0  0  0  0  0  0
   62.6340   31.8730   48.7120 C   0  0  0  0  0  0  0  0  0  0  0  0
   59.3800   32.7350   47.7420 C   0  0  0  0  0  0  0  0  0  0  0  0
   58.6820   32.3430   46.5990 C   0  0  0  0  0  0  0  0  0  0  0  0
   58.3520   31.0940   46.0950 C   0  0  0  0  0  0  0  0  0  0  0  0
   58.4750   32.2480   52.6123 H   0  0  0  0  0  0  0  0  0  0  0  0
   59.7420   32.7156   51.4280 H   0  0  0  0  0  0  0  0  0  0  0  0
   58.1569   33.5605   51.4280 H   0  0  0  0  0  0  0  0  0  0  0  0
   57.0255   31.4727   50.7431 H   0  0  0  0  0  0  0  0  0  0  0  0
   58.3505   31.9200   49.5778 H   0  0  0  0  0  0  0  0  0  0  0  0
   58.1300   29.5140   50.2680 H   0  0  0  0  0  0  0  0  0  0  0  0
   59.3734   28.8464   52.2274 H   0  0  0  0  0  0  0  0  0  0  0  0
   59.3540   30.5999   52.7232 H   0  0  0  0  0  0  0  0  0  0  0  0
   57.5765   29.6327   53.9347 H   0  0  0  0  0  0  0  0  0  0  0  0
   56.7905   30.4332   52.5319 H   0  0  0  0  0  0  0  0  0  0  0  0
   57.0298   28.6530   52.5319 H   0  0  0  0  0  0  0  0  0  0  0  0
   60.4596   31.1405   49.9786 H   0  0  0  0  0  0  0  0  0  0  0  0
   60.6539   29.4369   50.6669 H   0  0  0  0  0  0  0  0  0  0  0  0
   60.7272   30.0664   48.0032 H   0  0  0  0  0  0  0  0  0  0  0  0
   60.3025   28.4506   48.7322 H   0  0  0  0  0  0  0  0  0  0  0  0
   57.8670   29.4700   48.6470 H   0  0  0  0  0  0  0  0  0  0  0  0
   59.0788   27.1952   47.0422 H   0  0  0  0  0  0  0  0  0  0  0  0
   58.8140   25.3366   45.4173 H   0  0  0  0  0  0  0  0  0  0  0  0
   57.9786   25.7860   43.1203 H   0  0  0  0  0  0  0  0  0  0  0  0
   57.4183   28.1000   42.4166 H   0  0  0  0  0  0  0  0  0  0  0  0
   55.9780   31.0424   42.7945 H   0  0  0  0  0  0  0  0  0  0  0  0
   57.6136   31.2667   42.0865 H   0  0  0  0  0  0  0  0  0  0  0  0
   56.8502   29.6407   42.0865 H   0  0  0  0  0  0  0  0  0  0  0  0
   57.6080   33.1130   43.6280 H   0  0  0  0  0  0  0  0  0  0  0  0
   58.3456   35.3272   44.9738 H   0  0  0  0  0  0  0  0  0  0  0  0
   59.4793   36.1088   47.0772 H   0  0  0  0  0  0  0  0  0  0  0  0
   61.2050   34.0957   50.8652 H   0  0  0  0  0  0  0  0  0  0  0  0
   61.1265   32.7766   49.6373 H   0  0  0  0  0  0  0  0  0  0  0  0
   62.6471   35.0389   48.6092 H   0  0  0  0  0  0  0  0  0  0  0  0
   63.2957   34.4438   50.2290 H   0  0  0  0  0  0  0  0  0  0  0  0
   64.4220   34.2572   47.1449 H   0  0  0  0  0  0  0  0  0  0  0  0
   64.1731   32.5289   46.7236 H   0  0  0  0  0  0  0  0  0  0  0  0
   62.7800   33.6629   46.7236 H   0  0  0  0  0  0  0  0  0  0  0  0
   64.6145   32.8422   50.4149 H   0  0  0  0  0  0  0  0  0  0  0  0
   65.1163   31.8114   49.0320 H   0  0  0  0  0  0  0  0  0  0  0  0
   65.5040   33.5654   49.0320 H   0  0  0  0  0  0  0  0  0  0  0  0
   62.4520   31.6087   49.7642 H   0  0  0  0  0  0  0  0  0  0  0  0
   61.6737   32.0621   48.2100 H   0  0  0  0  0  0  0  0  0  0  0  0
   63.1530   31.0431   48.2100 H   0  0  0  0  0  0  0  0  0  0  0  0
   59.7147   31.9912   48.4801 H   0  0  0  0  0  0  0  0  0  0  0  0
  1  2  1  0
  2  3  1  0
  3  4  1  0
  4  5  1  0
  3  6  1  0
  6  7  1  0
  7  8  1  0
  8  9  1  0
  9 10  2  0
 10 11  1  0
 11 12  2  0
 12 13  1  0
 13 14  2  0
 14 15  1  0
 15 16  2  0
 16 17  1  0
 16 18  1  0
 18 19  1  0
 19 20  1  0
 20 21  2  0
 21 22  1  0
 22 23  2  0
 23 24  1  0
 24 25  1  0
 25 26  1  0
 26 27  1  0
 27 28  1  0
 27 29  1  0
 27 30  1  0
 23 31  1  0
 31 32  2  0
 32 33  1  0
 33  9  1  0
 15 10  1  0
 33 18  2  0
 32 20  1  0
  1 34  1  0
  1 35  1  0
  1 36  1  0
  2 37  1  0
  2 38  1  0
  3 39  1  0
  4 40  1  0
  4 41  1  0
  5 42  1  0
  5 43  1  0
  5 44  1  0
  6 45  1  0
  6 46  1  0
  7 47  1  0
  7 48  1  0
  8 49  1  0
 11 50  1  0
 12 51  1  0
 13 52  1  0
 14 53  1  0
 17 54  1  0
 17 55  1  0
 17 56  1  0
 19 57  1  0
 21 58  1  0
 22 59  1  0
 25 60  1  0
 25 61  1  0
 26 62  1  0
 26 63  1  0
 28 64  1  0
 28 65  1  0
 28 66  1  0
 29 67  1  0
 29 68  1  0
 29 69  1  0
 30 70  1  0
 30 71  1  0
 30 72  1  0
 31 73  1  0
M  CHG  3   3   1  16   1  27   1
M  END
>  <UniqueID>  (12) 
12

>  <SMILES>  (12) 
CC[NH+](CC)CCNc1c2ccccc2[n+](C)c2[nH]c3ccc(OCC[N+](C)(C)C)cc3c12

>  <Energy>  (12) 
148.6374266026505

>  <Genealogy>  (12) 
CC[NH+](CC)CCNc1c2ccccc2[n+](C)c2[nH]c3ccc(OCC[N+](C)(C)C)cc3c12 (protonated)
CC[NH+](CC)CCNc1c2ccccc2[n+](C)c2[nH]c3ccc(OCC[N+](C)(C)C)cc3c12 (3D coordinates assigned)
CC[NH+](CC)CCNc1c2ccccc2[n+](C)c2[nH]c3ccc(OCC[N+](C)(C)C)cc3c12 (optimized conformer: 148.6374266026505 kcal/mol)

>  <smiles>  (12) 
CCN(CC)CCNc1c2ccccc2[n+](C)c2[nH]c3ccc(OCC[N+](C)(C)C)cc3c12

>  <score_type>  (12) 
oracle

>  <origin>  (12) 
adg

>  <m_score__min__energy>  (12) 
-3.8399999999999999

>  <m_primary>  (12) 
energy

$$$$
12:0
     RDKit          3D

 49 52  0  0  0  0  0  0  0  0999 V2000
   58.0730   27.1240   42.9620 C   0  0  0  0  0  0  0  0  0  0  0  0
   59.0090   27.8180   43.9490 C   0  0  0  0  0  0  0  0  0  0  0  0
   58.2670   28.8080   44.7580 N   0  0  0  0  0  0  0  0  0  0  0  0
   57.4390   29.7170   43.9220 C   0  0  0  0  0  0  0  0  0  0  0  0
   58.0670   31.1130   43.7700 C   0  0  0  0  0  0  0  0  0  0  0  0
   58.2740   31.7850   45.0840 N   0  0  0  0  0  0  0  0  0  0  0  0
   57.1270   32.6720   45.4030 C   0  0  0  0  0  0  0  0  0  0  0  0
   57.5400   33.8850   46.2580 C   0  0  0  0  0  0  0  0  0  0  0  0
   58.8140   33.6140   46.9390 N   0  0  0  0  0  0  0  0  0  0  0  0
   60.0650   33.8640   46.2690 C   0  0  0  0  0  0  0  0  0  0  0  0
   60.0720   34.3470   45.1030 O   0  0  0  0  0  0  0  0  0  0  0  0
   61.3440   33.5520   46.9480 C   0  0  0  0  0  0  0  0  0  0  0  0
   62.5710   33.8200   46.3160 C   0  0  0  0  0  0  0  0  0  0  0  0
   63.7770   33.5270   46.9550 C   0  0  0  0  0  0  0  0  0  0  0  0
   63.7780   32.9610   48.2300 C   0  0  0  0  0  0  0  0  0  0  0  0
   62.5670   32.6830   48.8800 C   0  0  0  0  0  0  0  0  0  0  0  0
   62.5700   32.1120   50.1600 C   0  0  0  0  0  0  0  0  0  0  0  0
   61.3650   31.8310   50.8050 C   0  0  0  0  0  0  0  0  0  0  0  0
   60.1490   32.1180   50.1830 C   0  0  0  0  0  0  0  0  0  0  0  0
   60.1210   32.6930   48.9010 C   0  0  0  0  0  0  0  0  0  0  0  0
   61.3360   32.9790   48.2390 C   0  0  0  0  0  0  0  0  0  0  0  0
   58.8290   32.9960   48.2410 C   0  0  0  0  0  0  0  0  0  0  0  0
   57.7450   32.7100   48.8180 O   0  0  0  0  0  0  0  0  0  0  0  0
   58.5390   30.8210   46.1870 C   0  0  0  0  0  0  0  0  0  0  0  0
   59.1820   29.5270   45.6730 C   0  0  0  0  0  0  0  0  0  0  0  0
   57.3098   26.5581   43.5164 H   0  0  0  0  0  0  0  0  0  0  0  0
   57.5825   27.8784   42.3293 H   0  0  0  0  0  0  0  0  0  0  0  0
   58.6524   26.4355   42.3293 H   0  0  0  0  0  0  0  0  0  0  0  0
   59.4536   27.0653   44.6166 H   0  0  0  0  0  0  0  0  0  0  0  0
   59.7975   28.3384   43.3856 H   0  0  0  0  0  0  0  0  0  0  0  0
   57.3246   29.2710   42.9230 H   0  0  0  0  0  0  0  0  0  0  0  0
   56.4678   29.8403   44.4236 H   0  0  0  0  0  0  0  0  0  0  0  0
   59.0402   31.0105   43.2677 H   0  0  0  0  0  0  0  0  0  0  0  0
   57.3744   31.7317   43.1805 H   0  0  0  0  0  0  0  0  0  0  0  0
   59.1210   32.3930   44.9800 H   0  0  0  0  0  0  0  0  0  0  0  0
   56.6901   33.0363   44.4615 H   0  0  0  0  0  0  0  0  0  0  0  0
   56.4014   32.0844   45.9845 H   0  0  0  0  0  0  0  0  0  0  0  0
   57.6549   34.7654   45.6086 H   0  0  0  0  0  0  0  0  0  0  0  0
   56.7623   34.0747   47.0124 H   0  0  0  0  0  0  0  0  0  0  0  0
   62.5807   34.2642   45.3097 H   0  0  0  0  0  0  0  0  0  0  0  0
   64.7305   33.7433   46.4510 H   0  0  0  0  0  0  0  0  0  0  0  0
   64.7321   32.7320   48.7272 H   0  0  0  0  0  0  0  0  0  0  0  0
   63.5245   31.8849   50.6573 H   0  0  0  0  0  0  0  0  0  0  0  0
   61.3735   31.3810   51.8087 H   0  0  0  0  0  0  0  0  0  0  0  0
   59.2049   31.8923   50.7004 H   0  0  0  0  0  0  0  0  0  0  0  0
   59.2173   31.2906   46.9145 H   0  0  0  0  0  0  0  0  0  0  0  0
   57.5765   30.5621   46.6523 H   0  0  0  0  0  0  0  0  0  0  0  0
   60.1084   29.7749   45.1341 H   0  0  0  0  0  0  0  0  0  0  0  0
   59.3994   28.8774   46.5337 H   0  0  0  0  0  0  0  0  0  0  0  0
  1  2  1  0
  2  3  1  0
  3  4  1  0
  4  5  1  0
  5  6  1  0
  6  7  1  0
  7  8  1  0
  8  9  1  0
  9 10  1  0
 10 11  2  0
 10 12  1  0
 12 13  2  0
 13 14  1  0
 14 15  2  0
 15 16  1  0
 16 17  2  0
 17 18  1  0
 18 19  2  0
 19 20  1  0
 20 21  2  0
 20 22  1  0
 22 23  2  0
  6 24  1  0
 24 25  1  0
 25  3  1  0
 22  9  1  0
 21 12  1  0
 21 16  1  0
  1 26  1  0
  1 27  1  0
  1 28  1  0
  2 29  1  0
  2 30  1  0
  4 31  1  0
  4 32  1  0
  5 33  1  0
  5 34  1  0
  6 35  1  0
  7 36  1  0
  7 37  1  0
  8 38  1  0
  8 39  1  0
 13 40  1  0
 14 41  1  0
 15 42  1  0
 17 43  1  0
 18 44  1  0
 19 45  1  0
 24 46  1  0
 24 47  1  0
 25 48  1  0
 25 49  1  0
M  CHG  1   6   1
M  END
>  <UniqueID>  (13) 
13

>  <SMILES>  (13) 
CCN1CC[NH+](CCN2C(=O)c3cccc4cccc(c34)C2=O)CC1

>  <Energy>  (13) 
68.70133413715013

>  <Genealogy>  (13) 
CCN1CC[NH+](CCN2C(=O)c3cccc4cccc(c34)C2=O)CC1 (protonated)
CCN1CC[NH+](CCN2C(=O)c3cccc4cccc(c34)C2=O)CC1 (3D coordinates assigned)
CCN1CC[NH+](CCN2C(=O)c3cccc4cccc(c34)C2=O)CC1 (nonaromatic ring conformer: 68.70133413715013 kcal/mol)

>  <smiles>  (13) 
CCN1CCN(CCN2C(=O)c3cccc4cccc(c34)C2=O)CC1

>  <score_type>  (13) 
oracle

>  <origin>  (13) 
adg

>  <m_score__min__energy>  (13) 
-6.4199999999999999

>  <m_primary>  (13) 
energy

$$$$
13:0
     RDKit          3D

 74 76  0  0  0  0  0  0  0  0999 V2000
   65.1480   32.7730   49.7670 C   0  0  0  0  0  0  0  0  0  0  0  0
   63.8450   31.9810   49.6810 C   0  0  0  0  0  0  0  0  0  0  0  0
   62.9370   32.5980   48.6860 N   0  0  0  0  0  0  0  0  0  0  0  0
   63.5340   32.6280   47.3310 C   0  0  0  0  0  0  0  0  0  0  0  0
   63.0180   33.8100   46.5070 C   0  0  0  0  0  0  0  0  0  0  0  0
   62.3730   33.8920   49.1480 C   0  0  0  0  0  0  0  0  0  0  0  0
   61.6110   33.8260   50.4840 C   0  0  0  0  0  0  0  0  0  0  0  0
   60.4550   33.0370   50.3020 O   0  0  0  0  0  0  0  0  0  0  0  0
   59.3340   33.6960   50.8510 C   0  0  0  0  0  0  0  0  0  0  0  0
   58.2560   32.6660   51.2030 C   0  0  0  0  0  0  0  0  0  0  0  0
   58.3960   31.4790   50.4410 O   0  0  0  0  0  0  0  0  0  0  0  0
   58.2270   30.3250   51.2440 C   0  0  0  0  0  0  0  0  0  0  0  0
   59.4620   29.4230   51.1130 C   0  0  0  0  0  0  0  0  0  0  0  0
   60.7140   30.1790   50.9450 N   0  0  0  0  0  0  0  0  0  0  0  0
   61.6010   29.5770   49.9410 C   0  0  0  0  0  0  0  0  0  0  0  0
   61.2600   30.1000   48.5420 C   0  0  0  0  0  0  0  0  0  0  0  0
   60.3080   31.2240   48.6060 N   0  0  0  0  0  0  0  0  0  0  0  0
   59.4950   31.2840   47.4010 C   0  0  0  0  0  0  0  0  0  0  0  0
   59.3390   32.5030   46.6900 C   0  0  0  0  0  0  0  0  0  0  0  0
   59.8050   33.7360   47.2090 C   0  0  0  0  0  0  0  0  0  0  0  0
   59.6090   34.9270   46.5160 C   0  0  0  0  0  0  0  0  0  0  0  0
   58.9340   34.9260   45.3050 C   0  0  0  0  0  0  0  0  0  0  0  0
   58.4660   33.7310   44.7670 C   0  0  0  0  0  0  0  0  0  0  0  0
   58.6810   32.4940   45.4270 C   0  0  0  0  0  0  0  0  0  0  0  0
   58.2550   31.3030   44.8750 N   0  0  0  0  0  0  0  0  0  0  0  0
   57.8920   31.2380   43.4410 C   0  0  0  0  0  0  0  0  0  0  0  0
   58.1760   30.1690   45.6570 C   0  0  0  0  0  0  0  0  0  0  0  0
   57.4540   29.0270   45.2260 C   0  0  0  0  0  0  0  0  0  0  0  0
   57.4020   27.8650   45.9980 C   0  0  0  0  0  0  0  0  0  0  0  0
   56.6740   26.7230   45.5350 N   0  0  0  0  0  0  0  0  0  0  0  0
   58.0520   27.8270   47.2270 C   0  0  0  0  0  0  0  0  0  0  0  0
   58.7400   28.9440   47.6940 C   0  0  0  0  0  0  0  0  0  0  0  0
   58.8130   30.1320   46.9280 C   0  0  0  0  0  0  0  0  0  0  0  0
   65.4109   32.9328   50.8231 H   0  0  0  0  0  0  0  0  0  0  0  0
   65.9523   32.2108   49.2699 H   0  0  0  0  0  0  0  0  0  0  0  0
   65.0193   33.7458   49.2699 H   0  0  0  0  0  0  0  0  0  0  0  0
   64.0673   30.9471   49.3783 H   0  0  0  0  0  0  0  0  0  0  0  0
   63.3555   31.9864   50.6661 H   0  0  0  0  0  0  0  0  0  0  0  0
   64.6268   32.7102   47.4255 H   0  0  0  0  0  0  0  0  0  0  0  0
   63.2499   31.7005   46.8123 H   0  0  0  0  0  0  0  0  0  0  0  0
   62.6710   34.6049   47.1835 H   0  0  0  0  0  0  0  0  0  0  0  0
   63.8292   34.1967   45.8726 H   0  0  0  0  0  0  0  0  0  0  0  0
   62.1829   33.4780   45.8726 H   0  0  0  0  0  0  0  0  0  0  0  0
   63.2027   34.6051   49.2625 H   0  0  0  0  0  0  0  0  0  0  0  0
   61.6385   34.1976   48.3883 H   0  0  0  0  0  0  0  0  0  0  0  0
   62.2519   33.3729   51.2547 H   0  0  0  0  0  0  0  0  0  0  0  0
   61.3288   34.8389   50.8073 H   0  0  0  0  0  0  0  0  0  0  0  0
   59.6356   34.2361   51.7606 H   0  0  0  0  0  0  0  0  0  0  0  0
   58.9326   34.4094   50.1162 H   0  0  0  0  0  0  0  0  0  0  0  0
   58.3374   32.4156   52.2710 H   0  0  0  0  0  0  0  0  0  0  0  0
   57.2740   33.1060   50.9749 H   0  0  0  0  0  0  0  0  0  0  0  0
   58.1023   30.6250   52.2949 H   0  0  0  0  0  0  0  0  0  0  0  0
   57.3349   29.7746   50.9106 H   0  0  0  0  0  0  0  0  0  0  0  0
   59.5439   28.8075   52.0210 H   0  0  0  0  0  0  0  0  0  0  0  0
   59.3257   28.8093   50.2103 H   0  0  0  0  0  0  0  0  0  0  0  0
   60.4990   31.1660   50.6700 H   0  0  0  0  0  0  0  0  0  0  0  0
   62.6439   29.8332   50.1791 H   0  0  0  0  0  0  0  0  0  0  0  0
   61.4661   28.4854   49.9556 H   0  0  0  0  0  0  0  0  0  0  0  0
   62.1840   30.4409   48.0521 H   0  0  0  0  0  0  0  0  0  0  0  0
   60.7942   29.2834   47.9708 H   0  0  0  0  0  0  0  0  0  0  0  0
   59.7040   31.1460   49.4530 H   0  0  0  0  0  0  0  0  0  0  0  0
   60.8160   32.1270   48.7500 H   0  0  0  0  0  0  0  0  0  0  0  0
   60.3303   33.7524   48.1754 H   0  0  0  0  0  0  0  0  0  0  0  0
   59.9907   35.8718   46.9303 H   0  0  0  0  0  0  0  0  0  0  0  0
   58.7680   35.8718   44.7683 H   0  0  0  0  0  0  0  0  0  0  0  0
   57.9194   33.7459   43.8125 H   0  0  0  0  0  0  0  0  0  0  0  0
   56.8134   31.0449   43.3442 H   0  0  0  0  0  0  0  0  0  0  0  0
   58.1381   32.1945   42.9567 H   0  0  0  0  0  0  0  0  0  0  0  0
   58.4547   30.4263   42.9567 H   0  0  0  0  0  0  0  0  0  0  0  0
   56.9236   29.0575   44.2628 H   0  0  0  0  0  0  0  0  0  0  0  0
   56.5010   26.5740   44.5150 H   0  0  0  0  0  0  0  0  0  0  0  0
   56.3140   26.0100   46.2080 H   0  0  0  0  0  0  0  0  0  0  0  0
   58.0224   26.9097   47.8334 H   0  0  0  0  0  0  0  0  0  0  0  0
   59.2354   28.9024   48.6753 H   0  0  0  0  0  0  0  0  0  0  0  0
  1  2  1  0
  2  3  1  0
  3  4  1  0
  4  5  1  0
  3  6  1  0
  6  7  1  0
  7  8  1  0
  8  9  1  0
  9 10  1  0
 10 11  1  0
 11 12  1  0
 12 13  1  0
 13 14  1  0
 14 15  1  0
 15 16  1  0
 16 17  1  0
 17 18  1  0
 18 19  2  0
 19 20  1  0
 20 21  2  0
 21 22  1  0
 22 23  2  0
 23 24  1  0
 24 25  2  0
 25 26  1  0
 25 27  1  0
 27 28  2  0
 28 29  1  0
 29 30  1  0
 29 31  2  0
 31 32  1  0
 32 33  2  0
 33 18  1  0
 24 19  1  0
 33 27  1  0
  1 34  1  0
  1 35  1  0
  1 36  1  0
  2 37  1  0
  2 38  1  0
  4 39  1  0
  4 40  1  0
  5 41  1  0
  5 42  1  0
  5 43  1  0
  6 44  1  0
  6 45  1  0
  7 46  1  0
  7 47  1  0
  9 48  1  0
  9 49  1  0
 10 50  1  0
 10 51  1  0
 12 52  1  0
 12 53  1  0
 13 54  1  0
 13 55  1  0
 14 56  1  0
 15 57  1  0
 15 58  1  0
 16 59  1  0
 16 60  1  0
 17 61  1  0
 17 62  1  0
 20 63  1  0
 21 64  1  0
 22 65  1  0
 23 66  1  0
 26 67  1  0
 26 68  1  0
 26 69  1  0
 28 70  1  0
 30 71  1  0
 30 72  1  0
 31 73  1  0
 32 74  1  0
M  CHG  2  17   1  25   1
M  END
>  <UniqueID>  (14) 
14

>  <SMILES>  (14) 
CCN(CC)CCOCCOCCNCC[NH2+]c1c2ccccc2[n+](C)c2cc(N)ccc12

>  <Energy>  (14) 
101.44546861681908

>  <Genealogy>  (14) 
CCN(CC)CCOCCOCCNCC[NH2+]c1c2ccccc2[n+](C)c2cc(N)ccc12 (protonated)
CCN(CC)CCOCCOCCNCC[NH2+]c1c2ccccc2[n+](C)c2cc(N)ccc12 (3D coordinates assigned)
CCN(CC)CCOCCOCCNCC[NH2+]c1c2ccccc2[n+](C)c2cc(N)ccc12 (optimized conformer: 101.44546861681908 kcal/mol)

>  <smiles>  (14) 
CCN(CC)CCOCCOCCNCCNc1c2ccccc2[n+](C)c2cc(N)ccc12

>  <score_type>  (14) 
oracle

>  <origin>  (14) 
adg

>  <m_score__min__energy>  (14) 
-3.46

>  <m_primary>  (14) 
energy

$$$$
14:0
     RDKit          3D

 38 40  0  0  0  0  0  0  0  0999 V2000
   57.6210   32.3420   41.5410 C   0  0  0  0  0  0  0  0  0  0  0  0
   57.4020   31.3800   42.6600 C   0  0  0  0  0  0  0  0  0  0  0  0
   56.5370   30.3040   42.6390 C   0  0  0  0  0  0  0  0  0  0  0  0
   56.6420   29.7170   43.8810 C   0  0  0  0  0  0  0  0  0  0  0  0
   57.5640   30.4750   44.5770 C   0  0  0  0  0  0  0  0  0  0  0  0
   57.9900   30.2480   45.9950 C   0  0  0  0  0  0  0  0  0  0  0  0
   59.3970   30.6550   46.1890 N   0  0  0  0  0  0  0  0  0  0  0  0
   59.5410   31.6970   47.2280 C   0  0  0  0  0  0  0  0  0  0  0  0
   59.4680   33.0710   46.6200 C   0  0  0  0  0  0  0  0  0  0  0  0
   59.1480   33.2950   45.3290 N   0  0  0  0  0  0  0  0  0  0  0  0
   59.2230   34.6280   45.1630 C   0  0  0  0  0  0  0  0  0  0  0  0
   59.6020   35.2030   46.3580 C   0  0  0  0  0  0  0  0  0  0  0  0
   59.7730   34.2200   47.2640 N   0  0  0  0  0  0  0  0  0  0  0  0
   60.1490   34.3950   48.6640 C   0  0  0  0  0  0  0  0  0  0  0  0
   60.3240   29.4870   46.2340 C   0  0  0  0  0  0  0  0  0  0  0  0
   60.7130   28.9110   44.8760 C   0  0  0  0  0  0  0  0  0  0  0  0
   59.8420   28.0950   45.8180 C   0  0  0  0  0  0  0  0  0  0  0  0
   57.9970   31.4620   43.8280 O   0  0  0  0  0  0  0  0  0  0  0  0
   57.8475   33.3369   41.9518 H   0  0  0  0  0  0  0  0  0  0  0  0
   58.4642   31.9998   40.9230 H   0  0  0  0  0  0  0  0  0  0  0  0
   56.7127   32.3986   40.9230 H   0  0  0  0  0  0  0  0  0  0  0  0
   55.8970   29.9823   41.8042 H   0  0  0  0  0  0  0  0  0  0  0  0
   56.1034   28.8290   44.2434 H   0  0  0  0  0  0  0  0  0  0  0  0
   57.3475   30.8392   46.6641 H   0  0  0  0  0  0  0  0  0  0  0  0
   57.8969   29.1764   46.2251 H   0  0  0  0  0  0  0  0  0  0  0  0
   58.7323   31.5854   47.9652 H   0  0  0  0  0  0  0  0  0  0  0  0
   60.5208   31.5778   47.7136 H   0  0  0  0  0  0  0  0  0  0  0  0
   58.8970   32.5870   44.6050 H   0  0  0  0  0  0  0  0  0  0  0  0
   59.0162   35.1699   44.2284 H   0  0  0  0  0  0  0  0  0  0  0  0
   59.7408   36.2789   46.5403 H   0  0  0  0  0  0  0  0  0  0  0  0
   59.3419   34.0194   49.3101 H   0  0  0  0  0  0  0  0  0  0  0  0
   61.0732   33.8345   48.8683 H   0  0  0  0  0  0  0  0  0  0  0  0
   60.3152   35.4630   48.8683 H   0  0  0  0  0  0  0  0  0  0  0  0
   60.8364   29.8661   47.1305 H   0  0  0  0  0  0  0  0  0  0  0  0
   60.2815   29.3332   43.9565 H   0  0  0  0  0  0  0  0  0  0  0  0
   61.6637   28.7359   44.3510 H   0  0  0  0  0  0  0  0  0  0  0  0
   58.7809   27.9286   45.5805 H   0  0  0  0  0  0  0  0  0  0  0  0
   59.9018   27.0879   46.2564 H   0  0  0  0  0  0  0  0  0  0  0  0
  1  2  1  0
  2  3  2  0
  3  4  1  0
  4  5  2  0
  5  6  1  0
  6  7  1  0
  7  8  1  0
  8  9  1  0
  9 10  2  0
 10 11  1  0
 11 12  2  0
 12 13  1  0
 13 14  1  0
  7 15  1  0
 15 16  1  0
 16 17  1  0
  5 18  1  0
 18  2  1  0
 13  9  1  0
 17 15  1  0
  1 19  1  0
  1 20  1  0
  1 21  1  0
  3 22  1  0
  4 23  1  0
  6 24  1  0
  6 25  1  0
  8 26  1  0
  8 27  1  0
 10 28  1  0
 11 29  1  0
 12 30  1  0
 14 31  1  0
 14 32  1  0
 14 33  1  0
 15 34  1  0
 16 35  1  0
 16 36  1  0
 17 37  1  0
 17 38  1  0
M  CHG  1  10   1
M  END
>  <UniqueID>  (15) 
15

>  <SMILES>  (15) 
Cc1ccc(CN(Cc2[nH+]ccn2C)C2CC2)o1

>  <Energy>  (15) 
367.3617300954891

>  <Genealogy>  (15) 
Cc1ccc(CN(Cc2[nH+]ccn2C)C2CC2)o1 (protonated)
Cc1ccc(CN(Cc2[nH+]ccn2C)C2CC2)o1 (3D coordinates assigned)
Cc1ccc(CN(Cc2[nH+]ccn2C)C2CC2)o1 (nonaromatic ring conformer: 367.3617300954891 kcal/mol)

>  <smiles>  (15) 
Cc1ccc(CN(Cc2nccn2C)C2CC2)o1

>  <score_type>  (15) 
oracle

>  <origin>  (15) 
adg

>  <m_score__min__energy>  (15) 
-4.3799999999999999

>  <m_primary>  (15) 
energy

$$$$
15:0
     RDKit          3D

 35 35  0  0  0  0  0  0  0  0999 V2000
   58.2780   28.3650   44.4670 C   0  0  0  0  0  0  0  0  0  0  0  0
   57.1910   28.4950   45.5420 C   0  0  0  0  0  0  0  0  0  0  0  0
   56.7440   27.0930   45.9840 C   0  0  0  0  0  0  0  0  0  0  0  0
   56.0460   29.2590   45.0070 N   0  0  0  0  0  0  0  0  0  0  0  0
   56.3370   29.8200   43.6800 C   0  0  0  0  0  0  0  0  0  0  0  0
   56.9960   31.1940   43.8110 C   0  0  0  0  0  0  0  0  0  0  0  0
   56.7790   31.7480   45.1590 N   0  0  0  0  0  0  0  0  0  0  0  0
   57.5870   32.9500   45.4230 C   0  0  0  0  0  0  0  0  0  0  0  0
   58.9450   32.6060   45.9870 C   0  0  0  0  0  0  0  0  0  0  0  0
   59.3180   31.3450   46.2890 N   0  0  0  0  0  0  0  0  0  0  0  0
   60.5610   31.4430   46.7910 C   0  0  0  0  0  0  0  0  0  0  0  0
   60.9310   32.7700   46.7880 C   0  0  0  0  0  0  0  0  0  0  0  0
   62.5900   33.4540   47.4480 Br  0  0  0  0  0  0  0  0  0  0  0  0
   59.9190   33.5020   46.2720 N   0  0  0  0  0  0  0  0  0  0  0  0
   59.8500   34.9590   46.1650 C   0  0  0  0  0  0  0  0  0  0  0  0
   59.2593   28.2476   44.9501 H   0  0  0  0  0  0  0  0  0  0  0  0
   58.0704   27.4853   43.8401 H   0  0  0  0  0  0  0  0  0  0  0  0
   58.2837   29.2689   43.8401 H   0  0  0  0  0  0  0  0  0  0  0  0
   57.5928   29.0339   46.4127 H   0  0  0  0  0  0  0  0  0  0  0  0
   56.7280   27.0427   47.0827 H   0  0  0  0  0  0  0  0  0  0  0  0
   55.7363   26.8891   45.5929 H   0  0  0  0  0  0  0  0  0  0  0  0
   57.4477   26.3435   45.5929 H   0  0  0  0  0  0  0  0  0  0  0  0
   55.8490   30.0700   45.6400 H   0  0  0  0  0  0  0  0  0  0  0  0
   57.0165   29.1427   43.1419 H   0  0  0  0  0  0  0  0  0  0  0  0
   55.3931   29.9300   43.1259 H   0  0  0  0  0  0  0  0  0  0  0  0
   58.0766   31.0951   43.6307 H   0  0  0  0  0  0  0  0  0  0  0  0
   56.5470   31.8740   43.0721 H   0  0  0  0  0  0  0  0  0  0  0  0
   57.0030   31.0190   45.8750 H   0  0  0  0  0  0  0  0  0  0  0  0
   57.7230   33.5006   44.4805 H   0  0  0  0  0  0  0  0  0  0  0  0
   57.0547   33.5606   46.1672 H   0  0  0  0  0  0  0  0  0  0  0  0
   58.7540   30.4730   46.1790 H   0  0  0  0  0  0  0  0  0  0  0  0
   61.1789   30.6046   47.1448 H   0  0  0  0  0  0  0  0  0  0  0  0
   59.8291   35.4001   47.1725 H   0  0  0  0  0  0  0  0  0  0  0  0
   60.7316   35.3289   45.6210 H   0  0  0  0  0  0  0  0  0  0  0  0
   58.9374   35.2439   45.6210 H   0  0  0  0  0  0  0  0  0  0  0  0
  1  2  1  0
  2  3  1  0
  2  4  1  0
  4  5  1  0
  5  6  1  0
  6  7  1  0
  7  8  1  0
  8  9  1  0
  9 10  2  0
 10 11  1  0
 11 12  2  0
 12 13  1  0
 12 14  1  0
 14 15  1  0
 14  9  1  0
  1 16  1  0
  1 17  1  0
  1 18  1  0
  2 19  1  0
  3 20  1  0
  3 21  1  0
  3 22  1  0
  4 23  1  0
  5 24  1  0
  5 25  1  0
  6 26  1  0
  6 27  1  0
  7 28  1  0
  8 29  1  0
  8 30  1  0
 10 31  1  0
 11 32  1  0
 15 33  1  0
 15 34  1  0
 15 35  1  0
M  CHG  1  10   1
M  END
>  <UniqueID>  (16) 
16

>  <SMILES>  (16) 
CC(C)NCCNCc1[nH+]cc(Br)n1C

>  <Energy>  (16) 
58.56177509458678

>  <Genealogy>  (16) 
CC(C)NCCNCc1[nH+]cc(Br)n1C (protonated)
CC(C)NCCNCc1[nH+]cc(Br)n1C (3D coordinates assigned)
CC(C)NCCNCc1[nH+]cc(Br)n1C (optimized conformer: 58.56177509458678 kcal/mol)

>  <smiles>  (16) 
CC(C)NCCNCc1ncc(Br)n1C

>  <score_type>  (16) 
oracle

>  <origin>  (16) 
adg

>  <m_score__min__energy>  (16) 
-4.2300000000000004

>  <m_primary>  (16) 
energy

$$$$
16:0
     RDKit          3D

 51 53  0  0  0  0  0  0  0  0999 V2000
   59.9280   33.8170   51.0100 C   0  0  0  0  0  0  0  0  0  0  0  0
   59.6440   33.7430   49.5490 C   0  0  0  0  0  0  0  0  0  0  0  0
   59.9040   34.7530   48.6910 N   0  0  0  0  0  0  0  0  0  0  0  0
   59.5070   34.2580   47.5030 C   0  0  0  0  0  0  0  0  0  0  0  0
   59.6450   35.0020   46.2140 C   0  0  0  0  0  0  0  0  0  0  0  0
   59.0280   32.9740   47.6880 C   0  0  0  0  0  0  0  0  0  0  0  0
   58.5030   32.0480   46.6750 C   0  0  0  0  0  0  0  0  0  0  0  0
   57.9760   32.4890   45.5030 N   0  0  0  0  0  0  0  0  0  0  0  0
   57.6860   31.3470   44.8530 C   0  0  0  0  0  0  0  0  0  0  0  0
   57.1480   31.2130   43.5750 C   0  0  0  0  0  0  0  0  0  0  0  0
   56.9800   29.9120   43.0680 C   0  0  0  0  0  0  0  0  0  0  0  0
   57.3610   28.7900   43.8370 C   0  0  0  0  0  0  0  0  0  0  0  0
   57.9080   28.9590   45.1230 C   0  0  0  0  0  0  0  0  0  0  0  0
   58.0430   30.2640   45.6030 C   0  0  0  0  0  0  0  0  0  0  0  0
   58.5570   30.6910   46.7700 N   0  0  0  0  0  0  0  0  0  0  0  0
   59.2650   29.8880   47.7720 C   0  0  0  0  0  0  0  0  0  0  0  0
   60.7690   29.9140   47.5030 C   0  0  0  0  0  0  0  0  0  0  0  0
   61.2220   31.3050   47.3720 N   0  0  0  0  0  0  0  0  0  0  0  0
   62.6730   31.3830   47.1450 C   0  0  0  0  0  0  0  0  0  0  0  0
   63.1860   32.8210   47.2840 C   0  0  0  0  0  0  0  0  0  0  0  0
   62.3390   33.5750   48.2240 N   0  0  0  0  0  0  0  0  0  0  0  0
   63.0410   33.8490   49.4860 C   0  0  0  0  0  0  0  0  0  0  0  0
   62.9270   32.6510   50.4290 C   0  0  0  0  0  0  0  0  0  0  0  0
   61.9240   31.7100   49.9400 N   0  0  0  0  0  0  0  0  0  0  0  0
   59.1390   32.6830   48.9590 O   0  0  0  0  0  0  0  0  0  0  0  0
   59.0140   33.5788   51.5737 H   0  0  0  0  0  0  0  0  0  0  0  0
   60.7163   33.0943   51.2674 H   0  0  0  0  0  0  0  0  0  0  0  0
   60.2634   34.8325   51.2674 H   0  0  0  0  0  0  0  0  0  0  0  0
   59.8420   36.0639   46.4228 H   0  0  0  0  0  0  0  0  0  0  0  0
   60.4804   34.5810   45.6353 H   0  0  0  0  0  0  0  0  0  0  0  0
   58.7142   34.9086   45.6353 H   0  0  0  0  0  0  0  0  0  0  0  0
   56.8641   32.0951   42.9823 H   0  0  0  0  0  0  0  0  0  0  0  0
   56.5492   29.7672   42.0663 H   0  0  0  0  0  0  0  0  0  0  0  0
   57.2294   27.7773   43.4281 H   0  0  0  0  0  0  0  0  0  0  0  0
   58.2181   28.0944   45.7283 H   0  0  0  0  0  0  0  0  0  0  0  0
   59.0678   30.2996   48.7728 H   0  0  0  0  0  0  0  0  0  0  0  0
   58.9085   28.8489   47.7161 H   0  0  0  0  0  0  0  0  0  0  0  0
   61.2988   29.4336   48.3388 H   0  0  0  0  0  0  0  0  0  0  0  0
   60.9829   29.3708   46.5707 H   0  0  0  0  0  0  0  0  0  0  0  0
   61.0140   31.7920   48.2740 H   0  0  0  0  0  0  0  0  0  0  0  0
   63.1850   30.7478   47.8828 H   0  0  0  0  0  0  0  0  0  0  0  0
   62.8815   31.0392   46.1211 H   0  0  0  0  0  0  0  0  0  0  0  0
   64.2195   32.8032   47.6603 H   0  0  0  0  0  0  0  0  0  0  0  0
   63.1529   33.3104   46.2994 H   0  0  0  0  0  0  0  0  0  0  0  0
   61.4930   32.9980   48.4470 H   0  0  0  0  0  0  0  0  0  0  0  0
   64.1027   34.0449   49.2753 H   0  0  0  0  0  0  0  0  0  0  0  0
   62.5833   34.7265   49.9662 H   0  0  0  0  0  0  0  0  0  0  0  0
   63.9010   32.1434   50.4890 H   0  0  0  0  0  0  0  0  0  0  0  0
   62.6243   33.0088   51.4242 H   0  0  0  0  0  0  0  0  0  0  0  0
   62.3720   31.1230   49.1990 H   0  0  0  0  0  0  0  0  0  0  0  0
   61.1650   32.2520   49.4680 H   0  0  0  0  0  0  0  0  0  0  0  0
  1  2  1  0
  2  3  2  0
  3  4  1  0
  4  5  1  0
  4  6  2  0
  6  7  1  0
  7  8  2  0
  8  9  1  0
  9 10  2  0
 10 11  1  0
 11 12  2  0
 12 13  1  0
 13 14  2  0
 14 15  1  0
 15 16  1  0
 16 17  1  0
 17 18  1  0
 18 19  1  0
 19 20  1  0
 20 21  1  0
 21 22  1  0
 22 23  1  0
 23 24  1  0
  6 25  1  0
 25  2  1  0
 15  7  1  0
 14  9  1  0
  1 26  1  0
  1 27  1  0
  1 28  1  0
  5 29  1  0
  5 30  1  0
  5 31  1  0
 10 32  1  0
 11 33  1  0
 12 34  1  0
 13 35  1  0
 16 36  1  0
 16 37  1  0
 17 38  1  0
 17 39  1  0
 18 40  1  0
 19 41  1  0
 19 42  1  0
 20 43  1  0
 20 44  1  0
 21 45  1  0
 22 46  1  0
 22 47  1  0
 23 48  1  0
 23 49  1  0
 24 50  1  0
 24 51  1  0
M  END
>  <UniqueID>  (17) 
17

>  <SMILES>  (17) 
Cc1nc(C)c(-c2nc3ccccc3n2CCNCCNCCN)o1

>  <Energy>  (17) 
110.5869075464465

>  <Genealogy>  (17) 
Cc1nc(C)c(-c2nc3ccccc3n2CCNCCNCCN)o1 (3D coordinates assigned)
Cc1nc(C)c(-c2nc3ccccc3n2CCNCCNCCN)o1 (optimized conformer: 110.5869075464465 kcal/mol)

>  <smiles>  (17) 
Cc1nc(C)c(-c2nc3ccccc3n2CCNCCNCCN)o1

>  <score_type>  (17) 
oracle

>  <origin>  (17) 
adg

>  <m_score__min__energy>  (17) 
-5.9100000000000001

>  <m_primary>  (17) 
energy

$$$$
17:0
     RDKit          3D

 38 40  0  0  0  0  0  0  0  0999 V2000
   57.8170   32.0380   43.0140 C   0  0  0  0  0  0  0  0  0  0  0  0
   57.3250   30.8830   43.8770 C   0  0  0  0  0  0  0  0  0  0  0  0
   57.3820   31.2250   45.2620 O   0  0  0  0  0  0  0  0  0  0  0  0
   58.5510   31.3080   46.0370 C   0  0  0  0  0  0  0  0  0  0  0  0
   58.8440   32.5270   46.6590 C   0  0  0  0  0  0  0  0  0  0  0  0
   59.9920   32.6680   47.4440 C   0  0  0  0  0  0  0  0  0  0  0  0
   60.8640   31.5840   47.6300 C   0  0  0  0  0  0  0  0  0  0  0  0
   62.0810   31.7580   48.4500 C   0  0  0  0  0  0  0  0  0  0  0  0
   62.1680   31.2960   49.7350 N   0  0  0  0  0  0  0  0  0  0  0  0
   63.4250   31.6350   50.0700 C   0  0  0  0  0  0  0  0  0  0  0  0
   64.3600   31.3660   51.4390 S   0  0  0  0  0  0  0  0  0  0  0  0
   65.6950   32.0950   50.6300 C   0  0  0  0  0  0  0  0  0  0  0  0
   67.0360   32.3150   51.2450 C   0  0  0  0  0  0  0  0  0  0  0  0
   65.3680   32.5070   49.3730 N   0  0  0  0  0  0  0  0  0  0  0  0
   64.0980   32.2320   49.1180 N   0  0  0  0  0  0  0  0  0  0  0  0
   63.3020   32.3390   48.0520 C   0  0  0  0  0  0  0  0  0  0  0  0
   63.7300   32.8590   46.7080 C   0  0  0  0  0  0  0  0  0  0  0  0
   63.0310   34.1770   46.3880 C   0  0  0  0  0  0  0  0  0  0  0  0
   60.5850   30.3680   46.9860 C   0  0  0  0  0  0  0  0  0  0  0  0
   59.4370   30.2270   46.2010 C   0  0  0  0  0  0  0  0  0  0  0  0
   58.1657   32.8565   43.6609 H   0  0  0  0  0  0  0  0  0  0  0  0
   58.6466   31.6938   42.3790 H   0  0  0  0  0  0  0  0  0  0  0  0
   56.9940   32.3977   42.3790 H   0  0  0  0  0  0  0  0  0  0  0  0
   56.2851   30.6478   43.6061 H   0  0  0  0  0  0  0  0  0  0  0  0
   57.9727   30.0113   43.7021 H   0  0  0  0  0  0  0  0  0  0  0  0
   58.1645   33.3822   46.5289 H   0  0  0  0  0  0  0  0  0  0  0  0
   60.2135   33.6350   47.9192 H   0  0  0  0  0  0  0  0  0  0  0  0
   66.9437   32.2999   52.3410 H   0  0  0  0  0  0  0  0  0  0  0  0
   67.7220   31.5174   50.9238 H   0  0  0  0  0  0  0  0  0  0  0  0
   67.4312   33.2900   50.9238 H   0  0  0  0  0  0  0  0  0  0  0  0
   66.0170   32.9670   48.6960 H   0  0  0  0  0  0  0  0  0  0  0  0
   64.8181   33.0202   46.7138 H   0  0  0  0  0  0  0  0  0  0  0  0
   63.4559   32.1198   45.9409 H   0  0  0  0  0  0  0  0  0  0  0  0
   62.7611   34.6859   47.3251 H   0  0  0  0  0  0  0  0  0  0  0  0
   63.7074   34.8185   45.8041 H   0  0  0  0  0  0  0  0  0  0  0  0
   62.1205   33.9768   45.8041 H   0  0  0  0  0  0  0  0  0  0  0  0
   61.2754   29.5193   47.1001 H   0  0  0  0  0  0  0  0  0  0  0  0
   59.2251   29.2663   45.7090 H   0  0  0  0  0  0  0  0  0  0  0  0
  1  2  1  0
  2  3  1  0
  3  4  1  0
  4  5  2  0
  5  6  1  0
  6  7  2  0
  7  8  1  0
  8  9  1  0
  9 10  2  0
 10 11  1  0
 11 12  1  0
 12 13  1  0
 12 14  2  0
 14 15  1  0
 15 16  1  0
 16 17  1  0
 17 18  1  0
  7 19  1  0
 19 20  2  0
 20  4  1  0
 16  8  2  0
 15 10  1  0
  1 21  1  0
  1 22  1  0
  1 23  1  0
  2 24  1  0
  2 25  1  0
  5 26  1  0
  6 27  1  0
 13 28  1  0
 13 29  1  0
 13 30  1  0
 14 31  1  0
 17 32  1  0
 17 33  1  0
 18 34  1  0
 18 35  1  0
 18 36  1  0
 19 37  1  0
 20 38  1  0
M  CHG  1  14   1
M  END
>  <UniqueID>  (18) 
18

>  <SMILES>  (18) 
CCOc1ccc(-c2nc3sc(C)[nH+]n3c2CC)cc1

>  <Energy>  (18) 
121.31861109099349

>  <Genealogy>  (18) 
CCOc1ccc(-c2nc3sc(C)[nH+]n3c2CC)cc1 (protonated)
CCOc1ccc(-c2nc3sc(C)[nH+]n3c2CC)cc1 (3D coordinates assigned)
CCOc1ccc(-c2nc3sc(C)[nH+]n3c2CC)cc1 (optimized conformer: 121.31861109099349 kcal/mol)

>  <smiles>  (18) 
CCOc1ccc(-c2nc3sc(C)nn3c2CC)cc1

>  <score_type>  (18) 
oracle

>  <origin>  (18) 
adg

>  <m_score__min__energy>  (18) 
-5.3600000000000003

>  <m_primary>  (18) 
energy

$$$$
18:0
     RDKit          3D

 50 52  0  0  0  0  0  0  0  0999 V2000
   59.3440   33.4350   50.8940 C   0  0  0  0  0  0  0  0  0  0  0  0
   60.0370   34.1120   49.7140 C   0  0  0  0  0  0  0  0  0  0  0  0
   61.4880   33.6050   49.5580 C   0  0  0  0  0  0  0  0  0  0  0  0
   61.7690   32.9440   48.2560 N   0  0  0  0  0  0  0  0  0  0  0  0
   62.5250   33.8240   47.3350 C   0  0  0  0  0  0  0  0  0  0  0  0
   63.7650   33.0970   46.8300 C   0  0  0  0  0  0  0  0  0  0  0  0
   62.3750   31.5960   48.3590 C   0  0  0  0  0  0  0  0  0  0  0  0
   61.4640   30.5070   47.7580 C   0  0  0  0  0  0  0  0  0  0  0  0
   60.0330   30.8300   47.9160 N   0  0  0  0  0  0  0  0  0  0  0  0
   59.3520   30.8880   46.6340 C   0  0  0  0  0  0  0  0  0  0  0  0
   58.9020   32.1070   46.0580 C   0  0  0  0  0  0  0  0  0  0  0  0
   59.1540   33.3520   46.6780 C   0  0  0  0  0  0  0  0  0  0  0  0
   58.7460   34.5440   46.0860 C   0  0  0  0  0  0  0  0  0  0  0  0
   58.0930   34.5280   44.8600 C   0  0  0  0  0  0  0  0  0  0  0  0
   57.8220   33.3190   44.2240 C   0  0  0  0  0  0  0  0  0  0  0  0
   58.1880   32.0820   44.8130 C   0  0  0  0  0  0  0  0  0  0  0  0
   57.8830   30.8750   44.2000 N   0  0  0  0  0  0  0  0  0  0  0  0
   57.0100   30.8280   43.0080 C   0  0  0  0  0  0  0  0  0  0  0  0
   58.4070   29.7150   44.7160 C   0  0  0  0  0  0  0  0  0  0  0  0
   58.3170   28.4270   44.1390 C   0  0  0  0  0  0  0  0  0  0  0  0
   58.9250   27.4370   44.9020 C   0  0  0  0  0  0  0  0  0  0  0  0
   59.5880   28.1440   46.2740 S   0  0  0  0  0  0  0  0  0  0  0  0
   59.1090   29.7170   45.9110 C   0  0  0  0  0  0  0  0  0  0  0  0
   59.7509   33.8325   51.8355 H   0  0  0  0  0  0  0  0  0  0  0  0
   58.2633   33.6348   50.8484 H   0  0  0  0  0  0  0  0  0  0  0  0
   59.5185   32.3499   50.8484 H   0  0  0  0  0  0  0  0  0  0  0  0
   59.4777   33.8904   48.7931 H   0  0  0  0  0  0  0  0  0  0  0  0
   60.0628   35.1962   49.8981 H   0  0  0  0  0  0  0  0  0  0  0  0
   62.1662   34.4648   49.6612 H   0  0  0  0  0  0  0  0  0  0  0  0
   61.6409   32.8436   50.3371 H   0  0  0  0  0  0  0  0  0  0  0  0
   61.8864   34.0938   46.4809 H   0  0  0  0  0  0  0  0  0  0  0  0
   62.8304   34.7347   47.8710 H   0  0  0  0  0  0  0  0  0  0  0  0
   64.3600   32.7482   47.6869 H   0  0  0  0  0  0  0  0  0  0  0  0
   63.4609   32.2342   46.2192 H   0  0  0  0  0  0  0  0  0  0  0  0
   64.3694   33.7838   46.2192 H   0  0  0  0  0  0  0  0  0  0  0  0
   63.3335   31.5951   47.8193 H   0  0  0  0  0  0  0  0  0  0  0  0
   62.5193   31.3684   49.4255 H   0  0  0  0  0  0  0  0  0  0  0  0
   61.6890   30.4086   46.6858 H   0  0  0  0  0  0  0  0  0  0  0  0
   61.6601   29.5674   48.2952 H   0  0  0  0  0  0  0  0  0  0  0  0
   59.9390   31.7300   48.4390 H   0  0  0  0  0  0  0  0  0  0  0  0
   59.5770   30.1180   48.5290 H   0  0  0  0  0  0  0  0  0  0  0  0
   59.6807   33.3794   47.6433 H   0  0  0  0  0  0  0  0  0  0  0  0
   58.9413   35.5017   46.5906 H   0  0  0  0  0  0  0  0  0  0  0  0
   57.7886   35.4745   44.3894 H   0  0  0  0  0  0  0  0  0  0  0  0
   57.3152   33.3237   43.2477 H   0  0  0  0  0  0  0  0  0  0  0  0
   55.9584   30.7714   43.3257 H   0  0  0  0  0  0  0  0  0  0  0  0
   57.1627   31.7357   42.4057 H   0  0  0  0  0  0  0  0  0  0  0  0
   57.2593   29.9420   42.4057 H   0  0  0  0  0  0  0  0  0  0  0  0
   57.8151   28.2282   43.1806 H   0  0  0  0  0  0  0  0  0  0  0  0
   58.9654   26.3672   44.6492 H   0  0  0  0  0  0  0  0  0  0  0  0
  1  2  1  0
  2  3  1  0
  3  4  1  0
  4  5  1  0
  5  6  1  0
  4  7  1  0
  7  8  1  0
  8  9  1  0
  9 10  1  0
 10 11  2  0
 11 12  1  0
 12 13  2  0
 13 14  1  0
 14 15  2  0
 15 16  1  0
 16 17  2  0
 17 18  1  0
 17 19  1  0
 19 20  1  0
 20 21  2  0
 21 22  1  0
 22 23  1  0
 23 10  1  0
 16 11  1  0
 23 19  2  0
  1 24  1  0
  1 25  1  0
  1 26  1  0
  2 27  1  0
  2 28  1  0
  3 29  1  0
  3 30  1  0
  5 31  1  0
  5 32  1  0
  6 33  1  0
  6 34  1  0
  6 35  1  0
  7 36  1  0
  7 37  1  0
  8 38  1  0
  8 39  1  0
  9 40  1  0
  9 41  1  0
 12 42  1  0
 13 43  1  0
 14 44  1  0
 15 45  1  0
 18 46  1  0
 18 47  1  0
 18 48  1  0
 20 49  1  0
 21 50  1  0
M  CHG  2   9   1  17   1
M  END
>  <UniqueID>  (19) 
19

>  <SMILES>  (19) 
CCCN(CC)CC[NH2+]c1c2ccccc2[n+](C)c2ccsc12

>  <Energy>  (19) 
96.95328627509925

>  <Genealogy>  (19) 
CCCN(CC)CC[NH2+]c1c2ccccc2[n+](C)c2ccsc12 (protonated)
CCCN(CC)CC[NH2+]c1c2ccccc2[n+](C)c2ccsc12 (3D coordinates assigned)
CCCN(CC)CC[NH2+]c1c2ccccc2[n+](C)c2ccsc12 (optimized conformer: 96.95328627509925 kcal/mol)

>  <smiles>  (19) 
CCCN(CC)CCNc1c2ccccc2[n+](C)c2ccsc12

>  <score_type>  (19) 
oracle

>  <origin>  (19) 
adg

>  <m_score__min__energy>  (19) 
-3.7799999999999998

>  <m_primary>  (19) 
energy

$$$$
19:0
     RDKit          3D

 55 57  0  0  0  0  0  0  0  0999 V2000
   61.8690   30.0260   50.1010 H   0  0  0  0  0  0  0  0  0  0  0  0
   61.4030   30.0200   49.2060 O   0  0  0  0  0  0  0  0  0  0  0  0
   60.7910   31.1330   48.6110 C   0  0  0  0  0  0  0  0  0  0  0  0
   61.6070   32.0380   47.9090 C   0  0  0  0  0  0  0  0  0  0  0  0
   62.9920   31.8030   47.7820 C   0  0  0  0  0  0  0  0  0  0  0  0
   63.4329   30.8944   48.2179 H   0  0  0  0  0  0  0  0  0  0  0  0
   63.8070   32.7120   47.1090 C   0  0  0  0  0  0  0  0  0  0  0  0
   64.8843   32.5138   47.0081 H   0  0  0  0  0  0  0  0  0  0  0  0
   63.2600   33.8690   46.5650 C   0  0  0  0  0  0  0  0  0  0  0  0
   63.9077   34.5881   46.0422 H   0  0  0  0  0  0  0  0  0  0  0  0
   61.8920   34.1210   46.6800 C   0  0  0  0  0  0  0  0  0  0  0  0
   61.4713   35.0436   46.2536 H   0  0  0  0  0  0  0  0  0  0  0  0
   61.0400   33.2030   47.3390 C   0  0  0  0  0  0  0  0  0  0  0  0
   59.6520   33.4320   47.4770 C   0  0  0  0  0  0  0  0  0  0  0  0
   59.0040   34.6270   46.8740 C   0  0  0  0  0  0  0  0  0  0  0  0
   58.5951   35.4113   47.5280 H   0  0  0  0  0  0  0  0  0  0  0  0
   58.9150   34.7560   45.5850 N   0  0  0  0  0  0  0  0  0  0  0  0
   57.7160   34.4030   44.8280 C   0  0  0  0  0  0  0  0  0  0  0  0
   57.9915   34.2457   43.7747 H   0  0  0  0  0  0  0  0  0  0  0  0
   56.9920   35.2255   44.9244 H   0  0  0  0  0  0  0  0  0  0  0  0
   57.0660   33.1230   45.3700 C   0  0  0  0  0  0  0  0  0  0  0  0
   55.9818   33.1717   45.1906 H   0  0  0  0  0  0  0  0  0  0  0  0
   57.2885   33.0576   46.4453 H   0  0  0  0  0  0  0  0  0  0  0  0
   57.6290   31.8540   44.6870 C   0  0  0  0  0  0  0  0  0  0  0  0
   58.6941   31.7675   44.9479 H   0  0  0  0  0  0  0  0  0  0  0  0
   57.4587   31.9787   43.6074 H   0  0  0  0  0  0  0  0  0  0  0  0
   56.9530   30.5930   45.0770 N   0  0  0  0  0  0  0  0  0  0  0  0
   55.9220   30.1230   44.1190 C   0  0  0  0  0  0  0  0  0  0  0  0
   55.1701   30.9178   44.0050 H   0  0  0  0  0  0  0  0  0  0  0  0
   55.5043   29.1951   44.5368 H   0  0  0  0  0  0  0  0  0  0  0  0
   56.4630   29.7730   42.7310 C   0  0  0  0  0  0  0  0  0  0  0  0
   57.3824   29.1782   42.8351 H   0  0  0  0  0  0  0  0  0  0  0  0
   55.7099   29.1905   42.1801 H   0  0  0  0  0  0  0  0  0  0  0  0
   56.6856   30.6987   42.1801 H   0  0  0  0  0  0  0  0  0  0  0  0
   57.8450   29.5490   45.6280 C   0  0  0  0  0  0  0  0  0  0  0  0
   57.5543   29.3451   46.6691 H   0  0  0  0  0  0  0  0  0  0  0  0
   57.7425   28.6476   45.0060 H   0  0  0  0  0  0  0  0  0  0  0  0
   59.3090   29.9830   45.5990 C   0  0  0  0  0  0  0  0  0  0  0  0
   59.6794   30.0928   46.6289 H   0  0  0  0  0  0  0  0  0  0  0  0
   59.9063   29.2233   45.0736 H   0  0  0  0  0  0  0  0  0  0  0  0
   59.3958   30.9455   45.0736 H   0  0  0  0  0  0  0  0  0  0  0  0
   58.8700   32.4850   48.1740 C   0  0  0  0  0  0  0  0  0  0  0  0
   57.6260   32.6790   48.2850 O   0  0  0  0  0  0  0  0  0  0  0  0
   59.4340   31.3520   48.7130 N   0  0  0  0  0  0  0  0  0  0  0  0
   58.5700   30.3840   49.4230 C   0  0  0  0  0  0  0  0  0  0  0  0
   57.7302   30.1015   48.7711 H   0  0  0  0  0  0  0  0  0  0  0  0
   59.1652   29.4951   49.6790 H   0  0  0  0  0  0  0  0  0  0  0  0
   58.0340   30.9900   50.6840 C   0  0  0  0  0  0  0  0  0  0  0  0
   57.0260   30.5010   51.3690 O   0  0  0  0  0  0  0  0  0  0  0  0
   56.8260   31.2620   52.4200 C   0  0  0  0  0  0  0  0  0  0  0  0
   56.0468   31.1006   53.1795 H   0  0  0  0  0  0  0  0  0  0  0  0
   57.7410   32.2950   52.4280 C   0  0  0  0  0  0  0  0  0  0  0  0
   57.8279   33.0951   53.1778 H   0  0  0  0  0  0  0  0  0  0  0  0
   58.5240   32.1220   51.3070 C   0  0  0  0  0  0  0  0  0  0  0  0
   59.3629   32.7526   50.9774 H   0  0  0  0  0  0  0  0  0  0  0  0
  1  2  1  0
  2  3  1  0
  3  4  2  0
  4  5  1  0
  5  6  1  0
  5  7  2  0
  7  8  1  0
  7  9  1  0
  9 10  1  0
  9 11  2  0
 11 12  1  0
 11 13  1  0
 13 14  2  0
 14 15  1  0
 15 16  1  0
 15 17  2  0
 17 18  1  0
 18 19  1  0
 18 20  1  0
 18 21  1  0
 21 22  1  0
 21 23  1  0
 21 24  1  0
 24 25  1  0
 24 26  1  0
 24 27  1  0
 27 28  1  0
 28 29  1  0
 28 30  1  0
 28 31  1  0
 31 32  1  0
 31 33  1  0
 31 34  1  0
 27 35  1  0
 35 36  1  0
 35 37  1  0
 35 38  1  0
 38 39  1  0
 38 40  1  0
 38 41  1  0
 14 42  1  0
 42 43  2  0
 42 44  1  0
 44 45  1  0
 45 46  1  0
 45 47  1  0
 45 48  1  0
 48 49  1  0
 49 50  1  0
 50 51  1  0
 50 52  2  0
 52 53  1  0
 52 54  1  0
 54 55  1  0
 44  3  1  0
 54 48  2  0
 13  4  1  0
M  END
>  <UniqueID>  (20) 
20

>  <SMILES>  (20) 
CCN(CC)CCC/N=C/c1c(=O)n(Cc2ccco2)c(O)c2ccccc12

>  <Energy>  (20) 
99.73093754247152

>  <Genealogy>  (20) 
CCN(CC)CCC/N=C/c1c(=O)n(Cc2ccco2)c(O)c2ccccc12 (cis-trans isomerization)
CCN(CC)CCC/N=C/c1c(=O)n(Cc2ccco2)c(O)c2ccccc12 (3D coordinates assigned)
CCN(CC)CCC/N=C/c1c(=O)n(Cc2ccco2)c(O)c2ccccc12 (optimized conformer: 99.73093754247152 kcal/mol)

>  <smiles>  (20) 
CCN(CC)CCCN=Cc1c(=O)n(Cc2ccco2)c(O)c2ccccc12

>  <score_type>  (20) 
oracle

>  <origin>  (20) 
adg

>  <m_score__min__energy>  (20) 
-7.6500000000000004

>  <m_primary>  (20) 
energy

$$$$
20:0
     RDKit          3D

 61 66  0  0  0  0  0  0  0  0999 V2000
   60.3150   28.9610   44.7750 C   0  0  0  0  0  0  0  0  0  0  0  0
   60.4100   28.8340   46.3030 C   0  0  0  0  0  0  0  0  0  0  0  0
   59.0990   28.8640   47.0010 N   0  0  1  0  0  0  0  0  0  0  0  0
   57.9820   28.6120   46.0640 C   0  0  0  0  0  0  0  0  0  0  0  0
   59.0610   27.9430   48.1710 C   0  0  0  0  0  0  0  0  0  0  0  0
   60.1390   28.2620   49.2220 C   0  0  0  0  0  0  0  0  0  0  0  0
   60.0520   29.6520   49.6720 N   0  0  0  0  0  0  0  0  0  0  0  0
   60.8190   30.7200   49.0890 C   0  0  0  0  0  0  0  0  0  0  0  0
   62.1350   30.9820   49.5010 C   0  0  0  0  0  0  0  0  0  0  0  0
   62.8750   32.0250   48.9470 C   0  0  0  0  0  0  0  0  0  0  0  0
   62.3970   32.8000   47.9130 N   0  0  0  0  0  0  0  0  0  0  0  0
   63.2750   33.6600   47.1150 C   0  0  0  0  0  0  0  0  0  0  0  0
   61.0700   32.6280   47.5940 C   0  0  0  0  0  0  0  0  0  0  0  0
   60.2930   31.6140   48.1430 C   0  0  0  0  0  0  0  0  0  0  0  0
   59.0640   31.6600   47.6730 O   0  0  0  0  0  0  0  0  0  0  0  0
   59.0050   32.6780   46.8420 C   0  0  0  0  0  0  0  0  0  0  0  0
   57.8850   33.1100   46.1360 C   0  0  0  0  0  0  0  0  0  0  0  0
   58.0120   34.2590   45.3370 C   0  0  0  0  0  0  0  0  0  0  0  0
   59.2370   34.9550   45.2730 C   0  0  0  0  0  0  0  0  0  0  0  0
   60.3560   34.5020   45.9960 C   0  0  0  0  0  0  0  0  0  0  0  0
   60.2200   33.3320   46.7520 C   0  0  0  0  0  0  0  0  0  0  0  0
   64.1580   32.0420   49.6530 C   0  0  0  0  0  0  0  0  0  0  0  0
   65.1670   33.0110   49.6410 C   0  0  0  0  0  0  0  0  0  0  0  0
   66.2790   32.8300   50.4780 C   0  0  0  0  0  0  0  0  0  0  0  0
   67.3270   33.7650   50.4780 C   0  0  0  0  0  0  0  0  0  0  0  0
   68.4300   33.5850   51.3140 C   0  0  0  0  0  0  0  0  0  0  0  0
   68.4970   32.4760   52.1610 C   0  0  0  0  0  0  0  0  0  0  0  0
   67.4600   31.5400   52.1810 C   0  0  0  0  0  0  0  0  0  0  0  0
   66.3410   31.7050   51.3440 C   0  0  0  0  0  0  0  0  0  0  0  0
   65.2600   30.7990   51.3630 C   0  0  0  0  0  0  0  0  0  0  0  0
   65.2560   29.8110   52.1470 O   0  0  0  0  0  0  0  0  0  0  0  0
   64.2060   31.0100   50.5280 N   0  0  0  0  0  0  0  0  0  0  0  0
   62.9580   30.2440   50.5120 C   0  0  0  0  0  0  0  0  0  0  0  0
   59.6744   29.8173   44.5174 H   0  0  0  0  0  0  0  0  0  0  0  0
   61.3205   29.1163   44.3568 H   0  0  0  0  0  0  0  0  0  0  0  0
   59.8821   28.0403   44.3568 H   0  0  0  0  0  0  0  0  0  0  0  0
   60.9046   27.8803   46.5395 H   0  0  0  0  0  0  0  0  0  0  0  0
   60.9760   29.7081   46.6574 H   0  0  0  0  0  0  0  0  0  0  0  0
   58.9890   29.8500   47.3390 H   0  0  0  0  0  0  0  0  0  0  0  0
   57.0645   28.4050   46.6344 H   0  0  0  0  0  0  0  0  0  0  0  0
   57.8279   29.4979   45.4305 H   0  0  0  0  0  0  0  0  0  0  0  0
   58.2232   27.7457   45.4305 H   0  0  0  0  0  0  0  0  0  0  0  0
   58.0726   28.0219   48.6474 H   0  0  0  0  0  0  0  0  0  0  0  0
   59.2563   26.9272   47.7969 H   0  0  0  0  0  0  0  0  0  0  0  0
   60.0031   27.5966   50.0873 H   0  0  0  0  0  0  0  0  0  0  0  0
   61.1265   28.1083   48.7624 H   0  0  0  0  0  0  0  0  0  0  0  0
   59.6150   29.8120   50.6080 H   0  0  0  0  0  0  0  0  0  0  0  0
   63.8982   34.2704   47.7851 H   0  0  0  0  0  0  0  0  0  0  0  0
   63.9214   33.0360   46.4804 H   0  0  0  0  0  0  0  0  0  0  0  0
   62.6645   34.3192   46.4804 H   0  0  0  0  0  0  0  0  0  0  0  0
   56.9299   32.5683   46.2018 H   0  0  0  0  0  0  0  0  0  0  0  0
   57.1492   34.6184   44.7569 H   0  0  0  0  0  0  0  0  0  0  0  0
   59.3184   35.8597   44.6526 H   0  0  0  0  0  0  0  0  0  0  0  0
   61.3089   35.0509   45.9679 H   0  0  0  0  0  0  0  0  0  0  0  0
   65.0906   33.8947   48.9904 H   0  0  0  0  0  0  0  0  0  0  0  0
   67.2783   34.6426   49.8166 H   0  0  0  0  0  0  0  0  0  0  0  0
   69.2494   34.3188   51.3060 H   0  0  0  0  0  0  0  0  0  0  0  0
   69.3705   32.3391   52.8154 H   0  0  0  0  0  0  0  0  0  0  0  0
   67.5185   30.6713   52.8532 H   0  0  0  0  0  0  0  0  0  0  0  0
   63.1340   29.2045   50.1983 H   0  0  0  0  0  0  0  0  0  0  0  0
   62.4769   30.1705   51.4985 H   0  0  0  0  0  0  0  0  0  0  0  0
  1  2  1  0
  2  3  1  0
  3  4  1  0
  3  5  1  0
  5  6  1  0
  6  7  1  0
  7  8  1  0
  8  9  2  0
  9 10  1  0
 10 11  2  0
 11 12  1  0
 11 13  1  0
 13 14  2  0
 14 15  1  0
 15 16  1  0
 16 17  2  0
 17 18  1  0
 18 19  2  0
 19 20  1  0
 20 21  2  0
 10 22  1  0
 22 23  2  0
 23 24  1  0
 24 25  2  0
 25 26  1  0
 26 27  2  0
 27 28  1  0
 28 29  2  0
 29 30  1  0
 30 31  2  0
 30 32  1  0
 32 33  1  0
 14  8  1  0
 21 16  1  0
 32 22  1  0
 33  9  1  0
 21 13  1  0
 29 24  1  0
  1 34  1  0
  1 35  1  0
  1 36  1  0
  2 37  1  0
  2 38  1  0
  3 39  1  1
  4 40  1  0
  4 41  1  0
  4 42  1  0
  5 43  1  0
  5 44  1  0
  6 45  1  0
  6 46  1  0
  7 47  1  0
 12 48  1  0
 12 49  1  0
 12 50  1  0
 17 51  1  0
 18 52  1  0
 19 53  1  0
 20 54  1  0
 23 55  1  0
 25 56  1  0
 26 57  1  0
 27 58  1  0
 28 59  1  0
 33 60  1  0
 33 61  1  0
M  CHG  2   3   1  11   1
M  END
>  <UniqueID>  (21) 
21

>  <SMILES>  (21) 
CC[N@@H+](C)CCNc1c2c([n+](C)c3c1oc1ccccc13)-c1cc3ccccc3c(=O)n1C2

>  <Energy>  (21) 
155.3930951296472

>  <Genealogy>  (21) 
CC[NH+](C)CCNc1c2c([n+](C)c3c1oc1ccccc13)-c1cc3ccccc3c(=O)n1C2 (protonated)
CC[N@@H+](C)CCNc1c2c([n+](C)c3c1oc1ccccc13)-c1cc3ccccc3c(=O)n1C2 (chirality)
CC[N@@H+](C)CCNc1c2c([n+](C)c3c1oc1ccccc13)-c1cc3ccccc3c(=O)n1C2 (3D coordinates assigned)
CC[N@@H+](C)CCNc1c2c([n+](C)c3c1oc1ccccc13)-c1cc3ccccc3c(=O)n1C2 (nonaromatic ring conformer: 155.3930951296472 kcal/mol)

>  <smiles>  (21) 
CCN(C)CCNc1c2c([n+](C)c3c1oc1ccccc13)-c1cc3ccccc3c(=O)n1C2

>  <score_type>  (21) 
oracle

>  <origin>  (21) 
adg

>  <m_score__min__energy>  (21) 
-5.1900000000000004

>  <m_primary>  (21) 
energy

$$$$
21:0
     RDKit          3D

 94 93  0  0  0  0  0  0  0  0999 V2000
   64.7680   32.3740   46.6120 H   0  0  0  0  0  0  0  0  0  0  0  0
   63.8000   32.6900   46.8480 N   0  0  0  0  0  0  0  0  0  0  0  0
   63.1360   32.9090   46.0690 H   0  0  0  0  0  0  0  0  0  0  0  0
   63.3930   32.8380   48.2080 C   0  0  0  0  0  0  0  0  0  0  0  0
   62.1610   33.1740   48.4590 N   0  0  0  0  0  0  0  0  0  0  0  0
   61.1990   33.6620   47.4760 C   0  0  0  0  0  0  0  0  0  0  0  0
   60.8596   32.8243   46.8491 H   0  0  0  0  0  0  0  0  0  0  0  0
   61.6778   34.4249   46.8445 H   0  0  0  0  0  0  0  0  0  0  0  0
   60.0000   34.2780   48.1930 C   0  0  0  0  0  0  0  0  0  0  0  0
   60.1854   35.3514   48.3459 H   0  0  0  0  0  0  0  0  0  0  0  0
   59.8697   33.7669   49.1583 H   0  0  0  0  0  0  0  0  0  0  0  0
   58.7210   34.1040   47.3750 C   0  0  0  0  0  0  0  0  0  0  0  0
   57.9253   34.7299   47.8053 H   0  0  0  0  0  0  0  0  0  0  0  0
   58.4177   33.0469   47.3989 H   0  0  0  0  0  0  0  0  0  0  0  0
   58.9570   34.5060   45.9850 N   0  0  0  0  0  0  0  0  0  0  0  0
   59.0510   35.5490   45.9500 H   0  0  0  0  0  0  0  0  0  0  0  0
   57.8190   34.1260   45.1410 C   0  0  0  0  0  0  0  0  0  0  0  0
   57.8248   34.7430   44.2304 H   0  0  0  0  0  0  0  0  0  0  0  0
   56.8916   34.2872   45.7102 H   0  0  0  0  0  0  0  0  0  0  0  0
   57.8980   32.6440   44.7440 C   0  0  0  0  0  0  0  0  0  0  0  0
   56.9561   32.1551   45.0335 H   0  0  0  0  0  0  0  0  0  0  0  0
   58.7672   32.2152   45.2642 H   0  0  0  0  0  0  0  0  0  0  0  0
   58.1180   32.4240   43.2370 C   0  0  0  0  0  0  0  0  0  0  0  0
   59.1950   32.3114   43.0438 H   0  0  0  0  0  0  0  0  0  0  0  0
   57.7168   33.2929   42.6948 H   0  0  0  0  0  0  0  0  0  0  0  0
   57.4170   31.2170   42.7700 N   0  0  0  0  0  0  0  0  0  0  0  0
   58.1400   30.5710   42.3740 H   0  0  0  0  0  0  0  0  0  0  0  0
   56.7560   30.5160   43.8820 C   0  0  0  0  0  0  0  0  0  0  0  0
   55.6753   30.7163   43.8375 H   0  0  0  0  0  0  0  0  0  0  0  0
   57.1869   30.8850   44.8244 H   0  0  0  0  0  0  0  0  0  0  0  0
   56.9840   29.0000   43.8130 C   0  0  0  0  0  0  0  0  0  0  0  0
   57.9298   28.8088   43.2849 H   0  0  0  0  0  0  0  0  0  0  0  0
   56.1289   28.5562   43.2821 H   0  0  0  0  0  0  0  0  0  0  0  0
   57.0570   28.3550   45.2040 C   0  0  0  0  0  0  0  0  0  0  0  0
   56.3019   27.5583   45.2748 H   0  0  0  0  0  0  0  0  0  0  0  0
   56.8649   29.1246   45.9661 H   0  0  0  0  0  0  0  0  0  0  0  0
   58.3920   27.7800   45.4300 N   0  0  0  0  0  0  0  0  0  0  0  0
   58.6970   28.0450   46.3980 H   0  0  0  0  0  0  0  0  0  0  0  0
   59.3660   28.3600   44.4930 C   0  0  0  0  0  0  0  0  0  0  0  0
   58.8937   29.1978   43.9591 H   0  0  0  0  0  0  0  0  0  0  0  0
   59.6787   27.5746   43.7892 H   0  0  0  0  0  0  0  0  0  0  0  0
   60.6130   28.8750   45.2270 C   0  0  0  0  0  0  0  0  0  0  0  0
   61.3658   29.1590   44.4769 H   0  0  0  0  0  0  0  0  0  0  0  0
   60.9612   28.0623   45.8815 H   0  0  0  0  0  0  0  0  0  0  0  0
   60.3390   30.0900   46.1240 C   0  0  0  0  0  0  0  0  0  0  0  0
   60.0341   30.9386   45.4940 H   0  0  0  0  0  0  0  0  0  0  0  0
   61.2595   30.3264   46.6779 H   0  0  0  0  0  0  0  0  0  0  0  0
   59.2710   29.8080   47.0980 N   0  0  0  0  0  0  0  0  0  0  0  0
   58.4030   29.6250   46.5430 H   0  0  0  0  0  0  0  0  0  0  0  0
   59.0020   30.9490   47.9960 C   0  0  0  0  0  0  0  0  0  0  0  0
   58.0573   31.4290   47.7008 H   0  0  0  0  0  0  0  0  0  0  0  0
   59.8294   31.6697   47.9186 H   0  0  0  0  0  0  0  0  0  0  0  0
   58.8930   30.4660   49.4470 C   0  0  0  0  0  0  0  0  0  0  0  0
   57.8303   30.3662   49.7131 H   0  0  0  0  0  0  0  0  0  0  0  0
   59.3882   31.2022   50.0973 H   0  0  0  0  0  0  0  0  0  0  0  0
   59.5860   29.1080   49.6340 C   0  0  0  0  0  0  0  0  0  0  0  0
   59.3653   28.4734   48.7631 H   0  0  0  0  0  0  0  0  0  0  0  0
   59.2046   28.6559   50.5614 H   0  0  0  0  0  0  0  0  0  0  0  0
   61.1100   29.2550   49.7680 C   0  0  0  0  0  0  0  0  0  0  0  0
   61.5845   28.9132   48.8363 H   0  0  0  0  0  0  0  0  0  0  0  0
   61.4394   28.6474   50.6238 H   0  0  0  0  0  0  0  0  0  0  0  0
   61.5010   30.6490   50.0180 N   0  0  0  0  0  0  0  0  0  0  0  0
   61.8140   31.2370   49.2130 H   0  0  0  0  0  0  0  0  0  0  0  0
   61.4300   31.2770   51.3130 C   0  0  0  0  0  0  0  0  0  0  0  0
   61.8070   32.6640   51.4310 N   0  0  0  0  0  0  0  0  0  0  0  0
   62.1910   33.1330   50.5800 H   0  0  0  0  0  0  0  0  0  0  0  0
   61.5610   33.4610   52.6360 C   0  0  0  0  0  0  0  0  0  0  0  0
   61.9138   34.4879   52.4600 H   0  0  0  0  0  0  0  0  0  0  0  0
   62.1024   32.9899   53.4696 H   0  0  0  0  0  0  0  0  0  0  0  0
   60.0700   33.5060   53.0060 C   0  0  0  0  0  0  0  0  0  0  0  0
   59.9040   34.3795   53.6536 H   0  0  0  0  0  0  0  0  0  0  0  0
   59.8441   32.5503   53.5017 H   0  0  0  0  0  0  0  0  0  0  0  0
   59.1120   33.6100   51.8060 C   0  0  0  0  0  0  0  0  0  0  0  0
   59.6543   33.3078   50.8980 H   0  0  0  0  0  0  0  0  0  0  0  0
   58.7666   34.6529   51.7518 H   0  0  0  0  0  0  0  0  0  0  0  0
   57.8650   32.7210   51.9500 C   0  0  0  0  0  0  0  0  0  0  0  0
   57.4606   32.4995   50.9513 H   0  0  0  0  0  0  0  0  0  0  0  0
   57.1145   33.2541   52.5522 H   0  0  0  0  0  0  0  0  0  0  0  0
   58.2090   31.4600   52.6240 N   0  0  0  0  0  0  0  0  0  0  0  0
   58.2960   31.6370   53.6540 H   0  0  0  0  0  0  0  0  0  0  0  0
   57.2130   30.4000   52.3900 C   0  0  0  0  0  0  0  0  0  0  0  0
   57.0974   29.8143   53.3139 H   0  0  0  0  0  0  0  0  0  0  0  0
   57.5764   29.7773   51.5593 H   0  0  0  0  0  0  0  0  0  0  0  0
   55.8430   30.9600   51.9880 C   0  0  0  0  0  0  0  0  0  0  0  0
   55.2638   31.1967   52.8927 H   0  0  0  0  0  0  0  0  0  0  0  0
   55.9811   31.8738   51.3915 H   0  0  0  0  0  0  0  0  0  0  0  0
   55.3014   30.2111   51.3915 H   0  0  0  0  0  0  0  0  0  0  0  0
   61.0290   30.6070   52.3590 N   0  0  0  0  0  0  0  0  0  0  0  0
   60.0390   30.6280   52.6840 H   0  0  0  0  0  0  0  0  0  0  0  0
   61.6810   30.0200   52.9220 H   0  0  0  0  0  0  0  0  0  0  0  0
   64.3730   32.5490   49.3150 C   0  0  0  0  0  0  0  0  0  0  0  0
   63.8806   32.6942   50.2878 H   0  0  0  0  0  0  0  0  0  0  0  0
   64.7230   31.5094   49.2327 H   0  0  0  0  0  0  0  0  0  0  0  0
   65.2311   33.2323   49.2327 H   0  0  0  0  0  0  0  0  0  0  0  0
  1  2  1  0
  2  3  1  0
  2  4  1  0
  4  5  2  0
  5  6  1  0
  6  7  1  0
  6  8  1  0
  6  9  1  0
  9 10  1  0
  9 11  1  0
  9 12  1  0
 12 13  1  0
 12 14  1  0
 12 15  1  0
 15 16  1  0
 15 17  1  0
 17 18  1  0
 17 19  1  0
 17 20  1  0
 20 21  1  0
 20 22  1  0
 20 23  1  0
 23 24  1  0
 23 25  1  0
 23 26  1  0
 26 27  1  0
 26 28  1  0
 28 29  1  0
 28 30  1  0
 28 31  1  0
 31 32  1  0
 31 33  1  0
 31 34  1  0
 34 35  1  0
 34 36  1  0
 34 37  1  0
 37 38  1  0
 37 39  1  0
 39 40  1  0
 39 41  1  0
 39 42  1  0
 42 43  1  0
 42 44  1  0
 42 45  1  0
 45 46  1  0
 45 47  1  0
 45 48  1  0
 48 49  1  0
 48 50  1  0
 50 51  1  0
 50 52  1  0
 50 53  1  0
 53 54  1  0
 53 55  1  0
 53 56  1  0
 56 57  1  0
 56 58  1  0
 56 59  1  0
 59 60  1  0
 59 61  1  0
 59 62  1  0
 62 63  1  0
 62 64  1  0
 64 65  1  0
 65 66  1  0
 65 67  1  0
 67 68  1  0
 67 69  1  0
 67 70  1  0
 70 71  1  0
 70 72  1  0
 70 73  1  0
 73 74  1  0
 73 75  1  0
 73 76  1  0
 76 77  1  0
 76 78  1  0
 76 79  1  0
 79 80  1  0
 79 81  1  0
 81 82  1  0
 81 83  1  0
 81 84  1  0
 84 85  1  0
 84 86  1  0
 84 87  1  0
 64 88  2  0
 88 89  1  0
 88 90  1  0
  4 91  1  0
 91 92  1  0
 91 93  1  0
 91 94  1  0
M  CHG  1  88   1
M  END
>  <UniqueID>  (22) 
22

>  <SMILES>  (22) 
CCNCCCCNC(=[NH2+])NCCCCNCCCNCCCNCCCNCCC/N=C(\C)N

>  <Energy>  (22) 
42.62353358174496

>  <Genealogy>  (22) 
CCNCCCCNC(=[NH2+])NCCCCNCCCNCCCNCCCNCCCN=C(C)N (protonated)
CCNCCCCNC(=[NH2+])NCCCCNCCCNCCCNCCCNCCC/N=C(\C)N (cis-trans isomerization)
CCNCCCCNC(=[NH2+])NCCCCNCCCNCCCNCCCNCCC/N=C(\C)N (3D coordinates assigned)
CCNCCCCNC(=[NH2+])NCCCCNCCCNCCCNCCCNCCC/N=C(\C)N (optimized conformer: 42.62353358174496 kcal/mol)

>  <smiles>  (22) 
CCNCCCCNC(=N)NCCCCNCCCNCCCNCCCNCCCN=C(C)N

>  <score_type>  (22) 
oracle

>  <origin>  (22) 
adg

>  <m_score__min__energy>  (22) 
-3.1899999999999999

>  <m_primary>  (22) 
energy

$$$$
22:0
     RDKit          3D

 60 63  0  0  0  0  0  0  0  0999 V2000
   60.8220   28.6740   44.8720 C   0  0  0  0  0  0  0  0  0  0  0  0
   60.6810   29.7330   45.9650 C   0  0  0  0  0  0  0  0  0  0  0  0
   59.2810   29.9960   46.3380 N   0  0  0  0  0  0  0  0  0  0  0  0
   58.8620   29.7210   47.7160 C   0  0  0  0  0  0  0  0  0  0  0  0
   59.5790   30.6320   48.7090 C   0  0  0  0  0  0  0  0  0  0  0  0
   58.6340   31.4370   49.3860 O   0  0  0  0  0  0  0  0  0  0  0  0
   59.0560   31.6370   50.7200 C   0  0  0  0  0  0  0  0  0  0  0  0
   58.5830   33.0050   51.2120 C   0  0  0  0  0  0  0  0  0  0  0  0
   59.2980   34.1070   50.5600 N   0  0  0  0  0  0  0  0  0  0  0  0
   60.4120   33.9240   49.6660 C   0  0  0  0  0  0  0  0  0  0  0  0
   61.7090   33.7640   50.1900 C   0  0  0  0  0  0  0  0  0  0  0  0
   61.9390   33.8240   51.5820 C   0  0  0  0  0  0  0  0  0  0  0  0
   63.2290   33.7200   52.0970 C   0  0  0  0  0  0  0  0  0  0  0  0
   64.3100   33.5630   51.2380 C   0  0  0  0  0  0  0  0  0  0  0  0
   64.1070   33.4840   49.8610 C   0  0  0  0  0  0  0  0  0  0  0  0
   62.8010   33.5420   49.3090 C   0  0  0  0  0  0  0  0  0  0  0  0
   62.5820   33.4030   47.9520 N   0  0  0  0  0  0  0  0  0  0  0  0
   63.6560   32.8770   47.0790 C   0  0  0  0  0  0  0  0  0  0  0  0
   61.3430   33.7040   47.4180 C   0  0  0  0  0  0  0  0  0  0  0  0
   61.1470   33.8280   46.0200 C   0  0  0  0  0  0  0  0  0  0  0  0
   59.8720   34.0080   45.4850 C   0  0  0  0  0  0  0  0  0  0  0  0
   58.7640   34.0550   46.3230 C   0  0  0  0  0  0  0  0  0  0  0  0
   57.1560   34.2180   45.6410 Cl  0  0  0  0  0  0  0  0  0  0  0  0
   58.9340   33.9880   47.7060 C   0  0  0  0  0  0  0  0  0  0  0  0
   60.2220   33.8870   48.2710 C   0  0  0  0  0  0  0  0  0  0  0  0
   58.2590   30.1520   45.3400 C   0  0  0  0  0  0  0  0  0  0  0  0
   57.1360   29.3110   45.3390 C   0  0  0  0  0  0  0  0  0  0  0  0
   56.1510   29.4600   44.3570 C   0  0  0  0  0  0  0  0  0  0  0  0
   56.2830   30.4480   43.3760 C   0  0  0  0  0  0  0  0  0  0  0  0
   57.4010   31.2870   43.3740 C   0  0  0  0  0  0  0  0  0  0  0  0
   58.3880   31.1390   44.3530 C   0  0  0  0  0  0  0  0  0  0  0  0
   60.9537   27.6848   45.3347 H   0  0  0  0  0  0  0  0  0  0  0  0
   59.9166   28.6690   44.2473 H   0  0  0  0  0  0  0  0  0  0  0  0
   61.6972   28.9061   44.2473 H   0  0  0  0  0  0  0  0  0  0  0  0
   61.2223   29.3882   46.8583 H   0  0  0  0  0  0  0  0  0  0  0  0
   61.0962   30.6711   45.5680 H   0  0  0  0  0  0  0  0  0  0  0  0
   57.7774   29.8841   47.7995 H   0  0  0  0  0  0  0  0  0  0  0  0
   59.1197   28.6785   47.9545 H   0  0  0  0  0  0  0  0  0  0  0  0
   60.1261   30.0178   49.4394 H   0  0  0  0  0  0  0  0  0  0  0  0
   60.2852   31.2777   48.1664 H   0  0  0  0  0  0  0  0  0  0  0  0
   58.6290   30.8508   51.3601 H   0  0  0  0  0  0  0  0  0  0  0  0
   60.1543   31.5944   50.7643 H   0  0  0  0  0  0  0  0  0  0  0  0
   57.5084   33.1055   50.9997 H   0  0  0  0  0  0  0  0  0  0  0  0
   58.7855   33.0636   52.2916 H   0  0  0  0  0  0  0  0  0  0  0  0
   58.9080   35.0710   50.6620 H   0  0  0  0  0  0  0  0  0  0  0  0
   61.0890   33.9545   52.2680 H   0  0  0  0  0  0  0  0  0  0  0  0
   63.3921   33.7622   53.1840 H   0  0  0  0  0  0  0  0  0  0  0  0
   65.3296   33.5008   51.6460 H   0  0  0  0  0  0  0  0  0  0  0  0
   64.9731   33.3750   49.1917 H   0  0  0  0  0  0  0  0  0  0  0  0
   64.4711   32.4778   47.7005 H   0  0  0  0  0  0  0  0  0  0  0  0
   63.2523   32.0746   46.4440 H   0  0  0  0  0  0  0  0  0  0  0  0
   64.0424   33.6878   46.4440 H   0  0  0  0  0  0  0  0  0  0  0  0
   62.0149   33.7815   45.3458 H   0  0  0  0  0  0  0  0  0  0  0  0
   59.7427   34.1130   44.3977 H   0  0  0  0  0  0  0  0  0  0  0  0
   58.0527   34.0143   48.3637 H   0  0  0  0  0  0  0  0  0  0  0  0
   57.0301   28.5342   46.1106 H   0  0  0  0  0  0  0  0  0  0  0  0
   55.2715   28.7993   44.3564 H   0  0  0  0  0  0  0  0  0  0  0  0
   55.5066   30.5649   42.6056 H   0  0  0  0  0  0  0  0  0  0  0  0
   57.5042   32.0638   42.6020 H   0  0  0  0  0  0  0  0  0  0  0  0
   59.2681   31.7988   44.3488 H   0  0  0  0  0  0  0  0  0  0  0  0
  1  2  1  0
  2  3  1  0
  3  4  1  0
  4  5  1  0
  5  6  1  0
  6  7  1  0
  7  8  1  0
  8  9  1  0
  9 10  1  0
 10 11  1  0
 11 12  2  0
 12 13  1  0
 13 14  2  0
 14 15  1  0
 15 16  2  0
 16 17  1  0
 17 18  1  0
 17 19  2  0
 19 20  1  0
 20 21  2  0
 21 22  1  0
 22 23  1  0
 22 24  2  0
 24 25  1  0
  3 26  1  0
 26 27  2  0
 27 28  1  0
 28 29  2  0
 29 30  1  0
 30 31  2  0
 25 10  2  0
 31 26  1  0
 16 11  1  0
 25 19  1  0
  1 32  1  0
  1 33  1  0
  1 34  1  0
  2 35  1  0
  2 36  1  0
  4 37  1  0
  4 38  1  0
  5 39  1  0
  5 40  1  0
  7 41  1  0
  7 42  1  0
  8 43  1  0
  8 44  1  0
  9 45  1  0
 12 46  1  0
 13 47  1  0
 14 48  1  0
 15 49  1  0
 18 50  1  0
 18 51  1  0
 18 52  1  0
 20 53  1  0
 21 54  1  0
 24 55  1  0
 27 56  1  0
 28 57  1  0
 29 58  1  0
 30 59  1  0
 31 60  1  0
M  CHG  1  17   1
M  END
>  <UniqueID>  (23) 
23

>  <SMILES>  (23) 
CCN(CCOCCNc1c2ccccc2[n+](C)c2ccc(Cl)cc12)c1ccccc1

>  <Energy>  (23) 
85.00733918538246

>  <Genealogy>  (23) 
CCN(CCOCCNc1c2ccccc2[n+](C)c2ccc(Cl)cc12)c1ccccc1 (3D coordinates assigned)
CCN(CCOCCNc1c2ccccc2[n+](C)c2ccc(Cl)cc12)c1ccccc1 (optimized conformer: 85.00733918538246 kcal/mol)

>  <smiles>  (23) 
CCN(CCOCCNc1c2ccccc2[n+](C)c2ccc(Cl)cc12)c1ccccc1

>  <score_type>  (23) 
oracle

>  <origin>  (23) 
adg

>  <m_score__min__energy>  (23) 
-6.6900000000000004

>  <m_primary>  (23) 
energy

$$$$
23:0
     RDKit          3D

 37 39  0  0  0  0  0  0  0  0999 V2000
   60.4530   26.7010   46.7530 C   0  0  0  0  0  0  0  0  0  0  0  0
   59.6000   27.6660   47.5710 C   0  0  0  0  0  0  0  0  0  0  0  0
   60.0820   29.0560   47.4270 N   0  0  0  0  0  0  0  0  0  0  0  0
   59.8930   29.7700   46.2530 C   0  0  0  0  0  0  0  0  0  0  0  0
   58.9780   29.0990   44.8510 S   0  0  0  0  0  0  0  0  0  0  0  0
   57.3680   29.0290   45.7140 C   0  0  0  0  0  0  0  0  0  0  0  0
   56.2940   29.6920   44.9110 C   0  0  0  0  0  0  0  0  0  0  0  0
   55.1540   29.1580   44.8380 O   0  0  0  0  0  0  0  0  0  0  0  0
   56.5920   30.8820   44.1720 N   0  0  0  0  0  0  0  0  0  0  0  0
   57.3530   32.0060   44.6410 C   0  0  0  0  0  0  0  0  0  0  0  0
   57.4000   32.3470   46.0060 C   0  0  0  0  0  0  0  0  0  0  0  0
   58.1780   33.4260   46.4390 C   0  0  0  0  0  0  0  0  0  0  0  0
   58.9220   34.1660   45.5180 C   0  0  0  0  0  0  0  0  0  0  0  0
   58.8980   33.8240   44.1640 C   0  0  0  0  0  0  0  0  0  0  0  0
   58.1240   32.7440   43.7240 C   0  0  0  0  0  0  0  0  0  0  0  0
   58.1240   32.3330   42.0140 Cl  0  0  0  0  0  0  0  0  0  0  0  0
   60.4200   31.0220   46.1120 N   0  0  0  0  0  0  0  0  0  0  0  0
   61.0940   31.5940   47.1330 C   0  0  0  0  0  0  0  0  0  0  0  0
   61.6660   32.8680   47.1080 C   0  0  0  0  0  0  0  0  0  0  0  0
   62.2870   33.1910   48.3140 C   0  0  0  0  0  0  0  0  0  0  0  0
   62.1190   31.8930   49.3890 S   0  0  0  0  0  0  0  0  0  0  0  0
   61.2560   30.9270   48.3190 C   0  0  0  0  0  0  0  0  0  0  0  0
   60.7510   29.6460   48.4790 C   0  0  0  0  0  0  0  0  0  0  0  0
   60.9160   29.0390   49.5730 O   0  0  0  0  0  0  0  0  0  0  0  0
   61.0262   26.0525   47.4319 H   0  0  0  0  0  0  0  0  0  0  0  0
   59.8009   26.0826   46.1187 H   0  0  0  0  0  0  0  0  0  0  0  0
   61.1468   27.2722   46.1187 H   0  0  0  0  0  0  0  0  0  0  0  0
   58.5584   27.6090   47.2220 H   0  0  0  0  0  0  0  0  0  0  0  0
   59.6689   27.3805   48.6311 H   0  0  0  0  0  0  0  0  0  0  0  0
   57.0947   27.9763   45.8786 H   0  0  0  0  0  0  0  0  0  0  0  0
   57.4636   29.5596   46.6728 H   0  0  0  0  0  0  0  0  0  0  0  0
   56.8218   31.7618   46.7362 H   0  0  0  0  0  0  0  0  0  0  0  0
   58.2036   33.6917   47.5061 H   0  0  0  0  0  0  0  0  0  0  0  0
   59.5274   35.0188   45.8589 H   0  0  0  0  0  0  0  0  0  0  0  0
   59.4893   34.4053   43.4411 H   0  0  0  0  0  0  0  0  0  0  0  0
   61.6307   33.5392   46.2372 H   0  0  0  0  0  0  0  0  0  0  0  0
   62.8034   34.1374   48.5323 H   0  0  0  0  0  0  0  0  0  0  0  0
  1  2  1  0
  2  3  1  0
  3  4  1  0
  4  5  1  0
  5  6  1  0
  6  7  1  0
  7  8  2  0
  7  9  1  0
  9 10  1  0
 10 11  2  0
 11 12  1  0
 12 13  2  0
 13 14  1  0
 14 15  2  0
 15 16  1  0
  4 17  2  0
 17 18  1  0
 18 19  1  0
 19 20  2  0
 20 21  1  0
 21 22  1  0
 22 23  1  0
 23 24  2  0
 23  3  1  0
 15 10  1  0
 22 18  2  0
  1 25  1  0
  1 26  1  0
  1 27  1  0
  2 28  1  0
  2 29  1  0
  6 30  1  0
  6 31  1  0
 11 32  1  0
 12 33  1  0
 13 34  1  0
 14 35  1  0
 19 36  1  0
 20 37  1  0
M  CHG  1   9  -1
M  END
>  <UniqueID>  (24) 
24

>  <SMILES>  (24) 
CCn1c(SCC(=O)[N-]c2ccccc2Cl)nc2ccsc2c1=O

>  <Energy>  (24) 
72.30827241353553

>  <Genealogy>  (24) 
CCn1c(SCC(=O)[N-]c2ccccc2Cl)nc2ccsc2c1=O (protonated)
CCn1c(SCC(=O)[N-]c2ccccc2Cl)nc2ccsc2c1=O (3D coordinates assigned)
CCn1c(SCC(=O)[N-]c2ccccc2Cl)nc2ccsc2c1=O (optimized conformer: 72.30827241353553 kcal/mol)

>  <smiles>  (24) 
CCn1c(SCC(=O)Nc2ccccc2Cl)nc2ccsc2c1=O

>  <score_type>  (24) 
oracle

>  <origin>  (24) 
adg

>  <m_score__min__energy>  (24) 
-9.5899999999999999

>  <m_primary>  (24) 
energy

$$$$
24:0
     RDKit          3D

 43 45  0  0  0  0  0  0  0  0999 V2000
   58.1470   32.3360   42.0930 C   0  0  0  0  0  0  0  0  0  0  0  0
   57.4630   32.8850   43.2160 O   0  0  0  0  0  0  0  0  0  0  0  0
   58.0250   33.0440   44.4950 C   0  0  0  0  0  0  0  0  0  0  0  0
   58.3720   34.3160   44.9900 C   0  0  0  0  0  0  0  0  0  0  0  0
   58.9220   34.4570   46.2640 C   0  0  0  0  0  0  0  0  0  0  0  0
   59.1360   33.3340   47.0680 C   0  0  0  0  0  0  0  0  0  0  0  0
   59.8060   33.5190   48.6920 S   0  0  0  0  0  0  0  0  0  0  0  0
   59.0090   32.6820   49.6550 O   0  0  0  0  0  0  0  0  0  0  0  0
   59.6870   34.9560   49.1180 O   0  0  0  0  0  0  0  0  0  0  0  0
   61.4850   33.0350   48.7510 N   0  0  0  0  0  0  0  0  0  0  0  0
   62.3910   34.1610   48.4120 C   0  0  0  0  0  0  0  0  0  0  0  0
   62.9590   34.0660   46.9880 C   0  0  0  0  0  0  0  0  0  0  0  0
   63.7360   32.7540   46.7850 C   0  0  0  0  0  0  0  0  0  0  0  0
   63.1780   31.5960   47.6320 C   0  0  0  0  0  0  0  0  0  0  0  0
   61.6950   31.8090   47.9490 C   0  0  0  0  0  0  0  0  0  0  0  0
   58.8050   32.0640   46.5820 C   0  0  0  0  0  0  0  0  0  0  0  0
   58.2450   31.9050   45.3020 C   0  0  0  0  0  0  0  0  0  0  0  0
   57.8930   30.5440   44.8280 C   0  0  0  0  0  0  0  0  0  0  0  0
   58.8000   29.6190   44.4380 N   0  0  0  0  0  0  0  0  0  0  0  0
   58.0090   28.5760   44.1160 C   0  0  0  0  0  0  0  0  0  0  0  0
   58.5160   27.2900   43.5560 C   0  0  0  0  0  0  0  0  0  0  0  0
   56.7090   28.8650   44.2840 N   0  0  0  0  0  0  0  0  0  0  0  0
   56.6660   30.0820   44.7280 O   0  0  0  0  0  0  0  0  0  0  0  0
   58.9604   31.6831   42.4424 H   0  0  0  0  0  0  0  0  0  0  0  0
   57.4421   31.7501   41.4848 H   0  0  0  0  0  0  0  0  0  0  0  0
   58.5665   33.1510   41.4848 H   0  0  0  0  0  0  0  0  0  0  0  0
   58.2077   35.2068   44.3659 H   0  0  0  0  0  0  0  0  0  0  0  0
   59.1886   35.4567   46.6377 H   0  0  0  0  0  0  0  0  0  0  0  0
   61.8295   35.1025   48.5034 H   0  0  0  0  0  0  0  0  0  0  0  0
   63.2411   34.1208   49.1089 H   0  0  0  0  0  0  0  0  0  0  0  0
   62.1290   34.1066   46.2673 H   0  0  0  0  0  0  0  0  0  0  0  0
   63.6500   34.9076   46.8319 H   0  0  0  0  0  0  0  0  0  0  0  0
   63.6797   32.4723   45.7232 H   0  0  0  0  0  0  0  0  0  0  0  0
   64.7738   32.9295   47.1048 H   0  0  0  0  0  0  0  0  0  0  0  0
   63.2946   30.6548   47.0748 H   0  0  0  0  0  0  0  0  0  0  0  0
   63.7354   31.5562   48.5795 H   0  0  0  0  0  0  0  0  0  0  0  0
   61.1366   31.8985   47.0055 H   0  0  0  0  0  0  0  0  0  0  0  0
   61.3387   30.9478   48.5333 H   0  0  0  0  0  0  0  0  0  0  0  0
   58.9853   31.1787   47.2095 H   0  0  0  0  0  0  0  0  0  0  0  0
   58.7835   26.6116   44.3795 H   0  0  0  0  0  0  0  0  0  0  0  0
   57.7337   26.8256   42.9377 H   0  0  0  0  0  0  0  0  0  0  0  0
   59.4048   27.4844   42.9377 H   0  0  0  0  0  0  0  0  0  0  0  0
   55.8820   28.2550   44.0960 H   0  0  0  0  0  0  0  0  0  0  0  0
  1  2  1  0
  2  3  1  0
  3  4  2  0
  4  5  1  0
  5  6  2  0
  6  7  1  0
  7  8  2  0
  7  9  2  0
  7 10  1  0
 10 11  1  0
 11 12  1  0
 12 13  1  0
 13 14  1  0
 14 15  1  0
  6 16  1  0
 16 17  2  0
 17 18  1  0
 18 19  2  0
 19 20  1  0
 20 21  1  0
 20 22  2  0
 22 23  1  0
 17  3  1  0
 23 18  1  0
 15 10  1  0
  1 24  1  0
  1 25  1  0
  1 26  1  0
  4 27  1  0
  5 28  1  0
 11 29  1  0
 11 30  1  0
 12 31  1  0
 12 32  1  0
 13 33  1  0
 13 34  1  0
 14 35  1  0
 14 36  1  0
 15 37  1  0
 15 38  1  0
 16 39  1  0
 21 40  1  0
 21 41  1  0
 21 42  1  0
 22 43  1  0
M  CHG  1  22   1
M  END
>  <UniqueID>  (25) 
25

>  <SMILES>  (25) 
COc1ccc(S(=O)(=O)N2CCCCC2)cc1-c1nc(C)[nH+]o1

>  <Energy>  (25) 
81.52310130180445

>  <Genealogy>  (25) 
COc1ccc(S(=O)(=O)N2CCCCC2)cc1-c1nc(C)[nH+]o1 (protonated)
COc1ccc(S(=O)(=O)N2CCCCC2)cc1-c1nc(C)[nH+]o1 (3D coordinates assigned)
COc1ccc(S(=O)(=O)N2CCCCC2)cc1-c1nc(C)[nH+]o1 (nonaromatic ring conformer: 81.52310130180445 kcal/mol)

>  <smiles>  (25) 
COc1ccc(S(=O)(=O)N2CCCCC2)cc1-c1nc(C)no1

>  <score_type>  (25) 
oracle

>  <origin>  (25) 
adg

>  <m_score__min__energy>  (25) 
-7.0099999999999998

>  <m_primary>  (25) 
energy

$$$$
25:0
     RDKit          3D

 59 61  0  0  0  0  0  0  0  0999 V2000
   63.7088   31.9384   46.6315 H   0  0  0  0  0  0  0  0  0  0  0  0
   63.3990   32.8740   47.1200 C   0  0  0  0  0  0  0  0  0  0  0  0
   63.9956   33.7883   46.9856 H   0  0  0  0  0  0  0  0  0  0  0  0
   62.2930   32.9000   47.8800 C   0  0  0  0  0  0  0  0  0  0  0  0
   61.8880   34.2020   48.5420 C   0  0  0  0  0  0  0  0  0  0  0  0
   62.0780   35.0212   47.8329 H   0  0  0  0  0  0  0  0  0  0  0  0
   62.4839   34.2823   49.4631 H   0  0  0  0  0  0  0  0  0  0  0  0
   60.4110   34.2700   48.9700 C   0  0  0  0  0  0  0  0  0  0  0  0
   59.8316   34.6511   48.1161 H   0  0  0  0  0  0  0  0  0  0  0  0
   60.3918   34.9199   49.8573 H   0  0  0  0  0  0  0  0  0  0  0  0
   59.7610   32.9250   49.4240 C   0  0  2  0  0  0  0  0  0  0  0  0
   59.0447   32.8303   48.5946 H   0  0  0  0  0  0  0  0  0  0  0  0
   58.9510   32.9390   50.7110 C   0  0  0  0  0  0  0  0  0  0  0  0
   59.3010   33.6770   51.7850 C   0  0  0  0  0  0  0  0  0  0  0  0
   58.6818   33.6535   52.6939 H   0  0  0  0  0  0  0  0  0  0  0  0
   60.2055   34.3021   51.7517 H   0  0  0  0  0  0  0  0  0  0  0  0
   58.0000   31.7590   50.8370 C   0  0  2  0  0  0  0  0  0  0  0  0
   57.2895   31.8137   49.9990 H   0  0  0  0  0  0  0  0  0  0  0  0
   57.2280   31.7930   52.0390 O   0  0  0  0  0  0  0  0  0  0  0  0
   56.7540   30.6410   52.6790 C   0  0  0  0  0  0  0  0  0  0  0  0
   56.2620   29.6900   52.0140 O   0  0  0  0  0  0  0  0  0  0  0  0
   56.8770   30.5220   54.1590 C   0  0  0  0  0  0  0  0  0  0  0  0
   56.1669   31.2091   54.6424 H   0  0  0  0  0  0  0  0  0  0  0  0
   56.6530   29.4891   54.4637 H   0  0  0  0  0  0  0  0  0  0  0  0
   57.9020   30.7800   54.4637 H   0  0  0  0  0  0  0  0  0  0  0  0
   58.8170   30.4540   50.7870 C   0  0  0  0  0  0  0  0  0  0  0  0
   58.1219   29.6028   50.7382 H   0  0  0  0  0  0  0  0  0  0  0  0
   59.4401   30.4114   51.6925 H   0  0  0  0  0  0  0  0  0  0  0  0
   59.7610   30.3990   49.5570 C   0  0  0  0  0  0  0  0  0  0  0  0
   59.1452   30.3096   48.6499 H   0  0  0  0  0  0  0  0  0  0  0  0
   60.4253   29.5338   49.6990 H   0  0  0  0  0  0  0  0  0  0  0  0
   60.6790   31.6650   49.4110 C   0  0  2  0  0  0  0  0  0  0  0  0
   61.6930   31.6540   50.5980 C   0  0  0  0  0  0  0  0  0  0  0  0
   61.1427   31.6600   51.5504 H   0  0  0  0  0  0  0  0  0  0  0  0
   62.3156   30.7490   50.5400 H   0  0  0  0  0  0  0  0  0  0  0  0
   62.3351   32.5452   50.5400 H   0  0  0  0  0  0  0  0  0  0  0  0
   61.4850   31.6260   48.0710 C   0  0  1  0  0  0  0  0  0  0  0  0
   62.1476   30.7524   48.1598 H   0  0  0  0  0  0  0  0  0  0  0  0
   60.6080   31.4430   46.8490 C   0  0  0  0  0  0  0  0  0  0  0  0
   60.9413   30.7677   46.0472 H   0  0  0  0  0  0  0  0  0  0  0  0
   59.4370   32.0820   46.7190 C   0  0  0  0  0  0  0  0  0  0  0  0
   58.7469   32.1206   47.5747 H   0  0  0  0  0  0  0  0  0  0  0  0
   59.0450   32.7500   45.4230 C   0  0  2  0  0  0  0  0  0  0  0  0
   59.8435   32.4810   44.7158 H   0  0  0  0  0  0  0  0  0  0  0  0
   58.8520   34.1980   45.6550 C   0  0  0  0  0  0  0  0  0  0  0  0
   59.7820   35.0020   45.9290 O   0  0  0  0  0  0  0  0  0  0  0  0
   57.5370   34.5900   45.5440 O   0  0  0  0  0  0  0  0  0  0  0  0
   56.6970   33.4860   45.2590 C   0  0  0  0  0  0  0  0  0  0  0  0
   56.0846   33.2329   46.1370 H   0  0  0  0  0  0  0  0  0  0  0  0
   56.0026   33.7054   44.4346 H   0  0  0  0  0  0  0  0  0  0  0  0
   57.6450   32.3220   44.9110 C   0  0  2  0  0  0  0  0  0  0  0  0
   57.6918   32.1201   43.8307 H   0  0  0  0  0  0  0  0  0  0  0  0
   57.1740   31.1050   45.4960 O   0  0  0  0  0  0  0  0  0  0  0  0
   56.6680   30.0360   44.7500 C   0  0  0  0  0  0  0  0  0  0  0  0
   55.4550   29.6990   44.8460 O   0  0  0  0  0  0  0  0  0  0  0  0
   57.5790   29.2780   43.8420 C   0  0  0  0  0  0  0  0  0  0  0  0
   57.0305   28.4350   43.3964 H   0  0  0  0  0  0  0  0  0  0  0  0
   57.9391   29.9496   43.0488 H   0  0  0  0  0  0  0  0  0  0  0  0
   59.0960   28.6010   44.8400 Br  0  0  0  0  0  0  0  0  0  0  0  0
  1  2  1  0
  2  3  1  0
  2  4  2  0
  4  5  1  0
  5  6  1  0
  5  7  1  0
  5  8  1  0
  8  9  1  0
  8 10  1  0
  8 11  1  0
 11 12  1  6
 11 13  1  0
 13 14  2  0
 14 15  1  0
 14 16  1  0
 13 17  1  0
 17 18  1  6
 17 19  1  0
 19 20  1  0
 20 21  2  0
 20 22  1  0
 22 23  1  0
 22 24  1  0
 22 25  1  0
 17 26  1  0
 26 27  1  0
 26 28  1  0
 26 29  1  0
 29 30  1  0
 29 31  1  0
 29 32  1  0
 32 33  1  1
 33 34  1  0
 33 35  1  0
 33 36  1  0
 32 37  1  0
 37 38  1  1
 37 39  1  0
 39 40  1  0
 39 41  2  0
 41 42  1  0
 41 43  1  0
 43 44  1  6
 43 45  1  0
 45 46  2  0
 45 47  1  0
 47 48  1  0
 48 49  1  0
 48 50  1  0
 48 51  1  0
 51 52  1  6
 51 53  1  0
 53 54  1  0
 54 55  2  0
 54 56  1  0
 56 57  1  0
 56 58  1  0
 56 59  1  0
 37  4  1  0
 51 43  1  0
 32 11  1  0
M  END
>  <UniqueID>  (26) 
26

>  <SMILES>  (26) 
C=C1CC[C@@H]2C(=C)[C@H](OC(C)=O)CCC2(C)C1/C=C/C1C(=O)OCC1OC(=O)CBr

>  <Energy>  (26) 
74.80640597010496

>  <Genealogy>  (26) 
C=C1CC[C@@H]2C(=C)[C@H](OC(C)=O)CCC2(C)C1C=CC1C(=O)OCC1OC(=O)CBr (chirality)
C=C1CC[C@@H]2C(=C)[C@H](OC(C)=O)CCC2(C)C1/C=C/C1C(=O)OCC1OC(=O)CBr (cis-trans isomerization)
C=C1CC[C@@H]2C(=C)[C@H](OC(C)=O)CCC2(C)C1/C=C/C1C(=O)OCC1OC(=O)CBr (3D coordinates assigned)
C=C1CC[C@@H]2C(=C)[C@H](OC(C)=O)CCC2(C)C1/C=C/C1C(=O)OCC1OC(=O)CBr (nonaromatic ring conformer: 74.80640597010496 kcal/mol)

>  <smiles>  (26) 
C=C1CCC2C(=C)C(OC(C)=O)CCC2(C)C1C=CC1C(=O)OCC1OC(=O)CBr

>  <score_type>  (26) 
oracle

>  <origin>  (26) 
adg

>  <m_score__min__energy>  (26) 
-9.4399999999999995

>  <m_primary>  (26) 
energy

$$$$
