0:0
     RDKit          3D

 25 26  0  0  0  0  0  0  0  0999 V2000
   57.0270   34.0090   45.2200 C   0  0  0  0  0  0  0  0  0  0  0  0
   57.5960   32.6490   45.4150 C   0  0  0  0  0  0  0  0  0  0  0  0
   56.8030   31.5960   45.0610 N   0  0  0  0  0  0  0  0  0  0  0  0
   57.2490   30.3350   45.2080 C   0  0  0  0  0  0  0  0  0  0  0  0
   58.8580   32.4320   45.9270 C   0  0  0  0  0  0  0  0  0  0  0  0
   55.2420   29.5070   44.3620 N   0  0  0  0  0  0  0  0  0  0  0  0
   56.8890   28.0400   44.9960 N   0  0  0  0  0  0  0  0  0  0  0  0
   56.4260   29.2880   44.8410 C   0  0  0  0  0  0  0  0  0  0  0  0
   58.4730   26.5750   45.6050 N   0  0  0  0  0  0  0  0  0  0  0  0
   59.2650   31.1650   46.0580 N   0  0  0  0  0  0  0  0  0  0  0  0
   58.5170   30.1100   45.7220 C   0  0  0  0  0  0  0  0  0  0  0  0
   58.9450   28.8270   45.8620 N   0  0  0  0  0  0  0  0  0  0  0  0
   60.5930   30.9370   46.5970 C   0  0  0  0  0  0  0  0  0  0  0  0
   58.1340   27.7960   45.5000 C   0  0  0  0  0  0  0  0  0  0  0  0
   59.5770   33.4130   46.2490 O   0  0  0  0  0  0  0  0  0  0  0  0
   56.8342   34.4698   46.2001 H   0  0  0  0  0  0  0  0  0  0  0  0
   57.7415   34.6283   44.6579 H   0  0  0  0  0  0  0  0  0  0  0  0
   56.0844   33.9350   44.6579 H   0  0  0  0  0  0  0  0  0  0  0  0
   54.8410   30.4660   44.5060 H   0  0  0  0  0  0  0  0  0  0  0  0
   56.2740   27.2420   44.7220 H   0  0  0  0  0  0  0  0  0  0  0  0
   58.9160   25.9770   44.8810 H   0  0  0  0  0  0  0  0  0  0  0  0
   59.8800   28.6440   46.2400 H   0  0  0  0  0  0  0  0  0  0  0  0
   60.5489   30.9446   47.6961 H   0  0  0  0  0  0  0  0  0  0  0  0
   60.9664   29.9616   46.2517 H   0  0  0  0  0  0  0  0  0  0  0  0
   61.2703   31.7320   46.2517 H   0  0  0  0  0  0  0  0  0  0  0  0
  1  2  1  0
  2  3  2  0
  3  4  1  0
  4  5  1  0
  5  6  2  3
  5  7  1  0
  7  8  1  0
  8  9  2  3
  8 10  1  0
 10 11  1  0
 11 12  1  0
 12 13  1  0
 12 14  1  0
 14 15  2  0
 14  2  1  0
 11  4  2  0
  1 16  1  0
  1 17  1  0
  1 18  1  0
  6 19  1  0
  7 20  1  0
  9 21  1  0
 10 22  1  0
 13 23  1  0
 13 24  1  0
 13 25  1  0
M  END
>  <smiles>  (1) 
Cc1nc2c(=N)[nH]c(=N)[nH]c2n(C)c1=O

>  <score_type>  (1) 
oracle

>  <origin>  (1) 
adg

>  <m_score__min__energy>  (1) 
-6.29

>  <m_primary>  (1) 
energy

$$$$
1:0
     RDKit          3D

 40 41  0  0  0  0  0  0  0  0999 V2000
   56.0450   25.1870   45.5260 H   0  0  0  0  0  0  0  0  0  0  0  0
   55.9620   25.9590   46.2240 N   0  0  0  0  0  0  0  0  0  0  0  0
   56.5850   27.0830   46.0610 C   0  0  0  0  0  0  0  0  0  0  0  0
   56.0690   28.1250   45.3590 N   0  0  0  0  0  0  0  0  0  0  0  0
   55.1470   28.1860   44.8720 H   0  0  0  0  0  0  0  0  0  0  0  0
   57.0230   29.0700   45.4560 C   0  0  0  0  0  0  0  0  0  0  0  0
   57.0440   30.3650   44.9640 C   0  0  0  0  0  0  0  0  0  0  0  0
   56.0670   30.8090   44.3000 O   0  0  0  0  0  0  0  0  0  0  0  0
   58.1520   31.1450   45.2250 N   0  0  0  0  0  0  0  0  0  0  0  0
   58.2040   32.5370   44.7370 C   0  0  0  0  0  0  0  0  0  0  0  0
   59.2540   32.8538   44.6525 H   0  0  0  0  0  0  0  0  0  0  0  0
   57.7159   32.5917   43.7527 H   0  0  0  0  0  0  0  0  0  0  0  0
   57.4700   33.4670   45.7140 C   0  0  0  0  0  0  0  0  0  0  0  0
   56.8992   34.2070   45.1339 H   0  0  0  0  0  0  0  0  0  0  0  0
   56.8120   32.8427   46.3363 H   0  0  0  0  0  0  0  0  0  0  0  0
   58.4280   34.2130   46.6550 C   0  0  0  0  0  0  0  0  0  0  0  0
   57.8536   34.9613   47.2208 H   0  0  0  0  0  0  0  0  0  0  0  0
   58.8895   33.4670   47.3187 H   0  0  0  0  0  0  0  0  0  0  0  0
   59.5550   34.9250   45.9070 C   0  0  0  0  0  0  0  0  0  0  0  0
   60.2544   35.3668   46.6320 H   0  0  0  0  0  0  0  0  0  0  0  0
   60.0905   34.2010   45.2754 H   0  0  0  0  0  0  0  0  0  0  0  0
   59.1311   35.7196   45.2754 H   0  0  0  0  0  0  0  0  0  0  0  0
   59.1900   30.6370   45.9930 C   0  0  0  0  0  0  0  0  0  0  0  0
   60.1930   31.3490   46.2680 O   0  0  0  0  0  0  0  0  0  0  0  0
   59.1430   29.3580   46.4720 N   0  0  0  0  0  0  0  0  0  0  0  0
   58.0610   28.6000   46.1860 C   0  0  0  0  0  0  0  0  0  0  0  0
   57.8140   27.3400   46.5810 N   0  0  0  0  0  0  0  0  0  0  0  0
   58.6420   26.4810   47.4310 C   0  0  0  0  0  0  0  0  0  0  0  0
   58.2107   26.4545   48.4426 H   0  0  0  0  0  0  0  0  0  0  0  0
   58.6631   25.4728   46.9915 H   0  0  0  0  0  0  0  0  0  0  0  0
   60.0890   27.0070   47.5150 C   0  0  0  0  0  0  0  0  0  0  0  0
   60.0674   28.0855   47.2995 H   0  0  0  0  0  0  0  0  0  0  0  0
   60.6530   26.7830   48.9240 C   0  0  0  0  0  0  0  0  0  0  0  0
   59.9026   27.0810   49.6710 H   0  0  0  0  0  0  0  0  0  0  0  0
   60.8989   25.7190   49.0556 H   0  0  0  0  0  0  0  0  0  0  0  0
   61.5619   27.3884   49.0556 H   0  0  0  0  0  0  0  0  0  0  0  0
   60.9940   26.3350   46.4720 C   0  0  0  0  0  0  0  0  0  0  0  0
   61.7756   25.7547   46.9842 H   0  0  0  0  0  0  0  0  0  0  0  0
   60.3919   25.6634   45.8424 H   0  0  0  0  0  0  0  0  0  0  0  0
   61.4628   27.1056   45.8424 H   0  0  0  0  0  0  0  0  0  0  0  0
  1  2  1  0
  2  3  2  0
  3  4  1  0
  4  5  1  0
  4  6  1  0
  6  7  1  0
  7  8  2  0
  7  9  1  0
  9 10  1  0
 10 11  1  0
 10 12  1  0
 10 13  1  0
 13 14  1  0
 13 15  1  0
 13 16  1  0
 16 17  1  0
 16 18  1  0
 16 19  1  0
 19 20  1  0
 19 21  1  0
 19 22  1  0
  9 23  1  0
 23 24  2  0
 23 25  1  0
 25 26  1  0
 26 27  1  0
 27 28  1  0
 28 29  1  0
 28 30  1  0
 28 31  1  0
 31 32  1  0
 31 33  1  0
 33 34  1  0
 33 35  1  0
 33 36  1  0
 31 37  1  0
 37 38  1  0
 37 39  1  0
 37 40  1  0
 27  3  1  0
 26  6  2  0
M  CHG  1  25  -1
M  END
>  <UniqueID>  (2) 
1

>  <SMILES>  (2) 
[H]/N=c1\[nH]c2c(=O)n(CCCC)c(=O)[n-]c2n1CC(C)C

>  <Energy>  (2) 
72.99227429523775

>  <Genealogy>  (2) 
CCCCn1c(=O)[n-]c2c([nH]c(=N)n2CC(C)C)c1=O (protonated)
[H]/N=c1\[nH]c2c(=O)n(CCCC)c(=O)[n-]c2n1CC(C)C (cis-trans isomerization)
[H]/N=c1\[nH]c2c(=O)n(CCCC)c(=O)[n-]c2n1CC(C)C (3D coordinates assigned)
[H]/N=c1\[nH]c2c(=O)n(CCCC)c(=O)[n-]c2n1CC(C)C (optimized conformer: 72.99227429523775 kcal/mol)

>  <smiles>  (2) 
CCCCn1c(=O)[nH]c2c([nH]c(=N)n2CC(C)C)c1=O

>  <score_type>  (2) 
oracle

>  <origin>  (2) 
adg

>  <m_score__min__energy>  (2) 
-8.0299999999999994

>  <m_primary>  (2) 
energy

$$$$
2:0
     RDKit          3D

 35 37  0  0  0  0  0  0  0  0999 V2000
   56.2710   23.0140   48.2490 C   0  0  0  0  0  0  0  0  0  0  0  0
   57.2950   22.8290   47.2780 O   0  0  0  0  0  0  0  0  0  0  0  0
   57.0760   22.4450   45.9440 C   0  0  0  0  0  0  0  0  0  0  0  0
   57.2870   21.1160   45.5220 C   0  0  0  0  0  0  0  0  0  0  0  0
   57.0810   20.7520   44.1920 C   0  0  0  0  0  0  0  0  0  0  0  0
   56.6620   21.7030   43.2640 C   0  0  0  0  0  0  0  0  0  0  0  0
   56.4460   23.0230   43.6630 C   0  0  0  0  0  0  0  0  0  0  0  0
   56.6460   23.4130   45.0020 C   0  0  0  0  0  0  0  0  0  0  0  0
   56.4040   24.8240   45.4050 C   0  0  0  0  0  0  0  0  0  0  0  0
   57.2710   25.8910   45.2390 C   0  0  0  0  0  0  0  0  0  0  0  0
   56.5880   26.9680   45.7700 C   0  0  0  0  0  0  0  0  0  0  0  0
   57.0500   28.3660   45.8270 C   0  0  0  0  0  0  0  0  0  0  0  0
   58.1050   28.6360   46.4580 O   0  0  0  0  0  0  0  0  0  0  0  0
   56.3040   29.4390   45.2360 N   0  0  0  0  0  0  0  0  0  0  0  0
   56.8450   30.5200   44.4630 C   0  0  0  0  0  0  0  0  0  0  0  0
   57.4760   31.5790   45.1270 C   0  0  0  0  0  0  0  0  0  0  0  0
   58.0270   32.6390   44.4000 C   0  0  0  0  0  0  0  0  0  0  0  0
   57.9630   32.6390   43.0040 C   0  0  0  0  0  0  0  0  0  0  0  0
   57.3560   31.5740   42.3330 C   0  0  0  0  0  0  0  0  0  0  0  0
   56.8050   30.5120   43.0560 C   0  0  0  0  0  0  0  0  0  0  0  0
   55.3800   26.5650   46.2070 N   0  0  0  0  0  0  0  0  0  0  0  0
   55.2710   25.2640   45.9890 N   0  0  0  0  0  0  0  0  0  0  0  0
   56.7035   22.9359   49.2574 H   0  0  0  0  0  0  0  0  0  0  0  0
   55.8187   24.0084   48.1200 H   0  0  0  0  0  0  0  0  0  0  0  0
   55.4994   22.2407   48.1200 H   0  0  0  0  0  0  0  0  0  0  0  0
   57.6172   20.3594   46.2490 H   0  0  0  0  0  0  0  0  0  0  0  0
   57.2496   19.7123   43.8748 H   0  0  0  0  0  0  0  0  0  0  0  0
   56.5011   21.4131   42.2152 H   0  0  0  0  0  0  0  0  0  0  0  0
   56.1158   23.7674   42.9235 H   0  0  0  0  0  0  0  0  0  0  0  0
   58.2741   25.8828   44.7876 H   0  0  0  0  0  0  0  0  0  0  0  0
   57.5386   31.5772   46.2252 H   0  0  0  0  0  0  0  0  0  0  0  0
   58.5114   33.4738   44.9277 H   0  0  0  0  0  0  0  0  0  0  0  0
   58.3902   33.4769   42.4336 H   0  0  0  0  0  0  0  0  0  0  0  0
   57.3117   31.5714   41.2339 H   0  0  0  0  0  0  0  0  0  0  0  0
   56.3395   29.6688   42.5246 H   0  0  0  0  0  0  0  0  0  0  0  0
  1  2  1  0
  2  3  1  0
  3  4  2  0
  4  5  1  0
  5  6  2  0
  6  7  1  0
  7  8  2  0
  8  9  1  0
  9 10  2  0
 10 11  1  0
 11 12  1  0
 12 13  2  0
 12 14  1  0
 14 15  1  0
 15 16  2  0
 16 17  1  0
 17 18  2  0
 18 19  1  0
 19 20  2  0
 11 21  2  0
 21 22  1  0
  8  3  1  0
 22  9  1  0
 20 15  1  0
  1 23  1  0
  1 24  1  0
  1 25  1  0
  4 26  1  0
  5 27  1  0
  6 28  1  0
  7 29  1  0
 10 30  1  0
 16 31  1  0
 17 32  1  0
 18 33  1  0
 19 34  1  0
 20 35  1  0
M  CHG  2  14  -1  22  -1
M  END
>  <UniqueID>  (3) 
2

>  <SMILES>  (3) 
COc1ccccc1-c1cc(C(=O)[N-]c2ccccc2)n[n-]1

>  <Energy>  (3) 
74.65839902303934

>  <Genealogy>  (3) 
COc1ccccc1-c1cc(C(=O)[N-]c2ccccc2)n[n-]1 (protonated)
COc1ccccc1-c1cc(C(=O)[N-]c2ccccc2)n[n-]1 (3D coordinates assigned)
COc1ccccc1-c1cc(C(=O)[N-]c2ccccc2)n[n-]1 (optimized conformer: 74.65839902303934 kcal/mol)

>  <smiles>  (3) 
COc1ccccc1-c1cc(C(=O)Nc2ccccc2)n[nH]1

>  <score_type>  (3) 
oracle

>  <origin>  (3) 
adg

>  <m_score__min__energy>  (3) 
-11.539999999999999

>  <m_primary>  (3) 
energy

$$$$
3:0
     RDKit          3D

 50 52  0  0  0  0  0  0  0  0999 V2000
   58.1180   26.5900   43.8580 C   0  0  0  0  0  0  0  0  0  0  0  0
   58.0670   27.4990   45.1000 C   0  0  0  0  0  0  0  0  0  0  0  0
   57.1590   26.8430   46.1630 C   0  0  0  0  0  0  0  0  0  0  0  0
   59.4830   27.6540   45.6910 C   0  0  0  0  0  0  0  0  0  0  0  0
   57.5410   28.8230   44.7140 N   0  0  0  0  0  0  0  0  0  0  0  0
   58.2760   29.9310   44.4780 C   0  0  0  0  0  0  0  0  0  0  0  0
   57.4200   30.9470   44.1070 C   0  0  0  0  0  0  0  0  0  0  0  0
   57.7750   32.3220   43.7160 C   0  0  0  0  0  0  0  0  0  0  0  0
   57.8070   32.6260   42.4930 O   0  0  0  0  0  0  0  0  0  0  0  0
   58.1220   33.3060   44.7030 N   0  0  0  0  0  0  0  0  0  0  0  0
   59.2410   34.2190   44.4400 C   0  0  0  0  0  0  0  0  0  0  0  0
   59.6500   34.9670   45.7130 C   0  0  0  0  0  0  0  0  0  0  0  0
   59.4450   34.0850   46.8740 N   0  0  0  0  0  0  0  0  0  0  0  0
   60.1980   34.4990   48.0800 C   0  0  0  0  0  0  0  0  0  0  0  0
   61.4810   33.7200   48.3120 C   0  0  0  0  0  0  0  0  0  0  0  0
   62.3620   33.4460   47.2450 C   0  0  0  0  0  0  0  0  0  0  0  0
   62.0710   33.8480   45.9820 F   0  0  0  0  0  0  0  0  0  0  0  0
   63.5410   32.7300   47.4700 C   0  0  0  0  0  0  0  0  0  0  0  0
   63.8500   32.2660   48.7500 C   0  0  0  0  0  0  0  0  0  0  0  0
   62.9760   32.5100   49.8100 C   0  0  0  0  0  0  0  0  0  0  0  0
   61.7930   33.2250   49.5960 C   0  0  0  0  0  0  0  0  0  0  0  0
   60.9530   33.4330   50.6420 F   0  0  0  0  0  0  0  0  0  0  0  0
   58.0100   33.8350   47.1290 C   0  0  0  0  0  0  0  0  0  0  0  0
   57.2190   33.5830   45.8270 C   0  0  0  0  0  0  0  0  0  0  0  0
   56.1620   30.3790   44.1140 C   0  0  0  0  0  0  0  0  0  0  0  0
   56.2610   29.0880   44.4870 N   0  0  0  0  0  0  0  0  0  0  0  0
   58.1770   25.5384   44.1754 H   0  0  0  0  0  0  0  0  0  0  0  0
   57.2100   26.7408   43.2557 H   0  0  0  0  0  0  0  0  0  0  0  0
   59.0035   26.8414   43.2557 H   0  0  0  0  0  0  0  0  0  0  0  0
   57.5221   27.1053   47.1677 H   0  0  0  0  0  0  0  0  0  0  0  0
   56.1281   27.2062   46.0393 H   0  0  0  0  0  0  0  0  0  0  0  0
   57.1800   25.7502   46.0393 H   0  0  0  0  0  0  0  0  0  0  0  0
   59.4246   27.6476   46.7894 H   0  0  0  0  0  0  0  0  0  0  0  0
   60.1149   26.8197   45.3526 H   0  0  0  0  0  0  0  0  0  0  0  0
   59.9195   28.6053   45.3526 H   0  0  0  0  0  0  0  0  0  0  0  0
   59.3696   30.0098   44.5664 H   0  0  0  0  0  0  0  0  0  0  0  0
   60.1000   33.6387   44.0721 H   0  0  0  0  0  0  0  0  0  0  0  0
   58.9229   34.9556   43.6875 H   0  0  0  0  0  0  0  0  0  0  0  0
   60.7106   35.2517   45.6488 H   0  0  0  0  0  0  0  0  0  0  0  0
   59.0386   35.8748   45.8233 H   0  0  0  0  0  0  0  0  0  0  0  0
   60.4548   35.5637   47.9775 H   0  0  0  0  0  0  0  0  0  0  0  0
   59.5464   34.2984   48.9433 H   0  0  0  0  0  0  0  0  0  0  0  0
   64.2286   32.5311   46.6348 H   0  0  0  0  0  0  0  0  0  0  0  0
   64.7822   31.7082   48.9228 H   0  0  0  0  0  0  0  0  0  0  0  0
   63.2180   32.1390   50.8169 H   0  0  0  0  0  0  0  0  0  0  0  0
   57.9145   32.9517   47.7776 H   0  0  0  0  0  0  0  0  0  0  0  0
   57.5920   34.7324   47.6086 H   0  0  0  0  0  0  0  0  0  0  0  0
   56.5527   32.7201   45.9732 H   0  0  0  0  0  0  0  0  0  0  0  0
   56.6372   34.4865   45.5922 H   0  0  0  0  0  0  0  0  0  0  0  0
   55.2270   30.8979   43.8560 H   0  0  0  0  0  0  0  0  0  0  0  0
  1  2  1  0
  2  3  1  0
  2  4  1  0
  2  5  1  0
  5  6  1  0
  6  7  2  0
  7  8  1  0
  8  9  2  0
  8 10  1  0
 10 11  1  0
 11 12  1  0
 12 13  1  0
 13 14  1  0
 14 15  1  0
 15 16  2  0
 16 17  1  0
 16 18  1  0
 18 19  2  0
 19 20  1  0
 20 21  2  0
 21 22  1  0
 13 23  1  0
 23 24  1  0
  7 25  1  0
 25 26  2  0
 26  5  1  0
 24 10  1  0
 21 15  1  0
  1 27  1  0
  1 28  1  0
  1 29  1  0
  3 30  1  0
  3 31  1  0
  3 32  1  0
  4 33  1  0
  4 34  1  0
  4 35  1  0
  6 36  1  0
 11 37  1  0
 11 38  1  0
 12 39  1  0
 12 40  1  0
 14 41  1  0
 14 42  1  0
 18 43  1  0
 19 44  1  0
 20 45  1  0
 23 46  1  0
 23 47  1  0
 24 48  1  0
 24 49  1  0
 25 50  1  0
M  END
>  <UniqueID>  (4) 
3

>  <SMILES>  (4) 
CC(C)(C)n1cc(C(=O)N2CCN(Cc3c(F)cccc3F)CC2)cn1

>  <Energy>  (4) 
89.63129189938999

>  <Genealogy>  (4) 
CC(C)(C)n1cc(C(=O)N2CCN(Cc3c(F)cccc3F)CC2)cn1 (3D coordinates assigned)
CC(C)(C)n1cc(C(=O)N2CCN(Cc3c(F)cccc3F)CC2)cn1 (nonaromatic ring conformer: 89.63129189938999 kcal/mol)

>  <smiles>  (4) 
CC(C)(C)n1cc(C(=O)N2CCN(Cc3c(F)cccc3F)CC2)cn1

>  <score_type>  (4) 
oracle

>  <origin>  (4) 
adg

>  <m_score__min__energy>  (4) 
-8.5600000000000005

>  <m_primary>  (4) 
energy

$$$$
4:0
     RDKit          3D

 41 44  0  0  0  0  0  0  0  0999 V2000
   56.4216   33.8590   44.4850 H   0  0  0  0  0  0  0  0  0  0  0  0
   57.3680   33.3660   44.7520 C   0  0  0  0  0  0  0  0  0  0  0  0
   57.3590   31.9120   45.0150 C   0  0  0  0  0  0  0  0  0  0  0  0
   56.4370   31.2230   44.5020 O   0  0  0  0  0  0  0  0  0  0  0  0
   58.3710   31.2370   45.8640 C   0  0  0  0  0  0  0  0  0  0  0  0
   59.3010   30.3210   45.3040 C   0  0  0  0  0  0  0  0  0  0  0  0
   59.2622   30.0944   44.2283 H   0  0  0  0  0  0  0  0  0  0  0  0
   60.2710   29.7010   46.1120 C   0  0  0  0  0  0  0  0  0  0  0  0
   60.9878   28.9825   45.6879 H   0  0  0  0  0  0  0  0  0  0  0  0
   60.2950   30.0250   47.4630 C   0  0  0  0  0  0  0  0  0  0  0  0
   59.4210   30.9110   48.0040 C   0  0  0  0  0  0  0  0  0  0  0  0
   58.4470   31.5460   47.2420 C   0  0  0  0  0  0  0  0  0  0  0  0
   57.7546   32.2688   47.6982 H   0  0  0  0  0  0  0  0  0  0  0  0
   59.6780   31.0420   49.3560 O   0  0  0  0  0  0  0  0  0  0  0  0
   60.7810   30.1860   49.6840 C   0  0  0  0  0  0  0  0  0  0  0  0
   61.6222   30.7741   50.0796 H   0  0  0  0  0  0  0  0  0  0  0  0
   60.5173   29.4517   50.4594 H   0  0  0  0  0  0  0  0  0  0  0  0
   61.1440   29.5560   48.4470 O   0  0  0  0  0  0  0  0  0  0  0  0
   58.4800   34.1090   44.8250 C   0  0  0  0  0  0  0  0  0  0  0  0
   58.8157   34.6428   43.9237 H   0  0  0  0  0  0  0  0  0  0  0  0
   59.2740   34.2430   46.0600 C   0  0  0  0  0  0  0  0  0  0  0  0
   58.8840   34.9860   47.1160 N   0  0  0  0  0  0  0  0  0  0  0  0
   59.8430   34.8790   48.0210 N   0  0  0  0  0  0  0  0  0  0  0  0
   59.8010   35.3360   48.9590 H   0  0  0  0  0  0  0  0  0  0  0  0
   60.8280   34.1020   47.5930 N   0  0  0  0  0  0  0  0  0  0  0  0
   62.0210   33.7830   48.3360 C   0  0  0  0  0  0  0  0  0  0  0  0
   62.1780   34.2230   49.6630 C   0  0  0  0  0  0  0  0  0  0  0  0
   61.3829   34.8159   50.1387 H   0  0  0  0  0  0  0  0  0  0  0  0
   63.3360   33.9130   50.3820 C   0  0  0  0  0  0  0  0  0  0  0  0
   63.4512   34.2730   51.4150 H   0  0  0  0  0  0  0  0  0  0  0  0
   64.3510   33.1460   49.7940 C   0  0  0  0  0  0  0  0  0  0  0  0
   65.6090   32.8480   50.5530 C   0  0  0  0  0  0  0  0  0  0  0  0
   65.4058   32.8961   51.6330 H   0  0  0  0  0  0  0  0  0  0  0  0
   65.9651   31.8406   50.2915 H   0  0  0  0  0  0  0  0  0  0  0  0
   66.3792   33.5886   50.2915 H   0  0  0  0  0  0  0  0  0  0  0  0
   64.2070   32.7180   48.4670 C   0  0  0  0  0  0  0  0  0  0  0  0
   65.0088   32.1350   47.9903 H   0  0  0  0  0  0  0  0  0  0  0  0
   63.0500   33.0280   47.7460 C   0  0  0  0  0  0  0  0  0  0  0  0
   62.9438   32.6783   46.7085 H   0  0  0  0  0  0  0  0  0  0  0  0
   60.5040   33.6800   46.3560 C   0  0  0  0  0  0  0  0  0  0  0  0
   61.0988   33.0188   45.7087 H   0  0  0  0  0  0  0  0  0  0  0  0
  1  2  1  0
  2  3  1  0
  3  4  2  0
  3  5  1  0
  5  6  2  0
  6  7  1  0
  6  8  1  0
  8  9  1  0
  8 10  2  0
 10 11  1  0
 11 12  2  0
 12 13  1  0
 11 14  1  0
 14 15  1  0
 15 16  1  0
 15 17  1  0
 15 18  1  0
  2 19  2  0
 19 20  1  0
 19 21  1  0
 21 22  1  0
 22 23  2  0
 23 24  1  0
 23 25  1  0
 25 26  1  0
 26 27  2  0
 27 28  1  0
 27 29  1  0
 29 30  1  0
 29 31  2  0
 31 32  1  0
 32 33  1  0
 32 34  1  0
 32 35  1  0
 31 36  1  0
 36 37  1  0
 36 38  2  0
 38 39  1  0
 25 40  1  0
 40 41  1  0
 12  5  1  0
 40 21  2  0
 18 10  1  0
 38 26  1  0
M  CHG  1  23   1
M  END
>  <UniqueID>  (5) 
4

>  <SMILES>  (5) 
Cc1ccc(-n2cc(/C=C/C(=O)c3ccc4c(c3)OCO4)n[nH+]2)cc1

>  <Energy>  (5) 
114.8101194266506

>  <Genealogy>  (5) 
Cc1ccc(-n2cc(C=CC(=O)c3ccc4c(c3)OCO4)n[nH+]2)cc1 (protonated)
Cc1ccc(-n2cc(/C=C/C(=O)c3ccc4c(c3)OCO4)n[nH+]2)cc1 (cis-trans isomerization)
Cc1ccc(-n2cc(/C=C/C(=O)c3ccc4c(c3)OCO4)n[nH+]2)cc1 (3D coordinates assigned)
Cc1ccc(-n2cc(/C=C/C(=O)c3ccc4c(c3)OCO4)n[nH+]2)cc1 (nonaromatic ring conformer: 114.8101194266506 kcal/mol)

>  <smiles>  (5) 
Cc1ccc(-n2cc(C=CC(=O)c3ccc4c(c3)OCO4)nn2)cc1

>  <score_type>  (5) 
oracle

>  <origin>  (5) 
adg

>  <m_score__min__energy>  (5) 
-7.5599999999999996

>  <m_primary>  (5) 
energy

$$$$
5:0
     RDKit          3D

 31 33  0  0  1  0  0  0  0  0999 V2000
   63.9420   32.6830   49.1470 C   0  0  0  0  0  0  0  0  0  0  0  0
   63.1290   33.1930   48.0520 N   0  0  0  0  0  0  0  0  0  0  0  0
   63.4630   33.3170   46.7450 C   0  0  0  0  0  0  0  0  0  0  0  0
   62.4010   33.8350   46.0970 N   0  0  0  0  0  0  0  0  0  0  0  0
   61.3910   34.0470   46.9540 C   0  0  0  0  0  0  0  0  0  0  0  0
   60.1210   34.5550   46.7720 C   0  0  0  0  0  0  0  0  0  0  0  0
   59.6650   34.9410   45.6300 N   0  0  0  0  0  0  0  0  0  0  0  0
   58.3030   34.5720   45.3060 C   0  0  0  0  0  0  0  0  0  0  0  0
   58.1800   33.1110   45.0440 C   0  0  0  0  0  0  0  0  0  0  0  0
   58.2590   32.1640   46.0550 C   0  0  0  0  0  0  0  0  0  0  0  0
   58.1350   30.8260   45.7310 C   0  0  0  0  0  0  0  0  0  0  0  0
   57.9360   30.4030   44.4330 C   0  0  0  0  0  0  0  0  0  0  0  0
   57.7840   28.5300   44.1350 Br  0  0  0  0  0  0  0  0  0  0  0  0
   57.8570   31.3370   43.4230 C   0  0  0  0  0  0  0  0  0  0  0  0
   57.9800   32.6900   43.7360 C   0  0  0  0  0  0  0  0  0  0  0  0
   59.3280   34.6440   47.8550 N   0  0  0  0  0  0  0  0  0  0  0  0
   59.7790   34.2460   49.0620 C   0  0  0  0  0  0  0  0  0  0  0  0
   61.0150   33.7510   49.2500 N   0  0  0  0  0  0  0  0  0  0  0  0
   61.8540   33.6380   48.2020 C   0  0  0  0  0  0  0  0  0  0  0  0
   63.4860   32.9690   50.1063 H   0  0  0  0  0  0  0  0  0  0  0  0
   63.9998   31.5865   49.0810 H   0  0  0  0  0  0  0  0  0  0  0  0
   64.9544   33.1082   49.0810 H   0  0  0  0  0  0  0  0  0  0  0  0
   64.4282   33.0438   46.2935 H   0  0  0  0  0  0  0  0  0  0  0  0
   57.6499   34.8399   46.1496 H   0  0  0  0  0  0  0  0  0  0  0  0
   58.0071   35.1118   44.3944 H   0  0  0  0  0  0  0  0  0  0  0  0
   58.4179   32.4733   47.0986 H   0  0  0  0  0  0  0  0  0  0  0  0
   58.1969   30.0754   46.5327 H   0  0  0  0  0  0  0  0  0  0  0  0
   57.6987   31.0188   42.3820 H   0  0  0  0  0  0  0  0  0  0  0  0
   57.9174   33.4379   42.9318 H   0  0  0  0  0  0  0  0  0  0  0  0
   58.3570   35.0180   47.7840 H   0  0  0  0  0  0  0  0  0  0  0  0
   59.1075   34.3298   49.9292 H   0  0  0  0  0  0  0  0  0  0  0  0
  1  2  1  0
  2  3  1  0
  3  4  2  0
  4  5  1  0
  5  6  1  0
  6  7  2  0
  7  8  1  0
  8  9  1  0
  9 10  2  0
 10 11  1  0
 11 12  2  0
 12 13  1  0
 12 14  1  0
 14 15  2  0
  6 16  1  0
 16 17  1  0
 17 18  2  0
 18 19  1  0
 19  2  1  0
 19  5  2  0
 15  9  1  0
  1 20  1  0
  1 21  1  0
  1 22  1  0
  3 23  1  0
  8 24  1  0
  8 25  1  0
 10 26  1  0
 11 27  1  0
 14 28  1  0
 15 29  1  0
 16 30  1  0
 17 31  1  0
M  END
>  <smiles>  (6) 
Cn1cnc2c(=NCc3ccc(Br)cc3)[nH]cnc21

>  <score_type>  (6) 
oracle

>  <origin>  (6) 
adg

>  <m_score__min__energy>  (6) 
-7.0099999999999998

>  <m_primary>  (6) 
energy

$$$$
6:0
     RDKit          3D

 40 42  0  0  0  0  0  0  0  0999 V2000
   63.8304   32.6650   48.4273 H   0  0  0  0  0  0  0  0  0  0  0  0
   62.8650   33.0890   48.1140 C   0  0  0  0  0  0  0  0  0  0  0  0
   62.6150   33.3270   46.7630 C   0  0  0  0  0  0  0  0  0  0  0  0
   63.3819   33.0865   46.0120 H   0  0  0  0  0  0  0  0  0  0  0  0
   61.3930   33.8700   46.3620 C   0  0  0  0  0  0  0  0  0  0  0  0
   61.1987   34.0499   45.2944 H   0  0  0  0  0  0  0  0  0  0  0  0
   60.4100   34.1880   47.3140 C   0  0  0  0  0  0  0  0  0  0  0  0
   59.0860   34.7460   46.8650 C   0  0  0  0  0  0  0  0  0  0  0  0
   59.2134   35.2701   45.9063 H   0  0  0  0  0  0  0  0  0  0  0  0
   58.7080   35.4535   47.6177 H   0  0  0  0  0  0  0  0  0  0  0  0
   58.1350   33.6490   46.7000 N   0  0  0  0  0  0  0  0  0  0  0  0
   58.1400   32.7500   45.7530 C   0  0  0  0  0  0  0  0  0  0  0  0
   57.7620   33.0650   44.4330 C   0  0  0  0  0  0  0  0  0  0  0  0
   57.4536   34.0898   44.1786 H   0  0  0  0  0  0  0  0  0  0  0  0
   57.7790   32.0770   43.4490 C   0  0  0  0  0  0  0  0  0  0  0  0
   57.4837   32.3276   42.4194 H   0  0  0  0  0  0  0  0  0  0  0  0
   58.1570   30.8080   43.7510 N   0  0  0  0  0  0  0  0  0  0  0  0
   58.1570   30.0960   42.9860 H   0  0  0  0  0  0  0  0  0  0  0  0
   58.5300   30.4560   45.0150 C   0  0  0  0  0  0  0  0  0  0  0  0
   58.9130   29.1350   45.2940 C   0  0  0  0  0  0  0  0  0  0  0  0
   58.9110   28.3873   44.4872 H   0  0  0  0  0  0  0  0  0  0  0  0
   59.2970   28.7570   46.5840 C   0  0  0  0  0  0  0  0  0  0  0  0
   59.6710   27.4220   46.8030 O   0  0  0  0  0  0  0  0  0  0  0  0
   60.3410   26.9550   47.9690 C   0  0  0  0  0  0  0  0  0  0  0  0
   59.8167   27.3204   48.8643 H   0  0  0  0  0  0  0  0  0  0  0  0
   60.3484   25.8550   47.9718 H   0  0  0  0  0  0  0  0  0  0  0  0
   61.3756   27.3287   47.9718 H   0  0  0  0  0  0  0  0  0  0  0  0
   59.2960   29.7160   47.6110 C   0  0  0  0  0  0  0  0  0  0  0  0
   59.5956   29.4264   48.6290 H   0  0  0  0  0  0  0  0  0  0  0  0
   58.9170   31.0350   47.3480 C   0  0  0  0  0  0  0  0  0  0  0  0
   58.9215   31.7761   48.1609 H   0  0  0  0  0  0  0  0  0  0  0  0
   58.5290   31.4240   46.0500 C   0  0  0  0  0  0  0  0  0  0  0  0
   60.6530   33.9350   48.6810 C   0  0  0  0  0  0  0  0  0  0  0  0
   59.6480   34.2320   49.6160 O   0  0  0  0  0  0  0  0  0  0  0  0
   59.3850   33.4700   50.7910 C   0  0  0  0  0  0  0  0  0  0  0  0
   59.5963   34.0823   51.6800 H   0  0  0  0  0  0  0  0  0  0  0  0
   58.3288   33.1628   50.8000 H   0  0  0  0  0  0  0  0  0  0  0  0
   60.0268   32.5767   50.8000 H   0  0  0  0  0  0  0  0  0  0  0  0
   61.8920   33.3880   49.0700 C   0  0  0  0  0  0  0  0  0  0  0  0
   62.0941   33.1952   50.1339 H   0  0  0  0  0  0  0  0  0  0  0  0
  1  2  1  0
  2  3  2  0
  3  4  1  0
  3  5  1  0
  5  6  1  0
  5  7  2  0
  7  8  1  0
  8  9  1  0
  8 10  1  0
  8 11  1  0
 11 12  2  0
 12 13  1  0
 13 14  1  0
 13 15  2  0
 15 16  1  0
 15 17  1  0
 17 18  1  0
 17 19  1  0
 19 20  2  0
 20 21  1  0
 20 22  1  0
 22 23  1  0
 23 24  1  0
 24 25  1  0
 24 26  1  0
 24 27  1  0
 22 28  2  0
 28 29  1  0
 28 30  1  0
 30 31  1  0
 30 32  2  0
  7 33  1  0
 33 34  1  0
 34 35  1  0
 35 36  1  0
 35 37  1  0
 35 38  1  0
 33 39  2  0
 39 40  1  0
 39  2  1  0
 32 12  1  0
 32 19  1  0
M  END
>  <UniqueID>  (7) 
5

>  <SMILES>  (7) 
COc1ccc2/c(=N/Cc3ccccc3OC)cc[nH]c2c1

>  <Energy>  (7) 
47.11251271561861

>  <Genealogy>  (7) 
COc1ccc2/c(=N/Cc3ccccc3OC)cc[nH]c2c1 (cis-trans isomerization)
COc1ccc2/c(=N/Cc3ccccc3OC)cc[nH]c2c1 (3D coordinates assigned)
COc1ccc2/c(=N/Cc3ccccc3OC)cc[nH]c2c1 (optimized conformer: 47.11251271561861 kcal/mol)

>  <smiles>  (7) 
COc1ccc2c(=NCc3ccccc3OC)cc[nH]c2c1

>  <score_type>  (7) 
oracle

>  <origin>  (7) 
adg

>  <m_score__min__energy>  (7) 
-7.2599999999999998

>  <m_primary>  (7) 
energy

$$$$
7:0
     RDKit          3D

 32 32  0  0  0  0  0  0  0  0999 V2000
   55.1510   28.1940   45.6740 H   0  0  0  0  0  0  0  0  0  0  0  0
   55.5190   28.8140   44.9610 O   0  0  0  0  0  0  0  0  0  0  0  0
   56.8760   28.8960   44.7080 N   0  0  0  0  0  0  0  0  0  0  0  0
   57.5950   27.8020   44.7030 C   0  0  0  0  0  0  0  0  0  0  0  0
   57.7750   27.0210   45.8980 N   0  0  0  0  0  0  0  0  0  0  0  0
   56.7970   25.9630   46.1770 C   0  0  0  0  0  0  0  0  0  0  0  0
   56.9679   25.1169   45.4952 H   0  0  0  0  0  0  0  0  0  0  0  0
   56.9102   25.6246   47.2175 H   0  0  0  0  0  0  0  0  0  0  0  0
   55.5030   26.4610   45.9870 O   0  0  0  0  0  0  0  0  0  0  0  0
   55.4190   26.6480   45.0160 H   0  0  0  0  0  0  0  0  0  0  0  0
   59.1130   26.9910   46.5060 C   0  0  0  0  0  0  0  0  0  0  0  0
   59.1055   26.2828   47.3477 H   0  0  0  0  0  0  0  0  0  0  0  0
   59.8319   26.6807   45.7335 H   0  0  0  0  0  0  0  0  0  0  0  0
   59.5300   28.3500   47.0150 C   0  0  0  0  0  0  0  0  0  0  0  0
   60.3760   29.1680   46.2480 C   0  0  0  0  0  0  0  0  0  0  0  0
   60.7497   28.8111   45.2769 H   0  0  0  0  0  0  0  0  0  0  0  0
   60.7450   30.4330   46.7130 C   0  0  0  0  0  0  0  0  0  0  0  0
   61.4088   31.0677   46.1077 H   0  0  0  0  0  0  0  0  0  0  0  0
   60.2730   30.8940   47.9450 C   0  0  0  0  0  0  0  0  0  0  0  0
   60.5633   31.8910   48.3079 H   0  0  0  0  0  0  0  0  0  0  0  0
   59.4320   30.0870   48.7150 C   0  0  0  0  0  0  0  0  0  0  0  0
   59.0607   30.4493   49.6850 H   0  0  0  0  0  0  0  0  0  0  0  0
   59.0610   28.8190   48.2550 C   0  0  0  0  0  0  0  0  0  0  0  0
   58.3999   28.1864   48.8656 H   0  0  0  0  0  0  0  0  0  0  0  0
   58.2470   27.3290   43.4320 C   0  0  0  0  0  0  0  0  0  0  0  0
   59.1149   26.6994   43.6775 H   0  0  0  0  0  0  0  0  0  0  0  0
   57.5239   26.7439   42.8447 H   0  0  0  0  0  0  0  0  0  0  0  0
   58.5788   28.1979   42.8447 H   0  0  0  0  0  0  0  0  0  0  0  0
   57.4450   30.2050   44.3750 C   0  0  0  0  0  0  0  0  0  0  0  0
   57.6813   30.7486   45.3017 H   0  0  0  0  0  0  0  0  0  0  0  0
   58.3641   30.0664   43.7867 H   0  0  0  0  0  0  0  0  0  0  0  0
   56.7167   30.7825   43.7867 H   0  0  0  0  0  0  0  0  0  0  0  0
  1  2  1  0
  2  3  1  0
  3  4  2  0
  4  5  1  0
  5  6  1  0
  6  7  1  0
  6  8  1  0
  6  9  1  0
  9 10  1  0
  5 11  1  0
 11 12  1  0
 11 13  1  0
 11 14  1  0
 14 15  2  0
 15 16  1  0
 15 17  1  0
 17 18  1  0
 17 19  2  0
 19 20  1  0
 19 21  1  0
 21 22  1  0
 21 23  2  0
 23 24  1  0
  4 25  1  0
 25 26  1  0
 25 27  1  0
 25 28  1  0
  3 29  1  0
 29 30  1  0
 29 31  1  0
 29 32  1  0
 23 14  1  0
M  CHG  1   3   1
M  END
>  <UniqueID>  (8) 
6

>  <SMILES>  (8) 
C/C(N(CO)Cc1ccccc1)=[N+](/C)O

>  <Energy>  (8) 
33.307936169991805

>  <Genealogy>  (8) 
CC(N(CO)Cc1ccccc1)=[N+](C)O (protonated)
C/C(N(CO)Cc1ccccc1)=[N+](/C)O (cis-trans isomerization)
C/C(N(CO)Cc1ccccc1)=[N+](/C)O (3D coordinates assigned)
C/C(N(CO)Cc1ccccc1)=[N+](/C)O (optimized conformer: 33.307936169991805 kcal/mol)

>  <smiles>  (8) 
CC(N(CO)Cc1ccccc1)=[N+](C)[O-]

>  <score_type>  (8) 
oracle

>  <origin>  (8) 
adg

>  <m_score__min__energy>  (8) 
-4.6699999999999999

>  <m_primary>  (8) 
energy

$$$$
8:0
     RDKit          3D

 42 44  0  0  0  0  0  0  0  0999 V2000
   55.5050   29.2340   44.8670 O   0  0  0  0  0  0  0  0  0  0  0  0
   56.3840   29.9720   44.3520 C   0  0  0  0  0  0  0  0  0  0  0  0
   57.1410   29.4770   43.1520 C   0  0  0  0  0  0  0  0  0  0  0  0
   57.7690   27.7800   43.4190 S   0  0  0  0  0  0  0  0  0  0  0  0
   58.7750   28.1840   44.8510 C   0  0  0  0  0  0  0  0  0  0  0  0
   58.3850   27.7600   46.1280 C   0  0  0  0  0  0  0  0  0  0  0  0
   59.1640   28.0870   47.2430 C   0  0  0  0  0  0  0  0  0  0  0  0
   60.3290   28.8440   47.0850 C   0  0  0  0  0  0  0  0  0  0  0  0
   60.7130   29.2800   45.8130 C   0  0  0  0  0  0  0  0  0  0  0  0
   59.9360   28.9540   44.6970 C   0  0  0  0  0  0  0  0  0  0  0  0
   56.5500   31.3020   44.8660 N   0  0  0  0  0  0  0  0  0  0  0  0
   57.7030   31.8300   45.5340 C   0  0  0  0  0  0  0  0  0  0  0  0
   58.3480   32.9470   44.9910 C   0  0  0  0  0  0  0  0  0  0  0  0
   59.4590   33.5050   45.6330 C   0  0  0  0  0  0  0  0  0  0  0  0
   59.9270   32.9630   46.8410 C   0  0  0  0  0  0  0  0  0  0  0  0
   61.0760   33.5350   47.4950 N   0  0  0  0  0  0  0  0  0  0  0  0
   62.3370   33.6860   46.7600 C   0  0  0  0  0  0  0  0  0  0  0  0
   63.5120   33.6460   47.7410 C   0  0  0  0  0  0  0  0  0  0  0  0
   63.3270   34.5800   48.7880 O   0  0  0  0  0  0  0  0  0  0  0  0
   62.2000   34.2140   49.5630 C   0  0  0  0  0  0  0  0  0  0  0  0
   60.9160   34.3030   48.7330 C   0  0  0  0  0  0  0  0  0  0  0  0
   59.2620   31.8580   47.3980 C   0  0  0  0  0  0  0  0  0  0  0  0
   58.1510   31.3040   46.7560 C   0  0  0  0  0  0  0  0  0  0  0  0
   56.4710   29.4784   42.2796 H   0  0  0  0  0  0  0  0  0  0  0  0
   57.9997   30.1433   42.9830 H   0  0  0  0  0  0  0  0  0  0  0  0
   57.4655   27.1695   46.2540 H   0  0  0  0  0  0  0  0  0  0  0  0
   58.8599   27.7485   48.2445 H   0  0  0  0  0  0  0  0  0  0  0  0
   60.9436   29.0966   47.9616 H   0  0  0  0  0  0  0  0  0  0  0  0
   61.6269   29.8798   45.6902 H   0  0  0  0  0  0  0  0  0  0  0  0
   60.2361   29.3021   43.6976 H   0  0  0  0  0  0  0  0  0  0  0  0
   57.9793   33.3890   44.0537 H   0  0  0  0  0  0  0  0  0  0  0  0
   59.9686   34.3729   45.1891 H   0  0  0  0  0  0  0  0  0  0  0  0
   62.4381   32.8656   46.0342 H   0  0  0  0  0  0  0  0  0  0  0  0
   62.3371   34.6495   46.2294 H   0  0  0  0  0  0  0  0  0  0  0  0
   63.5897   32.6357   48.1691 H   0  0  0  0  0  0  0  0  0  0  0  0
   64.4328   33.9046   47.1976 H   0  0  0  0  0  0  0  0  0  0  0  0
   62.3278   33.1813   49.9197 H   0  0  0  0  0  0  0  0  0  0  0  0
   62.1180   34.9061   50.4140 H   0  0  0  0  0  0  0  0  0  0  0  0
   60.0763   33.8921   49.3127 H   0  0  0  0  0  0  0  0  0  0  0  0
   60.7132   35.3556   48.4860 H   0  0  0  0  0  0  0  0  0  0  0  0
   59.6178   31.4262   48.3451 H   0  0  0  0  0  0  0  0  0  0  0  0
   57.6250   30.4515   47.2105 H   0  0  0  0  0  0  0  0  0  0  0  0
  1  2  2  0
  2  3  1  0
  3  4  1  0
  4  5  1  0
  5  6  2  0
  6  7  1  0
  7  8  2  0
  8  9  1  0
  9 10  2  0
  2 11  1  0
 11 12  1  0
 12 13  2  0
 13 14  1  0
 14 15  2  0
 15 16  1  0
 16 17  1  0
 17 18  1  0
 18 19  1  0
 19 20  1  0
 20 21  1  0
 15 22  1  0
 22 23  2  0
 10  5  1  0
 23 12  1  0
 21 16  1  0
  3 24  1  0
  3 25  1  0
  6 26  1  0
  7 27  1  0
  8 28  1  0
  9 29  1  0
 10 30  1  0
 13 31  1  0
 14 32  1  0
 17 33  1  0
 17 34  1  0
 18 35  1  0
 18 36  1  0
 20 37  1  0
 20 38  1  0
 21 39  1  0
 21 40  1  0
 22 41  1  0
 23 42  1  0
M  CHG  1  11  -1
M  END
>  <UniqueID>  (9) 
7

>  <SMILES>  (9) 
O=C(CSc1ccccc1)[N-]c1ccc(N2CCOCC2)cc1

>  <Energy>  (9) 
50.10524811691279

>  <Genealogy>  (9) 
O=C(CSc1ccccc1)[N-]c1ccc(N2CCOCC2)cc1 (protonated)
O=C(CSc1ccccc1)[N-]c1ccc(N2CCOCC2)cc1 (3D coordinates assigned)
O=C(CSc1ccccc1)[N-]c1ccc(N2CCOCC2)cc1 (nonaromatic ring conformer: 50.10524811691279 kcal/mol)

>  <smiles>  (9) 
O=C(CSc1ccccc1)Nc1ccc(N2CCOCC2)cc1

>  <score_type>  (9) 
oracle

>  <origin>  (9) 
adg

>  <m_score__min__energy>  (9) 
-9.3499999999999996

>  <m_primary>  (9) 
energy

$$$$
9:0
     RDKit          3D

 39 42  0  0  0  0  0  0  0  0999 V2000
   60.0520   33.2730   49.8760 C   0  0  0  0  0  0  0  0  0  0  0  0
   58.5670   32.2980   49.7770 S   0  0  0  0  0  0  0  0  0  0  0  0
   57.7860   32.6690   48.5490 O   0  0  0  0  0  0  0  0  0  0  0  0
   57.7250   32.5580   50.9930 O   0  0  0  0  0  0  0  0  0  0  0  0
   58.9760   30.6170   49.7240 N   0  0  0  0  0  0  0  0  0  0  0  0
   60.2110   30.1430   49.1790 C   0  0  0  0  0  0  0  0  0  0  0  0
   61.2410   30.0870   49.9090 O   0  0  0  0  0  0  0  0  0  0  0  0
   60.2840   29.7650   47.7830 N   0  0  2  0  0  0  0  0  0  0  0  0
   60.0570   30.9700   46.9630 C   0  0  0  0  0  0  0  0  0  0  0  0
   61.0550   31.9900   47.0130 C   0  0  0  0  0  0  0  0  0  0  0  0
   62.7890   31.7160   47.8000 Br  0  0  0  0  0  0  0  0  0  0  0  0
   60.8120   33.2650   46.5040 C   0  0  0  0  0  0  0  0  0  0  0  0
   59.5930   33.5720   45.9230 C   0  0  0  0  0  0  0  0  0  0  0  0
   59.2720   35.3320   45.2530 Br  0  0  0  0  0  0  0  0  0  0  0  0
   58.6270   32.5860   45.7790 C   0  0  0  0  0  0  0  0  0  0  0  0
   58.8410   31.2690   46.2360 C   0  0  0  0  0  0  0  0  0  0  0  0
   57.8550   30.2610   45.7520 C   0  0  0  0  0  0  0  0  0  0  0  0
   56.6490   30.5660   45.2260 N   0  0  0  0  0  0  0  0  0  0  0  0
   56.0990   29.4620   44.7430 N   0  0  0  0  0  0  0  0  0  0  0  0
   56.9510   28.4380   44.9370 C   0  0  0  0  0  0  0  0  0  0  0  0
   58.0790   28.9180   45.5690 C   0  0  0  0  0  0  0  0  0  0  0  0
   59.2650   28.1980   46.1040 C   0  0  2  0  0  0  0  0  0  0  0  0
   59.1870   26.6640   46.1000 C   0  0  0  0  0  0  0  0  0  0  0  0
   59.8300   26.2940   47.3880 C   0  0  0  0  0  0  0  0  0  0  0  0
   59.9580   27.3370   48.1930 C   0  0  0  0  0  0  0  0  0  0  0  0
   59.4030   28.5890   47.5790 C   0  0  1  0  0  0  0  0  0  0  0  0
   60.3098   33.4423   50.9319 H   0  0  0  0  0  0  0  0  0  0  0  0
   60.8751   32.7390   49.3787 H   0  0  0  0  0  0  0  0  0  0  0  0
   59.8892   34.2405   49.3787 H   0  0  0  0  0  0  0  0  0  0  0  0
   61.2590   29.4400   47.5810 H   0  0  0  0  0  0  0  0  0  0  0  0
   61.5959   34.0343   46.5645 H   0  0  0  0  0  0  0  0  0  0  0  0
   57.6710   32.8378   45.2966 H   0  0  0  0  0  0  0  0  0  0  0  0
   56.7767   27.3930   44.6409 H   0  0  0  0  0  0  0  0  0  0  0  0
   60.0980   28.4829   45.4445 H   0  0  0  0  0  0  0  0  0  0  0  0
   58.1423   26.3212   46.0666 H   0  0  0  0  0  0  0  0  0  0  0  0
   59.6732   26.2072   45.2254 H   0  0  0  0  0  0  0  0  0  0  0  0
   60.1599   25.2758   47.6418 H   0  0  0  0  0  0  0  0  0  0  0  0
   60.4161   27.2916   49.1920 H   0  0  0  0  0  0  0  0  0  0  0  0
   58.4535   28.9114   48.0312 H   0  0  0  0  0  0  0  0  0  0  0  0
  1  2  1  0
  2  3  2  0
  2  4  2  0
  2  5  1  0
  5  6  1  0
  6  7  2  0
  6  8  1  0
  8  9  1  0
  9 10  2  0
 10 11  1  0
 10 12  1  0
 12 13  2  0
 13 14  1  0
 13 15  1  0
 15 16  2  0
 16 17  1  0
 17 18  2  0
 18 19  1  0
 19 20  1  0
 20 21  2  0
 21 22  1  0
 22 23  1  0
 23 24  1  0
 24 25  2  0
 25 26  1  0
 26  8  1  0
 16  9  1  0
 21 17  1  0
 26 22  1  0
  1 27  1  0
  1 28  1  0
  1 29  1  0
  8 30  1  1
 12 31  1  0
 15 32  1  0
 20 33  1  0
 22 34  1  6
 23 35  1  0
 23 36  1  0
 24 37  1  0
 25 38  1  0
 26 39  1  1
M  CHG  3   5  -1   8   1  19  -1
M  END
>  <UniqueID>  (10) 
8

>  <SMILES>  (10) 
CS(=O)(=O)[N-]C(=O)[N@@H+]1c2c(Br)cc(Br)cc2-c2n[n-]cc2[C@@H]2CC=CC21

>  <Energy>  (10) 
106.21484903991323

>  <Genealogy>  (10) 
CS(=O)(=O)[N-]C(=O)[NH+]1c2c(Br)cc(Br)cc2-c2n[n-]cc2C2CC=CC21 (protonated)
CS(=O)(=O)[N-]C(=O)[N@@H+]1c2c(Br)cc(Br)cc2-c2n[n-]cc2[C@@H]2CC=CC21 (chirality)
CS(=O)(=O)[N-]C(=O)[N@@H+]1c2c(Br)cc(Br)cc2-c2n[n-]cc2[C@@H]2CC=CC21 (3D coordinates assigned)
CS(=O)(=O)[N-]C(=O)[N@@H+]1c2c(Br)cc(Br)cc2-c2n[n-]cc2[C@@H]2CC=CC21 (nonaromatic ring conformer: 106.21484903991323 kcal/mol)

>  <smiles>  (10) 
CS(=O)(=O)NC(=O)N1c2c(Br)cc(Br)cc2-c2n[nH]cc2C2CC=CC21

>  <score_type>  (10) 
oracle

>  <origin>  (10) 
adg

>  <m_score__min__energy>  (10) 
-9.8900000000000006

>  <m_primary>  (10) 
energy

$$$$
10:0
     RDKit          3D

 31 33  0  0  1  0  0  0  0  0999 V2000
   60.2720   27.2270   46.5010 C   0  0  0  0  0  0  0  0  0  0  0  0
   58.8130   27.3070   46.1860 C   0  0  0  0  0  0  0  0  0  0  0  0
   58.0030   26.2580   46.5530 C   0  0  0  0  0  0  0  0  0  0  0  0
   56.6590   26.3600   46.2490 C   0  0  0  0  0  0  0  0  0  0  0  0
   55.8780   25.4040   46.5740 O   0  0  0  0  0  0  0  0  0  0  0  0
   56.1410   27.4330   45.6200 N   0  0  0  0  0  0  0  0  0  0  0  0
   56.9650   28.4500   45.2730 C   0  0  0  0  0  0  0  0  0  0  0  0
   56.5370   29.5070   44.6700 N   0  0  0  0  0  0  0  0  0  0  0  0
   57.1980   30.7580   44.6650 C   0  0  0  0  0  0  0  0  0  0  0  0
   57.5210   31.2620   43.4420 N   0  0  0  0  0  0  0  0  0  0  0  0
   58.1470   32.4440   43.4140 C   0  0  0  0  0  0  0  0  0  0  0  0
   58.4540   32.9260   42.2820 O   0  0  0  0  0  0  0  0  0  0  0  0
   58.4490   33.1180   44.5780 C   0  0  0  0  0  0  0  0  0  0  0  0
   59.1000   34.3470   44.5490 C   0  0  0  0  0  0  0  0  0  0  0  0
   59.4150   35.0420   45.6920 C   0  0  0  0  0  0  0  0  0  0  0  0
   59.0600   34.4770   46.8960 C   0  0  0  0  0  0  0  0  0  0  0  0
   58.4130   33.2590   46.9760 C   0  0  0  0  0  0  0  0  0  0  0  0
   58.1160   32.5940   45.8000 C   0  0  0  0  0  0  0  0  0  0  0  0
   57.4800   31.3900   45.7970 N   0  0  0  0  0  0  0  0  0  0  0  0
   58.2740   28.3670   45.5610 N   0  0  0  0  0  0  0  0  0  0  0  0
   60.4117   27.2193   47.5921 H   0  0  0  0  0  0  0  0  0  0  0  0
   60.6898   26.3046   46.0714 H   0  0  0  0  0  0  0  0  0  0  0  0
   60.7882   28.0982   46.0714 H   0  0  0  0  0  0  0  0  0  0  0  0
   58.4083   25.3742   47.0674 H   0  0  0  0  0  0  0  0  0  0  0  0
   55.1340   27.4890   45.4030 H   0  0  0  0  0  0  0  0  0  0  0  0
   59.3729   34.7787   43.5747 H   0  0  0  0  0  0  0  0  0  0  0  0
   59.9310   36.0124   45.6465 H   0  0  0  0  0  0  0  0  0  0  0  0
   59.2996   35.0135   47.8259 H   0  0  0  0  0  0  0  0  0  0  0  0
   58.1407   32.8286   47.9510 H   0  0  0  0  0  0  0  0  0  0  0  0
   57.2380   31.0160   46.7420 H   0  0  0  0  0  0  0  0  0  0  0  0
   58.9280   29.1360   45.3040 H   0  0  0  0  0  0  0  0  0  0  0  0
  1  2  1  0
  2  3  2  0
  3  4  1  0
  4  5  2  0
  4  6  1  0
  6  7  1  0
  7  8  2  0
  8  9  1  0
  9 10  2  0
 10 11  1  0
 11 12  2  0
 11 13  1  0
 13 14  2  0
 14 15  1  0
 15 16  2  0
 16 17  1  0
 17 18  2  0
 18 19  1  0
  7 20  1  0
 20  2  1  0
 19  9  1  0
 18 13  1  0
  1 21  1  0
  1 22  1  0
  1 23  1  0
  3 24  1  0
  6 25  1  0
 14 26  1  0
 15 27  1  0
 16 28  1  0
 17 29  1  0
 19 30  1  0
 20 31  1  0
M  END
>  <smiles>  (11) 
Cc1cc(=O)[nH]c(=Nc2nc(=O)c3ccccc3[nH]2)[nH]1

>  <score_type>  (11) 
oracle

>  <origin>  (11) 
adg

>  <m_score__min__energy>  (11) 
-7.7800000000000002

>  <m_primary>  (11) 
energy

$$$$
11:0
     RDKit          3D

 34 36  0  0  0  0  0  0  0  0999 V2000
   56.9030   34.5640   45.1960 O   0  0  0  0  0  0  0  0  0  0  0  0
   58.3500   34.1530   45.1960 S   0  0  0  0  0  0  0  0  0  0  0  0
   59.1710   35.2540   44.5870 O   0  0  0  0  0  0  0  0  0  0  0  0
   58.5370   32.7080   44.2540 N   0  0  0  0  0  0  0  0  0  0  0  0
   57.8660   31.4680   44.5430 C   0  0  0  0  0  0  0  0  0  0  0  0
   58.4760   30.5450   45.4060 C   0  0  0  0  0  0  0  0  0  0  0  0
   57.8480   29.3350   45.7130 C   0  0  0  0  0  0  0  0  0  0  0  0
   56.5890   29.0310   45.1660 C   0  0  0  0  0  0  0  0  0  0  0  0
   55.9330   27.8220   45.4400 O   0  0  0  0  0  0  0  0  0  0  0  0
   56.5630   26.5980   45.7080 C   0  0  0  0  0  0  0  0  0  0  0  0
   57.8690   26.3220   45.2650 C   0  0  0  0  0  0  0  0  0  0  0  0
   58.4530   25.0920   45.5790 C   0  0  0  0  0  0  0  0  0  0  0  0
   57.7440   24.1590   46.3350 C   0  0  0  0  0  0  0  0  0  0  0  0
   56.4570   24.4730   46.7750 C   0  0  0  0  0  0  0  0  0  0  0  0
   55.9030   25.6740   46.4580 N   0  0  0  0  0  0  0  0  0  0  0  0
   55.9920   29.9360   44.2840 C   0  0  0  0  0  0  0  0  0  0  0  0
   56.6190   31.1460   43.9740 C   0  0  0  0  0  0  0  0  0  0  0  0
   58.9050   33.8730   46.8350 C   0  0  0  0  0  0  0  0  0  0  0  0
   59.9200   34.5630   47.4790 C   0  0  0  0  0  0  0  0  0  0  0  0
   60.1250   34.1280   48.7930 C   0  0  0  0  0  0  0  0  0  0  0  0
   59.2740   33.1000   49.1800 C   0  0  0  0  0  0  0  0  0  0  0  0
   58.2630   32.7310   47.8850 S   0  0  0  0  0  0  0  0  0  0  0  0
   59.2390   32.7370   43.4820 H   0  0  0  0  0  0  0  0  0  0  0  0
   59.4578   30.7761   45.8450 H   0  0  0  0  0  0  0  0  0  0  0  0
   58.3407   28.6174   46.3855 H   0  0  0  0  0  0  0  0  0  0  0  0
   58.4252   27.0670   44.6772 H   0  0  0  0  0  0  0  0  0  0  0  0
   59.4702   24.8601   45.2305 H   0  0  0  0  0  0  0  0  0  0  0  0
   58.1941   23.1861   46.5819 H   0  0  0  0  0  0  0  0  0  0  0  0
   55.8905   23.7486   47.3785 H   0  0  0  0  0  0  0  0  0  0  0  0
   55.0199   29.6938   43.8297 H   0  0  0  0  0  0  0  0  0  0  0  0
   56.1355   31.8508   43.2815 H   0  0  0  0  0  0  0  0  0  0  0  0
   60.5028   35.3676   47.0069 H   0  0  0  0  0  0  0  0  0  0  0  0
   60.8883   34.5594   49.4573 H   0  0  0  0  0  0  0  0  0  0  0  0
   59.2627   32.6104   50.1650 H   0  0  0  0  0  0  0  0  0  0  0  0
  1  2  2  0
  2  3  2  0
  2  4  1  0
  4  5  1  0
  5  6  2  0
  6  7  1  0
  7  8  2  0
  8  9  1  0
  9 10  1  0
 10 11  2  0
 11 12  1  0
 12 13  2  0
 13 14  1  0
 14 15  2  0
  8 16  1  0
 16 17  2  0
  2 18  1  0
 18 19  2  0
 19 20  1  0
 20 21  2  0
 21 22  1  0
 17  5  1  0
 22 18  1  0
 15 10  1  0
  4 23  1  0
  6 24  1  0
  7 25  1  0
 11 26  1  0
 12 27  1  0
 13 28  1  0
 14 29  1  0
 16 30  1  0
 17 31  1  0
 19 32  1  0
 20 33  1  0
 21 34  1  0
M  END
>  <UniqueID>  (12) 
9

>  <SMILES>  (12) 
O=S(=O)(Nc1ccc(Oc2ccccn2)cc1)c1cccs1

>  <Energy>  (12) 
72.75083999396394

>  <Genealogy>  (12) 
O=S(=O)(Nc1ccc(Oc2ccccn2)cc1)c1cccs1 (3D coordinates assigned)
O=S(=O)(Nc1ccc(Oc2ccccn2)cc1)c1cccs1 (optimized conformer: 72.75083999396394 kcal/mol)

>  <smiles>  (12) 
O=S(=O)(Nc1ccc(Oc2ccccn2)cc1)c1cccs1

>  <score_type>  (12) 
oracle

>  <origin>  (12) 
adg

>  <m_score__min__energy>  (12) 
-7.8700000000000001

>  <m_primary>  (12) 
energy

$$$$
12:0
     RDKit          3D

 72 75  0  0  0  0  0  0  0  0999 V2000
   58.0250   28.3210   48.3210 H   0  0  0  0  0  0  0  0  0  0  0  0
   58.1100   29.1400   47.7640 O   0  0  0  0  0  0  0  0  0  0  0  0
   58.8170   28.8300   46.5790 C   0  0  0  0  0  0  0  0  0  0  0  0
   58.8120   27.2970   46.3820 C   0  0  0  0  0  0  0  0  0  0  0  0
   57.6210   26.5390   46.4760 C   0  0  0  0  0  0  0  0  0  0  0  0
   56.6674   27.0512   46.6718 H   0  0  0  0  0  0  0  0  0  0  0  0
   57.6370   25.1500   46.3240 C   0  0  0  0  0  0  0  0  0  0  0  0
   56.6952   24.5849   46.3846 H   0  0  0  0  0  0  0  0  0  0  0  0
   58.8360   24.4720   46.0960 C   0  0  0  0  0  0  0  0  0  0  0  0
   58.7960   23.0780   45.9500 O   0  0  0  0  0  0  0  0  0  0  0  0
   58.8700   22.3990   44.7000 C   0  0  0  0  0  0  0  0  0  0  0  0
   58.9876   21.3195   44.8755 H   0  0  0  0  0  0  0  0  0  0  0  0
   57.9469   22.5793   44.1296 H   0  0  0  0  0  0  0  0  0  0  0  0
   59.7326   22.7739   44.1296 H   0  0  0  0  0  0  0  0  0  0  0  0
   60.0320   25.2050   46.0300 C   0  0  0  0  0  0  0  0  0  0  0  0
   60.9844   24.6823   45.8576 H   0  0  0  0  0  0  0  0  0  0  0  0
   60.0200   26.5950   46.1820 C   0  0  0  0  0  0  0  0  0  0  0  0
   60.9684   27.1509   46.1451 H   0  0  0  0  0  0  0  0  0  0  0  0
   58.1840   29.5610   45.3790 C   0  0  0  0  0  0  0  0  0  0  0  0
   56.9680   29.1490   44.7910 C   0  0  0  0  0  0  0  0  0  0  0  0
   56.4197   28.2966   45.2186 H   0  0  0  0  0  0  0  0  0  0  0  0
   56.4520   29.8100   43.6730 C   0  0  0  0  0  0  0  0  0  0  0  0
   55.4952   29.4837   43.2393 H   0  0  0  0  0  0  0  0  0  0  0  0
   57.1460   30.8880   43.0990 C   0  0  0  0  0  0  0  0  0  0  0  0
   56.6680   31.5820   41.9770 O   0  0  0  0  0  0  0  0  0  0  0  0
   57.4820   32.3700   41.1130 C   0  0  0  0  0  0  0  0  0  0  0  0
   58.1433   33.0102   41.7153 H   0  0  0  0  0  0  0  0  0  0  0  0
   58.0902   31.7088   40.4783 H   0  0  0  0  0  0  0  0  0  0  0  0
   56.8409   32.9994   40.4783 H   0  0  0  0  0  0  0  0  0  0  0  0
   58.3610   31.2900   43.6600 C   0  0  0  0  0  0  0  0  0  0  0  0
   58.9134   32.1325   43.2183 H   0  0  0  0  0  0  0  0  0  0  0  0
   58.8800   30.6310   44.7770 C   0  0  0  0  0  0  0  0  0  0  0  0
   59.8463   30.9511   45.1939 H   0  0  0  0  0  0  0  0  0  0  0  0
   60.2540   29.4000   46.7710 C   0  0  0  0  0  0  0  0  0  0  0  0
   60.9444   28.8274   46.1342 H   0  0  0  0  0  0  0  0  0  0  0  0
   60.2210   30.4644   46.4955 H   0  0  0  0  0  0  0  0  0  0  0  0
   60.7570   29.3210   48.2380 C   0  0  0  0  0  0  0  0  0  0  0  0
   60.0996   28.6330   48.7897 H   0  0  0  0  0  0  0  0  0  0  0  0
   61.8005   28.9761   48.1921 H   0  0  0  0  0  0  0  0  0  0  0  0
   60.7740   30.6220   48.9560 N   0  0  0  0  0  0  0  0  0  0  0  0
   60.7280   31.3490   48.2030 H   0  0  0  0  0  0  0  0  0  0  0  0
   62.0320   30.8560   49.6920 C   0  0  0  0  0  0  0  0  0  0  0  0
   62.0880   30.1607   50.5425 H   0  0  0  0  0  0  0  0  0  0  0  0
   62.8785   30.6907   49.0092 H   0  0  0  0  0  0  0  0  0  0  0  0
   62.0920   32.3050   50.2170 C   0  0  0  0  0  0  0  0  0  0  0  0
   62.8172   32.3463   51.0431 H   0  0  0  0  0  0  0  0  0  0  0  0
   62.3863   32.9437   49.3712 H   0  0  0  0  0  0  0  0  0  0  0  0
   60.7840   32.8110   50.7130 N   0  0  0  0  0  0  0  0  0  0  0  0
   60.1900   33.8410   49.8320 C   0  0  0  0  0  0  0  0  0  0  0  0
   59.2580   33.4521   49.3960 H   0  0  0  0  0  0  0  0  0  0  0  0
   59.9801   34.7427   50.4260 H   0  0  0  0  0  0  0  0  0  0  0  0
   61.1440   34.1940   48.7280 C   0  0  0  0  0  0  0  0  0  0  0  0
   62.0118   34.8338   48.9463 H   0  0  0  0  0  0  0  0  0  0  0  0
   60.9550   33.7420   47.4810 C   0  0  0  0  0  0  0  0  0  0  0  0
   61.8161   33.3084   46.9513 H   0  0  0  0  0  0  0  0  0  0  0  0
   59.6530   33.7920   46.7730 C   0  0  0  0  0  0  0  0  0  0  0  0
   59.5640   34.5350   45.5820 C   0  0  0  0  0  0  0  0  0  0  0  0
   60.4496   35.0661   45.2029 H   0  0  0  0  0  0  0  0  0  0  0  0
   58.3590   34.6040   44.8760 C   0  0  0  0  0  0  0  0  0  0  0  0
   58.2979   35.1946   43.9500 H   0  0  0  0  0  0  0  0  0  0  0  0
   57.2330   33.9240   45.3450 C   0  0  0  0  0  0  0  0  0  0  0  0
   56.2840   33.9844   44.7921 H   0  0  0  0  0  0  0  0  0  0  0  0
   57.3120   33.1680   46.5150 C   0  0  0  0  0  0  0  0  0  0  0  0
   56.4261   32.6268   46.8788 H   0  0  0  0  0  0  0  0  0  0  0  0
   58.5140   33.0960   47.2270 C   0  0  0  0  0  0  0  0  0  0  0  0
   58.5708   32.4934   48.1455 H   0  0  0  0  0  0  0  0  0  0  0  0
   59.8320   31.7280   51.0250 C   0  0  0  0  0  0  0  0  0  0  0  0
   60.2415   31.1236   51.8478 H   0  0  0  0  0  0  0  0  0  0  0  0
   58.8748   32.1924   51.3044 H   0  0  0  0  0  0  0  0  0  0  0  0
   59.5730   30.8060   49.8130 C   0  0  0  0  0  0  0  0  0  0  0  0
   59.2528   29.8212   50.1839 H   0  0  0  0  0  0  0  0  0  0  0  0
   58.7982   31.2840   49.1955 H   0  0  0  0  0  0  0  0  0  0  0  0
  1  2  1  0
  2  3  1  0
  3  4  1  0
  4  5  2  0
  5  6  1  0
  5  7  1  0
  7  8  1  0
  7  9  2  0
  9 10  1  0
 10 11  1  0
 11 12  1  0
 11 13  1  0
 11 14  1  0
  9 15  1  0
 15 16  1  0
 15 17  2  0
 17 18  1  0
  3 19  1  0
 19 20  2  0
 20 21  1  0
 20 22  1  0
 22 23  1  0
 22 24  2  0
 24 25  1  0
 25 26  1  0
 26 27  1  0
 26 28  1  0
 26 29  1  0
 24 30  1  0
 30 31  1  0
 30 32  2  0
 32 33  1  0
  3 34  1  0
 34 35  1  0
 34 36  1  0
 34 37  1  0
 37 38  1  0
 37 39  1  0
 37 40  1  0
 40 41  1  0
 40 42  1  0
 42 43  1  0
 42 44  1  0
 42 45  1  0
 45 46  1  0
 45 47  1  0
 45 48  1  0
 48 49  1  0
 49 50  1  0
 49 51  1  0
 49 52  1  0
 52 53  1  0
 52 54  2  0
 54 55  1  0
 54 56  1  0
 56 57  2  0
 57 58  1  0
 57 59  1  0
 59 60  1  0
 59 61  2  0
 61 62  1  0
 61 63  1  0
 63 64  1  0
 63 65  2  0
 65 66  1  0
 48 67  1  0
 67 68  1  0
 67 69  1  0
 67 70  1  0
 70 71  1  0
 70 72  1  0
 17  4  1  0
 32 19  1  0
 70 40  1  0
 65 56  1  0
M  CHG  1  40   1
M  END
>  <UniqueID>  (13) 
10

>  <SMILES>  (13) 
COc1ccc(C(O)(CC[NH+]2CCN(C/C=C/c3ccccc3)CC2)c2ccc(OC)cc2)cc1

>  <Energy>  (13) 
99.4263569995392

>  <Genealogy>  (13) 
COc1ccc(C(O)(CC[NH+]2CCN(CC=Cc3ccccc3)CC2)c2ccc(OC)cc2)cc1 (protonated)
COc1ccc(C(O)(CC[NH+]2CCN(C/C=C/c3ccccc3)CC2)c2ccc(OC)cc2)cc1 (cis-trans isomerization)
COc1ccc(C(O)(CC[NH+]2CCN(C/C=C/c3ccccc3)CC2)c2ccc(OC)cc2)cc1 (3D coordinates assigned)
COc1ccc(C(O)(CC[NH+]2CCN(C/C=C/c3ccccc3)CC2)c2ccc(OC)cc2)cc1 (nonaromatic ring conformer: 99.4263569995392 kcal/mol)

>  <smiles>  (13) 
COc1ccc(C(O)(CCN2CCN(CC=Cc3ccccc3)CC2)c2ccc(OC)cc2)cc1

>  <score_type>  (13) 
oracle

>  <origin>  (13) 
adg

>  <m_score__min__energy>  (13) 
-6.9400000000000004

>  <m_primary>  (13) 
energy

$$$$
13:0
     RDKit          3D

 35 37  0  0  0  0  0  0  0  0999 V2000
   56.7100   26.2540   45.6300 C   0  0  0  0  0  0  0  0  0  0  0  0
   57.7270   27.3050   45.4970 N   0  0  0  0  0  0  0  0  0  0  0  0
   57.7430   28.1060   44.2620 C   0  0  0  0  0  0  0  0  0  0  0  0
   57.5420   29.5580   44.5690 C   0  0  0  0  0  0  0  0  0  0  0  0
   58.5180   30.4090   44.9310 N   0  0  0  0  0  0  0  0  0  0  0  0
   57.8510   31.5710   45.1060 C   0  0  0  0  0  0  0  0  0  0  0  0
   58.4680   32.8570   45.5110 C   0  0  0  0  0  0  0  0  0  0  0  0
   58.8280   33.0750   46.8530 C   0  0  0  0  0  0  0  0  0  0  0  0
   59.4090   34.2850   47.2370 C   0  0  0  0  0  0  0  0  0  0  0  0
   59.6260   35.2730   46.2790 C   0  0  0  0  0  0  0  0  0  0  0  0
   59.2750   35.0550   44.9860 N   0  0  0  0  0  0  0  0  0  0  0  0
   58.7080   33.8860   44.5830 C   0  0  0  0  0  0  0  0  0  0  0  0
   56.5320   31.4180   44.8630 N   0  0  0  0  0  0  0  0  0  0  0  0
   56.3820   30.1670   44.5380 O   0  0  0  0  0  0  0  0  0  0  0  0
   58.6810   27.5440   46.5700 C   0  0  0  0  0  0  0  0  0  0  0  0
   59.8060   26.7030   46.7390 C   0  0  0  0  0  0  0  0  0  0  0  0
   60.7190   26.9310   47.7720 C   0  0  0  0  0  0  0  0  0  0  0  0
   60.5330   27.9950   48.6530 C   0  0  0  0  0  0  0  0  0  0  0  0
   59.4310   28.8360   48.5050 C   0  0  0  0  0  0  0  0  0  0  0  0
   59.2490   29.8680   49.3640 F   0  0  0  0  0  0  0  0  0  0  0  0
   58.5120   28.6160   47.4740 C   0  0  0  0  0  0  0  0  0  0  0  0
   56.5214   26.0591   46.6960 H   0  0  0  0  0  0  0  0  0  0  0  0
   55.7780   26.5824   45.1468 H   0  0  0  0  0  0  0  0  0  0  0  0
   57.0689   25.3333   45.1468 H   0  0  0  0  0  0  0  0  0  0  0  0
   58.7123   27.9743   43.7589 H   0  0  0  0  0  0  0  0  0  0  0  0
   56.9248   27.7663   43.6100 H   0  0  0  0  0  0  0  0  0  0  0  0
   59.5340   30.2030   45.0480 H   0  0  0  0  0  0  0  0  0  0  0  0
   58.6512   32.2895   47.6025 H   0  0  0  0  0  0  0  0  0  0  0  0
   59.6927   34.4566   48.2858 H   0  0  0  0  0  0  0  0  0  0  0  0
   60.0821   36.2305   46.5707 H   0  0  0  0  0  0  0  0  0  0  0  0
   58.4360   33.7450   43.5265 H   0  0  0  0  0  0  0  0  0  0  0  0
   59.9637   25.8604   46.0497 H   0  0  0  0  0  0  0  0  0  0  0  0
   61.5885   26.2677   47.8905 H   0  0  0  0  0  0  0  0  0  0  0  0
   61.2549   28.1709   49.4641 H   0  0  0  0  0  0  0  0  0  0  0  0
   57.6466   29.2863   47.3657 H   0  0  0  0  0  0  0  0  0  0  0  0
  1  2  1  0
  2  3  1  0
  3  4  1  0
  4  5  2  0
  5  6  1  0
  6  7  1  0
  7  8  2  0
  8  9  1  0
  9 10  2  0
 10 11  1  0
 11 12  2  0
  6 13  2  0
 13 14  1  0
  2 15  1  0
 15 16  2  0
 16 17  1  0
 17 18  2  0
 18 19  1  0
 19 20  1  0
 19 21  2  0
 14  4  1  0
 21 15  1  0
 12  7  1  0
  1 22  1  0
  1 23  1  0
  1 24  1  0
  3 25  1  0
  3 26  1  0
  5 27  1  0
  8 28  1  0
  9 29  1  0
 10 30  1  0
 12 31  1  0
 16 32  1  0
 17 33  1  0
 18 34  1  0
 21 35  1  0
M  CHG  1   5   1
M  END
>  <UniqueID>  (14) 
11

>  <SMILES>  (14) 
CN(Cc1[nH+]c(-c2cccnc2)no1)c1cccc(F)c1

>  <Energy>  (14) 
75.53952319426082

>  <Genealogy>  (14) 
CN(Cc1[nH+]c(-c2cccnc2)no1)c1cccc(F)c1 (protonated)
CN(Cc1[nH+]c(-c2cccnc2)no1)c1cccc(F)c1 (3D coordinates assigned)
CN(Cc1[nH+]c(-c2cccnc2)no1)c1cccc(F)c1 (optimized conformer: 75.53952319426082 kcal/mol)

>  <smiles>  (14) 
CN(Cc1nc(-c2cccnc2)no1)c1cccc(F)c1

>  <score_type>  (14) 
oracle

>  <origin>  (14) 
adg

>  <m_score__min__energy>  (14) 
-5.5199999999999996

>  <m_primary>  (14) 
energy

$$$$
14:0
     RDKit          3D

 53 56  0  0  0  0  0  0  0  0999 V2000
   55.2990   23.6080   44.6470 C   0  0  0  0  0  0  0  0  0  0  0  0
   55.5910   25.0690   45.6220 S   0  0  0  0  0  0  0  0  0  0  0  0
   55.9020   24.6500   47.0320 O   0  0  0  0  0  0  0  0  0  0  0  0
   54.3720   25.9470   45.6330 O   0  0  0  0  0  0  0  0  0  0  0  0
   56.9500   25.9400   44.9820 N   0  0  0  0  0  0  0  0  0  0  0  0
   57.9520   26.5640   45.8040 C   0  0  0  0  0  0  0  0  0  0  0  0
   58.2550   26.0900   47.0920 C   0  0  0  0  0  0  0  0  0  0  0  0
   59.2270   26.7250   47.8710 C   0  0  0  0  0  0  0  0  0  0  0  0
   59.9110   27.8460   47.3780 C   0  0  0  0  0  0  0  0  0  0  0  0
   60.8490   28.6140   48.2680 C   0  0  0  0  0  0  0  0  0  0  0  0
   60.1270   29.0290   49.4640 N   0  0  0  0  0  0  0  0  0  0  0  0
   59.3860   30.2520   49.5290 C   0  0  0  0  0  0  0  0  0  0  0  0
   58.1350   30.2110   49.6690 O   0  0  0  0  0  0  0  0  0  0  0  0
   60.0580   31.5210   49.3990 N   0  0  0  0  0  0  0  0  0  0  0  0
   59.3030   32.7690   49.5990 C   0  0  0  0  0  0  0  0  0  0  0  0
   60.0390   33.9890   49.0210 C   0  0  0  0  0  0  0  0  0  0  0  0
   60.6880   33.7160   47.6410 C   0  0  0  0  0  0  0  0  0  0  0  0
   59.7120   33.8960   46.5480 N   0  0  0  0  0  0  0  0  0  0  0  0
   59.4180   35.0200   45.8310 C   0  0  0  0  0  0  0  0  0  0  0  0
   59.9450   36.1410   46.0500 O   0  0  0  0  0  0  0  0  0  0  0  0
   58.4840   34.8420   44.8620 N   0  0  0  0  0  0  0  0  0  0  0  0
   58.1910   33.5380   44.9900 C   0  0  0  0  0  0  0  0  0  0  0  0
   57.2930   32.8440   44.2490 N   0  0  0  0  0  0  0  0  0  0  0  0
   57.1060   31.5140   44.5060 C   0  0  0  0  0  0  0  0  0  0  0  0
   57.8420   30.8710   45.5280 C   0  0  0  0  0  0  0  0  0  0  0  0
   58.7720   31.6050   46.2880 C   0  0  0  0  0  0  0  0  0  0  0  0
   58.9180   32.9610   45.9870 C   0  0  0  0  0  0  0  0  0  0  0  0
   61.4160   32.3450   47.5410 C   0  0  0  0  0  0  0  0  0  0  0  0
   61.4280   31.5930   48.8710 C   0  0  0  0  0  0  0  0  0  0  0  0
   59.6140   28.3190   46.0910 C   0  0  0  0  0  0  0  0  0  0  0  0
   58.6540   27.6740   45.3050 C   0  0  0  0  0  0  0  0  0  0  0  0
   55.1276   22.7503   45.3140 H   0  0  0  0  0  0  0  0  0  0  0  0
   54.4138   23.7616   44.0123 H   0  0  0  0  0  0  0  0  0  0  0  0
   56.1752   23.4096   44.0123 H   0  0  0  0  0  0  0  0  0  0  0  0
   56.9310   26.1560   43.9610 H   0  0  0  0  0  0  0  0  0  0  0  0
   57.7235   25.2130   47.4901 H   0  0  0  0  0  0  0  0  0  0  0  0
   59.4567   26.3431   48.8767 H   0  0  0  0  0  0  0  0  0  0  0  0
   61.6971   27.9735   48.5517 H   0  0  0  0  0  0  0  0  0  0  0  0
   61.2298   29.4980   47.7356 H   0  0  0  0  0  0  0  0  0  0  0  0
   58.3260   32.6760   49.1022 H   0  0  0  0  0  0  0  0  0  0  0  0
   59.1869   32.9250   50.6817 H   0  0  0  0  0  0  0  0  0  0  0  0
   59.3176   34.8121   48.9109 H   0  0  0  0  0  0  0  0  0  0  0  0
   60.8512   34.2403   49.7190 H   0  0  0  0  0  0  0  0  0  0  0  0
   61.4802   34.4710   47.5295 H   0  0  0  0  0  0  0  0  0  0  0  0
   56.3780   30.9403   43.9136 H   0  0  0  0  0  0  0  0  0  0  0  0
   57.6882   29.8004   45.7285 H   0  0  0  0  0  0  0  0  0  0  0  0
   59.3602   31.1297   47.0869 H   0  0  0  0  0  0  0  0  0  0  0  0
   60.9026   31.7264   46.7902 H   0  0  0  0  0  0  0  0  0  0  0  0
   62.4606   32.5401   47.2568 H   0  0  0  0  0  0  0  0  0  0  0  0
   61.8158   30.5756   48.7147 H   0  0  0  0  0  0  0  0  0  0  0  0
   62.0728   32.1219   49.5883 H   0  0  0  0  0  0  0  0  0  0  0  0
   60.1392   29.2021   45.6981 H   0  0  0  0  0  0  0  0  0  0  0  0
   58.4468   28.0385   44.2880 H   0  0  0  0  0  0  0  0  0  0  0  0
  1  2  1  0
  2  3  2  0
  2  4  2  0
  2  5  1  0
  5  6  1  0
  6  7  2  0
  7  8  1  0
  8  9  2  0
  9 10  1  0
 10 11  1  0
 11 12  1  0
 12 13  2  0
 12 14  1  0
 14 15  1  0
 15 16  1  0
 16 17  1  0
 17 18  1  0
 18 19  1  0
 19 20  2  0
 19 21  1  0
 21 22  1  0
 22 23  2  0
 23 24  1  0
 24 25  2  0
 25 26  1  0
 26 27  2  0
 17 28  1  0
 28 29  1  0
  9 30  1  0
 30 31  2  0
 31  6  1  0
 29 14  1  0
 27 18  1  0
 27 22  1  0
  1 32  1  0
  1 33  1  0
  1 34  1  0
  5 35  1  0
  7 36  1  0
  8 37  1  0
 10 38  1  0
 10 39  1  0
 15 40  1  0
 15 41  1  0
 16 42  1  0
 16 43  1  0
 17 44  1  0
 24 45  1  0
 25 46  1  0
 26 47  1  0
 28 48  1  0
 28 49  1  0
 29 50  1  0
 29 51  1  0
 30 52  1  0
 31 53  1  0
M  CHG  2  11  -1  21  -1
M  END
>  <UniqueID>  (15) 
12

>  <SMILES>  (15) 
CS(=O)(=O)Nc1ccc(C[N-]C(=O)N2CCC(n3c(=O)[n-]c4ncccc43)CC2)cc1

>  <Energy>  (15) 
98.41001931688606

>  <Genealogy>  (15) 
CS(=O)(=O)Nc1ccc(C[N-]C(=O)N2CCC(n3c(=O)[n-]c4ncccc43)CC2)cc1 (protonated)
CS(=O)(=O)Nc1ccc(C[N-]C(=O)N2CCC(n3c(=O)[n-]c4ncccc43)CC2)cc1 (3D coordinates assigned)
CS(=O)(=O)Nc1ccc(C[N-]C(=O)N2CCC(n3c(=O)[n-]c4ncccc43)CC2)cc1 (nonaromatic ring conformer: 98.41001931688606 kcal/mol)

>  <smiles>  (15) 
CS(=O)(=O)Nc1ccc(CNC(=O)N2CCC(n3c(=O)[nH]c4ncccc43)CC2)cc1

>  <score_type>  (15) 
oracle

>  <origin>  (15) 
adg

>  <m_score__min__energy>  (15) 
-13.24

>  <m_primary>  (15) 
energy

$$$$
15:0
     RDKit          3D

 50 53  0  0  0  0  0  0  0  0999 V2000
   54.2400   23.7140   44.0770 C   0  0  0  0  0  0  0  0  0  0  0  0
   55.2660   22.9110   44.7660 N   0  0  0  0  0  0  0  0  0  0  0  0
   55.7470   23.5770   45.9970 C   0  0  0  0  0  0  0  0  0  0  0  0
   56.5590   24.8450   45.6810 C   0  0  0  0  0  0  0  0  0  0  0  0
   57.4080   24.6400   44.5010 N   0  0  0  0  0  0  0  0  0  0  0  0
   57.7700   25.7550   43.6630 C   0  0  0  0  0  0  0  0  0  0  0  0
   57.7710   25.6170   42.4090 O   0  0  0  0  0  0  0  0  0  0  0  0
   58.1160   27.0740   44.2370 C   0  0  0  0  0  0  0  0  0  0  0  0
   59.0750   27.1730   45.2570 C   0  0  0  0  0  0  0  0  0  0  0  0
   59.4030   28.4230   45.7800 C   0  0  0  0  0  0  0  0  0  0  0  0
   58.7840   29.5720   45.2790 C   0  0  0  0  0  0  0  0  0  0  0  0
   59.0950   30.8420   45.7890 C   0  0  0  0  0  0  0  0  0  0  0  0
   58.4620   31.9840   45.2840 C   0  0  0  0  0  0  0  0  0  0  0  0
   58.8120   33.2350   45.8110 O   0  0  0  0  0  0  0  0  0  0  0  0
   59.8190   33.4650   46.7590 C   0  0  0  0  0  0  0  0  0  0  0  0
   59.5290   33.9330   48.0510 C   0  0  0  0  0  0  0  0  0  0  0  0
   60.5690   34.1240   48.9610 C   0  0  0  0  0  0  0  0  0  0  0  0
   61.8900   33.8210   48.6000 C   0  0  0  0  0  0  0  0  0  0  0  0
   63.0280   34.0710   49.5570 C   0  0  0  0  0  0  0  0  0  0  0  0
   64.2440   33.8180   48.9460 F   0  0  0  0  0  0  0  0  0  0  0  0
   62.9220   33.2500   50.6660 F   0  0  0  0  0  0  0  0  0  0  0  0
   62.9970   35.3900   49.9670 F   0  0  0  0  0  0  0  0  0  0  0  0
   62.1360   33.3610   47.2970 C   0  0  0  0  0  0  0  0  0  0  0  0
   61.1070   33.1870   46.4250 N   0  0  0  0  0  0  0  0  0  0  0  0
   57.5350   31.8520   44.2340 C   0  0  0  0  0  0  0  0  0  0  0  0
   57.2200   30.5910   43.7210 C   0  0  0  0  0  0  0  0  0  0  0  0
   57.8380   29.4430   44.2390 C   0  0  0  0  0  0  0  0  0  0  0  0
   57.5350   28.2070   43.7420 N   0  0  0  0  0  0  0  0  0  0  0  0
   57.6810   23.2660   44.0690 C   0  0  0  0  0  0  0  0  0  0  0  0
   56.3610   22.5050   43.8460 C   0  0  0  0  0  0  0  0  0  0  0  0
   53.6030   24.2126   44.8224 H   0  0  0  0  0  0  0  0  0  0  0  0
   54.7292   24.4716   43.4472 H   0  0  0  0  0  0  0  0  0  0  0  0
   53.6221   23.0571   43.4472 H   0  0  0  0  0  0  0  0  0  0  0  0
   54.8795   23.8543   46.6139 H   0  0  0  0  0  0  0  0  0  0  0  0
   56.4039   22.8748   46.5311 H   0  0  0  0  0  0  0  0  0  0  0  0
   55.8667   25.6775   45.4869 H   0  0  0  0  0  0  0  0  0  0  0  0
   57.2027   25.0752   46.5427 H   0  0  0  0  0  0  0  0  0  0  0  0
   59.5662   26.2674   45.6425 H   0  0  0  0  0  0  0  0  0  0  0  0
   60.1476   28.5050   46.5855 H   0  0  0  0  0  0  0  0  0  0  0  0
   59.8413   30.9408   46.5911 H   0  0  0  0  0  0  0  0  0  0  0  0
   58.4903   34.1472   48.3430 H   0  0  0  0  0  0  0  0  0  0  0  0
   60.3520   34.5141   49.9664 H   0  0  0  0  0  0  0  0  0  0  0  0
   63.1658   33.1402   46.9797 H   0  0  0  0  0  0  0  0  0  0  0  0
   57.0547   32.7480   43.8138 H   0  0  0  0  0  0  0  0  0  0  0  0
   56.4848   30.4981   42.9081 H   0  0  0  0  0  0  0  0  0  0  0  0
   56.8290   28.1240   42.9750 H   0  0  0  0  0  0  0  0  0  0  0  0
   58.2510   23.2876   43.1285 H   0  0  0  0  0  0  0  0  0  0  0  0
   58.2625   22.7537   44.8497 H   0  0  0  0  0  0  0  0  0  0  0  0
   56.0289   22.6840   42.8127 H   0  0  0  0  0  0  0  0  0  0  0  0
   56.5679   21.4434   44.0465 H   0  0  0  0  0  0  0  0  0  0  0  0
  1  2  1  0
  2  3  1  0
  3  4  1  0
  4  5  1  0
  5  6  1  0
  6  7  2  0
  6  8  1  0
  8  9  2  0
  9 10  1  0
 10 11  2  0
 11 12  1  0
 12 13  2  0
 13 14  1  0
 14 15  1  0
 15 16  2  0
 16 17  1  0
 17 18  2  0
 18 19  1  0
 19 20  1  0
 19 21  1  0
 19 22  1  0
 18 23  1  0
 23 24  2  0
 13 25  1  0
 25 26  2  0
 26 27  1  0
 27 28  2  0
  5 29  1  0
 29 30  1  0
 30  2  1  0
 28  8  1  0
 27 11  1  0
 24 15  1  0
  1 31  1  0
  1 32  1  0
  1 33  1  0
  3 34  1  0
  3 35  1  0
  4 36  1  0
  4 37  1  0
  9 38  1  0
 10 39  1  0
 12 40  1  0
 16 41  1  0
 17 42  1  0
 23 43  1  0
 25 44  1  0
 26 45  1  0
 28 46  1  0
 29 47  1  0
 29 48  1  0
 30 49  1  0
 30 50  1  0
M  CHG  1  28   1
M  END
>  <UniqueID>  (16) 
13

>  <SMILES>  (16) 
CN1CCN(C(=O)c2ccc3cc(Oc4ccc(C(F)(F)F)cn4)ccc3[nH+]2)CC1

>  <Energy>  (16) 
77.22235435513912

>  <Genealogy>  (16) 
CN1CCN(C(=O)c2ccc3cc(Oc4ccc(C(F)(F)F)cn4)ccc3[nH+]2)CC1 (protonated)
CN1CCN(C(=O)c2ccc3cc(Oc4ccc(C(F)(F)F)cn4)ccc3[nH+]2)CC1 (3D coordinates assigned)
CN1CCN(C(=O)c2ccc3cc(Oc4ccc(C(F)(F)F)cn4)ccc3[nH+]2)CC1 (nonaromatic ring conformer: 77.22235435513912 kcal/mol)

>  <smiles>  (16) 
CN1CCN(C(=O)c2ccc3cc(Oc4ccc(C(F)(F)F)cn4)ccc3n2)CC1

>  <score_type>  (16) 
oracle

>  <origin>  (16) 
adg

>  <m_score__min__energy>  (16) 
-6.4000000000000004

>  <m_primary>  (16) 
energy

$$$$
16:0
     RDKit          3D

 30 30  0  0  0  0  0  0  0  0999 V2000
   59.2820   29.3050   45.4970 C   0  0  0  0  0  0  0  0  0  0  0  0
   57.8780   29.0220   46.0040 C   0  0  0  0  0  0  0  0  0  0  0  0
   57.0070   30.0780   45.6120 O   0  0  0  0  0  0  0  0  0  0  0  0
   56.2830   30.0530   44.4170 C   0  0  0  0  0  0  0  0  0  0  0  0
   55.1900   29.4290   44.3400 O   0  0  0  0  0  0  0  0  0  0  0  0
   56.8360   30.7380   43.2070 C   0  0  0  0  0  0  0  0  0  0  0  0
   57.9400   31.7360   43.5770 C   0  0  0  0  0  0  0  0  0  0  0  0
   57.3880   32.9840   44.2780 C   0  0  0  0  0  0  0  0  0  0  0  0
   58.0430   33.1650   45.5820 N   0  0  0  0  0  0  0  0  0  0  0  0
   57.7190   32.3430   46.5920 N   0  0  0  0  0  0  0  0  0  0  0  0
   58.2710   32.4750   47.8270 C   0  0  0  0  0  0  0  0  0  0  0  0
   59.1900   33.4900   48.0690 C   0  0  0  0  0  0  0  0  0  0  0  0
   59.5220   34.3590   47.0370 C   0  0  0  0  0  0  0  0  0  0  0  0
   58.9320   34.1920   45.7840 C   0  0  0  0  0  0  0  0  0  0  0  0
   59.2250   34.9900   44.8510 O   0  0  0  0  0  0  0  0  0  0  0  0
   59.9601   29.4417   46.3523 H   0  0  0  0  0  0  0  0  0  0  0  0
   59.6287   28.4587   44.8858 H   0  0  0  0  0  0  0  0  0  0  0  0
   59.2737   30.2195   44.8858 H   0  0  0  0  0  0  0  0  0  0  0  0
   57.5189   28.0738   45.5775 H   0  0  0  0  0  0  0  0  0  0  0  0
   57.8935   28.9495   47.1015 H   0  0  0  0  0  0  0  0  0  0  0  0
   57.2532   29.9802   42.5275 H   0  0  0  0  0  0  0  0  0  0  0  0
   56.0190   31.2933   42.7231 H   0  0  0  0  0  0  0  0  0  0  0  0
   58.6543   31.2394   44.2502 H   0  0  0  0  0  0  0  0  0  0  0  0
   58.4248   32.0613   42.6447 H   0  0  0  0  0  0  0  0  0  0  0  0
   57.5777   33.8672   43.6503 H   0  0  0  0  0  0  0  0  0  0  0  0
   56.3062   32.8595   44.4337 H   0  0  0  0  0  0  0  0  0  0  0  0
   57.0250   31.5770   46.4430 H   0  0  0  0  0  0  0  0  0  0  0  0
   57.9914   31.7806   48.6330 H   0  0  0  0  0  0  0  0  0  0  0  0
   59.6475   33.6033   49.0629 H   0  0  0  0  0  0  0  0  0  0  0  0
   60.2438   35.1716   47.2065 H   0  0  0  0  0  0  0  0  0  0  0  0
  1  2  1  0
  2  3  1  0
  3  4  1  0
  4  5  2  0
  4  6  1  0
  6  7  1  0
  7  8  1  0
  8  9  1  0
  9 10  1  0
 10 11  2  0
 11 12  1  0
 12 13  2  0
 13 14  1  0
 14 15  2  0
 14  9  1  0
  1 16  1  0
  1 17  1  0
  1 18  1  0
  2 19  1  0
  2 20  1  0
  6 21  1  0
  6 22  1  0
  7 23  1  0
  7 24  1  0
  8 25  1  0
  8 26  1  0
 10 27  1  0
 11 28  1  0
 12 29  1  0
 13 30  1  0
M  CHG  1  10   1
M  END
>  <UniqueID>  (17) 
14

>  <SMILES>  (17) 
CCOC(=O)CCCn1[nH+]cccc1=O

>  <Energy>  (17) 
19.072638341444918

>  <Genealogy>  (17) 
CCOC(=O)CCCn1[nH+]cccc1=O (protonated)
CCOC(=O)CCCn1[nH+]cccc1=O (3D coordinates assigned)
CCOC(=O)CCCn1[nH+]cccc1=O (optimized conformer: 19.072638341444918 kcal/mol)

>  <smiles>  (17) 
CCOC(=O)CCCn1ncccc1=O

>  <score_type>  (17) 
oracle

>  <origin>  (17) 
adg

>  <m_score__min__energy>  (17) 
-4.0499999999999998

>  <m_primary>  (17) 
energy

$$$$
17:0
     RDKit          3D

 50 52  0  0  0  0  0  0  0  0999 V2000
   65.3280   33.5020   50.5980 C   0  0  0  0  0  0  0  0  0  0  0  0
   64.1090   33.3320   49.7410 C   0  0  0  0  0  0  0  0  0  0  0  0
   62.9720   34.1220   49.9630 C   0  0  0  0  0  0  0  0  0  0  0  0
   61.8490   33.9910   49.1410 C   0  0  0  0  0  0  0  0  0  0  0  0
   61.8490   33.0800   48.0690 C   0  0  0  0  0  0  0  0  0  0  0  0
   60.6470   32.9320   47.2020 C   0  0  0  0  0  0  0  0  0  0  0  0
   59.8300   31.8710   47.3500 C   0  0  0  0  0  0  0  0  0  0  0  0
   58.5390   31.7300   46.5840 C   0  0  0  0  0  0  0  0  0  0  0  0
   58.5680   32.4880   45.3140 N   0  0  1  0  0  0  0  0  0  0  0  0
   57.2950   32.3770   44.5580 C   0  0  0  0  0  0  0  0  0  0  0  0
   57.4300   31.7780   43.1380 C   0  0  0  0  0  0  0  0  0  0  0  0
   56.6540   30.4590   42.9950 C   0  0  0  0  0  0  0  0  0  0  0  0
   56.5390   29.7220   44.3050 C   0  0  0  0  0  0  0  0  0  0  0  0
   55.4140   29.7060   44.8760 O   0  0  0  0  0  0  0  0  0  0  0  0
   57.6830   28.9950   44.9270 C   0  0  0  0  0  0  0  0  0  0  0  0
   57.4920   28.0430   45.9500 C   0  0  0  0  0  0  0  0  0  0  0  0
   58.5840   27.3800   46.5180 C   0  0  0  0  0  0  0  0  0  0  0  0
   59.8790   27.6520   46.0720 C   0  0  0  0  0  0  0  0  0  0  0  0
   60.0850   28.5870   45.0590 C   0  0  0  0  0  0  0  0  0  0  0  0
   58.9970   29.2540   44.4870 C   0  0  0  0  0  0  0  0  0  0  0  0
   58.9740   33.8870   45.5610 C   0  0  0  0  0  0  0  0  0  0  0  0
   60.4140   33.9290   46.0860 C   0  0  0  0  0  0  0  0  0  0  0  0
   62.9970   32.2970   47.8460 C   0  0  0  0  0  0  0  0  0  0  0  0
   64.1200   32.4290   48.6690 C   0  0  0  0  0  0  0  0  0  0  0  0
   65.0391   33.4617   51.6586 H   0  0  0  0  0  0  0  0  0  0  0  0
   66.0435   32.6949   50.3820 H   0  0  0  0  0  0  0  0  0  0  0  0
   65.7954   34.4740   50.3820 H   0  0  0  0  0  0  0  0  0  0  0  0
   62.9637   34.8489   50.7886 H   0  0  0  0  0  0  0  0  0  0  0  0
   60.9574   34.6057   49.3341 H   0  0  0  0  0  0  0  0  0  0  0  0
   60.1156   31.0776   48.0564 H   0  0  0  0  0  0  0  0  0  0  0  0
   58.3724   30.6660   46.3599 H   0  0  0  0  0  0  0  0  0  0  0  0
   57.7268   32.1351   47.2054 H   0  0  0  0  0  0  0  0  0  0  0  0
   59.3000   32.0440   44.7070 H   0  0  0  0  0  0  0  0  0  0  0  0
   56.6099   31.7380   45.1345 H   0  0  0  0  0  0  0  0  0  0  0  0
   56.9248   33.4043   44.4252 H   0  0  0  0  0  0  0  0  0  0  0  0
   57.0382   32.5018   42.4082 H   0  0  0  0  0  0  0  0  0  0  0  0
   58.4945   31.5681   42.9569 H   0  0  0  0  0  0  0  0  0  0  0  0
   55.6428   30.6812   42.6234 H   0  0  0  0  0  0  0  0  0  0  0  0
   57.2058   29.8166   42.2930 H   0  0  0  0  0  0  0  0  0  0  0  0
   56.4747   27.8202   46.3041 H   0  0  0  0  0  0  0  0  0  0  0  0
   58.4227   26.6425   47.3180 H   0  0  0  0  0  0  0  0  0  0  0  0
   60.7364   27.1285   46.5200 H   0  0  0  0  0  0  0  0  0  0  0  0
   61.1056   28.8007   44.7087 H   0  0  0  0  0  0  0  0  0  0  0  0
   59.1682   29.9880   43.6858 H   0  0  0  0  0  0  0  0  0  0  0  0
   58.9118   34.4559   44.6216 H   0  0  0  0  0  0  0  0  0  0  0  0
   58.3027   34.3313   46.3107 H   0  0  0  0  0  0  0  0  0  0  0  0
   61.0998   33.6992   45.2572 H   0  0  0  0  0  0  0  0  0  0  0  0
   60.5962   34.9358   46.4900 H   0  0  0  0  0  0  0  0  0  0  0  0
   63.0111   31.5745   47.0167 H   0  0  0  0  0  0  0  0  0  0  0  0
   65.0160   31.8214   48.4742 H   0  0  0  0  0  0  0  0  0  0  0  0
  1  2  1  0
  2  3  2  0
  3  4  1  0
  4  5  2  0
  5  6  1  0
  6  7  2  0
  7  8  1  0
  8  9  1  0
  9 10  1  0
 10 11  1  0
 11 12  1  0
 12 13  1  0
 13 14  2  0
 13 15  1  0
 15 16  2  0
 16 17  1  0
 17 18  2  0
 18 19  1  0
 19 20  2  0
  9 21  1  0
 21 22  1  0
  5 23  1  0
 23 24  2  0
 24  2  1  0
 22  6  1  0
 20 15  1  0
  1 25  1  0
  1 26  1  0
  1 27  1  0
  3 28  1  0
  4 29  1  0
  7 30  1  0
  8 31  1  0
  8 32  1  0
  9 33  1  6
 10 34  1  0
 10 35  1  0
 11 36  1  0
 11 37  1  0
 12 38  1  0
 12 39  1  0
 16 40  1  0
 17 41  1  0
 18 42  1  0
 19 43  1  0
 20 44  1  0
 21 45  1  0
 21 46  1  0
 22 47  1  0
 22 48  1  0
 23 49  1  0
 24 50  1  0
M  CHG  1   9   1
M  END
>  <UniqueID>  (18) 
15

>  <SMILES>  (18) 
Cc1ccc(C2=CC[N@@H+](CCCC(=O)c3ccccc3)CC2)cc1

>  <Energy>  (18) 
59.658342663392844

>  <Genealogy>  (18) 
Cc1ccc(C2=CC[NH+](CCCC(=O)c3ccccc3)CC2)cc1 (protonated)
Cc1ccc(C2=CC[N@@H+](CCCC(=O)c3ccccc3)CC2)cc1 (chirality)
Cc1ccc(C2=CC[N@@H+](CCCC(=O)c3ccccc3)CC2)cc1 (3D coordinates assigned)
Cc1ccc(C2=CC[N@@H+](CCCC(=O)c3ccccc3)CC2)cc1 (nonaromatic ring conformer: 59.658342663392844 kcal/mol)

>  <smiles>  (18) 
Cc1ccc(C2=CCN(CCCC(=O)c3ccccc3)CC2)cc1

>  <score_type>  (18) 
oracle

>  <origin>  (18) 
adg

>  <m_score__min__energy>  (18) 
-7.1200000000000001

>  <m_primary>  (18) 
energy

$$$$
18:0
     RDKit          3D

 52 56  0  0  0  0  0  0  0  0999 V2000
   63.7980   33.7580   48.3760 C   0  0  0  0  0  0  0  0  0  0  0  0
   63.6430   32.5870   47.6280 C   0  0  0  0  0  0  0  0  0  0  0  0
   62.5230   31.7740   47.8280 C   0  0  0  0  0  0  0  0  0  0  0  0
   61.5710   32.1090   48.8000 C   0  0  0  0  0  0  0  0  0  0  0  0
   60.0980   31.0970   49.0050 S   0  0  0  0  0  0  0  0  0  0  0  0
   59.0310   31.8070   47.6760 C   0  0  1  0  0  0  0  0  0  0  0  0
   58.1710   33.0210   48.1480 C   0  0  0  0  0  0  0  0  0  0  0  0
   58.1620   34.2250   47.1720 C   0  0  1  0  0  0  0  0  0  0  0  0
   59.4680   35.0190   47.2720 C   0  0  0  0  0  0  0  0  0  0  0  0
   60.3610   34.4170   46.1860 C   0  0  0  0  0  0  0  0  0  0  0  0
   59.5070   33.3020   45.5760 C   0  0  1  0  0  0  0  0  0  0  0  0
   59.7670   31.9570   46.3100 C   0  0  0  0  0  0  0  0  0  0  0  0
   58.1400   33.7830   45.7790 N   0  0  0  0  0  0  0  0  0  0  0  0
   57.0260   32.8940   45.3850 C   0  0  0  0  0  0  0  0  0  0  0  0
   57.4150   32.0520   44.1660 C   0  0  0  0  0  0  0  0  0  0  0  0
   57.1040   30.6000   44.3860 C   0  0  0  0  0  0  0  0  0  0  0  0
   55.8380   30.0340   44.5070 C   0  0  0  0  0  0  0  0  0  0  0  0
   55.9360   28.7160   44.7950 N   0  0  0  0  0  0  0  0  0  0  0  0
   57.2510   28.4490   44.8710 C   0  0  0  0  0  0  0  0  0  0  0  0
   57.8500   27.2260   45.1710 C   0  0  0  0  0  0  0  0  0  0  0  0
   59.2550   27.1770   45.2240 C   0  0  0  0  0  0  0  0  0  0  0  0
   60.0210   28.3390   44.9830 C   0  0  0  0  0  0  0  0  0  0  0  0
   59.3900   29.5600   44.6860 C   0  0  0  0  0  0  0  0  0  0  0  0
   57.9970   29.5760   44.6340 C   0  0  0  0  0  0  0  0  0  0  0  0
   61.7030   33.3120   49.5070 C   0  0  0  0  0  0  0  0  0  0  0  0
   62.8240   34.1250   49.3080 C   0  0  0  0  0  0  0  0  0  0  0  0
   64.6865   34.3901   48.2308 H   0  0  0  0  0  0  0  0  0  0  0  0
   64.4015   32.3055   46.8827 H   0  0  0  0  0  0  0  0  0  0  0  0
   62.3887   30.8675   47.2196 H   0  0  0  0  0  0  0  0  0  0  0  0
   58.2623   31.0530   47.4512 H   0  0  0  0  0  0  0  0  0  0  0  0
   57.1343   32.6770   48.2777 H   0  0  0  0  0  0  0  0  0  0  0  0
   58.6269   33.3809   49.0821 H   0  0  0  0  0  0  0  0  0  0  0  0
   57.2744   34.8152   47.4436 H   0  0  0  0  0  0  0  0  0  0  0  0
   59.2898   36.0877   47.0817 H   0  0  0  0  0  0  0  0  0  0  0  0
   59.9222   34.9563   48.2719 H   0  0  0  0  0  0  0  0  0  0  0  0
   60.6169   35.1719   45.4280 H   0  0  0  0  0  0  0  0  0  0  0  0
   61.3176   34.0468   46.5832 H   0  0  0  0  0  0  0  0  0  0  0  0
   59.7265   33.1011   44.5170 H   0  0  0  0  0  0  0  0  0  0  0  0
   59.4386   31.1388   45.6523 H   0  0  0  0  0  0  0  0  0  0  0  0
   60.8438   31.9279   46.5327 H   0  0  0  0  0  0  0  0  0  0  0  0
   56.7828   32.2253   46.2238 H   0  0  0  0  0  0  0  0  0  0  0  0
   56.1533   33.5116   45.1262 H   0  0  0  0  0  0  0  0  0  0  0  0
   56.8549   32.4099   43.2895 H   0  0  0  0  0  0  0  0  0  0  0  0
   58.4981   32.1549   44.0035 H   0  0  0  0  0  0  0  0  0  0  0  0
   54.8916   30.5813   44.3856 H   0  0  0  0  0  0  0  0  0  0  0  0
   55.1470   28.0490   44.9460 H   0  0  0  0  0  0  0  0  0  0  0  0
   57.2433   26.3282   45.3602 H   0  0  0  0  0  0  0  0  0  0  0  0
   59.7603   26.2275   45.4546 H   0  0  0  0  0  0  0  0  0  0  0  0
   61.1189   28.2884   45.0280 H   0  0  0  0  0  0  0  0  0  0  0  0
   59.9761   30.4723   44.5008 H   0  0  0  0  0  0  0  0  0  0  0  0
   60.9232   33.6177   50.2201 H   0  0  0  0  0  0  0  0  0  0  0  0
   62.9387   35.0540   49.8858 H   0  0  0  0  0  0  0  0  0  0  0  0
  1  2  2  0
  2  3  1  0
  3  4  2  0
  4  5  1  0
  5  6  1  0
  6  7  1  0
  7  8  1  0
  8  9  1  0
  9 10  1  0
 10 11  1  0
 11 12  1  0
 11 13  1  0
 13 14  1  0
 14 15  1  0
 15 16  1  0
 16 17  2  0
 17 18  1  0
 18 19  1  0
 19 20  2  0
 20 21  1  0
 21 22  2  0
 22 23  1  0
 23 24  2  0
  4 25  1  0
 25 26  2  0
 26  1  1  0
 12  6  1  0
 24 16  1  0
 13  8  1  0
 24 19  1  0
  1 27  1  0
  2 28  1  0
  3 29  1  0
  6 30  1  6
  7 31  1  0
  7 32  1  0
  8 33  1  1
  9 34  1  0
  9 35  1  0
 10 36  1  0
 10 37  1  0
 11 38  1  6
 12 39  1  0
 12 40  1  0
 14 41  1  0
 14 42  1  0
 15 43  1  0
 15 44  1  0
 17 45  1  0
 18 46  1  0
 20 47  1  0
 21 48  1  0
 22 49  1  0
 23 50  1  0
 25 51  1  0
 26 52  1  0
M  END
>  <UniqueID>  (19) 
16

>  <SMILES>  (19) 
c1ccc(SC2C[C@H]3CC[C@@H](C2)N3CCc2c[nH]c3ccccc23)cc1

>  <Energy>  (19) 
108.20187517949802

>  <Genealogy>  (19) 
c1ccc(SC2C[C@H]3CC[C@@H](C2)N3CCc2c[nH]c3ccccc23)cc1 (chirality)
c1ccc(SC2C[C@H]3CC[C@@H](C2)N3CCc2c[nH]c3ccccc23)cc1 (3D coordinates assigned)
c1ccc(SC2C[C@H]3CC[C@@H](C2)N3CCc2c[nH]c3ccccc23)cc1 (nonaromatic ring conformer: 108.20187517949802 kcal/mol)

>  <smiles>  (19) 
c1ccc(SC2CC3CCC(C2)N3CCc2c[nH]c3ccccc23)cc1

>  <score_type>  (19) 
oracle

>  <origin>  (19) 
adg

>  <m_score__min__energy>  (19) 
-9.8000000000000007

>  <m_primary>  (19) 
energy

$$$$
19:0
     RDKit          3D

 43 45  0  0  0  0  0  0  0  0999 V2000
   55.0465   28.8964   44.7806 H   0  0  0  0  0  0  0  0  0  0  0  0
   56.0510   29.3390   44.8510 C   0  0  0  0  0  0  0  0  0  0  0  0
   56.2360   30.6550   44.5630 N   0  0  0  0  0  0  0  0  0  0  0  0
   57.4610   31.2470   44.6340 C   0  0  0  0  0  0  0  0  0  0  0  0
   57.6230   32.5100   44.3590 N   0  0  0  0  0  0  0  0  0  0  0  0
   57.7000   33.6470   45.2910 C   0  0  0  0  0  0  0  0  0  0  0  0
   56.7791   34.2367   45.1722 H   0  0  0  0  0  0  0  0  0  0  0  0
   58.8360   34.6450   44.9280 C   0  0  0  0  0  0  0  0  0  0  0  0
   58.3862   35.5478   44.4891 H   0  0  0  0  0  0  0  0  0  0  0  0
   59.5087   34.1434   44.2168 H   0  0  0  0  0  0  0  0  0  0  0  0
   59.6650   35.0520   46.1460 C   0  0  0  0  0  0  0  0  0  0  0  0
   59.0544   35.6807   46.8107 H   0  0  0  0  0  0  0  0  0  0  0  0
   60.5488   35.6165   45.8139 H   0  0  0  0  0  0  0  0  0  0  0  0
   60.0980   33.8520   46.8710 N   0  0  0  0  0  0  0  0  0  0  0  0
   61.4940   33.5070   46.9350 C   0  0  0  0  0  0  0  0  0  0  0  0
   62.2690   33.8440   45.9980 O   0  0  0  0  0  0  0  0  0  0  0  0
   62.0350   32.7070   48.0480 C   0  0  0  0  0  0  0  0  0  0  0  0
   62.7600   33.2180   49.1100 C   0  0  0  0  0  0  0  0  0  0  0  0
   63.0468   34.2645   49.2905 H   0  0  0  0  0  0  0  0  0  0  0  0
   63.0420   32.1130   49.8930 C   0  0  0  0  0  0  0  0  0  0  0  0
   63.8770   32.1040   51.1300 C   0  0  0  0  0  0  0  0  0  0  0  0
   63.2226   32.1111   52.0142 H   0  0  0  0  0  0  0  0  0  0  0  0
   64.5022   31.1991   51.1438 H   0  0  0  0  0  0  0  0  0  0  0  0
   64.5216   32.9953   51.1438 H   0  0  0  0  0  0  0  0  0  0  0  0
   62.5180   31.0130   49.3220 N   0  0  0  0  0  0  0  0  0  0  0  0
   62.5750   30.0350   49.6870 H   0  0  0  0  0  0  0  0  0  0  0  0
   61.8910   31.3720   48.2130 N   0  0  0  0  0  0  0  0  0  0  0  0
   61.1330   30.4380   47.3820 C   0  0  0  0  0  0  0  0  0  0  0  0
   60.5714   29.7460   48.0269 H   0  0  0  0  0  0  0  0  0  0  0  0
   60.4312   30.9986   46.7470 H   0  0  0  0  0  0  0  0  0  0  0  0
   61.8260   29.8666   46.7470 H   0  0  0  0  0  0  0  0  0  0  0  0
   59.0910   32.8880   47.3410 C   0  0  0  0  0  0  0  0  0  0  0  0
   59.0410   32.9353   48.4388 H   0  0  0  0  0  0  0  0  0  0  0  0
   59.3943   31.8885   46.9960 H   0  0  0  0  0  0  0  0  0  0  0  0
   57.6940   33.1800   46.7690 C   0  0  0  0  0  0  0  0  0  0  0  0
   57.2291   33.9689   47.3786 H   0  0  0  0  0  0  0  0  0  0  0  0
   57.1344   32.2335   46.8002 H   0  0  0  0  0  0  0  0  0  0  0  0
   58.5710   30.4840   45.0210 C   0  0  0  0  0  0  0  0  0  0  0  0
   59.5666   30.9472   45.0863 H   0  0  0  0  0  0  0  0  0  0  0  0
   58.4030   29.1310   45.3230 C   0  0  0  0  0  0  0  0  0  0  0  0
   59.2675   28.5236   45.6290 H   0  0  0  0  0  0  0  0  0  0  0  0
   57.1360   28.5500   45.2360 C   0  0  0  0  0  0  0  0  0  0  0  0
   56.9950   27.4840   45.4680 H   0  0  0  0  0  0  0  0  0  0  0  0
  1  2  1  0
  2  3  1  0
  3  4  1  0
  4  5  2  0
  5  6  1  0
  6  7  1  0
  6  8  1  0
  8  9  1  0
  8 10  1  0
  8 11  1  0
 11 12  1  0
 11 13  1  0
 11 14  1  0
 14 15  1  0
 15 16  2  0
 15 17  1  0
 17 18  2  0
 18 19  1  0
 18 20  1  0
 20 21  1  0
 21 22  1  0
 21 23  1  0
 21 24  1  0
 20 25  2  0
 25 26  1  0
 25 27  1  0
 27 28  1  0
 28 29  1  0
 28 30  1  0
 28 31  1  0
 14 32  1  0
 32 33  1  0
 32 34  1  0
 32 35  1  0
 35 36  1  0
 35 37  1  0
  4 38  1  0
 38 39  1  0
 38 40  2  0
 40 41  1  0
 40 42  1  0
 42 43  1  0
 42  2  2  0
 35  6  1  0
 27 17  1  0
M  CHG  2   3  -1  25   1
M  END
>  <UniqueID>  (20) 
17

>  <SMILES>  (20) 
Cc1cc(C(=O)N2CCC(/N=c3/cccc[n-]3)CC2)n(C)[nH+]1

>  <Energy>  (20) 
84.91253193403497

>  <Genealogy>  (20) 
Cc1cc(C(=O)N2CCC(N=c3cccc[n-]3)CC2)n(C)[nH+]1 (protonated)
Cc1cc(C(=O)N2CCC(/N=c3/cccc[n-]3)CC2)n(C)[nH+]1 (cis-trans isomerization)
Cc1cc(C(=O)N2CCC(/N=c3/cccc[n-]3)CC2)n(C)[nH+]1 (3D coordinates assigned)
Cc1cc(C(=O)N2CCC(/N=c3/cccc[n-]3)CC2)n(C)[nH+]1 (nonaromatic ring conformer: 84.91253193403497 kcal/mol)

>  <smiles>  (20) 
Cc1cc(C(=O)N2CCC(N=c3cccc[nH]3)CC2)n(C)n1

>  <score_type>  (20) 
oracle

>  <origin>  (20) 
adg

>  <m_score__min__energy>  (20) 
-7.9299999999999997

>  <m_primary>  (20) 
energy

$$$$
20:0
     RDKit          3D

 55 59  0  0  0  0  0  0  0  0999 V2000
   57.7330   31.5810   42.4040 C   0  0  0  0  0  0  0  0  0  0  0  0
   58.0850   32.2490   43.6930 C   0  0  0  0  0  0  0  0  0  0  0  0
   58.4890   33.5380   43.7770 N   0  0  0  0  0  0  0  0  0  0  0  0
   58.7140   33.7710   45.0820 C   0  0  0  0  0  0  0  0  0  0  0  0
   59.1060   34.9700   45.6710 C   0  0  0  0  0  0  0  0  0  0  0  0
   59.2570   34.9980   47.0700 C   0  0  0  0  0  0  0  0  0  0  0  0
   59.0030   33.8410   47.8430 C   0  0  0  0  0  0  0  0  0  0  0  0
   58.6020   32.6440   47.2230 C   0  0  0  0  0  0  0  0  0  0  0  0
   58.4740   32.6440   45.8330 C   0  0  0  0  0  0  0  0  0  0  0  0
   58.0890   31.6520   44.9550 C   0  0  0  0  0  0  0  0  0  0  0  0
   57.6680   30.2850   45.3070 C   0  0  0  0  0  0  0  0  0  0  0  0
   56.4590   29.9670   45.1430 O   0  0  0  0  0  0  0  0  0  0  0  0
   58.6400   29.2470   45.8260 C   0  0  2  0  0  0  0  0  0  0  0  0
   57.9680   28.2090   46.7480 C   0  0  0  0  0  0  0  0  0  0  0  0
   58.9640   27.1380   47.2090 C   0  0  0  0  0  0  0  0  0  0  0  0
   60.4020   27.6740   47.3550 C   0  0  0  0  0  0  0  0  0  0  0  0
   60.4590   29.1300   47.6170 N   0  0  0  0  0  0  0  0  0  0  0  0
   59.9920   29.6030   48.9520 C   0  0  0  0  0  0  0  0  0  0  0  0
   60.4760   30.9880   49.3560 C   0  0  0  0  0  0  0  0  0  0  0  0
   59.7910   31.6540   50.3910 C   0  0  0  0  0  0  0  0  0  0  0  0
   60.1780   32.9280   50.8030 C   0  0  0  0  0  0  0  0  0  0  0  0
   61.2570   33.5660   50.1940 C   0  0  0  0  0  0  0  0  0  0  0  0
   61.9590   32.9300   49.1590 C   0  0  0  0  0  0  0  0  0  0  0  0
   63.0490   33.5640   48.5500 C   0  0  0  0  0  0  0  0  0  0  0  0
   63.7450   32.9210   47.5280 C   0  0  0  0  0  0  0  0  0  0  0  0
   63.3440   31.6500   47.1200 C   0  0  0  0  0  0  0  0  0  0  0  0
   62.2860   31.0350   47.7140 N   0  0  0  0  0  0  0  0  0  0  0  0
   61.5720   31.6360   48.7230 C   0  0  0  0  0  0  0  0  0  0  0  0
   59.8660   29.9230   46.5060 C   0  0  0  0  0  0  0  0  0  0  0  0
   57.2294   30.6254   42.6118 H   0  0  0  0  0  0  0  0  0  0  0  0
   57.0606   32.2316   41.8255 H   0  0  0  0  0  0  0  0  0  0  0  0
   58.6498   31.3942   41.8255 H   0  0  0  0  0  0  0  0  0  0  0  0
   58.5840   34.2220   42.9910 H   0  0  0  0  0  0  0  0  0  0  0  0
   59.2918   35.8671   45.0622 H   0  0  0  0  0  0  0  0  0  0  0  0
   59.5750   35.9268   47.5661 H   0  0  0  0  0  0  0  0  0  0  0  0
   59.1199   33.8777   48.9362 H   0  0  0  0  0  0  0  0  0  0  0  0
   58.3963   31.7388   47.8132 H   0  0  0  0  0  0  0  0  0  0  0  0
   59.0054   28.6839   44.9546 H   0  0  0  0  0  0  0  0  0  0  0  0
   57.5633   28.7246   47.6314 H   0  0  0  0  0  0  0  0  0  0  0  0
   57.1656   27.7131   46.1820 H   0  0  0  0  0  0  0  0  0  0  0  0
   58.6343   26.7494   48.1838 H   0  0  0  0  0  0  0  0  0  0  0  0
   58.9826   26.3532   46.4384 H   0  0  0  0  0  0  0  0  0  0  0  0
   60.8873   27.1493   48.1912 H   0  0  0  0  0  0  0  0  0  0  0  0
   60.9161   27.4939   46.3993 H   0  0  0  0  0  0  0  0  0  0  0  0
   58.8921   29.6166   48.9423 H   0  0  0  0  0  0  0  0  0  0  0  0
   60.4171   28.9050   49.6883 H   0  0  0  0  0  0  0  0  0  0  0  0
   58.9383   31.1615   50.8812 H   0  0  0  0  0  0  0  0  0  0  0  0
   59.6294   33.4320   51.6123 H   0  0  0  0  0  0  0  0  0  0  0  0
   61.5590   34.5705   50.5255 H   0  0  0  0  0  0  0  0  0  0  0  0
   63.3555   34.5683   48.8778 H   0  0  0  0  0  0  0  0  0  0  0  0
   64.6037   33.4125   47.0473 H   0  0  0  0  0  0  0  0  0  0  0  0
   63.8876   31.1400   46.3110 H   0  0  0  0  0  0  0  0  0  0  0  0
   62.0400   30.0790   47.3730 H   0  0  0  0  0  0  0  0  0  0  0  0
   59.5452   30.8951   46.9085 H   0  0  0  0  0  0  0  0  0  0  0  0
   60.6440   30.0183   45.7342 H   0  0  0  0  0  0  0  0  0  0  0  0
  1  2  1  0
  2  3  1  0
  3  4  1  0
  4  5  2  0
  5  6  1  0
  6  7  2  0
  7  8  1  0
  8  9  2  0
  9 10  1  0
 10 11  1  0
 11 12  2  0
 11 13  1  0
 13 14  1  0
 14 15  1  0
 15 16  1  0
 16 17  1  0
 17 18  1  0
 18 19  1  0
 19 20  2  0
 20 21  1  0
 21 22  2  0
 22 23  1  0
 23 24  2  0
 24 25  1  0
 25 26  2  0
 26 27  1  0
 27 28  2  0
 17 29  1  0
 10  2  2  0
 29 13  1  0
  9  4  1  0
 28 19  1  0
 28 23  1  0
  1 30  1  0
  1 31  1  0
  1 32  1  0
  3 33  1  0
  5 34  1  0
  6 35  1  0
  7 36  1  0
  8 37  1  0
 13 38  1  6
 14 39  1  0
 14 40  1  0
 15 41  1  0
 15 42  1  0
 16 43  1  0
 16 44  1  0
 18 45  1  0
 18 46  1  0
 20 47  1  0
 21 48  1  0
 22 49  1  0
 24 50  1  0
 25 51  1  0
 26 52  1  0
 27 53  1  0
 29 54  1  0
 29 55  1  0
M  CHG  1  27   1
M  END
>  <UniqueID>  (21) 
18

>  <SMILES>  (21) 
Cc1[nH]c2ccccc2c1C(=O)[C@@H]1CCCN(Cc2cccc3ccc[nH+]c23)C1

>  <Energy>  (21) 
118.52898845851709

>  <Genealogy>  (21) 
Cc1[nH]c2ccccc2c1C(=O)C1CCCN(Cc2cccc3ccc[nH+]c23)C1 (protonated)
Cc1[nH]c2ccccc2c1C(=O)[C@@H]1CCCN(Cc2cccc3ccc[nH+]c23)C1 (chirality)
Cc1[nH]c2ccccc2c1C(=O)[C@@H]1CCCN(Cc2cccc3ccc[nH+]c23)C1 (3D coordinates assigned)
Cc1[nH]c2ccccc2c1C(=O)[C@@H]1CCCN(Cc2cccc3ccc[nH+]c23)C1 (nonaromatic ring conformer: 118.52898845851709 kcal/mol)

>  <smiles>  (21) 
Cc1[nH]c2ccccc2c1C(=O)C1CCCN(Cc2cccc3cccnc23)C1

>  <score_type>  (21) 
oracle

>  <origin>  (21) 
adg

>  <m_score__min__energy>  (21) 
-8.2899999999999991

>  <m_primary>  (21) 
energy

$$$$
21:0
     RDKit          3D

 36 39  0  0  0  0  0  0  0  0999 V2000
   55.5190   28.5380   45.2400 O   0  0  0  0  0  0  0  0  0  0  0  0
   56.8260   28.2090   45.5760 C   0  0  0  0  0  0  0  0  0  0  0  0
   57.8300   29.0990   45.8470 C   0  0  0  0  0  0  0  0  0  0  0  0
   58.1300   30.7400   45.9620 S   0  0  0  0  0  0  0  0  0  0  0  0
   59.7430   30.4310   46.4860 C   0  0  0  0  0  0  0  0  0  0  0  0
   60.7290   31.4890   46.8210 C   0  0  0  0  0  0  0  0  0  0  0  0
   62.0370   31.1440   47.2090 C   0  0  0  0  0  0  0  0  0  0  0  0
   62.9690   32.1380   47.5250 C   0  0  0  0  0  0  0  0  0  0  0  0
   62.6100   33.4850   47.4540 C   0  0  0  0  0  0  0  0  0  0  0  0
   63.5160   34.4460   47.7600 F   0  0  0  0  0  0  0  0  0  0  0  0
   61.3170   33.8410   47.0650 C   0  0  0  0  0  0  0  0  0  0  0  0
   60.3800   32.8520   46.7490 C   0  0  0  0  0  0  0  0  0  0  0  0
   60.0030   29.0910   46.5680 N   0  0  0  0  0  0  0  0  0  0  0  0
   58.9070   28.3950   46.1970 C   0  0  0  0  0  0  0  0  0  0  0  0
   58.6010   27.0560   46.1470 C   0  0  0  0  0  0  0  0  0  0  0  0
   57.3040   26.9400   45.7300 N   0  0  0  0  0  0  0  0  0  0  0  0
   56.5060   25.7020   45.6600 C   0  0  0  0  0  0  0  0  0  0  0  0
   56.9610   24.7810   44.5290 C   0  0  0  0  0  0  0  0  0  0  0  0
   56.6450   23.3570   44.9830 C   0  0  0  0  0  0  0  0  0  0  0  0
   56.2630   23.4350   46.4580 C   0  0  0  0  0  0  0  0  0  0  0  0
   56.6240   24.8380   46.9130 C   0  0  0  0  0  0  0  0  0  0  0  0
   62.3286   30.0848   47.2642 H   0  0  0  0  0  0  0  0  0  0  0  0
   63.9878   31.8574   47.8304 H   0  0  0  0  0  0  0  0  0  0  0  0
   61.0346   34.9025   47.0069 H   0  0  0  0  0  0  0  0  0  0  0  0
   59.3637   33.1403   46.4422 H   0  0  0  0  0  0  0  0  0  0  0  0
   60.9040   28.6490   46.8550 H   0  0  0  0  0  0  0  0  0  0  0  0
   59.2783   26.2262   46.3976 H   0  0  0  0  0  0  0  0  0  0  0  0
   55.4796   26.0708   45.5166 H   0  0  0  0  0  0  0  0  0  0  0  0
   56.4149   25.0158   43.6034 H   0  0  0  0  0  0  0  0  0  0  0  0
   58.0336   24.9052   44.3190 H   0  0  0  0  0  0  0  0  0  0  0  0
   55.8078   22.9503   44.3967 H   0  0  0  0  0  0  0  0  0  0  0  0
   57.5118   22.6960   44.8358 H   0  0  0  0  0  0  0  0  0  0  0  0
   55.1844   23.2589   46.5828 H   0  0  0  0  0  0  0  0  0  0  0  0
   56.7899   22.6724   47.0504 H   0  0  0  0  0  0  0  0  0  0  0  0
   55.9255   25.1846   47.6889 H   0  0  0  0  0  0  0  0  0  0  0  0
   57.6311   24.8835   47.3530 H   0  0  0  0  0  0  0  0  0  0  0  0
  1  2  1  0
  2  3  2  0
  3  4  1  0
  4  5  1  0
  5  6  1  0
  6  7  2  0
  7  8  1  0
  8  9  2  0
  9 10  1  0
  9 11  1  0
 11 12  2  0
  5 13  2  0
 13 14  1  0
 14 15  2  0
 15 16  1  0
 16 17  1  0
 17 18  1  0
 18 19  1  0
 19 20  1  0
 20 21  1  0
 16  2  1  0
 21 17  1  0
 14  3  1  0
 12  6  1  0
  7 22  1  0
  8 23  1  0
 11 24  1  0
 12 25  1  0
 13 26  1  0
 15 27  1  0
 17 28  1  0
 18 29  1  0
 18 30  1  0
 19 31  1  0
 19 32  1  0
 20 33  1  0
 20 34  1  0
 21 35  1  0
 21 36  1  0
M  CHG  2   1  -1  13   1
M  END
>  <UniqueID>  (22) 
19

>  <SMILES>  (22) 
[O-]c1c2sc(-c3ccc(F)cc3)[nH+]c2cn1C1CCCC1

>  <Energy>  (22) 
126.24934237337418

>  <Genealogy>  (22) 
[O-]c1c2sc(-c3ccc(F)cc3)[nH+]c2cn1C1CCCC1 (protonated)
[O-]c1c2sc(-c3ccc(F)cc3)[nH+]c2cn1C1CCCC1 (3D coordinates assigned)
[O-]c1c2sc(-c3ccc(F)cc3)[nH+]c2cn1C1CCCC1 (nonaromatic ring conformer: 126.24934237337418 kcal/mol)

>  <smiles>  (22) 
Oc1c2sc(-c3ccc(F)cc3)nc2cn1C1CCCC1

>  <score_type>  (22) 
oracle

>  <origin>  (22) 
adg

>  <m_score__min__energy>  (22) 
-8.4499999999999993

>  <m_primary>  (22) 
energy

$$$$
22:0
     RDKit          3D

 34 36  0  0  0  0  0  0  0  0999 V2000
   55.1930   30.2530   44.4970 O   0  0  0  0  0  0  0  0  0  0  0  0
   56.2230   29.5390   44.6110 C   0  0  0  0  0  0  0  0  0  0  0  0
   57.5390   30.0760   44.1180 C   0  0  0  0  0  0  0  0  0  0  0  0
   57.8330   31.4260   44.7200 C   0  0  0  0  0  0  0  0  0  0  0  0
   58.1520   31.5390   46.0840 C   0  0  0  0  0  0  0  0  0  0  0  0
   58.4190   32.7920   46.6450 C   0  0  0  0  0  0  0  0  0  0  0  0
   58.3590   33.9410   45.8530 C   0  0  0  0  0  0  0  0  0  0  0  0
   58.0290   33.8400   44.4990 C   0  0  0  0  0  0  0  0  0  0  0  0
   57.7630   32.5890   43.9330 C   0  0  0  0  0  0  0  0  0  0  0  0
   56.1050   28.2590   45.2490 N   0  0  0  0  0  0  0  0  0  0  0  0
   57.0900   27.1840   45.2000 C   0  0  0  0  0  0  0  0  0  0  0  0
   58.1750   27.3970   46.2220 C   0  0  0  0  0  0  0  0  0  0  0  0
   59.2920   26.5230   46.2740 C   0  0  0  0  0  0  0  0  0  0  0  0
   60.3170   26.7270   47.2130 C   0  0  0  0  0  0  0  0  0  0  0  0
   60.2040   27.8170   48.0720 C   0  0  0  0  0  0  0  0  0  0  0  0
   59.1480   28.6660   48.0180 C   0  0  0  0  0  0  0  0  0  0  0  0
   58.1120   28.4990   47.1040 C   0  0  0  0  0  0  0  0  0  0  0  0
   59.3000   29.6510   48.9750 O   0  0  0  0  0  0  0  0  0  0  0  0
   60.5280   29.4030   49.6750 C   0  0  0  0  0  0  0  0  0  0  0  0
   61.0730   28.2230   49.0650 O   0  0  0  0  0  0  0  0  0  0  0  0
   58.3401   29.3758   44.3971 H   0  0  0  0  0  0  0  0  0  0  0  0
   57.4848   30.1849   43.0247 H   0  0  0  0  0  0  0  0  0  0  0  0
   58.1919   30.6377   46.7134 H   0  0  0  0  0  0  0  0  0  0  0  0
   58.6766   32.8728   47.7114 H   0  0  0  0  0  0  0  0  0  0  0  0
   58.5716   34.9255   46.2953 H   0  0  0  0  0  0  0  0  0  0  0  0
   57.9783   34.7460   43.8772 H   0  0  0  0  0  0  0  0  0  0  0  0
   57.4980   32.5147   42.8680 H   0  0  0  0  0  0  0  0  0  0  0  0
   56.5877   26.2267   45.4033 H   0  0  0  0  0  0  0  0  0  0  0  0
   57.5483   27.1750   44.2001 H   0  0  0  0  0  0  0  0  0  0  0  0
   59.3558   25.6780   45.5726 H   0  0  0  0  0  0  0  0  0  0  0  0
   61.1805   26.0478   47.2678 H   0  0  0  0  0  0  0  0  0  0  0  0
   57.2686   29.2044   47.0692 H   0  0  0  0  0  0  0  0  0  0  0  0
   61.2176   30.2520   49.5583 H   0  0  0  0  0  0  0  0  0  0  0  0
   60.3681   29.2727   50.7555 H   0  0  0  0  0  0  0  0  0  0  0  0
  1  2  2  0
  2  3  1  0
  3  4  1  0
  4  5  2  0
  5  6  1  0
  6  7  2  0
  7  8  1  0
  8  9  2  0
  2 10  1  0
 10 11  1  0
 11 12  1  0
 12 13  2  0
 13 14  1  0
 14 15  2  0
 15 16  1  0
 16 17  2  0
 16 18  1  0
 18 19  1  0
 19 20  1  0
  9  4  1  0
 17 12  1  0
 20 15  1  0
  3 21  1  0
  3 22  1  0
  5 23  1  0
  6 24  1  0
  7 25  1  0
  8 26  1  0
  9 27  1  0
 11 28  1  0
 11 29  1  0
 13 30  1  0
 14 31  1  0
 17 32  1  0
 19 33  1  0
 19 34  1  0
M  CHG  1  10  -1
M  END
>  <UniqueID>  (23) 
20

>  <SMILES>  (23) 
O=C(Cc1ccccc1)[N-]Cc1ccc2c(c1)OCO2

>  <Energy>  (23) 
60.478412866424826

>  <Genealogy>  (23) 
O=C(Cc1ccccc1)[N-]Cc1ccc2c(c1)OCO2 (protonated)
O=C(Cc1ccccc1)[N-]Cc1ccc2c(c1)OCO2 (3D coordinates assigned)
O=C(Cc1ccccc1)[N-]Cc1ccc2c(c1)OCO2 (nonaromatic ring conformer: 60.478412866424826 kcal/mol)

>  <smiles>  (23) 
O=C(Cc1ccccc1)NCc1ccc2c(c1)OCO2

>  <score_type>  (23) 
oracle

>  <origin>  (23) 
adg

>  <m_score__min__energy>  (23) 
-9.1600000000000001

>  <m_primary>  (23) 
energy

$$$$
23:0
     RDKit          3D

 30 30  0  0  0  0  0  0  0  0999 V2000
   61.5030   33.8630   49.7080 C   0  0  0  0  0  0  0  0  0  0  0  0
   61.0170   34.6310   48.6120 O   0  0  0  0  0  0  0  0  0  0  0  0
   60.0500   34.1850   47.7000 C   0  0  0  0  0  0  0  0  0  0  0  0
   59.9970   34.6440   46.3710 C   0  0  0  0  0  0  0  0  0  0  0  0
   59.0130   34.1670   45.4990 C   0  0  0  0  0  0  0  0  0  0  0  0
   58.0690   33.2260   45.9390 C   0  0  0  0  0  0  0  0  0  0  0  0
   57.0130   32.7010   44.9930 C   0  0  0  0  0  0  0  0  0  0  0  0
   57.3800   31.3370   44.3450 C   0  0  0  0  0  0  0  0  0  0  0  0
   58.7800   30.8690   44.8060 C   0  0  0  0  0  0  0  0  0  0  0  0
   57.4230   31.5130   42.8120 C   0  0  0  0  0  0  0  0  0  0  0  0
   56.3640   30.3260   44.6890 N   0  0  0  0  0  0  0  0  0  0  0  0
   55.1840   30.4700   44.3060 O   0  0  0  0  0  0  0  0  0  0  0  0
   56.6370   29.3440   45.6140 O   0  0  0  0  0  0  0  0  0  0  0  0
   58.1210   32.7740   47.2670 C   0  0  0  0  0  0  0  0  0  0  0  0
   59.1050   33.2510   48.1380 C   0  0  0  0  0  0  0  0  0  0  0  0
   61.2013   34.3398   50.6522 H   0  0  0  0  0  0  0  0  0  0  0  0
   61.0827   32.8477   49.6592 H   0  0  0  0  0  0  0  0  0  0  0  0
   62.6005   33.8082   49.6592 H   0  0  0  0  0  0  0  0  0  0  0  0
   60.7325   35.3810   46.0163 H   0  0  0  0  0  0  0  0  0  0  0  0
   58.9787   34.5316   44.4618 H   0  0  0  0  0  0  0  0  0  0  0  0
   56.0744   32.5783   45.5533 H   0  0  0  0  0  0  0  0  0  0  0  0
   56.9204   33.4315   44.1758 H   0  0  0  0  0  0  0  0  0  0  0  0
   58.8187   30.8561   45.9052 H   0  0  0  0  0  0  0  0  0  0  0  0
   58.9738   29.8572   44.4203 H   0  0  0  0  0  0  0  0  0  0  0  0
   59.5433   31.5608   44.4203 H   0  0  0  0  0  0  0  0  0  0  0  0
   57.6776   32.5553   42.5696 H   0  0  0  0  0  0  0  0  0  0  0  0
   58.1835   30.8414   42.3870 H   0  0  0  0  0  0  0  0  0  0  0  0
   56.4385   31.2677   42.3870 H   0  0  0  0  0  0  0  0  0  0  0  0
   57.3834   32.0404   47.6243 H   0  0  0  0  0  0  0  0  0  0  0  0
   59.1365   32.8890   49.1762 H   0  0  0  0  0  0  0  0  0  0  0  0
  1  2  1  0
  2  3  1  0
  3  4  2  0
  4  5  1  0
  5  6  2  0
  6  7  1  0
  7  8  1  0
  8  9  1  0
  8 10  1  0
  8 11  1  0
 11 12  2  0
 11 13  1  0
  6 14  1  0
 14 15  2  0
 15  3  1  0
  1 16  1  0
  1 17  1  0
  1 18  1  0
  4 19  1  0
  5 20  1  0
  7 21  1  0
  7 22  1  0
  9 23  1  0
  9 24  1  0
  9 25  1  0
 10 26  1  0
 10 27  1  0
 10 28  1  0
 14 29  1  0
 15 30  1  0
M  CHG  2  11   1  13  -1
M  END
>  <UniqueID>  (24) 
21

>  <SMILES>  (24) 
COc1ccc(CC(C)(C)[N+](=O)[O-])cc1

>  <Energy>  (24) 
24.763243129029053

>  <Genealogy>  (24) 
COc1ccc(CC(C)(C)[N+](=O)[O-])cc1 (3D coordinates assigned)
COc1ccc(CC(C)(C)[N+](=O)[O-])cc1 (optimized conformer: 24.763243129029053 kcal/mol)

>  <smiles>  (24) 
COc1ccc(CC(C)(C)[N+](=O)[O-])cc1

>  <score_type>  (24) 
oracle

>  <origin>  (24) 
adg

>  <m_score__min__energy>  (24) 
-6.0199999999999996

>  <m_primary>  (24) 
energy

$$$$
24:0
     RDKit          3D

 44 46  0  0  0  0  0  0  0  0999 V2000
   56.3130   22.8200   48.4570 C   0  0  0  0  0  0  0  0  0  0  0  0
   57.3390   22.6150   47.4920 O   0  0  0  0  0  0  0  0  0  0  0  0
   57.1570   22.6870   46.1020 C   0  0  0  0  0  0  0  0  0  0  0  0
   57.3120   21.5550   45.2750 C   0  0  0  0  0  0  0  0  0  0  0  0
   57.1870   21.6720   43.8880 C   0  0  0  0  0  0  0  0  0  0  0  0
   56.9140   22.9130   43.3110 C   0  0  0  0  0  0  0  0  0  0  0  0
   56.7500   24.0380   44.1200 C   0  0  0  0  0  0  0  0  0  0  0  0
   56.8400   23.9300   45.5130 C   0  0  0  0  0  0  0  0  0  0  0  0
   56.6670   25.1130   46.3020 N   0  0  0  0  0  0  0  0  0  0  0  0
   55.9590   26.2840   45.8810 C   0  0  0  0  0  0  0  0  0  0  0  0
   54.7030   26.3430   45.9860 O   0  0  0  0  0  0  0  0  0  0  0  0
   56.7160   27.4230   45.2620 C   0  0  1  0  0  0  0  0  0  0  0  0
   55.9020   28.6410   45.2510 N   0  0  0  0  0  0  0  0  0  0  0  0
   55.8290   29.5960   44.1810 C   0  0  0  0  0  0  0  0  0  0  0  0
   54.9960   29.4090   43.2570 O   0  0  0  0  0  0  0  0  0  0  0  0
   56.7330   30.7560   44.0980 C   0  0  0  0  0  0  0  0  0  0  0  0
   57.2130   31.2170   42.8640 C   0  0  0  0  0  0  0  0  0  0  0  0
   58.0590   32.3260   42.8300 C   0  0  0  0  0  0  0  0  0  0  0  0
   58.4340   32.9520   44.0200 C   0  0  0  0  0  0  0  0  0  0  0  0
   57.9570   32.4510   45.2330 C   0  0  0  0  0  0  0  0  0  0  0  0
   57.1300   31.3720   45.2460 N   0  0  0  0  0  0  0  0  0  0  0  0
   57.9970   27.6580   46.0280 C   0  0  0  0  0  0  0  0  0  0  0  0
   59.0900   26.7780   45.9000 C   0  0  0  0  0  0  0  0  0  0  0  0
   60.2860   27.0310   46.5780 C   0  0  0  0  0  0  0  0  0  0  0  0
   60.4080   28.1670   47.3810 C   0  0  0  0  0  0  0  0  0  0  0  0
   59.3380   29.0580   47.5000 C   0  0  0  0  0  0  0  0  0  0  0  0
   58.1400   28.8080   46.8250 C   0  0  0  0  0  0  0  0  0  0  0  0
   56.7382   22.7350   49.4679 H   0  0  0  0  0  0  0  0  0  0  0  0
   55.8799   23.8224   48.3244 H   0  0  0  0  0  0  0  0  0  0  0  0
   55.5280   22.0610   48.3244 H   0  0  0  0  0  0  0  0  0  0  0  0
   57.5324   20.5753   45.7239 H   0  0  0  0  0  0  0  0  0  0  0  0
   57.3041   20.7839   43.2496 H   0  0  0  0  0  0  0  0  0  0  0  0
   56.8281   23.0043   42.2182 H   0  0  0  0  0  0  0  0  0  0  0  0
   56.5486   25.0167   43.6600 H   0  0  0  0  0  0  0  0  0  0  0  0
   56.9581   27.1625   44.2211 H   0  0  0  0  0  0  0  0  0  0  0  0
   56.9254   30.7092   41.9316 H   0  0  0  0  0  0  0  0  0  0  0  0
   58.4299   32.7065   41.8669 H   0  0  0  0  0  0  0  0  0  0  0  0
   59.0973   33.8294   44.0024 H   0  0  0  0  0  0  0  0  0  0  0  0
   58.2506   32.9298   46.1788 H   0  0  0  0  0  0  0  0  0  0  0  0
   59.0016   25.8860   45.2624 H   0  0  0  0  0  0  0  0  0  0  0  0
   61.1318   26.3347   46.4789 H   0  0  0  0  0  0  0  0  0  0  0  0
   61.3470   28.3606   47.9202 H   0  0  0  0  0  0  0  0  0  0  0  0
   59.4388   29.9571   48.1256 H   0  0  0  0  0  0  0  0  0  0  0  0
   57.3030   29.5157   46.9177 H   0  0  0  0  0  0  0  0  0  0  0  0
  1  2  1  0
  2  3  1  0
  3  4  2  0
  4  5  1  0
  5  6  2  0
  6  7  1  0
  7  8  2  0
  8  9  1  0
  9 10  1  0
 10 11  2  0
 10 12  1  0
 12 13  1  0
 13 14  1  0
 14 15  2  0
 14 16  1  0
 16 17  2  0
 17 18  1  0
 18 19  2  0
 19 20  1  0
 20 21  2  0
 12 22  1  0
 22 23  2  0
 23 24  1  0
 24 25  2  0
 25 26  1  0
 26 27  2  0
  8  3  1  0
 21 16  1  0
 27 22  1  0
  1 28  1  0
  1 29  1  0
  1 30  1  0
  4 31  1  0
  5 32  1  0
  6 33  1  0
  7 34  1  0
 12 35  1  6
 17 36  1  0
 18 37  1  0
 19 38  1  0
 20 39  1  0
 23 40  1  0
 24 41  1  0
 25 42  1  0
 26 43  1  0
 27 44  1  0
M  CHG  2   9  -1  13  -1
M  END
>  <UniqueID>  (25) 
22

>  <SMILES>  (25) 
COc1ccccc1[N-]C(=O)[C@@H]([N-]C(=O)c1ccccn1)c1ccccc1

>  <Energy>  (25) 
53.915410334833695

>  <Genealogy>  (25) 
COc1ccccc1[N-]C(=O)C([N-]C(=O)c1ccccn1)c1ccccc1 (protonated)
COc1ccccc1[N-]C(=O)[C@@H]([N-]C(=O)c1ccccn1)c1ccccc1 (chirality)
COc1ccccc1[N-]C(=O)[C@@H]([N-]C(=O)c1ccccn1)c1ccccc1 (3D coordinates assigned)
COc1ccccc1[N-]C(=O)[C@@H]([N-]C(=O)c1ccccn1)c1ccccc1 (optimized conformer: 53.915410334833695 kcal/mol)

>  <smiles>  (25) 
COc1ccccc1NC(=O)C(NC(=O)c1ccccn1)c1ccccc1

>  <score_type>  (25) 
oracle

>  <origin>  (25) 
adg

>  <m_score__min__energy>  (25) 
-12.630000000000001

>  <m_primary>  (25) 
energy

$$$$
25:0
     RDKit          3D

 23 24  0  0  0  0  0  0  0  0999 V2000
   56.6250   25.2630   45.9460 O   0  0  0  0  0  0  0  0  0  0  0  0
   56.2000   26.4480   46.0020 C   0  0  0  0  0  0  0  0  0  0  0  0
   54.8320   26.6790   46.0640 O   0  0  0  0  0  0  0  0  0  0  0  0
   57.1390   27.5790   46.0020 C   0  0  0  0  0  0  0  0  0  0  0  0
   58.4650   27.5380   46.3930 C   0  0  0  0  0  0  0  0  0  0  0  0
   58.9570   28.8210   46.2480 C   0  0  0  0  0  0  0  0  0  0  0  0
   57.9920   29.6410   45.7800 N   0  0  0  0  0  0  0  0  0  0  0  0
   58.1590   31.0350   45.4740 C   0  0  0  0  0  0  0  0  0  0  0  0
   58.6790   31.9120   46.4410 C   0  0  0  0  0  0  0  0  0  0  0  0
   58.8630   33.2650   46.1400 C   0  0  0  0  0  0  0  0  0  0  0  0
   58.5430   33.7500   44.8670 C   0  0  0  0  0  0  0  0  0  0  0  0
   58.7270   35.0950   44.5700 O   0  0  0  0  0  0  0  0  0  0  0  0
   58.0410   32.8810   43.8950 C   0  0  0  0  0  0  0  0  0  0  0  0
   57.8540   31.5280   44.1940 C   0  0  0  0  0  0  0  0  0  0  0  0
   56.8790   28.8870   45.6420 C   0  0  0  0  0  0  0  0  0  0  0  0
   55.6330   29.3670   45.2380 O   0  0  0  0  0  0  0  0  0  0  0  0
   59.0191   26.6571   46.7494 H   0  0  0  0  0  0  0  0  0  0  0  0
   59.9868   29.1299   46.4805 H   0  0  0  0  0  0  0  0  0  0  0  0
   58.9425   31.5324   47.4392 H   0  0  0  0  0  0  0  0  0  0  0  0
   59.2597   33.9489   46.9047 H   0  0  0  0  0  0  0  0  0  0  0  0
   57.7926   33.2617   42.8933 H   0  0  0  0  0  0  0  0  0  0  0  0
   57.4661   30.8459   43.4231 H   0  0  0  0  0  0  0  0  0  0  0  0
   54.7670   28.9550   45.5620 H   0  0  0  0  0  0  0  0  0  0  0  0
  1  2  2  0
  2  3  1  0
  2  4  1  0
  4  5  1  0
  5  6  2  0
  6  7  1  0
  7  8  1  0
  8  9  2  0
  9 10  1  0
 10 11  2  0
 11 12  1  0
 11 13  1  0
 13 14  2  0
  7 15  1  0
 15 16  1  0
 15  4  2  0
 14  8  1  0
  5 17  1  0
  6 18  1  0
  9 19  1  0
 10 20  1  0
 13 21  1  0
 14 22  1  0
 16 23  1  0
M  CHG  2   3  -1  12  -1
M  END
>  <UniqueID>  (26) 
23

>  <SMILES>  (26) 
O=C([O-])c1ccn(-c2ccc([O-])cc2)c1O

>  <Energy>  (26) 
55.87498940574279

>  <Genealogy>  (26) 
O=C([O-])c1ccn(-c2ccc([O-])cc2)c1O (protonated)
O=C([O-])c1ccn(-c2ccc([O-])cc2)c1O (3D coordinates assigned)
O=C([O-])c1ccn(-c2ccc([O-])cc2)c1O (optimized conformer: 55.87498940574279 kcal/mol)

>  <smiles>  (26) 
O=C(O)c1ccn(-c2ccc(O)cc2)c1O

>  <score_type>  (26) 
oracle

>  <origin>  (26) 
adg

>  <m_score__min__energy>  (26) 
-9.8200000000000003

>  <m_primary>  (26) 
energy

$$$$
26:0
     RDKit          3D

 54 56  0  0  0  0  0  0  0  0999 V2000
   57.1053   33.0757   43.0495 H   0  0  0  0  0  0  0  0  0  0  0  0
   57.7660   32.5260   43.7360 C   0  0  0  0  0  0  0  0  0  0  0  0
   58.0580   31.2550   43.4420 C   0  0  0  0  0  0  0  0  0  0  0  0
   59.0708   30.9914   43.1032 H   0  0  0  0  0  0  0  0  0  0  0  0
   56.8360   30.0040   43.5930 S   0  0  0  0  0  0  0  0  0  0  0  0
   55.7730   30.4600   44.5520 O   0  0  0  0  0  0  0  0  0  0  0  0
   56.2130   29.7600   42.2480 O   0  0  0  0  0  0  0  0  0  0  0  0
   57.5550   28.5310   44.1720 N   0  0  0  0  0  0  0  0  0  0  0  0
   56.9900   27.7420   43.7830 H   0  0  0  0  0  0  0  0  0  0  0  0
   57.4690   28.4760   45.6330 C   0  0  0  0  0  0  0  0  0  0  0  0
   57.4910   27.4267   45.9624 H   0  0  0  0  0  0  0  0  0  0  0  0
   56.5299   28.9442   45.9630 H   0  0  0  0  0  0  0  0  0  0  0  0
   58.6330   29.2130   46.2310 C   0  0  0  0  0  0  0  0  0  0  0  0
   58.5530   29.7380   47.5300 C   0  0  0  0  0  0  0  0  0  0  0  0
   57.6218   29.6327   48.1060 H   0  0  0  0  0  0  0  0  0  0  0  0
   59.6500   30.3940   48.0960 C   0  0  0  0  0  0  0  0  0  0  0  0
   59.5722   30.8149   49.1093 H   0  0  0  0  0  0  0  0  0  0  0  0
   60.8520   30.5190   47.3780 C   0  0  0  0  0  0  0  0  0  0  0  0
   61.9780   31.2090   47.9560 N   0  0  0  0  0  0  0  0  0  0  0  0
   62.9280   31.9490   47.1210 C   0  0  0  0  0  0  0  0  0  0  0  0
   62.5797   31.9369   46.0777 H   0  0  0  0  0  0  0  0  0  0  0  0
   63.9160   31.4711   47.1948 H   0  0  0  0  0  0  0  0  0  0  0  0
   63.0410   33.4090   47.6020 C   0  0  0  0  0  0  0  0  0  0  0  0
   62.3042   34.0129   47.0521 H   0  0  0  0  0  0  0  0  0  0  0  0
   64.0759   33.7291   47.4111 H   0  0  0  0  0  0  0  0  0  0  0  0
   62.7960   33.5840   49.0610 N   0  0  0  0  0  0  0  0  0  0  0  0
   61.4420   34.1120   49.3480 C   0  0  0  0  0  0  0  0  0  0  0  0
   60.7172   33.6399   48.6684 H   0  0  0  0  0  0  0  0  0  0  0  0
   61.4448   35.2019   49.1992 H   0  0  0  0  0  0  0  0  0  0  0  0
   61.0490   33.8100   50.7910 C   0  0  0  0  0  0  0  0  0  0  0  0
   61.7323   34.3351   51.4747 H   0  0  0  0  0  0  0  0  0  0  0  0
   60.0184   34.1508   50.9693 H   0  0  0  0  0  0  0  0  0  0  0  0
   61.1129   32.7264   50.9693 H   0  0  0  0  0  0  0  0  0  0  0  0
   63.0900   32.3610   49.8370 C   0  0  0  0  0  0  0  0  0  0  0  0
   62.9249   32.5666   50.9049 H   0  0  0  0  0  0  0  0  0  0  0  0
   64.1362   32.0765   49.6511 H   0  0  0  0  0  0  0  0  0  0  0  0
   62.1870   31.1920   49.4070 C   0  0  0  0  0  0  0  0  0  0  0  0
   61.2146   31.2809   49.9135 H   0  0  0  0  0  0  0  0  0  0  0  0
   62.6750   30.2460   49.6843 H   0  0  0  0  0  0  0  0  0  0  0  0
   60.9310   29.9880   46.0800 C   0  0  0  0  0  0  0  0  0  0  0  0
   61.8632   30.0882   45.5048 H   0  0  0  0  0  0  0  0  0  0  0  0
   59.8330   29.3330   45.5140 C   0  0  0  0  0  0  0  0  0  0  0  0
   59.9104   28.9097   44.5017 H   0  0  0  0  0  0  0  0  0  0  0  0
   58.2780   33.2410   44.9310 C   0  0  0  0  0  0  0  0  0  0  0  0
   57.8050   32.8560   46.1980 C   0  0  0  0  0  0  0  0  0  0  0  0
   57.0784   32.0345   46.2822 H   0  0  0  0  0  0  0  0  0  0  0  0
   58.2500   33.5080   47.3510 C   0  0  0  0  0  0  0  0  0  0  0  0
   57.8784   33.1938   48.3375 H   0  0  0  0  0  0  0  0  0  0  0  0
   59.1650   34.5570   47.2530 C   0  0  0  0  0  0  0  0  0  0  0  0
   59.5183   35.0655   48.1622 H   0  0  0  0  0  0  0  0  0  0  0  0
   59.6320   34.9610   46.0010 C   0  0  0  0  0  0  0  0  0  0  0  0
   60.3483   35.7924   45.9251 H   0  0  0  0  0  0  0  0  0  0  0  0
   59.1920   34.3120   44.8430 C   0  0  0  0  0  0  0  0  0  0  0  0
   59.5603   34.6381   43.8591 H   0  0  0  0  0  0  0  0  0  0  0  0
  1  2  1  0
  2  3  2  0
  3  4  1  0
  3  5  1  0
  5  6  2  0
  5  7  2  0
  5  8  1  0
  8  9  1  0
  8 10  1  0
 10 11  1  0
 10 12  1  0
 10 13  1  0
 13 14  2  0
 14 15  1  0
 14 16  1  0
 16 17  1  0
 16 18  2  0
 18 19  1  0
 19 20  1  0
 20 21  1  0
 20 22  1  0
 20 23  1  0
 23 24  1  0
 23 25  1  0
 23 26  1  0
 26 27  1  0
 27 28  1  0
 27 29  1  0
 27 30  1  0
 30 31  1  0
 30 32  1  0
 30 33  1  0
 26 34  1  0
 34 35  1  0
 34 36  1  0
 34 37  1  0
 37 38  1  0
 37 39  1  0
 18 40  1  0
 40 41  1  0
 40 42  2  0
 42 43  1  0
  2 44  1  0
 44 45  2  0
 45 46  1  0
 45 47  1  0
 47 48  1  0
 47 49  2  0
 49 50  1  0
 49 51  1  0
 51 52  1  0
 51 53  2  0
 53 54  1  0
 42 13  1  0
 53 44  1  0
 37 19  1  0
M  END
>  <UniqueID>  (27) 
24

>  <SMILES>  (27) 
CCN1CCN(c2ccc(CNS(=O)(=O)/C=C/c3ccccc3)cc2)CC1

>  <Energy>  (27) 
63.014788100007955

>  <Genealogy>  (27) 
CCN1CCN(c2ccc(CNS(=O)(=O)/C=C/c3ccccc3)cc2)CC1 (cis-trans isomerization)
CCN1CCN(c2ccc(CNS(=O)(=O)/C=C/c3ccccc3)cc2)CC1 (3D coordinates assigned)
CCN1CCN(c2ccc(CNS(=O)(=O)/C=C/c3ccccc3)cc2)CC1 (nonaromatic ring conformer: 63.014788100007955 kcal/mol)

>  <smiles>  (27) 
CCN1CCN(c2ccc(CNS(=O)(=O)C=Cc3ccccc3)cc2)CC1

>  <score_type>  (27) 
oracle

>  <origin>  (27) 
adg

>  <m_score__min__energy>  (27) 
-9.1099999999999994

>  <m_primary>  (27) 
energy

$$$$
27:0
     RDKit          3D

 36 38  0  0  0  0  0  0  0  0999 V2000
   59.3840   24.1750   46.3360 H   0  0  0  0  0  0  0  0  0  0  0  0
   59.3660   25.1240   45.8990 N   0  0  0  0  0  0  0  0  0  0  0  0
   58.2940   25.8530   45.8310 C   0  0  0  0  0  0  0  0  0  0  0  0
   57.0500   25.4040   46.3620 C   0  0  0  0  0  0  0  0  0  0  0  0
   56.8980   24.0880   47.0390 C   0  0  0  0  0  0  0  0  0  0  0  0
   55.9770   23.8970   47.8780 O   0  0  0  0  0  0  0  0  0  0  0  0
   57.7880   23.0490   46.7400 O   0  0  0  0  0  0  0  0  0  0  0  0
   57.7210   22.3040   45.5300 C   0  0  0  0  0  0  0  0  0  0  0  0
   57.6247   21.2334   45.7634 H   0  0  0  0  0  0  0  0  0  0  0  0
   56.8487   22.6317   44.9454 H   0  0  0  0  0  0  0  0  0  0  0  0
   58.6378   22.4708   44.9454 H   0  0  0  0  0  0  0  0  0  0  0  0
   55.9100   26.2460   46.2320 C   0  0  0  0  0  0  0  0  0  0  0  0
   54.9420   25.9091   46.6314 H   0  0  0  0  0  0  0  0  0  0  0  0
   55.9950   27.4640   45.6210 N   0  0  0  0  0  0  0  0  0  0  0  0
   57.1920   27.8840   45.1460 C   0  0  0  0  0  0  0  0  0  0  0  0
   58.3150   27.1130   45.2220 C   0  0  0  0  0  0  0  0  0  0  0  0
   59.2960   27.8330   44.5640 C   0  0  0  0  0  0  0  0  0  0  0  0
   60.3433   27.5262   44.4262 H   0  0  0  0  0  0  0  0  0  0  0  0
   58.7360   28.9830   44.1200 N   0  0  0  0  0  0  0  0  0  0  0  0
   59.2260   29.7260   43.5730 H   0  0  0  0  0  0  0  0  0  0  0  0
   57.4570   29.0260   44.4800 N   0  0  0  0  0  0  0  0  0  0  0  0
   56.5720   30.1000   44.1180 C   0  0  0  0  0  0  0  0  0  0  0  0
   55.4899   29.9052   44.0840 H   0  0  0  0  0  0  0  0  0  0  0  0
   57.0160   31.3310   43.8200 C   0  0  0  0  0  0  0  0  0  0  0  0
   56.8858   31.6930   42.7895 H   0  0  0  0  0  0  0  0  0  0  0  0
   57.6720   32.2320   44.7990 C   0  0  0  0  0  0  0  0  0  0  0  0
   57.8190   33.5900   44.4650 C   0  0  0  0  0  0  0  0  0  0  0  0
   57.4554   33.9546   43.4929 H   0  0  0  0  0  0  0  0  0  0  0  0
   58.4230   34.4810   45.3570 C   0  0  0  0  0  0  0  0  0  0  0  0
   58.5401   35.5394   45.0813 H   0  0  0  0  0  0  0  0  0  0  0  0
   58.8780   34.0290   46.5980 C   0  0  0  0  0  0  0  0  0  0  0  0
   59.3572   34.7300   47.2972 H   0  0  0  0  0  0  0  0  0  0  0  0
   58.7240   32.6870   46.9500 C   0  0  0  0  0  0  0  0  0  0  0  0
   59.0773   32.3332   47.9298 H   0  0  0  0  0  0  0  0  0  0  0  0
   58.1220   31.7910   46.0610 C   0  0  0  0  0  0  0  0  0  0  0  0
   57.9987   30.7362   46.3475 H   0  0  0  0  0  0  0  0  0  0  0  0
  1  2  1  0
  2  3  2  0
  3  4  1  0
  4  5  1  0
  5  6  2  0
  5  7  1  0
  7  8  1  0
  8  9  1  0
  8 10  1  0
  8 11  1  0
  4 12  2  0
 12 13  1  0
 12 14  1  0
 14 15  1  0
 15 16  2  0
 16 17  1  0
 17 18  1  0
 17 19  2  0
 19 20  1  0
 19 21  1  0
 21 22  1  0
 22 23  1  0
 22 24  2  0
 24 25  1  0
 24 26  1  0
 26 27  2  0
 27 28  1  0
 27 29  1  0
 29 30  1  0
 29 31  2  0
 31 32  1  0
 31 33  1  0
 33 34  1  0
 33 35  2  0
 35 36  1  0
 16  3  1  0
 35 26  1  0
 21 15  1  0
M  CHG  2  14  -1  19   1
M  END
>  <UniqueID>  (28) 
25

>  <SMILES>  (28) 
[H]/N=c1/c(C(=O)OC)c[n-]c2c1c[nH+]n2/C=C/c1ccccc1

>  <Energy>  (28) 
86.91951456112498

>  <Genealogy>  (28) 
COC(=O)c1c[n-]c2c(c[nH+]n2C=Cc2ccccc2)c1=N (protonated)
[H]/N=c1/c(C(=O)OC)c[n-]c2c1c[nH+]n2/C=C/c1ccccc1 (cis-trans isomerization)
[H]/N=c1/c(C(=O)OC)c[n-]c2c1c[nH+]n2/C=C/c1ccccc1 (3D coordinates assigned)
[H]/N=c1/c(C(=O)OC)c[n-]c2c1c[nH+]n2/C=C/c1ccccc1 (optimized conformer: 86.91951456112498 kcal/mol)

>  <smiles>  (28) 
COC(=O)c1c[nH]c2c(cnn2C=Cc2ccccc2)c1=N

>  <score_type>  (28) 
oracle

>  <origin>  (28) 
adg

>  <m_score__min__energy>  (28) 
-6.8300000000000001

>  <m_primary>  (28) 
energy

$$$$
28:0
     RDKit          3D

 43 45  0  0  0  0  0  0  0  0999 V2000
   54.3141   30.3865   43.8557 H   0  0  0  0  0  0  0  0  0  0  0  0
   55.3050   30.1560   44.2740 C   0  0  0  0  0  0  0  0  0  0  0  0
   55.5260   28.9600   44.8660 N   0  0  0  0  0  0  0  0  0  0  0  0
   56.7440   28.6130   45.3520 C   0  0  0  0  0  0  0  0  0  0  0  0
   56.9000   27.3540   45.9410 C   0  0  0  0  0  0  0  0  0  0  0  0
   56.0286   26.6931   46.0590 H   0  0  0  0  0  0  0  0  0  0  0  0
   58.1540   26.9330   46.3790 C   0  0  0  0  0  0  0  0  0  0  0  0
   58.3420   25.3520   47.1150 Cl  0  0  0  0  0  0  0  0  0  0  0  0
   59.2650   27.7510   46.1860 C   0  0  0  0  0  0  0  0  0  0  0  0
   60.2611   27.4012   46.4950 H   0  0  0  0  0  0  0  0  0  0  0  0
   59.1230   29.0120   45.6030 C   0  0  0  0  0  0  0  0  0  0  0  0
   60.0155   29.6281   45.4188 H   0  0  0  0  0  0  0  0  0  0  0  0
   57.8470   29.5080   45.2460 C   0  0  0  0  0  0  0  0  0  0  0  0
   57.5950   30.8210   44.7260 C   0  0  0  0  0  0  0  0  0  0  0  0
   58.4070   31.8430   44.7990 N   0  0  0  0  0  0  0  0  0  0  0  0
   58.4520   33.1090   44.0730 C   0  0  0  0  0  0  0  0  0  0  0  0
   57.7446   33.0717   43.2314 H   0  0  0  0  0  0  0  0  0  0  0  0
   59.4722   33.2729   43.6958 H   0  0  0  0  0  0  0  0  0  0  0  0
   58.0690   34.2640   45.0080 C   0  0  0  0  0  0  0  0  0  0  0  0
   56.9790   34.4043   44.9603 H   0  0  0  0  0  0  0  0  0  0  0  0
   58.6183   35.1538   44.6665 H   0  0  0  0  0  0  0  0  0  0  0  0
   58.4490   34.0310   46.4130 N   0  0  0  0  0  0  0  0  0  0  0  0
   58.6860   33.0260   46.5800 H   0  0  0  0  0  0  0  0  0  0  0  0
   59.4910   34.9420   46.9230 C   0  0  0  0  0  0  0  0  0  0  0  0
   59.0664   35.5338   47.7473 H   0  0  0  0  0  0  0  0  0  0  0  0
   59.8119   35.5774   46.0844 H   0  0  0  0  0  0  0  0  0  0  0  0
   60.7170   34.2120   47.4340 C   0  0  0  0  0  0  0  0  0  0  0  0
   61.7420   33.8320   46.5510 C   0  0  0  0  0  0  0  0  0  0  0  0
   61.6543   34.0645   45.4794 H   0  0  0  0  0  0  0  0  0  0  0  0
   62.8730   33.1600   47.0260 C   0  0  0  0  0  0  0  0  0  0  0  0
   63.6770   32.8811   46.3291 H   0  0  0  0  0  0  0  0  0  0  0  0
   62.9870   32.8390   48.3920 C   0  0  0  0  0  0  0  0  0  0  0  0
   64.1020   32.1710   48.9200 O   0  0  0  0  0  0  0  0  0  0  0  0
   65.0480   32.7620   49.8040 C   0  0  0  0  0  0  0  0  0  0  0  0
   64.7454   32.5730   50.8445 H   0  0  0  0  0  0  0  0  0  0  0  0
   66.0407   32.3232   49.6253 H   0  0  0  0  0  0  0  0  0  0  0  0
   65.0890   33.8466   49.6253 H   0  0  0  0  0  0  0  0  0  0  0  0
   61.9540   33.1980   49.2650 C   0  0  0  0  0  0  0  0  0  0  0  0
   62.0330   32.9506   50.3339 H   0  0  0  0  0  0  0  0  0  0  0  0
   60.8230   33.8680   48.7910 C   0  0  0  0  0  0  0  0  0  0  0  0
   60.0105   34.1276   49.4856 H   0  0  0  0  0  0  0  0  0  0  0  0
   56.3280   31.0950   44.1930 C   0  0  0  0  0  0  0  0  0  0  0  0
   56.1406   32.0630   43.7054 H   0  0  0  0  0  0  0  0  0  0  0  0
  1  2  1  0
  2  3  1  0
  3  4  1  0
  4  5  2  0
  5  6  1  0
  5  7  1  0
  7  8  1  0
  7  9  2  0
  9 10  1  0
  9 11  1  0
 11 12  1  0
 11 13  2  0
 13 14  1  0
 14 15  2  0
 15 16  1  0
 16 17  1  0
 16 18  1  0
 16 19  1  0
 19 20  1  0
 19 21  1  0
 19 22  1  0
 22 23  1  0
 22 24  1  0
 24 25  1  0
 24 26  1  0
 24 27  1  0
 27 28  2  0
 28 29  1  0
 28 30  1  0
 30 31  1  0
 30 32  2  0
 32 33  1  0
 33 34  1  0
 34 35  1  0
 34 36  1  0
 34 37  1  0
 32 38  1  0
 38 39  1  0
 38 40  2  0
 40 41  1  0
 14 42  1  0
 42 43  1  0
 42  2  2  0
 13  4  1  0
 40 27  1  0
M  CHG  1   3  -1
M  END
>  <UniqueID>  (29) 
26

>  <SMILES>  (29) 
COc1ccc(CNCC/N=c2/cc[n-]c3cc(Cl)ccc23)cc1

>  <Energy>  (29) 
57.99581555878609

>  <Genealogy>  (29) 
COc1ccc(CNCCN=c2cc[n-]c3cc(Cl)ccc23)cc1 (protonated)
COc1ccc(CNCC/N=c2/cc[n-]c3cc(Cl)ccc23)cc1 (cis-trans isomerization)
COc1ccc(CNCC/N=c2/cc[n-]c3cc(Cl)ccc23)cc1 (3D coordinates assigned)
COc1ccc(CNCC/N=c2/cc[n-]c3cc(Cl)ccc23)cc1 (optimized conformer: 57.99581555878609 kcal/mol)

>  <smiles>  (29) 
COc1ccc(CNCCN=c2cc[nH]c3cc(Cl)ccc23)cc1

>  <score_type>  (29) 
oracle

>  <origin>  (29) 
adg

>  <m_score__min__energy>  (29) 
-9.3599999999999994

>  <m_primary>  (29) 
energy

$$$$
29:0
     RDKit          3D

 33 35  0  0  0  0  0  0  0  0999 V2000
   58.8660   34.6980   45.4620 C   0  0  0  0  0  0  0  0  0  0  0  0
   58.5670   33.2440   45.2400 C   0  0  0  0  0  0  0  0  0  0  0  0
   59.1390   32.2710   46.0720 C   0  0  0  0  0  0  0  0  0  0  0  0
   58.8930   30.9130   45.8470 C   0  0  0  0  0  0  0  0  0  0  0  0
   58.0740   30.5110   44.7780 C   0  0  0  0  0  0  0  0  0  0  0  0
   57.7930   29.1600   44.5030 C   0  0  0  0  0  0  0  0  0  0  0  0
   58.3130   28.1110   45.3330 N   0  0  0  0  0  0  0  0  0  0  0  0
   59.7260   27.7450   45.2250 C   0  0  0  0  0  0  0  0  0  0  0  0
   60.3740   27.7120   46.6100 C   0  0  0  0  0  0  0  0  0  0  0  0
   59.4610   26.7230   47.8640 S   0  0  0  0  0  0  0  0  0  0  0  0
   58.0680   26.1470   46.8330 C   0  0  0  0  0  0  0  0  0  0  0  0
   57.3760   27.3200   46.1380 C   0  0  0  0  0  0  0  0  0  0  0  0
   57.0170   28.8380   43.4310 N   0  0  0  0  0  0  0  0  0  0  0  0
   56.4990   29.8000   42.6240 C   0  0  0  0  0  0  0  0  0  0  0  0
   56.7480   31.1100   42.8730 N   0  0  0  0  0  0  0  0  0  0  0  0
   57.5200   31.4890   43.9250 C   0  0  0  0  0  0  0  0  0  0  0  0
   57.7700   32.8460   44.1550 C   0  0  0  0  0  0  0  0  0  0  0  0
   58.9081   34.9029   46.5419 H   0  0  0  0  0  0  0  0  0  0  0  0
   59.8342   34.9474   45.0034 H   0  0  0  0  0  0  0  0  0  0  0  0
   58.0748   35.3092   45.0034 H   0  0  0  0  0  0  0  0  0  0  0  0
   59.7856   32.5780   46.9073 H   0  0  0  0  0  0  0  0  0  0  0  0
   59.3417   30.1573   46.5085 H   0  0  0  0  0  0  0  0  0  0  0  0
   59.8088   26.7506   44.7620 H   0  0  0  0  0  0  0  0  0  0  0  0
   60.2428   28.4934   44.6063 H   0  0  0  0  0  0  0  0  0  0  0  0
   61.3827   27.2858   46.5060 H   0  0  0  0  0  0  0  0  0  0  0  0
   60.3774   28.7494   46.9757 H   0  0  0  0  0  0  0  0  0  0  0  0
   58.4488   25.4516   46.0705 H   0  0  0  0  0  0  0  0  0  0  0  0
   57.3363   25.6450   47.4831 H   0  0  0  0  0  0  0  0  0  0  0  0
   56.5862   26.9276   45.4806 H   0  0  0  0  0  0  0  0  0  0  0  0
   56.9568   27.9764   46.9148 H   0  0  0  0  0  0  0  0  0  0  0  0
   56.8110   27.8360   43.2240 H   0  0  0  0  0  0  0  0  0  0  0  0
   55.8745   29.5154   41.7643 H   0  0  0  0  0  0  0  0  0  0  0  0
   57.3406   33.6039   43.4833 H   0  0  0  0  0  0  0  0  0  0  0  0
  1  2  1  0
  2  3  2  0
  3  4  1  0
  4  5  2  0
  5  6  1  0
  6  7  1  0
  7  8  1  0
  8  9  1  0
  9 10  1  0
 10 11  1  0
 11 12  1  0
  6 13  2  0
 13 14  1  0
 14 15  2  0
 15 16  1  0
 16 17  2  0
 17  2  1  0
 16  5  1  0
 12  7  1  0
  1 18  1  0
  1 19  1  0
  1 20  1  0
  3 21  1  0
  4 22  1  0
  8 23  1  0
  8 24  1  0
  9 25  1  0
  9 26  1  0
 11 27  1  0
 11 28  1  0
 12 29  1  0
 12 30  1  0
 13 31  1  0
 14 32  1  0
 17 33  1  0
M  CHG  1  13   1
M  END
>  <UniqueID>  (30) 
27

>  <SMILES>  (30) 
Cc1ccc2c(N3CCSCC3)[nH+]cnc2c1

>  <Energy>  (30) 
42.72381816571113

>  <Genealogy>  (30) 
Cc1ccc2c(N3CCSCC3)[nH+]cnc2c1 (protonated)
Cc1ccc2c(N3CCSCC3)[nH+]cnc2c1 (3D coordinates assigned)
Cc1ccc2c(N3CCSCC3)[nH+]cnc2c1 (nonaromatic ring conformer: 42.72381816571113 kcal/mol)

>  <smiles>  (30) 
Cc1ccc2c(N3CCSCC3)ncnc2c1

>  <score_type>  (30) 
oracle

>  <origin>  (30) 
adg

>  <m_score__min__energy>  (30) 
-5.0700000000000003

>  <m_primary>  (30) 
energy

$$$$
30:0
     RDKit          3D

 20 20  0  0  0  0  0  0  0  0999 V2000
   56.9640   28.1540   45.2320 C   0  0  0  0  0  0  0  0  0  0  0  0
   56.4560   29.5200   45.3030 N   0  0  0  0  0  0  0  0  0  0  0  0
   56.9400   30.5930   44.4750 C   0  0  0  0  0  0  0  0  0  0  0  0
   56.9000   30.5200   43.0700 C   0  0  0  0  0  0  0  0  0  0  0  0
   57.3860   31.5760   42.2940 C   0  0  0  0  0  0  0  0  0  0  0  0
   57.9110   32.7160   42.9070 C   0  0  0  0  0  0  0  0  0  0  0  0
   57.9400   32.8140   44.3050 C   0  0  0  0  0  0  0  0  0  0  0  0
   58.5390   34.0210   44.9650 C   0  0  0  0  0  0  0  0  0  0  0  0
   57.4680   31.7450   45.0840 C   0  0  0  0  0  0  0  0  0  0  0  0
   57.1092   27.7634   46.2500 H   0  0  0  0  0  0  0  0  0  0  0  0
   56.2410   27.5213   44.6962 H   0  0  0  0  0  0  0  0  0  0  0  0
   57.9247   28.1474   44.6962 H   0  0  0  0  0  0  0  0  0  0  0  0
   55.6990   29.7170   45.9970 H   0  0  0  0  0  0  0  0  0  0  0  0
   56.4841   29.6272   42.5801 H   0  0  0  0  0  0  0  0  0  0  0  0
   57.3549   31.5091   41.1965 H   0  0  0  0  0  0  0  0  0  0  0  0
   58.3027   33.5390   42.2911 H   0  0  0  0  0  0  0  0  0  0  0  0
   58.4826   33.9073   46.0577 H   0  0  0  0  0  0  0  0  0  0  0  0
   59.5913   34.1210   44.6606 H   0  0  0  0  0  0  0  0  0  0  0  0
   57.9823   34.9195   44.6606 H   0  0  0  0  0  0  0  0  0  0  0  0
   57.5118   31.8096   46.1812 H   0  0  0  0  0  0  0  0  0  0  0  0
  1  2  1  0
  2  3  1  0
  3  4  2  0
  4  5  1  0
  5  6  2  0
  6  7  1  0
  7  8  1  0
  7  9  2  0
  9  3  1  0
  1 10  1  0
  1 11  1  0
  1 12  1  0
  2 13  1  0
  4 14  1  0
  5 15  1  0
  6 16  1  0
  8 17  1  0
  8 18  1  0
  8 19  1  0
  9 20  1  0
M  END
>  <UniqueID>  (31) 
28

>  <SMILES>  (31) 
CNc1cccc(C)c1

>  <Energy>  (31) 
15.896830883658934

>  <Genealogy>  (31) 
CNc1cccc(C)c1 (3D coordinates assigned)
CNc1cccc(C)c1 (optimized conformer: 15.896830883658934 kcal/mol)

>  <smiles>  (31) 
CNc1cccc(C)c1

>  <score_type>  (31) 
oracle

>  <origin>  (31) 
adg

>  <m_score__min__energy>  (31) 
-4.5199999999999996

>  <m_primary>  (31) 
energy

$$$$
31:0
     RDKit          3D

 28 30  0  0  0  0  0  0  0  0999 V2000
   66.3140   31.6630   51.6270 C   0  0  0  0  0  0  0  0  0  0  0  0
   66.6410   32.7120   50.7660 C   0  0  0  0  0  0  0  0  0  0  0  0
   65.7590   33.0850   49.7480 C   0  0  0  0  0  0  0  0  0  0  0  0
   64.5320   32.4110   49.5750 C   0  0  0  0  0  0  0  0  0  0  0  0
   63.5930   32.8090   48.4890 C   0  0  0  0  0  0  0  0  0  0  0  0
   62.2170   32.9570   48.5940 C   0  0  0  0  0  0  0  0  0  0  0  0
   61.8120   33.3320   47.3230 C   0  0  0  0  0  0  0  0  0  0  0  0
   60.4360   33.6250   46.8630 C   0  0  0  0  0  0  0  0  0  0  0  0
   60.1840   34.2380   45.6230 C   0  0  0  0  0  0  0  0  0  0  0  0
   58.8720   34.4990   45.2250 C   0  0  0  0  0  0  0  0  0  0  0  0
   57.8170   34.1470   46.0680 C   0  0  0  0  0  0  0  0  0  0  0  0
   58.0720   33.5560   47.2640 N   0  0  0  0  0  0  0  0  0  0  0  0
   59.3400   33.2900   47.6760 C   0  0  0  0  0  0  0  0  0  0  0  0
   62.8720   33.3950   46.5510 O   0  0  0  0  0  0  0  0  0  0  0  0
   63.9450   33.0880   47.2160 N   0  0  0  0  0  0  0  0  0  0  0  0
   64.2180   31.3540   50.4530 C   0  0  0  0  0  0  0  0  0  0  0  0
   65.1040   30.9850   51.4710 C   0  0  0  0  0  0  0  0  0  0  0  0
   67.0094   31.3710   52.4277 H   0  0  0  0  0  0  0  0  0  0  0  0
   67.5947   33.2461   50.8890 H   0  0  0  0  0  0  0  0  0  0  0  0
   66.0245   33.9131   49.0744 H   0  0  0  0  0  0  0  0  0  0  0  0
   61.5894   32.8098   49.4853 H   0  0  0  0  0  0  0  0  0  0  0  0
   61.0222   34.5123   44.9656 H   0  0  0  0  0  0  0  0  0  0  0  0
   58.6713   34.9780   44.2553 H   0  0  0  0  0  0  0  0  0  0  0  0
   56.7792   34.3481   45.7639 H   0  0  0  0  0  0  0  0  0  0  0  0
   59.5089   32.8099   48.6512 H   0  0  0  0  0  0  0  0  0  0  0  0
   64.8990   33.0740   46.7970 H   0  0  0  0  0  0  0  0  0  0  0  0
   63.2669   30.8138   50.3367 H   0  0  0  0  0  0  0  0  0  0  0  0
   64.8464   30.1587   52.1499 H   0  0  0  0  0  0  0  0  0  0  0  0
  1  2  2  0
  2  3  1  0
  3  4  2  0
  4  5  1  0
  5  6  1  0
  6  7  2  0
  7  8  1  0
  8  9  2  0
  9 10  1  0
 10 11  2  0
 11 12  1  0
 12 13  2  0
  7 14  1  0
 14 15  1  0
  4 16  1  0
 16 17  2  0
 17  1  1  0
 15  5  2  0
 13  8  1  0
  1 18  1  0
  2 19  1  0
  3 20  1  0
  6 21  1  0
  9 22  1  0
 10 23  1  0
 11 24  1  0
 13 25  1  0
 15 26  1  0
 16 27  1  0
 17 28  1  0
M  CHG  1  15   1
M  END
>  <UniqueID>  (32) 
29

>  <SMILES>  (32) 
c1ccc(-c2cc(-c3cccnc3)o[nH+]2)cc1

>  <Energy>  (32) 
66.02584972356132

>  <Genealogy>  (32) 
c1ccc(-c2cc(-c3cccnc3)o[nH+]2)cc1 (protonated)
c1ccc(-c2cc(-c3cccnc3)o[nH+]2)cc1 (3D coordinates assigned)
c1ccc(-c2cc(-c3cccnc3)o[nH+]2)cc1 (optimized conformer: 66.02584972356132 kcal/mol)

>  <smiles>  (32) 
c1ccc(-c2cc(-c3cccnc3)on2)cc1

>  <score_type>  (32) 
oracle

>  <origin>  (32) 
adg

>  <m_score__min__energy>  (32) 
-5.2400000000000002

>  <m_primary>  (32) 
energy

$$$$
32:0
     RDKit          3D

 50 54  0  0  0  0  0  0  0  0999 V2000
   64.7313   32.5123   48.0196 H   0  0  0  0  0  0  0  0  0  0  0  0
   63.7410   32.9890   47.9740 C   0  0  0  0  0  0  0  0  0  0  0  0
   63.1920   33.3430   46.7380 C   0  0  0  0  0  0  0  0  0  0  0  0
   63.7510   33.1457   45.8114 H   0  0  0  0  0  0  0  0  0  0  0  0
   61.9320   33.9480   46.6790 C   0  0  0  0  0  0  0  0  0  0  0  0
   61.5020   34.2283   45.7061 H   0  0  0  0  0  0  0  0  0  0  0  0
   61.2180   34.1970   47.8570 C   0  0  0  0  0  0  0  0  0  0  0  0
   59.6000   34.9650   47.7820 S   0  0  0  0  0  0  0  0  0  0  0  0
   58.9510   33.7040   46.6850 C   0  0  0  0  0  0  0  0  0  0  0  0
   58.1820   34.0710   45.5730 C   0  0  0  0  0  0  0  0  0  0  0  0
   57.9843   35.1344   45.3726 H   0  0  0  0  0  0  0  0  0  0  0  0
   57.6640   33.0950   44.7160 C   0  0  0  0  0  0  0  0  0  0  0  0
   57.0601   33.3892   43.8449 H   0  0  0  0  0  0  0  0  0  0  0  0
   57.9180   31.7370   44.9720 C   0  0  0  0  0  0  0  0  0  0  0  0
   58.6980   31.3670   46.0950 C   0  0  0  0  0  0  0  0  0  0  0  0
   58.9410   30.0450   46.3430 N   0  0  0  0  0  0  0  0  0  0  0  0
   58.4610   29.0560   45.5310 C   0  0  0  0  0  0  0  0  0  0  0  0
   58.6730   27.7970   45.7860 N   0  0  0  0  0  0  0  0  0  0  0  0
   57.7960   26.6980   45.4860 C   0  0  0  0  0  0  0  0  0  0  0  0
   58.0980   25.8780   44.3920 C   0  0  0  0  0  0  0  0  0  0  0  0
   58.9793   26.0988   43.7719 H   0  0  0  0  0  0  0  0  0  0  0  0
   57.2890   24.7810   44.0810 C   0  0  0  0  0  0  0  0  0  0  0  0
   57.5254   24.1566   43.2068 H   0  0  0  0  0  0  0  0  0  0  0  0
   56.1730   24.4720   44.8820 C   0  0  0  0  0  0  0  0  0  0  0  0
   55.3220   23.3850   44.6190 O   0  0  0  0  0  0  0  0  0  0  0  0
   55.6110   22.0160   44.9060 C   0  0  0  0  0  0  0  0  0  0  0  0
   54.6872   21.4257   44.8162 H   0  0  0  0  0  0  0  0  0  0  0  0
   56.0113   21.9466   45.9282 H   0  0  0  0  0  0  0  0  0  0  0  0
   56.6510   21.4680   43.9350 C   0  0  0  0  0  0  0  0  0  0  0  0
   57.4854   21.0283   44.5011 H   0  0  0  0  0  0  0  0  0  0  0  0
   56.1903   20.6956   43.3017 H   0  0  0  0  0  0  0  0  0  0  0  0
   57.0276   22.2847   43.3017 H   0  0  0  0  0  0  0  0  0  0  0  0
   55.8880   25.2760   45.9910 C   0  0  0  0  0  0  0  0  0  0  0  0
   55.0201   25.0421   46.6250 H   0  0  0  0  0  0  0  0  0  0  0  0
   56.6970   26.3750   46.3010 C   0  0  0  0  0  0  0  0  0  0  0  0
   56.4721   26.9885   47.1859 H   0  0  0  0  0  0  0  0  0  0  0  0
   57.6860   29.4370   44.4340 C   0  0  0  0  0  0  0  0  0  0  0  0
   57.0700   28.6660   43.4700 C   0  0  0  0  0  0  0  0  0  0  0  0
   57.0889   27.5680   43.4071 H   0  0  0  0  0  0  0  0  0  0  0  0
   56.4400   29.5020   42.6180 N   0  0  0  0  0  0  0  0  0  0  0  0
   55.8790   29.2350   41.7780 H   0  0  0  0  0  0  0  0  0  0  0  0
   56.6770   30.7540   43.0690 C   0  0  0  0  0  0  0  0  0  0  0  0
   56.2981   31.6694   42.5910 H   0  0  0  0  0  0  0  0  0  0  0  0
   57.4390   30.7340   44.1820 N   0  0  0  0  0  0  0  0  0  0  0  0
   59.2110   32.3530   46.9430 C   0  0  0  0  0  0  0  0  0  0  0  0
   59.8194   32.0669   47.8136 H   0  0  0  0  0  0  0  0  0  0  0  0
   61.7710   33.8450   49.0960 C   0  0  0  0  0  0  0  0  0  0  0  0
   61.2139   34.0439   50.0234 H   0  0  0  0  0  0  0  0  0  0  0  0
   63.0310   33.2410   49.1530 C   0  0  0  0  0  0  0  0  0  0  0  0
   63.4642   32.9638   50.1254 H   0  0  0  0  0  0  0  0  0  0  0  0
  1  2  1  0
  2  3  2  0
  3  4  1  0
  3  5  1  0
  5  6  1  0
  5  7  2  0
  7  8  1  0
  8  9  1  0
  9 10  2  0
 10 11  1  0
 10 12  1  0
 12 13  1  0
 12 14  2  0
 14 15  1  0
 15 16  1  0
 16 17  1  0
 17 18  2  0
 18 19  1  0
 19 20  2  0
 20 21  1  0
 20 22  1  0
 22 23  1  0
 22 24  2  0
 24 25  1  0
 25 26  1  0
 26 27  1  0
 26 28  1  0
 26 29  1  0
 29 30  1  0
 29 31  1  0
 29 32  1  0
 24 33  1  0
 33 34  1  0
 33 35  2  0
 35 36  1  0
 17 37  1  0
 37 38  2  0
 38 39  1  0
 38 40  1  0
 40 41  1  0
 40 42  2  0
 42 43  1  0
 42 44  1  0
 15 45  2  0
 45 46  1  0
  7 47  1  0
 47 48  1  0
 47 49  2  0
 49 50  1  0
 49  2  1  0
 45  9  1  0
 44 14  1  0
 35 19  1  0
 44 37  1  0
M  CHG  2  16  -1  40   1
M  END
>  <UniqueID>  (33) 
30

>  <SMILES>  (33) 
CCOc1ccc(/N=c2\[n-]c3cc(Sc4ccccc4)ccc3n3c[nH+]cc23)cc1

>  <Energy>  (33) 
97.64785673609126

>  <Genealogy>  (33) 
CCOc1ccc(N=c2[n-]c3cc(Sc4ccccc4)ccc3n3c[nH+]cc23)cc1 (protonated)
CCOc1ccc(/N=c2\[n-]c3cc(Sc4ccccc4)ccc3n3c[nH+]cc23)cc1 (cis-trans isomerization)
CCOc1ccc(/N=c2\[n-]c3cc(Sc4ccccc4)ccc3n3c[nH+]cc23)cc1 (3D coordinates assigned)
CCOc1ccc(/N=c2\[n-]c3cc(Sc4ccccc4)ccc3n3c[nH+]cc23)cc1 (optimized conformer: 97.64785673609126 kcal/mol)

>  <smiles>  (33) 
CCOc1ccc(N=c2[nH]c3cc(Sc4ccccc4)ccc3n3cncc23)cc1

>  <score_type>  (33) 
oracle

>  <origin>  (33) 
adg

>  <m_score__min__energy>  (33) 
-9.3699999999999992

>  <m_primary>  (33) 
energy

$$$$
33:0
     RDKit          3D

 36 38  0  0  0  0  0  0  0  0999 V2000
   60.4060   27.8070   48.8160 C   0  0  0  0  0  0  0  0  0  0  0  0
   60.5040   29.0830   47.9840 C   0  0  0  0  0  0  0  0  0  0  0  0
   59.3190   29.2310   47.1140 N   0  0  0  0  0  0  0  0  0  0  0  0
   58.6050   28.0950   46.8430 C   0  0  0  0  0  0  0  0  0  0  0  0
   57.4540   28.1170   46.0430 C   0  0  0  0  0  0  0  0  0  0  0  0
   56.7130   26.8480   45.7960 C   0  0  0  0  0  0  0  0  0  0  0  0
   57.3080   25.7230   45.3420 N   0  0  0  0  0  0  0  0  0  0  0  0
   56.3060   24.8320   45.2560 C   0  0  0  0  0  0  0  0  0  0  0  0
   55.1360   25.4280   45.6550 C   0  0  0  0  0  0  0  0  0  0  0  0
   55.3840   26.7020   45.9980 N   0  0  0  0  0  0  0  0  0  0  0  0
   57.0380   29.3440   45.5000 C   0  0  0  0  0  0  0  0  0  0  0  0
   56.0000   29.4000   44.7820 O   0  0  0  0  0  0  0  0  0  0  0  0
   57.7810   30.5120   45.7500 C   0  0  0  0  0  0  0  0  0  0  0  0
   57.3850   31.7440   45.1950 C   0  0  0  0  0  0  0  0  0  0  0  0
   58.1250   32.9110   45.4180 C   0  0  0  0  0  0  0  0  0  0  0  0
   57.6620   34.2080   44.8050 C   0  0  0  0  0  0  0  0  0  0  0  0
   59.2840   32.8540   46.2200 C   0  0  0  0  0  0  0  0  0  0  0  0
   60.1160   34.0860   46.4720 C   0  0  0  0  0  0  0  0  0  0  0  0
   59.6850   31.6280   46.7710 C   0  0  0  0  0  0  0  0  0  0  0  0
   58.9420   30.4410   46.5610 C   0  0  0  0  0  0  0  0  0  0  0  0
   60.4257   28.0641   49.8853 H   0  0  0  0  0  0  0  0  0  0  0  0
   59.4653   27.2875   48.5811 H   0  0  0  0  0  0  0  0  0  0  0  0
   61.2563   27.1499   48.5811 H   0  0  0  0  0  0  0  0  0  0  0  0
   60.5676   29.9498   48.6582 H   0  0  0  0  0  0  0  0  0  0  0  0
   61.4022   29.0250   47.3516 H   0  0  0  0  0  0  0  0  0  0  0  0
   58.9441   27.1374   47.2650 H   0  0  0  0  0  0  0  0  0  0  0  0
   56.4074   23.7898   44.9191 H   0  0  0  0  0  0  0  0  0  0  0  0
   54.1511   24.9393   45.6885 H   0  0  0  0  0  0  0  0  0  0  0  0
   56.4776   31.7902   44.5749 H   0  0  0  0  0  0  0  0  0  0  0  0
   57.4076   34.9207   45.6034 H   0  0  0  0  0  0  0  0  0  0  0  0
   58.4661   34.6268   44.1822 H   0  0  0  0  0  0  0  0  0  0  0  0
   56.7744   34.0229   44.1822 H   0  0  0  0  0  0  0  0  0  0  0  0
   60.2213   34.2419   47.5558 H   0  0  0  0  0  0  0  0  0  0  0  0
   61.1111   33.9548   46.0220 H   0  0  0  0  0  0  0  0  0  0  0  0
   59.6225   34.9601   46.0220 H   0  0  0  0  0  0  0  0  0  0  0  0
   60.5993   31.5876   47.3813 H   0  0  0  0  0  0  0  0  0  0  0  0
  1  2  1  0
  2  3  1  0
  3  4  1  0
  4  5  2  0
  5  6  1  0
  6  7  2  0
  7  8  1  0
  8  9  2  0
  9 10  1  0
  5 11  1  0
 11 12  2  0
 11 13  1  0
 13 14  2  0
 14 15  1  0
 15 16  1  0
 15 17  2  0
 17 18  1  0
 17 19  1  0
 19 20  2  0
 20  3  1  0
 10  6  1  0
 20 13  1  0
  1 21  1  0
  1 22  1  0
  1 23  1  0
  2 24  1  0
  2 25  1  0
  4 26  1  0
  8 27  1  0
  9 28  1  0
 14 29  1  0
 16 30  1  0
 16 31  1  0
 16 32  1  0
 18 33  1  0
 18 34  1  0
 18 35  1  0
 19 36  1  0
M  CHG  1  10  -1
M  END
>  <UniqueID>  (34) 
31

>  <SMILES>  (34) 
CCn1cc(-c2ncc[n-]2)c(=O)c2cc(C)c(C)cc21

>  <Energy>  (34) 
75.71899734300987

>  <Genealogy>  (34) 
CCn1cc(-c2ncc[n-]2)c(=O)c2cc(C)c(C)cc21 (protonated)
CCn1cc(-c2ncc[n-]2)c(=O)c2cc(C)c(C)cc21 (3D coordinates assigned)
CCn1cc(-c2ncc[n-]2)c(=O)c2cc(C)c(C)cc21 (optimized conformer: 75.71899734300987 kcal/mol)

>  <smiles>  (34) 
CCn1cc(-c2ncc[nH]2)c(=O)c2cc(C)c(C)cc21

>  <score_type>  (34) 
oracle

>  <origin>  (34) 
adg

>  <m_score__min__energy>  (34) 
-8.7799999999999994

>  <m_primary>  (34) 
energy

$$$$
34:0
     RDKit          3D

 29 31  0  0  0  0  0  0  0  0999 V2000
   64.4970   32.8170   49.3170 C   0  0  0  0  0  0  0  0  0  0  0  0
   63.7480   31.6590   49.6690 O   0  0  0  0  0  0  0  0  0  0  0  0
   62.6150   31.2460   48.9610 C   0  0  0  0  0  0  0  0  0  0  0  0
   62.4160   31.6430   47.6760 N   0  0  0  0  0  0  0  0  0  0  0  0
   61.3180   31.2520   46.9800 C   0  0  0  0  0  0  0  0  0  0  0  0
   60.3590   30.4220   47.5820 C   0  0  0  0  0  0  0  0  0  0  0  0
   59.1500   29.9600   46.8570 C   0  0  0  0  0  0  0  0  0  0  0  0
   58.6550   28.6320   47.0040 C   0  0  0  0  0  0  0  0  0  0  0  0
   57.5010   28.2150   46.3000 C   0  0  0  0  0  0  0  0  0  0  0  0
   56.9700   26.8380   46.4370 C   0  0  0  0  0  0  0  0  0  0  0  0
   55.6230   26.5440   46.0740 N   0  0  0  0  0  0  0  0  0  0  0  0
   57.7040   25.9110   46.8750 O   0  0  0  0  0  0  0  0  0  0  0  0
   56.9000   29.1670   45.4680 C   0  0  0  0  0  0  0  0  0  0  0  0
   55.8120   29.0440   44.6920 N   0  0  0  0  0  0  0  0  0  0  0  0
   55.7100   30.2720   44.1190 C   0  0  0  0  0  0  0  0  0  0  0  0
   56.6750   31.1510   44.4970 N   0  0  0  0  0  0  0  0  0  0  0  0
   57.4050   30.4180   45.3460 C   0  0  0  0  0  0  0  0  0  0  0  0
   58.5080   30.8290   46.0150 N   0  0  0  0  0  0  0  0  0  0  0  0
   60.5960   30.0140   48.9040 C   0  0  0  0  0  0  0  0  0  0  0  0
   61.7070   30.4340   49.5640 N   0  0  0  0  0  0  0  0  0  0  0  0
   64.8292   33.3307   50.2312 H   0  0  0  0  0  0  0  0  0  0  0  0
   65.3745   32.5199   48.7239 H   0  0  0  0  0  0  0  0  0  0  0  0
   63.8662   33.4954   48.7239 H   0  0  0  0  0  0  0  0  0  0  0  0
   61.1793   31.5865   45.9413 H   0  0  0  0  0  0  0  0  0  0  0  0
   59.1737   27.9262   47.6694 H   0  0  0  0  0  0  0  0  0  0  0  0
   55.1510   27.0590   45.2990 H   0  0  0  0  0  0  0  0  0  0  0  0
   54.9123   30.5329   43.4080 H   0  0  0  0  0  0  0  0  0  0  0  0
   59.8782   29.3505   49.4086 H   0  0  0  0  0  0  0  0  0  0  0  0
   61.8640   30.1260   50.5510 H   0  0  0  0  0  0  0  0  0  0  0  0
  1  2  1  0
  2  3  1  0
  3  4  2  0
  4  5  1  0
  5  6  2  0
  6  7  1  0
  7  8  2  0
  8  9  1  0
  9 10  1  0
 10 11  1  0
 10 12  2  0
  9 13  2  0
 13 14  1  0
 14 15  1  0
 15 16  2  0
 16 17  1  0
 17 18  2  0
  6 19  1  0
 19 20  2  0
 20  3  1  0
 18  7  1  0
 17 13  1  0
  1 21  1  0
  1 22  1  0
  1 23  1  0
  5 24  1  0
  8 25  1  0
 11 26  1  0
 15 27  1  0
 19 28  1  0
 20 29  1  0
M  CHG  3  11  -1  14  -1  20   1
M  END
>  <UniqueID>  (35) 
32

>  <SMILES>  (35) 
COc1ncc(-c2cc(C([NH-])=O)c3[n-]cnc3n2)c[nH+]1

>  <Energy>  (35) 
71.05616058372703

>  <Genealogy>  (35) 
COc1ncc(-c2cc(C([NH-])=O)c3[n-]cnc3n2)c[nH+]1 (protonated)
COc1ncc(-c2cc(C([NH-])=O)c3[n-]cnc3n2)c[nH+]1 (3D coordinates assigned)
COc1ncc(-c2cc(C([NH-])=O)c3[n-]cnc3n2)c[nH+]1 (optimized conformer: 71.05616058372703 kcal/mol)

>  <smiles>  (35) 
COc1ncc(-c2cc(C(N)=O)c3[nH]cnc3n2)cn1

>  <score_type>  (35) 
oracle

>  <origin>  (35) 
adg

>  <m_score__min__energy>  (35) 
-9.5

>  <m_primary>  (35) 
energy

$$$$
35:0
     RDKit          3D

 35 38  0  0  1  0  0  0  0  0999 V2000
   60.2950   22.5270   45.4290 N   0  0  0  0  0  0  0  0  0  0  0  0
   59.4780   23.5010   45.6110 C   0  0  0  0  0  0  0  0  0  0  0  0
   58.1400   23.2380   45.4360 C   0  0  0  0  0  0  0  0  0  0  0  0
   57.2740   24.2860   45.6330 C   0  0  0  0  0  0  0  0  0  0  0  0
   55.9650   24.0340   45.4630 N   0  0  0  0  0  0  0  0  0  0  0  0
   55.1180   25.0540   45.6550 C   0  0  0  0  0  0  0  0  0  0  0  0
   55.5310   26.2710   45.9980 N   0  0  0  0  0  0  0  0  0  0  0  0
   56.8580   26.5190   46.1680 C   0  0  0  0  0  0  0  0  0  0  0  0
   57.1860   27.6630   46.4860 N   0  0  0  0  0  0  0  0  0  0  0  0
   57.4100   28.7890   45.7850 C   0  0  0  0  0  0  0  0  0  0  0  0
   56.8540   28.9270   44.4900 C   0  0  0  0  0  0  0  0  0  0  0  0
   56.9830   30.1200   43.8060 C   0  0  0  0  0  0  0  0  0  0  0  0
   57.6590   31.1690   44.4020 C   0  0  0  0  0  0  0  0  0  0  0  0
   57.7640   32.3490   43.6750 C   0  0  0  0  0  0  0  0  0  0  0  0
   58.4310   33.4380   44.2210 C   0  0  0  0  0  0  0  0  0  0  0  0
   58.9830   33.3130   45.4920 C   0  0  0  0  0  0  0  0  0  0  0  0
   58.8780   32.1420   46.2130 C   0  0  0  0  0  0  0  0  0  0  0  0
   58.2160   31.0530   45.6780 C   0  0  0  0  0  0  0  0  0  0  0  0
   58.0910   29.8660   46.3660 C   0  0  0  0  0  0  0  0  0  0  0  0
   57.7760   25.5260   45.9890 C   0  0  0  0  0  0  0  0  0  0  0  0
   59.1170   25.7180   46.1470 C   0  0  0  0  0  0  0  0  0  0  0  0
   59.9870   24.6750   45.9510 N   0  0  0  0  0  0  0  0  0  0  0  0
   60.7630   22.3220   44.5310 H   0  0  0  0  0  0  0  0  0  0  0  0
   57.7806   22.2378   45.1523 H   0  0  0  0  0  0  0  0  0  0  0  0
   55.6220   23.0800   45.1930 H   0  0  0  0  0  0  0  0  0  0  0  0
   54.0400   24.8784   45.5240 H   0  0  0  0  0  0  0  0  0  0  0  0
   56.3192   28.0838   44.0286 H   0  0  0  0  0  0  0  0  0  0  0  0
   56.5534   30.2343   42.7998 H   0  0  0  0  0  0  0  0  0  0  0  0
   57.3205   32.4201   42.6709 H   0  0  0  0  0  0  0  0  0  0  0  0
   58.5210   34.3800   43.6601 H   0  0  0  0  0  0  0  0  0  0  0  0
   59.5159   34.1686   45.9324 H   0  0  0  0  0  0  0  0  0  0  0  0
   59.3225   32.0745   47.2169 H   0  0  0  0  0  0  0  0  0  0  0  0
   58.5259   29.7642   47.3712 H   0  0  0  0  0  0  0  0  0  0  0  0
   59.5011   26.7087   46.4315 H   0  0  0  0  0  0  0  0  0  0  0  0
   61.0160   24.7830   46.0620 H   0  0  0  0  0  0  0  0  0  0  0  0
  1  2  2  3
  2  3  1  0
  3  4  2  0
  4  5  1  0
  5  6  1  0
  6  7  2  0
  7  8  1  0
  8  9  2  0
  9 10  1  0
 10 11  2  0
 11 12  1  0
 12 13  2  0
 13 14  1  0
 14 15  2  0
 15 16  1  0
 16 17  2  0
 17 18  1  0
 18 19  2  0
  8 20  1  0
 20 21  2  0
 21 22  1  0
 22  2  1  0
 20  4  1  0
 19 10  1  0
 18 13  1  0
  1 23  1  0
  3 24  1  0
  5 25  1  0
  6 26  1  0
 11 27  1  0
 12 28  1  0
 14 29  1  0
 15 30  1  0
 16 31  1  0
 17 32  1  0
 19 33  1  0
 21 34  1  0
 22 35  1  0
M  END
>  <smiles>  (36) 
N=c1cc2[nH]cnc(=Nc3ccc4ccccc4c3)c2c[nH]1

>  <score_type>  (36) 
oracle

>  <origin>  (36) 
adg

>  <m_score__min__energy>  (36) 
-7.8099999999999996

>  <m_primary>  (36) 
energy

$$$$
36:0
     RDKit          3D

 43 46  0  0  0  0  0  0  0  0999 V2000
   59.9383   30.6819   49.6160 H   0  0  0  0  0  0  0  0  0  0  0  0
   60.0170   31.1850   48.6410 C   0  0  0  0  0  0  0  0  0  0  0  0
   58.9660   31.1330   47.8110 C   0  0  0  0  0  0  0  0  0  0  0  0
   58.2762   30.2792   47.8825 H   0  0  0  0  0  0  0  0  0  0  0  0
   58.6990   32.1840   46.8000 C   0  0  0  0  0  0  0  0  0  0  0  0
   58.5120   33.5240   47.1870 C   0  0  0  0  0  0  0  0  0  0  0  0
   58.5863   33.8006   48.2491 H   0  0  0  0  0  0  0  0  0  0  0  0
   58.2330   34.5050   46.2340 C   0  0  0  0  0  0  0  0  0  0  0  0
   58.0972   35.5509   46.5466 H   0  0  0  0  0  0  0  0  0  0  0  0
   58.1260   34.1620   44.8860 C   0  0  0  0  0  0  0  0  0  0  0  0
   57.9021   34.9366   44.1378 H   0  0  0  0  0  0  0  0  0  0  0  0
   58.3030   32.8360   44.4860 C   0  0  0  0  0  0  0  0  0  0  0  0
   58.1972   32.5674   43.4246 H   0  0  0  0  0  0  0  0  0  0  0  0
   58.6140   31.8460   45.4250 C   0  0  0  0  0  0  0  0  0  0  0  0
   58.7590   30.4930   44.9730 N   0  0  0  0  0  0  0  0  0  0  0  0
   57.8610   29.5520   45.0520 C   0  0  0  0  0  0  0  0  0  0  0  0
   56.4300   29.7530   44.8750 C   0  0  0  0  0  0  0  0  0  0  0  0
   55.8930   30.8220   44.4830 O   0  0  0  0  0  0  0  0  0  0  0  0
   55.6890   28.5920   45.2430 N   0  0  0  0  0  0  0  0  0  0  0  0
   56.7020   27.6590   45.6240 C   0  0  0  0  0  0  0  0  0  0  0  0
   56.4760   26.3530   46.0520 C   0  0  0  0  0  0  0  0  0  0  0  0
   55.4509   25.9706   46.1653 H   0  0  0  0  0  0  0  0  0  0  0  0
   57.5830   25.5310   46.3370 C   0  0  0  0  0  0  0  0  0  0  0  0
   57.3740   24.1380   46.8510 C   0  0  0  0  0  0  0  0  0  0  0  0
   57.3756   24.1489   47.9509 H   0  0  0  0  0  0  0  0  0  0  0  0
   56.4083   23.7548   46.4896 H   0  0  0  0  0  0  0  0  0  0  0  0
   58.1847   23.4883   46.4896 H   0  0  0  0  0  0  0  0  0  0  0  0
   58.8930   26.0410   46.1850 C   0  0  0  0  0  0  0  0  0  0  0  0
   59.7567   25.3995   46.4141 H   0  0  0  0  0  0  0  0  0  0  0  0
   59.1030   27.3570   45.7450 C   0  0  0  0  0  0  0  0  0  0  0  0
   60.1212   27.7439   45.5912 H   0  0  0  0  0  0  0  0  0  0  0  0
   57.9870   28.1640   45.5070 C   0  0  0  0  0  0  0  0  0  0  0  0
   61.2790   31.8860   48.3110 C   0  0  0  0  0  0  0  0  0  0  0  0
   61.4790   33.1870   48.8030 C   0  0  0  0  0  0  0  0  0  0  0  0
   60.7147   33.6531   49.4422 H   0  0  0  0  0  0  0  0  0  0  0  0
   62.6440   33.8930   48.4850 C   0  0  0  0  0  0  0  0  0  0  0  0
   62.7975   34.9067   48.8836 H   0  0  0  0  0  0  0  0  0  0  0  0
   63.6120   33.3140   47.6630 C   0  0  0  0  0  0  0  0  0  0  0  0
   64.5290   33.8699   47.4178 H   0  0  0  0  0  0  0  0  0  0  0  0
   63.4170   32.0300   47.1520 C   0  0  0  0  0  0  0  0  0  0  0  0
   64.1782   31.5771   46.4997 H   0  0  0  0  0  0  0  0  0  0  0  0
   62.2550   31.3180   47.4680 C   0  0  0  0  0  0  0  0  0  0  0  0
   62.1024   30.3095   47.0563 H   0  0  0  0  0  0  0  0  0  0  0  0
  1  2  1  0
  2  3  2  0
  3  4  1  0
  3  5  1  0
  5  6  2  0
  6  7  1  0
  6  8  1  0
  8  9  1  0
  8 10  2  0
 10 11  1  0
 10 12  1  0
 12 13  1  0
 12 14  2  0
 14 15  1  0
 15 16  2  3
 16 17  1  0
 17 18  2  0
 17 19  1  0
 19 20  1  0
 20 21  2  0
 21 22  1  0
 21 23  1  0
 23 24  1  0
 24 25  1  0
 24 26  1  0
 24 27  1  0
 23 28  2  0
 28 29  1  0
 28 30  1  0
 30 31  1  0
 30 32  2  0
  2 33  1  0
 33 34  2  0
 34 35  1  0
 34 36  1  0
 36 37  1  0
 36 38  2  0
 38 39  1  0
 38 40  1  0
 40 41  1  0
 40 42  2  0
 42 43  1  0
 14  5  1  0
 32 16  1  0
 42 33  1  0
 32 20  1  0
M  CHG  1  19  -1
M  END
>  <UniqueID>  (37) 
33

>  <SMILES>  (37) 
Cc1ccc2c(c1)[N-]C(=O)C2=Nc1ccccc1/C=C/c1ccccc1

>  <Energy>  (37) 
90.54103478405992

>  <Genealogy>  (37) 
Cc1ccc2c(c1)[N-]C(=O)C2=Nc1ccccc1C=Cc1ccccc1 (protonated)
Cc1ccc2c(c1)[N-]C(=O)C2=Nc1ccccc1/C=C/c1ccccc1 (cis-trans isomerization)
Cc1ccc2c(c1)[N-]C(=O)C2=Nc1ccccc1/C=C/c1ccccc1 (3D coordinates assigned)
Cc1ccc2c(c1)[N-]C(=O)C2=Nc1ccccc1/C=C/c1ccccc1 (nonaromatic ring conformer: 90.54103478405992 kcal/mol)

>  <smiles>  (37) 
Cc1ccc2c(c1)NC(=O)C2=Nc1ccccc1C=Cc1ccccc1

>  <score_type>  (37) 
oracle

>  <origin>  (37) 
adg

>  <m_score__min__energy>  (37) 
-11.390000000000001

>  <m_primary>  (37) 
energy

$$$$
37:0
     RDKit          3D

 46 48  0  0  0  0  0  0  0  0999 V2000
   57.5699   25.3736   46.8281 H   0  0  0  0  0  0  0  0  0  0  0  0
   57.6670   26.3880   46.4140 C   0  0  0  0  0  0  0  0  0  0  0  0
   58.9200   26.9990   46.3640 C   0  0  0  0  0  0  0  0  0  0  0  0
   59.8059   26.4604   46.7314 H   0  0  0  0  0  0  0  0  0  0  0  0
   59.0570   28.2960   45.8480 C   0  0  0  0  0  0  0  0  0  0  0  0
   60.4100   28.9590   45.8190 C   0  0  0  0  0  0  0  0  0  0  0  0
   61.1767   28.2030   45.5940 H   0  0  0  0  0  0  0  0  0  0  0  0
   60.4018   29.7404   45.0448 H   0  0  0  0  0  0  0  0  0  0  0  0
   60.7120   29.5760   47.0970 N   0  0  0  0  0  0  0  0  0  0  0  0
   59.9600   29.5680   48.1520 C   0  0  0  0  0  0  0  0  0  0  0  0
   60.3350   28.6300   49.2690 C   0  0  0  0  0  0  0  0  0  0  0  0
   60.1408   29.1159   50.2366 H   0  0  0  0  0  0  0  0  0  0  0  0
   59.7351   27.7111   49.1931 H   0  0  0  0  0  0  0  0  0  0  0  0
   61.4030   28.3779   49.1931 H   0  0  0  0  0  0  0  0  0  0  0  0
   58.8300   30.5620   48.3680 C   0  0  0  0  0  0  0  0  0  0  0  0
   57.9811   30.2793   47.7282 H   0  0  0  0  0  0  0  0  0  0  0  0
   58.5523   30.5351   49.4320 H   0  0  0  0  0  0  0  0  0  0  0  0
   59.2440   31.9650   48.0320 C   0  0  0  0  0  0  0  0  0  0  0  0
   59.9750   32.8330   48.8390 C   0  0  0  0  0  0  0  0  0  0  0  0
   60.3784   32.5786   49.8302 H   0  0  0  0  0  0  0  0  0  0  0  0
   60.1190   34.0330   48.2320 N   0  0  0  0  0  0  0  0  0  0  0  0
   60.6180   34.8690   48.6110 H   0  0  0  0  0  0  0  0  0  0  0  0
   59.4800   33.9330   47.0540 C   0  0  0  0  0  0  0  0  0  0  0  0
   59.3410   34.9220   46.0800 C   0  0  0  0  0  0  0  0  0  0  0  0
   59.7867   35.9185   46.2154 H   0  0  0  0  0  0  0  0  0  0  0  0
   58.6120   34.6040   44.9180 C   0  0  0  0  0  0  0  0  0  0  0  0
   58.4849   35.3594   44.1285 H   0  0  0  0  0  0  0  0  0  0  0  0
   58.0430   33.3210   44.7600 C   0  0  0  0  0  0  0  0  0  0  0  0
   57.4750   33.0835   43.8484 H   0  0  0  0  0  0  0  0  0  0  0  0
   58.1980   32.3450   45.7610 C   0  0  0  0  0  0  0  0  0  0  0  0
   57.7562   31.3437   45.6506 H   0  0  0  0  0  0  0  0  0  0  0  0
   58.9290   32.6870   46.8970 C   0  0  0  0  0  0  0  0  0  0  0  0
   57.9270   28.9580   45.3430 C   0  0  0  0  0  0  0  0  0  0  0  0
   58.0338   29.9598   44.9014 H   0  0  0  0  0  0  0  0  0  0  0  0
   56.6570   28.3500   45.3970 C   0  0  0  0  0  0  0  0  0  0  0  0
   55.5020   28.9950   44.9270 O   0  0  0  0  0  0  0  0  0  0  0  0
   55.4930   30.0040   43.9230 C   0  0  0  0  0  0  0  0  0  0  0  0
   55.4842   30.9954   44.3995 H   0  0  0  0  0  0  0  0  0  0  0  0
   56.3921   29.9062   43.2968 H   0  0  0  0  0  0  0  0  0  0  0  0
   54.5958   29.8902   43.2968 H   0  0  0  0  0  0  0  0  0  0  0  0
   56.5260   27.0610   45.9380 C   0  0  0  0  0  0  0  0  0  0  0  0
   55.2460   26.4870   45.9900 O   0  0  0  0  0  0  0  0  0  0  0  0
   54.9500   25.1440   45.6180 C   0  0  0  0  0  0  0  0  0  0  0  0
   54.8155   24.5339   46.5234 H   0  0  0  0  0  0  0  0  0  0  0  0
   54.0259   25.1239   45.0217 H   0  0  0  0  0  0  0  0  0  0  0  0
   55.7801   24.7373   45.0217 H   0  0  0  0  0  0  0  0  0  0  0  0
  1  2  1  0
  2  3  2  0
  3  4  1  0
  3  5  1  0
  5  6  1  0
  6  7  1  0
  6  8  1  0
  6  9  1  0
  9 10  2  0
 10 11  1  0
 11 12  1  0
 11 13  1  0
 11 14  1  0
 10 15  1  0
 15 16  1  0
 15 17  1  0
 15 18  1  0
 18 19  2  0
 19 20  1  0
 19 21  1  0
 21 22  1  0
 21 23  1  0
 23 24  2  0
 24 25  1  0
 24 26  1  0
 26 27  1  0
 26 28  2  0
 28 29  1  0
 28 30  1  0
 30 31  1  0
 30 32  2  0
  5 33  2  0
 33 34  1  0
 33 35  1  0
 35 36  1  0
 36 37  1  0
 37 38  1  0
 37 39  1  0
 37 40  1  0
 35 41  2  0
 41 42  1  0
 42 43  1  0
 43 44  1  0
 43 45  1  0
 43 46  1  0
 41  2  1  0
 32 18  1  0
 32 23  1  0
M  END
>  <UniqueID>  (38) 
34

>  <SMILES>  (38) 
COc1ccc(C/N=C(/C)Cc2c[nH]c3ccccc23)cc1OC

>  <Energy>  (38) 
76.3650632327024

>  <Genealogy>  (38) 
COc1ccc(C/N=C(/C)Cc2c[nH]c3ccccc23)cc1OC (cis-trans isomerization)
COc1ccc(C/N=C(/C)Cc2c[nH]c3ccccc23)cc1OC (3D coordinates assigned)
COc1ccc(C/N=C(/C)Cc2c[nH]c3ccccc23)cc1OC (optimized conformer: 76.3650632327024 kcal/mol)

>  <smiles>  (38) 
COc1ccc(CN=C(C)Cc2c[nH]c3ccccc23)cc1OC

>  <score_type>  (38) 
oracle

>  <origin>  (38) 
adg

>  <m_score__min__energy>  (38) 
-8.3200000000000003

>  <m_primary>  (38) 
energy

$$$$
38:0
     RDKit          3D

 28 28  0  0  0  0  0  0  0  0999 V2000
   59.4640   31.9860   46.5020 C   0  0  0  0  0  0  0  0  0  0  0  0
   58.7770   33.1860   46.0130 N   0  0  0  0  0  0  0  0  0  0  0  0
   59.0170   34.4830   46.6540 C   0  0  0  0  0  0  0  0  0  0  0  0
   57.8590   33.1140   44.8990 C   0  0  0  0  0  0  0  0  0  0  0  0
   57.2850   34.1620   44.4920 O   0  0  0  0  0  0  0  0  0  0  0  0
   57.5260   31.8130   44.2280 C   0  0  0  0  0  0  0  0  0  0  0  0
   56.6510   31.0320   45.0920 N   0  0  0  0  0  0  0  0  0  0  0  0
   56.3210   29.6550   44.8750 C   0  0  0  0  0  0  0  0  0  0  0  0
   55.1620   29.3600   44.4790 O   0  0  0  0  0  0  0  0  0  0  0  0
   57.2860   28.5730   45.1400 C   0  0  0  0  0  0  0  0  0  0  0  0
   58.6570   28.8020   44.9450 C   0  0  0  0  0  0  0  0  0  0  0  0
   59.5840   27.7850   45.1930 C   0  0  0  0  0  0  0  0  0  0  0  0
   59.1490   26.5390   45.6500 C   0  0  0  0  0  0  0  0  0  0  0  0
   57.7870   26.3090   45.8670 C   0  0  0  0  0  0  0  0  0  0  0  0
   56.8550   27.3220   45.6190 C   0  0  0  0  0  0  0  0  0  0  0  0
   55.5430   27.0970   45.8850 F   0  0  0  0  0  0  0  0  0  0  0  0
   59.4640   31.9861   47.6020 H   0  0  0  0  0  0  0  0  0  0  0  0
   58.9422   31.0897   46.1354 H   0  0  0  0  0  0  0  0  0  0  0  0
   60.5011   31.9822   46.1354 H   0  0  0  0  0  0  0  0  0  0  0  0
   58.9945   34.3615   47.7470 H   0  0  0  0  0  0  0  0  0  0  0  0
   60.0014   34.8667   46.3479 H   0  0  0  0  0  0  0  0  0  0  0  0
   58.2351   35.1936   46.3479 H   0  0  0  0  0  0  0  0  0  0  0  0
   57.0165   32.0123   43.2737 H   0  0  0  0  0  0  0  0  0  0  0  0
   58.4520   31.2503   44.0383 H   0  0  0  0  0  0  0  0  0  0  0  0
   59.0037   29.7857   44.5956 H   0  0  0  0  0  0  0  0  0  0  0  0
   60.6563   27.9664   45.0281 H   0  0  0  0  0  0  0  0  0  0  0  0
   59.8786   25.7378   45.8394 H   0  0  0  0  0  0  0  0  0  0  0  0
   57.4477   25.3290   46.2336 H   0  0  0  0  0  0  0  0  0  0  0  0
  1  2  1  0
  2  3  1  0
  2  4  1  0
  4  5  2  0
  4  6  1  0
  6  7  1  0
  7  8  1  0
  8  9  2  0
  8 10  1  0
 10 11  2  0
 11 12  1  0
 12 13  2  0
 13 14  1  0
 14 15  2  0
 15 16  1  0
 15 10  1  0
  1 17  1  0
  1 18  1  0
  1 19  1  0
  3 20  1  0
  3 21  1  0
  3 22  1  0
  6 23  1  0
  6 24  1  0
 11 25  1  0
 12 26  1  0
 13 27  1  0
 14 28  1  0
M  CHG  1   7  -1
M  END
>  <UniqueID>  (39) 
35

>  <SMILES>  (39) 
CN(C)C(=O)C[N-]C(=O)c1ccccc1F

>  <Energy>  (39) 
27.340009931354633

>  <Genealogy>  (39) 
CN(C)C(=O)C[N-]C(=O)c1ccccc1F (protonated)
CN(C)C(=O)C[N-]C(=O)c1ccccc1F (3D coordinates assigned)
CN(C)C(=O)C[N-]C(=O)c1ccccc1F (optimized conformer: 27.340009931354633 kcal/mol)

>  <smiles>  (39) 
CN(C)C(=O)CNC(=O)c1ccccc1F

>  <score_type>  (39) 
oracle

>  <origin>  (39) 
adg

>  <m_score__min__energy>  (39) 
-7.9400000000000004

>  <m_primary>  (39) 
energy

$$$$
39:0
     RDKit          3D

 52 55  0  0  0  0  0  0  0  0999 V2000
   60.7550   27.5130   49.7460 C   0  0  0  0  0  0  0  0  0  0  0  0
   60.1260   28.7560   49.1280 C   0  0  0  0  0  0  0  0  0  0  0  0
   59.3760   28.4130   47.9180 N   0  0  0  0  0  0  0  0  0  0  0  0
   58.6300   27.3040   47.7510 C   0  0  0  0  0  0  0  0  0  0  0  0
   58.1060   27.2740   46.4670 C   0  0  0  0  0  0  0  0  0  0  0  0
   57.2320   26.2230   45.8840 C   0  0  0  0  0  0  0  0  0  0  0  0
   57.6770   25.4230   44.8160 C   0  0  0  0  0  0  0  0  0  0  0  0
   56.8460   24.4380   44.2790 C   0  0  0  0  0  0  0  0  0  0  0  0
   55.5700   24.2550   44.8120 C   0  0  0  0  0  0  0  0  0  0  0  0
   55.1480   25.0300   45.8440 N   0  0  0  0  0  0  0  0  0  0  0  0
   55.9360   25.9960   46.3860 C   0  0  0  0  0  0  0  0  0  0  0  0
   58.5600   28.4200   45.8300 C   0  0  0  0  0  0  0  0  0  0  0  0
   59.3290   29.0970   46.7540 C   0  0  0  0  0  0  0  0  0  0  0  0
   59.9980   30.3810   46.5040 C   0  0  0  0  0  0  0  0  0  0  0  0
   61.1610   30.3730   46.0190 O   0  0  0  0  0  0  0  0  0  0  0  0
   59.3470   31.6320   46.8060 N   0  0  0  0  0  0  0  0  0  0  0  0
   59.8970   32.5060   47.8500 C   0  0  0  0  0  0  0  0  0  0  0  0
   61.3860   32.6250   47.6880 C   0  0  0  0  0  0  0  0  0  0  0  0
   61.9230   33.5320   46.7640 C   0  0  0  0  0  0  0  0  0  0  0  0
   63.3090   33.6750   46.6640 C   0  0  0  0  0  0  0  0  0  0  0  0
   64.1320   32.9430   47.4630 N   0  0  0  0  0  0  0  0  0  0  0  0
   63.6350   32.0590   48.3710 C   0  0  0  0  0  0  0  0  0  0  0  0
   62.2550   31.8860   48.5030 C   0  0  0  0  0  0  0  0  0  0  0  0
   58.1730   32.0650   46.0350 C   0  0  0  0  0  0  0  0  0  0  0  0
   58.0500   33.5920   46.0860 C   0  0  0  0  0  0  0  0  0  0  0  0
   58.8880   34.3420   45.0620 C   0  0  0  0  0  0  0  0  0  0  0  0
   57.3800   34.2360   44.8830 C   0  0  0  0  0  0  0  0  0  0  0  0
   60.7164   27.5892   50.8427 H   0  0  0  0  0  0  0  0  0  0  0  0
   60.1999   26.6208   49.4207 H   0  0  0  0  0  0  0  0  0  0  0  0
   61.8027   27.4318   49.4207 H   0  0  0  0  0  0  0  0  0  0  0  0
   59.4428   29.2151   49.8577 H   0  0  0  0  0  0  0  0  0  0  0  0
   60.9275   29.4595   48.8582 H   0  0  0  0  0  0  0  0  0  0  0  0
   58.4612   26.5354   48.5196 H   0  0  0  0  0  0  0  0  0  0  0  0
   58.6848   25.5742   44.4019 H   0  0  0  0  0  0  0  0  0  0  0  0
   57.1941   23.8124   43.4438 H   0  0  0  0  0  0  0  0  0  0  0  0
   54.9057   23.4830   44.3964 H   0  0  0  0  0  0  0  0  0  0  0  0
   55.5591   26.6040   47.2217 H   0  0  0  0  0  0  0  0  0  0  0  0
   58.3490   28.7273   44.7951 H   0  0  0  0  0  0  0  0  0  0  0  0
   59.4407   33.5035   47.7678 H   0  0  0  0  0  0  0  0  0  0  0  0
   59.6743   32.0743   48.8369 H   0  0  0  0  0  0  0  0  0  0  0  0
   61.2573   34.1273   46.1218 H   0  0  0  0  0  0  0  0  0  0  0  0
   63.7364   34.3815   45.9372 H   0  0  0  0  0  0  0  0  0  0  0  0
   65.1660   33.0640   47.3790 H   0  0  0  0  0  0  0  0  0  0  0  0
   64.3228   31.4785   49.0034 H   0  0  0  0  0  0  0  0  0  0  0  0
   61.8534   31.1756   49.2406 H   0  0  0  0  0  0  0  0  0  0  0  0
   58.2843   31.7427   44.9892 H   0  0  0  0  0  0  0  0  0  0  0  0
   57.2683   31.6140   46.4687 H   0  0  0  0  0  0  0  0  0  0  0  0
   57.9114   33.6498   47.1757 H   0  0  0  0  0  0  0  0  0  0  0  0
   59.3442   35.3076   45.3254 H   0  0  0  0  0  0  0  0  0  0  0  0
   59.7642   34.0970   44.4437 H   0  0  0  0  0  0  0  0  0  0  0  0
   56.7464   35.1252   45.0168 H   0  0  0  0  0  0  0  0  0  0  0  0
   56.7147   33.8826   44.0814 H   0  0  0  0  0  0  0  0  0  0  0  0
  1  2  1  0
  2  3  1  0
  3  4  1  0
  4  5  2  0
  5  6  1  0
  6  7  2  0
  7  8  1  0
  8  9  2  0
  9 10  1  0
 10 11  2  0
  5 12  1  0
 12 13  2  0
 13 14  1  0
 14 15  2  0
 14 16  1  0
 16 17  1  0
 17 18  1  0
 18 19  2  0
 19 20  1  0
 20 21  2  0
 21 22  1  0
 22 23  2  0
 16 24  1  0
 24 25  1  0
 25 26  1  0
 26 27  1  0
 13  3  1  0
 23 18  1  0
 27 25  1  0
 11  6  1  0
  1 28  1  0
  1 29  1  0
  1 30  1  0
  2 31  1  0
  2 32  1  0
  4 33  1  0
  7 34  1  0
  8 35  1  0
  9 36  1  0
 11 37  1  0
 12 38  1  0
 17 39  1  0
 17 40  1  0
 19 41  1  0
 20 42  1  0
 21 43  1  0
 22 44  1  0
 23 45  1  0
 24 46  1  0
 24 47  1  0
 25 48  1  0
 26 49  1  0
 26 50  1  0
 27 51  1  0
 27 52  1  0
M  CHG  1  21   1
M  END
>  <UniqueID>  (40) 
36

>  <SMILES>  (40) 
CCn1cc(-c2cccnc2)cc1C(=O)N(Cc1cc[nH+]cc1)CC1CC1

>  <Energy>  (40) 
345.44338829981007

>  <Genealogy>  (40) 
CCn1cc(-c2cccnc2)cc1C(=O)N(Cc1cc[nH+]cc1)CC1CC1 (protonated)
CCn1cc(-c2cccnc2)cc1C(=O)N(Cc1cc[nH+]cc1)CC1CC1 (3D coordinates assigned)
CCn1cc(-c2cccnc2)cc1C(=O)N(Cc1cc[nH+]cc1)CC1CC1 (nonaromatic ring conformer: 345.44338829981007 kcal/mol)

>  <smiles>  (40) 
CCn1cc(-c2cccnc2)cc1C(=O)N(Cc1ccncc1)CC1CC1

>  <score_type>  (40) 
oracle

>  <origin>  (40) 
adg

>  <m_score__min__energy>  (40) 
-6.8899999999999997

>  <m_primary>  (40) 
energy

$$$$
40:0
     RDKit          3D

 31 32  0  0  0  0  0  0  0  0999 V2000
   59.8980   34.2120   48.8550 C   0  0  0  0  0  0  0  0  0  0  0  0
   58.9210   34.5260   47.8690 O   0  0  0  0  0  0  0  0  0  0  0  0
   58.6470   33.7330   46.7450 C   0  0  0  0  0  0  0  0  0  0  0  0
   57.9440   34.2230   45.6280 C   0  0  0  0  0  0  0  0  0  0  0  0
   57.6970   33.3930   44.5310 C   0  0  0  0  0  0  0  0  0  0  0  0
   58.1400   32.0620   44.5340 C   0  0  0  0  0  0  0  0  0  0  0  0
   57.9060   31.1760   43.3360 C   0  0  0  0  0  0  0  0  0  0  0  0
   56.4770   30.6200   43.3110 C   0  0  0  0  0  0  0  0  0  0  0  0
   56.2840   29.5220   44.3240 C   0  0  0  0  0  0  0  0  0  0  0  0
   55.1590   29.4000   44.8800 O   0  0  0  0  0  0  0  0  0  0  0  0
   57.3620   28.6470   44.6960 N   0  0  0  0  0  0  0  0  0  0  0  0
   57.8860   28.4500   45.9190 C   0  0  0  0  0  0  0  0  0  0  0  0
   58.8960   27.5230   45.8050 C   0  0  0  0  0  0  0  0  0  0  0  0
   59.0110   27.1350   44.5190 N   0  0  0  0  0  0  0  0  0  0  0  0
   58.0610   27.8420   43.8710 C   0  0  0  0  0  0  0  0  0  0  0  0
   58.8490   31.5770   45.6440 C   0  0  0  0  0  0  0  0  0  0  0  0
   59.0960   32.4070   46.7410 C   0  0  0  0  0  0  0  0  0  0  0  0
   59.4656   34.3510   49.8569 H   0  0  0  0  0  0  0  0  0  0  0  0
   60.2169   33.1661   48.7351 H   0  0  0  0  0  0  0  0  0  0  0  0
   60.7666   34.8762   48.7351 H   0  0  0  0  0  0  0  0  0  0  0  0
   57.5876   35.2636   45.6186 H   0  0  0  0  0  0  0  0  0  0  0  0
   57.1519   33.7858   43.6600 H   0  0  0  0  0  0  0  0  0  0  0  0
   58.0764   31.7619   42.4208 H   0  0  0  0  0  0  0  0  0  0  0  0
   58.6028   30.3270   43.3966 H   0  0  0  0  0  0  0  0  0  0  0  0
   55.7738   31.4363   43.5329 H   0  0  0  0  0  0  0  0  0  0  0  0
   56.2925   30.1985   42.3119 H   0  0  0  0  0  0  0  0  0  0  0  0
   57.5635   28.9436   46.8476 H   0  0  0  0  0  0  0  0  0  0  0  0
   59.5152   27.1546   46.6362 H   0  0  0  0  0  0  0  0  0  0  0  0
   57.8775   27.7692   42.7889 H   0  0  0  0  0  0  0  0  0  0  0  0
   59.2120   30.5386   45.6506 H   0  0  0  0  0  0  0  0  0  0  0  0
   59.6477   32.0152   47.6083 H   0  0  0  0  0  0  0  0  0  0  0  0
  1  2  1  0
  2  3  1  0
  3  4  2  0
  4  5  1  0
  5  6  2  0
  6  7  1  0
  7  8  1  0
  8  9  1  0
  9 10  2  0
  9 11  1  0
 11 12  1  0
 12 13  2  0
 13 14  1  0
 14 15  2  0
  6 16  1  0
 16 17  2  0
 17  3  1  0
 15 11  1  0
  1 18  1  0
  1 19  1  0
  1 20  1  0
  4 21  1  0
  5 22  1  0
  7 23  1  0
  7 24  1  0
  8 25  1  0
  8 26  1  0
 12 27  1  0
 13 28  1  0
 15 29  1  0
 16 30  1  0
 17 31  1  0
M  END
>  <UniqueID>  (41) 
37

>  <SMILES>  (41) 
COc1ccc(CCC(=O)n2ccnc2)cc1

>  <Energy>  (41) 
56.153122533079745

>  <Genealogy>  (41) 
COc1ccc(CCC(=O)n2ccnc2)cc1 (3D coordinates assigned)
COc1ccc(CCC(=O)n2ccnc2)cc1 (optimized conformer: 56.153122533079745 kcal/mol)

>  <smiles>  (41) 
COc1ccc(CCC(=O)n2ccnc2)cc1

>  <score_type>  (41) 
oracle

>  <origin>  (41) 
adg

>  <m_score__min__energy>  (41) 
-5.7800000000000002

>  <m_primary>  (41) 
energy

$$$$
41:0
     RDKit          3D

 22 22  0  0  0  0  0  0  0  0999 V2000
   55.4790   29.7770   43.5530 C   0  0  0  0  0  0  0  0  0  0  0  0
   55.5160   29.1590   44.8690 N   0  0  0  0  0  0  0  0  0  0  0  0
   56.7370   28.8190   45.5350 C   0  0  0  0  0  0  0  0  0  0  0  0
   57.5090   29.7440   45.9140 O   0  0  0  0  0  0  0  0  0  0  0  0
   57.1050   27.3990   45.7860 C   0  0  0  0  0  0  0  0  0  0  0  0
   58.4650   27.0290   45.7980 C   0  0  0  0  0  0  0  0  0  0  0  0
   58.8560   25.7050   46.0300 C   0  0  0  0  0  0  0  0  0  0  0  0
   60.2270   25.4070   46.0280 O   0  0  0  0  0  0  0  0  0  0  0  0
   61.2520   26.3310   46.3790 C   0  0  0  0  0  0  0  0  0  0  0  0
   57.8730   24.7280   46.2540 C   0  0  0  0  0  0  0  0  0  0  0  0
   56.5230   25.0760   46.2460 C   0  0  0  0  0  0  0  0  0  0  0  0
   56.1310   26.3980   46.0150 C   0  0  0  0  0  0  0  0  0  0  0  0
   54.7720   26.6950   46.0160 O   0  0  0  0  0  0  0  0  0  0  0  0
   55.4136   30.8696   43.6627 H   0  0  0  0  0  0  0  0  0  0  0  0
   56.3943   29.5181   43.0005 H   0  0  0  0  0  0  0  0  0  0  0  0
   54.6012   29.4108   43.0005 H   0  0  0  0  0  0  0  0  0  0  0  0
   59.2340   27.7955   45.6216 H   0  0  0  0  0  0  0  0  0  0  0  0
   61.3261   26.3978   47.4745 H   0  0  0  0  0  0  0  0  0  0  0  0
   62.2122   25.9874   45.9668 H   0  0  0  0  0  0  0  0  0  0  0  0
   61.0095   27.3216   45.9668 H   0  0  0  0  0  0  0  0  0  0  0  0
   58.1690   23.6844   46.4364 H   0  0  0  0  0  0  0  0  0  0  0  0
   55.7598   24.3039   46.4229 H   0  0  0  0  0  0  0  0  0  0  0  0
  1  2  1  0
  2  3  1  0
  3  4  2  0
  3  5  1  0
  5  6  2  0
  6  7  1  0
  7  8  1  0
  8  9  1  0
  7 10  2  0
 10 11  1  0
 11 12  2  0
 12 13  1  0
 12  5  1  0
  1 14  1  0
  1 15  1  0
  1 16  1  0
  6 17  1  0
  9 18  1  0
  9 19  1  0
  9 20  1  0
 10 21  1  0
 11 22  1  0
M  CHG  2   2  -1  13  -1
M  END
>  <UniqueID>  (42) 
38

>  <SMILES>  (42) 
C[N-]C(=O)c1cc(OC)ccc1[O-]

>  <Energy>  (42) 
20.064519327230947

>  <Genealogy>  (42) 
C[N-]C(=O)c1cc(OC)ccc1[O-] (protonated)
C[N-]C(=O)c1cc(OC)ccc1[O-] (3D coordinates assigned)
C[N-]C(=O)c1cc(OC)ccc1[O-] (optimized conformer: 20.064519327230947 kcal/mol)

>  <smiles>  (42) 
CNC(=O)c1cc(OC)ccc1O

>  <score_type>  (42) 
oracle

>  <origin>  (42) 
adg

>  <m_score__min__energy>  (42) 
-12.109999999999999

>  <m_primary>  (42) 
energy

$$$$
42:0
     RDKit          3D

 31 33  0  0  0  0  0  0  0  0999 V2000
   58.6480   27.0970   47.2730 O   0  0  0  0  0  0  0  0  0  0  0  0
   58.0810   27.7730   46.3710 C   0  0  0  0  0  0  0  0  0  0  0  0
   57.1520   27.1400   45.4730 N   0  0  0  0  0  0  0  0  0  0  0  0
   56.8050   25.7490   45.5540 C   0  0  0  0  0  0  0  0  0  0  0  0
   55.4550   25.3800   45.6790 C   0  0  0  0  0  0  0  0  0  0  0  0
   54.4900   26.3310   45.7560 F   0  0  0  0  0  0  0  0  0  0  0  0
   55.0970   24.0300   45.7420 C   0  0  0  0  0  0  0  0  0  0  0  0
   56.0790   23.0400   45.6650 C   0  0  0  0  0  0  0  0  0  0  0  0
   57.4210   23.3970   45.5150 C   0  0  0  0  0  0  0  0  0  0  0  0
   57.7880   24.7460   45.4520 C   0  0  0  0  0  0  0  0  0  0  0  0
   59.0890   25.0670   45.2430 F   0  0  0  0  0  0  0  0  0  0  0  0
   58.3950   29.2140   46.2480 C   0  0  0  0  0  0  0  0  0  0  0  0
   59.5760   29.7060   46.8070 C   0  0  0  0  0  0  0  0  0  0  0  0
   59.8860   31.0200   46.6980 N   0  0  0  0  0  0  0  0  0  0  0  0
   59.0640   31.8900   46.0600 C   0  0  0  0  0  0  0  0  0  0  0  0
   59.4350   33.2360   45.9730 C   0  0  0  0  0  0  0  0  0  0  0  0
   58.5960   34.1400   45.3270 C   0  0  0  0  0  0  0  0  0  0  0  0
   57.3970   33.6960   44.7760 C   0  0  0  0  0  0  0  0  0  0  0  0
   57.0510   32.3480   44.8760 C   0  0  0  0  0  0  0  0  0  0  0  0
   57.8770   31.4530   45.5110 N   0  0  0  0  0  0  0  0  0  0  0  0
   57.5310   30.1260   45.6120 C   0  0  0  0  0  0  0  0  0  0  0  0
   56.4230   29.7200   45.1590 O   0  0  0  0  0  0  0  0  0  0  0  0
   56.6430   27.7220   44.7720 H   0  0  0  0  0  0  0  0  0  0  0  0
   54.0398   23.7471   45.8524 H   0  0  0  0  0  0  0  0  0  0  0  0
   55.7955   21.9787   45.7225 H   0  0  0  0  0  0  0  0  0  0  0  0
   58.1919   22.6153   45.4462 H   0  0  0  0  0  0  0  0  0  0  0  0
   60.2569   29.0243   47.3377 H   0  0  0  0  0  0  0  0  0  0  0  0
   60.3837   33.5781   46.4122 H   0  0  0  0  0  0  0  0  0  0  0  0
   58.8792   35.2003   45.2523 H   0  0  0  0  0  0  0  0  0  0  0  0
   56.7269   34.4032   44.2652 H   0  0  0  0  0  0  0  0  0  0  0  0
   56.1038   31.9973   44.4403 H   0  0  0  0  0  0  0  0  0  0  0  0
  1  2  2  0
  2  3  1  0
  3  4  1  0
  4  5  2  0
  5  6  1  0
  5  7  1  0
  7  8  2  0
  8  9  1  0
  9 10  2  0
 10 11  1  0
  2 12  1  0
 12 13  2  0
 13 14  1  0
 14 15  2  0
 15 16  1  0
 16 17  2  0
 17 18  1  0
 18 19  2  0
 19 20  1  0
 20 21  1  0
 21 22  2  0
 10  4  1  0
 21 12  1  0
 20 15  1  0
  3 23  1  0
  7 24  1  0
  8 25  1  0
  9 26  1  0
 13 27  1  0
 16 28  1  0
 17 29  1  0
 18 30  1  0
 19 31  1  0
M  END
>  <UniqueID>  (43) 
39

>  <SMILES>  (43) 
O=C(Nc1c(F)cccc1F)c1cnc2ccccn2c1=O

>  <Energy>  (43) 
50.438548026273025

>  <Genealogy>  (43) 
O=C(Nc1c(F)cccc1F)c1cnc2ccccn2c1=O (3D coordinates assigned)
O=C(Nc1c(F)cccc1F)c1cnc2ccccn2c1=O (optimized conformer: 50.438548026273025 kcal/mol)

>  <smiles>  (43) 
O=C(Nc1c(F)cccc1F)c1cnc2ccccn2c1=O

>  <score_type>  (43) 
oracle

>  <origin>  (43) 
adg

>  <m_score__min__energy>  (43) 
-6.4800000000000004

>  <m_primary>  (43) 
energy

$$$$
43:0
     RDKit          3D

 32 33  0  0  0  0  0  0  0  0999 V2000
   59.7890   33.8360   50.3150 C   0  0  0  0  0  0  0  0  0  0  0  0
   60.4000   33.8750   48.9450 C   0  0  0  0  0  0  0  0  0  0  0  0
   61.7110   33.4170   48.7430 C   0  0  0  0  0  0  0  0  0  0  0  0
   62.2710   33.4100   47.4560 C   0  0  0  0  0  0  0  0  0  0  0  0
   63.6930   32.9780   47.2500 C   0  0  0  0  0  0  0  0  0  0  0  0
   61.5160   33.8790   46.3720 C   0  0  0  0  0  0  0  0  0  0  0  0
   60.2080   34.3360   46.5680 C   0  0  0  0  0  0  0  0  0  0  0  0
   59.2580   34.9560   45.1750 S   0  0  0  0  0  0  0  0  0  0  0  0
   57.7160   34.0860   45.6320 C   0  0  0  0  0  0  0  0  0  0  0  0
   57.7800   32.6320   45.2530 C   0  0  0  0  0  0  0  0  0  0  0  0
   57.4230   32.2240   43.9570 C   0  0  0  0  0  0  0  0  0  0  0  0
   57.4390   30.8690   43.6160 C   0  0  0  0  0  0  0  0  0  0  0  0
   57.8070   29.9100   44.5660 C   0  0  0  0  0  0  0  0  0  0  0  0
   58.1620   30.3090   45.8580 C   0  0  0  0  0  0  0  0  0  0  0  0
   58.1510   31.6640   46.2020 C   0  0  0  0  0  0  0  0  0  0  0  0
   59.6440   34.3150   47.8480 C   0  0  0  0  0  0  0  0  0  0  0  0
   60.5846   33.8868   51.0729 H   0  0  0  0  0  0  0  0  0  0  0  0
   59.1100   34.6926   50.4382 H   0  0  0  0  0  0  0  0  0  0  0  0
   59.2245   32.9000   50.4382 H   0  0  0  0  0  0  0  0  0  0  0  0
   62.3035   33.0612   49.5988 H   0  0  0  0  0  0  0  0  0  0  0  0
   64.1768   32.8310   48.2269 H   0  0  0  0  0  0  0  0  0  0  0  0
   63.7113   32.0338   46.6860 H   0  0  0  0  0  0  0  0  0  0  0  0
   64.2335   33.7525   46.6860 H   0  0  0  0  0  0  0  0  0  0  0  0
   61.9537   33.8878   45.3629 H   0  0  0  0  0  0  0  0  0  0  0  0
   57.5665   34.1674   46.7187 H   0  0  0  0  0  0  0  0  0  0  0  0
   56.8795   34.5511   45.0899 H   0  0  0  0  0  0  0  0  0  0  0  0
   57.1297   32.9741   43.2078 H   0  0  0  0  0  0  0  0  0  0  0  0
   57.1617   30.5557   42.5987 H   0  0  0  0  0  0  0  0  0  0  0  0
   57.8170   28.8435   44.2967 H   0  0  0  0  0  0  0  0  0  0  0  0
   58.4506   29.5553   46.6054 H   0  0  0  0  0  0  0  0  0  0  0  0
   58.4337   31.9736   47.2190 H   0  0  0  0  0  0  0  0  0  0  0  0
   58.6048   34.6444   47.9949 H   0  0  0  0  0  0  0  0  0  0  0  0
  1  2  1  0
  2  3  2  0
  3  4  1  0
  4  5  1  0
  4  6  2  0
  6  7  1  0
  7  8  1  0
  8  9  1  0
  9 10  1  0
 10 11  2  0
 11 12  1  0
 12 13  2  0
 13 14  1  0
 14 15  2  0
  7 16  2  0
 16  2  1  0
 15 10  1  0
  1 17  1  0
  1 18  1  0
  1 19  1  0
  3 20  1  0
  5 21  1  0
  5 22  1  0
  5 23  1  0
  6 24  1  0
  9 25  1  0
  9 26  1  0
 11 27  1  0
 12 28  1  0
 13 29  1  0
 14 30  1  0
 15 31  1  0
 16 32  1  0
M  END
>  <UniqueID>  (44) 
40

>  <SMILES>  (44) 
Cc1cc(C)cc(SCc2ccccc2)c1

>  <Energy>  (44) 
24.776395626937603

>  <Genealogy>  (44) 
Cc1cc(C)cc(SCc2ccccc2)c1 (3D coordinates assigned)
Cc1cc(C)cc(SCc2ccccc2)c1 (optimized conformer: 24.776395626937603 kcal/mol)

>  <smiles>  (44) 
Cc1cc(C)cc(SCc2ccccc2)c1

>  <score_type>  (44) 
oracle

>  <origin>  (44) 
adg

>  <m_score__min__energy>  (44) 
-6.7199999999999998

>  <m_primary>  (44) 
energy

$$$$
44:0
     RDKit          3D

 35 37  0  0  0  0  0  0  0  0999 V2000
   56.0592   33.7718   45.1004 H   0  0  0  0  0  0  0  0  0  0  0  0
   57.0970   33.4280   44.9790 C   0  0  0  0  0  0  0  0  0  0  0  0
   57.4640   32.8880   43.8570 N   0  0  0  0  0  0  0  0  0  0  0  0
   58.1210   31.5870   43.7810 C   0  0  0  0  0  0  0  0  0  0  0  0
   58.4166   31.3905   42.7399 H   0  0  0  0  0  0  0  0  0  0  0  0
   59.0088   31.5970   44.4304 H   0  0  0  0  0  0  0  0  0  0  0  0
   57.1930   30.5060   44.2430 C   0  0  0  0  0  0  0  0  0  0  0  0
   55.8190   30.4290   44.0170 C   0  0  0  0  0  0  0  0  0  0  0  0
   55.2245   31.1955   43.4983 H   0  0  0  0  0  0  0  0  0  0  0  0
   55.3200   29.2780   44.5260 N   0  0  0  0  0  0  0  0  0  0  0  0
   54.3270   28.9550   44.4960 H   0  0  0  0  0  0  0  0  0  0  0  0
   56.3690   28.6330   45.0590 C   0  0  0  0  0  0  0  0  0  0  0  0
   56.3410   27.4190   45.6640 N   0  0  0  0  0  0  0  0  0  0  0  0
   57.5070   26.8870   46.1400 C   0  0  0  0  0  0  0  0  0  0  0  0
   57.4958   25.9064   46.6383 H   0  0  0  0  0  0  0  0  0  0  0  0
   58.7270   27.5870   45.9970 C   0  0  0  0  0  0  0  0  0  0  0  0
   59.6613   27.1505   46.3798 H   0  0  0  0  0  0  0  0  0  0  0  0
   58.7430   28.8430   45.3640 C   0  0  0  0  0  0  0  0  0  0  0  0
   59.6782   29.4080   45.2368 H   0  0  0  0  0  0  0  0  0  0  0  0
   57.5270   29.3420   44.9050 C   0  0  0  0  0  0  0  0  0  0  0  0
   58.0510   33.5880   46.0950 C   0  0  0  0  0  0  0  0  0  0  0  0
   59.0220   34.5990   46.0310 C   0  0  0  0  0  0  0  0  0  0  0  0
   59.0630   35.2623   45.1545 H   0  0  0  0  0  0  0  0  0  0  0  0
   59.9380   34.7690   47.0740 C   0  0  0  0  0  0  0  0  0  0  0  0
   60.6941   35.5657   47.0142 H   0  0  0  0  0  0  0  0  0  0  0  0
   59.8970   33.9260   48.1990 C   0  0  0  0  0  0  0  0  0  0  0  0
   60.7950   34.0550   49.2700 O   0  0  0  0  0  0  0  0  0  0  0  0
   60.5940   33.4850   50.5600 C   0  0  0  0  0  0  0  0  0  0  0  0
   60.8546   34.2240   51.3320 H   0  0  0  0  0  0  0  0  0  0  0  0
   59.5391   33.1941   50.6720 H   0  0  0  0  0  0  0  0  0  0  0  0
   61.2331   32.5968   50.6720 H   0  0  0  0  0  0  0  0  0  0  0  0
   58.9300   32.9170   48.2620 C   0  0  0  0  0  0  0  0  0  0  0  0
   58.8905   32.2534   49.1384 H   0  0  0  0  0  0  0  0  0  0  0  0
   58.0130   32.7450   47.2200 C   0  0  0  0  0  0  0  0  0  0  0  0
   57.2587   31.9467   47.2807 H   0  0  0  0  0  0  0  0  0  0  0  0
  1  2  1  0
  2  3  2  0
  3  4  1  0
  4  5  1  0
  4  6  1  0
  4  7  1  0
  7  8  2  0
  8  9  1  0
  8 10  1  0
 10 11  1  0
 10 12  1  0
 12 13  2  0
 13 14  1  0
 14 15  1  0
 14 16  2  0
 16 17  1  0
 16 18  1  0
 18 19  1  0
 18 20  2  0
  2 21  1  0
 21 22  2  0
 22 23  1  0
 22 24  1  0
 24 25  1  0
 24 26  2  0
 26 27  1  0
 27 28  1  0
 28 29  1  0
 28 30  1  0
 28 31  1  0
 26 32  1  0
 32 33  1  0
 32 34  2  0
 34 35  1  0
 20  7  1  0
 34 21  1  0
 20 12  1  0
M  END
>  <UniqueID>  (45) 
41

>  <SMILES>  (45) 
COc1ccc(/C=N/Cc2c[nH]c3ncccc23)cc1

>  <Energy>  (45) 
68.95331596997606

>  <Genealogy>  (45) 
COc1ccc(/C=N/Cc2c[nH]c3ncccc23)cc1 (cis-trans isomerization)
COc1ccc(/C=N/Cc2c[nH]c3ncccc23)cc1 (3D coordinates assigned)
COc1ccc(/C=N/Cc2c[nH]c3ncccc23)cc1 (optimized conformer: 68.95331596997606 kcal/mol)

>  <smiles>  (45) 
COc1ccc(C=NCc2c[nH]c3ncccc23)cc1

>  <score_type>  (45) 
oracle

>  <origin>  (45) 
adg

>  <m_score__min__energy>  (45) 
-7.1500000000000004

>  <m_primary>  (45) 
energy

$$$$
45:0
     RDKit          3D

 30 31  0  0  0  0  0  0  0  0999 V2000
   59.8410   34.4770   47.6890 C   0  0  0  0  0  0  0  0  0  0  0  0
   58.5900   34.2840   47.0370 O   0  0  0  0  0  0  0  0  0  0  0  0
   58.2400   33.1290   46.3240 C   0  0  0  0  0  0  0  0  0  0  0  0
   58.5020   31.8820   46.9060 C   0  0  0  0  0  0  0  0  0  0  0  0
   58.1680   30.7010   46.2360 C   0  0  0  0  0  0  0  0  0  0  0  0
   57.5640   30.7540   44.9740 C   0  0  0  0  0  0  0  0  0  0  0  0
   57.1270   29.2720   44.1300 S   0  0  0  0  0  0  0  0  0  0  0  0
   56.3370   29.6310   42.9030 O   0  0  0  0  0  0  0  0  0  0  0  0
   58.3560   28.5120   43.7150 O   0  0  0  0  0  0  0  0  0  0  0  0
   56.1580   28.2640   45.1600 N   0  0  0  0  0  0  0  0  0  0  0  0
   56.6870   27.1860   45.9570 C   0  0  0  0  0  0  0  0  0  0  0  0
   58.0280   27.1710   46.3840 C   0  0  0  0  0  0  0  0  0  0  0  0
   58.5070   26.1140   47.1580 C   0  0  0  0  0  0  0  0  0  0  0  0
   57.6490   25.0710   47.5000 C   0  0  0  0  0  0  0  0  0  0  0  0
   56.3580   25.0890   47.0790 N   0  0  0  0  0  0  0  0  0  0  0  0
   55.8600   26.1060   46.3250 C   0  0  0  0  0  0  0  0  0  0  0  0
   54.6540   26.0700   45.9660 O   0  0  0  0  0  0  0  0  0  0  0  0
   57.3040   31.9970   44.3840 C   0  0  0  0  0  0  0  0  0  0  0  0
   57.6370   33.1780   45.0530 C   0  0  0  0  0  0  0  0  0  0  0  0
   59.6938   34.4543   48.7789 H   0  0  0  0  0  0  0  0  0  0  0  0
   60.5348   33.6753   47.3959 H   0  0  0  0  0  0  0  0  0  0  0  0
   60.2609   35.4506   47.3959 H   0  0  0  0  0  0  0  0  0  0  0  0
   58.9743   31.8315   47.8981 H   0  0  0  0  0  0  0  0  0  0  0  0
   58.3804   29.7274   46.7018 H   0  0  0  0  0  0  0  0  0  0  0  0
   55.1500   28.5190   45.2430 H   0  0  0  0  0  0  0  0  0  0  0  0
   58.7008   27.9958   46.1064 H   0  0  0  0  0  0  0  0  0  0  0  0
   59.5538   26.1041   47.4957 H   0  0  0  0  0  0  0  0  0  0  0  0
   58.0171   24.2334   48.1107 H   0  0  0  0  0  0  0  0  0  0  0  0
   56.8357   32.0441   43.3898 H   0  0  0  0  0  0  0  0  0  0  0  0
   57.4269   34.1506   44.5840 H   0  0  0  0  0  0  0  0  0  0  0  0
  1  2  1  0
  2  3  1  0
  3  4  2  0
  4  5  1  0
  5  6  2  0
  6  7  1  0
  7  8  2  0
  7  9  2  0
  7 10  1  0
 10 11  1  0
 11 12  2  0
 12 13  1  0
 13 14  2  0
 14 15  1  0
 15 16  1  0
 16 17  2  0
  6 18  1  0
 18 19  2  0
 19  3  1  0
 16 11  1  0
  1 20  1  0
  1 21  1  0
  1 22  1  0
  4 23  1  0
  5 24  1  0
 10 25  1  0
 12 26  1  0
 13 27  1  0
 14 28  1  0
 18 29  1  0
 19 30  1  0
M  CHG  1  15  -1
M  END
>  <UniqueID>  (46) 
42

>  <SMILES>  (46) 
COc1ccc(S(=O)(=O)Nc2ccc[n-]c2=O)cc1

>  <Energy>  (46) 
34.36347153971441

>  <Genealogy>  (46) 
COc1ccc(S(=O)(=O)Nc2ccc[n-]c2=O)cc1 (protonated)
COc1ccc(S(=O)(=O)Nc2ccc[n-]c2=O)cc1 (3D coordinates assigned)
COc1ccc(S(=O)(=O)Nc2ccc[n-]c2=O)cc1 (optimized conformer: 34.36347153971441 kcal/mol)

>  <smiles>  (46) 
COc1ccc(S(=O)(=O)Nc2ccc[nH]c2=O)cc1

>  <score_type>  (46) 
oracle

>  <origin>  (46) 
adg

>  <m_score__min__energy>  (46) 
-9.1300000000000008

>  <m_primary>  (46) 
energy

$$$$
46:0
     RDKit          3D

 28 30  0  0  0  0  0  0  0  0999 V2000
   58.9040   34.9640   45.0820 C   0  0  0  0  0  0  0  0  0  0  0  0
   59.6170   33.8230   45.7230 C   0  0  0  0  0  0  0  0  0  0  0  0
   60.8440   33.9580   46.3280 N   0  0  0  0  0  0  0  0  0  0  0  0
   61.0180   32.6980   46.7420 C   0  0  0  0  0  0  0  0  0  0  0  0
   61.9250   31.9710   47.4630 C   0  0  0  0  0  0  0  0  0  0  0  0
   63.1640   32.4130   48.0370 C   0  0  0  0  0  0  0  0  0  0  0  0
   64.1640   32.7700   48.5000 N   0  0  0  0  0  0  0  0  0  0  0  0
   61.3400   30.6920   47.5340 C   0  0  0  0  0  0  0  0  0  0  0  0
   60.1340   30.6710   46.8820 N   0  0  0  0  0  0  0  0  0  0  0  0
   59.2130   29.5720   46.7400 C   0  0  0  0  0  0  0  0  0  0  0  0
   58.2420   29.5780   45.7230 C   0  0  0  0  0  0  0  0  0  0  0  0
   57.3500   28.5110   45.5850 C   0  0  0  0  0  0  0  0  0  0  0  0
   57.4090   27.4130   46.4610 C   0  0  0  0  0  0  0  0  0  0  0  0
   56.4910   26.3120   46.3240 N   0  0  0  0  0  0  0  0  0  0  0  0
   56.8720   25.1380   46.5100 O   0  0  0  0  0  0  0  0  0  0  0  0
   55.1760   26.5370   45.9850 O   0  0  0  0  0  0  0  0  0  0  0  0
   58.3790   27.4060   47.4760 C   0  0  0  0  0  0  0  0  0  0  0  0
   59.2730   28.4730   47.6130 C   0  0  0  0  0  0  0  0  0  0  0  0
   60.0150   31.9310   46.4330 C   0  0  0  0  0  0  0  0  0  0  0  0
   59.0990   32.5930   45.7930 O   0  0  0  0  0  0  0  0  0  0  0  0
   58.4922   35.6230   45.8606 H   0  0  0  0  0  0  0  0  0  0  0  0
   59.6084   35.5315   44.4562 H   0  0  0  0  0  0  0  0  0  0  0  0
   58.0851   34.5796   44.4562 H   0  0  0  0  0  0  0  0  0  0  0  0
   61.7896   29.8270   48.0435 H   0  0  0  0  0  0  0  0  0  0  0  0
   58.1840   30.4301   45.0298 H   0  0  0  0  0  0  0  0  0  0  0  0
   56.5957   28.5305   44.7846 H   0  0  0  0  0  0  0  0  0  0  0  0
   58.4364   26.5541   48.1695 H   0  0  0  0  0  0  0  0  0  0  0  0
   60.0296   28.4514   48.4112 H   0  0  0  0  0  0  0  0  0  0  0  0
  1  2  1  0
  2  3  2  0
  3  4  1  0
  4  5  1  0
  5  6  1  0
  6  7  3  0
  5  8  2  0
  8  9  1  0
  9 10  1  0
 10 11  2  0
 11 12  1  0
 12 13  2  0
 13 14  1  0
 14 15  2  0
 14 16  1  0
 13 17  1  0
 17 18  2  0
  9 19  1  0
 19 20  1  0
 20  2  1  0
 19  4  2  0
 18 10  1  0
  1 21  1  0
  1 22  1  0
  1 23  1  0
  8 24  1  0
 11 25  1  0
 12 26  1  0
 17 27  1  0
 18 28  1  0
M  CHG  2  14   1  16  -1
M  END
>  <UniqueID>  (47) 
43

>  <SMILES>  (47) 
Cc1nc2c(C#N)cn(-c3ccc([N+](=O)[O-])cc3)c2o1

>  <Energy>  (47) 
124.44638259378394

>  <Genealogy>  (47) 
Cc1nc2c(C#N)cn(-c3ccc([N+](=O)[O-])cc3)c2o1 (3D coordinates assigned)
Cc1nc2c(C#N)cn(-c3ccc([N+](=O)[O-])cc3)c2o1 (optimized conformer: 124.44638259378394 kcal/mol)

>  <smiles>  (47) 
Cc1nc2c(C#N)cn(-c3ccc([N+](=O)[O-])cc3)c2o1

>  <score_type>  (47) 
oracle

>  <origin>  (47) 
adg

>  <m_score__min__energy>  (47) 
-6.0199999999999996

>  <m_primary>  (47) 
energy

$$$$
47:0
     RDKit          3D

 36 38  0  0  0  0  0  0  0  0999 V2000
   57.7370   26.4450   44.5430 C   0  0  0  0  0  0  0  0  0  0  0  0
   56.6110   27.0640   45.7740 S   0  0  0  0  0  0  0  0  0  0  0  0
   57.3750   27.3270   47.0400 O   0  0  0  0  0  0  0  0  0  0  0  0
   55.5360   26.0530   46.0600 O   0  0  0  0  0  0  0  0  0  0  0  0
   55.8990   28.5520   45.2370 N   0  0  0  0  0  0  0  0  0  0  0  0
   56.5310   29.5540   44.4260 C   0  0  0  0  0  0  0  0  0  0  0  0
   56.1110   29.8060   43.1060 C   0  0  0  0  0  0  0  0  0  0  0  0
   56.7330   30.7940   42.3420 C   0  0  0  0  0  0  0  0  0  0  0  0
   57.7760   31.5450   42.8820 C   0  0  0  0  0  0  0  0  0  0  0  0
   58.3720   32.5100   42.1390 F   0  0  0  0  0  0  0  0  0  0  0  0
   58.2040   31.3080   44.1900 C   0  0  0  0  0  0  0  0  0  0  0  0
   57.5970   30.3060   44.9680 C   0  0  0  0  0  0  0  0  0  0  0  0
   58.0540   30.0990   46.3920 C   0  0  0  0  0  0  0  0  0  0  0  0
   59.2020   30.9600   46.6850 N   0  0  0  0  0  0  0  0  0  0  0  0
   60.4820   30.5370   46.8300 C   0  0  0  0  0  0  0  0  0  0  0  0
   61.3330   31.6120   47.0590 C   0  0  0  0  0  0  0  0  0  0  0  0
   60.5180   32.7220   47.0480 C   0  0  0  0  0  0  0  0  0  0  0  0
   60.8170   34.0700   47.2170 C   0  0  0  0  0  0  0  0  0  0  0  0
   59.7930   34.9720   47.1520 N   0  0  0  0  0  0  0  0  0  0  0  0
   58.4980   34.5790   46.9320 C   0  0  0  0  0  0  0  0  0  0  0  0
   58.1810   33.2190   46.7620 C   0  0  0  0  0  0  0  0  0  0  0  0
   59.2350   32.3030   46.8220 C   0  0  0  0  0  0  0  0  0  0  0  0
   58.5977   25.9718   45.0382 H   0  0  0  0  0  0  0  0  0  0  0  0
   57.2220   25.7032   43.9149 H   0  0  0  0  0  0  0  0  0  0  0  0
   58.0873   27.2773   43.9149 H   0  0  0  0  0  0  0  0  0  0  0  0
   55.2866   29.2198   42.6739 H   0  0  0  0  0  0  0  0  0  0  0  0
   56.3994   30.9809   41.3106 H   0  0  0  0  0  0  0  0  0  0  0  0
   59.0215   31.9092   44.6146 H   0  0  0  0  0  0  0  0  0  0  0  0
   57.2301   30.3462   47.0776 H   0  0  0  0  0  0  0  0  0  0  0  0
   58.3505   29.0480   46.5246 H   0  0  0  0  0  0  0  0  0  0  0  0
   60.8032   29.4864   46.7741 H   0  0  0  0  0  0  0  0  0  0  0  0
   62.4215   31.5825   47.2151 H   0  0  0  0  0  0  0  0  0  0  0  0
   61.8503   34.4008   47.3981 H   0  0  0  0  0  0  0  0  0  0  0  0
   60.0020   35.9890   47.2770 H   0  0  0  0  0  0  0  0  0  0  0  0
   57.6994   35.3342   46.8880 H   0  0  0  0  0  0  0  0  0  0  0  0
   57.1458   32.8899   46.5889 H   0  0  0  0  0  0  0  0  0  0  0  0
  1  2  1  0
  2  3  2  0
  2  4  2  0
  2  5  1  0
  5  6  1  0
  6  7  2  0
  7  8  1  0
  8  9  2  0
  9 10  1  0
  9 11  1  0
 11 12  2  0
 12 13  1  0
 13 14  1  0
 14 15  1  0
 15 16  2  0
 16 17  1  0
 17 18  2  0
 18 19  1  0
 19 20  2  0
 20 21  1  0
 21 22  2  0
 12  6  1  0
 22 14  1  0
 22 17  1  0
  1 23  1  0
  1 24  1  0
  1 25  1  0
  7 26  1  0
  8 27  1  0
 11 28  1  0
 13 29  1  0
 13 30  1  0
 15 31  1  0
 16 32  1  0
 18 33  1  0
 19 34  1  0
 20 35  1  0
 21 36  1  0
M  CHG  2   5  -1  19   1
M  END
>  <UniqueID>  (48) 
44

>  <SMILES>  (48) 
CS(=O)(=O)[N-]c1ccc(F)cc1Cn1ccc2c[nH+]ccc21

>  <Energy>  (48) 
70.74591794460713

>  <Genealogy>  (48) 
CS(=O)(=O)[N-]c1ccc(F)cc1Cn1ccc2c[nH+]ccc21 (protonated)
CS(=O)(=O)[N-]c1ccc(F)cc1Cn1ccc2c[nH+]ccc21 (3D coordinates assigned)
CS(=O)(=O)[N-]c1ccc(F)cc1Cn1ccc2c[nH+]ccc21 (optimized conformer: 70.74591794460713 kcal/mol)

>  <smiles>  (48) 
CS(=O)(=O)Nc1ccc(F)cc1Cn1ccc2cnccc21

>  <score_type>  (48) 
oracle

>  <origin>  (48) 
adg

>  <m_score__min__energy>  (48) 
-8.1199999999999992

>  <m_primary>  (48) 
energy

$$$$
48:0
     RDKit          3D

 28 30  0  0  0  0  0  0  0  0999 V2000
   55.5200   29.7160   43.7650 C   0  0  0  0  0  0  0  0  0  0  0  0
   56.9280   29.9320   44.3220 C   0  0  1  0  0  0  0  0  0  0  0  0
   57.0170   31.2660   44.8390 O   0  0  0  0  0  0  0  0  0  0  0  0
   57.9330   31.6570   45.8250 C   0  0  0  0  0  0  0  0  0  0  0  0
   58.5410   30.6890   46.6540 C   0  0  0  0  0  0  0  0  0  0  0  0
   59.4520   31.0910   47.6510 C   0  0  0  0  0  0  0  0  0  0  0  0
   59.7330   32.4500   47.7990 C   0  0  0  0  0  0  0  0  0  0  0  0
   59.1340   33.3920   47.0020 C   0  0  0  0  0  0  0  0  0  0  0  0
   58.2220   33.0230   46.0050 C   0  0  0  0  0  0  0  0  0  0  0  0
   57.4570   34.2390   44.9910 Cl  0  0  0  0  0  0  0  0  0  0  0  0
   59.5750   34.7660   47.3460 C   0  0  0  0  0  0  0  0  0  0  0  0
   60.5740   34.5650   48.5010 C   0  0  0  0  0  0  0  0  0  0  0  0
   60.6540   33.0540   48.7870 C   0  0  0  0  0  0  0  0  0  0  0  0
   58.1660   29.2760   46.4810 C   0  0  0  0  0  0  0  0  0  0  0  0
   58.5890   28.3920   47.2750 O   0  0  0  0  0  0  0  0  0  0  0  0
   57.2790   28.9020   45.3710 C   0  0  0  0  0  0  0  0  0  0  0  0
   56.8980   27.7070   45.2470 O   0  0  0  0  0  0  0  0  0  0  0  0
   54.8092   29.6069   44.5973 H   0  0  0  0  0  0  0  0  0  0  0  0
   55.2329   30.5806   43.1485 H   0  0  0  0  0  0  0  0  0  0  0  0
   55.5053   28.8051   43.1485 H   0  0  0  0  0  0  0  0  0  0  0  0
   57.6621   29.8055   43.5126 H   0  0  0  0  0  0  0  0  0  0  0  0
   59.9336   30.3462   48.3017 H   0  0  0  0  0  0  0  0  0  0  0  0
   60.0649   35.2452   46.4856 H   0  0  0  0  0  0  0  0  0  0  0  0
   58.7357   35.4203   47.6244 H   0  0  0  0  0  0  0  0  0  0  0  0
   61.5646   34.9452   48.2110 H   0  0  0  0  0  0  0  0  0  0  0  0
   60.2450   35.1117   49.3970 H   0  0  0  0  0  0  0  0  0  0  0  0
   61.6794   32.6831   48.6425 H   0  0  0  0  0  0  0  0  0  0  0  0
   60.3826   32.8058   49.8237 H   0  0  0  0  0  0  0  0  0  0  0  0
  1  2  1  0
  2  3  1  0
  3  4  1  0
  4  5  2  0
  5  6  1  0
  6  7  2  0
  7  8  1  0
  8  9  2  0
  9 10  1  0
  8 11  1  0
 11 12  1  0
 12 13  1  0
  5 14  1  0
 14 15  2  0
 14 16  1  0
 16 17  2  0
 16  2  1  0
  9  4  1  0
 13  7  1  0
  1 18  1  0
  1 19  1  0
  1 20  1  0
  2 21  1  6
  6 22  1  0
 11 23  1  0
 11 24  1  0
 12 25  1  0
 12 26  1  0
 13 27  1  0
 13 28  1  0
M  END
>  <UniqueID>  (49) 
45

>  <SMILES>  (49) 
C[C@H]1Oc2c(cc3c(c2Cl)CCC3)C(=O)C1=O

>  <Energy>  (49) 
37.78754018069253

>  <Genealogy>  (49) 
C[C@H]1Oc2c(cc3c(c2Cl)CCC3)C(=O)C1=O (chirality)
C[C@H]1Oc2c(cc3c(c2Cl)CCC3)C(=O)C1=O (3D coordinates assigned)
C[C@H]1Oc2c(cc3c(c2Cl)CCC3)C(=O)C1=O (nonaromatic ring conformer: 37.78754018069253 kcal/mol)

>  <smiles>  (49) 
CC1Oc2c(cc3c(c2Cl)CCC3)C(=O)C1=O

>  <score_type>  (49) 
oracle

>  <origin>  (49) 
adg

>  <m_score__min__energy>  (49) 
-6.8600000000000003

>  <m_primary>  (49) 
energy

$$$$
