0:0
     RDKit          3D

 34 36  0  0  0  0  0  0  0  0999 V2000
   60.2870   29.7730   48.1410 C   0  0  0  0  0  0  0  0  0  0  0  0
   60.7330   30.3190   46.7850 C   0  0  0  0  0  0  0  0  0  0  0  0
   59.7210   31.2500   46.2280 N   0  0  0  0  0  0  0  0  0  0  0  0
   59.8230   32.6020   46.5010 C   0  0  0  0  0  0  0  0  0  0  0  0
   60.9250   33.1680   47.3080 C   0  0  0  0  0  0  0  0  0  0  0  0
   62.2080   33.3000   46.7550 C   0  0  0  0  0  0  0  0  0  0  0  0
   63.2510   33.8270   47.5240 C   0  0  0  0  0  0  0  0  0  0  0  0
   63.0190   34.2150   48.8460 C   0  0  0  0  0  0  0  0  0  0  0  0
   61.7450   34.0740   49.4040 C   0  0  0  0  0  0  0  0  0  0  0  0
   60.6990   33.5480   48.6390 C   0  0  0  0  0  0  0  0  0  0  0  0
   58.8730   33.5030   46.0160 C   0  0  0  0  0  0  0  0  0  0  0  0
   57.8150   33.0570   45.2400 C   0  0  0  0  0  0  0  0  0  0  0  0
   56.9650   33.8900   44.8230 O   0  0  0  0  0  0  0  0  0  0  0  0
   57.7100   31.6960   44.9250 C   0  0  0  0  0  0  0  0  0  0  0  0
   56.6520   31.2280   44.1210 C   0  0  0  0  0  0  0  0  0  0  0  0
   56.5590   29.8800   43.7890 C   0  0  0  0  0  0  0  0  0  0  0  0
   57.5180   28.9830   44.2450 C   0  0  0  0  0  0  0  0  0  0  0  0
   58.5730   29.4230   45.0470 C   0  0  0  0  0  0  0  0  0  0  0  0
   58.6910   30.7880   45.4190 C   0  0  0  0  0  0  0  0  0  0  0  0
   60.7621   30.3546   48.9447 H   0  0  0  0  0  0  0  0  0  0  0  0
   59.1934   29.8539   48.2271 H   0  0  0  0  0  0  0  0  0  0  0  0
   60.5845   28.7175   48.2271 H   0  0  0  0  0  0  0  0  0  0  0  0
   61.6855   30.8551   46.9087 H   0  0  0  0  0  0  0  0  0  0  0  0
   60.8533   29.4752   46.0897 H   0  0  0  0  0  0  0  0  0  0  0  0
   62.3936   32.9889   45.7164 H   0  0  0  0  0  0  0  0  0  0  0  0
   64.2548   33.9360   47.0874 H   0  0  0  0  0  0  0  0  0  0  0  0
   63.8396   34.6318   49.4484 H   0  0  0  0  0  0  0  0  0  0  0  0
   61.5650   34.3771   50.4460 H   0  0  0  0  0  0  0  0  0  0  0  0
   59.6986   33.4323   49.0814 H   0  0  0  0  0  0  0  0  0  0  0  0
   58.9650   34.5736   46.2513 H   0  0  0  0  0  0  0  0  0  0  0  0
   55.8932   31.9341   43.7527 H   0  0  0  0  0  0  0  0  0  0  0  0
   55.7259   29.5239   43.1652 H   0  0  0  0  0  0  0  0  0  0  0  0
   57.4454   27.9198   43.9723 H   0  0  0  0  0  0  0  0  0  0  0  0
   59.3250   28.7001   45.3963 H   0  0  0  0  0  0  0  0  0  0  0  0
  1  2  1  0
  2  3  1  0
  3  4  1  0
  4  5  1  0
  5  6  2  0
  6  7  1  0
  7  8  2  0
  8  9  1  0
  9 10  2  0
  4 11  2  0
 11 12  1  0
 12 13  2  0
 12 14  1  0
 14 15  2  0
 15 16  1  0
 16 17  2  0
 17 18  1  0
 18 19  2  0
 19  3  1  0
 10  5  1  0
 19 14  1  0
  1 20  1  0
  1 21  1  0
  1 22  1  0
  2 23  1  0
  2 24  1  0
  6 25  1  0
  7 26  1  0
  8 27  1  0
  9 28  1  0
 10 29  1  0
 11 30  1  0
 15 31  1  0
 16 32  1  0
 17 33  1  0
 18 34  1  0
M  END
>  <UniqueID>  (1) 
1

>  <SMILES>  (1) 
CCn1c(-c2ccccc2)cc(=O)c2ccccc21

>  <Energy>  (1) 
54.82250345760201

>  <Genealogy>  (1) 
CCn1c(-c2ccccc2)cc(=O)c2ccccc21 (3D coordinates assigned)
CCn1c(-c2ccccc2)cc(=O)c2ccccc21 (optimized conformer: 54.82250345760201 kcal/mol)

>  <smiles>  (1) 
CCn1c(-c2ccccc2)cc(=O)c2ccccc21

>  <score_type>  (1) 
oracle

>  <origin>  (1) 
adg

>  <m_score__min__energy>  (1) 
-6.7199999999999998

>  <m_primary>  (1) 
energy

$$$$
1:0
     RDKit          3D

 46 49  0  0  0  0  0  0  0  0999 V2000
   61.8360   30.9130   47.1350 C   0  0  0  0  0  0  0  0  0  0  0  0
   62.9650   31.9380   47.1250 C   0  0  0  0  0  0  0  0  0  0  0  0
   62.7960   32.9060   48.2120 N   0  0  0  0  0  0  0  0  0  0  0  0
   61.7180   33.6910   48.4870 C   0  0  0  0  0  0  0  0  0  0  0  0
   60.5260   33.7300   47.6910 N   0  0  0  0  0  0  0  0  0  0  0  0
   59.2460   33.2800   48.2520 C   0  0  0  0  0  0  0  0  0  0  0  0
   58.4930   32.4080   47.2370 C   0  0  0  0  0  0  0  0  0  0  0  0
   58.5580   32.9690   45.8770 N   0  0  0  0  0  0  0  0  0  0  0  0
   58.0260   32.2140   44.7730 C   0  0  0  0  0  0  0  0  0  0  0  0
   58.1080   32.7150   43.4620 C   0  0  0  0  0  0  0  0  0  0  0  0
   57.5790   31.9840   42.3940 C   0  0  0  0  0  0  0  0  0  0  0  0
   56.9610   30.7520   42.6240 C   0  0  0  0  0  0  0  0  0  0  0  0
   56.8690   30.2500   43.9240 C   0  0  0  0  0  0  0  0  0  0  0  0
   57.3970   30.9770   44.9960 C   0  0  0  0  0  0  0  0  0  0  0  0
   59.2370   34.2500   45.6470 C   0  0  0  0  0  0  0  0  0  0  0  0
   60.6150   34.2250   46.3120 C   0  0  0  0  0  0  0  0  0  0  0  0
   61.8600   34.4050   49.6300 N   0  0  0  0  0  0  0  0  0  0  0  0
   63.0790   34.0630   50.0790 C   0  0  0  0  0  0  0  0  0  0  0  0
   63.7230   34.5010   51.2340 C   0  0  0  0  0  0  0  0  0  0  0  0
   64.9990   33.9740   51.5080 C   0  0  0  0  0  0  0  0  0  0  0  0
   65.5870   33.0310   50.6350 C   0  0  0  0  0  0  0  0  0  0  0  0
   64.9080   32.6070   49.4770 C   0  0  0  0  0  0  0  0  0  0  0  0
   63.6470   33.1560   49.2280 C   0  0  0  0  0  0  0  0  0  0  0  0
   61.5696   30.6711   48.1745 H   0  0  0  0  0  0  0  0  0  0  0  0
   60.9583   31.3292   46.6189 H   0  0  0  0  0  0  0  0  0  0  0  0
   62.1657   29.9993   46.6189 H   0  0  0  0  0  0  0  0  0  0  0  0
   63.9260   31.4178   47.2510 H   0  0  0  0  0  0  0  0  0  0  0  0
   62.9451   32.4764   46.1660 H   0  0  0  0  0  0  0  0  0  0  0  0
   59.4359   32.6936   49.1631 H   0  0  0  0  0  0  0  0  0  0  0  0
   58.6318   34.1609   48.4903 H   0  0  0  0  0  0  0  0  0  0  0  0
   58.9413   31.4035   47.2293 H   0  0  0  0  0  0  0  0  0  0  0  0
   57.4361   32.3679   47.5394 H   0  0  0  0  0  0  0  0  0  0  0  0
   58.5903   33.6859   43.2757 H   0  0  0  0  0  0  0  0  0  0  0  0
   57.6495   32.3797   41.3701 H   0  0  0  0  0  0  0  0  0  0  0  0
   56.5473   30.1780   41.7818 H   0  0  0  0  0  0  0  0  0  0  0  0
   56.3805   29.2812   44.1052 H   0  0  0  0  0  0  0  0  0  0  0  0
   57.3196   30.5787   46.0184 H   0  0  0  0  0  0  0  0  0  0  0  0
   59.3549   34.4133   44.5656 H   0  0  0  0  0  0  0  0  0  0  0  0
   58.6371   35.0650   46.0782 H   0  0  0  0  0  0  0  0  0  0  0  0
   61.2804   33.5655   45.7356 H   0  0  0  0  0  0  0  0  0  0  0  0
   61.0119   35.2507   46.3333 H   0  0  0  0  0  0  0  0  0  0  0  0
   61.1790   35.0670   50.0630 H   0  0  0  0  0  0  0  0  0  0  0  0
   63.2515   35.2320   51.9073 H   0  0  0  0  0  0  0  0  0  0  0  0
   65.5423   34.2984   52.4078 H   0  0  0  0  0  0  0  0  0  0  0  0
   66.5837   32.6249   50.8622 H   0  0  0  0  0  0  0  0  0  0  0  0
   65.3538   31.8701   48.7927 H   0  0  0  0  0  0  0  0  0  0  0  0
  1  2  1  0
  2  3  1  0
  3  4  1  0
  4  5  1  0
  5  6  1  0
  6  7  1  0
  7  8  1  0
  8  9  1  0
  9 10  2  0
 10 11  1  0
 11 12  2  0
 12 13  1  0
 13 14  2  0
  8 15  1  0
 15 16  1  0
  4 17  2  0
 17 18  1  0
 18 19  2  0
 19 20  1  0
 20 21  2  0
 21 22  1  0
 22 23  2  0
 23  3  1  0
 16  5  1  0
 23 18  1  0
 14  9  1  0
  1 24  1  0
  1 25  1  0
  1 26  1  0
  2 27  1  0
  2 28  1  0
  6 29  1  0
  6 30  1  0
  7 31  1  0
  7 32  1  0
 10 33  1  0
 11 34  1  0
 12 35  1  0
 13 36  1  0
 14 37  1  0
 15 38  1  0
 15 39  1  0
 16 40  1  0
 16 41  1  0
 17 42  1  0
 19 43  1  0
 20 44  1  0
 21 45  1  0
 22 46  1  0
M  CHG  1  17   1
M  END
>  <UniqueID>  (2) 
2

>  <SMILES>  (2) 
CCn1c(N2CCN(c3ccccc3)CC2)[nH+]c2ccccc21

>  <Energy>  (2) 
93.83202840776639

>  <Genealogy>  (2) 
CCn1c(N2CCN(c3ccccc3)CC2)[nH+]c2ccccc21 (protonated)
CCn1c(N2CCN(c3ccccc3)CC2)[nH+]c2ccccc21 (3D coordinates assigned)
CCn1c(N2CCN(c3ccccc3)CC2)[nH+]c2ccccc21 (nonaromatic ring conformer: 93.83202840776639 kcal/mol)

>  <smiles>  (2) 
CCn1c(N2CCN(c3ccccc3)CC2)nc2ccccc21

>  <score_type>  (2) 
oracle

>  <origin>  (2) 
adg

>  <m_score__min__energy>  (2) 
-5.9800000000000004

>  <m_primary>  (2) 
energy

$$$$
2:0
     RDKit          3D

 40 40  0  0  0  0  0  0  0  0999 V2000
   57.4153   30.6340   43.0469 H   0  0  0  0  0  0  0  0  0  0  0  0
   57.0060   30.8490   44.0450 C   0  0  0  0  0  0  0  0  0  0  0  0
   56.4250   29.7410   44.8370 C   0  0  0  0  0  0  0  0  0  0  0  0
   55.3240   29.2360   44.4900 O   0  0  0  0  0  0  0  0  0  0  0  0
   57.0850   29.2000   45.9900 N   0  0  0  0  0  0  0  0  0  0  0  0
   58.4800   28.7720   46.0990 C   0  0  0  0  0  0  0  0  0  0  0  0
   58.7520   28.7033   47.1626 H   0  0  0  0  0  0  0  0  0  0  0  0
   59.1117   29.5104   45.5835 H   0  0  0  0  0  0  0  0  0  0  0  0
   58.6960   27.3970   45.4350 C   0  0  0  0  0  0  0  0  0  0  0  0
   59.0970   26.7066   46.1916 H   0  0  0  0  0  0  0  0  0  0  0  0
   59.3893   27.5540   44.5955 H   0  0  0  0  0  0  0  0  0  0  0  0
   57.4570   26.7990   44.8650 N   0  0  0  0  0  0  0  0  0  0  0  0
   56.8230   27.5770   44.5740 H   0  0  0  0  0  0  0  0  0  0  0  0
   57.7600   26.0000   43.6480 C   0  0  0  0  0  0  0  0  0  0  0  0
   56.8688   25.4138   43.3796 H   0  0  0  0  0  0  0  0  0  0  0  0
   58.6164   25.3495   43.8790 H   0  0  0  0  0  0  0  0  0  0  0  0
   58.1500   26.8790   42.4520 C   0  0  0  0  0  0  0  0  0  0  0  0
   58.5710   27.8278   42.8161 H   0  0  0  0  0  0  0  0  0  0  0  0
   58.9003   26.3554   41.8413 H   0  0  0  0  0  0  0  0  0  0  0  0
   57.2583   27.0839   41.8413 H   0  0  0  0  0  0  0  0  0  0  0  0
   56.6870   25.9970   45.8560 C   0  0  0  0  0  0  0  0  0  0  0  0
   55.8417   26.6077   46.2061 H   0  0  0  0  0  0  0  0  0  0  0  0
   56.3769   25.0796   45.3342 H   0  0  0  0  0  0  0  0  0  0  0  0
   57.4880   25.5410   47.0870 C   0  0  0  0  0  0  0  0  0  0  0  0
   56.9575   25.8430   48.0021 H   0  0  0  0  0  0  0  0  0  0  0  0
   57.5954   24.4464   47.0697 H   0  0  0  0  0  0  0  0  0  0  0  0
   58.4841   26.0074   47.0697 H   0  0  0  0  0  0  0  0  0  0  0  0
   57.0480   32.1060   44.5080 C   0  0  0  0  0  0  0  0  0  0  0  0
   56.3207   32.8301   44.1120 H   0  0  0  0  0  0  0  0  0  0  0  0
   58.0210   32.5750   45.5250 C   0  0  0  0  0  0  0  0  0  0  0  0
   58.8070   33.7040   45.2350 C   0  0  0  0  0  0  0  0  0  0  0  0
   58.6967   34.2113   44.2652 H   0  0  0  0  0  0  0  0  0  0  0  0
   59.7280   34.1870   46.1700 C   0  0  0  0  0  0  0  0  0  0  0  0
   60.3447   35.0654   45.9291 H   0  0  0  0  0  0  0  0  0  0  0  0
   59.8670   33.5570   47.4090 C   0  0  0  0  0  0  0  0  0  0  0  0
   61.1230   34.2230   48.6850 Br  0  0  0  0  0  0  0  0  0  0  0  0
   59.0790   32.4460   47.7170 C   0  0  0  0  0  0  0  0  0  0  0  0
   59.1834   31.9541   48.6953 H   0  0  0  0  0  0  0  0  0  0  0  0
   58.1580   31.9570   46.7860 C   0  0  0  0  0  0  0  0  0  0  0  0
   57.5364   31.0852   47.0380 H   0  0  0  0  0  0  0  0  0  0  0  0
  1  2  1  0
  2  3  1  0
  3  4  2  0
  3  5  1  0
  5  6  1  0
  6  7  1  0
  6  8  1  0
  6  9  1  0
  9 10  1  0
  9 11  1  0
  9 12  1  0
 12 13  1  0
 12 14  1  0
 14 15  1  0
 14 16  1  0
 14 17  1  0
 17 18  1  0
 17 19  1  0
 17 20  1  0
 12 21  1  0
 21 22  1  0
 21 23  1  0
 21 24  1  0
 24 25  1  0
 24 26  1  0
 24 27  1  0
  2 28  2  0
 28 29  1  0
 28 30  1  0
 30 31  2  0
 31 32  1  0
 31 33  1  0
 33 34  1  0
 33 35  2  0
 35 36  1  0
 35 37  1  0
 37 38  1  0
 37 39  2  0
 39 40  1  0
 39 30  1  0
M  CHG  2   5  -1  12   1
M  END
>  <UniqueID>  (3) 
3

>  <SMILES>  (3) 
CC[NH+](CC)CC[N-]C(=O)/C=C/c1ccc(Br)cc1

>  <Energy>  (3) 
42.18420216284816

>  <Genealogy>  (3) 
CC[NH+](CC)CC[N-]C(=O)C=Cc1ccc(Br)cc1 (protonated)
CC[NH+](CC)CC[N-]C(=O)/C=C/c1ccc(Br)cc1 (cis-trans isomerization)
CC[NH+](CC)CC[N-]C(=O)/C=C/c1ccc(Br)cc1 (3D coordinates assigned)
CC[NH+](CC)CC[N-]C(=O)/C=C/c1ccc(Br)cc1 (optimized conformer: 42.18420216284816 kcal/mol)

>  <smiles>  (3) 
CCN(CC)CCNC(=O)C=Cc1ccc(Br)cc1

>  <score_type>  (3) 
oracle

>  <origin>  (3) 
adg

>  <m_score__min__energy>  (3) 
-6.8200000000000003

>  <m_primary>  (3) 
energy

$$$$
3:0
     RDKit          3D

 49 51  0  0  0  0  0  0  0  0999 V2000
   56.6250   30.4140   42.8960 C   0  0  0  0  0  0  0  0  0  0  0  0
   56.2760   30.1930   44.3670 C   0  0  0  0  0  0  0  0  0  0  0  0
   57.2690   30.8270   45.2630 N   0  0  0  0  0  0  0  0  0  0  0  0
   58.1410   29.8390   45.9330 C   0  0  0  0  0  0  0  0  0  0  0  0
   59.6010   30.1330   45.6100 C   0  0  0  0  0  0  0  0  0  0  0  0
   57.9870   32.0080   44.7110 C   0  0  0  0  0  0  0  0  0  0  0  0
   57.4740   33.4000   45.1560 C   0  0  0  0  0  0  0  0  0  0  0  0
   57.9790   33.8720   46.5250 C   0  0  0  0  0  0  0  0  0  0  0  0
   58.4170   32.7430   47.3470 N   0  0  0  0  0  0  0  0  0  0  0  0
   59.4230   32.8750   48.3670 C   0  0  0  0  0  0  0  0  0  0  0  0
   60.7640   33.1920   48.0400 C   0  0  0  0  0  0  0  0  0  0  0  0
   61.1650   33.3500   46.6960 C   0  0  0  0  0  0  0  0  0  0  0  0
   62.4810   33.6730   46.3790 C   0  0  0  0  0  0  0  0  0  0  0  0
   63.4220   33.8480   47.3890 C   0  0  0  0  0  0  0  0  0  0  0  0
   63.0550   33.7050   48.7260 C   0  0  0  0  0  0  0  0  0  0  0  0
   61.7240   33.3810   49.0870 C   0  0  0  0  0  0  0  0  0  0  0  0
   61.3480   33.2510   50.4130 N   0  0  0  0  0  0  0  0  0  0  0  0
   62.3140   33.4680   51.5050 C   0  0  0  0  0  0  0  0  0  0  0  0
   60.0560   32.8980   50.6940 C   0  0  0  0  0  0  0  0  0  0  0  0
   59.3640   32.6000   52.2040 S   0  0  0  0  0  0  0  0  0  0  0  0
   57.8370   32.1980   51.6180 C   0  0  0  0  0  0  0  0  0  0  0  0
   57.8530   32.2900   50.2310 C   0  0  0  0  0  0  0  0  0  0  0  0
   59.0970   32.6970   49.7150 C   0  0  0  0  0  0  0  0  0  0  0  0
   57.5523   31.0012   42.8234 H   0  0  0  0  0  0  0  0  0  0  0  0
   56.7675   29.4411   42.4028 H   0  0  0  0  0  0  0  0  0  0  0  0
   55.8065   30.9588   42.4028 H   0  0  0  0  0  0  0  0  0  0  0  0
   55.2853   30.6268   44.5681 H   0  0  0  0  0  0  0  0  0  0  0  0
   56.2775   29.1105   44.5624 H   0  0  0  0  0  0  0  0  0  0  0  0
   57.9892   29.8970   47.0209 H   0  0  0  0  0  0  0  0  0  0  0  0
   57.8869   28.8302   45.5755 H   0  0  0  0  0  0  0  0  0  0  0  0
   60.1678   30.2471   46.5458 H   0  0  0  0  0  0  0  0  0  0  0  0
   60.0218   29.3016   45.0255 H   0  0  0  0  0  0  0  0  0  0  0  0
   59.6672   31.0625   45.0255 H   0  0  0  0  0  0  0  0  0  0  0  0
   59.0418   31.9286   45.0127 H   0  0  0  0  0  0  0  0  0  0  0  0
   57.8178   31.9695   43.6248 H   0  0  0  0  0  0  0  0  0  0  0  0
   57.7911   34.1367   44.4032 H   0  0  0  0  0  0  0  0  0  0  0  0
   56.3815   33.3093   45.2470 H   0  0  0  0  0  0  0  0  0  0  0  0
   58.8260   34.5582   46.3777 H   0  0  0  0  0  0  0  0  0  0  0  0
   57.1530   34.3803   47.0440 H   0  0  0  0  0  0  0  0  0  0  0  0
   58.0880   31.7870   47.0830 H   0  0  0  0  0  0  0  0  0  0  0  0
   60.4288   33.2163   45.8897 H   0  0  0  0  0  0  0  0  0  0  0  0
   62.7783   33.7904   45.3265 H   0  0  0  0  0  0  0  0  0  0  0  0
   64.4610   34.1005   47.1309 H   0  0  0  0  0  0  0  0  0  0  0  0
   63.8105   33.8459   49.5130 H   0  0  0  0  0  0  0  0  0  0  0  0
   61.8047   33.3536   52.4732 H   0  0  0  0  0  0  0  0  0  0  0  0
   63.1260   32.7299   51.4283 H   0  0  0  0  0  0  0  0  0  0  0  0
   62.7323   34.4825   51.4283 H   0  0  0  0  0  0  0  0  0  0  0  0
   56.9704   31.9103   52.2313 H   0  0  0  0  0  0  0  0  0  0  0  0
   56.9801   32.0669   49.5999 H   0  0  0  0  0  0  0  0  0  0  0  0
  1  2  1  0
  2  3  1  0
  3  4  1  0
  4  5  1  0
  3  6  1  0
  6  7  1  0
  7  8  1  0
  8  9  1  0
  9 10  1  0
 10 11  2  0
 11 12  1  0
 12 13  2  0
 13 14  1  0
 14 15  2  0
 15 16  1  0
 16 17  2  0
 17 18  1  0
 17 19  1  0
 19 20  1  0
 20 21  1  0
 21 22  2  0
 22 23  1  0
 23 10  1  0
 16 11  1  0
 23 19  2  0
  1 24  1  0
  1 25  1  0
  1 26  1  0
  2 27  1  0
  2 28  1  0
  4 29  1  0
  4 30  1  0
  5 31  1  0
  5 32  1  0
  5 33  1  0
  6 34  1  0
  6 35  1  0
  7 36  1  0
  7 37  1  0
  8 38  1  0
  8 39  1  0
  9 40  1  0
 12 41  1  0
 13 42  1  0
 14 43  1  0
 15 44  1  0
 18 45  1  0
 18 46  1  0
 18 47  1  0
 21 48  1  0
 22 49  1  0
M  CHG  1  17   1
M  END
>  <UniqueID>  (4) 
4

>  <SMILES>  (4) 
CCN(CC)CCCNc1c2ccccc2[n+](C)c2sccc12

>  <Energy>  (4) 
96.30495822743886

>  <Genealogy>  (4) 
CCN(CC)CCCNc1c2ccccc2[n+](C)c2sccc12 (3D coordinates assigned)
CCN(CC)CCCNc1c2ccccc2[n+](C)c2sccc12 (optimized conformer: 96.30495822743886 kcal/mol)

>  <smiles>  (4) 
CCN(CC)CCCNc1c2ccccc2[n+](C)c2sccc12

>  <score_type>  (4) 
oracle

>  <origin>  (4) 
adg

>  <m_score__min__energy>  (4) 
-5.4199999999999999

>  <m_primary>  (4) 
energy

$$$$
4:0
     RDKit          3D

 46 47  0  0  0  0  0  0  0  0999 V2000
   63.7690   33.1100   47.1270 C   0  0  0  0  0  0  0  0  0  0  0  0
   62.4810   33.8280   46.7020 C   0  0  0  0  0  0  0  0  0  0  0  0
   61.2170   33.2890   47.2810 N   0  0  0  0  0  0  0  0  0  0  0  0
   61.3170   31.9430   47.9130 C   0  0  0  0  0  0  0  0  0  0  0  0
   60.3670   31.6850   49.0910 C   0  0  0  0  0  0  0  0  0  0  0  0
   60.3540   34.2770   47.9910 C   0  0  0  0  0  0  0  0  0  0  0  0
   59.2870   34.9740   47.1280 C   0  0  0  0  0  0  0  0  0  0  0  0
   59.6210   34.7980   45.7070 N   0  0  0  0  0  0  0  0  0  0  0  0
   58.5020   34.2570   44.9160 C   0  0  0  0  0  0  0  0  0  0  0  0
   58.4850   32.7140   44.8310 C   0  0  2  0  0  0  0  0  0  0  0  0
   57.4500   32.2350   43.7750 C   0  0  0  0  0  0  0  0  0  0  0  0
   56.9120   30.7950   43.9740 C   0  0  0  0  0  0  0  0  0  0  0  0
   57.8980   29.8900   44.6670 C   0  0  0  0  0  0  0  0  0  0  0  0
   58.2150   28.6230   44.1500 C   0  0  0  0  0  0  0  0  0  0  0  0
   59.1660   27.8230   44.7910 C   0  0  0  0  0  0  0  0  0  0  0  0
   59.8090   28.2840   45.9450 C   0  0  0  0  0  0  0  0  0  0  0  0
   59.4910   29.5410   46.4690 C   0  0  0  0  0  0  0  0  0  0  0  0
   58.5180   30.3300   45.8460 C   0  0  0  0  0  0  0  0  0  0  0  0
   58.1360   31.9690   46.4690 S   0  0  0  0  0  0  0  0  0  0  0  0
   63.8259   33.0783   48.2251 H   0  0  0  0  0  0  0  0  0  0  0  0
   63.7649   32.0840   46.7303 H   0  0  0  0  0  0  0  0  0  0  0  0
   64.6395   33.6530   46.7303 H   0  0  0  0  0  0  0  0  0  0  0  0
   62.5674   34.8826   47.0028 H   0  0  0  0  0  0  0  0  0  0  0  0
   62.3998   33.6782   45.6153 H   0  0  0  0  0  0  0  0  0  0  0  0
   60.6520   33.0850   46.4190 H   0  0  0  0  0  0  0  0  0  0  0  0
   61.1066   31.1904   47.1389 H   0  0  0  0  0  0  0  0  0  0  0  0
   62.3330   31.8841   48.3305 H   0  0  0  0  0  0  0  0  0  0  0  0
   60.9081   31.8319   50.0374 H   0  0  0  0  0  0  0  0  0  0  0  0
   59.5207   32.3858   49.0398 H   0  0  0  0  0  0  0  0  0  0  0  0
   59.9915   30.6523   49.0398 H   0  0  0  0  0  0  0  0  0  0  0  0
   59.8373   33.7497   48.8065 H   0  0  0  0  0  0  0  0  0  0  0  0
   61.0304   35.0743   48.3328 H   0  0  0  0  0  0  0  0  0  0  0  0
   58.3017   34.5295   47.3317 H   0  0  0  0  0  0  0  0  0  0  0  0
   59.2599   36.0467   47.3702 H   0  0  0  0  0  0  0  0  0  0  0  0
   59.9340   35.7130   45.3080 H   0  0  0  0  0  0  0  0  0  0  0  0
   57.5598   34.5891   45.3763 H   0  0  0  0  0  0  0  0  0  0  0  0
   58.6252   34.6324   43.8894 H   0  0  0  0  0  0  0  0  0  0  0  0
   59.4833   32.3788   44.5131 H   0  0  0  0  0  0  0  0  0  0  0  0
   56.5930   32.9240   43.8035 H   0  0  0  0  0  0  0  0  0  0  0  0
   57.9817   32.2286   42.8120 H   0  0  0  0  0  0  0  0  0  0  0  0
   55.9949   30.8437   44.5795 H   0  0  0  0  0  0  0  0  0  0  0  0
   56.7223   30.3731   42.9760 H   0  0  0  0  0  0  0  0  0  0  0  0
   57.7147   28.2598   43.2401 H   0  0  0  0  0  0  0  0  0  0  0  0
   59.4091   26.8291   44.3871 H   0  0  0  0  0  0  0  0  0  0  0  0
   60.5652   27.6573   46.4404 H   0  0  0  0  0  0  0  0  0  0  0  0
   60.0050   29.9087   47.3694 H   0  0  0  0  0  0  0  0  0  0  0  0
  1  2  1  0
  2  3  1  0
  3  4  1  0
  4  5  1  0
  3  6  1  0
  6  7  1  0
  7  8  1  0
  8  9  1  0
  9 10  1  0
 10 11  1  0
 11 12  1  0
 12 13  1  0
 13 14  2  0
 14 15  1  0
 15 16  2  0
 16 17  1  0
 17 18  2  0
 18 19  1  0
 19 10  1  0
 18 13  1  0
  1 20  1  0
  1 21  1  0
  1 22  1  0
  2 23  1  0
  2 24  1  0
  3 25  1  0
  4 26  1  0
  4 27  1  0
  5 28  1  0
  5 29  1  0
  5 30  1  0
  6 31  1  0
  6 32  1  0
  7 33  1  0
  7 34  1  0
  8 35  1  0
  9 36  1  0
  9 37  1  0
 10 38  1  6
 11 39  1  0
 11 40  1  0
 12 41  1  0
 12 42  1  0
 14 43  1  0
 15 44  1  0
 16 45  1  0
 17 46  1  0
M  CHG  1   3   1
M  END
>  <UniqueID>  (5) 
5

>  <SMILES>  (5) 
CC[NH+](CC)CCNC[C@@H]1CCc2ccccc2S1

>  <Energy>  (5) 
63.39240156243612

>  <Genealogy>  (5) 
CC[NH+](CC)CCNCC1CCc2ccccc2S1 (protonated)
CC[NH+](CC)CCNC[C@@H]1CCc2ccccc2S1 (chirality)
CC[NH+](CC)CCNC[C@@H]1CCc2ccccc2S1 (3D coordinates assigned)
CC[NH+](CC)CCNC[C@@H]1CCc2ccccc2S1 (nonaromatic ring conformer: 63.39240156243612 kcal/mol)

>  <smiles>  (5) 
CCN(CC)CCNCC1CCc2ccccc2S1

>  <score_type>  (5) 
oracle

>  <origin>  (5) 
adg

>  <m_score__min__energy>  (5) 
-5.8300000000000001

>  <m_primary>  (5) 
energy

$$$$
5:0
     RDKit          3D

 37 38  0  0  0  0  0  0  0  0999 V2000
   64.1480   32.8530   48.6340 C   0  0  0  0  0  0  0  0  0  0  0  0
   63.5270   33.3510   47.3270 C   0  0  0  0  0  0  0  0  0  0  0  0
   62.0700   33.5660   47.4360 N   0  0  0  0  0  0  0  0  0  0  0  0
   61.5810   33.6720   48.8250 C   0  0  0  0  0  0  0  0  0  0  0  0
   60.3480   34.5870   48.9950 C   0  0  0  0  0  0  0  0  0  0  0  0
   59.2370   34.3420   47.9560 C   0  0  0  0  0  0  0  0  0  0  0  0
   59.7310   33.8590   46.7020 O   0  0  0  0  0  0  0  0  0  0  0  0
   59.0620   33.0160   45.7950 C   0  0  0  0  0  0  0  0  0  0  0  0
   58.5200   33.6320   44.6620 C   0  0  0  0  0  0  0  0  0  0  0  0
   57.7750   32.9100   43.7370 C   0  0  0  0  0  0  0  0  0  0  0  0
   57.5700   31.5400   43.9140 C   0  0  0  0  0  0  0  0  0  0  0  0
   56.8030   30.8220   42.9820 C   0  0  0  0  0  0  0  0  0  0  0  0
   56.6030   29.4520   43.1430 C   0  0  0  0  0  0  0  0  0  0  0  0
   57.1670   28.7860   44.2310 C   0  0  0  0  0  0  0  0  0  0  0  0
   57.9330   29.4860   45.1660 C   0  0  0  0  0  0  0  0  0  0  0  0
   58.1480   30.8750   45.0270 C   0  0  0  0  0  0  0  0  0  0  0  0
   58.9230   31.6130   45.9610 C   0  0  0  0  0  0  0  0  0  0  0  0
   59.8920   30.6820   47.3440 Br  0  0  0  0  0  0  0  0  0  0  0  0
   63.6058   33.2878   49.4866 H   0  0  0  0  0  0  0  0  0  0  0  0
   64.0804   31.7559   48.6774 H   0  0  0  0  0  0  0  0  0  0  0  0
   65.2042   33.1573   48.6774 H   0  0  0  0  0  0  0  0  0  0  0  0
   64.0039   34.3030   47.0507 H   0  0  0  0  0  0  0  0  0  0  0  0
   63.6933   32.5771   46.5632 H   0  0  0  0  0  0  0  0  0  0  0  0
   61.5720   32.7730   46.9700 H   0  0  0  0  0  0  0  0  0  0  0  0
   61.8090   34.4250   46.9030 H   0  0  0  0  0  0  0  0  0  0  0  0
   61.3130   32.6639   49.1741 H   0  0  0  0  0  0  0  0  0  0  0  0
   62.3936   34.1248   49.4121 H   0  0  0  0  0  0  0  0  0  0  0  0
   59.9275   34.4179   49.9973 H   0  0  0  0  0  0  0  0  0  0  0  0
   60.6964   35.6203   48.8503 H   0  0  0  0  0  0  0  0  0  0  0  0
   58.5350   33.5999   48.3639 H   0  0  0  0  0  0  0  0  0  0  0  0
   58.7514   35.3101   47.7638 H   0  0  0  0  0  0  0  0  0  0  0  0
   58.6864   34.7072   44.5002 H   0  0  0  0  0  0  0  0  0  0  0  0
   57.3452   33.4197   42.8621 H   0  0  0  0  0  0  0  0  0  0  0  0
   56.3582   31.3430   42.1213 H   0  0  0  0  0  0  0  0  0  0  0  0
   55.9995   28.8953   42.4110 H   0  0  0  0  0  0  0  0  0  0  0  0
   57.0078   27.7045   44.3533 H   0  0  0  0  0  0  0  0  0  0  0  0
   58.3734   28.9499   46.0196 H   0  0  0  0  0  0  0  0  0  0  0  0
  1  2  1  0
  2  3  1  0
  3  4  1  0
  4  5  1  0
  5  6  1  0
  6  7  1  0
  7  8  1  0
  8  9  2  0
  9 10  1  0
 10 11  2  0
 11 12  1  0
 12 13  2  0
 13 14  1  0
 14 15  2  0
 15 16  1  0
 16 17  2  0
 17 18  1  0
 17  8  1  0
 16 11  1  0
  1 19  1  0
  1 20  1  0
  1 21  1  0
  2 22  1  0
  2 23  1  0
  3 24  1  0
  3 25  1  0
  4 26  1  0
  4 27  1  0
  5 28  1  0
  5 29  1  0
  6 30  1  0
  6 31  1  0
  9 32  1  0
 10 33  1  0
 12 34  1  0
 13 35  1  0
 14 36  1  0
 15 37  1  0
M  CHG  1   3   1
M  END
>  <UniqueID>  (6) 
6

>  <SMILES>  (6) 
CC[NH2+]CCCOc1ccc2ccccc2c1Br

>  <Energy>  (6) 
48.78187176863693

>  <Genealogy>  (6) 
CC[NH2+]CCCOc1ccc2ccccc2c1Br (protonated)
CC[NH2+]CCCOc1ccc2ccccc2c1Br (3D coordinates assigned)
CC[NH2+]CCCOc1ccc2ccccc2c1Br (optimized conformer: 48.78187176863693 kcal/mol)

>  <smiles>  (6) 
CCNCCCOc1ccc2ccccc2c1Br

>  <score_type>  (6) 
oracle

>  <origin>  (6) 
adg

>  <m_score__min__energy>  (6) 
-5.4299999999999997

>  <m_primary>  (6) 
energy

$$$$
6:0
     RDKit          3D

 52 54  0  0  0  0  0  0  0  0999 V2000
   63.3780   33.7550   46.4010 C   0  0  0  0  0  0  0  0  0  0  0  0
   63.3710   34.0870   47.8910 C   0  0  0  0  0  0  0  0  0  0  0  0
   62.5400   33.1170   48.6390 N   0  0  0  0  0  0  0  0  0  0  0  0
   62.4740   33.4700   50.0680 C   0  0  0  0  0  0  0  0  0  0  0  0
   63.0210   31.7250   48.4600 C   0  0  0  0  0  0  0  0  0  0  0  0
   61.9170   30.8600   47.8390 C   0  0  0  0  0  0  0  0  0  0  0  0
   60.5750   31.2970   48.2620 N   0  0  0  0  0  0  0  0  0  0  0  0
   59.6660   31.3450   47.1270 C   0  0  0  0  0  0  0  0  0  0  0  0
   59.4420   32.5600   46.4290 C   0  0  0  0  0  0  0  0  0  0  0  0
   59.9440   33.7980   46.9040 C   0  0  0  0  0  0  0  0  0  0  0  0
   59.6920   34.9850   46.2220 C   0  0  0  0  0  0  0  0  0  0  0  0
   58.9230   34.9760   45.0670 C   0  0  0  0  0  0  0  0  0  0  0  0
   58.4160   33.7770   44.5760 C   0  0  0  0  0  0  0  0  0  0  0  0
   58.6840   32.5430   45.2250 C   0  0  0  0  0  0  0  0  0  0  0  0
   58.2100   31.3510   44.7190 N   0  0  0  0  0  0  0  0  0  0  0  0
   57.7280   31.2800   43.3220 C   0  0  0  0  0  0  0  0  0  0  0  0
   58.2000   30.2210   45.5120 C   0  0  0  0  0  0  0  0  0  0  0  0
   57.4340   29.0800   45.1570 C   0  0  0  0  0  0  0  0  0  0  0  0
   57.4530   27.9110   45.9330 C   0  0  0  0  0  0  0  0  0  0  0  0
   56.6870   26.7460   45.5730 N   0  0  0  0  0  0  0  0  0  0  0  0
   56.4270   25.6330   46.4810 C   0  0  0  0  0  0  0  0  0  0  0  0
   58.2270   27.8840   47.0920 C   0  0  0  0  0  0  0  0  0  0  0  0
   58.9540   29.0010   47.4880 C   0  0  0  0  0  0  0  0  0  0  0  0
   58.9520   30.1880   46.7180 C   0  0  0  0  0  0  0  0  0  0  0  0
   63.4010   32.6632   46.2687 H   0  0  0  0  0  0  0  0  0  0  0  0
   62.4711   34.1623   45.9303 H   0  0  0  0  0  0  0  0  0  0  0  0
   64.2670   34.2002   45.9303 H   0  0  0  0  0  0  0  0  0  0  0  0
   64.4015   34.0505   48.2740 H   0  0  0  0  0  0  0  0  0  0  0  0
   62.9488   35.0936   48.0272 H   0  0  0  0  0  0  0  0  0  0  0  0
   62.6424   32.5692   50.6764 H   0  0  0  0  0  0  0  0  0  0  0  0
   63.2480   34.2173   50.2972 H   0  0  0  0  0  0  0  0  0  0  0  0
   61.4823   33.8871   50.2972 H   0  0  0  0  0  0  0  0  0  0  0  0
   63.8984   31.7260   47.7966 H   0  0  0  0  0  0  0  0  0  0  0  0
   63.2935   31.3099   49.4416 H   0  0  0  0  0  0  0  0  0  0  0  0
   61.9848   30.9291   46.7433 H   0  0  0  0  0  0  0  0  0  0  0  0
   62.0622   29.8244   48.1802 H   0  0  0  0  0  0  0  0  0  0  0  0
   60.1950   30.6630   48.9990 H   0  0  0  0  0  0  0  0  0  0  0  0
   60.6250   32.2250   48.7370 H   0  0  0  0  0  0  0  0  0  0  0  0
   60.5425   33.8208   47.8267 H   0  0  0  0  0  0  0  0  0  0  0  0
   60.1035   35.9326   46.5996 H   0  0  0  0  0  0  0  0  0  0  0  0
   58.7140   35.9180   44.5389 H   0  0  0  0  0  0  0  0  0  0  0  0
   57.7957   33.7853   43.6676 H   0  0  0  0  0  0  0  0  0  0  0  0
   56.6398   31.1197   43.3173 H   0  0  0  0  0  0  0  0  0  0  0  0
   57.9621   32.2223   42.8050 H   0  0  0  0  0  0  0  0  0  0  0  0
   58.2238   30.4452   42.8050 H   0  0  0  0  0  0  0  0  0  0  0  0
   56.8103   29.1129   44.2515 H   0  0  0  0  0  0  0  0  0  0  0  0
   56.2770   26.6880   44.6130 H   0  0  0  0  0  0  0  0  0  0  0  0
   56.5084   25.9816   47.5211 H   0  0  0  0  0  0  0  0  0  0  0  0
   55.4137   25.2436   46.3031 H   0  0  0  0  0  0  0  0  0  0  0  0
   57.1629   24.8350   46.3031 H   0  0  0  0  0  0  0  0  0  0  0  0
   58.2630   26.9683   47.7004 H   0  0  0  0  0  0  0  0  0  0  0  0
   59.5416   28.9612   48.4171 H   0  0  0  0  0  0  0  0  0  0  0  0
  1  2  1  0
  2  3  1  0
  3  4  1  0
  3  5  1  0
  5  6  1  0
  6  7  1  0
  7  8  1  0
  8  9  2  0
  9 10  1  0
 10 11  2  0
 11 12  1  0
 12 13  2  0
 13 14  1  0
 14 15  2  0
 15 16  1  0
 15 17  1  0
 17 18  2  0
 18 19  1  0
 19 20  1  0
 20 21  1  0
 19 22  2  0
 22 23  1  0
 23 24  2  0
 24  8  1  0
 14  9  1  0
 24 17  1  0
  1 25  1  0
  1 26  1  0
  1 27  1  0
  2 28  1  0
  2 29  1  0
  4 30  1  0
  4 31  1  0
  4 32  1  0
  5 33  1  0
  5 34  1  0
  6 35  1  0
  6 36  1  0
  7 37  1  0
  7 38  1  0
 10 39  1  0
 11 40  1  0
 12 41  1  0
 13 42  1  0
 16 43  1  0
 16 44  1  0
 16 45  1  0
 18 46  1  0
 20 47  1  0
 21 48  1  0
 21 49  1  0
 21 50  1  0
 22 51  1  0
 23 52  1  0
M  CHG  2   7   1  15   1
M  END
>  <UniqueID>  (7) 
7

>  <SMILES>  (7) 
CCN(C)CC[NH2+]c1c2ccccc2[n+](C)c2cc(NC)ccc12

>  <Energy>  (7) 
78.7451699310816

>  <Genealogy>  (7) 
CCN(C)CC[NH2+]c1c2ccccc2[n+](C)c2cc(NC)ccc12 (protonated)
CCN(C)CC[NH2+]c1c2ccccc2[n+](C)c2cc(NC)ccc12 (3D coordinates assigned)
CCN(C)CC[NH2+]c1c2ccccc2[n+](C)c2cc(NC)ccc12 (optimized conformer: 78.7451699310816 kcal/mol)

>  <smiles>  (7) 
CCN(C)CCNc1c2ccccc2[n+](C)c2cc(NC)ccc12

>  <score_type>  (7) 
oracle

>  <origin>  (7) 
adg

>  <m_score__min__energy>  (7) 
-4.2400000000000002

>  <m_primary>  (7) 
energy

$$$$
7:0
     RDKit          3D

 47 49  0  0  0  0  0  0  0  0999 V2000
   63.0740   33.4820   47.6190 C   0  0  0  0  0  0  0  0  0  0  0  0
   61.6960   33.7900   48.2230 C   0  0  0  0  0  0  0  0  0  0  0  0
   60.5560   33.3030   47.4150 N   0  0  0  0  0  0  0  0  0  0  0  0
   60.5520   33.7640   46.0060 C   0  0  0  0  0  0  0  0  0  0  0  0
   59.4360   34.7880   45.7350 C   0  0  0  0  0  0  0  0  0  0  0  0
   58.0860   34.2720   46.0860 N   0  0  0  0  0  0  0  0  0  0  0  0
   57.3290   33.8320   44.8980 C   0  0  0  0  0  0  0  0  0  0  0  0
   57.3550   32.3410   44.7870 C   0  0  0  0  0  0  0  0  0  0  0  0
   58.4800   31.6190   44.6180 N   0  0  0  0  0  0  0  0  0  0  0  0
   57.9820   30.3650   44.5890 C   0  0  0  0  0  0  0  0  0  0  0  0
   58.8340   29.1420   44.4960 C   0  0  0  0  0  0  0  0  0  0  0  0
   59.3510   28.7740   45.8580 C   0  0  0  0  0  0  0  0  0  0  0  0
   59.2020   29.6620   46.9350 C   0  0  0  0  0  0  0  0  0  0  0  0
   59.6470   29.3030   48.2100 C   0  0  0  0  0  0  0  0  0  0  0  0
   60.2350   28.0530   48.4340 C   0  0  0  0  0  0  0  0  0  0  0  0
   60.6640   27.7410   49.7330 O   0  0  0  0  0  0  0  0  0  0  0  0
   61.1190   28.7010   50.6810 C   0  0  0  0  0  0  0  0  0  0  0  0
   60.3730   27.1560   47.3570 C   0  0  0  0  0  0  0  0  0  0  0  0
   59.9290   27.5150   46.0810 C   0  0  0  0  0  0  0  0  0  0  0  0
   56.6430   30.3330   44.7460 N   0  0  0  0  0  0  0  0  0  0  0  0
   56.2940   31.5770   44.8590 O   0  0  0  0  0  0  0  0  0  0  0  0
   58.1020   33.2080   47.1170 C   0  0  0  0  0  0  0  0  0  0  0  0
   59.2540   33.4090   48.1060 C   0  0  0  0  0  0  0  0  0  0  0  0
   63.8011   33.3195   48.4283 H   0  0  0  0  0  0  0  0  0  0  0  0
   63.0081   32.5764   46.9980 H   0  0  0  0  0  0  0  0  0  0  0  0
   63.3999   34.3295   46.9980 H   0  0  0  0  0  0  0  0  0  0  0  0
   61.6414   33.3188   49.2155 H   0  0  0  0  0  0  0  0  0  0  0  0
   61.6077   34.8856   48.2654 H   0  0  0  0  0  0  0  0  0  0  0  0
   61.5230   34.2302   45.7826 H   0  0  0  0  0  0  0  0  0  0  0  0
   60.3721   32.8891   45.3640 H   0  0  0  0  0  0  0  0  0  0  0  0
   59.6339   35.6905   46.3319 H   0  0  0  0  0  0  0  0  0  0  0  0
   59.4388   35.0049   44.6566 H   0  0  0  0  0  0  0  0  0  0  0  0
   56.2862   34.1709   44.9865 H   0  0  0  0  0  0  0  0  0  0  0  0
   57.7918   34.2652   43.9990 H   0  0  0  0  0  0  0  0  0  0  0  0
   58.2356   28.3102   44.0960 H   0  0  0  0  0  0  0  0  0  0  0  0
   59.6845   29.3431   43.8280 H   0  0  0  0  0  0  0  0  0  0  0  0
   58.7332   30.6441   46.7746 H   0  0  0  0  0  0  0  0  0  0  0  0
   59.5341   30.0096   49.0455 H   0  0  0  0  0  0  0  0  0  0  0  0
   60.9404   28.3243   51.6989 H   0  0  0  0  0  0  0  0  0  0  0  0
   62.1956   28.8755   50.5382 H   0  0  0  0  0  0  0  0  0  0  0  0
   60.5724   29.6449   50.5382 H   0  0  0  0  0  0  0  0  0  0  0  0
   60.8317   26.1696   47.5204 H   0  0  0  0  0  0  0  0  0  0  0  0
   60.0334   26.8060   45.2465 H   0  0  0  0  0  0  0  0  0  0  0  0
   57.1497   33.2278   47.6673 H   0  0  0  0  0  0  0  0  0  0  0  0
   58.2408   32.2395   46.6144 H   0  0  0  0  0  0  0  0  0  0  0  0
   59.1677   34.4053   48.5641 H   0  0  0  0  0  0  0  0  0  0  0  0
   59.1980   32.6289   48.8795 H   0  0  0  0  0  0  0  0  0  0  0  0
  1  2  1  0
  2  3  1  0
  3  4  1  0
  4  5  1  0
  5  6  1  0
  6  7  1  0
  7  8  1  0
  8  9  2  0
  9 10  1  0
 10 11  1  0
 11 12  1  0
 12 13  2  0
 13 14  1  0
 14 15  2  0
 15 16  1  0
 16 17  1  0
 15 18  1  0
 18 19  2  0
 10 20  2  0
 20 21  1  0
  6 22  1  0
 22 23  1  0
 23  3  1  0
 21  8  1  0
 19 12  1  0
  1 24  1  0
  1 25  1  0
  1 26  1  0
  2 27  1  0
  2 28  1  0
  4 29  1  0
  4 30  1  0
  5 31  1  0
  5 32  1  0
  7 33  1  0
  7 34  1  0
 11 35  1  0
 11 36  1  0
 13 37  1  0
 14 38  1  0
 17 39  1  0
 17 40  1  0
 17 41  1  0
 18 42  1  0
 19 43  1  0
 22 44  1  0
 22 45  1  0
 23 46  1  0
 23 47  1  0
M  END
>  <UniqueID>  (8) 
8

>  <SMILES>  (8) 
CCN1CCN(Cc2nc(Cc3ccc(OC)cc3)no2)CC1

>  <Energy>  (8) 
90.71406954632812

>  <Genealogy>  (8) 
CCN1CCN(Cc2nc(Cc3ccc(OC)cc3)no2)CC1 (3D coordinates assigned)
CCN1CCN(Cc2nc(Cc3ccc(OC)cc3)no2)CC1 (nonaromatic ring conformer: 90.71406954632812 kcal/mol)

>  <smiles>  (8) 
CCN1CCN(Cc2nc(Cc3ccc(OC)cc3)no2)CC1

>  <score_type>  (8) 
oracle

>  <origin>  (8) 
adg

>  <m_score__min__energy>  (8) 
-7.3700000000000001

>  <m_primary>  (8) 
energy

$$$$
8:0
     RDKit          3D

 42 44  0  0  0  0  0  0  0  0999 V2000
   57.0980   21.0910   43.0020 C   0  0  0  0  0  0  0  0  0  0  0  0
   55.9780   21.9660   43.0810 O   0  0  0  0  0  0  0  0  0  0  0  0
   55.8400   22.9950   44.0250 C   0  0  0  0  0  0  0  0  0  0  0  0
   54.7400   22.9620   44.8860 C   0  0  0  0  0  0  0  0  0  0  0  0
   54.5560   23.9650   45.8390 C   0  0  0  0  0  0  0  0  0  0  0  0
   55.4740   25.0110   45.9450 C   0  0  0  0  0  0  0  0  0  0  0  0
   56.5930   25.0610   45.0950 C   0  0  0  0  0  0  0  0  0  0  0  0
   57.5710   26.1700   45.1780 C   0  0  0  0  0  0  0  0  0  0  0  0
   57.4300   27.3710   44.5780 N   0  0  0  0  0  0  0  0  0  0  0  0
   58.5550   28.0420   44.8830 C   0  0  0  0  0  0  0  0  0  0  0  0
   58.9230   29.3710   44.2960 C   0  0  0  0  0  0  0  0  0  0  0  0
   57.4950   30.4440   44.2660 S   0  0  0  0  0  0  0  0  0  0  0  0
   57.1570   30.7880   42.8430 O   0  0  0  0  0  0  0  0  0  0  0  0
   56.3190   29.7390   44.8820 O   0  0  0  0  0  0  0  0  0  0  0  0
   57.8400   31.9210   45.1640 C   0  0  0  0  0  0  0  0  0  0  0  0
   57.8290   33.1600   44.5080 C   0  0  0  0  0  0  0  0  0  0  0  0
   58.1830   34.3230   45.1990 C   0  0  0  0  0  0  0  0  0  0  0  0
   58.5530   34.2540   46.5450 C   0  0  0  0  0  0  0  0  0  0  0  0
   58.9050   35.3810   47.2110 F   0  0  0  0  0  0  0  0  0  0  0  0
   58.5680   33.0200   47.2020 C   0  0  0  0  0  0  0  0  0  0  0  0
   58.2130   31.8550   46.5150 C   0  0  0  0  0  0  0  0  0  0  0  0
   59.3440   27.2230   45.6660 C   0  0  0  0  0  0  0  0  0  0  0  0
   60.6970   27.5260   46.2180 C   0  0  0  0  0  0  0  0  0  0  0  0
   58.7100   26.0860   45.8360 O   0  0  0  0  0  0  0  0  0  0  0  0
   56.7660   24.0520   44.1310 C   0  0  0  0  0  0  0  0  0  0  0  0
   57.4319   20.8302   44.0171 H   0  0  0  0  0  0  0  0  0  0  0  0
   56.8109   20.1756   42.4639 H   0  0  0  0  0  0  0  0  0  0  0  0
   57.9168   21.5911   42.4639 H   0  0  0  0  0  0  0  0  0  0  0  0
   54.0136   22.1393   44.8122 H   0  0  0  0  0  0  0  0  0  0  0  0
   53.6843   23.9310   46.5090 H   0  0  0  0  0  0  0  0  0  0  0  0
   55.3215   25.7995   46.6966 H   0  0  0  0  0  0  0  0  0  0  0  0
   56.6450   27.7130   43.9810 H   0  0  0  0  0  0  0  0  0  0  0  0
   59.7125   29.8328   44.9070 H   0  0  0  0  0  0  0  0  0  0  0  0
   59.2846   29.2232   43.2677 H   0  0  0  0  0  0  0  0  0  0  0  0
   57.5414   33.2174   43.4478 H   0  0  0  0  0  0  0  0  0  0  0  0
   58.1702   35.2940   44.6822 H   0  0  0  0  0  0  0  0  0  0  0  0
   58.8596   32.9655   48.2612 H   0  0  0  0  0  0  0  0  0  0  0  0
   58.2262   30.8855   47.0344 H   0  0  0  0  0  0  0  0  0  0  0  0
   60.6551   27.5166   47.3172 H   0  0  0  0  0  0  0  0  0  0  0  0
   61.4129   26.7659   45.8719 H   0  0  0  0  0  0  0  0  0  0  0  0
   61.0203   28.5188   45.8719 H   0  0  0  0  0  0  0  0  0  0  0  0
   57.6319   24.0881   43.4536 H   0  0  0  0  0  0  0  0  0  0  0  0
  1  2  1  0
  2  3  1  0
  3  4  2  0
  4  5  1  0
  5  6  2  0
  6  7  1  0
  7  8  1  0
  8  9  2  0
  9 10  1  0
 10 11  1  0
 11 12  1  0
 12 13  2  0
 12 14  2  0
 12 15  1  0
 15 16  2  0
 16 17  1  0
 17 18  2  0
 18 19  1  0
 18 20  1  0
 20 21  2  0
 10 22  2  0
 22 23  1  0
 22 24  1  0
  7 25  2  0
 25  3  1  0
 24  8  1  0
 21 15  1  0
  1 26  1  0
  1 27  1  0
  1 28  1  0
  4 29  1  0
  5 30  1  0
  6 31  1  0
  9 32  1  0
 11 33  1  0
 11 34  1  0
 16 35  1  0
 17 36  1  0
 20 37  1  0
 21 38  1  0
 23 39  1  0
 23 40  1  0
 23 41  1  0
 25 42  1  0
M  CHG  1   9   1
M  END
>  <UniqueID>  (9) 
9

>  <SMILES>  (9) 
COc1cccc(-c2[nH+]c(CS(=O)(=O)c3ccc(F)cc3)c(C)o2)c1

>  <Energy>  (9) 
68.28852684936352

>  <Genealogy>  (9) 
COc1cccc(-c2[nH+]c(CS(=O)(=O)c3ccc(F)cc3)c(C)o2)c1 (protonated)
COc1cccc(-c2[nH+]c(CS(=O)(=O)c3ccc(F)cc3)c(C)o2)c1 (3D coordinates assigned)
COc1cccc(-c2[nH+]c(CS(=O)(=O)c3ccc(F)cc3)c(C)o2)c1 (optimized conformer: 68.28852684936352 kcal/mol)

>  <smiles>  (9) 
COc1cccc(-c2nc(CS(=O)(=O)c3ccc(F)cc3)c(C)o2)c1

>  <score_type>  (9) 
oracle

>  <origin>  (9) 
adg

>  <m_score__min__energy>  (9) 
-7.3899999999999997

>  <m_primary>  (9) 
energy

$$$$
9:0
     RDKit          3D

 33 34  0  0  0  0  0  0  0  0999 V2000
   60.8100   30.5620   46.7340 C   0  0  0  0  0  0  0  0  0  0  0  0
   60.2860   29.6980   45.7310 O   0  0  0  0  0  0  0  0  0  0  0  0
   59.2260   28.7970   45.9260 C   0  0  0  0  0  0  0  0  0  0  0  0
   59.3040   27.7620   46.8770 C   0  0  0  0  0  0  0  0  0  0  0  0
   58.2430   26.8730   47.0490 C   0  0  0  0  0  0  0  0  0  0  0  0
   57.0770   26.9980   46.2780 C   0  0  0  0  0  0  0  0  0  0  0  0
   55.9810   26.0820   46.4540 N   0  0  0  0  0  0  0  0  0  0  0  0
   54.8550   26.3370   45.9800 O   0  0  0  0  0  0  0  0  0  0  0  0
   56.1540   24.9090   47.1540 O   0  0  0  0  0  0  0  0  0  0  0  0
   56.9940   28.0320   45.3320 C   0  0  0  0  0  0  0  0  0  0  0  0
   58.0620   28.9320   45.1420 C   0  0  0  0  0  0  0  0  0  0  0  0
   57.9800   29.9910   44.1630 N   0  0  0  0  0  0  0  0  0  0  0  0
   57.0570   31.1240   44.2460 C   0  0  0  0  0  0  0  0  0  0  0  0
   57.7060   32.2900   44.9460 C   0  0  0  0  0  0  0  0  0  0  0  0
   57.7890   32.3120   46.3480 C   0  0  0  0  0  0  0  0  0  0  0  0
   58.3940   33.3900   47.0020 C   0  0  0  0  0  0  0  0  0  0  0  0
   58.9130   34.4560   46.2610 C   0  0  0  0  0  0  0  0  0  0  0  0
   58.8250   34.4450   44.8670 C   0  0  0  0  0  0  0  0  0  0  0  0
   58.2220   33.3700   44.2100 C   0  0  0  0  0  0  0  0  0  0  0  0
   60.5661   30.1598   47.7284 H   0  0  0  0  0  0  0  0  0  0  0  0
   61.9023   30.6311   46.6243 H   0  0  0  0  0  0  0  0  0  0  0  0
   60.3664   31.5626   46.6243 H   0  0  0  0  0  0  0  0  0  0  0  0
   60.2105   27.6533   47.4905 H   0  0  0  0  0  0  0  0  0  0  0  0
   58.3208   26.0679   47.7945 H   0  0  0  0  0  0  0  0  0  0  0  0
   56.0805   28.1416   44.7291 H   0  0  0  0  0  0  0  0  0  0  0  0
   58.5680   29.9310   43.3020 H   0  0  0  0  0  0  0  0  0  0  0  0
   56.7673   31.4289   43.2296 H   0  0  0  0  0  0  0  0  0  0  0  0
   56.1703   30.8163   44.8196 H   0  0  0  0  0  0  0  0  0  0  0  0
   57.3763   31.4776   46.9341 H   0  0  0  0  0  0  0  0  0  0  0  0
   58.4616   33.3992   48.0999 H   0  0  0  0  0  0  0  0  0  0  0  0
   59.3904   35.3030   46.7756 H   0  0  0  0  0  0  0  0  0  0  0  0
   59.2317   35.2852   44.2851 H   0  0  0  0  0  0  0  0  0  0  0  0
   58.1508   33.3689   43.1123 H   0  0  0  0  0  0  0  0  0  0  0  0
  1  2  1  0
  2  3  1  0
  3  4  2  0
  4  5  1  0
  5  6  2  0
  6  7  1  0
  7  8  2  0
  7  9  1  0
  6 10  1  0
 10 11  2  0
 11 12  1  0
 12 13  1  0
 13 14  1  0
 14 15  2  0
 15 16  1  0
 16 17  2  0
 17 18  1  0
 18 19  2  0
 11  3  1  0
 19 14  1  0
  1 20  1  0
  1 21  1  0
  1 22  1  0
  4 23  1  0
  5 24  1  0
 10 25  1  0
 12 26  1  0
 13 27  1  0
 13 28  1  0
 15 29  1  0
 16 30  1  0
 17 31  1  0
 18 32  1  0
 19 33  1  0
M  CHG  2   7   1   9  -1
M  END
>  <UniqueID>  (10) 
10

>  <SMILES>  (10) 
COc1ccc([N+](=O)[O-])cc1NCc1ccccc1

>  <Energy>  (10) 
34.09085066855755

>  <Genealogy>  (10) 
COc1ccc([N+](=O)[O-])cc1NCc1ccccc1 (3D coordinates assigned)
COc1ccc([N+](=O)[O-])cc1NCc1ccccc1 (optimized conformer: 34.09085066855755 kcal/mol)

>  <smiles>  (10) 
COc1ccc([N+](=O)[O-])cc1NCc1ccccc1

>  <score_type>  (10) 
oracle

>  <origin>  (10) 
adg

>  <m_score__min__energy>  (10) 
-6.9400000000000004

>  <m_primary>  (10) 
energy

$$$$
10:0
     RDKit          3D

 60 62  0  0  0  0  0  0  0  0999 V2000
   55.4540   24.6540   45.4720 C   0  0  0  0  0  0  0  0  0  0  0  0
   55.4920   26.0010   45.9280 O   0  0  0  0  0  0  0  0  0  0  0  0
   56.6680   26.6970   46.2440 C   0  0  0  0  0  0  0  0  0  0  0  0
   57.5510   26.1260   47.1670 C   0  0  0  0  0  0  0  0  0  0  0  0
   58.7190   26.7940   47.5400 C   0  0  0  0  0  0  0  0  0  0  0  0
   59.0270   28.0490   46.9890 C   0  0  0  0  0  0  0  0  0  0  0  0
   60.2650   28.7910   47.4420 C   0  0  0  0  0  0  0  0  0  0  0  0
   60.2860   29.0740   48.8960 N   0  0  0  0  0  0  0  0  0  0  0  0
   59.0140   29.5370   49.4850 C   0  0  0  0  0  0  0  0  0  0  0  0
   58.8830   31.0790   49.5190 C   0  0  0  0  0  0  0  0  0  0  0  0
   60.1770   31.8010   49.6920 N   0  0  0  0  0  0  0  0  0  0  0  0
   60.0110   33.0490   50.4850 C   0  0  0  0  0  0  0  0  0  0  0  0
   59.7060   34.2780   49.6060 C   0  0  0  0  0  0  0  0  0  0  0  0
   60.1160   34.0950   48.2510 O   0  0  0  0  0  0  0  0  0  0  0  0
   59.3630   33.4770   47.2390 C   0  0  0  0  0  0  0  0  0  0  0  0
   58.1420   34.0020   46.7780 C   0  0  0  0  0  0  0  0  0  0  0  0
   57.4170   33.3430   45.7860 C   0  0  0  0  0  0  0  0  0  0  0  0
   57.8950   32.1460   45.2230 C   0  0  0  0  0  0  0  0  0  0  0  0
   57.1290   31.4300   44.1670 C   0  0  0  0  0  0  0  0  0  0  0  0
   57.4590   31.5740   42.7110 C   0  0  0  0  0  0  0  0  0  0  0  0
   56.1710   30.6750   44.4900 O   0  0  0  0  0  0  0  0  0  0  0  0
   59.1250   31.6320   45.6740 C   0  0  0  0  0  0  0  0  0  0  0  0
   59.8630   32.2960   46.6730 C   0  0  0  0  0  0  0  0  0  0  0  0
   61.1010   31.8150   47.1300 O   0  0  0  0  0  0  0  0  0  0  0  0
   62.3160   32.5580   47.0980 C   0  0  0  0  0  0  0  0  0  0  0  0
   61.1980   30.9360   50.3130 C   0  0  0  0  0  0  0  0  0  0  0  0
   61.5070   29.7400   49.3990 C   0  0  0  0  0  0  0  0  0  0  0  0
   58.1660   28.6040   46.0290 C   0  0  0  0  0  0  0  0  0  0  0  0
   56.9890   27.9410   45.6680 C   0  0  0  0  0  0  0  0  0  0  0  0
   55.4348   23.9745   46.3368 H   0  0  0  0  0  0  0  0  0  0  0  0
   54.5511   24.4983   44.8633 H   0  0  0  0  0  0  0  0  0  0  0  0
   56.3467   24.4476   44.8633 H   0  0  0  0  0  0  0  0  0  0  0  0
   57.3230   25.1420   47.6027 H   0  0  0  0  0  0  0  0  0  0  0  0
   59.4021   26.3348   48.2697 H   0  0  0  0  0  0  0  0  0  0  0  0
   61.1465   28.1818   47.1932 H   0  0  0  0  0  0  0  0  0  0  0  0
   60.2682   29.7612   46.9237 H   0  0  0  0  0  0  0  0  0  0  0  0
   58.1840   29.1287   48.8896 H   0  0  0  0  0  0  0  0  0  0  0  0
   58.9885   29.1839   50.5265 H   0  0  0  0  0  0  0  0  0  0  0  0
   58.4292   31.4072   48.5723 H   0  0  0  0  0  0  0  0  0  0  0  0
   58.2659   31.3236   50.3961 H   0  0  0  0  0  0  0  0  0  0  0  0
   60.5390   32.0690   48.7460 H   0  0  0  0  0  0  0  0  0  0  0  0
   59.1808   32.9081   51.1927 H   0  0  0  0  0  0  0  0  0  0  0  0
   60.9614   33.2406   51.0046 H   0  0  0  0  0  0  0  0  0  0  0  0
   58.6222   34.4650   49.6246 H   0  0  0  0  0  0  0  0  0  0  0  0
   60.2699   35.1297   50.0142 H   0  0  0  0  0  0  0  0  0  0  0  0
   57.7561   34.9400   47.2036 H   0  0  0  0  0  0  0  0  0  0  0  0
   56.4613   33.7636   45.4401 H   0  0  0  0  0  0  0  0  0  0  0  0
   58.4624   32.0119   42.6040 H   0  0  0  0  0  0  0  0  0  0  0  0
   57.4375   30.5847   42.2306 H   0  0  0  0  0  0  0  0  0  0  0  0
   56.7191   32.2311   42.2306 H   0  0  0  0  0  0  0  0  0  0  0  0
   59.5152   30.6993   45.2405 H   0  0  0  0  0  0  0  0  0  0  0  0
   62.6486   32.7614   48.1266 H   0  0  0  0  0  0  0  0  0  0  0  0
   63.0874   31.9769   46.5713 H   0  0  0  0  0  0  0  0  0  0  0  0
   62.1502   33.5094   46.5713 H   0  0  0  0  0  0  0  0  0  0  0  0
   62.1178   31.5175   50.4740 H   0  0  0  0  0  0  0  0  0  0  0  0
   60.8161   30.5635   51.2750 H   0  0  0  0  0  0  0  0  0  0  0  0
   62.0927   30.0968   48.5389 H   0  0  0  0  0  0  0  0  0  0  0  0
   62.0654   29.0029   49.9947 H   0  0  0  0  0  0  0  0  0  0  0  0
   58.4186   29.5656   45.5583 H   0  0  0  0  0  0  0  0  0  0  0  0
   56.3103   28.3937   44.9301 H   0  0  0  0  0  0  0  0  0  0  0  0
  1  2  1  0
  2  3  1  0
  3  4  2  0
  4  5  1  0
  5  6  2  0
  6  7  1  0
  7  8  1  0
  8  9  1  0
  9 10  1  0
 10 11  1  0
 11 12  1  0
 12 13  1  0
 13 14  1  0
 14 15  1  0
 15 16  2  0
 16 17  1  0
 17 18  2  0
 18 19  1  0
 19 20  1  0
 19 21  2  0
 18 22  1  0
 22 23  2  0
 23 24  1  0
 24 25  1  0
 11 26  1  0
 26 27  1  0
  6 28  1  0
 28 29  2  0
 29  3  1  0
 27  8  1  0
 23 15  1  0
  1 30  1  0
  1 31  1  0
  1 32  1  0
  4 33  1  0
  5 34  1  0
  7 35  1  0
  7 36  1  0
  9 37  1  0
  9 38  1  0
 10 39  1  0
 10 40  1  0
 11 41  1  0
 12 42  1  0
 12 43  1  0
 13 44  1  0
 13 45  1  0
 16 46  1  0
 17 47  1  0
 20 48  1  0
 20 49  1  0
 20 50  1  0
 22 51  1  0
 25 52  1  0
 25 53  1  0
 25 54  1  0
 26 55  1  0
 26 56  1  0
 27 57  1  0
 27 58  1  0
 28 59  1  0
 29 60  1  0
M  CHG  1  11   1
M  END
>  <UniqueID>  (11) 
11

>  <SMILES>  (11) 
COc1ccc(CN2CC[NH+](CCOc3ccc(C(C)=O)cc3OC)CC2)cc1

>  <Energy>  (11) 
74.86689516012875

>  <Genealogy>  (11) 
COc1ccc(CN2CC[NH+](CCOc3ccc(C(C)=O)cc3OC)CC2)cc1 (protonated)
COc1ccc(CN2CC[NH+](CCOc3ccc(C(C)=O)cc3OC)CC2)cc1 (3D coordinates assigned)
COc1ccc(CN2CC[NH+](CCOc3ccc(C(C)=O)cc3OC)CC2)cc1 (nonaromatic ring conformer: 74.86689516012875 kcal/mol)

>  <smiles>  (11) 
COc1ccc(CN2CCN(CCOc3ccc(C(C)=O)cc3OC)CC2)cc1

>  <score_type>  (11) 
oracle

>  <origin>  (11) 
adg

>  <m_score__min__energy>  (11) 
-6.2800000000000002

>  <m_primary>  (11) 
energy

$$$$
11:0
     RDKit          3D

 62 66  0  0  0  0  0  0  0  0999 V2000
   57.8530   26.2730   45.3700 C   0  0  0  0  0  0  0  0  0  0  0  0
   56.9580   27.5000   45.6050 C   0  0  0  0  0  0  0  0  0  0  0  0
   57.4740   28.8290   44.9560 C   0  0  1  0  0  0  0  0  0  0  0  0
   58.1950   28.5230   43.7870 O   0  0  0  0  0  0  0  0  0  0  0  0
   56.3270   29.7480   44.5540 C   0  0  0  0  0  0  0  0  0  0  0  0
   55.1480   29.3270   44.4220 O   0  0  0  0  0  0  0  0  0  0  0  0
   56.5850   31.0990   44.3120 O   0  0  0  0  0  0  0  0  0  0  0  0
   57.9020   31.6320   44.4050 C   0  0  0  0  0  0  0  0  0  0  0  0
   58.6160   31.0220   45.5840 C   0  0  0  0  0  0  0  0  0  0  0  0
   58.3910   29.6510   45.8900 C   0  0  0  0  0  0  0  0  0  0  0  0
   59.0760   29.0860   46.9920 C   0  0  0  0  0  0  0  0  0  0  0  0
   59.9850   29.8740   47.7100 C   0  0  0  0  0  0  0  0  0  0  0  0
   60.1250   31.1870   47.4260 N   0  0  0  0  0  0  0  0  0  0  0  0
   59.4910   31.7840   46.3820 C   0  0  0  0  0  0  0  0  0  0  0  0
   59.6850   33.0070   46.1420 O   0  0  0  0  0  0  0  0  0  0  0  0
   60.9730   31.8500   48.4130 C   0  0  0  0  0  0  0  0  0  0  0  0
   61.2940   30.7400   49.3700 C   0  0  0  0  0  0  0  0  0  0  0  0
   61.9620   30.8060   50.5900 C   0  0  0  0  0  0  0  0  0  0  0  0
   62.4510   32.0620   51.0980 N   0  0  0  0  0  0  0  0  0  0  0  0
   61.8910   33.3580   50.7080 C   0  0  0  0  0  0  0  0  0  0  0  0
   62.7770   34.0730   49.6780 C   0  0  0  0  0  0  0  0  0  0  0  0
   63.6370   33.1100   48.9570 N   0  0  0  0  0  0  0  0  0  0  0  0
   64.9670   33.0140   49.5820 C   0  0  0  0  0  0  0  0  0  0  0  0
   63.7800   33.5030   47.5460 C   0  0  0  0  0  0  0  0  0  0  0  0
   62.0750   29.6140   51.3460 C   0  0  0  0  0  0  0  0  0  0  0  0
   62.7080   29.6110   52.6060 C   0  0  0  0  0  0  0  0  0  0  0  0
   62.8040   28.4380   53.3510 C   0  0  0  0  0  0  0  0  0  0  0  0
   62.2660   27.2520   52.8620 C   0  0  0  0  0  0  0  0  0  0  0  0
   61.6480   27.2220   51.6120 C   0  0  0  0  0  0  0  0  0  0  0  0
   61.5650   28.3860   50.8110 C   0  0  0  0  0  0  0  0  0  0  0  0
   60.9930   28.3590   49.5490 N   0  0  0  0  0  0  0  0  0  0  0  0
   60.7250   27.0870   48.8570 C   0  0  0  0  0  0  0  0  0  0  0  0
   60.7600   29.5530   48.9150 C   0  0  0  0  0  0  0  0  0  0  0  0
   58.1600   25.8521   46.3388 H   0  0  0  0  0  0  0  0  0  0  0  0
   57.2942   25.5150   44.8015 H   0  0  0  0  0  0  0  0  0  0  0  0
   58.7454   26.5736   44.8015 H   0  0  0  0  0  0  0  0  0  0  0  0
   55.9630   27.2813   45.1900 H   0  0  0  0  0  0  0  0  0  0  0  0
   56.9496   27.6712   46.6916 H   0  0  0  0  0  0  0  0  0  0  0  0
   58.0480   29.2610   43.1380 H   0  0  0  0  0  0  0  0  0  0  0  0
   58.4557   31.4010   43.4830 H   0  0  0  0  0  0  0  0  0  0  0  0
   57.8446   32.7223   44.5387 H   0  0  0  0  0  0  0  0  0  0  0  0
   58.8967   28.0400   47.2815 H   0  0  0  0  0  0  0  0  0  0  0  0
   61.8863   32.2490   47.9474 H   0  0  0  0  0  0  0  0  0  0  0  0
   60.4908   32.7145   48.8928 H   0  0  0  0  0  0  0  0  0  0  0  0
   63.3410   32.0640   51.6460 H   0  0  0  0  0  0  0  0  0  0  0  0
   60.8941   33.1986   50.2711 H   0  0  0  0  0  0  0  0  0  0  0  0
   61.8314   33.9900   51.6064 H   0  0  0  0  0  0  0  0  0  0  0  0
   62.1355   34.5950   48.9528 H   0  0  0  0  0  0  0  0  0  0  0  0
   63.4220   34.7889   50.2085 H   0  0  0  0  0  0  0  0  0  0  0  0
   64.8591   33.0218   50.6767 H   0  0  0  0  0  0  0  0  0  0  0  0
   65.4530   32.0784   49.2681 H   0  0  0  0  0  0  0  0  0  0  0  0
   65.5823   33.8701   49.2681 H   0  0  0  0  0  0  0  0  0  0  0  0
   64.1556   34.5353   47.4892 H   0  0  0  0  0  0  0  0  0  0  0  0
   64.4896   32.8266   47.0471 H   0  0  0  0  0  0  0  0  0  0  0  0
   62.8016   33.4408   47.0471 H   0  0  0  0  0  0  0  0  0  0  0  0
   63.1305   30.5450   53.0049 H   0  0  0  0  0  0  0  0  0  0  0  0
   63.3069   28.4495   54.3292 H   0  0  0  0  0  0  0  0  0  0  0  0
   62.3283   26.3335   53.4640 H   0  0  0  0  0  0  0  0  0  0  0  0
   61.2184   26.2790   51.2429 H   0  0  0  0  0  0  0  0  0  0  0  0
   60.5578   26.2934   49.6002 H   0  0  0  0  0  0  0  0  0  0  0  0
   59.8297   27.1939   48.2270 H   0  0  0  0  0  0  0  0  0  0  0  0
   61.5874   26.8236   48.2270 H   0  0  0  0  0  0  0  0  0  0  0  0
  1  2  1  0
  2  3  1  0
  3  4  1  6
  3  5  1  0
  5  6  2  0
  5  7  1  0
  7  8  1  0
  8  9  1  0
  9 10  2  0
 10 11  1  0
 11 12  2  0
 12 13  1  0
 13 14  1  0
 14 15  2  0
 13 16  1  0
 16 17  1  0
 17 18  2  0
 18 19  1  0
 19 20  1  0
 20 21  1  0
 21 22  1  0
 22 23  1  0
 22 24  1  0
 18 25  1  0
 25 26  2  0
 26 27  1  0
 27 28  2  0
 28 29  1  0
 29 30  2  0
 30 31  1  0
 31 32  1  0
 31 33  2  0
 10  3  1  0
 33 12  1  0
 14  9  1  0
 33 17  1  0
 30 25  1  0
  1 34  1  0
  1 35  1  0
  1 36  1  0
  2 37  1  0
  2 38  1  0
  4 39  1  0
  8 40  1  0
  8 41  1  0
 11 42  1  0
 16 43  1  0
 16 44  1  0
 19 45  1  0
 20 46  1  0
 20 47  1  0
 21 48  1  0
 21 49  1  0
 23 50  1  0
 23 51  1  0
 23 52  1  0
 24 53  1  0
 24 54  1  0
 24 55  1  0
 26 56  1  0
 27 57  1  0
 28 58  1  0
 29 59  1  0
 32 60  1  0
 32 61  1  0
 32 62  1  0
M  CHG  1  31   1
M  END
>  <UniqueID>  (12) 
12

>  <SMILES>  (12) 
CC[C@@]1(O)C(=O)OCc2c1cc1n(c2=O)Cc2c(NCCN(C)C)c3ccccc3[n+](C)c2-1

>  <Energy>  (12) 
120.09934928858452

>  <Genealogy>  (12) 
CC[C@@]1(O)C(=O)OCc2c1cc1n(c2=O)Cc2c(NCCN(C)C)c3ccccc3[n+](C)c2-1 (chirality)
CC[C@@]1(O)C(=O)OCc2c1cc1n(c2=O)Cc2c(NCCN(C)C)c3ccccc3[n+](C)c2-1 (3D coordinates assigned)
CC[C@@]1(O)C(=O)OCc2c1cc1n(c2=O)Cc2c(NCCN(C)C)c3ccccc3[n+](C)c2-1 (nonaromatic ring conformer: 120.09934928858452 kcal/mol)

>  <smiles>  (12) 
CCC1(O)C(=O)OCc2c1cc1n(c2=O)Cc2c(NCCN(C)C)c3ccccc3[n+](C)c2-1

>  <score_type>  (12) 
oracle

>  <origin>  (12) 
adg

>  <m_score__min__energy>  (12) 
-6.2699999999999996

>  <m_primary>  (12) 
energy

$$$$
12:0
     RDKit          3D

 44 45  0  0  0  0  0  0  0  0999 V2000
   61.4600   32.1160   47.4760 C   0  0  0  0  0  0  0  0  0  0  0  0
   61.4130   33.4510   46.7290 C   0  0  0  0  0  0  0  0  0  0  0  0
   60.2080   34.2600   47.0180 N   0  0  0  0  0  0  0  0  0  0  0  0
   59.1830   33.5950   47.8490 C   0  0  0  0  0  0  0  0  0  0  0  0
   58.1290   32.8170   47.0270 C   0  0  0  0  0  0  0  0  0  0  0  0
   58.1880   33.1350   45.5870 N   0  0  0  0  0  0  0  0  0  0  0  0
   57.0100   32.5920   44.8800 C   0  0  0  0  0  0  0  0  0  0  0  0
   57.4580   31.7470   43.6830 C   0  0  0  0  0  0  0  0  0  0  0  0
   56.7960   30.0920   43.7830 S   0  0  0  0  0  0  0  0  0  0  0  0
   55.4980   30.1190   44.5400 O   0  0  0  0  0  0  0  0  0  0  0  0
   56.5310   29.5680   42.3990 O   0  0  0  0  0  0  0  0  0  0  0  0
   57.9360   29.0430   44.6200 C   0  0  0  0  0  0  0  0  0  0  0  0
   57.8010   27.6510   44.5270 C   0  0  0  0  0  0  0  0  0  0  0  0
   58.6870   26.8110   45.2070 C   0  0  0  0  0  0  0  0  0  0  0  0
   59.7080   27.3550   46.0020 C   0  0  0  0  0  0  0  0  0  0  0  0
   60.6840   26.4540   46.7010 C   0  0  0  0  0  0  0  0  0  0  0  0
   59.8490   28.7490   46.0840 C   0  0  0  0  0  0  0  0  0  0  0  0
   58.9610   29.5880   45.4040 C   0  0  0  0  0  0  0  0  0  0  0  0
   58.3070   34.5900   45.4050 C   0  0  0  0  0  0  0  0  0  0  0  0
   59.6900   35.0540   45.8800 C   0  0  0  0  0  0  0  0  0  0  0  0
   61.4534   32.3020   48.5601 H   0  0  0  0  0  0  0  0  0  0  0  0
   60.5826   31.5116   47.2024 H   0  0  0  0  0  0  0  0  0  0  0  0
   62.3778   31.5748   47.2024 H   0  0  0  0  0  0  0  0  0  0  0  0
   62.2995   34.0374   47.0123 H   0  0  0  0  0  0  0  0  0  0  0  0
   61.3875   33.2142   45.6551 H   0  0  0  0  0  0  0  0  0  0  0  0
   59.6876   32.8888   48.5247 H   0  0  0  0  0  0  0  0  0  0  0  0
   58.6472   34.3857   48.3946 H   0  0  0  0  0  0  0  0  0  0  0  0
   58.3051   31.7391   47.1577 H   0  0  0  0  0  0  0  0  0  0  0  0
   57.1348   33.1118   47.3939 H   0  0  0  0  0  0  0  0  0  0  0  0
   56.4282   31.9644   45.5711 H   0  0  0  0  0  0  0  0  0  0  0  0
   56.3899   33.4262   44.5200 H   0  0  0  0  0  0  0  0  0  0  0  0
   57.1033   32.2207   42.7557 H   0  0  0  0  0  0  0  0  0  0  0  0
   58.5563   31.6856   43.6894 H   0  0  0  0  0  0  0  0  0  0  0  0
   56.9948   27.2182   43.9166 H   0  0  0  0  0  0  0  0  0  0  0  0
   58.5839   25.7194   45.1189 H   0  0  0  0  0  0  0  0  0  0  0  0
   60.5675   26.5615   47.7895 H   0  0  0  0  0  0  0  0  0  0  0  0
   60.4906   25.4102   46.4129 H   0  0  0  0  0  0  0  0  0  0  0  0
   61.7091   26.7300   46.4129 H   0  0  0  0  0  0  0  0  0  0  0  0
   60.6612   29.1831   46.6855 H   0  0  0  0  0  0  0  0  0  0  0  0
   59.0676   30.6798   45.4849 H   0  0  0  0  0  0  0  0  0  0  0  0
   58.1829   34.8376   44.3404 H   0  0  0  0  0  0  0  0  0  0  0  0
   57.5282   35.0977   45.9930 H   0  0  0  0  0  0  0  0  0  0  0  0
   60.3962   34.9663   45.0412 H   0  0  0  0  0  0  0  0  0  0  0  0
   59.5878   36.0938   46.2240 H   0  0  0  0  0  0  0  0  0  0  0  0
  1  2  1  0
  2  3  1  0
  3  4  1  0
  4  5  1  0
  5  6  1  0
  6  7  1  0
  7  8  1  0
  8  9  1  0
  9 10  2  0
  9 11  2  0
  9 12  1  0
 12 13  2  0
 13 14  1  0
 14 15  2  0
 15 16  1  0
 15 17  1  0
 17 18  2  0
  6 19  1  0
 19 20  1  0
 20  3  1  0
 18 12  1  0
  1 21  1  0
  1 22  1  0
  1 23  1  0
  2 24  1  0
  2 25  1  0
  4 26  1  0
  4 27  1  0
  5 28  1  0
  5 29  1  0
  7 30  1  0
  7 31  1  0
  8 32  1  0
  8 33  1  0
 13 34  1  0
 14 35  1  0
 16 36  1  0
 16 37  1  0
 16 38  1  0
 17 39  1  0
 18 40  1  0
 19 41  1  0
 19 42  1  0
 20 43  1  0
 20 44  1  0
M  END
>  <UniqueID>  (13) 
13

>  <SMILES>  (13) 
CCN1CCN(CCS(=O)(=O)c2ccc(C)cc2)CC1

>  <Energy>  (13) 
50.613872136908014

>  <Genealogy>  (13) 
CCN1CCN(CCS(=O)(=O)c2ccc(C)cc2)CC1 (3D coordinates assigned)
CCN1CCN(CCS(=O)(=O)c2ccc(C)cc2)CC1 (nonaromatic ring conformer: 50.613872136908014 kcal/mol)

>  <smiles>  (13) 
CCN1CCN(CCS(=O)(=O)c2ccc(C)cc2)CC1

>  <score_type>  (13) 
oracle

>  <origin>  (13) 
adg

>  <m_score__min__energy>  (13) 
-7.8099999999999996

>  <m_primary>  (13) 
energy

$$$$
13:0
     RDKit          3D

 60 63  0  0  0  0  0  0  0  0999 V2000
   57.0220   22.7300   45.8110 C   0  0  0  0  0  0  0  0  0  0  0  0
   56.5900   23.8950   46.5080 O   0  0  0  0  0  0  0  0  0  0  0  0
   57.0900   25.1880   46.2870 C   0  0  0  0  0  0  0  0  0  0  0  0
   58.4680   25.4770   46.3250 C   0  0  0  0  0  0  0  0  0  0  0  0
   58.9260   26.7830   46.0940 C   0  0  0  0  0  0  0  0  0  0  0  0
   58.0210   27.8150   45.7920 C   0  0  0  0  0  0  0  0  0  0  0  0
   56.6430   27.5260   45.7990 C   0  0  0  0  0  0  0  0  0  0  0  0
   56.1820   26.2190   46.0180 C   0  0  0  0  0  0  0  0  0  0  0  0
   54.8150   25.9460   45.9960 O   0  0  0  0  0  0  0  0  0  0  0  0
   54.2980   24.7800   45.3680 C   0  0  0  0  0  0  0  0  0  0  0  0
   58.5440   29.2200   45.6540 C   0  0  0  0  0  0  0  0  0  0  0  0
   59.7280   29.5490   46.3510 C   0  0  0  0  0  0  0  0  0  0  0  0
   60.0500   30.9140   46.5710 C   0  0  0  0  0  0  0  0  0  0  0  0
   61.1150   31.2930   47.4940 N   0  0  0  0  0  0  0  0  0  0  0  0
   60.7760   30.9630   48.8930 C   0  0  0  0  0  0  0  0  0  0  0  0
   60.6910   32.2290   49.7770 C   0  0  0  0  0  0  0  0  0  0  0  0
   60.8740   33.5000   49.0370 N   0  0  0  0  0  0  0  0  0  0  0  0
   59.7120   34.3960   49.1410 C   0  0  0  0  0  0  0  0  0  0  0  0
   62.1190   34.2020   49.3840 C   0  0  0  0  0  0  0  0  0  0  0  0
   59.2660   31.9070   45.9220 C   0  0  0  0  0  0  0  0  0  0  0  0
   59.5550   33.2890   46.0560 C   0  0  0  0  0  0  0  0  0  0  0  0
   58.7810   34.2530   45.4160 C   0  0  0  0  0  0  0  0  0  0  0  0
   57.6990   33.8710   44.6360 C   0  0  0  0  0  0  0  0  0  0  0  0
   57.3980   32.5230   44.4710 C   0  0  0  0  0  0  0  0  0  0  0  0
   58.1840   31.5130   45.0870 C   0  0  0  0  0  0  0  0  0  0  0  0
   57.9060   30.1760   44.8940 N   0  0  0  0  0  0  0  0  0  0  0  0
   57.0230   29.7710   43.7810 C   0  0  0  0  0  0  0  0  0  0  0  0
   60.6190   28.4220   46.8710 C   0  0  0  0  0  0  0  0  0  0  0  0
   60.3870   27.0950   46.1400 C   0  0  0  0  0  0  0  0  0  0  0  0
   57.3096   21.9544   46.5361 H   0  0  0  0  0  0  0  0  0  0  0  0
   56.2029   22.3558   45.1794 H   0  0  0  0  0  0  0  0  0  0  0  0
   57.8871   22.9803   45.1794 H   0  0  0  0  0  0  0  0  0  0  0  0
   59.1894   24.6741   46.5370 H   0  0  0  0  0  0  0  0  0  0  0  0
   55.9180   28.3359   45.6305 H   0  0  0  0  0  0  0  0  0  0  0  0
   53.9790   24.0605   46.1365 H   0  0  0  0  0  0  0  0  0  0  0  0
   53.4365   25.0527   44.7408 H   0  0  0  0  0  0  0  0  0  0  0  0
   55.0786   24.3246   44.7408 H   0  0  0  0  0  0  0  0  0  0  0  0
   62.0320   30.8570   47.2740 H   0  0  0  0  0  0  0  0  0  0  0  0
   61.3020   32.3160   47.4070 H   0  0  0  0  0  0  0  0  0  0  0  0
   59.8035   30.4494   48.9121 H   0  0  0  0  0  0  0  0  0  0  0  0
   61.5715   30.3181   49.2947 H   0  0  0  0  0  0  0  0  0  0  0  0
   59.7015   32.2487   50.2571 H   0  0  0  0  0  0  0  0  0  0  0  0
   61.5154   32.1640   50.5024 H   0  0  0  0  0  0  0  0  0  0  0  0
   59.4804   34.5746   50.2014 H   0  0  0  0  0  0  0  0  0  0  0  0
   59.9418   35.3530   48.6497 H   0  0  0  0  0  0  0  0  0  0  0  0
   58.8449   33.9305   48.6497 H   0  0  0  0  0  0  0  0  0  0  0  0
   62.2162   34.2568   50.4783 H   0  0  0  0  0  0  0  0  0  0  0  0
   62.9771   33.6547   48.9666 H   0  0  0  0  0  0  0  0  0  0  0  0
   62.0948   35.2194   48.9666 H   0  0  0  0  0  0  0  0  0  0  0  0
   60.4062   33.6049   46.6769 H   0  0  0  0  0  0  0  0  0  0  0  0
   59.0276   35.3191   45.5288 H   0  0  0  0  0  0  0  0  0  0  0  0
   57.0778   34.6358   44.1470 H   0  0  0  0  0  0  0  0  0  0  0  0
   56.5357   32.2340   43.8523 H   0  0  0  0  0  0  0  0  0  0  0  0
   56.0936   29.3447   44.1867 H   0  0  0  0  0  0  0  0  0  0  0  0
   56.7845   30.6497   43.1638 H   0  0  0  0  0  0  0  0  0  0  0  0
   57.5334   29.0170   43.1638 H   0  0  0  0  0  0  0  0  0  0  0  0
   61.6707   28.7164   46.7393 H   0  0  0  0  0  0  0  0  0  0  0  0
   60.3685   28.2643   47.9304 H   0  0  0  0  0  0  0  0  0  0  0  0
   60.7751   27.1722   45.1136 H   0  0  0  0  0  0  0  0  0  0  0  0
   60.9103   26.2910   46.6783 H   0  0  0  0  0  0  0  0  0  0  0  0
  1  2  1  0
  2  3  1  0
  3  4  2  0
  4  5  1  0
  5  6  2  0
  6  7  1  0
  7  8  2  0
  8  9  1  0
  9 10  1  0
  6 11  1  0
 11 12  2  0
 12 13  1  0
 13 14  1  0
 14 15  1  0
 15 16  1  0
 16 17  1  0
 17 18  1  0
 17 19  1  0
 13 20  2  0
 20 21  1  0
 21 22  2  0
 22 23  1  0
 23 24  2  0
 24 25  1  0
 25 26  2  0
 26 27  1  0
 12 28  1  0
 28 29  1  0
  8  3  1  0
 26 11  1  0
 29  5  1  0
 25 20  1  0
  1 30  1  0
  1 31  1  0
  1 32  1  0
  4 33  1  0
  7 34  1  0
 10 35  1  0
 10 36  1  0
 10 37  1  0
 14 38  1  0
 14 39  1  0
 15 40  1  0
 15 41  1  0
 16 42  1  0
 16 43  1  0
 18 44  1  0
 18 45  1  0
 18 46  1  0
 19 47  1  0
 19 48  1  0
 19 49  1  0
 21 50  1  0
 22 51  1  0
 23 52  1  0
 24 53  1  0
 27 54  1  0
 27 55  1  0
 27 56  1  0
 28 57  1  0
 28 58  1  0
 29 59  1  0
 29 60  1  0
M  CHG  2  14   1  26   1
M  END
>  <UniqueID>  (14) 
14

>  <SMILES>  (14) 
COc1cc2c(cc1OC)-c1c(c([NH2+]CCN(C)C)c3ccccc3[n+]1C)CC2

>  <Energy>  (14) 
102.5046913622582

>  <Genealogy>  (14) 
COc1cc2c(cc1OC)-c1c(c([NH2+]CCN(C)C)c3ccccc3[n+]1C)CC2 (protonated)
COc1cc2c(cc1OC)-c1c(c([NH2+]CCN(C)C)c3ccccc3[n+]1C)CC2 (3D coordinates assigned)
COc1cc2c(cc1OC)-c1c(c([NH2+]CCN(C)C)c3ccccc3[n+]1C)CC2 (nonaromatic ring conformer: 102.5046913622582 kcal/mol)

>  <smiles>  (14) 
COc1cc2c(cc1OC)-c1c(c(NCCN(C)C)c3ccccc3[n+]1C)CC2

>  <score_type>  (14) 
oracle

>  <origin>  (14) 
adg

>  <m_score__min__energy>  (14) 
-5.6500000000000004

>  <m_primary>  (14) 
energy

$$$$
14:0
     RDKit          3D

 36 37  0  0  0  0  0  0  0  0999 V2000
   55.9020   29.9340   43.7550 C   0  0  0  0  0  0  0  0  0  0  0  0
   57.3040   30.1900   44.3040 C   0  0  0  0  0  0  0  0  0  0  0  0
   57.3040   31.3360   45.2390 N   0  0  0  0  0  0  0  0  0  0  0  0
   58.2770   31.1720   46.3420 C   0  0  0  0  0  0  0  0  0  0  0  0
   59.4860   30.2970   45.9760 C   0  0  0  0  0  0  0  0  0  0  0  0
   57.4130   32.6520   44.5610 C   0  0  0  0  0  0  0  0  0  0  0  0
   57.2610   33.7710   45.5860 C   0  0  0  0  0  0  0  0  0  0  0  0
   58.4540   34.5500   45.6280 O   0  0  0  0  0  0  0  0  0  0  0  0
   59.5360   34.2960   46.4820 C   0  0  0  0  0  0  0  0  0  0  0  0
   59.3490   34.4800   47.8720 C   0  0  0  0  0  0  0  0  0  0  0  0
   60.4010   34.2410   48.7760 C   0  0  0  0  0  0  0  0  0  0  0  0
   61.6200   33.8190   48.2570 C   0  0  0  0  0  0  0  0  0  0  0  0
   61.8090   33.6390   46.9260 C   0  0  0  0  0  0  0  0  0  0  0  0
   60.7960   33.8640   45.9980 C   0  0  0  0  0  0  0  0  0  0  0  0
   63.1060   33.2210   46.6980 O   0  0  0  0  0  0  0  0  0  0  0  0
   63.7720   33.1320   47.9660 C   0  0  0  0  0  0  0  0  0  0  0  0
   62.7870   33.5240   48.9330 O   0  0  0  0  0  0  0  0  0  0  0  0
   55.1987   29.8056   44.5910 H   0  0  0  0  0  0  0  0  0  0  0  0
   55.5874   30.7896   43.1393 H   0  0  0  0  0  0  0  0  0  0  0  0
   55.9101   29.0225   43.1393 H   0  0  0  0  0  0  0  0  0  0  0  0
   57.6522   29.2919   44.8352 H   0  0  0  0  0  0  0  0  0  0  0  0
   57.9735   30.4229   43.4629 H   0  0  0  0  0  0  0  0  0  0  0  0
   58.6442   32.1676   46.6317 H   0  0  0  0  0  0  0  0  0  0  0  0
   57.7494   30.6634   47.1623 H   0  0  0  0  0  0  0  0  0  0  0  0
   59.9746   29.9434   46.8959 H   0  0  0  0  0  0  0  0  0  0  0  0
   59.1479   29.4330   45.3850 H   0  0  0  0  0  0  0  0  0  0  0  0
   60.2010   30.8882   45.3850 H   0  0  0  0  0  0  0  0  0  0  0  0
   58.3962   32.7326   44.0744 H   0  0  0  0  0  0  0  0  0  0  0  0
   56.6190   32.7397   43.8047 H   0  0  0  0  0  0  0  0  0  0  0  0
   56.4145   34.4138   45.3027 H   0  0  0  0  0  0  0  0  0  0  0  0
   57.0769   33.3333   46.5782 H   0  0  0  0  0  0  0  0  0  0  0  0
   58.3714   34.8133   48.2503 H   0  0  0  0  0  0  0  0  0  0  0  0
   60.2633   34.3834   49.8580 H   0  0  0  0  0  0  0  0  0  0  0  0
   60.9682   33.7112   44.9224 H   0  0  0  0  0  0  0  0  0  0  0  0
   64.1092   32.1019   48.1538 H   0  0  0  0  0  0  0  0  0  0  0  0
   64.6673   33.7698   48.0073 H   0  0  0  0  0  0  0  0  0  0  0  0
  1  2  1  0
  2  3  1  0
  3  4  1  0
  4  5  1  0
  3  6  1  0
  6  7  1  0
  7  8  1  0
  8  9  1  0
  9 10  2  0
 10 11  1  0
 11 12  2  0
 12 13  1  0
 13 14  2  0
 13 15  1  0
 15 16  1  0
 16 17  1  0
 14  9  1  0
 17 12  1  0
  1 18  1  0
  1 19  1  0
  1 20  1  0
  2 21  1  0
  2 22  1  0
  4 23  1  0
  4 24  1  0
  5 25  1  0
  5 26  1  0
  5 27  1  0
  6 28  1  0
  6 29  1  0
  7 30  1  0
  7 31  1  0
 10 32  1  0
 11 33  1  0
 14 34  1  0
 16 35  1  0
 16 36  1  0
M  END
>  <UniqueID>  (15) 
15

>  <SMILES>  (15) 
CCN(CC)CCOc1ccc2c(c1)OCO2

>  <Energy>  (15) 
61.88534038057339

>  <Genealogy>  (15) 
CCN(CC)CCOc1ccc2c(c1)OCO2 (3D coordinates assigned)
CCN(CC)CCOc1ccc2c(c1)OCO2 (nonaromatic ring conformer: 61.88534038057339 kcal/mol)

>  <smiles>  (15) 
CCN(CC)CCOc1ccc2c(c1)OCO2

>  <score_type>  (15) 
oracle

>  <origin>  (15) 
adg

>  <m_score__min__energy>  (15) 
-5.0300000000000002

>  <m_primary>  (15) 
energy

$$$$
15:0
     RDKit          3D

 68 70  0  0  0  0  0  0  0  0999 V2000
   57.7690   32.6940   45.9740 C   0  0  0  0  0  0  0  0  0  0  0  0
   57.7930   33.0550   44.4800 C   0  0  0  0  0  0  0  0  0  0  0  0
   57.7250   31.8900   43.5660 N   0  0  0  0  0  0  0  0  0  0  0  0
   57.7650   32.2670   42.1440 C   0  0  0  0  0  0  0  0  0  0  0  0
   56.6100   30.9640   43.8660 C   0  0  0  0  0  0  0  0  0  0  0  0
   56.5260   29.8610   42.8040 C   0  0  0  0  0  0  0  0  0  0  0  0
   57.0310   28.5860   43.3200 N   0  0  0  0  0  0  0  0  0  0  0  0
   57.8520   28.4470   44.4940 C   0  0  0  0  0  0  0  0  0  0  0  0
   57.4510   27.5670   45.5070 C   0  0  0  0  0  0  0  0  0  0  0  0
   58.2110   27.4290   46.6680 C   0  0  0  0  0  0  0  0  0  0  0  0
   59.3890   28.1710   46.8460 C   0  0  0  0  0  0  0  0  0  0  0  0
   59.8260   29.0210   45.8160 C   0  0  0  0  0  0  0  0  0  0  0  0
   59.0520   29.1630   44.6510 C   0  0  0  0  0  0  0  0  0  0  0  0
   61.0760   29.8270   45.9880 C   0  0  0  0  0  0  0  0  0  0  0  0
   60.8390   30.8920   47.0520 C   0  0  0  0  0  0  0  0  0  0  0  0
   61.0050   30.4010   48.4770 C   0  0  0  0  0  0  0  0  0  0  0  0
   61.4440   31.3600   49.4100 C   0  0  0  0  0  0  0  0  0  0  0  0
   61.6480   31.0430   50.7520 C   0  0  0  0  0  0  0  0  0  0  0  0
   62.1050   32.0570   51.6110 O   0  0  0  0  0  0  0  0  0  0  0  0
   62.0430   33.4600   51.3480 C   0  0  0  0  0  0  0  0  0  0  0  0
   63.3720   33.9710   50.7830 C   0  0  0  0  0  0  0  0  0  0  0  0
   63.7800   33.1610   49.6120 N   0  0  0  0  0  0  0  0  0  0  0  0
   65.1910   32.7120   49.7020 C   0  0  0  0  0  0  0  0  0  0  0  0
   65.4300   31.5960   50.7280 C   0  0  0  0  0  0  0  0  0  0  0  0
   63.4350   33.8270   48.3350 C   0  0  0  0  0  0  0  0  0  0  0  0
   63.6770   32.9130   47.1350 C   0  0  0  0  0  0  0  0  0  0  0  0
   61.3850   29.7400   51.1910 C   0  0  0  0  0  0  0  0  0  0  0  0
   60.9220   28.7790   50.2960 C   0  0  0  0  0  0  0  0  0  0  0  0
   60.7090   29.0790   48.9330 C   0  0  0  0  0  0  0  0  0  0  0  0
   60.1840   27.9680   48.0770 C   0  0  0  0  0  0  0  0  0  0  0  0
   60.3660   26.7780   48.4520 O   0  0  0  0  0  0  0  0  0  0  0  0
   57.8301   33.6136   46.5745 H   0  0  0  0  0  0  0  0  0  0  0  0
   56.8337   32.1646   46.2083 H   0  0  0  0  0  0  0  0  0  0  0  0
   58.6260   32.0454   46.2083 H   0  0  0  0  0  0  0  0  0  0  0  0
   56.9325   33.7073   44.2701 H   0  0  0  0  0  0  0  0  0  0  0  0
   58.7596   33.5451   44.2916 H   0  0  0  0  0  0  0  0  0  0  0  0
   57.8807   33.3574   42.0569 H   0  0  0  0  0  0  0  0  0  0  0  0
   58.6152   31.7679   41.6561 H   0  0  0  0  0  0  0  0  0  0  0  0
   56.8290   31.9574   41.6561 H   0  0  0  0  0  0  0  0  0  0  0  0
   56.7760   30.5052   44.8518 H   0  0  0  0  0  0  0  0  0  0  0  0
   55.6673   31.5308   43.8649 H   0  0  0  0  0  0  0  0  0  0  0  0
   55.4762   29.7344   42.5010 H   0  0  0  0  0  0  0  0  0  0  0  0
   57.1457   30.1580   41.9450 H   0  0  0  0  0  0  0  0  0  0  0  0
   56.7110   27.7170   42.8330 H   0  0  0  0  0  0  0  0  0  0  0  0
   56.5288   26.9797   45.3858 H   0  0  0  0  0  0  0  0  0  0  0  0
   57.8837   26.7311   47.4528 H   0  0  0  0  0  0  0  0  0  0  0  0
   59.3888   29.8417   43.8535 H   0  0  0  0  0  0  0  0  0  0  0  0
   61.8988   29.1683   46.3028 H   0  0  0  0  0  0  0  0  0  0  0  0
   61.3417   30.3075   45.0348 H   0  0  0  0  0  0  0  0  0  0  0  0
   61.5542   31.7108   46.8846 H   0  0  0  0  0  0  0  0  0  0  0  0
   59.7911   31.2106   46.9496 H   0  0  0  0  0  0  0  0  0  0  0  0
   61.6314   32.3892   49.0699 H   0  0  0  0  0  0  0  0  0  0  0  0
   61.2432   33.6543   50.6182 H   0  0  0  0  0  0  0  0  0  0  0  0
   61.8382   33.9853   52.2925 H   0  0  0  0  0  0  0  0  0  0  0  0
   63.2554   35.0205   50.4750 H   0  0  0  0  0  0  0  0  0  0  0  0
   64.1456   33.8894   51.5607 H   0  0  0  0  0  0  0  0  0  0  0  0
   65.4998   32.3434   48.7127 H   0  0  0  0  0  0  0  0  0  0  0  0
   65.7791   33.5799   50.0351 H   0  0  0  0  0  0  0  0  0  0  0  0
   65.3419   32.0073   51.7444 H   0  0  0  0  0  0  0  0  0  0  0  0
   64.6815   30.8023   50.5875 H   0  0  0  0  0  0  0  0  0  0  0  0
   66.4379   31.1785   50.5875 H   0  0  0  0  0  0  0  0  0  0  0  0
   62.3726   34.1114   48.3574 H   0  0  0  0  0  0  0  0  0  0  0  0
   64.0790   34.7121   48.2261 H   0  0  0  0  0  0  0  0  0  0  0  0
   63.9436   31.9062   47.4888 H   0  0  0  0  0  0  0  0  0  0  0  0
   62.7626   32.8575   46.5261 H   0  0  0  0  0  0  0  0  0  0  0  0
   64.4991   33.3172   46.5261 H   0  0  0  0  0  0  0  0  0  0  0  0
   61.5446   29.4744   52.2465 H   0  0  0  0  0  0  0  0  0  0  0  0
   60.7172   27.7613   50.6598 H   0  0  0  0  0  0  0  0  0  0  0  0
  1  2  1  0
  2  3  1  0
  3  4  1  0
  3  5  1  0
  5  6  1  0
  6  7  1  0
  7  8  1  0
  8  9  2  0
  9 10  1  0
 10 11  2  0
 11 12  1  0
 12 13  2  0
 12 14  1  0
 14 15  1  0
 15 16  1  0
 16 17  2  0
 17 18  1  0
 18 19  1  0
 19 20  1  0
 20 21  1  0
 21 22  1  0
 22 23  1  0
 23 24  1  0
 22 25  1  0
 25 26  1  0
 18 27  2  0
 27 28  1  0
 28 29  2  0
 29 30  1  0
 30 31  2  0
 13  8  1  0
 29 16  1  0
 30 11  1  0
  1 32  1  0
  1 33  1  0
  1 34  1  0
  2 35  1  0
  2 36  1  0
  4 37  1  0
  4 38  1  0
  4 39  1  0
  5 40  1  0
  5 41  1  0
  6 42  1  0
  6 43  1  0
  7 44  1  0
  9 45  1  0
 10 46  1  0
 13 47  1  0
 14 48  1  0
 14 49  1  0
 15 50  1  0
 15 51  1  0
 17 52  1  0
 20 53  1  0
 20 54  1  0
 21 55  1  0
 21 56  1  0
 23 57  1  0
 23 58  1  0
 24 59  1  0
 24 60  1  0
 24 61  1  0
 25 62  1  0
 25 63  1  0
 26 64  1  0
 26 65  1  0
 26 66  1  0
 27 67  1  0
 28 68  1  0
M  END
>  <UniqueID>  (16) 
16

>  <SMILES>  (16) 
CCN(C)CCNc1ccc2c(c1)CCc1cc(OCCN(CC)CC)ccc1C2=O

>  <Energy>  (16) 
85.99605493510897

>  <Genealogy>  (16) 
CCN(C)CCNc1ccc2c(c1)CCc1cc(OCCN(CC)CC)ccc1C2=O (3D coordinates assigned)
CCN(C)CCNc1ccc2c(c1)CCc1cc(OCCN(CC)CC)ccc1C2=O (nonaromatic ring conformer: 85.99605493510897 kcal/mol)

>  <smiles>  (16) 
CCN(C)CCNc1ccc2c(c1)CCc1cc(OCCN(CC)CC)ccc1C2=O

>  <score_type>  (16) 
oracle

>  <origin>  (16) 
adg

>  <m_score__min__energy>  (16) 
-6.0800000000000001

>  <m_primary>  (16) 
energy

$$$$
16:0
     RDKit          3D

 48 50  0  0  0  0  0  0  0  0999 V2000
   62.4400   33.8360   46.3820 C   0  0  0  0  0  0  0  0  0  0  0  0
   61.4530   32.9050   47.0400 C   0  0  0  0  0  0  0  0  0  0  0  0
   61.9200   31.6530   47.4830 C   0  0  0  0  0  0  0  0  0  0  0  0
   61.0410   30.7010   47.9920 C   0  0  0  0  0  0  0  0  0  0  0  0
   59.6780   30.9730   48.0470 C   0  0  0  0  0  0  0  0  0  0  0  0
   59.1940   32.2130   47.6310 C   0  0  0  0  0  0  0  0  0  0  0  0
   60.0700   33.2260   47.1890 C   0  0  0  0  0  0  0  0  0  0  0  0
   59.4810   34.5720   46.7640 C   0  0  0  0  0  0  0  0  0  0  0  0
   58.7310   34.5870   45.4730 N   0  0  2  0  0  0  0  0  0  0  0  0
   57.2550   34.5670   45.6110 C   0  0  0  0  0  0  0  0  0  0  0  0
   56.6570   33.1570   45.7970 C   0  0  0  0  0  0  0  0  0  0  0  0
   57.4260   32.0490   45.0490 C   0  0  1  0  0  0  0  0  0  0  0  0
   56.5230   31.0970   44.5060 O   0  0  0  0  0  0  0  0  0  0  0  0
   57.2070   30.0930   43.7770 C   0  0  0  0  0  0  0  0  0  0  0  0
   58.1110   29.2840   44.6730 C   0  0  0  0  0  0  0  0  0  0  0  0
   59.5040   29.3270   44.5000 C   0  0  0  0  0  0  0  0  0  0  0  0
   60.3400   28.5680   45.3230 C   0  0  0  0  0  0  0  0  0  0  0  0
   59.7940   27.7720   46.3330 C   0  0  0  0  0  0  0  0  0  0  0  0
   58.4100   27.7370   46.5240 C   0  0  0  0  0  0  0  0  0  0  0  0
   57.5700   28.4930   45.7000 C   0  0  0  0  0  0  0  0  0  0  0  0
   58.2450   32.6400   43.9040 C   0  0  0  0  0  0  0  0  0  0  0  0
   59.2630   33.6720   44.4200 C   0  0  0  0  0  0  0  0  0  0  0  0
   63.0092   34.3729   47.1552 H   0  0  0  0  0  0  0  0  0  0  0  0
   63.1317   33.2538   45.7554 H   0  0  0  0  0  0  0  0  0  0  0  0
   61.8991   34.5605   45.7554 H   0  0  0  0  0  0  0  0  0  0  0  0
   62.9943   31.4238   47.4262 H   0  0  0  0  0  0  0  0  0  0  0  0
   61.4241   29.7342   48.3505 H   0  0  0  0  0  0  0  0  0  0  0  0
   58.9804   30.2084   48.4194 H   0  0  0  0  0  0  0  0  0  0  0  0
   58.1109   32.4041   47.6479 H   0  0  0  0  0  0  0  0  0  0  0  0
   58.7922   34.9016   47.5558 H   0  0  0  0  0  0  0  0  0  0  0  0
   60.3450   35.2350   46.6094 H   0  0  0  0  0  0  0  0  0  0  0  0
   58.9270   35.5510   45.1050 H   0  0  0  0  0  0  0  0  0  0  0  0
   56.9819   35.1758   46.4855 H   0  0  0  0  0  0  0  0  0  0  0  0
   56.8439   34.9636   44.6709 H   0  0  0  0  0  0  0  0  0  0  0  0
   56.6616   32.9176   46.8706 H   0  0  0  0  0  0  0  0  0  0  0  0
   55.6417   33.1823   45.3746 H   0  0  0  0  0  0  0  0  0  0  0  0
   58.0954   31.5620   45.7734 H   0  0  0  0  0  0  0  0  0  0  0  0
   56.4693   29.4221   43.3127 H   0  0  0  0  0  0  0  0  0  0  0  0
   57.8258   30.5819   43.0102 H   0  0  0  0  0  0  0  0  0  0  0  0
   59.9388   29.9609   43.7132 H   0  0  0  0  0  0  0  0  0  0  0  0
   61.4297   28.5973   45.1755 H   0  0  0  0  0  0  0  0  0  0  0  0
   60.4535   27.1728   46.9780 H   0  0  0  0  0  0  0  0  0  0  0  0
   57.9810   27.1144   47.3230 H   0  0  0  0  0  0  0  0  0  0  0  0
   56.4815   28.4681   45.8568 H   0  0  0  0  0  0  0  0  0  0  0  0
   58.7845   31.8288   43.3933 H   0  0  0  0  0  0  0  0  0  0  0  0
   57.5576   33.1467   43.2107 H   0  0  0  0  0  0  0  0  0  0  0  0
   60.1227   33.1282   44.8386 H   0  0  0  0  0  0  0  0  0  0  0  0
   59.5335   34.3039   43.5612 H   0  0  0  0  0  0  0  0  0  0  0  0
  1  2  1  0
  2  3  2  0
  3  4  1  0
  4  5  2  0
  5  6  1  0
  6  7  2  0
  7  8  1  0
  8  9  1  0
  9 10  1  0
 10 11  1  0
 11 12  1  0
 12 13  1  0
 13 14  1  0
 14 15  1  0
 15 16  2  0
 16 17  1  0
 17 18  2  0
 18 19  1  0
 19 20  2  0
 12 21  1  0
 21 22  1  0
  7  2  1  0
 22  9  1  0
 20 15  1  0
  1 23  1  0
  1 24  1  0
  1 25  1  0
  3 26  1  0
  4 27  1  0
  5 28  1  0
  6 29  1  0
  8 30  1  0
  8 31  1  0
  9 32  1  6
 10 33  1  0
 10 34  1  0
 11 35  1  0
 11 36  1  0
 12 37  1  1
 14 38  1  0
 14 39  1  0
 16 40  1  0
 17 41  1  0
 18 42  1  0
 19 43  1  0
 20 44  1  0
 21 45  1  0
 21 46  1  0
 22 47  1  0
 22 48  1  0
M  CHG  1   9   1
M  END
>  <UniqueID>  (17) 
17

>  <SMILES>  (17) 
Cc1ccccc1C[NH+]1CCC(OCc2ccccc2)CC1

>  <Energy>  (17) 
68.20458676833205

>  <Genealogy>  (17) 
Cc1ccccc1C[NH+]1CCC(OCc2ccccc2)CC1 (protonated)
Cc1ccccc1C[NH+]1CCC(OCc2ccccc2)CC1 (3D coordinates assigned)
Cc1ccccc1C[NH+]1CCC(OCc2ccccc2)CC1 (nonaromatic ring conformer: 68.20458676833205 kcal/mol)

>  <smiles>  (17) 
Cc1ccccc1CN1CCC(OCc2ccccc2)CC1

>  <score_type>  (17) 
oracle

>  <origin>  (17) 
adg

>  <m_score__min__energy>  (17) 
-6.1100000000000003

>  <m_primary>  (17) 
energy

$$$$
17:0
     RDKit          3D

 40 42  0  0  0  0  0  0  0  0999 V2000
   60.3820   28.6740   44.8690 C   0  0  0  0  0  0  0  0  0  0  0  0
   60.4210   29.1430   46.3310 C   0  0  0  0  0  0  0  0  0  0  0  0
   59.2610   28.7120   47.1500 N   0  0  0  0  0  0  0  0  0  0  0  0
   59.0390   27.2580   47.0690 C   0  0  0  0  0  0  0  0  0  0  0  0
   59.2960   29.1560   48.5610 C   0  0  0  0  0  0  0  0  0  0  0  0
   60.0560   30.4790   48.7250 C   0  0  0  0  0  0  0  0  0  0  0  0
   58.8980   31.8770   48.9380 S   0  0  0  0  0  0  0  0  0  0  0  0
   58.6090   32.1140   47.1760 C   0  0  0  0  0  0  0  0  0  0  0  0
   58.0380   31.1180   46.4390 N   0  0  0  0  0  0  0  0  0  0  0  0
   57.8140   31.2710   45.0970 C   0  0  0  0  0  0  0  0  0  0  0  0
   57.2350   30.2330   44.3500 C   0  0  0  0  0  0  0  0  0  0  0  0
   57.0100   30.3930   42.9800 C   0  0  0  0  0  0  0  0  0  0  0  0
   57.3580   31.5880   42.3430 C   0  0  0  0  0  0  0  0  0  0  0  0
   57.9350   32.6330   43.0710 C   0  0  0  0  0  0  0  0  0  0  0  0
   58.1660   32.4820   44.4480 C   0  0  0  0  0  0  0  0  0  0  0  0
   58.7380   33.4820   45.2430 C   0  0  0  0  0  0  0  0  0  0  0  0
   59.1710   34.7480   44.8870 C   0  0  0  0  0  0  0  0  0  0  0  0
   59.6530   35.3250   46.0520 C   0  0  0  0  0  0  0  0  0  0  0  0
   59.4960   34.3940   47.0660 C   0  0  0  0  0  0  0  0  0  0  0  0
   58.9380   33.2800   46.5560 N   0  0  0  0  0  0  0  0  0  0  0  0
   60.2909   27.5782   44.8378 H   0  0  0  0  0  0  0  0  0  0  0  0
   59.5185   29.1284   44.3611 H   0  0  0  0  0  0  0  0  0  0  0  0
   61.3087   28.9795   44.3611 H   0  0  0  0  0  0  0  0  0  0  0  0
   61.3353   28.7443   46.7948 H   0  0  0  0  0  0  0  0  0  0  0  0
   60.3934   30.2424   46.3062 H   0  0  0  0  0  0  0  0  0  0  0  0
   58.9751   26.8397   48.0844 H   0  0  0  0  0  0  0  0  0  0  0  0
   58.1002   27.0598   46.5311 H   0  0  0  0  0  0  0  0  0  0  0  0
   59.8759   26.7887   46.5311 H   0  0  0  0  0  0  0  0  0  0  0  0
   58.2641   29.2920   48.9169 H   0  0  0  0  0  0  0  0  0  0  0  0
   59.8193   28.3868   49.1479 H   0  0  0  0  0  0  0  0  0  0  0  0
   60.7067   30.4129   49.6094 H   0  0  0  0  0  0  0  0  0  0  0  0
   60.6544   30.6543   47.8188 H   0  0  0  0  0  0  0  0  0  0  0  0
   57.7690   30.2270   46.9150 H   0  0  0  0  0  0  0  0  0  0  0  0
   56.9575   29.2905   44.8447 H   0  0  0  0  0  0  0  0  0  0  0  0
   56.5571   29.5752   42.4003 H   0  0  0  0  0  0  0  0  0  0  0  0
   57.1771   31.7065   41.2645 H   0  0  0  0  0  0  0  0  0  0  0  0
   58.2075   33.5716   42.5662 H   0  0  0  0  0  0  0  0  0  0  0  0
   59.1392   35.2026   43.8858 H   0  0  0  0  0  0  0  0  0  0  0  0
   60.0803   36.3336   46.1524 H   0  0  0  0  0  0  0  0  0  0  0  0
   59.7813   34.5413   48.1181 H   0  0  0  0  0  0  0  0  0  0  0  0
  1  2  1  0
  2  3  1  0
  3  4  1  0
  3  5  1  0
  5  6  1  0
  6  7  1  0
  7  8  1  0
  8  9  2  0
  9 10  1  0
 10 11  2  0
 11 12  1  0
 12 13  2  0
 13 14  1  0
 14 15  2  0
 15 16  1  0
 16 17  2  0
 17 18  1  0
 18 19  2  0
 19 20  1  0
 20  8  1  0
 15 10  1  0
 20 16  1  0
  1 21  1  0
  1 22  1  0
  1 23  1  0
  2 24  1  0
  2 25  1  0
  4 26  1  0
  4 27  1  0
  4 28  1  0
  5 29  1  0
  5 30  1  0
  6 31  1  0
  6 32  1  0
  9 33  1  0
 11 34  1  0
 12 35  1  0
 13 36  1  0
 14 37  1  0
 17 38  1  0
 18 39  1  0
 19 40  1  0
M  CHG  1   9   1
M  END
>  <UniqueID>  (18) 
18

>  <SMILES>  (18) 
CCN(C)CCSc1[nH+]c2ccccc2c2cccn12

>  <Energy>  (18) 
74.24710396276475

>  <Genealogy>  (18) 
CCN(C)CCSc1[nH+]c2ccccc2c2cccn12 (protonated)
CCN(C)CCSc1[nH+]c2ccccc2c2cccn12 (3D coordinates assigned)
CCN(C)CCSc1[nH+]c2ccccc2c2cccn12 (optimized conformer: 74.24710396276475 kcal/mol)

>  <smiles>  (18) 
CCN(C)CCSc1nc2ccccc2c2cccn12

>  <score_type>  (18) 
oracle

>  <origin>  (18) 
adg

>  <m_score__min__energy>  (18) 
-5.1299999999999999

>  <m_primary>  (18) 
energy

$$$$
18:0
     RDKit          3D

 30 31  0  0  0  0  0  0  0  0999 V2000
   55.7140   29.9560   43.7590 C   0  0  0  0  0  0  0  0  0  0  0  0
   55.6490   29.0130   44.8700 N   0  0  0  0  0  0  0  0  0  0  0  0
   56.7770   28.2240   45.2930 C   0  0  0  0  0  0  0  0  0  0  0  0
   58.0860   28.7230   45.1440 C   0  0  0  0  0  0  0  0  0  0  0  0
   59.1900   27.9250   45.4530 C   0  0  0  0  0  0  0  0  0  0  0  0
   59.0050   26.6190   45.9050 C   0  0  0  0  0  0  0  0  0  0  0  0
   57.7140   26.1140   46.0730 C   0  0  0  0  0  0  0  0  0  0  0  0
   56.5960   26.9130   45.8020 C   0  0  0  0  0  0  0  0  0  0  0  0
   55.2960   26.3640   46.0700 N   0  0  0  0  0  0  0  0  0  0  0  0
   54.8170   25.0770   45.6550 C   0  0  0  0  0  0  0  0  0  0  0  0
   53.5980   24.8040   45.8220 O   0  0  0  0  0  0  0  0  0  0  0  0
   55.7040   24.0670   45.0300 C   0  0  0  0  0  0  0  0  0  0  0  0
   55.8540   24.0000   43.6330 C   0  0  0  0  0  0  0  0  0  0  0  0
   56.7120   23.0560   43.0590 C   0  0  0  0  0  0  0  0  0  0  0  0
   57.4160   22.1640   43.8720 C   0  0  0  0  0  0  0  0  0  0  0  0
   58.2480   21.2500   43.3120 F   0  0  0  0  0  0  0  0  0  0  0  0
   57.2580   22.2100   45.2590 C   0  0  0  0  0  0  0  0  0  0  0  0
   56.4020   23.1510   45.8370 C   0  0  0  0  0  0  0  0  0  0  0  0
   55.7847   30.9811   44.1518 H   0  0  0  0  0  0  0  0  0  0  0  0
   56.5992   29.7373   43.1437 H   0  0  0  0  0  0  0  0  0  0  0  0
   54.8072   29.8608   43.1437 H   0  0  0  0  0  0  0  0  0  0  0  0
   54.7580   28.9680   45.4140 H   0  0  0  0  0  0  0  0  0  0  0  0
   58.2400   29.7500   44.7812 H   0  0  0  0  0  0  0  0  0  0  0  0
   60.2073   28.3277   45.3395 H   0  0  0  0  0  0  0  0  0  0  0  0
   59.8764   25.9862   46.1293 H   0  0  0  0  0  0  0  0  0  0  0  0
   57.5739   25.0800   46.4211 H   0  0  0  0  0  0  0  0  0  0  0  0
   55.2938   24.6935   42.9886 H   0  0  0  0  0  0  0  0  0  0  0  0
   56.8326   23.0159   41.9664 H   0  0  0  0  0  0  0  0  0  0  0  0
   57.8087   21.5038   45.8978 H   0  0  0  0  0  0  0  0  0  0  0  0
   56.2734   23.1754   46.9292 H   0  0  0  0  0  0  0  0  0  0  0  0
  1  2  1  0
  2  3  1  0
  3  4  2  0
  4  5  1  0
  5  6  2  0
  6  7  1  0
  7  8  2  0
  8  9  1  0
  9 10  1  0
 10 11  2  0
 10 12  1  0
 12 13  2  0
 13 14  1  0
 14 15  2  0
 15 16  1  0
 15 17  1  0
 17 18  2  0
  8  3  1  0
 18 12  1  0
  1 19  1  0
  1 20  1  0
  1 21  1  0
  2 22  1  0
  4 23  1  0
  5 24  1  0
  6 25  1  0
  7 26  1  0
 13 27  1  0
 14 28  1  0
 17 29  1  0
 18 30  1  0
M  CHG  1   9  -1
M  END
>  <UniqueID>  (19) 
19

>  <SMILES>  (19) 
CNc1ccccc1[N-]C(=O)c1ccc(F)cc1

>  <Energy>  (19) 
39.06286529660676

>  <Genealogy>  (19) 
CNc1ccccc1[N-]C(=O)c1ccc(F)cc1 (protonated)
CNc1ccccc1[N-]C(=O)c1ccc(F)cc1 (3D coordinates assigned)
CNc1ccccc1[N-]C(=O)c1ccc(F)cc1 (optimized conformer: 39.06286529660676 kcal/mol)

>  <smiles>  (19) 
CNc1ccccc1NC(=O)c1ccc(F)cc1

>  <score_type>  (19) 
oracle

>  <origin>  (19) 
adg

>  <m_score__min__energy>  (19) 
-8.8100000000000005

>  <m_primary>  (19) 
energy

$$$$
19:0
     RDKit          3D

 45 47  0  0  0  0  0  0  0  0999 V2000
   59.0250   34.6000   45.2820 C   0  0  0  0  0  0  0  0  0  0  0  0
   59.9950   34.9650   46.4130 C   0  0  0  0  0  0  0  0  0  0  0  0
   60.3410   33.8460   47.3250 N   0  0  0  0  0  0  0  0  0  0  0  0
   61.7310   33.8500   47.8280 C   0  0  0  0  0  0  0  0  0  0  0  0
   62.7830   33.8080   46.7180 C   0  0  0  0  0  0  0  0  0  0  0  0
   59.3270   33.4560   48.3300 C   0  0  0  0  0  0  0  0  0  0  0  0
   58.7970   32.0400   48.0590 C   0  0  0  0  0  0  0  0  0  0  0  0
   59.5510   31.3840   46.9880 N   0  0  0  0  0  0  0  0  0  0  0  0
   59.0910   30.1880   46.3340 C   0  0  0  0  0  0  0  0  0  0  0  0
   58.2610   30.2470   45.1880 C   0  0  0  0  0  0  0  0  0  0  0  0
   57.8760   31.4860   44.6360 C   0  0  0  0  0  0  0  0  0  0  0  0
   57.0780   31.5410   43.4980 C   0  0  0  0  0  0  0  0  0  0  0  0
   56.6480   30.3670   42.8860 C   0  0  0  0  0  0  0  0  0  0  0  0
   57.0170   29.1260   43.4040 C   0  0  0  0  0  0  0  0  0  0  0  0
   57.8330   29.0320   44.5570 C   0  0  0  0  0  0  0  0  0  0  0  0
   58.2210   27.8050   45.0680 N   0  0  0  0  0  0  0  0  0  0  0  0
   57.7920   26.5430   44.4370 C   0  0  0  0  0  0  0  0  0  0  0  0
   59.0180   27.7850   46.1810 C   0  0  0  0  0  0  0  0  0  0  0  0
   59.6170   26.4500   47.0220 S   0  0  0  0  0  0  0  0  0  0  0  0
   60.4040   27.4070   48.1670 C   0  0  0  0  0  0  0  0  0  0  0  0
   60.2190   28.7250   47.9230 N   0  0  0  0  0  0  0  0  0  0  0  0
   59.4550   28.9320   46.8170 C   0  0  0  0  0  0  0  0  0  0  0  0
   58.0775   34.2435   45.7123 H   0  0  0  0  0  0  0  0  0  0  0  0
   58.8347   35.4880   44.6613 H   0  0  0  0  0  0  0  0  0  0  0  0
   59.4673   33.8068   44.6613 H   0  0  0  0  0  0  0  0  0  0  0  0
   60.9256   35.3358   45.9587 H   0  0  0  0  0  0  0  0  0  0  0  0
   59.4813   35.7177   47.0292 H   0  0  0  0  0  0  0  0  0  0  0  0
   61.8847   34.7652   48.4186 H   0  0  0  0  0  0  0  0  0  0  0  0
   61.8595   32.9381   48.4295 H   0  0  0  0  0  0  0  0  0  0  0  0
   63.7870   33.7679   47.1657 H   0  0  0  0  0  0  0  0  0  0  0  0
   62.6234   32.9155   46.0951 H   0  0  0  0  0  0  0  0  0  0  0  0
   62.6950   34.7104   46.0951 H   0  0  0  0  0  0  0  0  0  0  0  0
   59.7834   33.4835   49.3305 H   0  0  0  0  0  0  0  0  0  0  0  0
   58.4855   34.1618   48.2698 H   0  0  0  0  0  0  0  0  0  0  0  0
   58.8866   31.4422   48.9780 H   0  0  0  0  0  0  0  0  0  0  0  0
   57.7455   32.1176   47.7453 H   0  0  0  0  0  0  0  0  0  0  0  0
   60.5190   31.7240   46.7930 H   0  0  0  0  0  0  0  0  0  0  0  0
   58.2106   32.4201   45.1109 H   0  0  0  0  0  0  0  0  0  0  0  0
   56.7857   32.5157   43.0802 H   0  0  0  0  0  0  0  0  0  0  0  0
   56.0136   30.4185   41.9888 H   0  0  0  0  0  0  0  0  0  0  0  0
   56.6691   28.2070   42.9097 H   0  0  0  0  0  0  0  0  0  0  0  0
   57.5425   25.8091   45.2175 H   0  0  0  0  0  0  0  0  0  0  0  0
   56.9064   26.7284   43.8114 H   0  0  0  0  0  0  0  0  0  0  0  0
   58.6071   26.1502   43.8114 H   0  0  0  0  0  0  0  0  0  0  0  0
   60.9934   27.0095   49.0064 H   0  0  0  0  0  0  0  0  0  0  0  0
  1  2  1  0
  2  3  1  0
  3  4  1  0
  4  5  1  0
  3  6  1  0
  6  7  1  0
  7  8  1  0
  8  9  1  0
  9 10  2  0
 10 11  1  0
 11 12  2  0
 12 13  1  0
 13 14  2  0
 14 15  1  0
 15 16  2  0
 16 17  1  0
 16 18  1  0
 18 19  1  0
 19 20  1  0
 20 21  2  0
 21 22  1  0
 22  9  1  0
 15 10  1  0
 22 18  2  0
  1 23  1  0
  1 24  1  0
  1 25  1  0
  2 26  1  0
  2 27  1  0
  4 28  1  0
  4 29  1  0
  5 30  1  0
  5 31  1  0
  5 32  1  0
  6 33  1  0
  6 34  1  0
  7 35  1  0
  7 36  1  0
  8 37  1  0
 11 38  1  0
 12 39  1  0
 13 40  1  0
 14 41  1  0
 17 42  1  0
 17 43  1  0
 17 44  1  0
 20 45  1  0
M  CHG  1  16   1
M  END
>  <UniqueID>  (20) 
20

>  <SMILES>  (20) 
CCN(CC)CCNc1c2ccccc2[n+](C)c2scnc12

>  <Energy>  (20) 
97.2362897995405

>  <Genealogy>  (20) 
CCN(CC)CCNc1c2ccccc2[n+](C)c2scnc12 (3D coordinates assigned)
CCN(CC)CCNc1c2ccccc2[n+](C)c2scnc12 (optimized conformer: 97.2362897995405 kcal/mol)

>  <smiles>  (20) 
CCN(CC)CCNc1c2ccccc2[n+](C)c2scnc12

>  <score_type>  (20) 
oracle

>  <origin>  (20) 
adg

>  <m_score__min__energy>  (20) 
-4.9699999999999998

>  <m_primary>  (20) 
energy

$$$$
20:0
     RDKit          3D

 44 45  0  0  0  0  0  0  0  0999 V2000
   55.9280   30.0860   43.8270 C   0  0  0  0  0  0  0  0  0  0  0  0
   57.3650   29.9010   44.2720 C   0  0  0  0  0  0  0  0  0  0  0  0
   57.4020   30.1360   45.6760 O   0  0  0  0  0  0  0  0  0  0  0  0
   58.5510   30.5700   46.2900 C   0  0  0  0  0  0  0  0  0  0  0  0
   59.3080   31.3600   45.6370 O   0  0  0  0  0  0  0  0  0  0  0  0
   58.9960   30.2060   47.6470 C   0  0  0  0  0  0  0  0  0  0  0  0
   59.6190   31.3060   48.3310 N   0  0  0  0  0  0  0  0  0  0  0  0
   60.5750   30.9140   49.3480 C   0  0  0  0  0  0  0  0  0  0  0  0
   61.7100   31.8690   49.3490 C   0  0  0  0  0  0  0  0  0  0  0  0
   62.9820   31.3440   49.2700 C   0  0  0  0  0  0  0  0  0  0  0  0
   64.1310   32.1020   49.3000 C   0  0  0  0  0  0  0  0  0  0  0  0
   63.9730   33.4670   49.4140 C   0  0  0  0  0  0  0  0  0  0  0  0
   62.7060   33.9960   49.4920 C   0  0  0  0  0  0  0  0  0  0  0  0
   61.5510   33.2390   49.4620 C   0  0  0  0  0  0  0  0  0  0  0  0
   60.1910   33.8760   49.5110 C   0  0  0  0  0  0  0  0  0  0  0  0
   59.5690   33.9480   48.3540 O   0  0  0  0  0  0  0  0  0  0  0  0
   58.9670   34.0190   47.2330 C   0  0  0  0  0  0  0  0  0  0  0  0
   57.6550   33.5280   47.0870 C   0  0  0  0  0  0  0  0  0  0  0  0
   56.9740   33.5880   45.8980 C   0  0  0  0  0  0  0  0  0  0  0  0
   57.6150   34.1510   44.8260 C   0  0  0  0  0  0  0  0  0  0  0  0
   58.8890   34.6500   44.8830 C   0  0  0  0  0  0  0  0  0  0  0  0
   59.5500   34.5780   46.0880 C   0  0  0  0  0  0  0  0  0  0  0  0
   55.2784   30.1696   44.7107 H   0  0  0  0  0  0  0  0  0  0  0  0
   55.8460   31.0021   43.2237 H   0  0  0  0  0  0  0  0  0  0  0  0
   55.6167   29.2205   43.2237 H   0  0  0  0  0  0  0  0  0  0  0  0
   57.6992   28.8764   44.0520 H   0  0  0  0  0  0  0  0  0  0  0  0
   58.0319   30.5961   43.7409 H   0  0  0  0  0  0  0  0  0  0  0  0
   58.1227   29.8767   48.2291 H   0  0  0  0  0  0  0  0  0  0  0  0
   59.7420   29.4032   47.5521 H   0  0  0  0  0  0  0  0  0  0  0  0
   58.8610   31.9120   48.7430 H   0  0  0  0  0  0  0  0  0  0  0  0
   60.0530   31.9380   47.5940 H   0  0  0  0  0  0  0  0  0  0  0  0
   60.0869   30.9225   50.3337 H   0  0  0  0  0  0  0  0  0  0  0  0
   60.9463   29.9010   49.1334 H   0  0  0  0  0  0  0  0  0  0  0  0
   63.0855   30.2528   49.1773 H   0  0  0  0  0  0  0  0  0  0  0  0
   65.1275   31.6406   49.2361 H   0  0  0  0  0  0  0  0  0  0  0  0
   64.8526   34.1270   49.4423 H   0  0  0  0  0  0  0  0  0  0  0  0
   62.6064   35.0876   49.5838 H   0  0  0  0  0  0  0  0  0  0  0  0
   59.5643   33.2901   50.1995 H   0  0  0  0  0  0  0  0  0  0  0  0
   60.3491   34.9136   49.8403 H   0  0  0  0  0  0  0  0  0  0  0  0
   57.1577   33.0794   47.9596 H   0  0  0  0  0  0  0  0  0  0  0  0
   55.9494   33.1979   45.8083 H   0  0  0  0  0  0  0  0  0  0  0  0
   57.0773   34.2051   43.8679 H   0  0  0  0  0  0  0  0  0  0  0  0
   59.3672   35.0928   43.9969 H   0  0  0  0  0  0  0  0  0  0  0  0
   60.5741   34.9740   46.1547 H   0  0  0  0  0  0  0  0  0  0  0  0
  1  2  1  0
  2  3  1  0
  3  4  1  0
  4  5  2  0
  4  6  1  0
  6  7  1  0
  7  8  1  0
  8  9  1  0
  9 10  2  0
 10 11  1  0
 11 12  2  0
 12 13  1  0
 13 14  2  0
 14 15  1  0
 15 16  1  0
 16 17  1  0
 17 18  2  0
 18 19  1  0
 19 20  2  0
 20 21  1  0
 21 22  2  0
 14  9  1  0
 22 17  1  0
  1 23  1  0
  1 24  1  0
  1 25  1  0
  2 26  1  0
  2 27  1  0
  6 28  1  0
  6 29  1  0
  7 30  1  0
  7 31  1  0
  8 32  1  0
  8 33  1  0
 10 34  1  0
 11 35  1  0
 12 36  1  0
 13 37  1  0
 15 38  1  0
 15 39  1  0
 18 40  1  0
 19 41  1  0
 20 42  1  0
 21 43  1  0
 22 44  1  0
M  CHG  1   7   1
M  END
>  <UniqueID>  (21) 
21

>  <SMILES>  (21) 
CCOC(=O)C[NH2+]Cc1ccccc1COc1ccccc1

>  <Energy>  (21) 
142.80136553984426

>  <Genealogy>  (21) 
CCOC(=O)C[NH2+]Cc1ccccc1COc1ccccc1 (protonated)
CCOC(=O)C[NH2+]Cc1ccccc1COc1ccccc1 (3D coordinates assigned)
CCOC(=O)C[NH2+]Cc1ccccc1COc1ccccc1 (optimized conformer: 142.80136553984426 kcal/mol)

>  <smiles>  (21) 
CCOC(=O)CNCc1ccccc1COc1ccccc1

>  <score_type>  (21) 
oracle

>  <origin>  (21) 
adg

>  <m_score__min__energy>  (21) 
-3.98

>  <m_primary>  (21) 
energy

$$$$
21:0
     RDKit          3D

 38 40  0  0  0  0  0  0  0  0999 V2000
   56.4016   30.3825   41.5730 H   0  0  0  0  0  0  0  0  0  0  0  0
   56.6280   30.4120   42.6490 C   0  0  0  0  0  0  0  0  0  0  0  0
   56.3120   29.3540   43.4370 N   0  0  0  0  0  0  0  0  0  0  0  0
   56.5840   29.3680   44.7700 C   0  0  0  0  0  0  0  0  0  0  0  0
   56.2830   28.3540   45.5260 N   0  0  0  0  0  0  0  0  0  0  0  0
   57.2150   27.2940   45.9140 C   0  0  0  0  0  0  0  0  0  0  0  0
   57.1760   27.1593   47.0050 H   0  0  0  0  0  0  0  0  0  0  0  0
   58.2302   27.5818   45.6034 H   0  0  0  0  0  0  0  0  0  0  0  0
   56.8490   25.9970   45.2410 C   0  0  0  0  0  0  0  0  0  0  0  0
   55.7770   25.2250   45.7110 C   0  0  0  0  0  0  0  0  0  0  0  0
   55.1848   25.5757   46.5691 H   0  0  0  0  0  0  0  0  0  0  0  0
   55.4570   24.0110   45.0940 C   0  0  0  0  0  0  0  0  0  0  0  0
   54.6135   23.4122   45.4681 H   0  0  0  0  0  0  0  0  0  0  0  0
   56.2100   23.5520   43.9960 C   0  0  0  0  0  0  0  0  0  0  0  0
   55.9290   22.3420   43.3450 O   0  0  0  0  0  0  0  0  0  0  0  0
   56.9090   21.3720   42.9930 C   0  0  0  0  0  0  0  0  0  0  0  0
   57.3438   20.9416   43.9072 H   0  0  0  0  0  0  0  0  0  0  0  0
   56.4385   20.5740   42.3999 H   0  0  0  0  0  0  0  0  0  0  0  0
   57.7022   21.8506   42.3999 H   0  0  0  0  0  0  0  0  0  0  0  0
   57.2810   24.3250   43.5320 C   0  0  0  0  0  0  0  0  0  0  0  0
   57.8755   23.9752   42.6751 H   0  0  0  0  0  0  0  0  0  0  0  0
   57.6010   25.5380   44.1490 C   0  0  0  0  0  0  0  0  0  0  0  0
   58.4463   26.1354   43.7766 H   0  0  0  0  0  0  0  0  0  0  0  0
   57.1810   30.4560   45.3230 N   0  0  0  0  0  0  0  0  0  0  0  0
   57.5130   31.5480   44.5790 C   0  0  0  0  0  0  0  0  0  0  0  0
   58.1670   32.7070   45.2380 C   0  0  0  0  0  0  0  0  0  0  0  0
   58.5440   32.6710   46.5930 C   0  0  0  0  0  0  0  0  0  0  0  0
   58.3496   31.7696   47.1928 H   0  0  0  0  0  0  0  0  0  0  0  0
   59.1640   33.7760   47.1780 C   0  0  0  0  0  0  0  0  0  0  0  0
   59.6790   33.7320   49.0180 Br  0  0  0  0  0  0  0  0  0  0  0  0
   59.4130   34.9110   46.4060 C   0  0  0  0  0  0  0  0  0  0  0  0
   59.8978   35.7882   46.8592 H   0  0  0  0  0  0  0  0  0  0  0  0
   59.0570   34.9340   45.0940 N   0  0  0  0  0  0  0  0  0  0  0  0
   59.2530   35.7910   44.5290 H   0  0  0  0  0  0  0  0  0  0  0  0
   58.4520   33.8700   44.5010 C   0  0  0  0  0  0  0  0  0  0  0  0
   58.1833   33.9197   43.4355 H   0  0  0  0  0  0  0  0  0  0  0  0
   57.2390   31.5360   43.2010 C   0  0  0  0  0  0  0  0  0  0  0  0
   57.5019   32.3977   42.5699 H   0  0  0  0  0  0  0  0  0  0  0  0
  1  2  1  0
  2  3  1  0
  3  4  1  0
  4  5  2  0
  5  6  1  0
  6  7  1  0
  6  8  1  0
  6  9  1  0
  9 10  2  0
 10 11  1  0
 10 12  1  0
 12 13  1  0
 12 14  2  0
 14 15  1  0
 15 16  1  0
 16 17  1  0
 16 18  1  0
 16 19  1  0
 14 20  1  0
 20 21  1  0
 20 22  2  0
 22 23  1  0
  4 24  1  0
 24 25  2  0
 25 26  1  0
 26 27  2  0
 27 28  1  0
 27 29  1  0
 29 30  1  0
 29 31  2  0
 31 32  1  0
 31 33  1  0
 33 34  1  0
 33 35  2  0
 35 36  1  0
 25 37  1  0
 37 38  1  0
 37  2  2  0
 22  9  1  0
 35 26  1  0
M  CHG  2   3  -1  33   1
M  END
>  <UniqueID>  (22) 
22

>  <SMILES>  (22) 
COc1ccc(C/N=c2/nc(-c3c[nH+]cc(Br)c3)cc[n-]2)cc1

>  <Energy>  (22) 
43.723569420808914

>  <Genealogy>  (22) 
COc1ccc(CN=c2nc(-c3c[nH+]cc(Br)c3)cc[n-]2)cc1 (protonated)
COc1ccc(C/N=c2/nc(-c3c[nH+]cc(Br)c3)cc[n-]2)cc1 (cis-trans isomerization)
COc1ccc(C/N=c2/nc(-c3c[nH+]cc(Br)c3)cc[n-]2)cc1 (3D coordinates assigned)
COc1ccc(C/N=c2/nc(-c3c[nH+]cc(Br)c3)cc[n-]2)cc1 (optimized conformer: 43.723569420808914 kcal/mol)

>  <smiles>  (22) 
COc1ccc(CN=c2nc(-c3cncc(Br)c3)cc[nH]2)cc1

>  <score_type>  (22) 
oracle

>  <origin>  (22) 
adg

>  <m_score__min__energy>  (22) 
-8.4000000000000004

>  <m_primary>  (22) 
energy

$$$$
22:0
     RDKit          3D

 42 42  0  0  0  0  0  0  0  0999 V2000
   57.0235   31.2305   43.0231 H   0  0  0  0  0  0  0  0  0  0  0  0
   57.0270   31.0970   44.1150 C   0  0  0  0  0  0  0  0  0  0  0  0
   56.6580   32.0830   44.8730 N   0  0  0  0  0  0  0  0  0  0  0  0
   57.5470   33.1800   45.2450 C   0  0  0  0  0  0  0  0  0  0  0  0
   57.2862   34.0710   44.6550 H   0  0  0  0  0  0  0  0  0  0  0  0
   58.5847   32.8761   45.0427 H   0  0  0  0  0  0  0  0  0  0  0  0
   57.4140   33.5090   46.7380 C   0  0  0  0  0  0  0  0  0  0  0  0
   57.2763   32.5759   47.3041 H   0  0  0  0  0  0  0  0  0  0  0  0
   56.5464   34.1696   46.8823 H   0  0  0  0  0  0  0  0  0  0  0  0
   58.6310   34.2000   47.2240 N   0  0  0  0  0  0  0  0  0  0  0  0
   59.5410   34.5380   46.1080 C   0  0  0  0  0  0  0  0  0  0  0  0
   59.5955   35.6315   46.0022 H   0  0  0  0  0  0  0  0  0  0  0  0
   59.1538   34.0895   45.1812 H   0  0  0  0  0  0  0  0  0  0  0  0
   60.9380   33.9880   46.3810 C   0  0  0  0  0  0  0  0  0  0  0  0
   61.1010   33.9238   47.4670 H   0  0  0  0  0  0  0  0  0  0  0  0
   61.0310   32.9861   45.9364 H   0  0  0  0  0  0  0  0  0  0  0  0
   61.6890   34.6576   45.9364 H   0  0  0  0  0  0  0  0  0  0  0  0
   59.3220   33.4050   48.2650 C   0  0  0  0  0  0  0  0  0  0  0  0
   60.4084   33.4592   48.1016 H   0  0  0  0  0  0  0  0  0  0  0  0
   59.0691   33.8138   49.2544 H   0  0  0  0  0  0  0  0  0  0  0  0
   58.8750   31.9460   48.2010 C   0  0  0  0  0  0  0  0  0  0  0  0
   58.7550   31.5542   49.2218 H   0  0  0  0  0  0  0  0  0  0  0  0
   57.9153   31.8796   47.6675 H   0  0  0  0  0  0  0  0  0  0  0  0
   59.6328   31.3534   47.6675 H   0  0  0  0  0  0  0  0  0  0  0  0
   57.4530   29.7960   44.6810 C   0  0  0  0  0  0  0  0  0  0  0  0
   58.8250   29.5690   44.8670 C   0  0  0  0  0  0  0  0  0  0  0  0
   59.5463   30.3505   44.5861 H   0  0  0  0  0  0  0  0  0  0  0  0
   59.2910   28.3600   45.4060 C   0  0  0  0  0  0  0  0  0  0  0  0
   60.7660   28.1390   45.5970 C   0  0  0  0  0  0  0  0  0  0  0  0
   60.9954   28.1046   46.6723 H   0  0  0  0  0  0  0  0  0  0  0  0
   61.0577   27.1871   45.1292 H   0  0  0  0  0  0  0  0  0  0  0  0
   61.3239   28.9636   45.1292 H   0  0  0  0  0  0  0  0  0  0  0  0
   58.3760   27.3580   45.7720 C   0  0  0  0  0  0  0  0  0  0  0  0
   58.8660   26.1560   46.3120 O   0  0  0  0  0  0  0  0  0  0  0  0
   58.5130   24.8570   45.8460 C   0  0  0  0  0  0  0  0  0  0  0  0
   58.3332   24.1952   46.7061 H   0  0  0  0  0  0  0  0  0  0  0  0
   57.5999   24.9219   45.2360 H   0  0  0  0  0  0  0  0  0  0  0  0
   59.3333   24.4508   45.2360 H   0  0  0  0  0  0  0  0  0  0  0  0
   56.9990   27.5830   45.5900 C   0  0  0  0  0  0  0  0  0  0  0  0
   56.2780   26.8026   45.8748 H   0  0  0  0  0  0  0  0  0  0  0  0
   56.5370   28.7880   45.0510 C   0  0  0  0  0  0  0  0  0  0  0  0
   55.1660   28.9640   44.8970 O   0  0  0  0  0  0  0  0  0  0  0  0
  1  2  1  0
  2  3  2  0
  3  4  1  0
  4  5  1  0
  4  6  1  0
  4  7  1  0
  7  8  1  0
  7  9  1  0
  7 10  1  0
 10 11  1  0
 11 12  1  0
 11 13  1  0
 11 14  1  0
 14 15  1  0
 14 16  1  0
 14 17  1  0
 10 18  1  0
 18 19  1  0
 18 20  1  0
 18 21  1  0
 21 22  1  0
 21 23  1  0
 21 24  1  0
  2 25  1  0
 25 26  2  0
 26 27  1  0
 26 28  1  0
 28 29  1  0
 29 30  1  0
 29 31  1  0
 29 32  1  0
 28 33  2  0
 33 34  1  0
 34 35  1  0
 35 36  1  0
 35 37  1  0
 35 38  1  0
 33 39  1  0
 39 40  1  0
 39 41  2  0
 41 42  1  0
 41 25  1  0
M  CHG  1  42  -1
M  END
>  <UniqueID>  (23) 
23

>  <SMILES>  (23) 
CCN(CC)CC/N=C/c1cc(C)c(OC)cc1[O-]

>  <Energy>  (23) 
34.69943238012495

>  <Genealogy>  (23) 
CCN(CC)CCN=Cc1cc(C)c(OC)cc1[O-] (protonated)
CCN(CC)CC/N=C/c1cc(C)c(OC)cc1[O-] (cis-trans isomerization)
CCN(CC)CC/N=C/c1cc(C)c(OC)cc1[O-] (3D coordinates assigned)
CCN(CC)CC/N=C/c1cc(C)c(OC)cc1[O-] (optimized conformer: 34.69943238012495 kcal/mol)

>  <smiles>  (23) 
CCN(CC)CCN=Cc1cc(C)c(OC)cc1O

>  <score_type>  (23) 
oracle

>  <origin>  (23) 
adg

>  <m_score__min__energy>  (23) 
-9.9900000000000002

>  <m_primary>  (23) 
energy

$$$$
23:0
     RDKit          3D

 49 51  0  0  0  0  0  0  0  0999 V2000
   61.5210   31.1100   47.4360 C   0  0  0  0  0  0  0  0  0  0  0  0
   60.7180   30.8210   48.7050 C   0  0  0  0  0  0  0  0  0  0  0  0
   60.8740   29.4100   49.1220 N   0  0  0  0  0  0  0  0  0  0  0  0
   61.4050   29.2960   50.4940 C   0  0  0  0  0  0  0  0  0  0  0  0
   59.6190   28.6350   48.9620 C   0  0  0  0  0  0  0  0  0  0  0  0
   59.1230   28.5870   47.5310 C   0  0  0  0  0  0  0  0  0  0  0  0
   59.2300   27.4260   46.7720 C   0  0  0  0  0  0  0  0  0  0  0  0
   58.7310   27.4210   45.4710 C   0  0  0  0  0  0  0  0  0  0  0  0
   58.8390   26.3590   44.8000 O   0  0  0  0  0  0  0  0  0  0  0  0
   58.1380   28.5470   44.9350 N   0  0  0  0  0  0  0  0  0  0  0  0
   58.0350   29.6860   45.7200 C   0  0  0  0  0  0  0  0  0  0  0  0
   58.5320   29.6770   46.9870 N   0  0  0  0  0  0  0  0  0  0  0  0
   57.4160   31.0060   45.2730 C   0  0  0  0  0  0  0  0  0  0  0  0
   57.8290   31.5020   43.9450 N   0  0  0  0  0  0  0  0  0  0  0  0
   57.7930   32.9800   43.9170 C   0  0  0  0  0  0  0  0  0  0  0  0
   58.5290   33.5460   45.1010 C   0  0  0  0  0  0  0  0  0  0  0  0
   57.8640   33.7520   46.3210 C   0  0  0  0  0  0  0  0  0  0  0  0
   58.5770   34.2480   47.4140 C   0  0  0  0  0  0  0  0  0  0  0  0
   59.9350   34.5480   47.2780 C   0  0  0  0  0  0  0  0  0  0  0  0
   60.5600   34.3470   46.0440 C   0  0  0  0  0  0  0  0  0  0  0  0
   59.8500   33.8540   44.9930 N   0  0  0  0  0  0  0  0  0  0  0  0
   57.0190   30.9040   42.8620 C   0  0  0  0  0  0  0  0  0  0  0  0
   56.5220   29.5200   43.2990 C   0  0  0  0  0  0  0  0  0  0  0  0
   57.6730   28.5240   43.5300 C   0  0  0  0  0  0  0  0  0  0  0  0
   62.5233   31.4707   47.7105 H   0  0  0  0  0  0  0  0  0  0  0  0
   61.6128   30.1885   46.8424 H   0  0  0  0  0  0  0  0  0  0  0  0
   61.0045   31.8787   46.8424 H   0  0  0  0  0  0  0  0  0  0  0  0
   61.0746   31.4764   49.5133 H   0  0  0  0  0  0  0  0  0  0  0  0
   59.6544   31.0091   48.4969 H   0  0  0  0  0  0  0  0  0  0  0  0
   60.5941   29.4701   51.2166 H   0  0  0  0  0  0  0  0  0  0  0  0
   61.8198   28.2883   50.6441 H   0  0  0  0  0  0  0  0  0  0  0  0
   62.1969   30.0446   50.6441 H   0  0  0  0  0  0  0  0  0  0  0  0
   59.7985   27.6051   49.3041 H   0  0  0  0  0  0  0  0  0  0  0  0
   58.8453   29.1407   49.5584 H   0  0  0  0  0  0  0  0  0  0  0  0
   59.7014   26.5255   47.1926 H   0  0  0  0  0  0  0  0  0  0  0  0
   56.3237   30.8768   45.2584 H   0  0  0  0  0  0  0  0  0  0  0  0
   57.7729   31.7576   45.9925 H   0  0  0  0  0  0  0  0  0  0  0  0
   58.2679   33.3365   42.9910 H   0  0  0  0  0  0  0  0  0  0  0  0
   56.7450   33.3118   43.9569 H   0  0  0  0  0  0  0  0  0  0  0  0
   56.7918   33.5247   46.4143 H   0  0  0  0  0  0  0  0  0  0  0  0
   58.0716   34.4021   48.3788 H   0  0  0  0  0  0  0  0  0  0  0  0
   60.5062   34.9383   48.1332 H   0  0  0  0  0  0  0  0  0  0  0  0
   61.6265   34.5875   45.9224 H   0  0  0  0  0  0  0  0  0  0  0  0
   56.1566   31.5526   42.6484 H   0  0  0  0  0  0  0  0  0  0  0  0
   57.6353   30.8029   41.9565 H   0  0  0  0  0  0  0  0  0  0  0  0
   55.9564   29.6284   44.2362 H   0  0  0  0  0  0  0  0  0  0  0  0
   55.8930   29.1208   42.4897 H   0  0  0  0  0  0  0  0  0  0  0  0
   57.3225   27.5102   43.2863 H   0  0  0  0  0  0  0  0  0  0  0  0
   58.5146   28.8139   42.8837 H   0  0  0  0  0  0  0  0  0  0  0  0
  1  2  1  0
  2  3  1  0
  3  4  1  0
  3  5  1  0
  5  6  1  0
  6  7  2  0
  7  8  1  0
  8  9  2  0
  8 10  1  0
 10 11  1  0
 11 12  2  0
 11 13  1  0
 13 14  1  0
 14 15  1  0
 15 16  1  0
 16 17  2  0
 17 18  1  0
 18 19  2  0
 19 20  1  0
 20 21  2  0
 14 22  1  0
 22 23  1  0
 23 24  1  0
 12  6  1  0
 21 16  1  0
 24 10  1  0
  1 25  1  0
  1 26  1  0
  1 27  1  0
  2 28  1  0
  2 29  1  0
  4 30  1  0
  4 31  1  0
  4 32  1  0
  5 33  1  0
  5 34  1  0
  7 35  1  0
 13 36  1  0
 13 37  1  0
 15 38  1  0
 15 39  1  0
 17 40  1  0
 18 41  1  0
 19 42  1  0
 20 43  1  0
 22 44  1  0
 22 45  1  0
 23 46  1  0
 23 47  1  0
 24 48  1  0
 24 49  1  0
M  END
>  <UniqueID>  (24) 
24

>  <SMILES>  (24) 
CCN(C)Cc1cc(=O)n2c(n1)CN(Cc1ccccn1)CCC2

>  <Energy>  (24) 
66.24839899958161

>  <Genealogy>  (24) 
CCN(C)Cc1cc(=O)n2c(n1)CN(Cc1ccccn1)CCC2 (3D coordinates assigned)
CCN(C)Cc1cc(=O)n2c(n1)CN(Cc1ccccn1)CCC2 (nonaromatic ring conformer: 66.24839899958161 kcal/mol)

>  <smiles>  (24) 
CCN(C)Cc1cc(=O)n2c(n1)CN(Cc1ccccn1)CCC2

>  <score_type>  (24) 
oracle

>  <origin>  (24) 
adg

>  <m_score__min__energy>  (24) 
-5.6799999999999997

>  <m_primary>  (24) 
energy

$$$$
24:0
     RDKit          3D

 64 65  0  0  0  0  0  0  0  0999 V2000
   55.3270   29.7340   43.5110 C   0  0  0  0  0  0  0  0  0  0  0  0
   55.4510   28.9830   44.7160 O   0  0  0  0  0  0  0  0  0  0  0  0
   56.6660   28.5070   45.2360 C   0  0  0  0  0  0  0  0  0  0  0  0
   57.8640   29.2330   45.1080 C   0  0  0  0  0  0  0  0  0  0  0  0
   59.0500   28.7350   45.6460 C   0  0  0  0  0  0  0  0  0  0  0  0
   59.0620   27.5170   46.3350 C   0  0  0  0  0  0  0  0  0  0  0  0
   60.3420   26.9930   46.9320 C   0  0  0  0  0  0  0  0  0  0  0  0
   60.6550   27.6500   48.2800 C   0  0  0  0  0  0  0  0  0  0  0  0
   60.9210   29.0880   48.1190 N   0  0  0  0  0  0  0  0  0  0  0  0
   59.8000   29.8750   48.6510 C   0  0  0  0  0  0  0  0  0  0  0  0
   59.2180   29.2160   49.9150 C   0  0  0  0  0  0  0  0  0  0  0  0
   59.3300   30.0800   51.1870 C   0  0  0  0  0  0  0  0  0  0  0  0
   58.1760   31.0730   51.4120 C   0  0  0  0  0  0  0  0  0  0  0  0
   58.1870   32.2320   50.4000 C   0  0  0  0  0  0  0  0  0  0  0  0
   59.4570   33.1050   50.4930 C   0  0  0  0  0  0  0  0  0  0  0  0
   60.4400   32.8640   49.4230 N   0  0  0  0  0  0  0  0  0  0  0  0
   60.6650   34.0450   48.5820 C   0  0  0  0  0  0  0  0  0  0  0  0
   59.3280   34.6670   48.1790 C   0  0  0  0  0  0  0  0  0  0  0  0
   58.8700   34.1020   46.8610 C   0  0  0  0  0  0  0  0  0  0  0  0
   58.0070   32.9940   46.8250 C   0  0  0  0  0  0  0  0  0  0  0  0
   57.6690   32.4020   45.6050 C   0  0  0  0  0  0  0  0  0  0  0  0
   58.1860   32.9140   44.4100 C   0  0  0  0  0  0  0  0  0  0  0  0
   57.7690   32.0670   42.7500 Br  0  0  0  0  0  0  0  0  0  0  0  0
   59.0400   34.0200   44.4360 C   0  0  0  0  0  0  0  0  0  0  0  0
   59.3840   34.6120   45.6560 C   0  0  0  0  0  0  0  0  0  0  0  0
   57.8740   26.7780   46.4460 C   0  0  0  0  0  0  0  0  0  0  0  0
   56.6710   27.2690   45.8970 C   0  0  0  0  0  0  0  0  0  0  0  0
   55.4640   26.5560   45.9870 O   0  0  0  0  0  0  0  0  0  0  0  0
   55.3230   25.1690   45.7010 C   0  0  0  0  0  0  0  0  0  0  0  0
   55.1523   30.7923   43.7549 H   0  0  0  0  0  0  0  0  0  0  0  0
   56.2527   29.6410   42.9241 H   0  0  0  0  0  0  0  0  0  0  0  0
   54.4804   29.3483   42.9241 H   0  0  0  0  0  0  0  0  0  0  0  0
   57.8652   30.1984   44.5808 H   0  0  0  0  0  0  0  0  0  0  0  0
   59.9839   29.3042   45.5279 H   0  0  0  0  0  0  0  0  0  0  0  0
   60.2472   25.9070   47.0792 H   0  0  0  0  0  0  0  0  0  0  0  0
   61.1629   27.2293   46.2390 H   0  0  0  0  0  0  0  0  0  0  0  0
   59.7951   27.5168   48.9529 H   0  0  0  0  0  0  0  0  0  0  0  0
   61.5526   27.1735   48.7010 H   0  0  0  0  0  0  0  0  0  0  0  0
   60.9910   29.2850   47.0950 H   0  0  0  0  0  0  0  0  0  0  0  0
   60.1562   30.8849   48.9026 H   0  0  0  0  0  0  0  0  0  0  0  0
   59.0114   29.9257   47.8858 H   0  0  0  0  0  0  0  0  0  0  0  0
   58.1538   29.0040   49.7346 H   0  0  0  0  0  0  0  0  0  0  0  0
   59.8089   28.3063   50.0978 H   0  0  0  0  0  0  0  0  0  0  0  0
   59.3707   29.4044   52.0541 H   0  0  0  0  0  0  0  0  0  0  0  0
   60.2362   30.6907   51.0607 H   0  0  0  0  0  0  0  0  0  0  0  0
   57.2226   30.5324   51.3181 H   0  0  0  0  0  0  0  0  0  0  0  0
   58.2998   31.5058   52.4157 H   0  0  0  0  0  0  0  0  0  0  0  0
   58.1247   31.8115   49.3854 H   0  0  0  0  0  0  0  0  0  0  0  0
   57.3272   32.8779   50.6316 H   0  0  0  0  0  0  0  0  0  0  0  0
   59.1526   34.1611   50.4492 H   0  0  0  0  0  0  0  0  0  0  0  0
   59.9515   32.8405   51.4393 H   0  0  0  0  0  0  0  0  0  0  0  0
   61.3480   32.5510   49.8390 H   0  0  0  0  0  0  0  0  0  0  0  0
   61.2553   34.7841   49.1435 H   0  0  0  0  0  0  0  0  0  0  0  0
   61.2085   33.7421   47.6749 H   0  0  0  0  0  0  0  0  0  0  0  0
   58.5763   34.4450   48.9508 H   0  0  0  0  0  0  0  0  0  0  0  0
   59.4530   35.7554   48.0798 H   0  0  0  0  0  0  0  0  0  0  0  0
   57.5953   32.5904   47.7618 H   0  0  0  0  0  0  0  0  0  0  0  0
   56.9956   31.5324   45.5842 H   0  0  0  0  0  0  0  0  0  0  0  0
   59.4422   34.4256   43.4959 H   0  0  0  0  0  0  0  0  0  0  0  0
   60.0594   35.4801   45.6725 H   0  0  0  0  0  0  0  0  0  0  0  0
   57.8811   25.8083   46.9652 H   0  0  0  0  0  0  0  0  0  0  0  0
   55.2656   24.6043   46.6433 H   0  0  0  0  0  0  0  0  0  0  0  0
   54.4037   25.0062   45.1193 H   0  0  0  0  0  0  0  0  0  0  0  0
   56.1908   24.8245   45.1193 H   0  0  0  0  0  0  0  0  0  0  0  0
  1  2  1  0
  2  3  1  0
  3  4  2  0
  4  5  1  0
  5  6  2  0
  6  7  1  0
  7  8  1  0
  8  9  1  0
  9 10  1  0
 10 11  1  0
 11 12  1  0
 12 13  1  0
 13 14  1  0
 14 15  1  0
 15 16  1  0
 16 17  1  0
 17 18  1  0
 18 19  1  0
 19 20  2  0
 20 21  1  0
 21 22  2  0
 22 23  1  0
 22 24  1  0
 24 25  2  0
  6 26  1  0
 26 27  2  0
 27 28  1  0
 28 29  1  0
 27  3  1  0
 25 19  1  0
  1 30  1  0
  1 31  1  0
  1 32  1  0
  4 33  1  0
  5 34  1  0
  7 35  1  0
  7 36  1  0
  8 37  1  0
  8 38  1  0
  9 39  1  0
 10 40  1  0
 10 41  1  0
 11 42  1  0
 11 43  1  0
 12 44  1  0
 12 45  1  0
 13 46  1  0
 13 47  1  0
 14 48  1  0
 14 49  1  0
 15 50  1  0
 15 51  1  0
 16 52  1  0
 17 53  1  0
 17 54  1  0
 18 55  1  0
 18 56  1  0
 20 57  1  0
 21 58  1  0
 24 59  1  0
 25 60  1  0
 26 61  1  0
 29 62  1  0
 29 63  1  0
 29 64  1  0
M  END
>  <UniqueID>  (25) 
25

>  <SMILES>  (25) 
COc1ccc(CCNCCCCCCNCCc2ccc(Br)cc2)cc1OC

>  <Energy>  (25) 
44.23312164915847

>  <Genealogy>  (25) 
COc1ccc(CCNCCCCCCNCCc2ccc(Br)cc2)cc1OC (3D coordinates assigned)
COc1ccc(CCNCCCCCCNCCc2ccc(Br)cc2)cc1OC (optimized conformer: 44.23312164915847 kcal/mol)

>  <smiles>  (25) 
COc1ccc(CCNCCCCCCNCCc2ccc(Br)cc2)cc1OC

>  <score_type>  (25) 
oracle

>  <origin>  (25) 
adg

>  <m_score__min__energy>  (25) 
-8.2699999999999996

>  <m_primary>  (25) 
energy

$$$$
25:0
     RDKit          3D

 56 57  0  0  0  0  0  0  0  0999 V2000
   61.2800   31.9320   47.0730 C   0  0  0  0  0  0  0  0  0  0  0  0
   61.1140   32.0250   48.6030 C   0  0  0  0  0  0  0  0  0  0  0  0
   61.6970   30.8610   49.3220 N   0  0  0  0  0  0  0  0  0  0  0  0
   62.9860   31.2420   49.9640 C   0  0  0  0  0  0  0  0  0  0  0  0
   63.7860   32.2570   49.1370 C   0  0  0  0  0  0  0  0  0  0  0  0
   60.7180   30.3440   50.3340 C   0  0  0  0  0  0  0  0  0  0  0  0
   59.8290   29.2000   49.7700 C   0  0  0  0  0  0  0  0  0  0  0  0
   60.1100   28.9380   48.4060 O   0  0  0  0  0  0  0  0  0  0  0  0
   60.7280   27.6730   48.2340 C   0  0  0  0  0  0  0  0  0  0  0  0
   60.0130   26.8370   47.1630 C   0  0  0  0  0  0  0  0  0  0  0  0
   59.3720   27.6840   46.1450 N   0  0  0  0  0  0  0  0  0  0  0  0
   60.1510   28.7020   45.4360 C   0  0  0  0  0  0  0  0  0  0  0  0
   59.3010   29.9540   45.2450 C   0  0  0  0  0  0  0  0  0  0  0  0
   58.1440   29.6250   44.3970 N   0  0  0  0  0  0  0  0  0  0  0  0
   57.2240   31.0780   44.0560 S   0  0  0  0  0  0  0  0  0  0  0  0
   55.7870   30.8800   44.4730 O   0  0  0  0  0  0  0  0  0  0  0  0
   57.2560   31.3520   42.5780 O   0  0  0  0  0  0  0  0  0  0  0  0
   57.8860   32.4760   44.9130 C   0  0  0  0  0  0  0  0  0  0  0  0
   57.7580   32.5710   46.3050 C   0  0  0  0  0  0  0  0  0  0  0  0
   58.3430   33.6410   47.0000 C   0  0  0  0  0  0  0  0  0  0  0  0
   59.0690   34.6110   46.3030 C   0  0  0  0  0  0  0  0  0  0  0  0
   59.1810   34.5340   44.9090 C   0  0  0  0  0  0  0  0  0  0  0  0
   58.5910   33.4690   44.2160 C   0  0  0  0  0  0  0  0  0  0  0  0
   57.2500   28.5950   44.9890 C   0  0  0  0  0  0  0  0  0  0  0  0
   57.9520   27.6100   45.9100 C   0  0  0  0  0  0  0  0  0  0  0  0
   57.2600   26.7280   46.4900 O   0  0  0  0  0  0  0  0  0  0  0  0
   62.2173   31.4069   46.8371 H   0  0  0  0  0  0  0  0  0  0  0  0
   60.4316   31.3778   46.6451 H   0  0  0  0  0  0  0  0  0  0  0  0
   61.3095   32.9449   46.6451 H   0  0  0  0  0  0  0  0  0  0  0  0
   61.6128   32.9401   48.9548 H   0  0  0  0  0  0  0  0  0  0  0  0
   60.0351   32.0375   48.8170 H   0  0  0  0  0  0  0  0  0  0  0  0
   61.8940   30.1210   48.6050 H   0  0  0  0  0  0  0  0  0  0  0  0
   62.7712   31.6826   50.9488 H   0  0  0  0  0  0  0  0  0  0  0  0
   63.5956   30.3303   50.0485 H   0  0  0  0  0  0  0  0  0  0  0  0
   64.3232   32.9386   49.8129 H   0  0  0  0  0  0  0  0  0  0  0  0
   64.5096   31.7241   48.5026 H   0  0  0  0  0  0  0  0  0  0  0  0
   63.0988   32.8360   48.5026 H   0  0  0  0  0  0  0  0  0  0  0  0
   61.2758   29.9624   51.2019 H   0  0  0  0  0  0  0  0  0  0  0  0
   60.0552   31.1760   50.6141 H   0  0  0  0  0  0  0  0  0  0  0  0
   60.0130   28.2857   50.3533 H   0  0  0  0  0  0  0  0  0  0  0  0
   58.7777   29.5143   49.8480 H   0  0  0  0  0  0  0  0  0  0  0  0
   61.7739   27.8249   47.9292 H   0  0  0  0  0  0  0  0  0  0  0  0
   60.6727   27.1298   49.1889 H   0  0  0  0  0  0  0  0  0  0  0  0
   60.7491   26.1844   46.6708 H   0  0  0  0  0  0  0  0  0  0  0  0
   59.2287   26.2459   47.6585 H   0  0  0  0  0  0  0  0  0  0  0  0
   61.0463   28.9532   46.0236 H   0  0  0  0  0  0  0  0  0  0  0  0
   60.4539   28.3120   44.4531 H   0  0  0  0  0  0  0  0  0  0  0  0
   58.9502   30.3140   46.2234 H   0  0  0  0  0  0  0  0  0  0  0  0
   59.9016   30.7402   44.7642 H   0  0  0  0  0  0  0  0  0  0  0  0
   57.1959   31.8028   46.8563 H   0  0  0  0  0  0  0  0  0  0  0  0
   58.2303   33.7161   48.0916 H   0  0  0  0  0  0  0  0  0  0  0  0
   59.5522   35.4346   46.8491 H   0  0  0  0  0  0  0  0  0  0  0  0
   59.7325   35.3101   44.3581 H   0  0  0  0  0  0  0  0  0  0  0  0
   58.6808   33.4110   43.1212 H   0  0  0  0  0  0  0  0  0  0  0  0
   56.4678   29.1091   45.5668 H   0  0  0  0  0  0  0  0  0  0  0  0
   56.8471   28.0087   44.1500 H   0  0  0  0  0  0  0  0  0  0  0  0
  1  2  1  0
  2  3  1  0
  3  4  1  0
  4  5  1  0
  3  6  1  0
  6  7  1  0
  7  8  1  0
  8  9  1  0
  9 10  1  0
 10 11  1  0
 11 12  1  0
 12 13  1  0
 13 14  1  0
 14 15  1  0
 15 16  2  0
 15 17  2  0
 15 18  1  0
 18 19  2  0
 19 20  1  0
 20 21  2  0
 21 22  1  0
 22 23  2  0
 14 24  1  0
 24 25  1  0
 25 26  2  0
 25 11  1  0
 23 18  1  0
  1 27  1  0
  1 28  1  0
  1 29  1  0
  2 30  1  0
  2 31  1  0
  3 32  1  0
  4 33  1  0
  4 34  1  0
  5 35  1  0
  5 36  1  0
  5 37  1  0
  6 38  1  0
  6 39  1  0
  7 40  1  0
  7 41  1  0
  9 42  1  0
  9 43  1  0
 10 44  1  0
 10 45  1  0
 12 46  1  0
 12 47  1  0
 13 48  1  0
 13 49  1  0
 19 50  1  0
 20 51  1  0
 21 52  1  0
 22 53  1  0
 23 54  1  0
 24 55  1  0
 24 56  1  0
M  CHG  1   3   1
M  END
>  <UniqueID>  (26) 
26

>  <SMILES>  (26) 
CC[NH+](CC)CCOCCN1CCN(S(=O)(=O)c2ccccc2)CC1=O

>  <Energy>  (26) 
64.17401385789532

>  <Genealogy>  (26) 
CC[NH+](CC)CCOCCN1CCN(S(=O)(=O)c2ccccc2)CC1=O (protonated)
CC[NH+](CC)CCOCCN1CCN(S(=O)(=O)c2ccccc2)CC1=O (3D coordinates assigned)
CC[NH+](CC)CCOCCN1CCN(S(=O)(=O)c2ccccc2)CC1=O (nonaromatic ring conformer: 64.17401385789532 kcal/mol)

>  <smiles>  (26) 
CCN(CC)CCOCCN1CCN(S(=O)(=O)c2ccccc2)CC1=O

>  <score_type>  (26) 
oracle

>  <origin>  (26) 
adg

>  <m_score__min__energy>  (26) 
-6.8899999999999997

>  <m_primary>  (26) 
energy

$$$$
26:0
     RDKit          3D

 36 37  0  0  0  0  0  0  0  0999 V2000
   57.8530   34.1040   45.6680 C   0  0  0  0  0  0  0  0  0  0  0  0
   57.8780   32.7930   46.4660 C   0  0  0  0  0  0  0  0  0  0  0  0
   57.6740   31.5610   45.6600 N   0  0  1  0  0  0  0  0  0  0  0  0
   56.9250   31.8310   44.4090 C   0  0  0  0  0  0  0  0  0  0  0  0
   56.8460   30.5860   43.5120 C   0  0  0  0  0  0  0  0  0  0  0  0
   56.4540   29.2950   44.2740 C   0  0  2  0  0  0  0  0  0  0  0  0
   55.3520   29.5400   45.1120 O   0  0  0  0  0  0  0  0  0  0  0  0
   57.5560   28.5790   45.0540 C   0  0  0  0  0  0  0  0  0  0  0  0
   57.3960   27.1950   45.2660 C   0  0  0  0  0  0  0  0  0  0  0  0
   58.3080   26.4620   46.0280 C   0  0  0  0  0  0  0  0  0  0  0  0
   58.0910   25.0850   46.1830 O   0  0  0  0  0  0  0  0  0  0  0  0
   57.5630   24.2340   45.1710 C   0  0  0  0  0  0  0  0  0  0  0  0
   59.3950   27.1230   46.6160 C   0  0  0  0  0  0  0  0  0  0  0  0
   59.5630   28.4950   46.4340 C   0  0  0  0  0  0  0  0  0  0  0  0
   58.6720   29.2370   45.6380 C   0  0  0  0  0  0  0  0  0  0  0  0
   58.9000   30.7320   45.4980 C   0  0  0  0  0  0  0  0  0  0  0  0
   57.8368   34.9562   46.3633 H   0  0  0  0  0  0  0  0  0  0  0  0
   58.7502   34.1648   45.0344 H   0  0  0  0  0  0  0  0  0  0  0  0
   56.9542   34.1305   45.0344 H   0  0  0  0  0  0  0  0  0  0  0  0
   58.8554   32.7161   46.9648 H   0  0  0  0  0  0  0  0  0  0  0  0
   57.0318   32.8445   47.1669 H   0  0  0  0  0  0  0  0  0  0  0  0
   57.0290   30.9770   46.2460 H   0  0  0  0  0  0  0  0  0  0  0  0
   55.9042   32.1496   44.6668 H   0  0  0  0  0  0  0  0  0  0  0  0
   57.4567   32.6187   43.8551 H   0  0  0  0  0  0  0  0  0  0  0  0
   56.0954   30.7689   42.7289 H   0  0  0  0  0  0  0  0  0  0  0  0
   57.8520   30.4228   43.0981 H   0  0  0  0  0  0  0  0  0  0  0  0
   56.2046   28.5887   43.4684 H   0  0  0  0  0  0  0  0  0  0  0  0
   55.2780   30.5230   45.2250 H   0  0  0  0  0  0  0  0  0  0  0  0
   56.5321   26.6799   44.8206 H   0  0  0  0  0  0  0  0  0  0  0  0
   57.0384   23.3885   45.6399 H   0  0  0  0  0  0  0  0  0  0  0  0
   56.8582   24.8015   44.5456 H   0  0  0  0  0  0  0  0  0  0  0  0
   58.3845   23.8545   44.5456 H   0  0  0  0  0  0  0  0  0  0  0  0
   60.1176   26.5577   47.2228 H   0  0  0  0  0  0  0  0  0  0  0  0
   60.4067   29.0058   46.9212 H   0  0  0  0  0  0  0  0  0  0  0  0
   59.6277   31.0417   46.2625 H   0  0  0  0  0  0  0  0  0  0  0  0
   59.2575   30.8993   44.4713 H   0  0  0  0  0  0  0  0  0  0  0  0
  1  2  1  0
  2  3  1  0
  3  4  1  0
  4  5  1  0
  5  6  1  0
  6  7  1  0
  6  8  1  0
  8  9  2  0
  9 10  1  0
 10 11  1  0
 11 12  1  0
 10 13  2  0
 13 14  1  0
 14 15  2  0
 15 16  1  0
 16  3  1  0
 15  8  1  0
  1 17  1  0
  1 18  1  0
  1 19  1  0
  2 20  1  0
  2 21  1  0
  3 22  1  1
  4 23  1  0
  4 24  1  0
  5 25  1  0
  5 26  1  0
  6 27  1  6
  7 28  1  0
  9 29  1  0
 12 30  1  0
 12 31  1  0
 12 32  1  0
 13 33  1  0
 14 34  1  0
 16 35  1  0
 16 36  1  0
M  CHG  1   3   1
M  END
>  <UniqueID>  (27) 
27

>  <SMILES>  (27) 
CC[N@H+]1CC[C@H](O)c2cc(OC)ccc2C1

>  <Energy>  (27) 
53.45621737092629

>  <Genealogy>  (27) 
CC[NH+]1CCC(O)c2cc(OC)ccc2C1 (protonated)
CC[N@H+]1CC[C@H](O)c2cc(OC)ccc2C1 (chirality)
CC[N@H+]1CC[C@H](O)c2cc(OC)ccc2C1 (3D coordinates assigned)
CC[N@H+]1CC[C@H](O)c2cc(OC)ccc2C1 (nonaromatic ring conformer: 53.45621737092629 kcal/mol)

>  <smiles>  (27) 
CCN1CCC(O)c2cc(OC)ccc2C1

>  <score_type>  (27) 
oracle

>  <origin>  (27) 
adg

>  <m_score__min__energy>  (27) 
-3.4500000000000002

>  <m_primary>  (27) 
energy

$$$$
27:0
     RDKit          3D

 31 32  0  0  0  0  0  0  0  0999 V2000
   59.6280   35.0510   46.4500 C   0  0  0  0  0  0  0  0  0  0  0  0
   58.5260   34.2360   47.1210 C   0  0  0  0  0  0  0  0  0  0  0  0
   58.2180   33.0270   46.3280 N   0  0  0  0  0  0  0  0  0  0  0  0
   59.4210   32.2010   46.1080 C   0  0  0  0  0  0  0  0  0  0  0  0
   58.9970   30.8270   45.5750 C   0  0  0  0  0  0  0  0  0  0  0  0
   57.8450   30.9570   44.6710 N   0  0  0  0  0  0  0  0  0  0  0  0
   56.8570   29.9110   44.5950 C   0  0  0  0  0  0  0  0  0  0  0  0
   55.6370   30.2140   44.5010 O   0  0  0  0  0  0  0  0  0  0  0  0
   57.2340   28.5270   44.6510 N   0  0  0  0  0  0  0  0  0  0  0  0
   57.9360   27.8520   43.7250 C   0  0  0  0  0  0  0  0  0  0  0  0
   58.1310   26.5720   44.1910 C   0  0  0  0  0  0  0  0  0  0  0  0
   57.5740   26.4450   45.4130 N   0  0  0  0  0  0  0  0  0  0  0  0
   57.0380   27.6580   45.6640 C   0  0  0  0  0  0  0  0  0  0  0  0
   57.6180   32.2450   44.0070 C   0  0  0  0  0  0  0  0  0  0  0  0
   57.5870   33.3940   45.0370 C   0  0  0  0  0  0  0  0  0  0  0  0
   60.2594   35.5180   47.2202 H   0  0  0  0  0  0  0  0  0  0  0  0
   60.2435   34.3891   45.8230 H   0  0  0  0  0  0  0  0  0  0  0  0
   59.1754   35.8334   45.8230 H   0  0  0  0  0  0  0  0  0  0  0  0
   58.8593   33.9347   48.1251 H   0  0  0  0  0  0  0  0  0  0  0  0
   57.6194   34.8550   47.1913 H   0  0  0  0  0  0  0  0  0  0  0  0
   60.0770   32.6937   45.3752 H   0  0  0  0  0  0  0  0  0  0  0  0
   59.9644   32.0785   47.0565 H   0  0  0  0  0  0  0  0  0  0  0  0
   59.8377   30.3764   45.0271 H   0  0  0  0  0  0  0  0  0  0  0  0
   58.7116   30.1891   46.4245 H   0  0  0  0  0  0  0  0  0  0  0  0
   58.2919   28.2521   42.7641 H   0  0  0  0  0  0  0  0  0  0  0  0
   58.6603   25.7741   43.6496 H   0  0  0  0  0  0  0  0  0  0  0  0
   56.5015   27.9098   46.5907 H   0  0  0  0  0  0  0  0  0  0  0  0
   58.4294   32.4277   43.2871 H   0  0  0  0  0  0  0  0  0  0  0  0
   56.6481   32.2090   43.4893 H   0  0  0  0  0  0  0  0  0  0  0  0
   58.1237   34.2572   44.6165 H   0  0  0  0  0  0  0  0  0  0  0  0
   56.5315   33.6283   45.2395 H   0  0  0  0  0  0  0  0  0  0  0  0
  1  2  1  0
  2  3  1  0
  3  4  1  0
  4  5  1  0
  5  6  1  0
  6  7  1  0
  7  8  2  0
  7  9  1  0
  9 10  1  0
 10 11  2  0
 11 12  1  0
 12 13  2  0
  6 14  1  0
 14 15  1  0
 15  3  1  0
 13  9  1  0
  1 16  1  0
  1 17  1  0
  1 18  1  0
  2 19  1  0
  2 20  1  0
  4 21  1  0
  4 22  1  0
  5 23  1  0
  5 24  1  0
 10 25  1  0
 11 26  1  0
 13 27  1  0
 14 28  1  0
 14 29  1  0
 15 30  1  0
 15 31  1  0
M  END
>  <UniqueID>  (28) 
28

>  <SMILES>  (28) 
CCN1CCN(C(=O)n2ccnc2)CC1

>  <Energy>  (28) 
67.63925844666231

>  <Genealogy>  (28) 
CCN1CCN(C(=O)n2ccnc2)CC1 (3D coordinates assigned)
CCN1CCN(C(=O)n2ccnc2)CC1 (nonaromatic ring conformer: 67.63925844666231 kcal/mol)

>  <smiles>  (28) 
CCN1CCN(C(=O)n2ccnc2)CC1

>  <score_type>  (28) 
oracle

>  <origin>  (28) 
adg

>  <m_score__min__energy>  (28) 
-5.4199999999999999

>  <m_primary>  (28) 
energy

$$$$
28:0
     RDKit          3D

 29 30  0  0  0  0  0  0  0  0999 V2000
   57.4590   31.5710   42.6040 C   0  0  0  0  0  0  0  0  0  0  0  0
   56.7830   30.5280   43.4890 C   0  0  0  0  0  0  0  0  0  0  0  0
   56.9470   30.8520   44.8700 O   0  0  0  0  0  0  0  0  0  0  0  0
   58.1500   31.2410   45.4840 C   0  0  0  0  0  0  0  0  0  0  0  0
   59.1480   30.3280   45.8450 C   0  0  0  0  0  0  0  0  0  0  0  0
   60.2900   30.7670   46.4370 N   0  0  0  0  0  0  0  0  0  0  0  0
   60.5000   32.0650   46.6960 N   0  0  0  0  0  0  0  0  0  0  0  0
   61.7340   32.4560   47.3310 C   0  0  0  0  0  0  0  0  0  0  0  0
   62.1500   31.8450   48.5270 C   0  0  0  0  0  0  0  0  0  0  0  0
   63.3560   32.2190   49.1280 C   0  0  0  0  0  0  0  0  0  0  0  0
   64.1570   33.2010   48.5390 C   0  0  0  0  0  0  0  0  0  0  0  0
   63.7550   33.8080   47.3450 C   0  0  0  0  0  0  0  0  0  0  0  0
   62.5500   33.4350   46.7410 C   0  0  0  0  0  0  0  0  0  0  0  0
   59.5620   33.0020   46.3470 C   0  0  0  0  0  0  0  0  0  0  0  0
   59.7700   34.2290   46.5520 O   0  0  0  0  0  0  0  0  0  0  0  0
   58.3690   32.5970   45.7380 C   0  0  0  0  0  0  0  0  0  0  0  0
   57.0410   33.8940   45.2490 Br  0  0  0  0  0  0  0  0  0  0  0  0
   57.9486   32.3264   43.2361 H   0  0  0  0  0  0  0  0  0  0  0  0
   58.2116   31.0808   41.9689 H   0  0  0  0  0  0  0  0  0  0  0  0
   56.7042   32.0577   41.9689 H   0  0  0  0  0  0  0  0  0  0  0  0
   55.7095   30.4946   43.2514 H   0  0  0  0  0  0  0  0  0  0  0  0
   57.2478   29.5494   43.2987 H   0  0  0  0  0  0  0  0  0  0  0  0
   59.0078   29.2546   45.6494 H   0  0  0  0  0  0  0  0  0  0  0  0
   61.0070   30.0540   46.7060 H   0  0  0  0  0  0  0  0  0  0  0  0
   61.5240   31.0692   48.9921 H   0  0  0  0  0  0  0  0  0  0  0  0
   63.6745   31.7397   50.0654 H   0  0  0  0  0  0  0  0  0  0  0  0
   65.1038   33.4966   49.0146 H   0  0  0  0  0  0  0  0  0  0  0  0
   64.3870   34.5793   46.8806 H   0  0  0  0  0  0  0  0  0  0  0  0
   62.2398   33.9109   45.7990 H   0  0  0  0  0  0  0  0  0  0  0  0
  1  2  1  0
  2  3  1  0
  3  4  1  0
  4  5  1  0
  5  6  2  0
  6  7  1  0
  7  8  1  0
  8  9  2  0
  9 10  1  0
 10 11  2  0
 11 12  1  0
 12 13  2  0
  7 14  1  0
 14 15  2  0
 14 16  1  0
 16 17  1  0
 16  4  2  0
 13  8  1  0
  1 18  1  0
  1 19  1  0
  1 20  1  0
  2 21  1  0
  2 22  1  0
  5 23  1  0
  6 24  1  0
  9 25  1  0
 10 26  1  0
 11 27  1  0
 12 28  1  0
 13 29  1  0
M  CHG  1   6   1
M  END
>  <UniqueID>  (29) 
29

>  <SMILES>  (29) 
CCOc1c[nH+]n(-c2ccccc2)c(=O)c1Br

>  <Energy>  (29) 
36.43286513853144

>  <Genealogy>  (29) 
CCOc1c[nH+]n(-c2ccccc2)c(=O)c1Br (protonated)
CCOc1c[nH+]n(-c2ccccc2)c(=O)c1Br (3D coordinates assigned)
CCOc1c[nH+]n(-c2ccccc2)c(=O)c1Br (optimized conformer: 36.43286513853144 kcal/mol)

>  <smiles>  (29) 
CCOc1cnn(-c2ccccc2)c(=O)c1Br

>  <score_type>  (29) 
oracle

>  <origin>  (29) 
adg

>  <m_score__min__energy>  (29) 
-5.1200000000000001

>  <m_primary>  (29) 
energy

$$$$
29:0
     RDKit          3D

 78 82  0  0  0  0  0  0  0  0999 V2000
   56.2790   29.7730   43.2160 C   0  0  0  0  0  0  0  0  0  0  0  0
   56.7150   28.9630   44.3030 O   0  0  0  0  0  0  0  0  0  0  0  0
   57.6960   29.3460   45.2310 C   0  0  0  0  0  0  0  0  0  0  0  0
   57.8160   28.6080   46.4130 C   0  0  0  0  0  0  0  0  0  0  0  0
   58.7790   28.9470   47.3680 C   0  0  0  0  0  0  0  0  0  0  0  0
   59.6540   30.0230   47.1440 C   0  0  0  0  0  0  0  0  0  0  0  0
   60.6930   30.3960   48.1720 C   0  0  0  0  0  0  0  0  0  0  0  0
   60.1740   30.2880   49.5550 N   0  0  0  0  0  0  0  0  0  0  0  0
   61.0180   29.6590   50.5590 C   0  0  0  0  0  0  0  0  0  0  0  0
   61.5240   28.5260   50.3190 O   0  0  0  0  0  0  0  0  0  0  0  0
   61.3470   30.3560   51.7980 N   0  0  1  0  0  0  0  0  0  0  0  0
   61.5330   31.8190   51.5760 C   0  0  0  0  0  0  0  0  0  0  0  0
   62.7170   32.1170   50.6820 C   0  0  0  0  0  0  0  0  0  0  0  0
   64.0240   31.9010   51.1510 C   0  0  0  0  0  0  0  0  0  0  0  0
   65.1240   32.1870   50.3380 C   0  0  0  0  0  0  0  0  0  0  0  0
   64.9300   32.6940   49.0500 C   0  0  0  0  0  0  0  0  0  0  0  0
   63.6320   32.9150   48.5720 C   0  0  0  0  0  0  0  0  0  0  0  0
   63.4340   33.4410   47.2470 C   0  0  0  0  0  0  0  0  0  0  0  0
   63.2740   33.8650   46.1820 N   0  0  0  0  0  0  0  0  0  0  0  0
   62.5280   32.6290   49.3870 C   0  0  0  0  0  0  0  0  0  0  0  0
   60.3470   30.1180   52.9000 C   0  0  2  0  0  0  0  0  0  0  0  0
   60.3940   28.6210   53.3430 C   0  0  0  0  0  0  0  0  0  0  0  0
   61.7590   27.9960   53.2110 C   0  0  0  0  0  0  0  0  0  0  0  0
   62.8900   28.6240   53.7610 C   0  0  0  0  0  0  0  0  0  0  0  0
   64.1540   28.0410   53.6320 C   0  0  0  0  0  0  0  0  0  0  0  0
   64.2980   26.8250   52.9570 C   0  0  0  0  0  0  0  0  0  0  0  0
   63.1780   26.1910   52.4110 C   0  0  0  0  0  0  0  0  0  0  0  0
   61.9120   26.7710   52.5380 C   0  0  0  0  0  0  0  0  0  0  0  0
   58.8860   30.6080   52.5880 C   0  0  2  0  0  0  0  0  0  0  0  0
   58.0290   30.2180   53.6330 O   0  0  0  0  0  0  0  0  0  0  0  0
   58.3010   30.1100   51.2360 C   0  0  1  0  0  0  0  0  0  0  0  0
   56.8950   30.1520   51.2740 O   0  0  0  0  0  0  0  0  0  0  0  0
   58.8560   30.8430   49.9760 C   0  0  1  0  0  0  0  0  0  0  0  0
   58.8070   32.3880   50.1600 C   0  0  0  0  0  0  0  0  0  0  0  0
   58.8370   33.1710   48.8620 C   0  0  0  0  0  0  0  0  0  0  0  0
   59.8380   34.1310   48.6220 C   0  0  0  0  0  0  0  0  0  0  0  0
   59.8860   34.8150   47.4040 C   0  0  0  0  0  0  0  0  0  0  0  0
   58.9510   34.5340   46.4050 C   0  0  0  0  0  0  0  0  0  0  0  0
   57.9770   33.5580   46.6160 C   0  0  0  0  0  0  0  0  0  0  0  0
   57.9260   32.8690   47.8310 C   0  0  0  0  0  0  0  0  0  0  0  0
   59.5160   30.7800   45.9690 C   0  0  0  0  0  0  0  0  0  0  0  0
   58.5520   30.4410   45.0150 C   0  0  0  0  0  0  0  0  0  0  0  0
   55.7915   30.6787   43.6061 H   0  0  0  0  0  0  0  0  0  0  0  0
   57.1452   30.0587   42.6011 H   0  0  0  0  0  0  0  0  0  0  0  0
   55.5635   29.2073   42.6011 H   0  0  0  0  0  0  0  0  0  0  0  0
   57.1469   27.7536   46.5927 H   0  0  0  0  0  0  0  0  0  0  0  0
   58.8520   28.3678   48.3003 H   0  0  0  0  0  0  0  0  0  0  0  0
   61.5563   29.7230   48.0638 H   0  0  0  0  0  0  0  0  0  0  0  0
   60.9790   31.4440   47.9990 H   0  0  0  0  0  0  0  0  0  0  0  0
   62.2800   30.0010   52.1030 H   0  0  0  0  0  0  0  0  0  0  0  0
   60.6243   32.2242   51.1068 H   0  0  0  0  0  0  0  0  0  0  0  0
   61.7225   32.2868   52.5534 H   0  0  0  0  0  0  0  0  0  0  0  0
   64.1822   31.5042   52.1647 H   0  0  0  0  0  0  0  0  0  0  0  0
   66.1437   32.0129   50.7121 H   0  0  0  0  0  0  0  0  0  0  0  0
   65.7969   32.9195   48.4115 H   0  0  0  0  0  0  0  0  0  0  0  0
   61.5094   32.8061   49.0113 H   0  0  0  0  0  0  0  0  0  0  0  0
   60.6541   30.7554   53.7423 H   0  0  0  0  0  0  0  0  0  0  0  0
   60.0839   28.5601   54.3966 H   0  0  0  0  0  0  0  0  0  0  0  0
   59.7186   28.0655   52.6757 H   0  0  0  0  0  0  0  0  0  0  0  0
   62.7799   29.5790   54.2956 H   0  0  0  0  0  0  0  0  0  0  0  0
   65.0356   28.5391   54.0617 H   0  0  0  0  0  0  0  0  0  0  0  0
   65.2930   26.3670   52.8555 H   0  0  0  0  0  0  0  0  0  0  0  0
   63.2929   25.2342   51.8806 H   0  0  0  0  0  0  0  0  0  0  0  0
   61.0328   26.2672   52.1099 H   0  0  0  0  0  0  0  0  0  0  0  0
   58.9537   31.7025   52.5014 H   0  0  0  0  0  0  0  0  0  0  0  0
   57.3910   29.5540   53.2630 H   0  0  0  0  0  0  0  0  0  0  0  0
   58.6400   29.0696   51.1235 H   0  0  0  0  0  0  0  0  0  0  0  0
   56.6320   30.6770   52.0690 H   0  0  0  0  0  0  0  0  0  0  0  0
   58.1950   30.6431   49.1198 H   0  0  0  0  0  0  0  0  0  0  0  0
   57.8799   32.6423   50.6946 H   0  0  0  0  0  0  0  0  0  0  0  0
   59.7123   32.6681   50.7185 H   0  0  0  0  0  0  0  0  0  0  0  0
   60.5876   34.3444   49.3983 H   0  0  0  0  0  0  0  0  0  0  0  0
   60.6615   35.5759   47.2318 H   0  0  0  0  0  0  0  0  0  0  0  0
   58.9828   35.0824   45.4519 H   0  0  0  0  0  0  0  0  0  0  0  0
   57.2477   33.3302   45.8247 H   0  0  0  0  0  0  0  0  0  0  0  0
   57.1691   32.0854   47.9831 H   0  0  0  0  0  0  0  0  0  0  0  0
   60.1717   31.6465   45.7981 H   0  0  0  0  0  0  0  0  0  0  0  0
   58.4626   31.0328   44.0921 H   0  0  0  0  0  0  0  0  0  0  0  0
  1  2  1  0
  2  3  1  0
  3  4  2  0
  4  5  1  0
  5  6  2  0
  6  7  1  0
  7  8  1  0
  8  9  1  0
  9 10  2  0
  9 11  1  0
 11 12  1  0
 12 13  1  0
 13 14  2  0
 14 15  1  0
 15 16  2  0
 16 17  1  0
 17 18  1  0
 18 19  3  0
 17 20  2  0
 11 21  1  0
 21 22  1  0
 22 23  1  0
 23 24  2  0
 24 25  1  0
 25 26  2  0
 26 27  1  0
 27 28  2  0
 21 29  1  0
 29 30  1  0
 29 31  1  0
 31 32  1  0
 31 33  1  0
 33 34  1  0
 34 35  1  0
 35 36  2  0
 36 37  1  0
 37 38  2  0
 38 39  1  0
 39 40  2  0
  6 41  1  0
 41 42  2  0
 42  3  1  0
 33  8  1  0
 40 35  1  0
 20 13  1  0
 28 23  1  0
  1 43  1  0
  1 44  1  0
  1 45  1  0
  4 46  1  0
  5 47  1  0
  7 48  1  0
  7 49  1  0
 11 50  1  1
 12 51  1  0
 12 52  1  0
 14 53  1  0
 15 54  1  0
 16 55  1  0
 20 56  1  0
 21 57  1  1
 22 58  1  0
 22 59  1  0
 24 60  1  0
 25 61  1  0
 26 62  1  0
 27 63  1  0
 28 64  1  0
 29 65  1  6
 30 66  1  0
 31 67  1  6
 32 68  1  0
 33 69  1  6
 34 70  1  0
 34 71  1  0
 36 72  1  0
 37 73  1  0
 38 74  1  0
 39 75  1  0
 40 76  1  0
 41 77  1  0
 42 78  1  0
M  CHG  1  11   1
M  END
>  <UniqueID>  (30) 
30

>  <SMILES>  (30) 
COc1ccc(CN2C(=O)[N@@H+](Cc3cccc(C#N)c3)[C@H](Cc3ccccc3)C(O)C(O)C2Cc2ccccc2)cc1

>  <Energy>  (30) 
106.22127077692667

>  <Genealogy>  (30) 
COc1ccc(CN2C(=O)[NH+](Cc3cccc(C#N)c3)C(Cc3ccccc3)C(O)C(O)C2Cc2ccccc2)cc1 (protonated)
COc1ccc(CN2C(=O)[N@@H+](Cc3cccc(C#N)c3)[C@H](Cc3ccccc3)C(O)C(O)C2Cc2ccccc2)cc1 (chirality)
COc1ccc(CN2C(=O)[N@@H+](Cc3cccc(C#N)c3)[C@H](Cc3ccccc3)C(O)C(O)C2Cc2ccccc2)cc1 (3D coordinates assigned)
COc1ccc(CN2C(=O)[N@@H+](Cc3cccc(C#N)c3)[C@H](Cc3ccccc3)C(O)C(O)C2Cc2ccccc2)cc1 (nonaromatic ring conformer: 106.22127077692667 kcal/mol)

>  <smiles>  (30) 
COc1ccc(CN2C(=O)N(Cc3cccc(C#N)c3)C(Cc3ccccc3)C(O)C(O)C2Cc2ccccc2)cc1

>  <score_type>  (30) 
oracle

>  <origin>  (30) 
adg

>  <m_score__min__energy>  (30) 
-6.5499999999999998

>  <m_primary>  (30) 
energy

$$$$
30:0
     RDKit          3D

 59 62  0  0  0  0  0  0  0  0999 V2000
   63.9060   32.7400   48.4050 C   0  0  0  0  0  0  0  0  0  0  0  0
   63.1050   33.7120   47.7400 O   0  0  0  0  0  0  0  0  0  0  0  0
   61.7340   33.5670   47.4760 C   0  0  0  0  0  0  0  0  0  0  0  0
   60.9700   32.7900   48.3550 C   0  0  0  0  0  0  0  0  0  0  0  0
   59.5880   32.6000   48.1520 C   0  0  0  0  0  0  0  0  0  0  0  0
   58.8040   31.7770   49.0440 N   0  0  0  0  0  0  0  0  0  0  0  0
   58.7660   31.9310   50.5000 C   0  0  0  0  0  0  0  0  0  0  0  0
   59.8170   31.0310   51.1690 C   0  0  0  0  0  0  0  0  0  0  0  0
   60.4600   30.1560   50.1650 N   0  0  0  0  0  0  0  0  0  0  0  0
   61.8220   29.7970   50.6000 C   0  0  0  0  0  0  0  0  0  0  0  0
   59.6590   28.9380   49.9030 C   0  0  0  0  0  0  0  0  0  0  0  0
   60.5830   27.7600   49.6020 C   0  0  0  0  0  0  0  0  0  0  0  0
   60.6570   27.5600   48.1900 O   0  0  0  0  0  0  0  0  0  0  0  0
   59.8350   28.1720   47.2220 C   0  0  0  0  0  0  0  0  0  0  0  0
   60.3830   29.3070   46.6520 C   0  0  0  0  0  0  0  0  0  0  0  0
   59.8770   30.1440   45.6750 C   0  0  0  0  0  0  0  0  0  0  0  0
   58.6560   30.1150   44.9860 C   0  0  0  0  0  0  0  0  0  0  0  0
   58.4910   31.1640   44.0460 C   0  0  0  0  0  0  0  0  0  0  0  0
   57.3360   31.2970   43.2850 C   0  0  0  0  0  0  0  0  0  0  0  0
   56.3070   30.3870   43.4350 C   0  0  0  0  0  0  0  0  0  0  0  0
   56.4310   29.3420   44.3430 C   0  0  0  0  0  0  0  0  0  0  0  0
   57.5980   29.1630   45.1450 C   0  0  0  0  0  0  0  0  0  0  0  0
   57.5920   28.0410   46.0210 C   0  0  0  0  0  0  0  0  0  0  0  0
   56.5650   27.3020   46.0210 O   0  0  0  0  0  0  0  0  0  0  0  0
   58.5870   27.6250   46.9120 C   0  0  0  0  0  0  0  0  0  0  0  0
   58.9730   33.2150   47.0410 C   0  0  0  0  0  0  0  0  0  0  0  0
   57.6360   33.0700   46.8220 N   0  0  0  0  0  0  0  0  0  0  0  0
   57.0090   33.6550   45.7670 C   0  0  0  0  0  0  0  0  0  0  0  0
   57.7350   34.4330   44.8650 C   0  0  0  0  0  0  0  0  0  0  0  0
   59.1070   34.6060   45.0560 C   0  0  0  0  0  0  0  0  0  0  0  0
   59.7410   34.0010   46.1510 C   0  0  0  0  0  0  0  0  0  0  0  0
   61.1150   34.1720   46.3690 C   0  0  0  0  0  0  0  0  0  0  0  0
   63.8043   32.8635   49.4933 H   0  0  0  0  0  0  0  0  0  0  0  0
   63.5731   31.7317   48.1176 H   0  0  0  0  0  0  0  0  0  0  0  0
   64.9593   32.8741   48.1176 H   0  0  0  0  0  0  0  0  0  0  0  0
   61.4577   32.3185   49.2210 H   0  0  0  0  0  0  0  0  0  0  0  0
   58.2240   31.0060   48.6410 H   0  0  0  0  0  0  0  0  0  0  0  0
   58.9725   32.9803   50.7576 H   0  0  0  0  0  0  0  0  0  0  0  0
   57.7688   31.6386   50.8607 H   0  0  0  0  0  0  0  0  0  0  0  0
   60.5832   31.6605   51.6451 H   0  0  0  0  0  0  0  0  0  0  0  0
   59.3211   30.4035   51.9242 H   0  0  0  0  0  0  0  0  0  0  0  0
   61.8648   29.7857   51.6991 H   0  0  0  0  0  0  0  0  0  0  0  0
   62.0798   28.8002   50.2127 H   0  0  0  0  0  0  0  0  0  0  0  0
   62.5376   30.5372   50.2127 H   0  0  0  0  0  0  0  0  0  0  0  0
   59.0491   28.7056   50.7885 H   0  0  0  0  0  0  0  0  0  0  0  0
   59.0056   29.1151   49.0360 H   0  0  0  0  0  0  0  0  0  0  0  0
   61.5881   27.9729   49.9951 H   0  0  0  0  0  0  0  0  0  0  0  0
   60.1863   26.8522   50.0800 H   0  0  0  0  0  0  0  0  0  0  0  0
   61.3752   29.5870   47.0356 H   0  0  0  0  0  0  0  0  0  0  0  0
   60.5438   30.9713   45.3904 H   0  0  0  0  0  0  0  0  0  0  0  0
   59.3025   31.8950   43.9153 H   0  0  0  0  0  0  0  0  0  0  0  0
   57.2411   32.1238   42.5657 H   0  0  0  0  0  0  0  0  0  0  0  0
   55.3901   30.4896   42.8360 H   0  0  0  0  0  0  0  0  0  0  0  0
   55.6007   28.6280   44.4471 H   0  0  0  0  0  0  0  0  0  0  0  0
   58.3445   26.7060   47.4658 H   0  0  0  0  0  0  0  0  0  0  0  0
   55.9274   33.5146   45.6244 H   0  0  0  0  0  0  0  0  0  0  0  0
   57.2303   34.9065   44.0099 H   0  0  0  0  0  0  0  0  0  0  0  0
   59.6895   35.2154   44.3493 H   0  0  0  0  0  0  0  0  0  0  0  0
   61.7098   34.7809   45.6723 H   0  0  0  0  0  0  0  0  0  0  0  0
  1  2  1  0
  2  3  1  0
  3  4  2  0
  4  5  1  0
  5  6  1  0
  6  7  1  0
  7  8  1  0
  8  9  1  0
  9 10  1  0
  9 11  1  0
 11 12  1  0
 12 13  1  0
 13 14  1  0
 14 15  1  0
 15 16  2  0
 16 17  1  0
 17 18  2  0
 18 19  1  0
 19 20  2  0
 20 21  1  0
 21 22  2  0
 22 23  1  0
 23 24  2  0
 23 25  1  0
  5 26  2  0
 26 27  1  0
 27 28  2  0
 28 29  1  0
 29 30  2  0
 30 31  1  0
 31 32  2  0
 32  3  1  0
 25 14  2  0
 31 26  1  0
 22 17  1  0
  1 33  1  0
  1 34  1  0
  1 35  1  0
  4 36  1  0
  6 37  1  0
  7 38  1  0
  7 39  1  0
  8 40  1  0
  8 41  1  0
 10 42  1  0
 10 43  1  0
 10 44  1  0
 11 45  1  0
 11 46  1  0
 12 47  1  0
 12 48  1  0
 15 49  1  0
 16 50  1  0
 18 51  1  0
 19 52  1  0
 20 53  1  0
 21 54  1  0
 25 55  1  0
 28 56  1  0
 29 57  1  0
 30 58  1  0
 32 59  1  0
M  END
>  <UniqueID>  (31) 
31

>  <SMILES>  (31) 
COc1cc(NCCN(C)CCOc2ccc3ccccc3c(=O)c2)c2ncccc2c1

>  <Energy>  (31) 
98.10520446071173

>  <Genealogy>  (31) 
COc1cc(NCCN(C)CCOc2ccc3ccccc3c(=O)c2)c2ncccc2c1 (3D coordinates assigned)
COc1cc(NCCN(C)CCOc2ccc3ccccc3c(=O)c2)c2ncccc2c1 (optimized conformer: 98.10520446071173 kcal/mol)

>  <smiles>  (31) 
COc1cc(NCCN(C)CCOc2ccc3ccccc3c(=O)c2)c2ncccc2c1

>  <score_type>  (31) 
oracle

>  <origin>  (31) 
adg

>  <m_score__min__energy>  (31) 
-8.3699999999999992

>  <m_primary>  (31) 
energy

$$$$
31:0
     RDKit          3D

 49 52  0  0  0  0  0  0  0  0999 V2000
   63.0460   33.8470   46.3840 C   0  0  0  0  0  0  0  0  0  0  0  0
   63.6600   32.6410   47.1110 C   0  0  0  0  0  0  0  0  0  0  0  0
   62.9440   32.2550   48.3480 N   0  0  0  0  0  0  0  0  0  0  0  0
   62.4360   33.4290   49.0830 C   0  0  0  0  0  0  0  0  0  0  0  0
   61.8860   31.2520   48.1020 C   0  0  0  0  0  0  0  0  0  0  0  0
   60.9890   31.0950   49.3340 C   0  0  0  0  0  0  0  0  0  0  0  0
   59.5920   31.3320   48.9730 N   0  0  0  0  0  0  0  0  0  0  0  0
   59.1980   31.3960   47.5960 C   0  0  0  0  0  0  0  0  0  0  0  0
   59.1830   32.6060   46.8640 C   0  0  0  0  0  0  0  0  0  0  0  0
   59.5000   33.8280   47.4860 C   0  0  0  0  0  0  0  0  0  0  0  0
   59.5380   35.0090   46.7490 C   0  0  0  0  0  0  0  0  0  0  0  0
   59.2680   34.9930   45.3850 C   0  0  0  0  0  0  0  0  0  0  0  0
   58.9210   33.8010   44.7470 C   0  0  0  0  0  0  0  0  0  0  0  0
   58.8280   32.5880   45.4700 C   0  0  0  0  0  0  0  0  0  0  0  0
   58.4240   31.4040   44.8650 N   0  0  0  0  0  0  0  0  0  0  0  0
   57.8110   31.3830   43.5260 C   0  0  0  0  0  0  0  0  0  0  0  0
   58.5450   30.2430   45.5830 C   0  0  0  0  0  0  0  0  0  0  0  0
   58.8870   30.2300   46.9160 C   0  0  0  0  0  0  0  0  0  0  0  0
   58.9080   29.0060   47.3990 O   0  0  0  0  0  0  0  0  0  0  0  0
   58.6090   28.2010   46.4050 C   0  0  0  0  0  0  0  0  0  0  0  0
   58.5450   26.8100   46.4500 C   0  0  0  0  0  0  0  0  0  0  0  0
   58.2700   26.1230   45.2560 C   0  0  0  0  0  0  0  0  0  0  0  0
   58.0840   26.8300   44.0500 C   0  0  0  0  0  0  0  0  0  0  0  0
   58.1530   28.2350   44.0260 C   0  0  0  0  0  0  0  0  0  0  0  0
   58.3830   28.9050   45.2350 C   0  0  0  0  0  0  0  0  0  0  0  0
   62.6768   34.5722   47.1241 H   0  0  0  0  0  0  0  0  0  0  0  0
   63.8112   34.3237   45.7537 H   0  0  0  0  0  0  0  0  0  0  0  0
   62.2104   33.5087   45.7537 H   0  0  0  0  0  0  0  0  0  0  0  0
   63.6514   31.7819   46.4240 H   0  0  0  0  0  0  0  0  0  0  0  0
   64.6771   32.9339   47.4103 H   0  0  0  0  0  0  0  0  0  0  0  0
   62.5149   33.2466   50.1649 H   0  0  0  0  0  0  0  0  0  0  0  0
   63.0314   34.3146   48.8161 H   0  0  0  0  0  0  0  0  0  0  0  0
   61.3829   33.6012   48.8161 H   0  0  0  0  0  0  0  0  0  0  0  0
   61.2728   31.5764   47.2483 H   0  0  0  0  0  0  0  0  0  0  0  0
   62.3611   30.2838   47.8858 H   0  0  0  0  0  0  0  0  0  0  0  0
   61.0936   30.0750   49.7324 H   0  0  0  0  0  0  0  0  0  0  0  0
   61.2929   31.8279   50.0959 H   0  0  0  0  0  0  0  0  0  0  0  0
   58.8690   31.0300   49.6640 H   0  0  0  0  0  0  0  0  0  0  0  0
   59.7197   33.8505   48.5636 H   0  0  0  0  0  0  0  0  0  0  0  0
   59.7826   35.9584   47.2479 H   0  0  0  0  0  0  0  0  0  0  0  0
   59.3283   35.9257   44.8050 H   0  0  0  0  0  0  0  0  0  0  0  0
   58.7168   33.8045   43.6661 H   0  0  0  0  0  0  0  0  0  0  0  0
   56.7161   31.3455   43.6246 H   0  0  0  0  0  0  0  0  0  0  0  0
   58.0988   32.2915   42.9767 H   0  0  0  0  0  0  0  0  0  0  0  0
   58.1603   30.4963   42.9767 H   0  0  0  0  0  0  0  0  0  0  0  0
   58.7051   26.2659   47.3925 H   0  0  0  0  0  0  0  0  0  0  0  0
   58.1992   25.0253   45.2617 H   0  0  0  0  0  0  0  0  0  0  0  0
   57.8832   26.2781   43.1199 H   0  0  0  0  0  0  0  0  0  0  0  0
   58.0299   28.7916   43.0852 H   0  0  0  0  0  0  0  0  0  0  0  0
  1  2  1  0
  2  3  1  0
  3  4  1  0
  3  5  1  0
  5  6  1  0
  6  7  1  0
  7  8  1  0
  8  9  2  0
  9 10  1  0
 10 11  2  0
 11 12  1  0
 12 13  2  0
 13 14  1  0
 14 15  2  0
 15 16  1  0
 15 17  1  0
 17 18  2  0
 18 19  1  0
 19 20  1  0
 20 21  2  0
 21 22  1  0
 22 23  2  0
 23 24  1  0
 24 25  2  0
 18  8  1  0
 25 20  1  0
 14  9  1  0
 25 17  1  0
  1 26  1  0
  1 27  1  0
  1 28  1  0
  2 29  1  0
  2 30  1  0
  4 31  1  0
  4 32  1  0
  4 33  1  0
  5 34  1  0
  5 35  1  0
  6 36  1  0
  6 37  1  0
  7 38  1  0
 10 39  1  0
 11 40  1  0
 12 41  1  0
 13 42  1  0
 16 43  1  0
 16 44  1  0
 16 45  1  0
 21 46  1  0
 22 47  1  0
 23 48  1  0
 24 49  1  0
M  CHG  1  15   1
M  END
>  <UniqueID>  (32) 
32

>  <SMILES>  (32) 
CCN(C)CCNc1c2ccccc2[n+](C)c2c1oc1ccccc12

>  <Energy>  (32) 
113.73465268718441

>  <Genealogy>  (32) 
CCN(C)CCNc1c2ccccc2[n+](C)c2c1oc1ccccc12 (3D coordinates assigned)
CCN(C)CCNc1c2ccccc2[n+](C)c2c1oc1ccccc12 (optimized conformer: 113.73465268718441 kcal/mol)

>  <smiles>  (32) 
CCN(C)CCNc1c2ccccc2[n+](C)c2c1oc1ccccc12

>  <score_type>  (32) 
oracle

>  <origin>  (32) 
adg

>  <m_score__min__energy>  (32) 
-5.6699999999999999

>  <m_primary>  (32) 
energy

$$$$
32:0
     RDKit          3D

 44 45  0  0  0  0  0  0  0  0999 V2000
   57.3750   28.9770   43.9150 C   0  0  0  0  0  0  0  0  0  0  0  0
   56.2910   30.0070   43.6170 C   0  0  0  0  0  0  0  0  0  0  0  0
   56.4280   31.1430   44.4690 O   0  0  0  0  0  0  0  0  0  0  0  0
   57.4340   32.1070   44.3150 C   0  0  0  0  0  0  0  0  0  0  0  0
   57.8560   32.4040   43.1630 O   0  0  0  0  0  0  0  0  0  0  0  0
   58.0020   32.7730   45.5090 C   0  0  0  0  0  0  0  0  0  0  0  0
   57.8130   32.2300   46.7910 C   0  0  0  0  0  0  0  0  0  0  0  0
   58.3530   32.8610   47.9160 C   0  0  0  0  0  0  0  0  0  0  0  0
   59.0970   34.0480   47.7810 C   0  0  0  0  0  0  0  0  0  0  0  0
   59.6670   34.7280   48.9180 N   0  0  0  0  0  0  0  0  0  0  0  0
   60.7630   34.2070   49.7350 C   0  0  0  0  0  0  0  0  0  0  0  0
   60.8110   32.6690   49.6540 C   0  0  0  0  0  0  0  0  0  0  0  0
   62.1060   32.1760   49.1210 N   0  0  0  0  0  0  0  0  0  0  0  0
   62.0550   31.9670   47.6440 C   0  0  0  0  0  0  0  0  0  0  0  0
   62.7300   33.1050   46.8610 C   0  0  0  0  0  0  0  0  0  0  0  0
   64.1470   33.2680   47.2340 N   0  0  0  0  0  0  0  0  0  0  0  0
   64.4360   32.9220   48.6380 C   0  0  0  0  0  0  0  0  0  0  0  0
   63.2020   33.0900   49.5340 C   0  0  0  0  0  0  0  0  0  0  0  0
   59.2780   34.5900   46.5010 C   0  0  0  0  0  0  0  0  0  0  0  0
   58.7390   33.9600   45.3750 C   0  0  0  0  0  0  0  0  0  0  0  0
   57.4887   28.8689   45.0038 H   0  0  0  0  0  0  0  0  0  0  0  0
   57.0905   28.0084   43.4781 H   0  0  0  0  0  0  0  0  0  0  0  0
   58.3278   29.3106   43.4781 H   0  0  0  0  0  0  0  0  0  0  0  0
   56.3772   30.3291   42.5688 H   0  0  0  0  0  0  0  0  0  0  0  0
   55.3075   29.5475   43.7950 H   0  0  0  0  0  0  0  0  0  0  0  0
   57.2358   31.3013   46.9106 H   0  0  0  0  0  0  0  0  0  0  0  0
   58.1951   32.4263   48.9141 H   0  0  0  0  0  0  0  0  0  0  0  0
   59.2680   35.6540   49.1920 H   0  0  0  0  0  0  0  0  0  0  0  0
   61.7151   34.6189   49.3690 H   0  0  0  0  0  0  0  0  0  0  0  0
   60.5995   34.5037   50.7815 H   0  0  0  0  0  0  0  0  0  0  0  0
   60.6629   32.2563   50.6628 H   0  0  0  0  0  0  0  0  0  0  0  0
   60.0165   32.3419   48.9672 H   0  0  0  0  0  0  0  0  0  0  0  0
   62.3090   31.2470   49.5660 H   0  0  0  0  0  0  0  0  0  0  0  0
   62.5663   31.0230   47.4041 H   0  0  0  0  0  0  0  0  0  0  0  0
   60.9959   31.9421   47.3479 H   0  0  0  0  0  0  0  0  0  0  0  0
   62.6694   32.8808   45.7858 H   0  0  0  0  0  0  0  0  0  0  0  0
   62.2054   34.0412   47.1027 H   0  0  0  0  0  0  0  0  0  0  0  0
   64.7260   32.6480   46.6200 H   0  0  0  0  0  0  0  0  0  0  0  0
   64.7696   31.8749   48.6848 H   0  0  0  0  0  0  0  0  0  0  0  0
   65.2180   33.6039   49.0032 H   0  0  0  0  0  0  0  0  0  0  0  0
   63.4816   32.8670   50.5742 H   0  0  0  0  0  0  0  0  0  0  0  0
   62.8438   34.1258   49.4406 H   0  0  0  0  0  0  0  0  0  0  0  0
   59.8506   35.5215   46.3810 H   0  0  0  0  0  0  0  0  0  0  0  0
   58.8936   34.3975   44.3777 H   0  0  0  0  0  0  0  0  0  0  0  0
  1  2  1  0
  2  3  1  0
  3  4  1  0
  4  5  2  0
  4  6  1  0
  6  7  2  0
  7  8  1  0
  8  9  2  0
  9 10  1  0
 10 11  1  0
 11 12  1  0
 12 13  1  0
 13 14  1  0
 14 15  1  0
 15 16  1  0
 16 17  1  0
 17 18  1  0
  9 19  1  0
 19 20  2  0
 20  6  1  0
 18 13  1  0
  1 21  1  0
  1 22  1  0
  1 23  1  0
  2 24  1  0
  2 25  1  0
  7 26  1  0
  8 27  1  0
 10 28  1  0
 11 29  1  0
 11 30  1  0
 12 31  1  0
 12 32  1  0
 13 33  1  0
 14 34  1  0
 14 35  1  0
 15 36  1  0
 15 37  1  0
 16 38  1  0
 17 39  1  0
 17 40  1  0
 18 41  1  0
 18 42  1  0
 19 43  1  0
 20 44  1  0
M  CHG  1  13   1
M  END
>  <UniqueID>  (33) 
33

>  <SMILES>  (33) 
CCOC(=O)c1ccc(NCC[NH+]2CCNCC2)cc1

>  <Energy>  (33) 
49.06594366644578

>  <Genealogy>  (33) 
CCOC(=O)c1ccc(NCC[NH+]2CCNCC2)cc1 (protonated)
CCOC(=O)c1ccc(NCC[NH+]2CCNCC2)cc1 (3D coordinates assigned)
CCOC(=O)c1ccc(NCC[NH+]2CCNCC2)cc1 (nonaromatic ring conformer: 49.06594366644578 kcal/mol)

>  <smiles>  (33) 
CCOC(=O)c1ccc(NCCN2CCNCC2)cc1

>  <score_type>  (33) 
oracle

>  <origin>  (33) 
adg

>  <m_score__min__energy>  (33) 
-5.5499999999999998

>  <m_primary>  (33) 
energy

$$$$
33:0
     RDKit          3D

 49 52  0  0  0  0  0  0  0  0999 V2000
   57.8660   34.5890   44.8650 C   0  0  0  0  0  0  0  0  0  0  0  0
   57.2230   33.3600   45.4960 C   0  0  0  0  0  0  0  0  0  0  0  0
   58.2210   32.3000   45.6770 N   0  0  0  0  0  0  0  0  0  0  0  0
   59.3620   32.3290   46.4200 C   0  0  0  0  0  0  0  0  0  0  0  0
   59.8920   33.5530   47.1230 C   0  0  0  0  0  0  0  0  0  0  0  0
   61.1810   33.2810   47.8010 N   0  0  0  0  0  0  0  0  0  0  0  0
   62.3060   33.6810   46.9280 C   0  0  0  0  0  0  0  0  0  0  0  0
   63.6370   33.1830   47.5130 C   0  0  0  0  0  0  0  0  0  0  0  0
   63.6250   33.2710   48.9780 N   0  0  0  0  0  0  0  0  0  0  0  0
   64.5490   32.4900   49.7600 C   0  0  0  0  0  0  0  0  0  0  0  0
   64.0970   31.3870   50.5060 C   0  0  0  0  0  0  0  0  0  0  0  0
   64.9970   30.6230   51.2540 C   0  0  0  0  0  0  0  0  0  0  0  0
   66.3560   30.9460   51.2590 C   0  0  0  0  0  0  0  0  0  0  0  0
   66.8180   32.0330   50.5140 C   0  0  0  0  0  0  0  0  0  0  0  0
   65.9210   32.8010   49.7640 C   0  0  0  0  0  0  0  0  0  0  0  0
   62.6920   34.2060   49.6160 C   0  0  0  0  0  0  0  0  0  0  0  0
   61.2510   33.9610   49.1240 C   0  0  0  0  0  0  0  0  0  0  0  0
   60.0280   31.1450   46.4320 N   0  0  0  0  0  0  0  0  0  0  0  0
   59.2490   30.3490   45.6790 C   0  0  0  0  0  0  0  0  0  0  0  0
   59.4550   29.0070   45.3720 C   0  0  0  0  0  0  0  0  0  0  0  0
   58.4900   28.3620   44.5740 C   0  0  0  0  0  0  0  0  0  0  0  0
   57.3570   29.0670   44.1120 C   0  0  0  0  0  0  0  0  0  0  0  0
   57.1790   30.4250   44.4390 C   0  0  0  0  0  0  0  0  0  0  0  0
   58.1580   31.0340   45.2280 C   0  0  0  0  0  0  0  0  0  0  0  0
   58.2198   35.2652   45.6572 H   0  0  0  0  0  0  0  0  0  0  0  0
   58.7170   34.2781   44.2412 H   0  0  0  0  0  0  0  0  0  0  0  0
   57.1254   35.1108   44.2412 H   0  0  0  0  0  0  0  0  0  0  0  0
   56.8018   33.6329   46.4748 H   0  0  0  0  0  0  0  0  0  0  0  0
   56.4264   32.9922   44.8325 H   0  0  0  0  0  0  0  0  0  0  0  0
   60.0405   34.3529   46.3827 H   0  0  0  0  0  0  0  0  0  0  0  0
   59.1597   33.8535   47.8868 H   0  0  0  0  0  0  0  0  0  0  0  0
   61.2520   32.2470   47.9590 H   0  0  0  0  0  0  0  0  0  0  0  0
   62.1628   33.2446   45.9285 H   0  0  0  0  0  0  0  0  0  0  0  0
   62.3333   34.7785   46.8591 H   0  0  0  0  0  0  0  0  0  0  0  0
   63.7928   32.1355   47.2154 H   0  0  0  0  0  0  0  0  0  0  0  0
   64.4511   33.8144   47.1274 H   0  0  0  0  0  0  0  0  0  0  0  0
   63.0289   31.1240   50.5008 H   0  0  0  0  0  0  0  0  0  0  0  0
   64.6345   29.7656   51.8400 H   0  0  0  0  0  0  0  0  0  0  0  0
   67.0622   30.3441   51.8498 H   0  0  0  0  0  0  0  0  0  0  0  0
   67.8886   32.2857   50.5169 H   0  0  0  0  0  0  0  0  0  0  0  0
   66.2905   33.6528   49.1741 H   0  0  0  0  0  0  0  0  0  0  0  0
   62.7298   34.0658   50.7064 H   0  0  0  0  0  0  0  0  0  0  0  0
   62.9854   35.2328   49.3522 H   0  0  0  0  0  0  0  0  0  0  0  0
   60.7322   33.3349   49.8648 H   0  0  0  0  0  0  0  0  0  0  0  0
   60.7782   34.9471   49.0056 H   0  0  0  0  0  0  0  0  0  0  0  0
   60.3409   28.4687   45.7399 H   0  0  0  0  0  0  0  0  0  0  0  0
   58.6198   27.3023   44.3090 H   0  0  0  0  0  0  0  0  0  0  0  0
   56.6083   28.5517   43.4924 H   0  0  0  0  0  0  0  0  0  0  0  0
   56.3011   30.9860   44.0861 H   0  0  0  0  0  0  0  0  0  0  0  0
  1  2  1  0
  2  3  1  0
  3  4  1  0
  4  5  1  0
  5  6  1  0
  6  7  1  0
  7  8  1  0
  8  9  1  0
  9 10  1  0
 10 11  2  0
 11 12  1  0
 12 13  2  0
 13 14  1  0
 14 15  2  0
  9 16  1  0
 16 17  1  0
  4 18  2  0
 18 19  1  0
 19 20  2  0
 20 21  1  0
 21 22  2  0
 22 23  1  0
 23 24  2  0
 24  3  1  0
 17  6  1  0
 24 19  1  0
 15 10  1  0
  1 25  1  0
  1 26  1  0
  1 27  1  0
  2 28  1  0
  2 29  1  0
  5 30  1  0
  5 31  1  0
  6 32  1  0
  7 33  1  0
  7 34  1  0
  8 35  1  0
  8 36  1  0
 11 37  1  0
 12 38  1  0
 13 39  1  0
 14 40  1  0
 15 41  1  0
 16 42  1  0
 16 43  1  0
 17 44  1  0
 17 45  1  0
 20 46  1  0
 21 47  1  0
 22 48  1  0
 23 49  1  0
M  CHG  1   6   1
M  END
>  <UniqueID>  (34) 
34

>  <SMILES>  (34) 
CCn1c(C[NH+]2CCN(c3ccccc3)CC2)nc2ccccc21

>  <Energy>  (34) 
96.30681640215653

>  <Genealogy>  (34) 
CCn1c(C[NH+]2CCN(c3ccccc3)CC2)nc2ccccc21 (protonated)
CCn1c(C[NH+]2CCN(c3ccccc3)CC2)nc2ccccc21 (3D coordinates assigned)
CCn1c(C[NH+]2CCN(c3ccccc3)CC2)nc2ccccc21 (nonaromatic ring conformer: 96.30681640215653 kcal/mol)

>  <smiles>  (34) 
CCn1c(CN2CCN(c3ccccc3)CC2)nc2ccccc21

>  <score_type>  (34) 
oracle

>  <origin>  (34) 
adg

>  <m_score__min__energy>  (34) 
-5.6900000000000004

>  <m_primary>  (34) 
energy

$$$$
34:0
     RDKit          3D

 55 57  0  0  0  0  0  0  0  0999 V2000
   56.9910   30.8190   43.0410 C   0  0  0  0  0  0  0  0  0  0  0  0
   56.4480   30.8130   44.4680 C   0  0  0  0  0  0  0  0  0  0  0  0
   57.3790   31.5230   45.3710 N   0  0  0  0  0  0  0  0  0  0  0  0
   58.8030   31.2100   45.0970 C   0  0  0  0  0  0  0  0  0  0  0  0
   59.2930   29.8950   45.7200 C   0  0  0  0  0  0  0  0  0  0  0  0
   57.0920   32.9730   45.4850 C   0  0  0  0  0  0  0  0  0  0  0  0
   57.8340   33.5720   46.6820 C   0  0  0  0  0  0  0  0  0  0  0  0
   58.2410   32.5310   47.6230 N   0  0  0  0  0  0  0  0  0  0  0  0
   59.2700   32.7910   48.5920 C   0  0  0  0  0  0  0  0  0  0  0  0
   60.5550   33.1760   48.1730 C   0  0  0  0  0  0  0  0  0  0  0  0
   60.8460   33.3550   46.8020 C   0  0  0  0  0  0  0  0  0  0  0  0
   62.1310   33.6890   46.3860 C   0  0  0  0  0  0  0  0  0  0  0  0
   63.1480   33.8410   47.3210 C   0  0  0  0  0  0  0  0  0  0  0  0
   62.8810   33.6910   48.6810 C   0  0  0  0  0  0  0  0  0  0  0  0
   61.5720   33.3930   49.1410 C   0  0  0  0  0  0  0  0  0  0  0  0
   61.2780   33.2940   50.4890 N   0  0  0  0  0  0  0  0  0  0  0  0
   62.2510   33.7840   51.4930 C   0  0  0  0  0  0  0  0  0  0  0  0
   60.0680   32.7640   50.8980 C   0  0  0  0  0  0  0  0  0  0  0  0
   59.8370   32.3810   52.2430 C   0  0  0  0  0  0  0  0  0  0  0  0
   58.5950   31.8850   52.6660 C   0  0  0  0  0  0  0  0  0  0  0  0
   58.4150   31.4930   54.1100 C   0  0  0  0  0  0  0  0  0  0  0  0
   57.5350   31.7950   51.7410 C   0  0  0  0  0  0  0  0  0  0  0  0
   56.1690   31.2980   52.1380 C   0  0  0  0  0  0  0  0  0  0  0  0
   57.7740   32.0940   50.3970 C   0  0  0  0  0  0  0  0  0  0  0  0
   59.0290   32.5570   49.9580 C   0  0  0  0  0  0  0  0  0  0  0  0
   58.0906   30.8312   43.0672 H   0  0  0  0  0  0  0  0  0  0  0  0
   56.6467   29.9170   42.5139 H   0  0  0  0  0  0  0  0  0  0  0  0
   56.6269   31.7132   42.5139 H   0  0  0  0  0  0  0  0  0  0  0  0
   55.4696   31.3153   44.4867 H   0  0  0  0  0  0  0  0  0  0  0  0
   56.3420   29.7721   44.8076 H   0  0  0  0  0  0  0  0  0  0  0  0
   58.9380   31.1460   44.0072 H   0  0  0  0  0  0  0  0  0  0  0  0
   59.3959   32.0153   45.5551 H   0  0  0  0  0  0  0  0  0  0  0  0
   59.2631   29.9753   46.8167 H   0  0  0  0  0  0  0  0  0  0  0  0
   58.6419   29.0702   45.3948 H   0  0  0  0  0  0  0  0  0  0  0  0
   60.3251   29.6974   45.3948 H   0  0  0  0  0  0  0  0  0  0  0  0
   57.4187   33.4804   44.5653 H   0  0  0  0  0  0  0  0  0  0  0  0
   56.0105   33.1120   45.6300 H   0  0  0  0  0  0  0  0  0  0  0  0
   58.7289   34.1008   46.3220 H   0  0  0  0  0  0  0  0  0  0  0  0
   57.1570   34.2667   47.2008 H   0  0  0  0  0  0  0  0  0  0  0  0
   58.0910   31.5370   47.3470 H   0  0  0  0  0  0  0  0  0  0  0  0
   60.0480   33.2289   46.0555 H   0  0  0  0  0  0  0  0  0  0  0  0
   62.3422   33.8329   45.3161 H   0  0  0  0  0  0  0  0  0  0  0  0
   64.1681   34.0807   46.9864 H   0  0  0  0  0  0  0  0  0  0  0  0
   63.6977   33.8054   49.4089 H   0  0  0  0  0  0  0  0  0  0  0  0
   61.8641   33.5892   52.5041 H   0  0  0  0  0  0  0  0  0  0  0  0
   63.2096   33.2612   51.3602 H   0  0  0  0  0  0  0  0  0  0  0  0
   62.4017   34.8655   51.3602 H   0  0  0  0  0  0  0  0  0  0  0  0
   60.6532   32.4752   52.9744 H   0  0  0  0  0  0  0  0  0  0  0  0
   58.7859   32.3007   54.7582 H   0  0  0  0  0  0  0  0  0  0  0  0
   57.3477   31.3209   54.3129 H   0  0  0  0  0  0  0  0  0  0  0  0
   58.9801   30.5713   54.3129 H   0  0  0  0  0  0  0  0  0  0  0  0
   56.0934   31.2705   53.2351 H   0  0  0  0  0  0  0  0  0  0  0  0
   55.4011   31.9744   51.7344 H   0  0  0  0  0  0  0  0  0  0  0  0
   56.0153   30.2863   51.7344 H   0  0  0  0  0  0  0  0  0  0  0  0
   56.9629   31.9646   49.6653 H   0  0  0  0  0  0  0  0  0  0  0  0
  1  2  1  0
  2  3  1  0
  3  4  1  0
  4  5  1  0
  3  6  1  0
  6  7  1  0
  7  8  1  0
  8  9  1  0
  9 10  2  0
 10 11  1  0
 11 12  2  0
 12 13  1  0
 13 14  2  0
 14 15  1  0
 15 16  2  0
 16 17  1  0
 16 18  1  0
 18 19  2  0
 19 20  1  0
 20 21  1  0
 20 22  2  0
 22 23  1  0
 22 24  1  0
 24 25  2  0
 25  9  1  0
 15 10  1  0
 25 18  1  0
  1 26  1  0
  1 27  1  0
  1 28  1  0
  2 29  1  0
  2 30  1  0
  4 31  1  0
  4 32  1  0
  5 33  1  0
  5 34  1  0
  5 35  1  0
  6 36  1  0
  6 37  1  0
  7 38  1  0
  7 39  1  0
  8 40  1  0
 11 41  1  0
 12 42  1  0
 13 43  1  0
 14 44  1  0
 17 45  1  0
 17 46  1  0
 17 47  1  0
 19 48  1  0
 21 49  1  0
 21 50  1  0
 21 51  1  0
 23 52  1  0
 23 53  1  0
 23 54  1  0
 24 55  1  0
M  CHG  1  16   1
M  END
>  <UniqueID>  (35) 
35

>  <SMILES>  (35) 
CCN(CC)CCNc1c2ccccc2[n+](C)c2cc(C)c(C)cc12

>  <Energy>  (35) 
82.81080452338617

>  <Genealogy>  (35) 
CCN(CC)CCNc1c2ccccc2[n+](C)c2cc(C)c(C)cc12 (3D coordinates assigned)
CCN(CC)CCNc1c2ccccc2[n+](C)c2cc(C)c(C)cc12 (optimized conformer: 82.81080452338617 kcal/mol)

>  <smiles>  (35) 
CCN(CC)CCNc1c2ccccc2[n+](C)c2cc(C)c(C)cc12

>  <score_type>  (35) 
oracle

>  <origin>  (35) 
adg

>  <m_score__min__energy>  (35) 
-5.9500000000000002

>  <m_primary>  (35) 
energy

$$$$
35:0
     RDKit          3D

 54 55  0  0  0  0  0  0  0  0999 V2000
   56.3020   29.7410   42.6530 C   0  0  0  0  0  0  0  0  0  0  0  0
   55.9120   30.0310   44.1100 C   0  0  0  0  0  0  0  0  0  0  0  0
   57.0150   30.5820   44.9360 N   0  0  0  0  0  0  0  0  0  0  0  0
   57.6470   29.5900   45.8370 C   0  0  0  0  0  0  0  0  0  0  0  0
   59.1690   29.5930   45.7030 C   0  0  0  0  0  0  0  0  0  0  0  0
   58.0210   31.3030   44.1220 C   0  0  0  0  0  0  0  0  0  0  0  0
   57.4810   32.6650   43.6870 C   0  0  0  0  0  0  0  0  0  0  0  0
   57.5410   33.5750   44.7800 O   0  0  0  0  0  0  0  0  0  0  0  0
   58.7470   34.0100   45.3400 C   0  0  0  0  0  0  0  0  0  0  0  0
   59.6110   34.5790   44.6160 O   0  0  0  0  0  0  0  0  0  0  0  0
   59.0080   33.7930   46.7790 C   0  0  0  0  0  0  0  0  0  0  0  0
   59.6660   34.7770   47.5360 C   0  0  0  0  0  0  0  0  0  0  0  0
   59.9070   34.5810   48.8980 C   0  0  0  0  0  0  0  0  0  0  0  0
   59.4940   33.3980   49.5330 C   0  0  0  0  0  0  0  0  0  0  0  0
   59.7560   33.1940   50.9390 N   0  0  0  0  0  0  0  0  0  0  0  0
   61.1690   33.4460   51.2710 C   0  0  0  0  0  0  0  0  0  0  0  0
   62.0850   32.2910   50.8300 C   0  0  0  0  0  0  0  0  0  0  0  0
   62.5850   32.5200   49.4290 C   0  0  0  0  0  0  0  0  0  0  0  0
   63.2450   33.7150   49.0960 C   0  0  0  0  0  0  0  0  0  0  0  0
   63.6840   33.9350   47.7870 C   0  0  0  0  0  0  0  0  0  0  0  0
   63.4580   32.9710   46.7990 C   0  0  0  0  0  0  0  0  0  0  0  0
   62.7890   31.7870   47.1190 C   0  0  0  0  0  0  0  0  0  0  0  0
   62.3490   31.5610   48.4280 C   0  0  0  0  0  0  0  0  0  0  0  0
   58.8410   32.4120   48.7770 C   0  0  0  0  0  0  0  0  0  0  0  0
   58.5980   32.6070   47.4140 C   0  0  0  0  0  0  0  0  0  0  0  0
   57.1846   29.0847   42.6333 H   0  0  0  0  0  0  0  0  0  0  0  0
   55.4644   29.2446   42.1411 H   0  0  0  0  0  0  0  0  0  0  0  0
   56.5363   30.6860   42.1411 H   0  0  0  0  0  0  0  0  0  0  0  0
   55.0861   30.7575   44.1081 H   0  0  0  0  0  0  0  0  0  0  0  0
   55.6305   29.0676   44.5600 H   0  0  0  0  0  0  0  0  0  0  0  0
   57.3803   29.8319   46.8764 H   0  0  0  0  0  0  0  0  0  0  0  0
   57.2804   28.5912   45.5579 H   0  0  0  0  0  0  0  0  0  0  0  0
   59.6252   29.5939   46.7039 H   0  0  0  0  0  0  0  0  0  0  0  0
   59.4905   28.6955   45.1543 H   0  0  0  0  0  0  0  0  0  0  0  0
   59.4870   30.4918   45.1543 H   0  0  0  0  0  0  0  0  0  0  0  0
   58.9329   31.4492   44.7196 H   0  0  0  0  0  0  0  0  0  0  0  0
   58.2467   30.7069   43.2255 H   0  0  0  0  0  0  0  0  0  0  0  0
   58.0891   33.0511   42.8557 H   0  0  0  0  0  0  0  0  0  0  0  0
   56.4364   32.5558   43.3602 H   0  0  0  0  0  0  0  0  0  0  0  0
   59.9939   35.7090   47.0524 H   0  0  0  0  0  0  0  0  0  0  0  0
   60.4244   35.3594   49.4780 H   0  0  0  0  0  0  0  0  0  0  0  0
   59.1600   33.8550   51.4910 H   0  0  0  0  0  0  0  0  0  0  0  0
   59.4870   32.2240   51.2300 H   0  0  0  0  0  0  0  0  0  0  0  0
   61.4927   34.3677   50.7653 H   0  0  0  0  0  0  0  0  0  0  0  0
   61.2472   33.5403   52.3642 H   0  0  0  0  0  0  0  0  0  0  0  0
   62.9434   32.2281   51.5149 H   0  0  0  0  0  0  0  0  0  0  0  0
   61.5111   31.3529   50.8539 H   0  0  0  0  0  0  0  0  0  0  0  0
   63.4168   34.4798   49.8677 H   0  0  0  0  0  0  0  0  0  0  0  0
   64.2083   34.8682   47.5335 H   0  0  0  0  0  0  0  0  0  0  0  0
   63.8069   33.1451   45.7704 H   0  0  0  0  0  0  0  0  0  0  0  0
   62.6078   31.0311   46.3406 H   0  0  0  0  0  0  0  0  0  0  0  0
   61.8169   30.6304   48.6747 H   0  0  0  0  0  0  0  0  0  0  0  0
   58.5179   31.4784   49.2607 H   0  0  0  0  0  0  0  0  0  0  0  0
   58.0825   31.8272   46.8342 H   0  0  0  0  0  0  0  0  0  0  0  0
  1  2  1  0
  2  3  1  0
  3  4  1  0
  4  5  1  0
  3  6  1  0
  6  7  1  0
  7  8  1  0
  8  9  1  0
  9 10  2  0
  9 11  1  0
 11 12  2  0
 12 13  1  0
 13 14  2  0
 14 15  1  0
 15 16  1  0
 16 17  1  0
 17 18  1  0
 18 19  2  0
 19 20  1  0
 20 21  2  0
 21 22  1  0
 22 23  2  0
 14 24  1  0
 24 25  2  0
 25 11  1  0
 23 18  1  0
  1 26  1  0
  1 27  1  0
  1 28  1  0
  2 29  1  0
  2 30  1  0
  4 31  1  0
  4 32  1  0
  5 33  1  0
  5 34  1  0
  5 35  1  0
  6 36  1  0
  6 37  1  0
  7 38  1  0
  7 39  1  0
 12 40  1  0
 13 41  1  0
 15 42  1  0
 15 43  1  0
 16 44  1  0
 16 45  1  0
 17 46  1  0
 17 47  1  0
 19 48  1  0
 20 49  1  0
 21 50  1  0
 22 51  1  0
 23 52  1  0
 24 53  1  0
 25 54  1  0
M  CHG  1  15   1
M  END
>  <UniqueID>  (36) 
36

>  <SMILES>  (36) 
CCN(CC)CCOC(=O)c1ccc([NH2+]CCc2ccccc2)cc1

>  <Energy>  (36) 
50.41662045467725

>  <Genealogy>  (36) 
CCN(CC)CCOC(=O)c1ccc([NH2+]CCc2ccccc2)cc1 (protonated)
CCN(CC)CCOC(=O)c1ccc([NH2+]CCc2ccccc2)cc1 (3D coordinates assigned)
CCN(CC)CCOC(=O)c1ccc([NH2+]CCc2ccccc2)cc1 (optimized conformer: 50.41662045467725 kcal/mol)

>  <smiles>  (36) 
CCN(CC)CCOC(=O)c1ccc(NCCc2ccccc2)cc1

>  <score_type>  (36) 
oracle

>  <origin>  (36) 
adg

>  <m_score__min__energy>  (36) 
-5.5499999999999998

>  <m_primary>  (36) 
energy

$$$$
36:0
     RDKit          3D

 57 61  0  0  0  0  0  0  0  0999 V2000
   62.8839   31.7235   46.0900 H   0  0  0  0  0  0  0  0  0  0  0  0
   62.4990   31.6280   47.1160 C   0  0  0  0  0  0  0  0  0  0  0  0
   63.1450   32.2390   48.1440 N   0  0  0  0  0  0  0  0  0  0  0  0
   62.7230   32.1420   49.4380 C   0  0  0  0  0  0  0  0  0  0  0  0
   63.4490   32.8340   50.4860 N   0  0  0  0  0  0  0  0  0  0  0  0
   64.8690   32.5290   50.7240 C   0  0  0  0  0  0  0  0  0  0  0  0
   64.9448   31.7910   51.5362 H   0  0  0  0  0  0  0  0  0  0  0  0
   65.2974   32.1313   49.7922 H   0  0  0  0  0  0  0  0  0  0  0  0
   65.6610   33.7940   51.1200 C   0  0  0  0  0  0  0  0  0  0  0  0
   66.5319   33.4808   51.7145 H   0  0  0  0  0  0  0  0  0  0  0  0
   65.9361   34.2952   50.1802 H   0  0  0  0  0  0  0  0  0  0  0  0
   64.8950   34.7800   51.9100 N   0  0  0  0  0  0  0  0  0  0  0  0
   64.6040   35.5660   51.2820 H   0  0  0  0  0  0  0  0  0  0  0  0
   63.6910   34.2160   52.5290 C   0  0  0  0  0  0  0  0  0  0  0  0
   63.9787   33.3910   53.1973 H   0  0  0  0  0  0  0  0  0  0  0  0
   63.1801   35.0037   53.1022 H   0  0  0  0  0  0  0  0  0  0  0  0
   62.7400   33.6860   51.4520 C   0  0  0  0  0  0  0  0  0  0  0  0
   61.9455   33.0971   51.9337 H   0  0  0  0  0  0  0  0  0  0  0  0
   62.3146   34.5443   50.9114 H   0  0  0  0  0  0  0  0  0  0  0  0
   61.5810   31.3640   49.7190 C   0  0  0  0  0  0  0  0  0  0  0  0
   61.2247   31.2598   50.7545 H   0  0  0  0  0  0  0  0  0  0  0  0
   60.9050   30.7270   48.6780 C   0  0  0  0  0  0  0  0  0  0  0  0
   60.0240   30.1049   48.8945 H   0  0  0  0  0  0  0  0  0  0  0  0
   61.3450   30.8780   47.3630 C   0  0  0  0  0  0  0  0  0  0  0  0
   60.6690   30.2040   46.2960 N   0  0  0  0  0  0  0  0  0  0  0  0
   59.4230   30.3250   45.9190 C   0  0  0  0  0  0  0  0  0  0  0  0
   58.7560   31.5640   45.6560 C   0  0  0  0  0  0  0  0  0  0  0  0
   59.3620   32.8600   45.8560 C   0  0  0  0  0  0  0  0  0  0  0  0
   59.8440   33.8980   46.0250 N   0  0  0  0  0  0  0  0  0  0  0  0
   57.4040   31.5460   45.2450 C   0  0  0  0  0  0  0  0  0  0  0  0
   56.8910   32.4946   45.0283 H   0  0  0  0  0  0  0  0  0  0  0  0
   56.7260   30.3710   45.1130 N   0  0  0  0  0  0  0  0  0  0  0  0
   57.3410   29.1940   45.3790 C   0  0  0  0  0  0  0  0  0  0  0  0
   56.7340   27.9400   45.2820 C   0  0  0  0  0  0  0  0  0  0  0  0
   55.6872   27.7896   44.9792 H   0  0  0  0  0  0  0  0  0  0  0  0
   57.6060   26.8950   45.6130 C   0  0  0  0  0  0  0  0  0  0  0  0
   57.2790   25.4480   45.6190 C   0  0  0  0  0  0  0  0  0  0  0  0
   56.7740   24.8210   44.4660 C   0  0  0  0  0  0  0  0  0  0  0  0
   56.6220   25.4085   43.5485 H   0  0  0  0  0  0  0  0  0  0  0  0
   56.4610   23.4480   44.4750 C   0  0  0  0  0  0  0  0  0  0  0  0
   55.9480   22.7860   43.3490 O   0  0  0  0  0  0  0  0  0  0  0  0
   56.6460   21.7830   42.6170 C   0  0  0  0  0  0  0  0  0  0  0  0
   57.1301   21.0874   43.3183 H   0  0  0  0  0  0  0  0  0  0  0  0
   55.9363   21.2305   41.9837 H   0  0  0  0  0  0  0  0  0  0  0  0
   57.4107   22.2566   41.9837 H   0  0  0  0  0  0  0  0  0  0  0  0
   56.6590   22.7090   45.6440 C   0  0  0  0  0  0  0  0  0  0  0  0
   56.4209   21.6351   45.6525 H   0  0  0  0  0  0  0  0  0  0  0  0
   57.1550   23.3130   46.8030 C   0  0  0  0  0  0  0  0  0  0  0  0
   57.3300   22.5150   47.9430 O   0  0  0  0  0  0  0  0  0  0  0  0
   56.2890   22.1660   48.8500 C   0  0  0  0  0  0  0  0  0  0  0  0
   56.6472   22.2861   49.8831 H   0  0  0  0  0  0  0  0  0  0  0  0
   55.4224   22.8227   48.6837 H   0  0  0  0  0  0  0  0  0  0  0  0
   55.9933   21.1196   48.6837 H   0  0  0  0  0  0  0  0  0  0  0  0
   57.4600   24.6860   46.7870 C   0  0  0  0  0  0  0  0  0  0  0  0
   57.8441   25.1688   47.6977 H   0  0  0  0  0  0  0  0  0  0  0  0
   59.1160   27.5590   46.0130 S   0  0  0  0  0  0  0  0  0  0  0  0
   58.6640   29.1610   45.7770 C   0  0  0  0  0  0  0  0  0  0  0  0
  1  2  1  0
  2  3  2  0
  3  4  1  0
  4  5  1  0
  5  6  1  0
  6  7  1  0
  6  8  1  0
  6  9  1  0
  9 10  1  0
  9 11  1  0
  9 12  1  0
 12 13  1  0
 12 14  1  0
 14 15  1  0
 14 16  1  0
 14 17  1  0
 17 18  1  0
 17 19  1  0
  4 20  2  0
 20 21  1  0
 20 22  1  0
 22 23  1  0
 22 24  2  0
 24 25  1  0
 25 26  2  0
 26 27  1  0
 27 28  1  0
 28 29  3  0
 27 30  2  0
 30 31  1  0
 30 32  1  0
 32 33  1  0
 33 34  1  0
 34 35  1  0
 34 36  2  0
 36 37  1  0
 37 38  2  0
 38 39  1  0
 38 40  1  0
 40 41  1  0
 41 42  1  0
 42 43  1  0
 42 44  1  0
 42 45  1  0
 40 46  2  0
 46 47  1  0
 46 48  1  0
 48 49  1  0
 49 50  1  0
 50 51  1  0
 50 52  1  0
 50 53  1  0
 48 54  2  0
 54 55  1  0
 36 56  1  0
 56 57  1  0
 24  2  1  0
 57 26  1  0
 17  5  1  0
 57 33  2  0
 54 37  1  0
M  CHG  1  32  -1
M  END
>  <UniqueID>  (37) 
37

>  <SMILES>  (37) 
COc1cc(OC)cc(-c2cc3[n-]cc(C#N)/c(=N\c4ccc(N5CCNCC5)nc4)c3s2)c1

>  <Energy>  (37) 
117.76818931841657

>  <Genealogy>  (37) 
COc1cc(OC)cc(-c2cc3[n-]cc(C#N)c(=Nc4ccc(N5CCNCC5)nc4)c3s2)c1 (protonated)
COc1cc(OC)cc(-c2cc3[n-]cc(C#N)/c(=N\c4ccc(N5CCNCC5)nc4)c3s2)c1 (cis-trans isomerization)
COc1cc(OC)cc(-c2cc3[n-]cc(C#N)/c(=N\c4ccc(N5CCNCC5)nc4)c3s2)c1 (3D coordinates assigned)
COc1cc(OC)cc(-c2cc3[n-]cc(C#N)/c(=N\c4ccc(N5CCNCC5)nc4)c3s2)c1 (nonaromatic ring conformer: 117.76818931841657 kcal/mol)

>  <smiles>  (37) 
COc1cc(OC)cc(-c2cc3[nH]cc(C#N)c(=Nc4ccc(N5CCNCC5)nc4)c3s2)c1

>  <score_type>  (37) 
oracle

>  <origin>  (37) 
adg

>  <m_score__min__energy>  (37) 
-8.8699999999999992

>  <m_primary>  (37) 
energy

$$$$
37:0
     RDKit          3D

 69 71  0  0  0  0  0  0  0  0999 V2000
   58.5420   30.8510   44.4860 C   0  0  0  0  0  0  0  0  0  0  0  0
   57.0360   31.0860   44.5810 C   0  0  0  0  0  0  0  0  0  0  0  0
   56.3080   29.8080   44.7390 N   0  0  0  0  0  0  0  0  0  0  0  0
   55.2330   29.7100   43.7360 C   0  0  0  0  0  0  0  0  0  0  0  0
   57.2030   28.6260   44.6790 C   0  0  0  0  0  0  0  0  0  0  0  0
   56.6810   27.5140   45.6060 C   0  0  0  0  0  0  0  0  0  0  0  0
   57.6010   27.2130   46.8080 C   0  0  0  0  0  0  0  0  0  0  0  0
   59.0640   26.9020   46.4160 C   0  0  0  0  0  0  0  0  0  0  0  0
   60.0400   27.8700   46.9870 N   0  0  1  0  0  0  0  0  0  0  0  0
   59.3860   29.1870   47.2750 C   0  0  0  0  0  0  0  0  0  0  0  0
   59.7870   29.8640   48.6140 C   0  0  0  0  0  0  0  0  0  0  0  0
   59.5870   28.8140   49.7260 C   0  0  0  0  0  0  0  0  0  0  0  0
   60.5150   27.6190   49.5480 C   0  0  0  0  0  0  0  0  0  0  0  0
   60.7200   27.2340   48.1080 C   0  0  0  0  0  0  0  0  0  0  0  0
   61.5260   26.3410   47.8790 O   0  0  0  0  0  0  0  0  0  0  0  0
   58.8230   31.0650   48.8720 C   0  0  0  0  0  0  0  0  0  0  0  0
   59.4830   32.1400   49.7470 C   0  0  0  0  0  0  0  0  0  0  0  0
   60.6740   32.7500   49.0940 N   0  0  0  0  0  0  0  0  0  0  0  0
   60.3540   34.0550   48.4680 C   0  0  0  0  0  0  0  0  0  0  0  0
   59.6460   33.8770   47.0920 C   0  0  0  0  0  0  0  0  0  0  0  0
   59.9810   35.0390   46.1320 C   0  0  0  0  0  0  0  0  0  0  0  0
   59.1510   34.9690   44.8320 C   0  0  0  0  0  0  0  0  0  0  0  0
   58.2940   33.8430   44.7990 O   0  0  0  0  0  0  0  0  0  0  0  0
   57.3880   33.9060   45.8840 C   0  0  0  0  0  0  0  0  0  0  0  0
   58.1120   33.7550   47.2390 C   0  0  0  0  0  0  0  0  0  0  0  0
   61.3640   31.8410   48.1430 C   0  0  0  0  0  0  0  0  0  0  0  0
   61.2680   30.3710   48.5760 C   0  0  0  0  0  0  0  0  0  0  0  0
   58.9673   30.7846   45.4983 H   0  0  0  0  0  0  0  0  0  0  0  0
   58.7332   29.9121   43.9456 H   0  0  0  0  0  0  0  0  0  0  0  0
   59.0102   31.6870   43.9456 H   0  0  0  0  0  0  0  0  0  0  0  0
   56.8264   31.7288   45.4487 H   0  0  0  0  0  0  0  0  0  0  0  0
   56.6978   31.5690   43.6524 H   0  0  0  0  0  0  0  0  0  0  0  0
   54.2625   29.6215   44.2462 H   0  0  0  0  0  0  0  0  0  0  0  0
   55.2355   30.6121   43.1065 H   0  0  0  0  0  0  0  0  0  0  0  0
   55.3985   28.8232   43.1065 H   0  0  0  0  0  0  0  0  0  0  0  0
   57.2391   28.2501   43.6458 H   0  0  0  0  0  0  0  0  0  0  0  0
   58.2102   28.9224   45.0073 H   0  0  0  0  0  0  0  0  0  0  0  0
   55.6971   27.8192   45.9918 H   0  0  0  0  0  0  0  0  0  0  0  0
   56.6343   26.5946   45.0039 H   0  0  0  0  0  0  0  0  0  0  0  0
   57.5996   28.0893   47.4730 H   0  0  0  0  0  0  0  0  0  0  0  0
   57.2031   26.3111   47.2961 H   0  0  0  0  0  0  0  0  0  0  0  0
   59.3170   25.8948   46.7786 H   0  0  0  0  0  0  0  0  0  0  0  0
   59.1325   26.9748   45.3206 H   0  0  0  0  0  0  0  0  0  0  0  0
   60.7810   28.0490   46.2670 H   0  0  0  0  0  0  0  0  0  0  0  0
   59.6433   29.8771   46.4579 H   0  0  0  0  0  0  0  0  0  0  0  0
   58.3102   28.9735   47.3594 H   0  0  0  0  0  0  0  0  0  0  0  0
   59.7926   29.2827   50.6997 H   0  0  0  0  0  0  0  0  0  0  0  0
   58.5494   28.4526   49.6729 H   0  0  0  0  0  0  0  0  0  0  0  0
   61.4930   27.8682   49.9854 H   0  0  0  0  0  0  0  0  0  0  0  0
   60.0426   26.7620   50.0503 H   0  0  0  0  0  0  0  0  0  0  0  0
   58.5433   31.5123   47.9067 H   0  0  0  0  0  0  0  0  0  0  0  0
   57.9357   30.6871   49.4010 H   0  0  0  0  0  0  0  0  0  0  0  0
   58.7468   32.9318   49.9496 H   0  0  0  0  0  0  0  0  0  0  0  0
   59.8202   31.6564   50.6757 H   0  0  0  0  0  0  0  0  0  0  0  0
   59.6904   34.6192   49.1398 H   0  0  0  0  0  0  0  0  0  0  0  0
   61.2976   34.5949   48.3003 H   0  0  0  0  0  0  0  0  0  0  0  0
   60.0286   32.9375   46.6666 H   0  0  0  0  0  0  0  0  0  0  0  0
   59.7682   35.9918   46.6389 H   0  0  0  0  0  0  0  0  0  0  0  0
   61.0446   34.9624   45.8620 H   0  0  0  0  0  0  0  0  0  0  0  0
   58.5401   35.8804   44.7534 H   0  0  0  0  0  0  0  0  0  0  0  0
   59.8533   34.8808   43.9900 H   0  0  0  0  0  0  0  0  0  0  0  0
   56.8714   34.8769   45.8616 H   0  0  0  0  0  0  0  0  0  0  0  0
   56.6719   33.0772   45.7825 H   0  0  0  0  0  0  0  0  0  0  0  0
   57.7568   34.5415   47.9211 H   0  0  0  0  0  0  0  0  0  0  0  0
   57.8869   32.7538   47.6351 H   0  0  0  0  0  0  0  0  0  0  0  0
   60.9023   31.9493   47.1505 H   0  0  0  0  0  0  0  0  0  0  0  0
   62.4281   32.1187   48.1206 H   0  0  0  0  0  0  0  0  0  0  0  0
   61.8361   29.7538   47.8645 H   0  0  0  0  0  0  0  0  0  0  0  0
   61.6802   30.2896   49.5926 H   0  0  0  0  0  0  0  0  0  0  0  0
  1  2  1  0
  2  3  1  0
  3  4  1  0
  3  5  1  0
  5  6  1  0
  6  7  1  0
  7  8  1  0
  8  9  1  0
  9 10  1  0
 10 11  1  0
 11 12  1  0
 12 13  1  0
 13 14  1  0
 14 15  2  0
 11 16  1  0
 16 17  1  0
 17 18  1  0
 18 19  1  0
 19 20  1  0
 20 21  1  0
 21 22  1  0
 22 23  1  0
 23 24  1  0
 24 25  1  0
 18 26  1  0
 26 27  1  0
 14  9  1  0
 25 20  1  0
 27 11  1  0
  1 28  1  0
  1 29  1  0
  1 30  1  0
  2 31  1  0
  2 32  1  0
  4 33  1  0
  4 34  1  0
  4 35  1  0
  5 36  1  0
  5 37  1  0
  6 38  1  0
  6 39  1  0
  7 40  1  0
  7 41  1  0
  8 42  1  0
  8 43  1  0
  9 44  1  6
 10 45  1  0
 10 46  1  0
 12 47  1  0
 12 48  1  0
 13 49  1  0
 13 50  1  0
 16 51  1  0
 16 52  1  0
 17 53  1  0
 17 54  1  0
 19 55  1  0
 19 56  1  0
 20 57  1  0
 21 58  1  0
 21 59  1  0
 22 60  1  0
 22 61  1  0
 24 62  1  0
 24 63  1  0
 25 64  1  0
 25 65  1  0
 26 66  1  0
 26 67  1  0
 27 68  1  0
 27 69  1  0
M  CHG  1   9   1
M  END
>  <UniqueID>  (38) 
38

>  <SMILES>  (38) 
CCN(C)CCCC[N@H+]1CC2(CCC1=O)CCN(CC1CCOCC1)CC2

>  <Energy>  (38) 
96.19034321925947

>  <Genealogy>  (38) 
CCN(C)CCCC[NH+]1CC2(CCC1=O)CCN(CC1CCOCC1)CC2 (protonated)
CCN(C)CCCC[N@H+]1CC2(CCC1=O)CCN(CC1CCOCC1)CC2 (chirality)
CCN(C)CCCC[N@H+]1CC2(CCC1=O)CCN(CC1CCOCC1)CC2 (3D coordinates assigned)
CCN(C)CCCC[N@H+]1CC2(CCC1=O)CCN(CC1CCOCC1)CC2 (nonaromatic ring conformer: 96.19034321925947 kcal/mol)

>  <smiles>  (38) 
CCN(C)CCCCN1CC2(CCC1=O)CCN(CC1CCOCC1)CC2

>  <score_type>  (38) 
oracle

>  <origin>  (38) 
adg

>  <m_score__min__energy>  (38) 
-6.6500000000000004

>  <m_primary>  (38) 
energy

$$$$
38:0
     RDKit          3D

 49 52  0  0  0  0  0  0  0  0999 V2000
   63.7410   33.0880   47.1380 C   0  0  0  0  0  0  0  0  0  0  0  0
   63.4460   31.9960   48.1640 C   0  0  0  0  0  0  0  0  0  0  0  0
   62.0660   32.1280   48.6850 N   0  0  0  0  0  0  0  0  0  0  0  0
   61.9540   33.3320   49.5340 C   0  0  0  0  0  0  0  0  0  0  0  0
   61.6770   30.9160   49.4430 C   0  0  0  0  0  0  0  0  0  0  0  0
   60.8140   29.9720   48.5920 C   0  0  0  0  0  0  0  0  0  0  0  0
   60.9680   30.2660   47.1700 N   0  0  0  0  0  0  0  0  0  0  0  0
   59.8660   30.0940   46.2740 C   0  0  0  0  0  0  0  0  0  0  0  0
   59.3830   28.8120   45.9250 C   0  0  0  0  0  0  0  0  0  0  0  0
   59.9980   27.6500   46.4280 C   0  0  0  0  0  0  0  0  0  0  0  0
   59.5160   26.3870   46.0850 C   0  0  0  0  0  0  0  0  0  0  0  0
   58.4200   26.2610   45.2360 C   0  0  0  0  0  0  0  0  0  0  0  0
   57.7950   27.3950   44.7170 C   0  0  0  0  0  0  0  0  0  0  0  0
   58.2560   28.6920   45.0410 C   0  0  0  0  0  0  0  0  0  0  0  0
   57.6480   29.8260   44.5260 N   0  0  0  0  0  0  0  0  0  0  0  0
   56.4900   29.7480   43.6200 C   0  0  0  0  0  0  0  0  0  0  0  0
   58.1490   31.0470   44.8740 C   0  0  0  0  0  0  0  0  0  0  0  0
   57.6920   32.2200   44.4720 O   0  0  0  0  0  0  0  0  0  0  0  0
   58.4510   33.1340   45.0370 C   0  0  0  0  0  0  0  0  0  0  0  0
   58.3460   34.5170   44.9060 C   0  0  0  0  0  0  0  0  0  0  0  0
   59.2690   35.3180   45.6020 C   0  0  0  0  0  0  0  0  0  0  0  0
   60.2680   34.7260   46.4070 C   0  0  0  0  0  0  0  0  0  0  0  0
   60.3560   33.3270   46.5250 C   0  0  0  0  0  0  0  0  0  0  0  0
   59.4250   32.5560   45.8250 C   0  0  0  0  0  0  0  0  0  0  0  0
   59.2260   31.1940   45.7160 C   0  0  0  0  0  0  0  0  0  0  0  0
   63.9935   34.0228   47.6598 H   0  0  0  0  0  0  0  0  0  0  0  0
   64.5880   32.7796   46.5076 H   0  0  0  0  0  0  0  0  0  0  0  0
   62.8539   33.2481   46.5076 H   0  0  0  0  0  0  0  0  0  0  0  0
   63.5593   31.0115   47.6866 H   0  0  0  0  0  0  0  0  0  0  0  0
   64.1520   32.0969   49.0015 H   0  0  0  0  0  0  0  0  0  0  0  0
   61.9814   33.0374   50.5935 H   0  0  0  0  0  0  0  0  0  0  0  0
   62.7929   34.0107   49.3203 H   0  0  0  0  0  0  0  0  0  0  0  0
   61.0043   33.8443   49.3203 H   0  0  0  0  0  0  0  0  0  0  0  0
   62.5869   30.3832   49.7564 H   0  0  0  0  0  0  0  0  0  0  0  0
   61.0864   31.2301   50.3162 H   0  0  0  0  0  0  0  0  0  0  0  0
   61.1229   28.9333   48.7806 H   0  0  0  0  0  0  0  0  0  0  0  0
   59.7589   30.1150   48.8684 H   0  0  0  0  0  0  0  0  0  0  0  0
   61.8590   30.6620   46.7920 H   0  0  0  0  0  0  0  0  0  0  0  0
   60.8663   27.7389   47.0974 H   0  0  0  0  0  0  0  0  0  0  0  0
   60.0039   25.4868   46.4870 H   0  0  0  0  0  0  0  0  0  0  0  0
   58.0445   25.2611   44.9728 H   0  0  0  0  0  0  0  0  0  0  0  0
   56.9311   27.2786   44.0461 H   0  0  0  0  0  0  0  0  0  0  0  0
   55.5649   29.6857   44.2119 H   0  0  0  0  0  0  0  0  0  0  0  0
   56.4596   30.6461   42.9856 H   0  0  0  0  0  0  0  0  0  0  0  0
   56.5803   28.8539   42.9856 H   0  0  0  0  0  0  0  0  0  0  0  0
   57.5647   34.9689   44.2772 H   0  0  0  0  0  0  0  0  0  0  0  0
   59.2128   36.4134   45.5191 H   0  0  0  0  0  0  0  0  0  0  0  0
   60.9832   35.3647   46.9461 H   0  0  0  0  0  0  0  0  0  0  0  0
   61.1314   32.8563   47.1472 H   0  0  0  0  0  0  0  0  0  0  0  0
  1  2  1  0
  2  3  1  0
  3  4  1  0
  3  5  1  0
  5  6  1  0
  6  7  1  0
  7  8  1  0
  8  9  2  0
  9 10  1  0
 10 11  2  0
 11 12  1  0
 12 13  2  0
 13 14  1  0
 14 15  2  0
 15 16  1  0
 15 17  1  0
 17 18  1  0
 18 19  1  0
 19 20  2  0
 20 21  1  0
 21 22  2  0
 22 23  1  0
 23 24  2  0
 24 25  1  0
 25  8  1  0
 14  9  1  0
 25 17  2  0
 24 19  1  0
  1 26  1  0
  1 27  1  0
  1 28  1  0
  2 29  1  0
  2 30  1  0
  4 31  1  0
  4 32  1  0
  4 33  1  0
  5 34  1  0
  5 35  1  0
  6 36  1  0
  6 37  1  0
  7 38  1  0
 10 39  1  0
 11 40  1  0
 12 41  1  0
 13 42  1  0
 16 43  1  0
 16 44  1  0
 16 45  1  0
 20 46  1  0
 21 47  1  0
 22 48  1  0
 23 49  1  0
M  CHG  1  15   1
M  END
>  <UniqueID>  (39) 
39

>  <SMILES>  (39) 
CCN(C)CCNc1c2ccccc2[n+](C)c2oc3ccccc3c12

>  <Energy>  (39) 
107.09063991485912

>  <Genealogy>  (39) 
CCN(C)CCNc1c2ccccc2[n+](C)c2oc3ccccc3c12 (3D coordinates assigned)
CCN(C)CCNc1c2ccccc2[n+](C)c2oc3ccccc3c12 (optimized conformer: 107.09063991485912 kcal/mol)

>  <smiles>  (39) 
CCN(C)CCNc1c2ccccc2[n+](C)c2oc3ccccc3c12

>  <score_type>  (39) 
oracle

>  <origin>  (39) 
adg

>  <m_score__min__energy>  (39) 
-5.71

>  <m_primary>  (39) 
energy

$$$$
39:0
     RDKit          3D

 52 55  0  0  0  0  0  0  0  0999 V2000
   65.2000   32.4280   49.9670 C   0  0  0  0  0  0  0  0  0  0  0  0
   64.4200   33.1070   48.8390 C   0  0  0  0  0  0  0  0  0  0  0  0
   63.1180   32.4700   48.5260 N   0  0  0  0  0  0  0  0  0  0  0  0
   62.6050   32.7410   47.1600 C   0  0  0  0  0  0  0  0  0  0  0  0
   63.3670   33.8360   46.3950 C   0  0  0  0  0  0  0  0  0  0  0  0
   62.1100   32.5080   49.6100 C   0  0  0  0  0  0  0  0  0  0  0  0
   61.0860   31.3660   49.4910 C   0  0  0  0  0  0  0  0  0  0  0  0
   59.7750   31.8490   49.0500 N   0  0  0  0  0  0  0  0  0  0  0  0
   59.3220   31.7630   47.6880 C   0  0  0  0  0  0  0  0  0  0  0  0
   59.2640   32.9060   46.8670 C   0  0  0  0  0  0  0  0  0  0  0  0
   59.6680   34.1670   47.3540 C   0  0  0  0  0  0  0  0  0  0  0  0
   59.6630   35.2830   46.5230 C   0  0  0  0  0  0  0  0  0  0  0  0
   59.2700   35.1650   45.1950 C   0  0  0  0  0  0  0  0  0  0  0  0
   58.8590   33.9320   44.6890 C   0  0  0  0  0  0  0  0  0  0  0  0
   58.8240   32.7800   45.5120 C   0  0  0  0  0  0  0  0  0  0  0  0
   58.3930   31.5560   45.0250 N   0  0  0  0  0  0  0  0  0  0  0  0
   57.5790   31.5010   43.7970 C   0  0  0  0  0  0  0  0  0  0  0  0
   58.6120   30.4220   45.7810 C   0  0  0  0  0  0  0  0  0  0  0  0
   58.9960   30.5370   47.1170 C   0  0  0  0  0  0  0  0  0  0  0  0
   58.9890   29.0260   47.8680 S   0  0  0  0  0  0  0  0  0  0  0  0
   58.5890   28.1850   46.4750 C   0  0  0  0  0  0  0  0  0  0  0  0
   58.4830   26.8020   46.3420 C   0  0  0  0  0  0  0  0  0  0  0  0
   58.2560   26.2710   45.0680 C   0  0  0  0  0  0  0  0  0  0  0  0
   58.1770   27.1210   43.9540 C   0  0  0  0  0  0  0  0  0  0  0  0
   58.2920   28.5120   44.1060 C   0  0  0  0  0  0  0  0  0  0  0  0
   58.4490   29.0590   45.3960 C   0  0  0  0  0  0  0  0  0  0  0  0
   64.8103   32.7672   50.9381 H   0  0  0  0  0  0  0  0  0  0  0  0
   65.0855   31.3369   49.8869 H   0  0  0  0  0  0  0  0  0  0  0  0
   66.2649   32.6918   49.8869 H   0  0  0  0  0  0  0  0  0  0  0  0
   64.2313   34.1507   49.1308 H   0  0  0  0  0  0  0  0  0  0  0  0
   65.0380   33.0205   47.9332 H   0  0  0  0  0  0  0  0  0  0  0  0
   62.6682   31.8092   46.5788 H   0  0  0  0  0  0  0  0  0  0  0  0
   61.5742   33.1053   47.2809 H   0  0  0  0  0  0  0  0  0  0  0  0
   63.8434   34.5205   47.1123 H   0  0  0  0  0  0  0  0  0  0  0  0
   64.1386   33.3723   45.7628 H   0  0  0  0  0  0  0  0  0  0  0  0
   62.6641   34.3984   45.7628 H   0  0  0  0  0  0  0  0  0  0  0  0
   62.6265   32.4214   50.5773 H   0  0  0  0  0  0  0  0  0  0  0  0
   61.5649   33.4602   49.5313 H   0  0  0  0  0  0  0  0  0  0  0  0
   61.4572   30.6305   48.7622 H   0  0  0  0  0  0  0  0  0  0  0  0
   60.9645   30.9132   50.4861 H   0  0  0  0  0  0  0  0  0  0  0  0
   59.2080   32.4120   49.7240 H   0  0  0  0  0  0  0  0  0  0  0  0
   59.9901   34.2689   48.4008 H   0  0  0  0  0  0  0  0  0  0  0  0
   59.9712   36.2621   46.9184 H   0  0  0  0  0  0  0  0  0  0  0  0
   59.2832   36.0485   44.5398 H   0  0  0  0  0  0  0  0  0  0  0  0
   58.5573   33.8531   43.6341 H   0  0  0  0  0  0  0  0  0  0  0  0
   56.5147   31.4291   44.0655 H   0  0  0  0  0  0  0  0  0  0  0  0
   57.7469   32.4125   43.2046 H   0  0  0  0  0  0  0  0  0  0  0  0
   57.8680   30.6203   43.2046 H   0  0  0  0  0  0  0  0  0  0  0  0
   58.5756   26.1434   47.2182 H   0  0  0  0  0  0  0  0  0  0  0  0
   58.1392   25.1849   44.9390 H   0  0  0  0  0  0  0  0  0  0  0  0
   58.0235   26.6933   42.9522 H   0  0  0  0  0  0  0  0  0  0  0  0
   58.2599   29.1702   43.2252 H   0  0  0  0  0  0  0  0  0  0  0  0
  1  2  1  0
  2  3  1  0
  3  4  1  0
  4  5  1  0
  3  6  1  0
  6  7  1  0
  7  8  1  0
  8  9  1  0
  9 10  2  0
 10 11  1  0
 11 12  2  0
 12 13  1  0
 13 14  2  0
 14 15  1  0
 15 16  2  0
 16 17  1  0
 16 18  1  0
 18 19  2  0
 19 20  1  0
 20 21  1  0
 21 22  2  0
 22 23  1  0
 23 24  2  0
 24 25  1  0
 25 26  2  0
 19  9  1  0
 26 21  1  0
 15 10  1  0
 26 18  1  0
  1 27  1  0
  1 28  1  0
  1 29  1  0
  2 30  1  0
  2 31  1  0
  4 32  1  0
  4 33  1  0
  5 34  1  0
  5 35  1  0
  5 36  1  0
  6 37  1  0
  6 38  1  0
  7 39  1  0
  7 40  1  0
  8 41  1  0
 11 42  1  0
 12 43  1  0
 13 44  1  0
 14 45  1  0
 17 46  1  0
 17 47  1  0
 17 48  1  0
 22 49  1  0
 23 50  1  0
 24 51  1  0
 25 52  1  0
M  CHG  1  16   1
M  END
>  <UniqueID>  (40) 
40

>  <SMILES>  (40) 
CCN(CC)CCNc1c2ccccc2[n+](C)c2c1sc1ccccc12

>  <Energy>  (40) 
118.56480287578123

>  <Genealogy>  (40) 
CCN(CC)CCNc1c2ccccc2[n+](C)c2c1sc1ccccc12 (3D coordinates assigned)
CCN(CC)CCNc1c2ccccc2[n+](C)c2c1sc1ccccc12 (optimized conformer: 118.56480287578123 kcal/mol)

>  <smiles>  (40) 
CCN(CC)CCNc1c2ccccc2[n+](C)c2c1sc1ccccc12

>  <score_type>  (40) 
oracle

>  <origin>  (40) 
adg

>  <m_score__min__energy>  (40) 
-6.2300000000000004

>  <m_primary>  (40) 
energy

$$$$
40:0
     RDKit          3D

 53 56  0  0  0  0  0  0  0  0999 V2000
   65.6320   33.1380   50.1370 C   0  0  0  0  0  0  0  0  0  0  0  0
   64.7570   31.9200   49.7870 C   0  0  0  0  0  0  0  0  0  0  0  0
   63.5740   32.2450   48.9500 N   0  0  0  0  0  0  0  0  0  0  0  0
   63.7660   33.4360   48.1030 C   0  0  0  0  0  0  0  0  0  0  0  0
   62.2920   32.2720   49.6950 C   0  0  0  0  0  0  0  0  0  0  0  0
   61.3890   31.0920   49.2830 C   0  0  0  0  0  0  0  0  0  0  0  0
   61.5520   30.7430   47.8550 N   0  0  0  0  0  0  0  0  0  0  0  0
   60.3110   30.9500   47.1280 C   0  0  0  0  0  0  0  0  0  0  0  0
   59.4590   29.8500   46.8230 C   0  0  0  0  0  0  0  0  0  0  0  0
   59.6990   28.5560   47.3780 C   0  0  0  0  0  0  0  0  0  0  0  0
   58.8380   27.5240   47.0670 C   0  0  0  0  0  0  0  0  0  0  0  0
   57.7770   27.7010   46.2510 C   0  0  0  0  0  0  0  0  0  0  0  0
   57.4840   28.9270   45.6830 C   0  0  0  0  0  0  0  0  0  0  0  0
   58.3360   30.0490   45.9520 C   0  0  0  0  0  0  0  0  0  0  0  0
   58.0900   31.3020   45.3920 N   0  0  0  0  0  0  0  0  0  0  0  0
   57.2010   31.3950   44.2160 C   0  0  0  0  0  0  0  0  0  0  0  0
   58.7750   32.4350   45.8560 C   0  0  0  0  0  0  0  0  0  0  0  0
   58.4030   33.8090   45.5080 C   0  0  0  0  0  0  0  0  0  0  0  0
   57.1130   34.2450   44.8420 C   0  0  0  0  0  0  0  0  0  0  0  0
   59.2270   34.8720   45.9150 C   0  0  0  0  0  0  0  0  0  0  0  0
   60.3200   34.6670   46.7260 C   0  0  0  0  0  0  0  0  0  0  0  0
   60.6390   33.3920   47.1520 C   0  0  0  0  0  0  0  0  0  0  0  0
   59.9130   32.2550   46.7140 C   0  0  0  0  0  0  0  0  0  0  0  0
   57.0910   26.5110   46.1240 O   0  0  0  0  0  0  0  0  0  0  0  0
   57.7630   25.5250   46.9140 C   0  0  0  0  0  0  0  0  0  0  0  0
   58.8740   26.2150   47.5020 O   0  0  0  0  0  0  0  0  0  0  0  0
   65.7028   33.2366   51.2303 H   0  0  0  0  0  0  0  0  0  0  0  0
   66.6385   32.9997   49.7154 H   0  0  0  0  0  0  0  0  0  0  0  0
   65.1797   34.0477   49.7154 H   0  0  0  0  0  0  0  0  0  0  0  0
   65.3776   31.1940   49.2413 H   0  0  0  0  0  0  0  0  0  0  0  0
   64.3736   31.5207   50.7375 H   0  0  0  0  0  0  0  0  0  0  0  0
   63.9086   34.3206   48.7411 H   0  0  0  0  0  0  0  0  0  0  0  0
   64.6530   33.2952   47.4679 H   0  0  0  0  0  0  0  0  0  0  0  0
   62.8796   33.5810   47.4679 H   0  0  0  0  0  0  0  0  0  0  0  0
   62.5008   32.2060   50.7730 H   0  0  0  0  0  0  0  0  0  0  0  0
   61.7700   33.2115   49.4606 H   0  0  0  0  0  0  0  0  0  0  0  0
   61.6485   30.2155   49.8948 H   0  0  0  0  0  0  0  0  0  0  0  0
   60.3429   31.3924   49.4425 H   0  0  0  0  0  0  0  0  0  0  0  0
   61.8770   29.7550   47.7570 H   0  0  0  0  0  0  0  0  0  0  0  0
   62.3430   31.2790   47.4240 H   0  0  0  0  0  0  0  0  0  0  0  0
   60.5578   28.3848   48.0437 H   0  0  0  0  0  0  0  0  0  0  0  0
   56.6056   29.0409   45.0308 H   0  0  0  0  0  0  0  0  0  0  0  0
   56.1591   31.5040   44.5517 H   0  0  0  0  0  0  0  0  0  0  0  0
   57.4844   32.2684   43.6103 H   0  0  0  0  0  0  0  0  0  0  0  0
   57.2975   30.4819   43.6103 H   0  0  0  0  0  0  0  0  0  0  0  0
   56.3693   34.4964   45.6125 H   0  0  0  0  0  0  0  0  0  0  0  0
   57.3044   35.1284   44.2151 H   0  0  0  0  0  0  0  0  0  0  0  0
   56.7292   33.4267   44.2151 H   0  0  0  0  0  0  0  0  0  0  0  0
   58.9929   35.8924   45.5774 H   0  0  0  0  0  0  0  0  0  0  0  0
   60.9411   35.5204   47.0358 H   0  0  0  0  0  0  0  0  0  0  0  0
   61.4785   33.2550   47.8495 H   0  0  0  0  0  0  0  0  0  0  0  0
   57.0941   25.1333   47.6945 H   0  0  0  0  0  0  0  0  0  0  0  0
   58.0841   24.6619   46.3123 H   0  0  0  0  0  0  0  0  0  0  0  0
  1  2  1  0
  2  3  1  0
  3  4  1  0
  3  5  1  0
  5  6  1  0
  6  7  1  0
  7  8  1  0
  8  9  2  0
  9 10  1  0
 10 11  2  0
 11 12  1  0
 12 13  2  0
 13 14  1  0
 14 15  2  0
 15 16  1  0
 15 17  1  0
 17 18  2  0
 18 19  1  0
 18 20  1  0
 20 21  2  0
 21 22  1  0
 22 23  2  0
 12 24  1  0
 24 25  1  0
 25 26  1  0
 23  8  1  0
 14  9  1  0
 23 17  1  0
 26 11  1  0
  1 27  1  0
  1 28  1  0
  1 29  1  0
  2 30  1  0
  2 31  1  0
  4 32  1  0
  4 33  1  0
  4 34  1  0
  5 35  1  0
  5 36  1  0
  6 37  1  0
  6 38  1  0
  7 39  1  0
  7 40  1  0
 10 41  1  0
 13 42  1  0
 16 43  1  0
 16 44  1  0
 16 45  1  0
 19 46  1  0
 19 47  1  0
 19 48  1  0
 20 49  1  0
 21 50  1  0
 22 51  1  0
 25 52  1  0
 25 53  1  0
M  CHG  2   7   1  15   1
M  END
>  <UniqueID>  (41) 
41

>  <SMILES>  (41) 
CCN(C)CC[NH2+]c1c2cc3c(cc2[n+](C)c2c(C)cccc12)OCO3

>  <Energy>  (41) 
126.93049002336986

>  <Genealogy>  (41) 
CCN(C)CC[NH2+]c1c2cc3c(cc2[n+](C)c2c(C)cccc12)OCO3 (protonated)
CCN(C)CC[NH2+]c1c2cc3c(cc2[n+](C)c2c(C)cccc12)OCO3 (3D coordinates assigned)
CCN(C)CC[NH2+]c1c2cc3c(cc2[n+](C)c2c(C)cccc12)OCO3 (nonaromatic ring conformer: 126.93049002336986 kcal/mol)

>  <smiles>  (41) 
CCN(C)CCNc1c2cc3c(cc2[n+](C)c2c(C)cccc12)OCO3

>  <score_type>  (41) 
oracle

>  <origin>  (41) 
adg

>  <m_score__min__energy>  (41) 
-4.0800000000000001

>  <m_primary>  (41) 
energy

$$$$
