0:0
     RDKit          3D

 41 42  0  0  0  0  0  0  0  0999 V2000
   59.7130   35.7010   46.3430 C   0  0  0  0  0  0  0  0  0  0  0  0
   59.5810   34.3830   46.8650 O   0  0  0  0  0  0  0  0  0  0  0  0
   58.8870   33.3440   46.2280 C   0  0  0  0  0  0  0  0  0  0  0  0
   58.9280   32.0140   46.6900 C   0  0  0  0  0  0  0  0  0  0  0  0
   58.2190   31.0140   46.0200 C   0  0  0  0  0  0  0  0  0  0  0  0
   57.4640   31.3240   44.8810 C   0  0  0  0  0  0  0  0  0  0  0  0
   56.5850   30.0530   44.0270 S   0  0  0  0  0  0  0  0  0  0  0  0
   55.1570   30.0440   44.4950 O   0  0  0  0  0  0  0  0  0  0  0  0
   56.5890   30.3490   42.5520 O   0  0  0  0  0  0  0  0  0  0  0  0
   57.2980   28.4810   44.3080 N   0  0  2  0  0  0  0  0  0  0  0  0
   56.7750   27.8990   45.5560 C   0  0  0  0  0  0  0  0  0  0  0  0
   57.1640   26.4090   45.6690 C   0  0  2  0  0  0  0  0  0  0  0  0
   57.1170   25.9340   47.1280 C   0  0  0  0  0  0  0  0  0  0  0  0
   58.5280   26.1060   45.0000 C   0  0  0  0  0  0  0  0  0  0  0  0
   59.4750   27.3230   44.9190 C   0  0  2  0  0  0  0  0  0  0  0  0
   60.1430   27.6150   46.2730 C   0  0  0  0  0  0  0  0  0  0  0  0
   58.7750   28.5880   44.3410 C   0  0  0  0  0  0  0  0  0  0  0  0
   57.4200   32.6470   44.4220 C   0  0  0  0  0  0  0  0  0  0  0  0
   58.1280   33.6480   45.0920 C   0  0  0  0  0  0  0  0  0  0  0  0
   59.7849   36.4188   47.1734 H   0  0  0  0  0  0  0  0  0  0  0  0
   60.6217   35.7618   45.7261 H   0  0  0  0  0  0  0  0  0  0  0  0
   58.8344   35.9408   45.7261 H   0  0  0  0  0  0  0  0  0  0  0  0
   59.5206   31.7618   47.5818 H   0  0  0  0  0  0  0  0  0  0  0  0
   58.2536   29.9781   46.3884 H   0  0  0  0  0  0  0  0  0  0  0  0
   57.0160   27.8750   43.5000 H   0  0  0  0  0  0  0  0  0  0  0  0
   57.1932   28.4473   46.4130 H   0  0  0  0  0  0  0  0  0  0  0  0
   55.6779   27.9784   45.5504 H   0  0  0  0  0  0  0  0  0  0  0  0
   56.4132   25.8315   45.1097 H   0  0  0  0  0  0  0  0  0  0  0  0
   57.2028   26.8014   47.7990 H   0  0  0  0  0  0  0  0  0  0  0  0
   56.1635   25.4185   47.3153 H   0  0  0  0  0  0  0  0  0  0  0  0
   57.9510   25.2417   47.3153 H   0  0  0  0  0  0  0  0  0  0  0  0
   59.0290   25.3165   45.5793 H   0  0  0  0  0  0  0  0  0  0  0  0
   58.3129   25.8022   43.9649 H   0  0  0  0  0  0  0  0  0  0  0  0
   60.2699   27.0521   44.2085 H   0  0  0  0  0  0  0  0  0  0  0  0
   59.4656   27.3189   47.0875 H   0  0  0  0  0  0  0  0  0  0  0  0
   61.0804   27.0445   46.3500 H   0  0  0  0  0  0  0  0  0  0  0  0
   60.3609   28.6904   46.3500 H   0  0  0  0  0  0  0  0  0  0  0  0
   59.0479   29.4526   44.9639 H   0  0  0  0  0  0  0  0  0  0  0  0
   59.1153   28.7002   43.3010 H   0  0  0  0  0  0  0  0  0  0  0  0
   56.8260   32.8985   43.5310 H   0  0  0  0  0  0  0  0  0  0  0  0
   58.0886   34.6837   44.7236 H   0  0  0  0  0  0  0  0  0  0  0  0
  1  2  1  0
  2  3  1  0
  3  4  2  0
  4  5  1  0
  5  6  2  0
  6  7  1  0
  7  8  2  0
  7  9  2  0
  7 10  1  0
 10 11  1  0
 11 12  1  0
 12 13  1  0
 12 14  1  0
 14 15  1  0
 15 16  1  0
 15 17  1  0
  6 18  1  0
 18 19  2  0
 19  3  1  0
 17 10  1  0
  1 20  1  0
  1 21  1  0
  1 22  1  0
  4 23  1  0
  5 24  1  0
 10 25  1  6
 11 26  1  0
 11 27  1  0
 12 28  1  6
 13 29  1  0
 13 30  1  0
 13 31  1  0
 14 32  1  0
 14 33  1  0
 15 34  1  6
 16 35  1  0
 16 36  1  0
 16 37  1  0
 17 38  1  0
 17 39  1  0
 18 40  1  0
 19 41  1  0
M  CHG  1  10   1
M  END
>  <UniqueID>  (1) 
1

>  <SMILES>  (1) 
COc1ccc(S(=O)(=O)[NH+]2C[C@H](C)C[C@H](C)C2)cc1

>  <Energy>  (1) 
41.67393211504648

>  <Genealogy>  (1) 
COc1ccc(S(=O)(=O)[NH+]2CC(C)CC(C)C2)cc1 (protonated)
COc1ccc(S(=O)(=O)[NH+]2C[C@H](C)C[C@H](C)C2)cc1 (chirality)
COc1ccc(S(=O)(=O)[NH+]2C[C@H](C)C[C@H](C)C2)cc1 (3D coordinates assigned)
COc1ccc(S(=O)(=O)[NH+]2C[C@H](C)C[C@H](C)C2)cc1 (nonaromatic ring conformer: 41.67393211504648 kcal/mol)

>  <smiles>  (1) 
COc1ccc(S(=O)(=O)N2CC(C)CC(C)C2)cc1

>  <score_type>  (1) 
oracle

>  <origin>  (1) 
adg

>  <m_score__min__energy>  (1) 
-5.8099999999999996

>  <m_primary>  (1) 
energy

$$$$
1:0
     RDKit          3D

 48 51  0  0  0  0  0  0  0  0999 V2000
   63.7590   33.4060   47.0150 C   0  0  0  0  0  0  0  0  0  0  0  0
   62.2710   33.5370   46.7180 C   0  0  0  0  0  0  0  0  0  0  0  0
   61.5060   32.5880   47.5290 N   0  0  0  0  0  0  0  0  0  0  0  0
   61.3810   31.2610   47.2890 C   0  0  0  0  0  0  0  0  0  0  0  0
   60.5280   30.6770   48.2260 C   0  0  0  0  0  0  0  0  0  0  0  0
   60.1750   29.2450   48.3270 C   0  0  0  0  0  0  0  0  0  0  0  0
   60.4210   28.6300   49.4000 O   0  0  0  0  0  0  0  0  0  0  0  0
   59.5640   28.5040   47.2010 C   0  0  0  0  0  0  0  0  0  0  0  0
   60.1920   27.3820   46.6350 C   0  0  0  0  0  0  0  0  0  0  0  0
   59.6180   26.7280   45.5910 N   0  0  0  0  0  0  0  0  0  0  0  0
   58.4410   27.1370   45.0500 C   0  0  0  0  0  0  0  0  0  0  0  0
   57.7990   28.2750   45.5430 C   0  0  0  0  0  0  0  0  0  0  0  0
   56.5720   28.7070   44.9430 N   0  0  0  0  0  0  0  0  0  0  0  0
   56.3130   30.0090   44.3980 C   0  0  0  0  0  0  0  0  0  0  0  0
   55.1510   30.4850   44.4990 O   0  0  0  0  0  0  0  0  0  0  0  0
   57.3620   30.8040   43.6620 C   0  0  0  0  0  0  0  0  0  0  0  0
   57.8190   32.0030   44.4550 C   0  0  0  0  0  0  0  0  0  0  0  0
   58.4560   33.0770   43.8110 C   0  0  0  0  0  0  0  0  0  0  0  0
   58.9000   34.1780   44.5490 C   0  0  0  0  0  0  0  0  0  0  0  0
   58.7050   34.2210   45.9330 C   0  0  0  0  0  0  0  0  0  0  0  0
   59.1400   35.2900   46.6450 F   0  0  0  0  0  0  0  0  0  0  0  0
   58.0580   33.1640   46.5800 C   0  0  0  0  0  0  0  0  0  0  0  0
   57.8660   33.2030   47.9210 F   0  0  0  0  0  0  0  0  0  0  0  0
   57.6100   32.0620   45.8450 C   0  0  0  0  0  0  0  0  0  0  0  0
   58.3530   28.9440   46.6410 C   0  0  0  0  0  0  0  0  0  0  0  0
   60.1310   31.7090   49.0610 C   0  0  0  0  0  0  0  0  0  0  0  0
   59.2720   31.7350   50.1600 C   0  0  0  0  0  0  0  0  0  0  0  0
   59.0570   32.9770   50.7810 C   0  0  0  0  0  0  0  0  0  0  0  0
   59.6690   34.1060   50.3070 N   0  0  0  0  0  0  0  0  0  0  0  0
   60.5050   34.0770   49.2280 C   0  0  0  0  0  0  0  0  0  0  0  0
   60.7350   32.8520   48.6030 C   0  0  0  0  0  0  0  0  0  0  0  0
   63.9158   33.3922   48.1037 H   0  0  0  0  0  0  0  0  0  0  0  0
   64.1392   32.4709   46.5779 H   0  0  0  0  0  0  0  0  0  0  0  0
   64.2967   34.2603   46.5779 H   0  0  0  0  0  0  0  0  0  0  0  0
   61.9431   34.5607   46.9513 H   0  0  0  0  0  0  0  0  0  0  0  0
   62.0978   33.3194   45.6537 H   0  0  0  0  0  0  0  0  0  0  0  0
   61.8808   30.7205   46.4717 H   0  0  0  0  0  0  0  0  0  0  0  0
   61.1531   27.0310   47.0388 H   0  0  0  0  0  0  0  0  0  0  0  0
   57.9922   26.5701   44.2210 H   0  0  0  0  0  0  0  0  0  0  0  0
   58.2286   30.1550   43.4676 H   0  0  0  0  0  0  0  0  0  0  0  0
   56.9185   31.1657   42.7226 H   0  0  0  0  0  0  0  0  0  0  0  0
   58.6059   33.0514   42.7216 H   0  0  0  0  0  0  0  0  0  0  0  0
   59.4040   35.0126   44.0398 H   0  0  0  0  0  0  0  0  0  0  0  0
   57.0917   31.2373   46.3561 H   0  0  0  0  0  0  0  0  0  0  0  0
   57.8380   29.8177   47.0670 H   0  0  0  0  0  0  0  0  0  0  0  0
   58.7828   30.8201   50.5256 H   0  0  0  0  0  0  0  0  0  0  0  0
   58.3919   33.0426   51.6547 H   0  0  0  0  0  0  0  0  0  0  0  0
   60.9848   34.9964   48.8612 H   0  0  0  0  0  0  0  0  0  0  0  0
  1  2  1  0
  2  3  1  0
  3  4  1  0
  4  5  2  0
  5  6  1  0
  6  7  2  0
  6  8  1  0
  8  9  2  0
  9 10  1  0
 10 11  2  0
 11 12  1  0
 12 13  1  0
 13 14  1  0
 14 15  2  0
 14 16  1  0
 16 17  1  0
 17 18  2  0
 18 19  1  0
 19 20  2  0
 20 21  1  0
 20 22  1  0
 22 23  1  0
 22 24  2  0
 12 25  2  0
  5 26  1  0
 26 27  2  0
 27 28  1  0
 28 29  2  0
 29 30  1  0
 30 31  2  0
 31  3  1  0
 25  8  1  0
 31 26  1  0
 24 17  1  0
  1 32  1  0
  1 33  1  0
  1 34  1  0
  2 35  1  0
  2 36  1  0
  4 37  1  0
  9 38  1  0
 11 39  1  0
 16 40  1  0
 16 41  1  0
 18 42  1  0
 19 43  1  0
 24 44  1  0
 25 45  1  0
 27 46  1  0
 28 47  1  0
 30 48  1  0
M  CHG  1  13  -1
M  END
>  <UniqueID>  (2) 
2

>  <SMILES>  (2) 
CCn1cc(C(=O)c2cncc([N-]C(=O)Cc3ccc(F)c(F)c3)c2)c2ccncc21

>  <Energy>  (2) 
93.2517853210287

>  <Genealogy>  (2) 
CCn1cc(C(=O)c2cncc([N-]C(=O)Cc3ccc(F)c(F)c3)c2)c2ccncc21 (protonated)
CCn1cc(C(=O)c2cncc([N-]C(=O)Cc3ccc(F)c(F)c3)c2)c2ccncc21 (3D coordinates assigned)
CCn1cc(C(=O)c2cncc([N-]C(=O)Cc3ccc(F)c(F)c3)c2)c2ccncc21 (optimized conformer: 93.2517853210287 kcal/mol)

>  <smiles>  (2) 
CCn1cc(C(=O)c2cncc(NC(=O)Cc3ccc(F)c(F)c3)c2)c2ccncc21

>  <score_type>  (2) 
oracle

>  <origin>  (2) 
adg

>  <m_score__min__energy>  (2) 
-10.5

>  <m_primary>  (2) 
energy

$$$$
2:0
     RDKit          3D

 35 36  0  0  0  0  0  0  0  0999 V2000
   60.3920   34.5910   46.3620 C   0  0  0  0  0  0  0  0  0  0  0  0
   61.3920   33.5510   46.7940 C   0  0  0  0  0  0  0  0  0  0  0  0
   62.7630   33.8470   46.6960 C   0  0  0  0  0  0  0  0  0  0  0  0
   63.7230   32.9030   47.0650 C   0  0  0  0  0  0  0  0  0  0  0  0
   63.3280   31.6550   47.5440 C   0  0  0  0  0  0  0  0  0  0  0  0
   61.9720   31.3490   47.6620 C   0  0  0  0  0  0  0  0  0  0  0  0
   60.9880   32.2870   47.2980 C   0  0  0  0  0  0  0  0  0  0  0  0
   59.5590   31.9260   47.4740 C   0  0  0  0  0  0  0  0  0  0  0  0
   58.8510   32.5850   48.2830 O   0  0  0  0  0  0  0  0  0  0  0  0
   58.9510   30.7960   46.7270 C   0  0  0  0  0  0  0  0  0  0  0  0
   59.1990   29.4790   47.1530 C   0  0  0  0  0  0  0  0  0  0  0  0
   58.6610   28.3930   46.4580 C   0  0  0  0  0  0  0  0  0  0  0  0
   58.9830   26.7580   47.0050 Cl  0  0  0  0  0  0  0  0  0  0  0  0
   57.8690   28.6090   45.3310 C   0  0  0  0  0  0  0  0  0  0  0  0
   57.6080   29.9090   44.8900 C   0  0  0  0  0  0  0  0  0  0  0  0
   56.4800   30.1450   43.3590 Br  0  0  0  0  0  0  0  0  0  0  0  0
   58.1480   31.0120   45.5810 C   0  0  0  0  0  0  0  0  0  0  0  0
   57.8350   32.3440   45.1470 N   0  0  0  0  0  0  0  0  0  0  0  0
   58.4170   32.8470   43.9030 C   0  0  0  0  0  0  0  0  0  0  0  0
   57.0200   33.2210   45.9880 C   0  0  0  0  0  0  0  0  0  0  0  0
   59.9424   35.0586   47.2503 H   0  0  0  0  0  0  0  0  0  0  0  0
   60.8990   35.3595   45.7601 H   0  0  0  0  0  0  0  0  0  0  0  0
   59.6042   34.1145   45.7601 H   0  0  0  0  0  0  0  0  0  0  0  0
   63.0823   34.8321   46.3249 H   0  0  0  0  0  0  0  0  0  0  0  0
   64.7926   33.1444   46.9776 H   0  0  0  0  0  0  0  0  0  0  0  0
   64.0861   30.9108   47.8292 H   0  0  0  0  0  0  0  0  0  0  0  0
   61.6684   30.3631   48.0440 H   0  0  0  0  0  0  0  0  0  0  0  0
   59.8225   29.3022   48.0418 H   0  0  0  0  0  0  0  0  0  0  0  0
   57.4474   27.7515   44.7861 H   0  0  0  0  0  0  0  0  0  0  0  0
   59.2303   33.5499   44.1366 H   0  0  0  0  0  0  0  0  0  0  0  0
   58.8165   32.0052   43.3184 H   0  0  0  0  0  0  0  0  0  0  0  0
   57.6419   33.3642   43.3184 H   0  0  0  0  0  0  0  0  0  0  0  0
   57.2216   33.0041   47.0474 H   0  0  0  0  0  0  0  0  0  0  0  0
   57.2708   34.2705   45.7744 H   0  0  0  0  0  0  0  0  0  0  0  0
   55.9549   33.0477   45.7744 H   0  0  0  0  0  0  0  0  0  0  0  0
  1  2  1  0
  2  3  2  0
  3  4  1  0
  4  5  2  0
  5  6  1  0
  6  7  2  0
  7  8  1  0
  8  9  2  0
  8 10  1  0
 10 11  2  0
 11 12  1  0
 12 13  1  0
 12 14  2  0
 14 15  1  0
 15 16  1  0
 15 17  2  0
 17 18  1  0
 18 19  1  0
 18 20  1  0
  7  2  1  0
 17 10  1  0
  1 21  1  0
  1 22  1  0
  1 23  1  0
  3 24  1  0
  4 25  1  0
  5 26  1  0
  6 27  1  0
 11 28  1  0
 14 29  1  0
 19 30  1  0
 19 31  1  0
 19 32  1  0
 20 33  1  0
 20 34  1  0
 20 35  1  0
M  END
>  <UniqueID>  (3) 
3

>  <SMILES>  (3) 
Cc1ccccc1C(=O)c1cc(Cl)cc(Br)c1N(C)C

>  <Energy>  (3) 
48.53880060414292

>  <Genealogy>  (3) 
Cc1ccccc1C(=O)c1cc(Cl)cc(Br)c1N(C)C (3D coordinates assigned)
Cc1ccccc1C(=O)c1cc(Cl)cc(Br)c1N(C)C (optimized conformer: 48.53880060414292 kcal/mol)

>  <smiles>  (3) 
Cc1ccccc1C(=O)c1cc(Cl)cc(Br)c1N(C)C

>  <score_type>  (3) 
oracle

>  <origin>  (3) 
adg

>  <m_score__min__energy>  (3) 
-7.3700000000000001

>  <m_primary>  (3) 
energy

$$$$
3:0
     RDKit          3D

 41 42  0  0  0  0  0  0  0  0999 V2000
   59.0410   22.1870   44.6130 C   0  0  0  0  0  0  0  0  0  0  0  0
   57.5930   22.0720   45.1110 C   0  0  0  0  0  0  0  0  0  0  0  0
   56.7580   23.2660   44.8310 N   0  0  0  0  0  0  0  0  0  0  0  0
   56.6050   23.5140   43.3790 C   0  0  0  0  0  0  0  0  0  0  0  0
   56.3240   22.2060   42.6450 C   0  0  0  0  0  0  0  0  0  0  0  0
   55.4480   23.2700   45.5270 C   0  0  0  0  0  0  0  0  0  0  0  0
   55.5900   23.5840   47.0220 C   0  0  0  0  0  0  0  0  0  0  0  0
   56.2760   24.8580   47.2110 N   0  0  0  0  0  0  0  0  0  0  0  0
   56.1530   25.9760   46.3270 C   0  0  0  0  0  0  0  0  0  0  0  0
   55.0040   26.3640   45.9870 O   0  0  0  0  0  0  0  0  0  0  0  0
   57.3300   26.7110   45.8390 C   0  0  0  0  0  0  0  0  0  0  0  0
   58.6560   26.2800   45.8470 C   0  0  0  0  0  0  0  0  0  0  0  0
   59.1440   24.9570   46.3390 C   0  0  0  0  0  0  0  0  0  0  0  0
   59.4470   27.2160   45.3550 O   0  0  0  0  0  0  0  0  0  0  0  0
   58.6950   28.2420   45.0350 C   0  0  0  0  0  0  0  0  0  0  0  0
   59.1060   29.4600   44.4990 C   0  0  0  0  0  0  0  0  0  0  0  0
   58.1240   30.4410   44.2660 C   0  0  0  0  0  0  0  0  0  0  0  0
   56.7700   30.1880   44.5790 C   0  0  0  0  0  0  0  0  0  0  0  0
   55.8360   31.1470   44.3640 F   0  0  0  0  0  0  0  0  0  0  0  0
   56.3840   28.9470   45.1200 C   0  0  0  0  0  0  0  0  0  0  0  0
   57.3760   27.9860   45.3170 C   0  0  0  0  0  0  0  0  0  0  0  0
   59.7220   22.2411   45.4751 H   0  0  0  0  0  0  0  0  0  0  0  0
   59.2902   21.3058   44.0036 H   0  0  0  0  0  0  0  0  0  0  0  0
   59.1480   23.0965   44.0036 H   0  0  0  0  0  0  0  0  0  0  0  0
   57.1279   21.2032   44.6223 H   0  0  0  0  0  0  0  0  0  0  0  0
   57.6417   21.9693   46.2051 H   0  0  0  0  0  0  0  0  0  0  0  0
   55.7679   24.2088   43.2158 H   0  0  0  0  0  0  0  0  0  0  0  0
   57.5374   23.9493   42.9902 H   0  0  0  0  0  0  0  0  0  0  0  0
   56.1517   21.4040   43.3779 H   0  0  0  0  0  0  0  0  0  0  0  0
   55.4308   22.3242   42.0140 H   0  0  0  0  0  0  0  0  0  0  0  0
   57.1870   21.9469   42.0140 H   0  0  0  0  0  0  0  0  0  0  0  0
   54.8028   24.0314   45.0643 H   0  0  0  0  0  0  0  0  0  0  0  0
   55.0107   22.2652   45.4319 H   0  0  0  0  0  0  0  0  0  0  0  0
   54.5902   23.6396   47.4773 H   0  0  0  0  0  0  0  0  0  0  0  0
   56.1789   22.7872   47.4997 H   0  0  0  0  0  0  0  0  0  0  0  0
   59.1456   24.9527   47.4390 H   0  0  0  0  0  0  0  0  0  0  0  0
   58.4803   24.1611   45.9702 H   0  0  0  0  0  0  0  0  0  0  0  0
   60.1656   24.7827   45.9702 H   0  0  0  0  0  0  0  0  0  0  0  0
   60.1641   29.6492   44.2653 H   0  0  0  0  0  0  0  0  0  0  0  0
   58.4130   31.4118   43.8370 H   0  0  0  0  0  0  0  0  0  0  0  0
   55.3348   28.7418   45.3789 H   0  0  0  0  0  0  0  0  0  0  0  0
  1  2  1  0
  2  3  1  0
  3  4  1  0
  4  5  1  0
  3  6  1  0
  6  7  1  0
  7  8  1  0
  8  9  1  0
  9 10  2  0
  9 11  1  0
 11 12  2  0
 12 13  1  0
 12 14  1  0
 14 15  1  0
 15 16  2  0
 16 17  1  0
 17 18  2  0
 18 19  1  0
 18 20  1  0
 20 21  2  0
 21 11  1  0
 21 15  1  0
  1 22  1  0
  1 23  1  0
  1 24  1  0
  2 25  1  0
  2 26  1  0
  4 27  1  0
  4 28  1  0
  5 29  1  0
  5 30  1  0
  5 31  1  0
  6 32  1  0
  6 33  1  0
  7 34  1  0
  7 35  1  0
 13 36  1  0
 13 37  1  0
 13 38  1  0
 16 39  1  0
 17 40  1  0
 20 41  1  0
M  CHG  1   8  -1
M  END
>  <UniqueID>  (4) 
4

>  <SMILES>  (4) 
CCN(CC)CC[N-]C(=O)c1c(C)oc2ccc(F)cc12

>  <Energy>  (4) 
78.3564756273869

>  <Genealogy>  (4) 
CCN(CC)CC[N-]C(=O)c1c(C)oc2ccc(F)cc12 (protonated)
CCN(CC)CC[N-]C(=O)c1c(C)oc2ccc(F)cc12 (3D coordinates assigned)
CCN(CC)CC[N-]C(=O)c1c(C)oc2ccc(F)cc12 (optimized conformer: 78.3564756273869 kcal/mol)

>  <smiles>  (4) 
CCN(CC)CCNC(=O)c1c(C)oc2ccc(F)cc12

>  <score_type>  (4) 
oracle

>  <origin>  (4) 
adg

>  <m_score__min__energy>  (4) 
-8.9299999999999997

>  <m_primary>  (4) 
energy

$$$$
5:0
     RDKit          3D

 44 46  0  0  0  0  0  0  0  0999 V2000
   57.6830   34.5910   44.5900 O   0  0  0  0  0  0  0  0  0  0  0  0
   57.7560   33.3320   44.6410 C   0  0  0  0  0  0  0  0  0  0  0  0
   57.8440   32.6020   43.4570 C   0  0  0  0  0  0  0  0  0  0  0  0
   57.9170   31.2140   43.5130 C   0  0  0  0  0  0  0  0  0  0  0  0
   57.9070   30.5750   44.7590 C   0  0  0  0  0  0  0  0  0  0  0  0
   57.9580   29.0970   44.8870 C   0  0  0  0  0  0  0  0  0  0  0  0
   57.9630   28.5060   46.1660 C   0  0  0  0  0  0  0  0  0  0  0  0
   58.0170   27.1160   46.3060 C   0  0  0  0  0  0  0  0  0  0  0  0
   58.0730   26.3000   45.1740 C   0  0  0  0  0  0  0  0  0  0  0  0
   58.1260   24.9520   45.3120 F   0  0  0  0  0  0  0  0  0  0  0  0
   58.0800   26.8720   43.9000 C   0  0  0  0  0  0  0  0  0  0  0  0
   58.0250   28.2620   43.7540 C   0  0  0  0  0  0  0  0  0  0  0  0
   57.8150   31.3400   45.8810 N   0  0  0  0  0  0  0  0  0  0  0  0
   57.7450   32.6750   45.8420 N   0  0  0  0  0  0  0  0  0  0  0  0
   57.6170   33.4000   47.1120 C   0  0  0  0  0  0  0  0  0  0  0  0
   58.9200   33.3430   47.9230 C   0  0  0  0  0  0  0  0  0  0  0  0
   60.0720   34.0900   47.2280 C   0  0  0  0  0  0  0  0  0  0  0  0
   61.0680   33.1500   46.6670 N   0  0  0  0  0  0  0  0  0  0  0  0
   61.2520   31.9590   47.5380 C   0  0  0  0  0  0  0  0  0  0  0  0
   62.6400   31.3300   47.3620 C   0  0  0  0  0  0  0  0  0  0  0  0
   63.7130   32.2700   47.7340 N   0  0  0  0  0  0  0  0  0  0  0  0
   63.3830   33.6830   47.4730 C   0  0  0  0  0  0  0  0  0  0  0  0
   62.3450   33.8400   46.3500 C   0  0  0  0  0  0  0  0  0  0  0  0
   57.8556   33.1192   42.4862 H   0  0  0  0  0  0  0  0  0  0  0  0
   57.9820   30.6238   42.5870 H   0  0  0  0  0  0  0  0  0  0  0  0
   57.9241   29.1434   47.0617 H   0  0  0  0  0  0  0  0  0  0  0  0
   58.0154   26.6645   47.3091 H   0  0  0  0  0  0  0  0  0  0  0  0
   58.1289   26.2281   43.0095 H   0  0  0  0  0  0  0  0  0  0  0  0
   58.0341   28.7063   42.7478 H   0  0  0  0  0  0  0  0  0  0  0  0
   57.3725   34.4515   46.9009 H   0  0  0  0  0  0  0  0  0  0  0  0
   56.8200   32.9252   47.7031 H   0  0  0  0  0  0  0  0  0  0  0  0
   58.7444   33.8007   48.9077 H   0  0  0  0  0  0  0  0  0  0  0  0
   59.2120   32.2867   48.0181 H   0  0  0  0  0  0  0  0  0  0  0  0
   59.6601   34.7029   46.4127 H   0  0  0  0  0  0  0  0  0  0  0  0
   60.5754   34.7202   47.9759 H   0  0  0  0  0  0  0  0  0  0  0  0
   61.1304   32.2641   48.5878 H   0  0  0  0  0  0  0  0  0  0  0  0
   60.4995   31.2090   47.2531 H   0  0  0  0  0  0  0  0  0  0  0  0
   62.7107   30.4369   48.0002 H   0  0  0  0  0  0  0  0  0  0  0  0
   62.7662   31.0661   46.3016 H   0  0  0  0  0  0  0  0  0  0  0  0
   64.5670   32.0170   47.1830 H   0  0  0  0  0  0  0  0  0  0  0  0
   62.9783   34.1280   48.3940 H   0  0  0  0  0  0  0  0  0  0  0  0
   64.3048   34.1912   47.1537 H   0  0  0  0  0  0  0  0  0  0  0  0
   62.1420   34.9110   46.2022 H   0  0  0  0  0  0  0  0  0  0  0  0
   62.7598   33.3823   45.4398 H   0  0  0  0  0  0  0  0  0  0  0  0
  1  2  2  0
  2  3  1  0
  3  4  2  0
  4  5  1  0
  5  6  1  0
  6  7  2  0
  7  8  1  0
  8  9  2  0
  9 10  1  0
  9 11  1  0
 11 12  2  0
  5 13  2  0
 13 14  1  0
 14 15  1  0
 15 16  1  0
 16 17  1  0
 17 18  1  0
 18 19  1  0
 19 20  1  0
 20 21  1  0
 21 22  1  0
 22 23  1  0
 14  2  1  0
 23 18  1  0
 12  6  1  0
  3 24  1  0
  4 25  1  0
  7 26  1  0
  8 27  1  0
 11 28  1  0
 12 29  1  0
 15 30  1  0
 15 31  1  0
 16 32  1  0
 16 33  1  0
 17 34  1  0
 17 35  1  0
 19 36  1  0
 19 37  1  0
 20 38  1  0
 20 39  1  0
 21 40  1  0
 22 41  1  0
 22 42  1  0
 23 43  1  0
 23 44  1  0
M  END
>  <UniqueID>  (5) 
5

>  <SMILES>  (5) 
O=c1ccc(-c2ccc(F)cc2)nn1CCCN1CCNCC1

>  <Energy>  (5) 
57.82701030693223

>  <Genealogy>  (5) 
O=c1ccc(-c2ccc(F)cc2)nn1CCCN1CCNCC1 (3D coordinates assigned)
O=c1ccc(-c2ccc(F)cc2)nn1CCCN1CCNCC1 (nonaromatic ring conformer: 57.82701030693223 kcal/mol)

>  <smiles>  (5) 
O=c1ccc(-c2ccc(F)cc2)nn1CCCN1CCNCC1

>  <score_type>  (5) 
oracle

>  <origin>  (5) 
adg

>  <m_score__min__energy>  (5) 
-7.71

>  <m_primary>  (5) 
energy

$$$$
6:0
     RDKit          3D

 44 46  0  0  0  0  0  0  0  0999 V2000
   59.5320   26.3820   46.0160 C   0  0  0  0  0  0  0  0  0  0  0  0
   58.5640   27.4290   46.3710 N   0  0  0  0  0  0  0  0  0  0  0  0
   57.2020   27.0950   45.9280 C   0  0  0  0  0  0  0  0  0  0  0  0
   58.6530   27.8960   47.7760 C   0  0  0  0  0  0  0  0  0  0  0  0
   59.8050   28.8780   48.1010 C   0  0  0  0  0  0  0  0  0  0  0  0
   60.5110   29.3560   46.8990 N   0  0  0  0  0  0  0  0  0  0  0  0
   60.3700   30.7990   46.7600 C   0  0  0  0  0  0  0  0  0  0  0  0
   61.3090   31.6750   47.3660 C   0  0  0  0  0  0  0  0  0  0  0  0
   62.3170   31.1940   48.2370 C   0  0  0  0  0  0  0  0  0  0  0  0
   63.2960   32.0440   48.7450 C   0  0  0  0  0  0  0  0  0  0  0  0
   63.2970   33.3860   48.3980 C   0  0  0  0  0  0  0  0  0  0  0  0
   62.2880   33.8990   47.5870 C   0  0  0  0  0  0  0  0  0  0  0  0
   61.2410   33.0720   47.1030 C   0  0  0  0  0  0  0  0  0  0  0  0
   60.1840   33.5970   46.3850 N   0  0  0  0  0  0  0  0  0  0  0  0
   59.9590   35.0620   46.3710 C   0  0  0  0  0  0  0  0  0  0  0  0
   59.3020   32.7600   45.7320 C   0  0  0  0  0  0  0  0  0  0  0  0
   58.3560   33.2670   44.8020 C   0  0  0  0  0  0  0  0  0  0  0  0
   57.3990   32.4410   44.2210 C   0  0  0  0  0  0  0  0  0  0  0  0
   57.3580   31.0920   44.5420 C   0  0  0  0  0  0  0  0  0  0  0  0
   56.0090   29.9720   43.7800 Br  0  0  0  0  0  0  0  0  0  0  0  0
   58.3100   30.5500   45.4010 C   0  0  0  0  0  0  0  0  0  0  0  0
   59.3310   31.3560   45.9670 C   0  0  0  0  0  0  0  0  0  0  0  0
   59.9436   25.9368   46.9338 H   0  0  0  0  0  0  0  0  0  0  0  0
   59.0290   25.6030   45.4242 H   0  0  0  0  0  0  0  0  0  0  0  0
   60.3480   26.8224   45.4242 H   0  0  0  0  0  0  0  0  0  0  0  0
   56.5590   26.9373   46.8065 H   0  0  0  0  0  0  0  0  0  0  0  0
   56.8002   27.9212   45.3231 H   0  0  0  0  0  0  0  0  0  0  0  0
   57.2280   26.1766   45.3231 H   0  0  0  0  0  0  0  0  0  0  0  0
   57.7056   28.3973   48.0232 H   0  0  0  0  0  0  0  0  0  0  0  0
   58.8591   26.9947   48.3720 H   0  0  0  0  0  0  0  0  0  0  0  0
   59.3862   29.7467   48.6301 H   0  0  0  0  0  0  0  0  0  0  0  0
   60.5362   28.3347   48.7176 H   0  0  0  0  0  0  0  0  0  0  0  0
   61.5200   29.0840   46.9180 H   0  0  0  0  0  0  0  0  0  0  0  0
   60.1500   28.8730   46.0530 H   0  0  0  0  0  0  0  0  0  0  0  0
   62.3267   30.1303   48.5171 H   0  0  0  0  0  0  0  0  0  0  0  0
   64.0687   31.6504   49.4218 H   0  0  0  0  0  0  0  0  0  0  0  0
   64.0964   34.0470   48.7640 H   0  0  0  0  0  0  0  0  0  0  0  0
   62.3027   34.9651   47.3164 H   0  0  0  0  0  0  0  0  0  0  0  0
   59.9019   35.4341   47.4046 H   0  0  0  0  0  0  0  0  0  0  0  0
   60.7918   35.5559   45.8490 H   0  0  0  0  0  0  0  0  0  0  0  0
   59.0163   35.2832   45.8490 H   0  0  0  0  0  0  0  0  0  0  0  0
   58.3804   34.3340   44.5357 H   0  0  0  0  0  0  0  0  0  0  0  0
   56.6741   32.8580   43.5064 H   0  0  0  0  0  0  0  0  0  0  0  0
   58.2699   29.4782   45.6451 H   0  0  0  0  0  0  0  0  0  0  0  0
  1  2  1  0
  2  3  1  0
  2  4  1  0
  4  5  1  0
  5  6  1  0
  6  7  1  0
  7  8  2  0
  8  9  1  0
  9 10  2  0
 10 11  1  0
 11 12  2  0
 12 13  1  0
 13 14  2  0
 14 15  1  0
 14 16  1  0
 16 17  2  0
 17 18  1  0
 18 19  2  0
 19 20  1  0
 19 21  1  0
 21 22  2  0
 22  7  1  0
 13  8  1  0
 22 16  1  0
  1 23  1  0
  1 24  1  0
  1 25  1  0
  3 26  1  0
  3 27  1  0
  3 28  1  0
  4 29  1  0
  4 30  1  0
  5 31  1  0
  5 32  1  0
  6 33  1  0
  6 34  1  0
  9 35  1  0
 10 36  1  0
 11 37  1  0
 12 38  1  0
 15 39  1  0
 15 40  1  0
 15 41  1  0
 17 42  1  0
 18 43  1  0
 21 44  1  0
M  CHG  2   6   1  14   1
M  END
>  <UniqueID>  (6) 
6

>  <SMILES>  (6) 
CN(C)CC[NH2+]c1c2ccccc2[n+](C)c2ccc(Br)cc12

>  <Energy>  (6) 
79.37555029620414

>  <Genealogy>  (6) 
CN(C)CC[NH2+]c1c2ccccc2[n+](C)c2ccc(Br)cc12 (protonated)
CN(C)CC[NH2+]c1c2ccccc2[n+](C)c2ccc(Br)cc12 (3D coordinates assigned)
CN(C)CC[NH2+]c1c2ccccc2[n+](C)c2ccc(Br)cc12 (optimized conformer: 79.37555029620414 kcal/mol)

>  <smiles>  (6) 
CN(C)CCNc1c2ccccc2[n+](C)c2ccc(Br)cc12

>  <score_type>  (6) 
oracle

>  <origin>  (6) 
adg

>  <m_score__min__energy>  (6) 
-4.2300000000000004

>  <m_primary>  (6) 
energy

$$$$
7:0
     RDKit          3D

 42 44  0  0  0  0  0  0  0  0999 V2000
   57.8220   32.2970   42.5970 C   0  0  0  0  0  0  0  0  0  0  0  0
   58.0070   32.8100   43.9980 C   0  0  0  0  0  0  0  0  0  0  0  0
   58.9590   33.8090   44.2620 C   0  0  0  0  0  0  0  0  0  0  0  0
   59.1310   34.2950   45.5600 C   0  0  0  0  0  0  0  0  0  0  0  0
   58.3480   33.7990   46.6030 C   0  0  0  0  0  0  0  0  0  0  0  0
   57.3990   32.8060   46.3530 C   0  0  0  0  0  0  0  0  0  0  0  0
   57.2380   32.2860   45.0580 C   0  0  0  0  0  0  0  0  0  0  0  0
   56.2340   31.2970   44.7910 N   0  0  0  0  0  0  0  0  0  0  0  0
   56.4580   29.8910   44.6290 C   0  0  0  0  0  0  0  0  0  0  0  0
   55.5160   29.1000   44.9070 O   0  0  0  0  0  0  0  0  0  0  0  0
   57.7320   29.3690   44.0010 C   0  0  0  0  0  0  0  0  0  0  0  0
   58.6720   28.6570   44.9900 C   0  0  0  0  0  0  0  0  0  0  0  0
   59.1940   29.5710   46.0610 C   0  0  0  0  0  0  0  0  0  0  0  0
   60.4090   30.1520   46.0500 N   0  0  0  0  0  0  0  0  0  0  0  0
   60.3750   30.8790   47.1860 C   0  0  0  0  0  0  0  0  0  0  0  0
   61.4670   31.7730   47.6400 C   0  0  0  0  0  0  0  0  0  0  0  0
   61.8810   32.7950   46.7660 C   0  0  0  0  0  0  0  0  0  0  0  0
   62.9400   33.6390   47.1010 C   0  0  0  0  0  0  0  0  0  0  0  0
   63.6040   33.4770   48.3130 C   0  0  0  0  0  0  0  0  0  0  0  0
   63.1990   32.4850   49.2060 C   0  0  0  0  0  0  0  0  0  0  0  0
   62.1140   31.6360   48.9040 C   0  0  0  0  0  0  0  0  0  0  0  0
   61.6710   30.6120   49.9340 C   0  0  0  0  0  0  0  0  0  0  0  0
   62.6550   30.4430   50.8920 F   0  0  0  0  0  0  0  0  0  0  0  0
   60.5010   31.0360   50.5360 F   0  0  0  0  0  0  0  0  0  0  0  0
   61.4370   29.3760   49.3560 F   0  0  0  0  0  0  0  0  0  0  0  0
   59.1950   30.7610   47.8290 N   0  0  0  0  0  0  0  0  0  0  0  0
   58.4960   29.9430   47.1050 O   0  0  0  0  0  0  0  0  0  0  0  0
   57.4490   31.2627   42.6315 H   0  0  0  0  0  0  0  0  0  0  0  0
   57.0959   32.9311   42.0672 H   0  0  0  0  0  0  0  0  0  0  0  0
   58.7857   32.3218   42.0672 H   0  0  0  0  0  0  0  0  0  0  0  0
   59.5723   34.2106   43.4419 H   0  0  0  0  0  0  0  0  0  0  0  0
   59.8852   35.0703   45.7605 H   0  0  0  0  0  0  0  0  0  0  0  0
   58.4785   34.1905   47.6226 H   0  0  0  0  0  0  0  0  0  0  0  0
   56.7734   32.4284   47.1752 H   0  0  0  0  0  0  0  0  0  0  0  0
   57.4600   28.6564   43.2084 H   0  0  0  0  0  0  0  0  0  0  0  0
   58.2781   30.2429   43.6162 H   0  0  0  0  0  0  0  0  0  0  0  0
   58.1202   27.8346   45.4687 H   0  0  0  0  0  0  0  0  0  0  0  0
   59.5372   28.2909   44.4179 H   0  0  0  0  0  0  0  0  0  0  0  0
   61.3625   32.9303   45.8054 H   0  0  0  0  0  0  0  0  0  0  0  0
   63.2504   34.4334   46.4063 H   0  0  0  0  0  0  0  0  0  0  0  0
   64.4499   34.1325   48.5674 H   0  0  0  0  0  0  0  0  0  0  0  0
   63.7336   32.3631   50.1596 H   0  0  0  0  0  0  0  0  0  0  0  0
  1  2  1  0
  2  3  2  0
  3  4  1  0
  4  5  2  0
  5  6  1  0
  6  7  2  0
  7  8  1  0
  8  9  1  0
  9 10  2  0
  9 11  1  0
 11 12  1  0
 12 13  1  0
 13 14  2  0
 14 15  1  0
 15 16  1  0
 16 17  2  0
 17 18  1  0
 18 19  2  0
 19 20  1  0
 20 21  2  0
 21 22  1  0
 22 23  1  0
 22 24  1  0
 22 25  1  0
 15 26  2  0
 26 27  1  0
  7  2  1  0
 27 13  1  0
 21 16  1  0
  1 28  1  0
  1 29  1  0
  1 30  1  0
  3 31  1  0
  4 32  1  0
  5 33  1  0
  6 34  1  0
 11 35  1  0
 11 36  1  0
 12 37  1  0
 12 38  1  0
 17 39  1  0
 18 40  1  0
 19 41  1  0
 20 42  1  0
M  CHG  1   8  -1
M  END
>  <UniqueID>  (7) 
7

>  <SMILES>  (7) 
Cc1ccccc1[N-]C(=O)CCc1nc(-c2ccccc2C(F)(F)F)no1

>  <Energy>  (7) 
88.125861893071

>  <Genealogy>  (7) 
Cc1ccccc1[N-]C(=O)CCc1nc(-c2ccccc2C(F)(F)F)no1 (protonated)
Cc1ccccc1[N-]C(=O)CCc1nc(-c2ccccc2C(F)(F)F)no1 (3D coordinates assigned)
Cc1ccccc1[N-]C(=O)CCc1nc(-c2ccccc2C(F)(F)F)no1 (optimized conformer: 88.125861893071 kcal/mol)

>  <smiles>  (7) 
Cc1ccccc1NC(=O)CCc1nc(-c2ccccc2C(F)(F)F)no1

>  <score_type>  (7) 
oracle

>  <origin>  (7) 
adg

>  <m_score__min__energy>  (7) 
-9.9399999999999995

>  <m_primary>  (7) 
energy

$$$$
8:0
     RDKit          3D

 54 57  0  0  0  0  0  0  0  0999 V2000
   55.6150   25.4570   45.9610 C   0  0  0  0  0  0  0  0  0  0  0  0
   56.7310   25.7760   46.2860 C   0  0  0  0  0  0  0  0  0  0  0  0
   58.0890   26.1620   46.6820 C   0  0  0  0  0  0  0  0  0  0  0  0
   58.4550   27.4170   46.0360 N   0  0  0  0  0  0  0  0  0  0  0  0
   58.2150   28.6510   46.5160 C   0  0  0  0  0  0  0  0  0  0  0  0
   58.6570   29.5680   45.5810 C   0  0  0  0  0  0  0  0  0  0  0  0
   58.5570   31.0470   45.6600 C   0  0  0  0  0  0  0  0  0  0  0  0
   59.6060   31.7730   46.2520 C   0  0  0  0  0  0  0  0  0  0  0  0
   59.5340   33.1680   46.3880 C   0  0  0  0  0  0  0  0  0  0  0  0
   60.6540   33.9400   47.0590 C   0  0  0  0  0  0  0  0  0  0  0  0
   61.4910   33.1180   47.9620 N   0  0  0  0  0  0  0  0  0  0  0  0
   62.8250   32.7900   47.4080 C   0  0  0  0  0  0  0  0  0  0  0  0
   63.7940   32.3120   48.4930 C   0  0  0  0  0  0  0  0  0  0  0  0
   63.9270   33.3470   49.5270 N   0  0  0  0  0  0  0  0  0  0  0  0
   65.1580   33.4710   50.2700 C   0  0  0  0  0  0  0  0  0  0  0  0
   65.1350   33.9820   51.5330 N   0  0  0  0  0  0  0  0  0  0  0  0
   66.2720   34.1170   52.2620 C   0  0  0  0  0  0  0  0  0  0  0  0
   67.4930   33.7260   51.7190 C   0  0  0  0  0  0  0  0  0  0  0  0
   67.5080   33.1980   50.4310 C   0  0  0  0  0  0  0  0  0  0  0  0
   66.3500   33.0770   49.7290 N   0  0  0  0  0  0  0  0  0  0  0  0
   62.7740   34.2070   49.8290 C   0  0  0  0  0  0  0  0  0  0  0  0
   61.4660   33.5380   49.3830 C   0  0  0  0  0  0  0  0  0  0  0  0
   58.4210   33.8440   45.8720 C   0  0  0  0  0  0  0  0  0  0  0  0
   57.3810   33.1400   45.2660 C   0  0  0  0  0  0  0  0  0  0  0  0
   57.4350   31.7380   45.1510 C   0  0  0  0  0  0  0  0  0  0  0  0
   56.4110   31.0150   44.5170 O   0  0  0  0  0  0  0  0  0  0  0  0
   56.5120   30.4340   43.2210 C   0  0  0  0  0  0  0  0  0  0  0  0
   59.1420   28.8010   44.5330 C   0  0  0  0  0  0  0  0  0  0  0  0
   59.0010   27.4950   44.8330 N   0  0  0  0  0  0  0  0  0  0  0  0
   54.5965   25.1659   45.6644 H   0  0  0  0  0  0  0  0  0  0  0  0
   58.1287   26.2884   47.7740 H   0  0  0  0  0  0  0  0  0  0  0  0
   58.7941   25.3761   46.3735 H   0  0  0  0  0  0  0  0  0  0  0  0
   57.7485   28.8885   47.4835 H   0  0  0  0  0  0  0  0  0  0  0  0
   60.4969   31.2391   46.6141 H   0  0  0  0  0  0  0  0  0  0  0  0
   61.3009   34.3627   46.2761 H   0  0  0  0  0  0  0  0  0  0  0  0
   60.1807   34.7153   47.6794 H   0  0  0  0  0  0  0  0  0  0  0  0
   62.7120   31.9943   46.6570 H   0  0  0  0  0  0  0  0  0  0  0  0
   63.2410   33.7040   46.9591 H   0  0  0  0  0  0  0  0  0  0  0  0
   63.4073   31.3881   48.9477 H   0  0  0  0  0  0  0  0  0  0  0  0
   64.7786   32.1173   48.0428 H   0  0  0  0  0  0  0  0  0  0  0  0
   66.2289   34.5341   53.2789 H   0  0  0  0  0  0  0  0  0  0  0  0
   68.4244   33.8319   52.2945 H   0  0  0  0  0  0  0  0  0  0  0  0
   68.4590   32.8780   49.9802 H   0  0  0  0  0  0  0  0  0  0  0  0
   66.3930   32.6580   48.7750 H   0  0  0  0  0  0  0  0  0  0  0  0
   62.7344   34.3903   50.9129 H   0  0  0  0  0  0  0  0  0  0  0  0
   62.8889   35.1562   49.2851 H   0  0  0  0  0  0  0  0  0  0  0  0
   61.2943   32.6499   50.0090 H   0  0  0  0  0  0  0  0  0  0  0  0
   60.6603   34.2785   49.4953 H   0  0  0  0  0  0  0  0  0  0  0  0
   58.3669   34.9402   45.9455 H   0  0  0  0  0  0  0  0  0  0  0  0
   56.5099   33.6855   44.8740 H   0  0  0  0  0  0  0  0  0  0  0  0
   56.6997   29.3544   43.3168 H   0  0  0  0  0  0  0  0  0  0  0  0
   55.5723   30.5956   42.6725 H   0  0  0  0  0  0  0  0  0  0  0  0
   57.3420   30.9032   42.6725 H   0  0  0  0  0  0  0  0  0  0  0  0
   59.5743   29.1967   43.6021 H   0  0  0  0  0  0  0  0  0  0  0  0
  1  2  3  0
  2  3  1  0
  3  4  1  0
  4  5  1  0
  5  6  2  0
  6  7  1  0
  7  8  2  0
  8  9  1  0
  9 10  1  0
 10 11  1  0
 11 12  1  0
 12 13  1  0
 13 14  1  0
 14 15  1  0
 15 16  2  0
 16 17  1  0
 17 18  2  0
 18 19  1  0
 19 20  2  0
 14 21  1  0
 21 22  1  0
  9 23  2  0
 23 24  1  0
 24 25  2  0
 25 26  1  0
 26 27  1  0
  6 28  1  0
 28 29  2  0
 29  4  1  0
 25  7  1  0
 22 11  1  0
 20 15  1  0
  1 30  1  0
  3 31  1  0
  3 32  1  0
  5 33  1  0
  8 34  1  0
 10 35  1  0
 10 36  1  0
 12 37  1  0
 12 38  1  0
 13 39  1  0
 13 40  1  0
 17 41  1  0
 18 42  1  0
 19 43  1  0
 20 44  1  0
 21 45  1  0
 21 46  1  0
 22 47  1  0
 22 48  1  0
 23 49  1  0
 24 50  1  0
 27 51  1  0
 27 52  1  0
 27 53  1  0
 28 54  1  0
M  CHG  1  20   1
M  END
>  <UniqueID>  (8) 
8

>  <SMILES>  (8) 
C#CCn1cc(-c2cc(CN3CCN(c4nccc[nH+]4)CC3)ccc2OC)cn1

>  <Energy>  (8) 
98.45651429073312

>  <Genealogy>  (8) 
C#CCn1cc(-c2cc(CN3CCN(c4nccc[nH+]4)CC3)ccc2OC)cn1 (protonated)
C#CCn1cc(-c2cc(CN3CCN(c4nccc[nH+]4)CC3)ccc2OC)cn1 (3D coordinates assigned)
C#CCn1cc(-c2cc(CN3CCN(c4nccc[nH+]4)CC3)ccc2OC)cn1 (nonaromatic ring conformer: 98.45651429073312 kcal/mol)

>  <smiles>  (8) 
C#CCn1cc(-c2cc(CN3CCN(c4ncccn4)CC3)ccc2OC)cn1

>  <score_type>  (8) 
oracle

>  <origin>  (8) 
adg

>  <m_score__min__energy>  (8) 
-6.9699999999999998

>  <m_primary>  (8) 
energy

$$$$
9:0
     RDKit          3D

 42 44  0  0  0  0  0  0  0  0999 V2000
   60.4530   29.1000   44.9830 C   0  0  0  0  0  0  0  0  0  0  0  0
   60.4790   29.6820   46.3700 C   0  0  0  0  0  0  0  0  0  0  0  0
   61.5080   30.5640   46.7410 C   0  0  0  0  0  0  0  0  0  0  0  0
   61.5280   31.1290   48.0190 C   0  0  0  0  0  0  0  0  0  0  0  0
   62.9290   32.3320   48.5100 Br  0  0  0  0  0  0  0  0  0  0  0  0
   60.5170   30.8260   48.9330 C   0  0  0  0  0  0  0  0  0  0  0  0
   59.4880   29.9520   48.5760 C   0  0  0  0  0  0  0  0  0  0  0  0
   59.4680   29.3570   47.2990 C   0  0  0  0  0  0  0  0  0  0  0  0
   58.3890   28.5010   46.8910 N   0  0  0  0  0  0  0  0  0  0  0  0
   57.3170   28.8460   46.0060 C   0  0  0  0  0  0  0  0  0  0  0  0
   56.6780   27.9490   45.3970 O   0  0  0  0  0  0  0  0  0  0  0  0
   57.0210   30.2170   45.7330 N   0  0  0  0  0  0  0  0  0  0  0  0
   57.1720   30.8550   44.4570 C   0  0  0  0  0  0  0  0  0  0  0  0
   56.5490   30.2580   43.3530 C   0  0  0  0  0  0  0  0  0  0  0  0
   56.6650   30.8220   42.0810 C   0  0  0  0  0  0  0  0  0  0  0  0
   57.3850   32.0020   41.9030 C   0  0  0  0  0  0  0  0  0  0  0  0
   57.9830   32.6280   42.9980 C   0  0  0  0  0  0  0  0  0  0  0  0
   57.8830   32.0730   44.2880 C   0  0  0  0  0  0  0  0  0  0  0  0
   58.4400   32.7960   45.4050 N   0  0  0  0  0  0  0  0  0  0  0  0
   57.9120   32.5270   46.7530 C   0  0  0  0  0  0  0  0  0  0  0  0
   58.4890   33.4810   47.7960 C   0  0  0  0  0  0  0  0  0  0  0  0
   59.8530   33.7150   47.5340 O   0  0  0  0  0  0  0  0  0  0  0  0
   59.9620   34.5430   46.3990 C   0  0  0  0  0  0  0  0  0  0  0  0
   59.4210   33.8630   45.1290 C   0  0  0  0  0  0  0  0  0  0  0  0
   60.4040   28.0029   45.0466 H   0  0  0  0  0  0  0  0  0  0  0  0
   59.5707   29.4758   44.4441 H   0  0  0  0  0  0  0  0  0  0  0  0
   61.3652   29.3957   44.4441 H   0  0  0  0  0  0  0  0  0  0  0  0
   62.3024   30.8112   46.0213 H   0  0  0  0  0  0  0  0  0  0  0  0
   60.5310   31.2766   49.9364 H   0  0  0  0  0  0  0  0  0  0  0  0
   58.6879   29.7266   49.2964 H   0  0  0  0  0  0  0  0  0  0  0  0
   55.9634   29.3369   43.4896 H   0  0  0  0  0  0  0  0  0  0  0  0
   56.1875   30.3344   41.2183 H   0  0  0  0  0  0  0  0  0  0  0  0
   57.4821   32.4404   40.8988 H   0  0  0  0  0  0  0  0  0  0  0  0
   58.5388   33.5658   42.8513 H   0  0  0  0  0  0  0  0  0  0  0  0
   56.8180   32.6407   46.7348 H   0  0  0  0  0  0  0  0  0  0  0  0
   58.2019   31.5034   47.0326 H   0  0  0  0  0  0  0  0  0  0  0  0
   57.9423   34.4348   47.7590 H   0  0  0  0  0  0  0  0  0  0  0  0
   58.3857   33.0297   48.7938 H   0  0  0  0  0  0  0  0  0  0  0  0
   59.3905   35.4658   46.5775 H   0  0  0  0  0  0  0  0  0  0  0  0
   61.0289   34.7574   46.2387 H   0  0  0  0  0  0  0  0  0  0  0  0
   58.9370   34.6278   44.5039 H   0  0  0  0  0  0  0  0  0  0  0  0
   60.2775   33.3923   44.6242 H   0  0  0  0  0  0  0  0  0  0  0  0
  1  2  1  0
  2  3  2  0
  3  4  1  0
  4  5  1  0
  4  6  2  0
  6  7  1  0
  7  8  2  0
  8  9  1  0
  9 10  1  0
 10 11  2  0
 10 12  1  0
 12 13  1  0
 13 14  2  0
 14 15  1  0
 15 16  2  0
 16 17  1  0
 17 18  2  0
 18 19  1  0
 19 20  1  0
 20 21  1  0
 21 22  1  0
 22 23  1  0
 23 24  1  0
  8  2  1  0
 18 13  1  0
 24 19  1  0
  1 25  1  0
  1 26  1  0
  1 27  1  0
  3 28  1  0
  6 29  1  0
  7 30  1  0
 14 31  1  0
 15 32  1  0
 16 33  1  0
 17 34  1  0
 20 35  1  0
 20 36  1  0
 21 37  1  0
 21 38  1  0
 23 39  1  0
 23 40  1  0
 24 41  1  0
 24 42  1  0
M  CHG  2   9  -1  12  -1
M  END
>  <UniqueID>  (9) 
9

>  <SMILES>  (9) 
Cc1cc(Br)ccc1[N-]C(=O)[N-]c1ccccc1N1CCOCC1

>  <Energy>  (9) 
59.23573993569434

>  <Genealogy>  (9) 
Cc1cc(Br)ccc1[N-]C(=O)[N-]c1ccccc1N1CCOCC1 (protonated)
Cc1cc(Br)ccc1[N-]C(=O)[N-]c1ccccc1N1CCOCC1 (3D coordinates assigned)
Cc1cc(Br)ccc1[N-]C(=O)[N-]c1ccccc1N1CCOCC1 (nonaromatic ring conformer: 59.23573993569434 kcal/mol)

>  <smiles>  (9) 
Cc1cc(Br)ccc1NC(=O)Nc1ccccc1N1CCOCC1

>  <score_type>  (9) 
oracle

>  <origin>  (9) 
adg

>  <m_score__min__energy>  (9) 
-11.23

>  <m_primary>  (9) 
energy

$$$$
10:0
     RDKit          3D

 50 53  0  0  0  0  0  0  0  0999 V2000
   57.6640   31.9860   42.0030 C   0  0  0  0  0  0  0  0  0  0  0  0
   57.0290   31.1920   42.6500 C   0  0  0  0  0  0  0  0  0  0  0  0
   56.2550   30.2230   43.4340 C   0  0  0  0  0  0  0  0  0  0  0  0
   56.4620   30.4330   44.8310 O   0  0  0  0  0  0  0  0  0  0  0  0
   57.7110   30.4770   45.4730 C   0  0  0  0  0  0  0  0  0  0  0  0
   58.4010   29.3130   45.8600 C   0  0  0  0  0  0  0  0  0  0  0  0
   59.6200   29.4000   46.5310 C   0  0  0  0  0  0  0  0  0  0  0  0
   60.1900   30.6440   46.8040 C   0  0  0  0  0  0  0  0  0  0  0  0
   59.5280   31.8640   46.3500 C   0  0  0  0  0  0  0  0  0  0  0  0
   58.2690   31.7330   45.7320 C   0  0  0  0  0  0  0  0  0  0  0  0
   60.1890   33.2930   46.5500 C   0  0  1  0  0  0  0  0  0  0  0  0
   59.9800   34.1630   45.2840 C   0  0  0  0  0  0  0  0  0  0  0  0
   59.6650   34.0690   47.8540 C   0  0  0  0  0  0  0  0  0  0  0  0
   60.6550   34.1920   49.1220 C   0  0  0  0  0  0  0  0  0  0  0  0
   61.7630   33.1570   49.1990 N   0  0  0  0  0  0  0  0  0  0  0  0
   61.9980   32.5470   50.5270 C   0  0  0  0  0  0  0  0  0  0  0  0
   63.4780   32.5750   50.9660 C   0  0  0  0  0  0  0  0  0  0  0  0
   64.4230   31.9420   49.9540 C   0  0  0  0  0  0  0  0  0  0  0  0
   64.4190   33.4480   50.1460 C   0  0  0  0  0  0  0  0  0  0  0  0
   61.6840   32.2180   48.0700 C   0  0  2  0  0  0  0  0  0  0  0  0
   61.4420   30.7190   47.7500 C   0  0  0  0  0  0  0  0  0  0  0  0
   61.6820   33.0000   46.7410 C   0  0  2  0  0  0  0  0  0  0  0  0
   62.6500   34.2050   46.7030 C   0  0  0  0  0  0  0  0  0  0  0  0
   58.2436   32.7108   41.4124 H   0  0  0  0  0  0  0  0  0  0  0  0
   55.1859   30.3425   43.2042 H   0  0  0  0  0  0  0  0  0  0  0  0
   56.5869   29.2072   43.1732 H   0  0  0  0  0  0  0  0  0  0  0  0
   57.9745   28.3253   45.6309 H   0  0  0  0  0  0  0  0  0  0  0  0
   60.1360   28.4815   46.8474 H   0  0  0  0  0  0  0  0  0  0  0  0
   57.7127   32.6381   45.4469 H   0  0  0  0  0  0  0  0  0  0  0  0
   59.7327   35.1923   45.5831 H   0  0  0  0  0  0  0  0  0  0  0  0
   60.9028   34.1668   44.6853 H   0  0  0  0  0  0  0  0  0  0  0  0
   59.1562   33.7472   44.6853 H   0  0  0  0  0  0  0  0  0  0  0  0
   59.4069   35.0918   47.5422 H   0  0  0  0  0  0  0  0  0  0  0  0
   58.8316   33.4514   48.2200 H   0  0  0  0  0  0  0  0  0  0  0  0
   61.1240   35.1864   49.0886 H   0  0  0  0  0  0  0  0  0  0  0  0
   60.0265   34.0228   50.0088 H   0  0  0  0  0  0  0  0  0  0  0  0
   61.4036   33.0961   51.2722 H   0  0  0  0  0  0  0  0  0  0  0  0
   61.7029   31.4899   50.4536 H   0  0  0  0  0  0  0  0  0  0  0  0
   63.2754   32.4742   52.0425 H   0  0  0  0  0  0  0  0  0  0  0  0
   65.2802   31.3460   50.3003 H   0  0  0  0  0  0  0  0  0  0  0  0
   64.3016   31.2680   49.0932 H   0  0  0  0  0  0  0  0  0  0  0  0
   65.2732   33.9426   50.6315 H   0  0  0  0  0  0  0  0  0  0  0  0
   64.2934   34.3160   49.4820 H   0  0  0  0  0  0  0  0  0  0  0  0
   60.6042   32.4103   47.9856 H   0  0  0  0  0  0  0  0  0  0  0  0
   62.3222   30.2942   47.2452 H   0  0  0  0  0  0  0  0  0  0  0  0
   61.2703   30.1449   48.6724 H   0  0  0  0  0  0  0  0  0  0  0  0
   62.0970   32.4448   45.8869 H   0  0  0  0  0  0  0  0  0  0  0  0
   62.8955   34.5106   47.7308 H   0  0  0  0  0  0  0  0  0  0  0  0
   63.5718   33.9184   46.1756 H   0  0  0  0  0  0  0  0  0  0  0  0
   62.1714   35.0433   46.1756 H   0  0  0  0  0  0  0  0  0  0  0  0
  1  2  3  0
  2  3  1  0
  3  4  1  0
  4  5  1  0
  5  6  2  0
  6  7  1  0
  7  8  2  0
  8  9  1  0
  9 10  2  0
  9 11  1  0
 11 12  1  6
 11 13  1  0
 13 14  1  0
 14 15  1  0
 15 16  1  0
 16 17  1  0
 17 18  1  0
 18 19  1  0
 15 20  1  0
 20 21  1  0
 20 22  1  0
 22 23  1  0
 10  5  1  0
 22 11  1  0
 21  8  1  0
 19 17  1  0
  1 24  1  0
  3 25  1  0
  3 26  1  0
  6 27  1  0
  7 28  1  0
 10 29  1  0
 12 30  1  0
 12 31  1  0
 12 32  1  0
 13 33  1  0
 13 34  1  0
 14 35  1  0
 14 36  1  0
 16 37  1  0
 16 38  1  0
 17 39  1  0
 18 40  1  0
 18 41  1  0
 19 42  1  0
 19 43  1  0
 20 44  1  6
 21 45  1  0
 21 46  1  0
 22 47  1  6
 23 48  1  0
 23 49  1  0
 23 50  1  0
M  END
>  <UniqueID>  (10) 
10

>  <SMILES>  (10) 
C#CCOc1ccc2c(c1)[C@@]1(C)CCN(CC3CC3)[C@H](C2)C1C

>  <Energy>  (10) 
460.25887329938234

>  <Genealogy>  (10) 
C#CCOc1ccc2c(c1)[C@@]1(C)CCN(CC3CC3)[C@H](C2)C1C (chirality)
C#CCOc1ccc2c(c1)[C@@]1(C)CCN(CC3CC3)[C@H](C2)C1C (3D coordinates assigned)
C#CCOc1ccc2c(c1)[C@@]1(C)CCN(CC3CC3)[C@H](C2)C1C (nonaromatic ring conformer: 460.25887329938234 kcal/mol)

>  <smiles>  (10) 
C#CCOc1ccc2c(c1)C1(C)CCN(CC3CC3)C(C2)C1C

>  <score_type>  (10) 
oracle

>  <origin>  (10) 
adg

>  <m_score__min__energy>  (10) 
-8.0199999999999996

>  <m_primary>  (10) 
energy

$$$$
11:0
     RDKit          3D

 46 48  0  0  0  0  0  0  0  0999 V2000
   58.5460   34.1250   44.7630 C   0  0  0  0  0  0  0  0  0  0  0  0
   58.3990   32.7640   44.0990 C   0  0  2  0  0  0  0  0  0  0  0  0
   58.1580   32.9370   42.7480 F   0  0  0  0  0  0  0  0  0  0  0  0
   57.0080   31.8540   44.8560 S   0  0  0  0  0  0  0  0  0  0  0  0
   56.6410   30.7950   43.4080 C   0  0  0  0  0  0  0  0  0  0  0  0
   55.4760   29.8470   43.7040 C   0  0  0  0  0  0  0  0  0  0  0  0
   55.7450   29.0290   44.8960 N   0  0  0  0  0  0  0  0  0  0  0  0
   57.1620   28.6430   45.0260 C   0  0  0  0  0  0  0  0  0  0  0  0
   57.4900   27.9550   46.3740 C   0  0  0  0  0  0  0  0  0  0  0  0
   57.1730   26.5240   46.3460 N   0  0  0  0  0  0  0  0  0  0  0  0
   55.9480   25.9710   46.1840 C   0  0  0  0  0  0  0  0  0  0  0  0
   54.7760   26.6960   45.9990 O   0  0  0  0  0  0  0  0  0  0  0  0
   56.0440   24.5950   46.1450 C   0  0  0  0  0  0  0  0  0  0  0  0
   57.3730   24.2900   46.2320 C   0  0  0  0  0  0  0  0  0  0  0  0
   58.0510   25.4900   46.3190 C   0  0  0  0  0  0  0  0  0  0  0  0
   59.4380   25.6200   46.2890 O   0  0  0  0  0  0  0  0  0  0  0  0
   57.6090   23.0920   45.3510 C   0  0  1  0  0  0  0  0  0  0  0  0
   56.9330   21.9010   46.0710 C   0  0  0  0  0  0  0  0  0  0  0  0
   55.4170   22.2510   45.9690 C   0  0  0  0  0  0  0  0  0  0  0  0
   55.4230   23.5960   45.2050 C   0  0  2  0  0  0  0  0  0  0  0  0
   56.5840   23.3320   44.2350 C   0  0  1  0  0  0  0  0  0  0  0  0
   56.9160   24.4720   43.2530 C   0  0  0  0  0  0  0  0  0  0  0  0
   58.5328   34.0030   45.8561 H   0  0  0  0  0  0  0  0  0  0  0  0
   59.4987   34.5815   44.4565 H   0  0  0  0  0  0  0  0  0  0  0  0
   57.7128   34.7744   44.4565 H   0  0  0  0  0  0  0  0  0  0  0  0
   59.3259   32.1881   44.2380 H   0  0  0  0  0  0  0  0  0  0  0  0
   57.5337   30.2018   43.1605 H   0  0  0  0  0  0  0  0  0  0  0  0
   56.3615   31.4410   42.5627 H   0  0  0  0  0  0  0  0  0  0  0  0
   55.3253   29.1831   42.8399 H   0  0  0  0  0  0  0  0  0  0  0  0
   54.5755   30.4502   43.8918 H   0  0  0  0  0  0  0  0  0  0  0  0
   55.1380   28.1780   44.8830 H   0  0  0  0  0  0  0  0  0  0  0  0
   57.7798   29.5488   44.9372 H   0  0  0  0  0  0  0  0  0  0  0  0
   57.3751   27.9151   44.2292 H   0  0  0  0  0  0  0  0  0  0  0  0
   56.9023   28.4344   47.1707 H   0  0  0  0  0  0  0  0  0  0  0  0
   58.5689   28.0627   46.5593 H   0  0  0  0  0  0  0  0  0  0  0  0
   59.8920   26.5120   46.4440 H   0  0  0  0  0  0  0  0  0  0  0  0
   58.6643   22.9395   45.0808 H   0  0  0  0  0  0  0  0  0  0  0  0
   57.1557   20.9519   45.5615 H   0  0  0  0  0  0  0  0  0  0  0  0
   57.2797   21.7642   47.1059 H   0  0  0  0  0  0  0  0  0  0  0  0
   54.8697   21.4795   45.4076 H   0  0  0  0  0  0  0  0  0  0  0  0
   54.9181   22.3097   46.9476 H   0  0  0  0  0  0  0  0  0  0  0  0
   54.4507   23.9116   44.7987 H   0  0  0  0  0  0  0  0  0  0  0  0
   56.4506   22.5426   43.4807 H   0  0  0  0  0  0  0  0  0  0  0  0
   57.1798   25.3779   43.8185 H   0  0  0  0  0  0  0  0  0  0  0  0
   57.7649   24.1749   42.6197 H   0  0  0  0  0  0  0  0  0  0  0  0
   56.0403   24.6771   42.6197 H   0  0  0  0  0  0  0  0  0  0  0  0
  1  2  1  0
  2  3  1  0
  2  4  1  0
  4  5  1  0
  5  6  1  0
  6  7  1  0
  7  8  1  0
  8  9  1  0
  9 10  1  0
 10 11  1  0
 11 12  1  0
 11 13  2  0
 13 14  1  0
 14 15  2  0
 15 16  1  0
 14 17  1  0
 17 18  1  0
 18 19  1  0
 19 20  1  0
 20 21  1  0
 21 22  1  0
 15 10  1  0
 21 17  1  0
 20 13  1  0
  1 23  1  0
  1 24  1  0
  1 25  1  0
  2 26  1  6
  5 27  1  0
  5 28  1  0
  6 29  1  0
  6 30  1  0
  7 31  1  0
  8 32  1  0
  8 33  1  0
  9 34  1  0
  9 35  1  0
 16 36  1  0
 17 37  1  6
 18 38  1  0
 18 39  1  0
 19 40  1  0
 19 41  1  0
 20 42  1  6
 21 43  1  6
 22 44  1  0
 22 45  1  0
 22 46  1  0
M  CHG  1  12  -1
M  END
>  <UniqueID>  (11) 
11

>  <SMILES>  (11) 
CC1C2CC[C@@H]1c1c2c([O-])n(CCNCCS[C@H](C)F)c1O

>  <Energy>  (11) 
132.07280507609065

>  <Genealogy>  (11) 
CC(F)SCCNCCn1c([O-])c2c(c1O)C1CCC2C1C (protonated)
CC1C2CC[C@@H]1c1c2c([O-])n(CCNCCS[C@H](C)F)c1O (chirality)
CC1C2CC[C@@H]1c1c2c([O-])n(CCNCCS[C@H](C)F)c1O (3D coordinates assigned)
CC1C2CC[C@@H]1c1c2c([O-])n(CCNCCS[C@H](C)F)c1O (nonaromatic ring conformer: 132.07280507609065 kcal/mol)

>  <smiles>  (11) 
CC(F)SCCNCCn1c(O)c2c(c1O)C1CCC2C1C

>  <score_type>  (11) 
oracle

>  <origin>  (11) 
adg

>  <m_score__min__energy>  (11) 
-10.69

>  <m_primary>  (11) 
energy

$$$$
12:0
     RDKit          3D

 46 49  0  0  0  0  0  0  0  0999 V2000
   66.2940   31.9100   50.5230 C   0  0  0  0  0  0  0  0  0  0  0  0
   65.6570   33.1180   50.1220 O   0  0  0  0  0  0  0  0  0  0  0  0
   64.3990   33.1820   49.5040 C   0  0  0  0  0  0  0  0  0  0  0  0
   64.0400   32.3420   48.4340 C   0  0  0  0  0  0  0  0  0  0  0  0
   62.7720   32.4440   47.8530 C   0  0  0  0  0  0  0  0  0  0  0  0
   61.8410   33.3760   48.3390 C   0  0  0  0  0  0  0  0  0  0  0  0
   60.5400   33.4940   47.7410 N   0  0  0  0  0  0  0  0  0  0  0  0
   60.3390   33.8180   46.4770 N   0  0  0  0  0  0  0  0  0  0  0  0
   59.0180   33.7140   46.2500 C   0  0  0  0  0  0  0  0  0  0  0  0
   58.3640   34.0510   44.9480 C   0  0  0  0  0  0  0  0  0  0  0  0
   57.8960   32.7930   44.2720 C   0  0  0  0  0  0  0  0  0  0  0  0
   57.4230   31.7110   45.0360 C   0  0  0  0  0  0  0  0  0  0  0  0
   56.9520   30.5560   44.4040 C   0  0  0  0  0  0  0  0  0  0  0  0
   56.9410   30.4760   43.0090 C   0  0  0  0  0  0  0  0  0  0  0  0
   57.3960   31.5530   42.2430 C   0  0  0  0  0  0  0  0  0  0  0  0
   57.8680   32.7100   42.8700 C   0  0  0  0  0  0  0  0  0  0  0  0
   58.3390   33.3490   47.3590 N   0  0  0  0  0  0  0  0  0  0  0  0
   59.3250   33.2170   48.2750 C   0  0  0  0  0  0  0  0  0  0  0  0
   59.0530   32.8920   49.6920 C   0  0  0  0  0  0  0  0  0  0  0  0
   58.4770   31.6560   50.0250 C   0  0  0  0  0  0  0  0  0  0  0  0
   58.1990   31.3410   51.3590 C   0  0  0  0  0  0  0  0  0  0  0  0
   58.4810   32.2660   52.3690 C   0  0  0  0  0  0  0  0  0  0  0  0
   59.0330   33.5080   52.0450 C   0  0  0  0  0  0  0  0  0  0  0  0
   59.3100   33.8260   50.7130 C   0  0  0  0  0  0  0  0  0  0  0  0
   62.2080   34.2240   49.3940 C   0  0  0  0  0  0  0  0  0  0  0  0
   63.4750   34.1220   49.9730 C   0  0  0  0  0  0  0  0  0  0  0  0
   66.3218   31.8573   51.6214 H   0  0  0  0  0  0  0  0  0  0  0  0
   65.7318   31.0506   50.1288 H   0  0  0  0  0  0  0  0  0  0  0  0
   67.3207   31.8885   50.1288 H   0  0  0  0  0  0  0  0  0  0  0  0
   64.7594   31.6022   48.0530 H   0  0  0  0  0  0  0  0  0  0  0  0
   62.5024   31.7903   47.0104 H   0  0  0  0  0  0  0  0  0  0  0  0
   61.0810   34.0730   45.7860 H   0  0  0  0  0  0  0  0  0  0  0  0
   57.5019   34.7089   45.1320 H   0  0  0  0  0  0  0  0  0  0  0  0
   59.0897   34.5632   44.2992 H   0  0  0  0  0  0  0  0  0  0  0  0
   57.4236   31.7736   46.1342 H   0  0  0  0  0  0  0  0  0  0  0  0
   56.5897   29.7094   45.0057 H   0  0  0  0  0  0  0  0  0  0  0  0
   56.5741   29.5651   42.5134 H   0  0  0  0  0  0  0  0  0  0  0  0
   57.3827   31.4901   41.1449 H   0  0  0  0  0  0  0  0  0  0  0  0
   58.2186   33.5581   42.2635 H   0  0  0  0  0  0  0  0  0  0  0  0
   58.2428   30.9307   49.2319 H   0  0  0  0  0  0  0  0  0  0  0  0
   57.7586   30.3657   51.6136 H   0  0  0  0  0  0  0  0  0  0  0  0
   58.2682   32.0158   53.4188 H   0  0  0  0  0  0  0  0  0  0  0  0
   59.2499   34.2367   52.8400 H   0  0  0  0  0  0  0  0  0  0  0  0
   59.7308   34.8106   50.4612 H   0  0  0  0  0  0  0  0  0  0  0  0
   61.4944   34.9733   49.7674 H   0  0  0  0  0  0  0  0  0  0  0  0
   63.7488   34.7869   50.8054 H   0  0  0  0  0  0  0  0  0  0  0  0
  1  2  1  0
  2  3  1  0
  3  4  2  0
  4  5  1  0
  5  6  2  0
  6  7  1  0
  7  8  1  0
  8  9  2  0
  9 10  1  0
 10 11  1  0
 11 12  2  0
 12 13  1  0
 13 14  2  0
 14 15  1  0
 15 16  2  0
  9 17  1  0
 17 18  2  0
 18 19  1  0
 19 20  2  0
 20 21  1  0
 21 22  2  0
 22 23  1  0
 23 24  2  0
  6 25  1  0
 25 26  2  0
 26  3  1  0
 18  7  1  0
 24 19  1  0
 16 11  1  0
  1 27  1  0
  1 28  1  0
  1 29  1  0
  4 30  1  0
  5 31  1  0
  8 32  1  0
 10 33  1  0
 10 34  1  0
 12 35  1  0
 13 36  1  0
 14 37  1  0
 15 38  1  0
 16 39  1  0
 20 40  1  0
 21 41  1  0
 22 42  1  0
 23 43  1  0
 24 44  1  0
 25 45  1  0
 26 46  1  0
M  CHG  1   8   1
M  END
>  <UniqueID>  (12) 
12

>  <SMILES>  (12) 
COc1ccc(-n2[nH+]c(Cc3ccccc3)nc2-c2ccccc2)cc1

>  <Energy>  (12) 
90.43479142996141

>  <Genealogy>  (12) 
COc1ccc(-n2[nH+]c(Cc3ccccc3)nc2-c2ccccc2)cc1 (protonated)
COc1ccc(-n2[nH+]c(Cc3ccccc3)nc2-c2ccccc2)cc1 (3D coordinates assigned)
COc1ccc(-n2[nH+]c(Cc3ccccc3)nc2-c2ccccc2)cc1 (optimized conformer: 90.43479142996141 kcal/mol)

>  <smiles>  (12) 
COc1ccc(-n2nc(Cc3ccccc3)nc2-c2ccccc2)cc1

>  <score_type>  (12) 
oracle

>  <origin>  (12) 
adg

>  <m_score__min__energy>  (12) 
-6.5899999999999999

>  <m_primary>  (12) 
energy

$$$$
13:0
     RDKit          3D

 50 52  0  0  0  0  0  0  0  0999 V2000
   58.6560   25.6700   46.7370 C   0  0  0  0  0  0  0  0  0  0  0  0
   58.3530   26.8050   47.7080 C   0  0  0  0  0  0  0  0  0  0  0  0
   58.5450   28.1040   47.0570 N   0  0  0  0  0  0  0  0  0  0  0  0
   57.8600   28.6350   46.0050 C   0  0  0  0  0  0  0  0  0  0  0  0
   56.6940   27.9770   45.3260 C   0  0  0  0  0  0  0  0  0  0  0  0
   55.7020   28.9650   44.9160 N   0  0  0  0  0  0  0  0  0  0  0  0
   55.9560   30.0970   44.0740 C   0  0  0  0  0  0  0  0  0  0  0  0
   56.2930   29.9470   42.6220 C   0  0  0  0  0  0  0  0  0  0  0  0
   55.8570   31.2540   44.5630 O   0  0  0  0  0  0  0  0  0  0  0  0
   58.3270   29.8520   45.6190 N   0  0  0  0  0  0  0  0  0  0  0  0
   59.3480   30.0700   46.4660 C   0  0  0  0  0  0  0  0  0  0  0  0
   60.1880   31.1790   46.5120 C   0  0  0  0  0  0  0  0  0  0  0  0
   61.2120   31.2000   47.4880 C   0  0  0  0  0  0  0  0  0  0  0  0
   62.0870   32.3410   47.5940 N   0  0  0  0  0  0  0  0  0  0  0  0
   62.0560   32.8700   48.9650 C   0  0  0  0  0  0  0  0  0  0  0  0
   60.9740   33.9470   49.1220 C   0  0  0  0  0  0  0  0  0  0  0  0
   60.6960   34.5880   47.8760 O   0  0  0  0  0  0  0  0  0  0  0  0
   59.5830   34.3350   47.0570 C   0  0  0  0  0  0  0  0  0  0  0  0
   59.6210   34.7910   45.7330 C   0  0  0  0  0  0  0  0  0  0  0  0
   58.5410   34.5670   44.8740 C   0  0  0  0  0  0  0  0  0  0  0  0
   57.4110   33.8850   45.3320 C   0  0  0  0  0  0  0  0  0  0  0  0
   57.3590   33.4310   46.6530 C   0  0  0  0  0  0  0  0  0  0  0  0
   58.4370   33.6540   47.5150 C   0  0  0  0  0  0  0  0  0  0  0  0
   61.3400   30.1130   48.3930 C   0  0  0  0  0  0  0  0  0  0  0  0
   60.4740   29.0070   48.3160 C   0  0  0  0  0  0  0  0  0  0  0  0
   59.4850   29.0240   47.3310 C   0  0  0  0  0  0  0  0  0  0  0  0
   58.8993   24.7586   47.3028 H   0  0  0  0  0  0  0  0  0  0  0  0
   57.7759   25.4845   46.1037 H   0  0  0  0  0  0  0  0  0  0  0  0
   59.5114   25.9478   46.1037 H   0  0  0  0  0  0  0  0  0  0  0  0
   57.3103   26.7214   48.0482 H   0  0  0  0  0  0  0  0  0  0  0  0
   59.0390   26.7322   48.5648 H   0  0  0  0  0  0  0  0  0  0  0  0
   57.0530   27.4374   44.4372 H   0  0  0  0  0  0  0  0  0  0  0  0
   56.2227   27.2807   46.0353 H   0  0  0  0  0  0  0  0  0  0  0  0
   57.2938   29.5015   42.5220 H   0  0  0  0  0  0  0  0  0  0  0  0
   55.5511   29.2941   42.1389 H   0  0  0  0  0  0  0  0  0  0  0  0
   56.2816   30.9352   42.1389 H   0  0  0  0  0  0  0  0  0  0  0  0
   60.0593   32.0155   45.8093 H   0  0  0  0  0  0  0  0  0  0  0  0
   63.0650   32.0610   47.3430 H   0  0  0  0  0  0  0  0  0  0  0  0
   61.7780   33.0790   46.9180 H   0  0  0  0  0  0  0  0  0  0  0  0
   61.8454   32.0459   49.6625 H   0  0  0  0  0  0  0  0  0  0  0  0
   63.0333   33.3247   49.1842 H   0  0  0  0  0  0  0  0  0  0  0  0
   60.0526   33.4775   49.4970 H   0  0  0  0  0  0  0  0  0  0  0  0
   61.3393   34.7060   49.8294 H   0  0  0  0  0  0  0  0  0  0  0  0
   60.5074   35.3294   45.3664 H   0  0  0  0  0  0  0  0  0  0  0  0
   58.5810   34.9283   43.8358 H   0  0  0  0  0  0  0  0  0  0  0  0
   56.5635   33.7056   44.6541 H   0  0  0  0  0  0  0  0  0  0  0  0
   56.4680   32.8971   47.0152 H   0  0  0  0  0  0  0  0  0  0  0  0
   58.3906   33.2967   48.5543 H   0  0  0  0  0  0  0  0  0  0  0  0
   62.1253   30.1361   49.1630 H   0  0  0  0  0  0  0  0  0  0  0  0
   60.5728   28.1579   49.0083 H   0  0  0  0  0  0  0  0  0  0  0  0
  1  2  1  0
  2  3  1  0
  3  4  1  0
  4  5  1  0
  5  6  1  0
  6  7  1  0
  7  8  1  0
  7  9  2  0
  4 10  2  0
 10 11  1  0
 11 12  2  0
 12 13  1  0
 13 14  1  0
 14 15  1  0
 15 16  1  0
 16 17  1  0
 17 18  1  0
 18 19  2  0
 19 20  1  0
 20 21  2  0
 21 22  1  0
 22 23  2  0
 13 24  2  0
 24 25  1  0
 25 26  2  0
 26  3  1  0
 26 11  1  0
 23 18  1  0
  1 27  1  0
  1 28  1  0
  1 29  1  0
  2 30  1  0
  2 31  1  0
  5 32  1  0
  5 33  1  0
  8 34  1  0
  8 35  1  0
  8 36  1  0
 12 37  1  0
 14 38  1  0
 14 39  1  0
 15 40  1  0
 15 41  1  0
 16 42  1  0
 16 43  1  0
 19 44  1  0
 20 45  1  0
 21 46  1  0
 22 47  1  0
 23 48  1  0
 24 49  1  0
 25 50  1  0
M  CHG  2   6  -1  14   1
M  END
>  <UniqueID>  (13) 
13

>  <SMILES>  (13) 
CCn1c(C[N-]C(C)=O)nc2cc([NH2+]CCOc3ccccc3)ccc21

>  <Energy>  (13) 
80.23883756079148

>  <Genealogy>  (13) 
CCn1c(C[N-]C(C)=O)nc2cc([NH2+]CCOc3ccccc3)ccc21 (protonated)
CCn1c(C[N-]C(C)=O)nc2cc([NH2+]CCOc3ccccc3)ccc21 (3D coordinates assigned)
CCn1c(C[N-]C(C)=O)nc2cc([NH2+]CCOc3ccccc3)ccc21 (optimized conformer: 80.23883756079148 kcal/mol)

>  <smiles>  (13) 
CCn1c(CNC(C)=O)nc2cc(NCCOc3ccccc3)ccc21

>  <score_type>  (13) 
oracle

>  <origin>  (13) 
adg

>  <m_score__min__energy>  (13) 
-8.6099999999999994

>  <m_primary>  (13) 
energy

$$$$
14:0
     RDKit          3D

 43 46  0  0  0  0  0  0  0  0999 V2000
   55.4230   24.7860   45.5920 C   0  0  0  0  0  0  0  0  0  0  0  0
   55.6460   26.1330   45.9940 O   0  0  0  0  0  0  0  0  0  0  0  0
   56.8800   26.7950   45.9040 C   0  0  0  0  0  0  0  0  0  0  0  0
   58.0360   26.0240   45.7560 C   0  0  0  0  0  0  0  0  0  0  0  0
   59.2870   26.6350   45.6620 C   0  0  0  0  0  0  0  0  0  0  0  0
   59.3960   28.0270   45.7140 C   0  0  0  0  0  0  0  0  0  0  0  0
   58.2470   28.8260   45.8610 C   0  0  0  0  0  0  0  0  0  0  0  0
   58.3420   30.3060   45.9190 C   0  0  0  0  0  0  0  0  0  0  0  0
   59.0500   31.0570   46.8690 C   0  0  0  0  0  0  0  0  0  0  0  0
   58.8510   32.3350   46.5370 N   0  0  0  0  0  0  0  0  0  0  0  0
   59.2010   33.5580   46.9960 C   0  0  0  0  0  0  0  0  0  0  0  0
   60.0610   33.7730   48.2060 C   0  0  0  0  0  0  0  0  0  0  0  0
   61.4580   33.3970   47.9140 N   0  0  0  0  0  0  0  0  0  0  0  0
   61.8570   33.8850   46.5770 C   0  0  0  0  0  0  0  0  0  0  0  0
   63.3820   33.7770   46.3570 C   0  0  0  0  0  0  0  0  0  0  0  0
   64.0050   32.8740   47.3330 N   0  0  0  0  0  0  0  0  0  0  0  0
   63.8000   33.3560   48.7090 C   0  0  0  0  0  0  0  0  0  0  0  0
   62.3810   33.9150   48.9400 C   0  0  0  0  0  0  0  0  0  0  0  0
   58.6560   34.5860   46.2090 C   0  0  0  0  0  0  0  0  0  0  0  0
   57.7270   33.8960   44.9420 S   0  0  0  0  0  0  0  0  0  0  0  0
   58.0820   32.3450   45.4720 C   0  0  0  0  0  0  0  0  0  0  0  0
   57.7200   31.1310   45.0250 N   0  0  0  0  0  0  0  0  0  0  0  0
   56.9900   28.1990   45.9560 C   0  0  0  0  0  0  0  0  0  0  0  0
   55.3177   24.1500   46.4833 H   0  0  0  0  0  0  0  0  0  0  0  0
   54.5034   24.7302   44.9910 H   0  0  0  0  0  0  0  0  0  0  0  0
   56.2756   24.4368   44.9910 H   0  0  0  0  0  0  0  0  0  0  0  0
   57.9593   24.9275   45.7133 H   0  0  0  0  0  0  0  0  0  0  0  0
   60.1907   26.0185   45.5465 H   0  0  0  0  0  0  0  0  0  0  0  0
   60.3858   28.5011   45.6396 H   0  0  0  0  0  0  0  0  0  0  0  0
   59.6446   30.6734   47.7112 H   0  0  0  0  0  0  0  0  0  0  0  0
   60.0233   34.8339   48.4943 H   0  0  0  0  0  0  0  0  0  0  0  0
   59.6857   33.1459   49.0281 H   0  0  0  0  0  0  0  0  0  0  0  0
   61.3437   33.2848   45.8114 H   0  0  0  0  0  0  0  0  0  0  0  0
   61.5757   34.9459   46.5029 H   0  0  0  0  0  0  0  0  0  0  0  0
   63.5704   33.3927   45.3437 H   0  0  0  0  0  0  0  0  0  0  0  0
   63.8203   34.7778   46.4846 H   0  0  0  0  0  0  0  0  0  0  0  0
   63.5670   31.9260   47.2370 H   0  0  0  0  0  0  0  0  0  0  0  0
   63.9656   32.5189   49.4032 H   0  0  0  0  0  0  0  0  0  0  0  0
   64.5120   34.1763   48.8827 H   0  0  0  0  0  0  0  0  0  0  0  0
   62.0271   33.6086   49.9354 H   0  0  0  0  0  0  0  0  0  0  0  0
   62.4119   35.0126   48.8745 H   0  0  0  0  0  0  0  0  0  0  0  0
   58.8017   35.6631   46.3782 H   0  0  0  0  0  0  0  0  0  0  0  0
   56.0839   28.8117   46.0721 H   0  0  0  0  0  0  0  0  0  0  0  0
  1  2  1  0
  2  3  1  0
  3  4  2  0
  4  5  1  0
  5  6  2  0
  6  7  1  0
  7  8  1  0
  8  9  2  0
  9 10  1  0
 10 11  1  0
 11 12  1  0
 12 13  1  0
 13 14  1  0
 14 15  1  0
 15 16  1  0
 16 17  1  0
 17 18  1  0
 11 19  2  0
 19 20  1  0
 20 21  1  0
 21 22  2  0
  7 23  2  0
 23  3  1  0
 22  8  1  0
 21 10  1  0
 18 13  1  0
  1 24  1  0
  1 25  1  0
  1 26  1  0
  4 27  1  0
  5 28  1  0
  6 29  1  0
  9 30  1  0
 12 31  1  0
 12 32  1  0
 14 33  1  0
 14 34  1  0
 15 35  1  0
 15 36  1  0
 16 37  1  0
 17 38  1  0
 17 39  1  0
 18 40  1  0
 18 41  1  0
 19 42  1  0
 23 43  1  0
M  END
>  <UniqueID>  (14) 
14

>  <SMILES>  (14) 
COc1cccc(-c2cn3c(CN4CCNCC4)csc3n2)c1

>  <Energy>  (14) 
130.414971900951

>  <Genealogy>  (14) 
COc1cccc(-c2cn3c(CN4CCNCC4)csc3n2)c1 (3D coordinates assigned)
COc1cccc(-c2cn3c(CN4CCNCC4)csc3n2)c1 (nonaromatic ring conformer: 130.414971900951 kcal/mol)

>  <smiles>  (14) 
COc1cccc(-c2cn3c(CN4CCNCC4)csc3n2)c1

>  <score_type>  (14) 
oracle

>  <origin>  (14) 
adg

>  <m_score__min__energy>  (14) 
-7.75

>  <m_primary>  (14) 
energy

$$$$
15:0
     RDKit          3D

 37 38  0  0  0  0  0  0  0  0999 V2000
   60.7170   27.3490   49.1330 C   0  0  0  0  0  0  0  0  0  0  0  0
   60.7250   27.3990   47.7100 O   0  0  0  0  0  0  0  0  0  0  0  0
   59.7480   28.0380   46.9310 C   0  0  0  0  0  0  0  0  0  0  0  0
   59.9990   29.2520   46.2650 C   0  0  0  0  0  0  0  0  0  0  0  0
   59.0020   29.8570   45.4980 C   0  0  0  0  0  0  0  0  0  0  0  0
   57.7420   29.2600   45.3830 C   0  0  0  0  0  0  0  0  0  0  0  0
   56.4830   29.9990   44.4000 S   0  0  0  0  0  0  0  0  0  0  0  0
   55.1770   29.2710   44.5570 O   0  0  0  0  0  0  0  0  0  0  0  0
   56.9010   29.9430   42.9570 O   0  0  0  0  0  0  0  0  0  0  0  0
   56.2750   31.6550   44.8690 N   0  0  0  0  0  0  0  0  0  0  0  0
   57.3360   32.5600   45.2170 C   0  0  0  0  0  0  0  0  0  0  0  0
   57.5080   33.0190   46.5380 C   0  0  0  0  0  0  0  0  0  0  0  0
   58.5540   33.8880   46.8530 C   0  0  0  0  0  0  0  0  0  0  0  0
   59.4350   34.3140   45.8590 C   0  0  0  0  0  0  0  0  0  0  0  0
   59.2710   33.8760   44.5440 C   0  0  0  0  0  0  0  0  0  0  0  0
   58.2230   33.0010   44.2120 C   0  0  0  0  0  0  0  0  0  0  0  0
   58.0560   32.5420   42.7890 C   0  0  0  0  0  0  0  0  0  0  0  0
   57.4850   28.0520   46.0430 C   0  0  0  0  0  0  0  0  0  0  0  0
   58.4840   27.4360   46.8210 C   0  0  0  0  0  0  0  0  0  0  0  0
   58.2610   26.2240   47.4960 O   0  0  0  0  0  0  0  0  0  0  0  0
   57.3780   25.2030   47.0460 C   0  0  0  0  0  0  0  0  0  0  0  0
   60.8787   28.3595   49.5363 H   0  0  0  0  0  0  0  0  0  0  0  0
   59.7462   26.9663   49.4810 H   0  0  0  0  0  0  0  0  0  0  0  0
   61.5199   26.6825   49.4810 H   0  0  0  0  0  0  0  0  0  0  0  0
   60.9874   29.7273   46.3494 H   0  0  0  0  0  0  0  0  0  0  0  0
   59.2077   30.8065   44.9822 H   0  0  0  0  0  0  0  0  0  0  0  0
   56.8139   32.6906   47.3257 H   0  0  0  0  0  0  0  0  0  0  0  0
   58.6839   34.2378   47.8878 H   0  0  0  0  0  0  0  0  0  0  0  0
   60.2601   34.9961   46.1119 H   0  0  0  0  0  0  0  0  0  0  0  0
   59.9662   34.2178   43.7630 H   0  0  0  0  0  0  0  0  0  0  0  0
   57.6799   31.5083   42.7789 H   0  0  0  0  0  0  0  0  0  0  0  0
   57.3390   33.1981   42.2738 H   0  0  0  0  0  0  0  0  0  0  0  0
   59.0270   32.5840   42.2738 H   0  0  0  0  0  0  0  0  0  0  0  0
   56.4952   27.5807   45.9530 H   0  0  0  0  0  0  0  0  0  0  0  0
   56.9359   24.6918   47.9139 H   0  0  0  0  0  0  0  0  0  0  0  0
   56.5784   25.6514   46.4381 H   0  0  0  0  0  0  0  0  0  0  0  0
   57.9371   24.4764   46.4381 H   0  0  0  0  0  0  0  0  0  0  0  0
  1  2  1  0
  2  3  1  0
  3  4  2  0
  4  5  1  0
  5  6  2  0
  6  7  1  0
  7  8  2  0
  7  9  2  0
  7 10  1  0
 10 11  1  0
 11 12  2  0
 12 13  1  0
 13 14  2  0
 14 15  1  0
 15 16  2  0
 16 17  1  0
  6 18  1  0
 18 19  2  0
 19 20  1  0
 20 21  1  0
 19  3  1  0
 16 11  1  0
  1 22  1  0
  1 23  1  0
  1 24  1  0
  4 25  1  0
  5 26  1  0
 12 27  1  0
 13 28  1  0
 14 29  1  0
 15 30  1  0
 17 31  1  0
 17 32  1  0
 17 33  1  0
 18 34  1  0
 21 35  1  0
 21 36  1  0
 21 37  1  0
M  CHG  1  10  -1
M  END
>  <UniqueID>  (15) 
15

>  <SMILES>  (15) 
COc1ccc(S(=O)(=O)[N-]c2ccccc2C)cc1OC

>  <Energy>  (15) 
39.1490266427662

>  <Genealogy>  (15) 
COc1ccc(S(=O)(=O)[N-]c2ccccc2C)cc1OC (protonated)
COc1ccc(S(=O)(=O)[N-]c2ccccc2C)cc1OC (3D coordinates assigned)
COc1ccc(S(=O)(=O)[N-]c2ccccc2C)cc1OC (optimized conformer: 39.1490266427662 kcal/mol)

>  <smiles>  (15) 
COc1ccc(S(=O)(=O)Nc2ccccc2C)cc1OC

>  <score_type>  (15) 
oracle

>  <origin>  (15) 
adg

>  <m_score__min__energy>  (15) 
-8.1300000000000008

>  <m_primary>  (15) 
energy

$$$$
16:0
     RDKit          3D

 44 46  0  0  0  0  0  0  0  0999 V2000
   59.8920   30.0800   48.8940 C   0  0  0  0  0  0  0  0  0  0  0  0
   58.9150   28.9560   48.5080 C   0  0  0  0  0  0  0  0  0  0  0  0
   58.8680   28.6420   47.0580 N   0  0  0  0  0  0  0  0  0  0  0  0
   58.4830   27.2310   46.8000 C   0  0  0  0  0  0  0  0  0  0  0  0
   58.9900   26.7050   45.4370 C   0  0  0  0  0  0  0  0  0  0  0  0
   59.0670   27.7630   44.4070 N   0  0  0  0  0  0  0  0  0  0  0  0
   57.7390   28.1690   43.8980 C   0  0  0  0  0  0  0  0  0  0  0  0
   57.2580   29.4030   44.6130 C   0  0  0  0  0  0  0  0  0  0  0  0
   56.5070   29.2620   45.6150 O   0  0  0  0  0  0  0  0  0  0  0  0
   57.6450   30.7200   44.1780 N   0  0  0  0  0  0  0  0  0  0  0  0
   57.5870   31.1860   42.7900 C   0  0  0  0  0  0  0  0  0  0  0  0
   57.8100   32.7160   42.8350 C   0  0  0  0  0  0  0  0  0  0  0  0
   58.0470   32.9870   44.2770 C   0  0  0  0  0  0  0  0  0  0  0  0
   58.3610   34.2070   44.8770 C   0  0  0  0  0  0  0  0  0  0  0  0
   58.5850   34.2360   46.2620 C   0  0  0  0  0  0  0  0  0  0  0  0
   58.5040   33.0510   47.0170 C   0  0  0  0  0  0  0  0  0  0  0  0
   58.1890   31.8330   46.3910 C   0  0  0  0  0  0  0  0  0  0  0  0
   57.9450   31.8350   45.0100 C   0  0  0  0  0  0  0  0  0  0  0  0
   59.9080   28.9170   44.8240 C   0  0  0  0  0  0  0  0  0  0  0  0
   60.1090   29.0150   46.3500 C   0  0  0  0  0  0  0  0  0  0  0  0
   59.9541   30.1515   49.9899 H   0  0  0  0  0  0  0  0  0  0  0  0
   60.8881   29.8569   48.4840 H   0  0  0  0  0  0  0  0  0  0  0  0
   59.5323   31.0353   48.4840 H   0  0  0  0  0  0  0  0  0  0  0  0
   59.2130   28.0440   49.0460 H   0  0  0  0  0  0  0  0  0  0  0  0
   57.9105   29.3122   48.7801 H   0  0  0  0  0  0  0  0  0  0  0  0
   58.1040   29.2470   46.6700 H   0  0  0  0  0  0  0  0  0  0  0  0
   58.9047   26.6014   47.5974 H   0  0  0  0  0  0  0  0  0  0  0  0
   57.3840   27.1885   46.7805 H   0  0  0  0  0  0  0  0  0  0  0  0
   59.9936   26.2770   45.5768 H   0  0  0  0  0  0  0  0  0  0  0  0
   58.2703   25.9515   45.0845 H   0  0  0  0  0  0  0  0  0  0  0  0
   57.8126   28.3797   42.8209 H   0  0  0  0  0  0  0  0  0  0  0  0
   57.0239   27.3522   44.0754 H   0  0  0  0  0  0  0  0  0  0  0  0
   58.3753   30.7038   42.1933 H   0  0  0  0  0  0  0  0  0  0  0  0
   56.6219   30.9365   42.3249 H   0  0  0  0  0  0  0  0  0  0  0  0
   58.6833   33.0045   42.2315 H   0  0  0  0  0  0  0  0  0  0  0  0
   56.9634   33.2857   42.4243 H   0  0  0  0  0  0  0  0  0  0  0  0
   58.4314   35.1264   44.2772 H   0  0  0  0  0  0  0  0  0  0  0  0
   58.8246   35.1876   46.7590 H   0  0  0  0  0  0  0  0  0  0  0  0
   58.6880   33.0784   48.1012 H   0  0  0  0  0  0  0  0  0  0  0  0
   58.1351   30.8997   46.9707 H   0  0  0  0  0  0  0  0  0  0  0  0
   60.8951   28.8176   44.3489 H   0  0  0  0  0  0  0  0  0  0  0  0
   59.3820   29.8301   44.5086 H   0  0  0  0  0  0  0  0  0  0  0  0
   60.9179   28.3342   46.6534 H   0  0  0  0  0  0  0  0  0  0  0  0
   60.3699   30.0516   46.6095 H   0  0  0  0  0  0  0  0  0  0  0  0
  1  2  1  0
  2  3  1  0
  3  4  1  0
  4  5  1  0
  5  6  1  0
  6  7  1  0
  7  8  1  0
  8  9  2  0
  8 10  1  0
 10 11  1  0
 11 12  1  0
 12 13  1  0
 13 14  2  0
 14 15  1  0
 15 16  2  0
 16 17  1  0
 17 18  2  0
  6 19  1  0
 19 20  1  0
 20  3  1  0
 18 10  1  0
 18 13  1  0
  1 21  1  0
  1 22  1  0
  1 23  1  0
  2 24  1  0
  2 25  1  0
  3 26  1  0
  4 27  1  0
  4 28  1  0
  5 29  1  0
  5 30  1  0
  7 31  1  0
  7 32  1  0
 11 33  1  0
 11 34  1  0
 12 35  1  0
 12 36  1  0
 14 37  1  0
 15 38  1  0
 16 39  1  0
 17 40  1  0
 19 41  1  0
 19 42  1  0
 20 43  1  0
 20 44  1  0
M  CHG  1   3   1
M  END
>  <UniqueID>  (16) 
16

>  <SMILES>  (16) 
CC[NH+]1CCN(CC(=O)N2CCc3ccccc32)CC1

>  <Energy>  (16) 
75.25349105783488

>  <Genealogy>  (16) 
CC[NH+]1CCN(CC(=O)N2CCc3ccccc32)CC1 (protonated)
CC[NH+]1CCN(CC(=O)N2CCc3ccccc32)CC1 (3D coordinates assigned)
CC[NH+]1CCN(CC(=O)N2CCc3ccccc32)CC1 (nonaromatic ring conformer: 75.25349105783488 kcal/mol)

>  <smiles>  (16) 
CCN1CCN(CC(=O)N2CCc3ccccc32)CC1

>  <score_type>  (16) 
oracle

>  <origin>  (16) 
adg

>  <m_score__min__energy>  (16) 
-5.5899999999999999

>  <m_primary>  (16) 
energy

$$$$
17:0
     RDKit          3D

 43 45  0  0  0  0  0  0  0  0999 V2000
   57.0420   34.5250   44.8680 C   0  0  0  0  0  0  0  0  0  0  0  0
   57.3290   33.8510   46.2040 C   0  0  0  0  0  0  0  0  0  0  0  0
   58.0530   32.5510   46.0000 C   0  0  0  0  0  0  0  0  0  0  0  0
   57.4840   31.5730   45.2370 N   0  0  0  0  0  0  0  0  0  0  0  0
   58.1050   30.4080   45.0000 N   0  0  0  0  0  0  0  0  0  0  0  0
   57.4100   29.3980   44.1960 C   0  0  0  0  0  0  0  0  0  0  0  0
   56.1500   28.9570   44.8930 C   0  0  0  0  0  0  0  0  0  0  0  0
   55.1480   29.7190   44.8780 O   0  0  0  0  0  0  0  0  0  0  0  0
   56.0440   27.6930   45.5610 N   0  0  0  0  0  0  0  0  0  0  0  0
   56.9670   26.5770   45.3950 C   0  0  0  0  0  0  0  0  0  0  0  0
   57.3570   26.0280   46.7650 C   0  0  0  0  0  0  0  0  0  0  0  0
   58.4580   26.8560   47.3730 C   0  0  0  0  0  0  0  0  0  0  0  0
   59.7590   26.3350   47.4810 C   0  0  0  0  0  0  0  0  0  0  0  0
   60.7730   27.0910   48.0750 C   0  0  0  0  0  0  0  0  0  0  0  0
   60.4950   28.3670   48.5740 C   0  0  0  0  0  0  0  0  0  0  0  0
   59.2010   28.8860   48.4820 C   0  0  0  0  0  0  0  0  0  0  0  0
   58.1830   28.1330   47.8890 C   0  0  0  0  0  0  0  0  0  0  0  0
   59.3460   30.1620   45.5340 C   0  0  0  0  0  0  0  0  0  0  0  0
   59.9420   29.0680   45.3380 O   0  0  0  0  0  0  0  0  0  0  0  0
   59.9330   31.1620   46.3040 C   0  0  0  0  0  0  0  0  0  0  0  0
   61.1630   31.1690   46.9320 C   0  0  0  0  0  0  0  0  0  0  0  0
   61.2560   32.4060   47.5530 C   0  0  0  0  0  0  0  0  0  0  0  0
   60.0840   33.0930   47.2770 C   0  0  0  0  0  0  0  0  0  0  0  0
   59.2890   32.3180   46.5140 N   0  0  0  0  0  0  0  0  0  0  0  0
   56.6167   35.5239   45.0451 H   0  0  0  0  0  0  0  0  0  0  0  0
   57.9774   34.6207   44.2972 H   0  0  0  0  0  0  0  0  0  0  0  0
   56.3247   33.9170   44.2972 H   0  0  0  0  0  0  0  0  0  0  0  0
   57.9516   34.5181   46.8183 H   0  0  0  0  0  0  0  0  0  0  0  0
   56.3733   33.6472   46.7090 H   0  0  0  0  0  0  0  0  0  0  0  0
   57.1525   29.8272   43.2165 H   0  0  0  0  0  0  0  0  0  0  0  0
   58.0701   28.5283   44.0624 H   0  0  0  0  0  0  0  0  0  0  0  0
   56.4810   25.7841   44.8075 H   0  0  0  0  0  0  0  0  0  0  0  0
   57.8691   26.9236   44.8696 H   0  0  0  0  0  0  0  0  0  0  0  0
   56.4790   26.0514   47.4273 H   0  0  0  0  0  0  0  0  0  0  0  0
   57.7149   24.9948   46.6447 H   0  0  0  0  0  0  0  0  0  0  0  0
   59.9798   25.3283   47.0965 H   0  0  0  0  0  0  0  0  0  0  0  0
   61.7912   26.6816   48.1501 H   0  0  0  0  0  0  0  0  0  0  0  0
   61.2947   28.9622   49.0389 H   0  0  0  0  0  0  0  0  0  0  0  0
   58.9827   29.8892   48.8769 H   0  0  0  0  0  0  0  0  0  0  0  0
   57.1638   28.5419   47.8264 H   0  0  0  0  0  0  0  0  0  0  0  0
   61.9116   30.3631   46.9384 H   0  0  0  0  0  0  0  0  0  0  0  0
   62.1019   32.7732   48.1526 H   0  0  0  0  0  0  0  0  0  0  0  0
   59.8420   34.1080   47.6251 H   0  0  0  0  0  0  0  0  0  0  0  0
  1  2  1  0
  2  3  1  0
  3  4  2  0
  4  5  1  0
  5  6  1  0
  6  7  1  0
  7  8  2  0
  7  9  1  0
  9 10  1  0
 10 11  1  0
 11 12  1  0
 12 13  2  0
 13 14  1  0
 14 15  2  0
 15 16  1  0
 16 17  2  0
  5 18  1  0
 18 19  2  0
 18 20  1  0
 20 21  2  0
 21 22  1  0
 22 23  2  0
 23 24  1  0
 24  3  1  0
 17 12  1  0
 24 20  1  0
  1 25  1  0
  1 26  1  0
  1 27  1  0
  2 28  1  0
  2 29  1  0
  6 30  1  0
  6 31  1  0
 10 32  1  0
 10 33  1  0
 11 34  1  0
 11 35  1  0
 13 36  1  0
 14 37  1  0
 15 38  1  0
 16 39  1  0
 17 40  1  0
 21 41  1  0
 22 42  1  0
 23 43  1  0
M  CHG  1   9  -1
M  END
>  <UniqueID>  (17) 
17

>  <SMILES>  (17) 
CCc1nn(CC(=O)[N-]CCc2ccccc2)c(=O)c2cccn12

>  <Energy>  (17) 
70.15410812191965

>  <Genealogy>  (17) 
CCc1nn(CC(=O)[N-]CCc2ccccc2)c(=O)c2cccn12 (protonated)
CCc1nn(CC(=O)[N-]CCc2ccccc2)c(=O)c2cccn12 (3D coordinates assigned)
CCc1nn(CC(=O)[N-]CCc2ccccc2)c(=O)c2cccn12 (optimized conformer: 70.15410812191965 kcal/mol)

>  <smiles>  (17) 
CCc1nn(CC(=O)NCCc2ccccc2)c(=O)c2cccn12

>  <score_type>  (17) 
oracle

>  <origin>  (17) 
adg

>  <m_score__min__energy>  (17) 
-9.4199999999999999

>  <m_primary>  (17) 
energy

$$$$
18:0
     RDKit          3D

 73 76  0  0  0  0  0  0  0  0999 V2000
   57.8540   31.3575   46.6337 H   0  0  0  0  0  0  0  0  0  0  0  0
   58.7350   30.7000   46.5950 C   0  0  0  0  0  0  0  0  0  0  0  0
   59.7380   30.9510   47.4830 C   0  0  0  0  0  0  0  0  0  0  0  0
   59.9380   30.1770   48.7070 N   0  0  0  0  0  0  0  0  0  0  0  0
   59.1140   28.9740   48.9880 C   0  0  0  0  0  0  0  0  0  0  0  0
   59.0087   28.8602   50.0770 H   0  0  0  0  0  0  0  0  0  0  0  0
   58.1329   29.1105   48.5097 H   0  0  0  0  0  0  0  0  0  0  0  0
   59.7520   27.7060   48.4160 C   0  0  0  0  0  0  0  0  0  0  0  0
   60.0791   27.0559   49.2409 H   0  0  0  0  0  0  0  0  0  0  0  0
   59.0154   27.1716   47.7980 H   0  0  0  0  0  0  0  0  0  0  0  0
   60.6201   27.9790   47.7980 H   0  0  0  0  0  0  0  0  0  0  0  0
   61.1520   30.3680   49.4950 C   0  0  0  0  0  0  0  0  0  0  0  0
   61.3970   29.5780   50.6530 C   0  0  0  0  0  0  0  0  0  0  0  0
   60.5962   28.9287   51.0365 H   0  0  0  0  0  0  0  0  0  0  0  0
   62.6200   29.6040   51.3130 C   0  0  0  0  0  0  0  0  0  0  0  0
   62.7779   28.9779   52.2035 H   0  0  0  0  0  0  0  0  0  0  0  0
   63.6380   30.4170   50.8500 C   0  0  0  0  0  0  0  0  0  0  0  0
   64.6220   30.4034   51.3416 H   0  0  0  0  0  0  0  0  0  0  0  0
   63.4140   31.2510   49.7620 C   0  0  0  0  0  0  0  0  0  0  0  0
   64.2276   31.9025   49.4105 H   0  0  0  0  0  0  0  0  0  0  0  0
   62.1620   31.2850   49.0910 C   0  0  0  0  0  0  0  0  0  0  0  0
   61.9150   32.3460   48.0150 C   0  0  1  0  0  0  0  0  0  0  0  0
   63.2150   32.5250   47.1620 C   0  0  0  0  0  0  0  0  0  0  0  0
   64.0795   32.6440   47.8317 H   0  0  0  0  0  0  0  0  0  0  0  0
   63.3621   31.6386   46.5274 H   0  0  0  0  0  0  0  0  0  0  0  0
   63.1171   33.4181   46.5274 H   0  0  0  0  0  0  0  0  0  0  0  0
   60.7930   31.9430   47.0020 C   0  0  2  0  0  0  0  0  0  0  0  0
   61.2575   31.3941   46.1695 H   0  0  0  0  0  0  0  0  0  0  0  0
   60.1290   33.2860   46.6360 C   0  0  0  0  0  0  0  0  0  0  0  0
   59.1026   33.1242   46.2750 H   0  0  0  0  0  0  0  0  0  0  0  0
   60.6674   33.8074   45.8308 H   0  0  0  0  0  0  0  0  0  0  0  0
   60.1210   34.0790   47.9180 C   0  0  0  0  0  0  0  0  0  0  0  0
   59.2944   33.7583   48.5690 H   0  0  0  0  0  0  0  0  0  0  0  0
   59.9767   35.1556   47.7444 H   0  0  0  0  0  0  0  0  0  0  0  0
   61.4690   33.7690   48.5640 C   0  0  1  0  0  0  0  0  0  0  0  0
   62.3253   34.3951   48.2730 H   0  0  0  0  0  0  0  0  0  0  0  0
   61.5530   34.2290   50.0750 C   0  0  2  0  0  0  0  0  0  0  0  0
   60.9905   35.1725   50.0159 H   0  0  0  0  0  0  0  0  0  0  0  0
   63.0180   34.4080   50.5160 C   0  0  0  0  0  0  0  0  0  0  0  0
   63.0720   34.4146   51.6147 H   0  0  0  0  0  0  0  0  0  0  0  0
   63.6230   33.5771   50.1241 H   0  0  0  0  0  0  0  0  0  0  0  0
   63.4052   35.3601   50.1241 H   0  0  0  0  0  0  0  0  0  0  0  0
   60.7780   33.4560   51.1820 C   0  0  0  0  0  0  0  0  0  0  0  0
   60.7375   34.1028   52.0709 H   0  0  0  0  0  0  0  0  0  0  0  0
   61.3342   32.5163   51.3145 H   0  0  0  0  0  0  0  0  0  0  0  0
   59.3390   33.0230   50.8590 C   0  0  0  0  0  0  0  0  0  0  0  0
   59.3419   31.9554   50.5941 H   0  0  0  0  0  0  0  0  0  0  0  0
   58.9804   33.6431   50.0242 H   0  0  0  0  0  0  0  0  0  0  0  0
   58.3820   33.2360   52.0500 C   0  0  0  0  0  0  0  0  0  0  0  0
   57.8232   34.1698   51.8894 H   0  0  0  0  0  0  0  0  0  0  0  0
   58.9937   33.2788   52.9632 H   0  0  0  0  0  0  0  0  0  0  0  0
   57.3780   32.0860   52.2190 C   0  0  0  0  0  0  0  0  0  0  0  0
   56.3686   32.4644   52.0002 H   0  0  0  0  0  0  0  0  0  0  0  0
   57.4590   31.7220   53.2539 H   0  0  0  0  0  0  0  0  0  0  0  0
   57.6710   30.9120   51.2920 C   0  0  0  0  0  0  0  0  0  0  0  0
   57.8942   30.0177   51.8923 H   0  0  0  0  0  0  0  0  0  0  0  0
   56.7937   30.7181   50.6574 H   0  0  0  0  0  0  0  0  0  0  0  0
   58.5365   31.1531   50.6574 H   0  0  0  0  0  0  0  0  0  0  0  0
   58.7280   29.6250   45.5880 C   0  0  0  0  0  0  0  0  0  0  0  0
   59.9230   28.9170   45.4010 C   0  0  0  0  0  0  0  0  0  0  0  0
   60.8246   29.2116   45.9580 H   0  0  0  0  0  0  0  0  0  0  0  0
   59.9780   27.8440   44.5160 C   0  0  0  0  0  0  0  0  0  0  0  0
   60.9214   27.3010   44.3576 H   0  0  0  0  0  0  0  0  0  0  0  0
   58.8270   27.4670   43.8350 C   0  0  0  0  0  0  0  0  0  0  0  0
   58.8625   26.6331   43.1185 H   0  0  0  0  0  0  0  0  0  0  0  0
   57.6570   28.1250   44.0510 N   0  0  0  0  0  0  0  0  0  0  0  0
   56.8040   27.8050   43.5380 H   0  0  0  0  0  0  0  0  0  0  0  0
   57.5540   29.1710   44.9210 C   0  0  0  0  0  0  0  0  0  0  0  0
   56.2740   29.7420   45.0750 O   0  0  0  0  0  0  0  0  0  0  0  0
   55.5150   30.4490   44.1000 C   0  0  0  0  0  0  0  0  0  0  0  0
   54.7998   31.1152   44.6045 H   0  0  0  0  0  0  0  0  0  0  0  0
   56.1916   31.0462   43.4710 H   0  0  0  0  0  0  0  0  0  0  0  0
   54.9672   29.7318   43.4710 H   0  0  0  0  0  0  0  0  0  0  0  0
  1  2  1  0
  2  3  2  0
  3  4  1  0
  4  5  1  0
  5  6  1  0
  5  7  1  0
  5  8  1  0
  8  9  1  0
  8 10  1  0
  8 11  1  0
  4 12  1  0
 12 13  2  0
 13 14  1  0
 13 15  1  0
 15 16  1  0
 15 17  2  0
 17 18  1  0
 17 19  1  0
 19 20  1  0
 19 21  2  0
 21 22  1  0
 22 23  1  6
 23 24  1  0
 23 25  1  0
 23 26  1  0
 22 27  1  0
 27 28  1  6
 27 29  1  0
 29 30  1  0
 29 31  1  0
 29 32  1  0
 32 33  1  0
 32 34  1  0
 32 35  1  0
 35 36  1  6
 35 37  1  0
 37 38  1  6
 37 39  1  0
 39 40  1  0
 39 41  1  0
 39 42  1  0
 37 43  1  0
 43 44  1  0
 43 45  1  0
 43 46  1  0
 46 47  1  0
 46 48  1  0
 46 49  1  0
 49 50  1  0
 49 51  1  0
 49 52  1  0
 52 53  1  0
 52 54  1  0
 52 55  1  0
 55 56  1  0
 55 57  1  0
 55 58  1  0
  2 59  1  0
 59 60  2  0
 60 61  1  0
 60 62  1  0
 62 63  1  0
 62 64  2  0
 64 65  1  0
 64 66  1  0
 66 67  1  0
 66 68  2  0
 68 69  1  0
 69 70  1  0
 70 71  1  0
 70 72  1  0
 70 73  1  0
 27  3  1  0
 68 59  1  0
 21 12  1  0
 35 22  1  0
M  CHG  1  66   1
M  END
>  <UniqueID>  (18) 
18

>  <SMILES>  (18) 
CCCCC[C@@H](C)[C@@H]1CCC2/C(=C/c3ccc[nH+]c3OC)N(CC)c3ccccc3C21C

>  <Energy>  (18) 
127.80842351746493

>  <Genealogy>  (18) 
CCCCCC(C)C1CCC2C(=Cc3ccc[nH+]c3OC)N(CC)c3ccccc3C21C (protonated)
CCCCC[C@@H](C)[C@@H]1CCC2C(=Cc3ccc[nH+]c3OC)N(CC)c3ccccc3C21C (chirality)
CCCCC[C@@H](C)[C@@H]1CCC2/C(=C/c3ccc[nH+]c3OC)N(CC)c3ccccc3C21C (cis-trans isomerization)
CCCCC[C@@H](C)[C@@H]1CCC2/C(=C/c3ccc[nH+]c3OC)N(CC)c3ccccc3C21C (3D coordinates assigned)
CCCCC[C@@H](C)[C@@H]1CCC2/C(=C/c3ccc[nH+]c3OC)N(CC)c3ccccc3C21C (nonaromatic ring conformer: 127.80842351746493 kcal/mol)

>  <smiles>  (18) 
CCCCCC(C)C1CCC2C(=Cc3cccnc3OC)N(CC)c3ccccc3C21C

>  <score_type>  (18) 
oracle

>  <origin>  (18) 
adg

>  <m_score__min__energy>  (18) 
-7.7999999999999998

>  <m_primary>  (18) 
energy

$$$$
19:0
     RDKit          3D

 47 50  0  0  0  0  0  0  0  0999 V2000
   60.4730   29.1330   48.7870 C   0  0  0  0  0  0  0  0  0  0  0  0
   59.9260   29.6140   47.5190 N   0  0  0  0  0  0  0  0  0  0  0  0
   60.3030   30.6970   46.7810 C   0  0  0  0  0  0  0  0  0  0  0  0
   61.3510   31.6660   47.1670 C   0  0  0  0  0  0  0  0  0  0  0  0
   60.9900   32.9320   47.6490 C   0  0  0  0  0  0  0  0  0  0  0  0
   61.9760   33.8400   48.0360 C   0  0  0  0  0  0  0  0  0  0  0  0
   63.3190   33.4690   47.9540 C   0  0  0  0  0  0  0  0  0  0  0  0
   63.6590   32.2290   47.5060 N   0  0  0  0  0  0  0  0  0  0  0  0
   62.7130   31.3280   47.1220 C   0  0  0  0  0  0  0  0  0  0  0  0
   59.6100   30.8180   45.6160 N   0  0  0  0  0  0  0  0  0  0  0  0
   58.7570   29.7780   45.6580 C   0  0  0  0  0  0  0  0  0  0  0  0
   57.8020   29.4320   44.7090 C   0  0  0  0  0  0  0  0  0  0  0  0
   57.0060   28.3000   44.9610 C   0  0  0  0  0  0  0  0  0  0  0  0
   57.1780   27.5380   46.1490 C   0  0  0  0  0  0  0  0  0  0  0  0
   56.3330   26.3500   46.4070 C   0  0  0  0  0  0  0  0  0  0  0  0
   56.8230   25.3370   46.9810 O   0  0  0  0  0  0  0  0  0  0  0  0
   54.9590   26.3390   46.0000 N   0  0  0  0  0  0  0  0  0  0  0  0
   54.3030   25.1870   45.3900 C   0  0  0  0  0  0  0  0  0  0  0  0
   54.7710   23.8910   46.0560 C   0  0  0  0  0  0  0  0  0  0  0  0
   55.6380   23.0970   45.1170 C   0  0  0  0  0  0  0  0  0  0  0  0
   56.5880   22.1920   45.6240 C   0  0  0  0  0  0  0  0  0  0  0  0
   57.4160   21.4790   44.7520 C   0  0  0  0  0  0  0  0  0  0  0  0
   57.3110   21.6710   43.3720 C   0  0  0  0  0  0  0  0  0  0  0  0
   56.3780   22.5770   42.8610 C   0  0  0  0  0  0  0  0  0  0  0  0
   55.5470   23.2920   43.7290 C   0  0  0  0  0  0  0  0  0  0  0  0
   58.1660   27.9270   47.0870 C   0  0  0  0  0  0  0  0  0  0  0  0
   58.9360   29.0570   46.7990 C   0  0  0  0  0  0  0  0  0  0  0  0
   59.9348   29.6062   49.6215 H   0  0  0  0  0  0  0  0  0  0  0  0
   60.3547   28.0410   48.8466 H   0  0  0  0  0  0  0  0  0  0  0  0
   61.5409   29.3899   48.8466 H   0  0  0  0  0  0  0  0  0  0  0  0
   59.9282   33.2097   47.7221 H   0  0  0  0  0  0  0  0  0  0  0  0
   61.6975   34.8391   48.4024 H   0  0  0  0  0  0  0  0  0  0  0  0
   64.1041   34.1796   48.2518 H   0  0  0  0  0  0  0  0  0  0  0  0
   64.6670   31.9610   47.4650 H   0  0  0  0  0  0  0  0  0  0  0  0
   63.0176   30.3297   46.7746 H   0  0  0  0  0  0  0  0  0  0  0  0
   57.6730   30.0241   43.7910 H   0  0  0  0  0  0  0  0  0  0  0  0
   56.2408   28.0005   44.2297 H   0  0  0  0  0  0  0  0  0  0  0  0
   53.2140   25.2839   45.5113 H   0  0  0  0  0  0  0  0  0  0  0  0
   54.5632   25.1529   44.3218 H   0  0  0  0  0  0  0  0  0  0  0  0
   55.3475   24.1367   46.9600 H   0  0  0  0  0  0  0  0  0  0  0  0
   53.8890   23.2888   46.3196 H   0  0  0  0  0  0  0  0  0  0  0  0
   56.6797   22.0448   46.7102 H   0  0  0  0  0  0  0  0  0  0  0  0
   58.1513   20.7658   45.1529 H   0  0  0  0  0  0  0  0  0  0  0  0
   57.9631   21.1087   42.6875 H   0  0  0  0  0  0  0  0  0  0  0  0
   56.2971   22.7280   41.7744 H   0  0  0  0  0  0  0  0  0  0  0  0
   54.8191   24.0100   43.3232 H   0  0  0  0  0  0  0  0  0  0  0  0
   58.3223   27.3565   48.0144 H   0  0  0  0  0  0  0  0  0  0  0  0
  1  2  1  0
  2  3  1  0
  3  4  1  0
  4  5  2  0
  5  6  1  0
  6  7  2  0
  7  8  1  0
  8  9  2  0
  3 10  2  0
 10 11  1  0
 11 12  2  0
 12 13  1  0
 13 14  2  0
 14 15  1  0
 15 16  2  0
 15 17  1  0
 17 18  1  0
 18 19  1  0
 19 20  1  0
 20 21  2  0
 21 22  1  0
 22 23  2  0
 23 24  1  0
 24 25  2  0
 14 26  1  0
 26 27  2  0
 27  2  1  0
  9  4  1  0
 27 11  1  0
 25 20  1  0
  1 28  1  0
  1 29  1  0
  1 30  1  0
  5 31  1  0
  6 32  1  0
  7 33  1  0
  8 34  1  0
  9 35  1  0
 12 36  1  0
 13 37  1  0
 18 38  1  0
 18 39  1  0
 19 40  1  0
 19 41  1  0
 21 42  1  0
 22 43  1  0
 23 44  1  0
 24 45  1  0
 25 46  1  0
 26 47  1  0
M  CHG  2   8   1  17  -1
M  END
>  <UniqueID>  (19) 
19

>  <SMILES>  (19) 
Cn1c(-c2ccc[nH+]c2)nc2ccc(C(=O)[N-]CCc3ccccc3)cc21

>  <Energy>  (19) 
89.94740010921085

>  <Genealogy>  (19) 
Cn1c(-c2ccc[nH+]c2)nc2ccc(C(=O)[N-]CCc3ccccc3)cc21 (protonated)
Cn1c(-c2ccc[nH+]c2)nc2ccc(C(=O)[N-]CCc3ccccc3)cc21 (3D coordinates assigned)
Cn1c(-c2ccc[nH+]c2)nc2ccc(C(=O)[N-]CCc3ccccc3)cc21 (optimized conformer: 89.94740010921085 kcal/mol)

>  <smiles>  (19) 
Cn1c(-c2cccnc2)nc2ccc(C(=O)NCCc3ccccc3)cc21

>  <score_type>  (19) 
oracle

>  <origin>  (19) 
adg

>  <m_score__min__energy>  (19) 
-9.0700000000000003

>  <m_primary>  (19) 
energy

$$$$
20:0
     RDKit          3D

 49 51  0  0  0  0  0  0  0  0999 V2000
   63.3550   33.8220   46.3580 C   0  0  0  0  0  0  0  0  0  0  0  0
   63.0380   33.4770   47.4690 C   0  0  0  0  0  0  0  0  0  0  0  0
   62.6510   33.0620   48.8220 C   0  0  0  0  0  0  0  0  0  0  0  0
   61.2340   32.9140   48.9120 O   0  0  0  0  0  0  0  0  0  0  0  0
   60.4050   32.3990   47.9020 C   0  0  0  0  0  0  0  0  0  0  0  0
   60.6490   31.1600   47.2760 C   0  0  0  0  0  0  0  0  0  0  0  0
   59.7900   30.6960   46.2750 C   0  0  0  0  0  0  0  0  0  0  0  0
   58.6810   31.4570   45.8860 C   0  0  0  0  0  0  0  0  0  0  0  0
   57.6000   30.8420   44.6380 S   0  0  0  0  0  0  0  0  0  0  0  0
   56.2270   31.4330   44.8030 O   0  0  0  0  0  0  0  0  0  0  0  0
   58.1420   31.2420   43.2940 O   0  0  0  0  0  0  0  0  0  0  0  0
   57.5110   29.1010   44.7440 N   0  0  0  0  0  0  0  0  0  0  0  0
   58.6880   28.4920   44.0840 C   0  0  0  0  0  0  0  0  0  0  0  0
   58.9590   27.0480   44.5540 C   0  0  0  0  0  0  0  0  0  0  0  0
   57.7530   26.4580   45.1500 N   0  0  0  0  0  0  0  0  0  0  0  0
   57.2980   25.1490   44.7580 C   0  0  0  0  0  0  0  0  0  0  0  0
   57.0910   24.8440   43.4030 C   0  0  0  0  0  0  0  0  0  0  0  0
   56.6370   23.5780   43.0210 C   0  0  0  0  0  0  0  0  0  0  0  0
   56.3760   22.5940   43.9940 C   0  0  0  0  0  0  0  0  0  0  0  0
   55.9220   21.3090   43.6630 O   0  0  0  0  0  0  0  0  0  0  0  0
   56.2570   20.1280   44.3820 C   0  0  0  0  0  0  0  0  0  0  0  0
   56.5750   22.9020   45.3440 C   0  0  0  0  0  0  0  0  0  0  0  0
   57.0270   24.1670   45.7270 C   0  0  0  0  0  0  0  0  0  0  0  0
   57.0510   27.1980   46.2070 C   0  0  0  0  0  0  0  0  0  0  0  0
   57.4030   28.6890   46.1510 C   0  0  0  0  0  0  0  0  0  0  0  0
   58.4330   32.6870   46.5090 C   0  0  0  0  0  0  0  0  0  0  0  0
   59.2920   33.1530   47.5090 C   0  0  0  0  0  0  0  0  0  0  0  0
   63.6442   34.1367   45.3444 H   0  0  0  0  0  0  0  0  0  0  0  0
   63.1313   32.1008   49.0574 H   0  0  0  0  0  0  0  0  0  0  0  0
   62.9750   33.8322   49.5374 H   0  0  0  0  0  0  0  0  0  0  0  0
   61.5181   30.5560   47.5759 H   0  0  0  0  0  0  0  0  0  0  0  0
   59.9865   29.7281   45.7907 H   0  0  0  0  0  0  0  0  0  0  0  0
   58.5148   28.4810   42.9978 H   0  0  0  0  0  0  0  0  0  0  0  0
   59.5667   29.0970   44.3521 H   0  0  0  0  0  0  0  0  0  0  0  0
   59.2691   26.4402   43.6912 H   0  0  0  0  0  0  0  0  0  0  0  0
   59.7540   27.0681   45.3140 H   0  0  0  0  0  0  0  0  0  0  0  0
   57.2876   25.6074   42.6358 H   0  0  0  0  0  0  0  0  0  0  0  0
   56.4831   23.3496   41.9560 H   0  0  0  0  0  0  0  0  0  0  0  0
   56.2003   20.3279   45.4622 H   0  0  0  0  0  0  0  0  0  0  0  0
   55.5508   19.3264   44.1199 H   0  0  0  0  0  0  0  0  0  0  0  0
   57.2789   19.8166   44.1199 H   0  0  0  0  0  0  0  0  0  0  0  0
   56.3735   22.1404   46.1117 H   0  0  0  0  0  0  0  0  0  0  0  0
   57.1718   24.3962   46.7931 H   0  0  0  0  0  0  0  0  0  0  0  0
   55.9659   27.0780   46.0720 H   0  0  0  0  0  0  0  0  0  0  0  0
   57.3610   26.7982   47.1838 H   0  0  0  0  0  0  0  0  0  0  0  0
   56.6142   29.2734   46.6472 H   0  0  0  0  0  0  0  0  0  0  0  0
   58.3593   28.8654   46.6651 H   0  0  0  0  0  0  0  0  0  0  0  0
   57.5608   33.2874   46.2109 H   0  0  0  0  0  0  0  0  0  0  0  0
   59.0918   34.1210   47.9916 H   0  0  0  0  0  0  0  0  0  0  0  0
  1  2  3  0
  2  3  1  0
  3  4  1  0
  4  5  1  0
  5  6  2  0
  6  7  1  0
  7  8  2  0
  8  9  1  0
  9 10  2  0
  9 11  2  0
  9 12  1  0
 12 13  1  0
 13 14  1  0
 14 15  1  0
 15 16  1  0
 16 17  2  0
 17 18  1  0
 18 19  2  0
 19 20  1  0
 20 21  1  0
 19 22  1  0
 22 23  2  0
 15 24  1  0
 24 25  1  0
  8 26  1  0
 26 27  2  0
 27  5  1  0
 25 12  1  0
 23 16  1  0
  1 28  1  0
  3 29  1  0
  3 30  1  0
  6 31  1  0
  7 32  1  0
 13 33  1  0
 13 34  1  0
 14 35  1  0
 14 36  1  0
 17 37  1  0
 18 38  1  0
 21 39  1  0
 21 40  1  0
 21 41  1  0
 22 42  1  0
 23 43  1  0
 24 44  1  0
 24 45  1  0
 25 46  1  0
 25 47  1  0
 26 48  1  0
 27 49  1  0
M  END
>  <UniqueID>  (20) 
20

>  <SMILES>  (20) 
C#CCOc1ccc(S(=O)(=O)N2CCN(c3ccc(OC)cc3)CC2)cc1

>  <Energy>  (20) 
55.31761814099798

>  <Genealogy>  (20) 
C#CCOc1ccc(S(=O)(=O)N2CCN(c3ccc(OC)cc3)CC2)cc1 (3D coordinates assigned)
C#CCOc1ccc(S(=O)(=O)N2CCN(c3ccc(OC)cc3)CC2)cc1 (nonaromatic ring conformer: 55.31761814099798 kcal/mol)

>  <smiles>  (20) 
C#CCOc1ccc(S(=O)(=O)N2CCN(c3ccc(OC)cc3)CC2)cc1

>  <score_type>  (20) 
oracle

>  <origin>  (20) 
adg

>  <m_score__min__energy>  (20) 
-7.7300000000000004

>  <m_primary>  (20) 
energy

$$$$
21:0
     RDKit          3D

 38 40  0  0  0  0  0  0  0  0999 V2000
   57.3930   32.4480   40.7250 C   0  0  0  0  0  0  0  0  0  0  0  0
   57.3790   31.8610   42.1060 C   0  0  0  0  0  0  0  0  0  0  0  0
   56.6670   30.6810   42.3620 C   0  0  0  0  0  0  0  0  0  0  0  0
   56.6820   30.1120   43.6390 C   0  0  0  0  0  0  0  0  0  0  0  0
   57.4150   30.7040   44.6740 C   0  0  0  0  0  0  0  0  0  0  0  0
   57.3920   30.0910   45.9390 O   0  0  0  0  0  0  0  0  0  0  0  0
   58.5350   29.6120   46.6490 C   0  0  0  0  0  0  0  0  0  0  0  0
   58.9410   30.5560   47.7450 C   0  0  0  0  0  0  0  0  0  0  0  0
   58.8530   30.2060   48.9530 O   0  0  0  0  0  0  0  0  0  0  0  0
   59.3540   31.8930   47.4200 N   0  0  0  0  0  0  0  0  0  0  0  0
   58.2760   32.8840   47.2600 C   0  0  0  0  0  0  0  0  0  0  0  0
   58.7810   34.3170   47.3880 C   0  0  0  0  0  0  0  0  0  0  0  0
   59.9320   34.6290   46.0290 S   0  0  0  0  0  0  0  0  0  0  0  0
   61.1410   33.4650   46.6610 C   0  0  0  0  0  0  0  0  0  0  0  0
   62.4950   33.8150   46.5790 C   0  0  0  0  0  0  0  0  0  0  0  0
   63.4820   32.9110   46.9690 C   0  0  0  0  0  0  0  0  0  0  0  0
   63.1240   31.6540   47.4510 C   0  0  0  0  0  0  0  0  0  0  0  0
   61.7770   31.3040   47.5660 C   0  0  0  0  0  0  0  0  0  0  0  0
   60.7580   32.2100   47.1950 C   0  0  0  0  0  0  0  0  0  0  0  0
   58.1460   31.8800   44.4110 C   0  0  0  0  0  0  0  0  0  0  0  0
   58.1300   32.4490   43.1340 C   0  0  0  0  0  0  0  0  0  0  0  0
   57.4192   33.5456   40.7934 H   0  0  0  0  0  0  0  0  0  0  0  0
   58.2829   32.0929   40.1847 H   0  0  0  0  0  0  0  0  0  0  0  0
   56.4872   32.1358   40.1847 H   0  0  0  0  0  0  0  0  0  0  0  0
   56.0942   30.2008   41.5550 H   0  0  0  0  0  0  0  0  0  0  0  0
   56.1126   29.1908   43.8320 H   0  0  0  0  0  0  0  0  0  0  0  0
   58.2964   28.6334   47.0910 H   0  0  0  0  0  0  0  0  0  0  0  0
   59.3711   29.5291   45.9391 H   0  0  0  0  0  0  0  0  0  0  0  0
   57.8234   32.7563   46.2656 H   0  0  0  0  0  0  0  0  0  0  0  0
   57.5420   32.7139   48.0615 H   0  0  0  0  0  0  0  0  0  0  0  0
   57.9349   35.0174   47.3285 H   0  0  0  0  0  0  0  0  0  0  0  0
   59.2852   34.4589   48.3553 H   0  0  0  0  0  0  0  0  0  0  0  0
   62.7811   34.8090   46.2047 H   0  0  0  0  0  0  0  0  0  0  0  0
   64.5435   33.1903   46.8961 H   0  0  0  0  0  0  0  0  0  0  0  0
   63.9043   30.9353   47.7418 H   0  0  0  0  0  0  0  0  0  0  0  0
   61.5056   30.3098   47.9505 H   0  0  0  0  0  0  0  0  0  0  0  0
   58.7315   32.3521   45.2137 H   0  0  0  0  0  0  0  0  0  0  0  0
   58.7094   33.3625   42.9347 H   0  0  0  0  0  0  0  0  0  0  0  0
  1  2  1  0
  2  3  2  0
  3  4  1  0
  4  5  2  0
  5  6  1  0
  6  7  1  0
  7  8  1  0
  8  9  2  0
  8 10  1  0
 10 11  1  0
 11 12  1  0
 12 13  1  0
 13 14  1  0
 14 15  2  0
 15 16  1  0
 16 17  2  0
 17 18  1  0
 18 19  2  0
  5 20  1  0
 20 21  2  0
 21  2  1  0
 19 10  1  0
 19 14  1  0
  1 22  1  0
  1 23  1  0
  1 24  1  0
  3 25  1  0
  4 26  1  0
  7 27  1  0
  7 28  1  0
 11 29  1  0
 11 30  1  0
 12 31  1  0
 12 32  1  0
 15 33  1  0
 16 34  1  0
 17 35  1  0
 18 36  1  0
 20 37  1  0
 21 38  1  0
M  END
>  <UniqueID>  (21) 
21

>  <SMILES>  (21) 
Cc1ccc(OCC(=O)N2CCSc3ccccc32)cc1

>  <Energy>  (21) 
52.69581005235637

>  <Genealogy>  (21) 
Cc1ccc(OCC(=O)N2CCSc3ccccc32)cc1 (3D coordinates assigned)
Cc1ccc(OCC(=O)N2CCSc3ccccc32)cc1 (nonaromatic ring conformer: 52.69581005235637 kcal/mol)

>  <smiles>  (21) 
Cc1ccc(OCC(=O)N2CCSc3ccccc32)cc1

>  <score_type>  (21) 
oracle

>  <origin>  (21) 
adg

>  <m_score__min__energy>  (21) 
-7.5

>  <m_primary>  (21) 
energy

$$$$
22:0
     RDKit          3D

 43 45  0  0  0  0  0  0  0  0999 V2000
   62.1660   33.5200   50.1770 O   0  0  0  0  0  0  0  0  0  0  0  0
   63.3100   34.0760   49.5960 C   0  0  0  0  0  0  0  0  0  0  0  0
   64.1180   32.9970   48.8560 C   0  0  0  0  0  0  0  0  0  0  0  0
   63.5760   32.5770   47.5340 N   0  0  0  0  0  0  0  0  0  0  0  0
   63.2230   33.7070   46.6350 C   0  0  0  0  0  0  0  0  0  0  0  0
   61.7660   34.2130   46.7660 C   0  0  0  0  0  0  0  0  0  0  0  0
   60.9380   33.3400   47.6140 N   0  0  0  0  0  0  0  0  0  0  0  0
   59.5150   33.7230   47.5220 C   0  0  0  0  0  0  0  0  0  0  0  0
   58.8990   33.1330   46.2810 C   0  0  0  0  0  0  0  0  0  0  0  0
   59.0280   33.7810   45.0390 C   0  0  0  0  0  0  0  0  0  0  0  0
   58.4700   33.2160   43.8870 C   0  0  0  0  0  0  0  0  0  0  0  0
   57.7840   32.0030   43.9690 C   0  0  0  0  0  0  0  0  0  0  0  0
   57.6780   31.3370   45.1980 C   0  0  0  0  0  0  0  0  0  0  0  0
   58.2200   31.9050   46.3540 C   0  0  0  0  0  0  0  0  0  0  0  0
   57.0280   30.0990   45.2470 O   0  0  0  0  0  0  0  0  0  0  0  0
   56.7190   29.3800   44.0500 C   0  0  0  0  0  0  0  0  0  0  0  0
   56.2690   30.3490   42.9490 C   0  0  0  0  0  0  0  0  0  0  0  0
   57.1950   31.4330   42.8360 O   0  0  0  0  0  0  0  0  0  0  0  0
   61.1430   31.9400   47.2190 C   0  0  0  0  0  0  0  0  0  0  0  0
   62.5560   31.4940   47.6180 C   0  0  0  0  0  0  0  0  0  0  0  0
   61.4440   33.6040   49.5010 H   0  0  0  0  0  0  0  0  0  0  0  0
   63.0100   34.8569   48.8817 H   0  0  0  0  0  0  0  0  0  0  0  0
   63.9374   34.5081   50.3895 H   0  0  0  0  0  0  0  0  0  0  0  0
   65.1344   33.3861   48.6963 H   0  0  0  0  0  0  0  0  0  0  0  0
   64.0779   32.1021   49.4944 H   0  0  0  0  0  0  0  0  0  0  0  0
   64.4060   32.1320   47.0700 H   0  0  0  0  0  0  0  0  0  0  0  0
   63.8977   34.5462   46.8598 H   0  0  0  0  0  0  0  0  0  0  0  0
   63.3269   33.3281   45.6076 H   0  0  0  0  0  0  0  0  0  0  0  0
   61.7813   35.2207   47.2067 H   0  0  0  0  0  0  0  0  0  0  0  0
   61.3229   34.2173   45.7592 H   0  0  0  0  0  0  0  0  0  0  0  0
   58.9796   33.3487   48.4070 H   0  0  0  0  0  0  0  0  0  0  0  0
   59.4398   34.8194   47.4747 H   0  0  0  0  0  0  0  0  0  0  0  0
   59.5699   34.7360   44.9733 H   0  0  0  0  0  0  0  0  0  0  0  0
   58.5717   33.7269   42.9182 H   0  0  0  0  0  0  0  0  0  0  0  0
   58.1151   31.3909   47.3208 H   0  0  0  0  0  0  0  0  0  0  0  0
   57.6135   28.8364   43.7118 H   0  0  0  0  0  0  0  0  0  0  0  0
   55.9041   28.6711   44.2582 H   0  0  0  0  0  0  0  0  0  0  0  0
   56.2196   29.8119   41.9903 H   0  0  0  0  0  0  0  0  0  0  0  0
   55.2775   30.7495   43.2068 H   0  0  0  0  0  0  0  0  0  0  0  0
   60.4018   31.3044   47.7256 H   0  0  0  0  0  0  0  0  0  0  0  0
   61.0247   31.8469   46.1294 H   0  0  0  0  0  0  0  0  0  0  0  0
   62.5240   31.1277   48.6547 H   0  0  0  0  0  0  0  0  0  0  0  0
   62.8586   30.7136   46.9042 H   0  0  0  0  0  0  0  0  0  0  0  0
  1  2  1  0
  2  3  1  0
  3  4  1  0
  4  5  1  0
  5  6  1  0
  6  7  1  0
  7  8  1  0
  8  9  1  0
  9 10  2  0
 10 11  1  0
 11 12  2  0
 12 13  1  0
 13 14  2  0
 13 15  1  0
 15 16  1  0
 16 17  1  0
 17 18  1  0
  7 19  1  0
 19 20  1  0
 20  4  1  0
 14  9  1  0
 18 12  1  0
  1 21  1  0
  2 22  1  0
  2 23  1  0
  3 24  1  0
  3 25  1  0
  4 26  1  0
  5 27  1  0
  5 28  1  0
  6 29  1  0
  6 30  1  0
  8 31  1  0
  8 32  1  0
 10 33  1  0
 11 34  1  0
 14 35  1  0
 16 36  1  0
 16 37  1  0
 17 38  1  0
 17 39  1  0
 19 40  1  0
 19 41  1  0
 20 42  1  0
 20 43  1  0
M  CHG  1   4   1
M  END
>  <UniqueID>  (22) 
22

>  <SMILES>  (22) 
OCC[NH+]1CCN(Cc2ccc3c(c2)OCCO3)CC1

>  <Energy>  (22) 
59.77596786663987

>  <Genealogy>  (22) 
OCC[NH+]1CCN(Cc2ccc3c(c2)OCCO3)CC1 (protonated)
OCC[NH+]1CCN(Cc2ccc3c(c2)OCCO3)CC1 (3D coordinates assigned)
OCC[NH+]1CCN(Cc2ccc3c(c2)OCCO3)CC1 (nonaromatic ring conformer: 59.77596786663987 kcal/mol)

>  <smiles>  (22) 
OCCN1CCN(Cc2ccc3c(c2)OCCO3)CC1

>  <score_type>  (22) 
oracle

>  <origin>  (22) 
adg

>  <m_score__min__energy>  (22) 
-5.9100000000000001

>  <m_primary>  (22) 
energy

$$$$
23:0
     RDKit          3D

 48 49  0  0  0  0  0  0  0  0999 V2000
   61.0615   28.4744   45.1146 H   0  0  0  0  0  0  0  0  0  0  0  0
   60.3640   28.7680   45.9130 C   0  0  0  0  0  0  0  0  0  0  0  0
   60.7550   29.6570   46.7770 N   0  0  0  0  0  0  0  0  0  0  0  0
   59.8760   30.4610   47.4670 O   0  0  0  0  0  0  0  0  0  0  0  0
   60.3540   31.5330   48.2670 C   0  0  0  0  0  0  0  0  0  0  0  0
   59.6102   31.7662   49.0432 H   0  0  0  0  0  0  0  0  0  0  0  0
   61.3047   31.2352   48.7334 H   0  0  0  0  0  0  0  0  0  0  0  0
   60.5860   32.7530   47.4200 C   0  0  0  0  0  0  0  0  0  0  0  0
   61.7400   33.2660   47.3960 O   0  0  0  0  0  0  0  0  0  0  0  0
   59.5340   33.3210   46.6070 N   0  0  0  0  0  0  0  0  0  0  0  0
   58.2050   32.6930   46.5460 C   0  0  0  0  0  0  0  0  0  0  0  0
   58.3189   31.5998   46.5892 H   0  0  0  0  0  0  0  0  0  0  0  0
   57.6054   33.0458   47.3981 H   0  0  0  0  0  0  0  0  0  0  0  0
   57.4910   33.0740   45.2470 C   0  0  0  0  0  0  0  0  0  0  0  0
   58.0042   32.5950   44.4001 H   0  0  0  0  0  0  0  0  0  0  0  0
   56.4470   32.7325   45.3065 H   0  0  0  0  0  0  0  0  0  0  0  0
   57.4980   34.4750   45.0600 O   0  0  0  0  0  0  0  0  0  0  0  0
   58.8260   34.9170   44.8650 C   0  0  0  0  0  0  0  0  0  0  0  0
   59.2768   34.3501   44.0371 H   0  0  0  0  0  0  0  0  0  0  0  0
   58.8089   35.9913   44.6290 H   0  0  0  0  0  0  0  0  0  0  0  0
   59.6610   34.7060   46.1310 C   0  0  0  0  0  0  0  0  0  0  0  0
   60.7172   34.9164   45.9072 H   0  0  0  0  0  0  0  0  0  0  0  0
   59.2965   35.3863   46.9149 H   0  0  0  0  0  0  0  0  0  0  0  0
   59.0280   28.1300   45.9480 C   0  0  0  0  0  0  0  0  0  0  0  0
   58.8440   26.8280   46.4350 C   0  0  0  0  0  0  0  0  0  0  0  0
   59.7056   26.2603   46.8163 H   0  0  0  0  0  0  0  0  0  0  0  0
   57.5750   26.2480   46.4390 C   0  0  0  0  0  0  0  0  0  0  0  0
   57.4407   25.2311   46.8364 H   0  0  0  0  0  0  0  0  0  0  0  0
   56.4650   26.9550   45.9380 C   0  0  0  0  0  0  0  0  0  0  0  0
   55.1690   26.4120   45.9250 O   0  0  0  0  0  0  0  0  0  0  0  0
   54.8360   25.0550   45.6290 C   0  0  0  0  0  0  0  0  0  0  0  0
   53.8183   25.0159   45.2133 H   0  0  0  0  0  0  0  0  0  0  0  0
   54.8936   24.4675   46.5572 H   0  0  0  0  0  0  0  0  0  0  0  0
   55.8120   24.4660   44.6170 C   0  0  0  0  0  0  0  0  0  0  0  0
   56.6363   23.9686   45.1491 H   0  0  0  0  0  0  0  0  0  0  0  0
   55.2880   23.7332   43.9858 H   0  0  0  0  0  0  0  0  0  0  0  0
   56.2161   25.2712   43.9858 H   0  0  0  0  0  0  0  0  0  0  0  0
   56.6470   28.2450   45.4140 C   0  0  0  0  0  0  0  0  0  0  0  0
   55.5190   28.9160   44.9090 O   0  0  0  0  0  0  0  0  0  0  0  0
   55.5410   30.0830   44.0860 C   0  0  0  0  0  0  0  0  0  0  0  0
   54.5075   30.3862   43.8624 H   0  0  0  0  0  0  0  0  0  0  0  0
   56.0669   30.8848   44.6249 H   0  0  0  0  0  0  0  0  0  0  0  0
   56.2760   29.8090   42.7780 C   0  0  0  0  0  0  0  0  0  0  0  0
   57.2861   29.4325   42.9969 H   0  0  0  0  0  0  0  0  0  0  0  0
   55.7223   29.0569   42.1969 H   0  0  0  0  0  0  0  0  0  0  0  0
   56.3497   30.7400   42.1969 H   0  0  0  0  0  0  0  0  0  0  0  0
   57.9310   28.8240   45.4180 C   0  0  0  0  0  0  0  0  0  0  0  0
   58.0747   29.8316   45.0008 H   0  0  0  0  0  0  0  0  0  0  0  0
  1  2  1  0
  2  3  2  0
  3  4  1  0
  4  5  1  0
  5  6  1  0
  5  7  1  0
  5  8  1  0
  8  9  2  0
  8 10  1  0
 10 11  1  0
 11 12  1  0
 11 13  1  0
 11 14  1  0
 14 15  1  0
 14 16  1  0
 14 17  1  0
 17 18  1  0
 18 19  1  0
 18 20  1  0
 18 21  1  0
 21 22  1  0
 21 23  1  0
  2 24  1  0
 24 25  2  0
 25 26  1  0
 25 27  1  0
 27 28  1  0
 27 29  2  0
 29 30  1  0
 30 31  1  0
 31 32  1  0
 31 33  1  0
 31 34  1  0
 34 35  1  0
 34 36  1  0
 34 37  1  0
 29 38  1  0
 38 39  1  0
 39 40  1  0
 40 41  1  0
 40 42  1  0
 40 43  1  0
 43 44  1  0
 43 45  1  0
 43 46  1  0
 38 47  2  0
 47 48  1  0
 21 10  1  0
 47 24  1  0
M  END
>  <UniqueID>  (23) 
23

>  <SMILES>  (23) 
CCOc1ccc(/C=N\OCC(=O)N2CCOCC2)cc1OCC

>  <Energy>  (23) 
45.378973767840556

>  <Genealogy>  (23) 
CCOc1ccc(/C=N\OCC(=O)N2CCOCC2)cc1OCC (cis-trans isomerization)
CCOc1ccc(/C=N\OCC(=O)N2CCOCC2)cc1OCC (3D coordinates assigned)
CCOc1ccc(/C=N\OCC(=O)N2CCOCC2)cc1OCC (nonaromatic ring conformer: 45.378973767840556 kcal/mol)

>  <smiles>  (23) 
CCOc1ccc(C=NOCC(=O)N2CCOCC2)cc1OCC

>  <score_type>  (23) 
oracle

>  <origin>  (23) 
adg

>  <m_score__min__energy>  (23) 
-7.6100000000000003

>  <m_primary>  (23) 
energy

$$$$
24:0
     RDKit          3D

 52 54  0  0  0  0  0  0  0  0999 V2000
   57.8220   26.7030   45.1640 C   0  0  0  0  0  0  0  0  0  0  0  0
   57.3900   28.0290   45.7830 C   0  0  0  0  0  0  0  0  0  0  0  0
   57.5120   29.1190   44.8070 N   0  0  0  0  0  0  0  0  0  0  0  0
   56.2900   29.6940   44.2240 C   0  0  0  0  0  0  0  0  0  0  0  0
   56.5990   30.6110   43.0330 C   0  0  0  0  0  0  0  0  0  0  0  0
   57.7240   31.6050   43.3760 C   0  0  1  0  0  0  0  0  0  0  0  0
   57.3860   32.6150   44.5080 C   0  0  0  0  0  0  0  0  0  0  0  0
   58.4560   32.8130   45.5200 N   0  0  0  0  0  0  0  0  0  0  0  0
   59.2590   34.0070   45.1560 C   0  0  0  0  0  0  0  0  0  0  0  0
   60.2210   34.4630   46.2770 C   0  0  0  0  0  0  0  0  0  0  0  0
   60.2840   33.4750   47.3570 N   0  0  0  0  0  0  0  0  0  0  0  0
   61.5340   33.2050   48.0090 C   0  0  0  0  0  0  0  0  0  0  0  0
   62.1690   34.2140   48.7480 C   0  0  0  0  0  0  0  0  0  0  0  0
   63.3840   33.9600   49.3860 C   0  0  0  0  0  0  0  0  0  0  0  0
   63.9760   32.7000   49.2860 C   0  0  0  0  0  0  0  0  0  0  0  0
   63.3580   31.6910   48.5420 C   0  0  0  0  0  0  0  0  0  0  0  0
   62.1330   31.9370   47.8910 C   0  0  0  0  0  0  0  0  0  0  0  0
   61.4940   30.9610   47.1090 O   0  0  0  0  0  0  0  0  0  0  0  0
   60.7610   29.8590   47.6320 C   0  0  0  0  0  0  0  0  0  0  0  0
   59.0450   32.9340   47.9220 C   0  0  0  0  0  0  0  0  0  0  0  0
   57.9100   32.9700   46.8880 C   0  0  0  0  0  0  0  0  0  0  0  0
   58.8860   30.8680   43.7530 O   0  0  0  0  0  0  0  0  0  0  0  0
   58.7990   29.7100   44.5310 C   0  0  0  0  0  0  0  0  0  0  0  0
   59.8560   29.1770   44.9610 O   0  0  0  0  0  0  0  0  0  0  0  0
   58.0561   25.9843   45.9632 H   0  0  0  0  0  0  0  0  0  0  0  0
   57.0067   26.3062   44.5413 H   0  0  0  0  0  0  0  0  0  0  0  0
   58.7146   26.8626   44.5413 H   0  0  0  0  0  0  0  0  0  0  0  0
   56.3423   27.9514   46.1092 H   0  0  0  0  0  0  0  0  0  0  0  0
   58.0409   28.2479   46.6423 H   0  0  0  0  0  0  0  0  0  0  0  0
   55.6398   28.8751   43.8826 H   0  0  0  0  0  0  0  0  0  0  0  0
   55.7949   30.2978   44.9988 H   0  0  0  0  0  0  0  0  0  0  0  0
   56.9124   29.9951   42.1772 H   0  0  0  0  0  0  0  0  0  0  0  0
   55.6915   31.1818   42.7868 H   0  0  0  0  0  0  0  0  0  0  0  0
   57.8813   32.2081   42.4696 H   0  0  0  0  0  0  0  0  0  0  0  0
   57.1733   33.5888   44.0428 H   0  0  0  0  0  0  0  0  0  0  0  0
   56.5283   32.1900   45.0500 H   0  0  0  0  0  0  0  0  0  0  0  0
   59.1040   31.9910   45.4940 H   0  0  0  0  0  0  0  0  0  0  0  0
   59.8534   33.7684   44.2617 H   0  0  0  0  0  0  0  0  0  0  0  0
   58.5533   34.8317   44.9774 H   0  0  0  0  0  0  0  0  0  0  0  0
   61.2275   34.5962   45.8536 H   0  0  0  0  0  0  0  0  0  0  0  0
   59.8463   35.4098   46.6931 H   0  0  0  0  0  0  0  0  0  0  0  0
   61.7075   35.2095   48.8250 H   0  0  0  0  0  0  0  0  0  0  0  0
   63.8755   34.7535   49.9681 H   0  0  0  0  0  0  0  0  0  0  0  0
   64.9311   32.5006   49.7939 H   0  0  0  0  0  0  0  0  0  0  0  0
   63.8301   30.7005   48.4644 H   0  0  0  0  0  0  0  0  0  0  0  0
   60.7832   29.8924   48.7313 H   0  0  0  0  0  0  0  0  0  0  0  0
   59.7188   29.9138   47.2845 H   0  0  0  0  0  0  0  0  0  0  0  0
   61.2144   28.9190   47.2845 H   0  0  0  0  0  0  0  0  0  0  0  0
   59.2156   31.8929   48.2335 H   0  0  0  0  0  0  0  0  0  0  0  0
   58.7538   33.5503   48.7853 H   0  0  0  0  0  0  0  0  0  0  0  0
   57.2054   32.1507   47.0938 H   0  0  0  0  0  0  0  0  0  0  0  0
   57.3927   33.9382   46.9580 H   0  0  0  0  0  0  0  0  0  0  0  0
  1  2  1  0
  2  3  1  0
  3  4  1  0
  4  5  1  0
  5  6  1  0
  6  7  1  0
  7  8  1  0
  8  9  1  0
  9 10  1  0
 10 11  1  0
 11 12  1  0
 12 13  2  0
 13 14  1  0
 14 15  2  0
 15 16  1  0
 16 17  2  0
 17 18  1  0
 18 19  1  0
 11 20  1  0
 20 21  1  0
  6 22  1  0
 22 23  1  0
 23 24  2  0
 23  3  1  0
 21  8  1  0
 17 12  1  0
  1 25  1  0
  1 26  1  0
  1 27  1  0
  2 28  1  0
  2 29  1  0
  4 30  1  0
  4 31  1  0
  5 32  1  0
  5 33  1  0
  6 34  1  6
  7 35  1  0
  7 36  1  0
  8 37  1  0
  9 38  1  0
  9 39  1  0
 10 40  1  0
 10 41  1  0
 13 42  1  0
 14 43  1  0
 15 44  1  0
 16 45  1  0
 19 46  1  0
 19 47  1  0
 19 48  1  0
 20 49  1  0
 20 50  1  0
 21 51  1  0
 21 52  1  0
M  CHG  1   8   1
M  END
>  <UniqueID>  (24) 
24

>  <SMILES>  (24) 
CCN1CC[C@@H](C[NH+]2CCN(c3ccccc3OC)CC2)OC1=O

>  <Energy>  (24) 
59.78558415427087

>  <Genealogy>  (24) 
CCN1CCC(C[NH+]2CCN(c3ccccc3OC)CC2)OC1=O (protonated)
CCN1CC[C@@H](C[NH+]2CCN(c3ccccc3OC)CC2)OC1=O (chirality)
CCN1CC[C@@H](C[NH+]2CCN(c3ccccc3OC)CC2)OC1=O (3D coordinates assigned)
CCN1CC[C@@H](C[NH+]2CCN(c3ccccc3OC)CC2)OC1=O (nonaromatic ring conformer: 59.78558415427087 kcal/mol)

>  <smiles>  (24) 
CCN1CCC(CN2CCN(c3ccccc3OC)CC2)OC1=O

>  <score_type>  (24) 
oracle

>  <origin>  (24) 
adg

>  <m_score__min__energy>  (24) 
-5.5300000000000002

>  <m_primary>  (24) 
energy

$$$$
25:0
     RDKit          3D

 59 60  0  0  0  0  0  0  0  0999 V2000
   63.3140   33.8430   46.3770 C   0  0  0  0  0  0  0  0  0  0  0  0
   62.4400   33.0450   47.3380 C   0  0  0  0  0  0  0  0  0  0  0  0
   62.1730   33.8410   48.5570 N   0  0  0  0  0  0  0  0  0  0  0  0
   62.7680   33.2120   49.7570 C   0  0  0  0  0  0  0  0  0  0  0  0
   63.9680   32.3590   49.3600 C   0  0  0  0  0  0  0  0  0  0  0  0
   60.7230   34.0850   48.7390 C   0  0  0  0  0  0  0  0  0  0  0  0
   60.1350   33.1050   49.7570 C   0  0  0  0  0  0  0  0  0  0  0  0
   59.4570   32.0760   49.0660 O   0  0  0  0  0  0  0  0  0  0  0  0
   59.2370   30.9470   49.8920 C   0  0  0  0  0  0  0  0  0  0  0  0
   60.2590   29.8020   49.6600 C   0  0  2  0  0  0  0  0  0  0  0  0
   61.4850   29.9420   50.5760 C   0  0  0  0  0  0  0  0  0  0  0  0
   60.6870   29.6590   48.1840 C   0  0  0  0  0  0  0  0  0  0  0  0
   60.0510   28.4590   47.5900 N   0  0  0  0  0  0  0  0  0  0  0  0
   60.5330   28.1650   46.2250 C   0  0  0  0  0  0  0  0  0  0  0  0
   60.1020   29.2500   45.2230 C   0  0  0  0  0  0  0  0  0  0  0  0
   58.8010   29.8220   45.5970 N   0  0  0  0  0  0  0  0  0  0  0  0
   58.5290   31.2250   45.3870 C   0  0  0  0  0  0  0  0  0  0  0  0
   59.1730   32.1850   46.1880 C   0  0  0  0  0  0  0  0  0  0  0  0
   58.9870   33.5490   45.9560 C   0  0  0  0  0  0  0  0  0  0  0  0
   58.1450   33.9750   44.9290 C   0  0  0  0  0  0  0  0  0  0  0  0
   57.4730   33.0360   44.1440 C   0  0  0  0  0  0  0  0  0  0  0  0
   57.6540   31.6650   44.3670 C   0  0  0  0  0  0  0  0  0  0  0  0
   56.6100   30.4540   43.3090 Br  0  0  0  0  0  0  0  0  0  0  0  0
   57.8840   28.9890   46.3800 C   0  0  0  0  0  0  0  0  0  0  0  0
   58.5680   28.4880   47.6730 C   0  0  0  0  0  0  0  0  0  0  0  0
   64.0070   34.4757   46.9510 H   0  0  0  0  0  0  0  0  0  0  0  0
   63.8884   33.1513   45.7433 H   0  0  0  0  0  0  0  0  0  0  0  0
   62.6772   34.4778   45.7433 H   0  0  0  0  0  0  0  0  0  0  0  0
   61.4869   32.8004   46.8463 H   0  0  0  0  0  0  0  0  0  0  0  0
   62.9629   32.1187   47.6182 H   0  0  0  0  0  0  0  0  0  0  0  0
   63.0943   33.9967   50.4553 H   0  0  0  0  0  0  0  0  0  0  0  0
   62.0146   32.5719   50.2394 H   0  0  0  0  0  0  0  0  0  0  0  0
   64.4766   31.9975   50.2659 H   0  0  0  0  0  0  0  0  0  0  0  0
   63.6262   31.5001   48.7639 H   0  0  0  0  0  0  0  0  0  0  0  0
   64.6669   32.9641   48.7639 H   0  0  0  0  0  0  0  0  0  0  0  0
   60.5719   35.1136   49.0985 H   0  0  0  0  0  0  0  0  0  0  0  0
   60.2154   33.9406   47.7739 H   0  0  0  0  0  0  0  0  0  0  0  0
   60.9449   32.6715   50.3620 H   0  0  0  0  0  0  0  0  0  0  0  0
   59.4331   33.6333   50.4190 H   0  0  0  0  0  0  0  0  0  0  0  0
   59.3038   31.2659   50.9426 H   0  0  0  0  0  0  0  0  0  0  0  0
   58.2429   30.5497   49.6392 H   0  0  0  0  0  0  0  0  0  0  0  0
   59.7332   28.8731   49.9260 H   0  0  0  0  0  0  0  0  0  0  0  0
   61.1633   29.9053   51.6273 H   0  0  0  0  0  0  0  0  0  0  0  0
   62.1865   29.1181   50.3782 H   0  0  0  0  0  0  0  0  0  0  0  0
   61.9827   30.9028   50.3782 H   0  0  0  0  0  0  0  0  0  0  0  0
   60.3735   30.5529   47.6248 H   0  0  0  0  0  0  0  0  0  0  0  0
   61.7807   29.5534   48.1319 H   0  0  0  0  0  0  0  0  0  0  0  0
   61.6315   28.1091   46.2392 H   0  0  0  0  0  0  0  0  0  0  0  0
   60.0936   27.2088   45.9049 H   0  0  0  0  0  0  0  0  0  0  0  0
   60.8571   30.0498   45.2112 H   0  0  0  0  0  0  0  0  0  0  0  0
   60.0115   28.7925   44.2268 H   0  0  0  0  0  0  0  0  0  0  0  0
   59.8307   31.8574   47.0066 H   0  0  0  0  0  0  0  0  0  0  0  0
   59.5052   34.2887   46.5840 H   0  0  0  0  0  0  0  0  0  0  0  0
   58.0104   35.0498   44.7376 H   0  0  0  0  0  0  0  0  0  0  0  0
   56.7970   33.3751   43.3452 H   0  0  0  0  0  0  0  0  0  0  0  0
   56.9969   29.5820   46.6474 H   0  0  0  0  0  0  0  0  0  0  0  0
   57.5932   28.1182   45.7741 H   0  0  0  0  0  0  0  0  0  0  0  0
   58.2792   29.1540   48.4994 H   0  0  0  0  0  0  0  0  0  0  0  0
   58.2342   27.4522   47.8333 H   0  0  0  0  0  0  0  0  0  0  0  0
  1  2  1  0
  2  3  1  0
  3  4  1  0
  4  5  1  0
  3  6  1  0
  6  7  1  0
  7  8  1  0
  8  9  1  0
  9 10  1  0
 10 11  1  0
 10 12  1  0
 12 13  1  0
 13 14  1  0
 14 15  1  0
 15 16  1  0
 16 17  1  0
 17 18  2  0
 18 19  1  0
 19 20  2  0
 20 21  1  0
 21 22  2  0
 22 23  1  0
 16 24  1  0
 24 25  1  0
 25 13  1  0
 22 17  1  0
  1 26  1  0
  1 27  1  0
  1 28  1  0
  2 29  1  0
  2 30  1  0
  4 31  1  0
  4 32  1  0
  5 33  1  0
  5 34  1  0
  5 35  1  0
  6 36  1  0
  6 37  1  0
  7 38  1  0
  7 39  1  0
  9 40  1  0
  9 41  1  0
 10 42  1  1
 11 43  1  0
 11 44  1  0
 11 45  1  0
 12 46  1  0
 12 47  1  0
 14 48  1  0
 14 49  1  0
 15 50  1  0
 15 51  1  0
 18 52  1  0
 19 53  1  0
 20 54  1  0
 21 55  1  0
 24 56  1  0
 24 57  1  0
 25 58  1  0
 25 59  1  0
M  END
>  <UniqueID>  (25) 
25

>  <SMILES>  (25) 
CCN(CC)CCOC[C@H](C)CN1CCN(c2ccccc2Br)CC1

>  <Energy>  (25) 
67.29045567745018

>  <Genealogy>  (25) 
CCN(CC)CCOC[C@H](C)CN1CCN(c2ccccc2Br)CC1 (chirality)
CCN(CC)CCOC[C@H](C)CN1CCN(c2ccccc2Br)CC1 (3D coordinates assigned)
CCN(CC)CCOC[C@H](C)CN1CCN(c2ccccc2Br)CC1 (nonaromatic ring conformer: 67.29045567745018 kcal/mol)

>  <smiles>  (25) 
CCN(CC)CCOCC(C)CN1CCN(c2ccccc2Br)CC1

>  <score_type>  (25) 
oracle

>  <origin>  (25) 
adg

>  <m_score__min__energy>  (25) 
-7.9400000000000004

>  <m_primary>  (25) 
energy

$$$$
26:0
     RDKit          3D

 54 57  0  0  0  0  0  0  0  0999 V2000
   61.0970   29.9130   50.5760 C   0  0  0  0  0  0  0  0  0  0  0  0
   60.4470   30.3950   49.3130 C   0  0  0  0  0  0  0  0  0  0  0  0
   61.0660   30.1810   48.0730 C   0  0  0  0  0  0  0  0  0  0  0  0
   60.4410   30.5940   46.8930 C   0  0  0  0  0  0  0  0  0  0  0  0
   59.1840   31.2160   46.9360 C   0  0  0  0  0  0  0  0  0  0  0  0
   58.5090   31.6390   45.6570 C   0  0  0  0  0  0  0  0  0  0  0  0
   58.1770   33.0780   45.7030 N   0  0  0  0  0  0  0  0  0  0  0  0
   57.4020   33.4530   44.5070 C   0  0  0  0  0  0  0  0  0  0  0  0
   59.3970   33.9110   45.8160 C   0  0  0  0  0  0  0  0  0  0  0  0
   59.3260   34.7840   47.0700 C   0  0  0  0  0  0  0  0  0  0  0  0
   60.3340   34.3570   48.0370 N   0  0  0  0  0  0  0  0  0  0  0  0
   60.1870   34.2200   49.3790 C   0  0  0  0  0  0  0  0  0  0  0  0
   61.3060   33.7370   49.9760 N   0  0  0  0  0  0  0  0  0  0  0  0
   62.1710   33.5480   48.9610 C   0  0  0  0  0  0  0  0  0  0  0  0
   63.4900   33.0850   48.9580 C   0  0  0  0  0  0  0  0  0  0  0  0
   64.1660   32.6420   50.1500 N   0  0  0  0  0  0  0  0  0  0  0  0
   63.9920   31.2720   50.6510 C   0  0  0  0  0  0  0  0  0  0  0  0
   65.3200   30.7440   51.2080 C   0  0  0  0  0  0  0  0  0  0  0  0
   66.3950   31.2580   50.4480 O   0  0  0  0  0  0  0  0  0  0  0  0
   66.5720   32.6440   50.7120 C   0  0  0  0  0  0  0  0  0  0  0  0
   65.2490   33.4440   50.7250 C   0  0  0  0  0  0  0  0  0  0  0  0
   64.1300   33.0460   47.7490 N   0  0  0  0  0  0  0  0  0  0  0  0
   63.5120   33.4320   46.5880 C   0  0  0  0  0  0  0  0  0  0  0  0
   62.2210   33.8770   46.6050 N   0  0  0  0  0  0  0  0  0  0  0  0
   61.5820   33.9250   47.7970 C   0  0  0  0  0  0  0  0  0  0  0  0
   58.5580   31.4150   48.1770 C   0  0  0  0  0  0  0  0  0  0  0  0
   59.1820   31.0000   49.3570 C   0  0  0  0  0  0  0  0  0  0  0  0
   60.5545   30.3153   51.4442 H   0  0  0  0  0  0  0  0  0  0  0  0
   61.0716   28.8137   50.6050 H   0  0  0  0  0  0  0  0  0  0  0  0
   62.1416   30.2565   50.6050 H   0  0  0  0  0  0  0  0  0  0  0  0
   62.0474   29.6861   48.0288 H   0  0  0  0  0  0  0  0  0  0  0  0
   60.9374   30.4305   45.9251 H   0  0  0  0  0  0  0  0  0  0  0  0
   59.1851   31.4496   44.8102 H   0  0  0  0  0  0  0  0  0  0  0  0
   57.5806   31.0617   45.5349 H   0  0  0  0  0  0  0  0  0  0  0  0
   56.4515   33.9129   44.8153 H   0  0  0  0  0  0  0  0  0  0  0  0
   57.9792   34.1715   43.9065 H   0  0  0  0  0  0  0  0  0  0  0  0
   57.1968   32.5545   43.9065 H   0  0  0  0  0  0  0  0  0  0  0  0
   60.2792   33.2569   45.8781 H   0  0  0  0  0  0  0  0  0  0  0  0
   59.4721   34.5596   44.9308 H   0  0  0  0  0  0  0  0  0  0  0  0
   59.5083   35.8330   46.7937 H   0  0  0  0  0  0  0  0  0  0  0  0
   58.3283   34.6838   47.5222 H   0  0  0  0  0  0  0  0  0  0  0  0
   59.2643   34.4722   49.9221 H   0  0  0  0  0  0  0  0  0  0  0  0
   61.4460   33.5750   50.9960 H   0  0  0  0  0  0  0  0  0  0  0  0
   63.2355   31.2696   51.4495 H   0  0  0  0  0  0  0  0  0  0  0  0
   63.6644   30.6244   49.8244 H   0  0  0  0  0  0  0  0  0  0  0  0
   65.4287   31.0612   52.2557 H   0  0  0  0  0  0  0  0  0  0  0  0
   65.3270   29.6455   51.1512 H   0  0  0  0  0  0  0  0  0  0  0  0
   67.0539   32.7523   51.6949 H   0  0  0  0  0  0  0  0  0  0  0  0
   67.1885   33.0520   49.8975 H   0  0  0  0  0  0  0  0  0  0  0  0
   64.9943   33.7079   51.7621 H   0  0  0  0  0  0  0  0  0  0  0  0
   65.3763   34.3572   50.1251 H   0  0  0  0  0  0  0  0  0  0  0  0
   64.0600   33.3830   45.6355 H   0  0  0  0  0  0  0  0  0  0  0  0
   57.5716   31.8999   48.2209 H   0  0  0  0  0  0  0  0  0  0  0  0
   58.6791   31.1484   50.3240 H   0  0  0  0  0  0  0  0  0  0  0  0
  1  2  1  0
  2  3  2  0
  3  4  1  0
  4  5  2  0
  5  6  1  0
  6  7  1  0
  7  8  1  0
  7  9  1  0
  9 10  1  0
 10 11  1  0
 11 12  1  0
 12 13  2  0
 13 14  1  0
 14 15  2  0
 15 16  1  0
 16 17  1  0
 17 18  1  0
 18 19  1  0
 19 20  1  0
 20 21  1  0
 15 22  1  0
 22 23  2  0
 23 24  1  0
 24 25  2  0
  5 26  1  0
 26 27  2  0
 27  2  1  0
 25 11  1  0
 25 14  1  0
 21 16  1  0
  1 28  1  0
  1 29  1  0
  1 30  1  0
  3 31  1  0
  4 32  1  0
  6 33  1  0
  6 34  1  0
  8 35  1  0
  8 36  1  0
  8 37  1  0
  9 38  1  0
  9 39  1  0
 10 40  1  0
 10 41  1  0
 12 42  1  0
 13 43  1  0
 17 44  1  0
 17 45  1  0
 18 46  1  0
 18 47  1  0
 20 48  1  0
 20 49  1  0
 21 50  1  0
 21 51  1  0
 23 52  1  0
 26 53  1  0
 27 54  1  0
M  CHG  1  13   1
M  END
>  <UniqueID>  (26) 
26

>  <SMILES>  (26) 
Cc1ccc(CN(C)CCn2c[nH+]c3c(N4CCOCC4)ncnc32)cc1

>  <Energy>  (26) 
108.34452125510062

>  <Genealogy>  (26) 
Cc1ccc(CN(C)CCn2c[nH+]c3c(N4CCOCC4)ncnc32)cc1 (protonated)
Cc1ccc(CN(C)CCn2c[nH+]c3c(N4CCOCC4)ncnc32)cc1 (3D coordinates assigned)
Cc1ccc(CN(C)CCn2c[nH+]c3c(N4CCOCC4)ncnc32)cc1 (nonaromatic ring conformer: 108.34452125510062 kcal/mol)

>  <smiles>  (26) 
Cc1ccc(CN(C)CCn2cnc3c(N4CCOCC4)ncnc32)cc1

>  <score_type>  (26) 
oracle

>  <origin>  (26) 
adg

>  <m_score__min__energy>  (26) 
-6.5099999999999998

>  <m_primary>  (26) 
energy

$$$$
27:0
     RDKit          3D

 48 50  0  0  0  0  0  0  0  0999 V2000
   54.2340   24.8930   45.6150 C   0  0  0  0  0  0  0  0  0  0  0  0
   54.7510   26.1680   45.9770 O   0  0  0  0  0  0  0  0  0  0  0  0
   56.1120   26.4450   46.1690 C   0  0  0  0  0  0  0  0  0  0  0  0
   56.9540   25.6110   46.9290 C   0  0  0  0  0  0  0  0  0  0  0  0
   58.3050   25.9290   47.0900 C   0  0  0  0  0  0  0  0  0  0  0  0
   58.8460   27.0830   46.4920 C   0  0  0  0  0  0  0  0  0  0  0  0
   60.2770   27.4440   46.6570 C   0  0  0  0  0  0  0  0  0  0  0  0
   61.1580   26.5770   46.4010 O   0  0  0  0  0  0  0  0  0  0  0  0
   60.7110   28.8380   47.0670 C   0  0  0  0  0  0  0  0  0  0  0  0
   60.3750   29.8800   45.9740 C   0  0  0  0  0  0  0  0  0  0  0  0
   60.3490   31.2940   46.5700 C   0  0  0  0  0  0  0  0  0  0  0  0
   59.3300   31.4500   47.6460 N   0  0  0  0  0  0  0  0  0  0  0  0
   58.1400   32.1950   47.1860 C   0  0  0  0  0  0  0  0  0  0  0  0
   57.9350   32.0030   45.7040 C   0  0  0  0  0  0  0  0  0  0  0  0
   57.3380   30.8540   45.2790 N   0  0  0  0  0  0  0  0  0  0  0  0
   57.1250   30.5910   43.9640 C   0  0  0  0  0  0  0  0  0  0  0  0
   57.5250   31.5080   42.9960 C   0  0  0  0  0  0  0  0  0  0  0  0
   58.1400   32.6960   43.3920 C   0  0  0  0  0  0  0  0  0  0  0  0
   58.3490   32.9660   44.7530 C   0  0  0  0  0  0  0  0  0  0  0  0
   59.0280   34.2470   45.1610 C   0  0  0  0  0  0  0  0  0  0  0  0
   58.9260   30.1780   48.2920 C   0  0  0  0  0  0  0  0  0  0  0  0
   60.1140   29.2210   48.4430 C   0  0  0  0  0  0  0  0  0  0  0  0
   57.9970   27.9180   45.7440 C   0  0  0  0  0  0  0  0  0  0  0  0
   56.6450   27.5980   45.5840 C   0  0  0  0  0  0  0  0  0  0  0  0
   54.0016   24.3198   46.5247 H   0  0  0  0  0  0  0  0  0  0  0  0
   53.3180   25.0242   45.0202 H   0  0  0  0  0  0  0  0  0  0  0  0
   54.9827   24.3492   45.0202 H   0  0  0  0  0  0  0  0  0  0  0  0
   56.5459   24.7039   47.3987 H   0  0  0  0  0  0  0  0  0  0  0  0
   58.9519   25.2716   47.6895 H   0  0  0  0  0  0  0  0  0  0  0  0
   61.8056   28.8359   47.1754 H   0  0  0  0  0  0  0  0  0  0  0  0
   61.1383   29.8343   45.1833 H   0  0  0  0  0  0  0  0  0  0  0  0
   59.3832   29.6512   45.5569 H   0  0  0  0  0  0  0  0  0  0  0  0
   61.3408   31.5161   46.9907 H   0  0  0  0  0  0  0  0  0  0  0  0
   60.0835   31.9893   45.7600 H   0  0  0  0  0  0  0  0  0  0  0  0
   57.2534   31.8286   47.7243 H   0  0  0  0  0  0  0  0  0  0  0  0
   58.2914   33.2657   47.3878 H   0  0  0  0  0  0  0  0  0  0  0  0
   56.6360   29.6526   43.6634 H   0  0  0  0  0  0  0  0  0  0  0  0
   57.3578   31.2979   41.9293 H   0  0  0  0  0  0  0  0  0  0  0  0
   58.4626   33.4245   42.6336 H   0  0  0  0  0  0  0  0  0  0  0  0
   59.0617   34.3106   46.2586 H   0  0  0  0  0  0  0  0  0  0  0  0
   60.0526   34.2623   44.7612 H   0  0  0  0  0  0  0  0  0  0  0  0
   58.4655   35.1036   44.7612 H   0  0  0  0  0  0  0  0  0  0  0  0
   58.5157   30.3981   49.2886 H   0  0  0  0  0  0  0  0  0  0  0  0
   58.1714   29.6928   47.6555 H   0  0  0  0  0  0  0  0  0  0  0  0
   60.8925   29.7099   49.0471 H   0  0  0  0  0  0  0  0  0  0  0  0
   59.7580   28.3027   48.9329 H   0  0  0  0  0  0  0  0  0  0  0  0
   58.3998   28.8308   45.2807 H   0  0  0  0  0  0  0  0  0  0  0  0
   55.9948   28.2594   44.9925 H   0  0  0  0  0  0  0  0  0  0  0  0
  1  2  1  0
  2  3  1  0
  3  4  2  0
  4  5  1  0
  5  6  2  0
  6  7  1  0
  7  8  2  0
  7  9  1  0
  9 10  1  0
 10 11  1  0
 11 12  1  0
 12 13  1  0
 13 14  1  0
 14 15  2  0
 15 16  1  0
 16 17  2  0
 17 18  1  0
 18 19  2  0
 19 20  1  0
 12 21  1  0
 21 22  1  0
  6 23  1  0
 23 24  2  0
 24  3  1  0
 22  9  1  0
 19 14  1  0
  1 25  1  0
  1 26  1  0
  1 27  1  0
  4 28  1  0
  5 29  1  0
  9 30  1  0
 10 31  1  0
 10 32  1  0
 11 33  1  0
 11 34  1  0
 13 35  1  0
 13 36  1  0
 16 37  1  0
 17 38  1  0
 18 39  1  0
 20 40  1  0
 20 41  1  0
 20 42  1  0
 21 43  1  0
 21 44  1  0
 22 45  1  0
 22 46  1  0
 23 47  1  0
 24 48  1  0
M  END
>  <UniqueID>  (27) 
27

>  <SMILES>  (27) 
COc1ccc(C(=O)C2CCN(Cc3ncccc3C)CC2)cc1

>  <Energy>  (27) 
60.55501315898793

>  <Genealogy>  (27) 
COc1ccc(C(=O)C2CCN(Cc3ncccc3C)CC2)cc1 (3D coordinates assigned)
COc1ccc(C(=O)C2CCN(Cc3ncccc3C)CC2)cc1 (nonaromatic ring conformer: 60.55501315898793 kcal/mol)

>  <smiles>  (27) 
COc1ccc(C(=O)C2CCN(Cc3ncccc3C)CC2)cc1

>  <score_type>  (27) 
oracle

>  <origin>  (27) 
adg

>  <m_score__min__energy>  (27) 
-8.1699999999999999

>  <m_primary>  (27) 
energy

$$$$
28:0
     RDKit          3D

 52 55  0  0  0  0  0  0  0  0999 V2000
   55.9460   29.7020   43.0620 C   0  0  0  0  0  0  0  0  0  0  0  0
   55.9560   30.4830   44.2520 O   0  0  0  0  0  0  0  0  0  0  0  0
   57.1170   30.9880   44.8600 C   0  0  0  0  0  0  0  0  0  0  0  0
   57.3660   32.3620   44.7790 C   0  0  0  0  0  0  0  0  0  0  0  0
   58.5020   32.9170   45.3750 C   0  0  0  0  0  0  0  0  0  0  0  0
   59.4100   32.0990   46.0610 C   0  0  0  0  0  0  0  0  0  0  0  0
   60.5150   32.6360   46.6510 N   0  0  0  0  0  0  0  0  0  0  0  0
   61.3960   31.8500   47.3240 C   0  0  0  0  0  0  0  0  0  0  0  0
   61.1900   30.5120   47.4170 N   0  0  0  0  0  0  0  0  0  0  0  0
   60.1080   29.9220   46.8450 C   0  0  0  0  0  0  0  0  0  0  0  0
   59.9340   28.5070   46.9770 N   0  0  0  0  0  0  0  0  0  0  0  0
   60.7720   27.6020   46.1830 C   0  0  0  0  0  0  0  0  0  0  0  0
   60.3420   26.1420   46.3620 C   0  0  0  0  0  0  0  0  0  0  0  0
   58.8750   26.0370   46.3260 N   0  0  0  0  0  0  0  0  0  0  0  0
   58.2490   24.9700   45.5810 C   0  0  0  0  0  0  0  0  0  0  0  0
   58.9150   23.9370   45.2950 O   0  0  0  0  0  0  0  0  0  0  0  0
   56.7900   25.0590   45.1590 C   0  0  1  0  0  0  0  0  0  0  0  0
   56.3440   23.9890   44.1670 C   0  0  0  0  0  0  0  0  0  0  0  0
   54.8400   23.9080   44.3650 C   0  0  0  0  0  0  0  0  0  0  0  0
   54.5470   24.7080   45.6350 C   0  0  0  0  0  0  0  0  0  0  0  0
   55.8300   25.0370   46.2780 N   0  0  0  0  0  0  0  0  0  0  0  0
   56.1550   24.0210   47.3020 C   0  0  0  0  0  0  0  0  0  0  0  0
   58.0570   26.9450   47.1520 C   0  0  0  0  0  0  0  0  0  0  0  0
   58.9180   27.9770   47.8880 C   0  0  0  0  0  0  0  0  0  0  0  0
   59.1750   30.7100   46.1440 C   0  0  0  0  0  0  0  0  0  0  0  0
   58.0280   30.1610   45.5420 C   0  0  0  0  0  0  0  0  0  0  0  0
   55.9323   28.6339   43.3245 H   0  0  0  0  0  0  0  0  0  0  0  0
   55.0509   29.9458   42.4709 H   0  0  0  0  0  0  0  0  0  0  0  0
   56.8470   29.9228   42.4709 H   0  0  0  0  0  0  0  0  0  0  0  0
   56.6607   33.0123   44.2408 H   0  0  0  0  0  0  0  0  0  0  0  0
   58.6840   33.9996   45.3054 H   0  0  0  0  0  0  0  0  0  0  0  0
   60.7000   33.6630   46.5960 H   0  0  0  0  0  0  0  0  0  0  0  0
   62.2812   32.3011   47.7961 H   0  0  0  0  0  0  0  0  0  0  0  0
   60.6850   27.8732   45.1205 H   0  0  0  0  0  0  0  0  0  0  0  0
   61.8121   27.7016   46.5269 H   0  0  0  0  0  0  0  0  0  0  0  0
   60.7699   25.5350   45.5505 H   0  0  0  0  0  0  0  0  0  0  0  0
   60.7045   25.7774   47.3345 H   0  0  0  0  0  0  0  0  0  0  0  0
   56.7702   26.0434   44.6684 H   0  0  0  0  0  0  0  0  0  0  0  0
   56.5872   24.2859   43.1361 H   0  0  0  0  0  0  0  0  0  0  0  0
   56.8452   23.0238   44.3317 H   0  0  0  0  0  0  0  0  0  0  0  0
   54.3154   24.3486   43.5044 H   0  0  0  0  0  0  0  0  0  0  0  0
   54.4972   22.8665   44.4527 H   0  0  0  0  0  0  0  0  0  0  0  0
   54.0118   25.6337   45.3768 H   0  0  0  0  0  0  0  0  0  0  0  0
   53.9194   24.1181   46.3192 H   0  0  0  0  0  0  0  0  0  0  0  0
   56.0168   24.4531   48.3041 H   0  0  0  0  0  0  0  0  0  0  0  0
   55.4896   23.1534   47.1818 H   0  0  0  0  0  0  0  0  0  0  0  0
   57.2004   23.7007   47.1818 H   0  0  0  0  0  0  0  0  0  0  0  0
   57.3455   27.4743   46.5011 H   0  0  0  0  0  0  0  0  0  0  0  0
   57.5303   26.3403   47.9050 H   0  0  0  0  0  0  0  0  0  0  0  0
   58.2800   28.7995   48.2435 H   0  0  0  0  0  0  0  0  0  0  0  0
   59.4110   27.4967   48.7460 H   0  0  0  0  0  0  0  0  0  0  0  0
   57.8424   29.0786   45.6050 H   0  0  0  0  0  0  0  0  0  0  0  0
  1  2  1  0
  2  3  1  0
  3  4  2  0
  4  5  1  0
  5  6  2  0
  6  7  1  0
  7  8  2  0
  8  9  1  0
  9 10  2  0
 10 11  1  0
 11 12  1  0
 12 13  1  0
 13 14  1  0
 14 15  1  0
 15 16  2  0
 15 17  1  0
 17 18  1  0
 18 19  1  0
 19 20  1  0
 20 21  1  0
 21 22  1  0
 14 23  1  0
 23 24  1  0
 10 25  1  0
 25 26  2  0
 26  3  1  0
 25  6  1  0
 24 11  1  0
 21 17  1  0
  1 27  1  0
  1 28  1  0
  1 29  1  0
  4 30  1  0
  5 31  1  0
  7 32  1  0
  8 33  1  0
 12 34  1  0
 12 35  1  0
 13 36  1  0
 13 37  1  0
 17 38  1  6
 18 39  1  0
 18 40  1  0
 19 41  1  0
 19 42  1  0
 20 43  1  0
 20 44  1  0
 22 45  1  0
 22 46  1  0
 22 47  1  0
 23 48  1  0
 23 49  1  0
 24 50  1  0
 24 51  1  0
 26 52  1  0
M  CHG  1   7   1
M  END
>  <UniqueID>  (28) 
28

>  <SMILES>  (28) 
COc1ccc2[nH+]cnc(N3CCN(C(=O)[C@H]4CCCN4C)CC3)c2c1

>  <Energy>  (28) 
69.62416740851646

>  <Genealogy>  (28) 
COc1ccc2[nH+]cnc(N3CCN(C(=O)C4CCCN4C)CC3)c2c1 (protonated)
COc1ccc2[nH+]cnc(N3CCN(C(=O)[C@H]4CCCN4C)CC3)c2c1 (chirality)
COc1ccc2[nH+]cnc(N3CCN(C(=O)[C@H]4CCCN4C)CC3)c2c1 (3D coordinates assigned)
COc1ccc2[nH+]cnc(N3CCN(C(=O)[C@H]4CCCN4C)CC3)c2c1 (nonaromatic ring conformer: 69.62416740851646 kcal/mol)

>  <smiles>  (28) 
COc1ccc2ncnc(N3CCN(C(=O)C4CCCN4C)CC3)c2c1

>  <score_type>  (28) 
oracle

>  <origin>  (28) 
adg

>  <m_score__min__energy>  (28) 
-6.0099999999999998

>  <m_primary>  (28) 
energy

$$$$
29:0
     RDKit          3D

 56 59  0  0  0  0  0  0  0  0999 V2000
   55.6810   21.9390   47.6440 C   0  0  0  0  0  0  0  0  0  0  0  0
   57.0050   21.7970   46.9030 C   0  0  0  0  0  0  0  0  0  0  0  0
   57.0760   22.7500   45.7880 N   0  0  0  0  0  0  0  0  0  0  0  0
   57.0240   22.4400   44.4710 C   0  0  0  0  0  0  0  0  0  0  0  0
   56.8280   21.0600   43.9200 C   0  0  0  0  0  0  0  0  0  0  0  0
   57.1420   23.5810   43.7020 C   0  0  0  0  0  0  0  0  0  0  0  0
   57.2910   24.6320   44.5850 C   0  0  0  0  0  0  0  0  0  0  0  0
   57.4420   26.0430   44.1910 C   0  0  0  0  0  0  0  0  0  0  0  0
   57.8590   26.4630   42.9790 N   0  0  0  0  0  0  0  0  0  0  0  0
   57.8570   27.7820   43.0430 N   0  0  0  0  0  0  0  0  0  0  0  0
   57.4440   28.1270   44.2760 C   0  0  0  0  0  0  0  0  0  0  0  0
   57.2970   29.5370   44.7790 C   0  0  0  0  0  0  0  0  0  0  0  0
   57.6010   30.5530   43.6710 C   0  0  0  0  0  0  0  0  0  0  0  0
   57.3950   32.0020   44.1680 C   0  0  0  0  0  0  0  0  0  0  0  0
   57.3930   32.1070   45.6500 N   0  0  0  0  0  0  0  0  0  0  0  0
   57.5230   33.5140   46.0830 C   0  0  0  0  0  0  0  0  0  0  0  0
   58.8450   33.7420   46.7680 C   0  0  0  0  0  0  0  0  0  0  0  0
   60.0080   33.9790   46.0160 C   0  0  0  0  0  0  0  0  0  0  0  0
   61.2280   34.2110   46.6610 C   0  0  0  0  0  0  0  0  0  0  0  0
   61.2930   34.2130   48.0570 C   0  0  0  0  0  0  0  0  0  0  0  0
   60.1380   33.9870   48.8120 C   0  0  0  0  0  0  0  0  0  0  0  0
   60.2020   33.9970   50.1660 F   0  0  0  0  0  0  0  0  0  0  0  0
   58.9160   33.7560   48.1700 C   0  0  0  0  0  0  0  0  0  0  0  0
   58.4710   31.2860   46.2330 C   0  0  0  0  0  0  0  0  0  0  0  0
   58.1950   29.7870   46.0080 C   0  0  0  0  0  0  0  0  0  0  0  0
   57.1880   27.0570   44.9880 O   0  0  0  0  0  0  0  0  0  0  0  0
   57.2620   24.0910   45.8650 C   0  0  0  0  0  0  0  0  0  0  0  0
   57.4010   24.8780   47.1400 C   0  0  0  0  0  0  0  0  0  0  0  0
   55.8638   21.9194   48.7285 H   0  0  0  0  0  0  0  0  0  0  0  0
   55.2075   22.8931   47.3692 H   0  0  0  0  0  0  0  0  0  0  0  0
   55.0159   21.1070   47.3692 H   0  0  0  0  0  0  0  0  0  0  0  0
   57.8328   21.9935   47.6002 H   0  0  0  0  0  0  0  0  0  0  0  0
   57.0804   20.7752   46.5026 H   0  0  0  0  0  0  0  0  0  0  0  0
   56.7264   20.3449   44.7497 H   0  0  0  0  0  0  0  0  0  0  0  0
   55.9176   21.0374   43.3030 H   0  0  0  0  0  0  0  0  0  0  0  0
   57.6961   20.7848   43.3030 H   0  0  0  0  0  0  0  0  0  0  0  0
   57.1214   23.6407   42.6038 H   0  0  0  0  0  0  0  0  0  0  0  0
   58.1320   28.4190   42.2620 H   0  0  0  0  0  0  0  0  0  0  0  0
   56.2502   29.6715   45.0890 H   0  0  0  0  0  0  0  0  0  0  0  0
   58.6453   30.4297   43.3481 H   0  0  0  0  0  0  0  0  0  0  0  0
   56.9114   30.3711   42.8335 H   0  0  0  0  0  0  0  0  0  0  0  0
   58.2081   32.6283   43.7723 H   0  0  0  0  0  0  0  0  0  0  0  0
   56.4105   32.3381   43.8106 H   0  0  0  0  0  0  0  0  0  0  0  0
   57.4549   34.1701   45.2028 H   0  0  0  0  0  0  0  0  0  0  0  0
   56.7139   33.7410   46.7928 H   0  0  0  0  0  0  0  0  0  0  0  0
   59.9593   33.9822   44.9171 H   0  0  0  0  0  0  0  0  0  0  0  0
   62.1369   34.3920   46.0685 H   0  0  0  0  0  0  0  0  0  0  0  0
   62.2535   34.3925   48.5622 H   0  0  0  0  0  0  0  0  0  0  0  0
   58.0076   33.5847   48.7663 H   0  0  0  0  0  0  0  0  0  0  0  0
   59.4261   31.5529   45.7570 H   0  0  0  0  0  0  0  0  0  0  0  0
   58.5173   31.4790   47.3150 H   0  0  0  0  0  0  0  0  0  0  0  0
   59.1537   29.2692   45.8572 H   0  0  0  0  0  0  0  0  0  0  0  0
   57.6678   29.4043   46.8944 H   0  0  0  0  0  0  0  0  0  0  0  0
   57.2820   24.2044   48.0015 H   0  0  0  0  0  0  0  0  0  0  0  0
   58.3957   25.3462   47.1753 H   0  0  0  0  0  0  0  0  0  0  0  0
   56.6268   25.6587   47.1753 H   0  0  0  0  0  0  0  0  0  0  0  0
  1  2  1  0
  2  3  1  0
  3  4  1  0
  4  5  1  0
  4  6  2  0
  6  7  1  0
  7  8  1  0
  8  9  2  0
  9 10  1  0
 10 11  2  0
 11 12  1  0
 12 13  1  0
 13 14  1  0
 14 15  1  0
 15 16  1  0
 16 17  1  0
 17 18  2  0
 18 19  1  0
 19 20  2  0
 20 21  1  0
 21 22  1  0
 21 23  2  0
 15 24  1  0
 24 25  1  0
 11 26  1  0
  7 27  2  0
 27 28  1  0
 27  3  1  0
 26  8  1  0
 25 12  1  0
 23 17  1  0
  1 29  1  0
  1 30  1  0
  1 31  1  0
  2 32  1  0
  2 33  1  0
  5 34  1  0
  5 35  1  0
  5 36  1  0
  6 37  1  0
 10 38  1  0
 12 39  1  0
 13 40  1  0
 13 41  1  0
 14 42  1  0
 14 43  1  0
 16 44  1  0
 16 45  1  0
 18 46  1  0
 19 47  1  0
 20 48  1  0
 23 49  1  0
 24 50  1  0
 24 51  1  0
 25 52  1  0
 25 53  1  0
 28 54  1  0
 28 55  1  0
 28 56  1  0
M  CHG  1  10   1
M  END
>  <UniqueID>  (29) 
29

>  <SMILES>  (29) 
CCn1c(C)cc(-c2n[nH+]c(C3CCN(Cc4cccc(F)c4)CC3)o2)c1C

>  <Energy>  (29) 
120.69701869084949

>  <Genealogy>  (29) 
CCn1c(C)cc(-c2n[nH+]c(C3CCN(Cc4cccc(F)c4)CC3)o2)c1C (protonated)
CCn1c(C)cc(-c2n[nH+]c(C3CCN(Cc4cccc(F)c4)CC3)o2)c1C (3D coordinates assigned)
CCn1c(C)cc(-c2n[nH+]c(C3CCN(Cc4cccc(F)c4)CC3)o2)c1C (nonaromatic ring conformer: 120.69701869084949 kcal/mol)

>  <smiles>  (29) 
CCn1c(C)cc(-c2nnc(C3CCN(Cc4cccc(F)c4)CC3)o2)c1C

>  <score_type>  (29) 
oracle

>  <origin>  (29) 
adg

>  <m_score__min__energy>  (29) 
-6.8499999999999996

>  <m_primary>  (29) 
energy

$$$$
30:0
     RDKit          3D

 57 59  0  0  0  0  0  0  0  0999 V2000
   56.5940   23.3470   43.1750 C   0  0  0  0  0  0  0  0  0  0  0  0
   56.7390   24.3280   44.3390 C   0  0  0  0  0  0  0  0  0  0  0  0
   55.4450   24.4590   45.1660 C   0  0  0  0  0  0  0  0  0  0  0  0
   55.6090   25.3090   46.3630 N   0  0  0  0  0  0  0  0  0  0  0  0
   57.0130   25.6430   46.6550 C   0  0  0  0  0  0  0  0  0  0  0  0
   57.3390   27.0730   46.3010 C   0  0  0  0  0  0  0  0  0  0  0  0
   56.6410   27.7200   45.2710 C   0  0  0  0  0  0  0  0  0  0  0  0
   56.8870   29.0640   44.9860 C   0  0  0  0  0  0  0  0  0  0  0  0
   57.8400   29.7880   45.7270 C   0  0  0  0  0  0  0  0  0  0  0  0
   58.0730   31.2270   45.4490 C   0  0  0  0  0  0  0  0  0  0  0  0
   57.5130   31.8400   44.3150 C   0  0  0  0  0  0  0  0  0  0  0  0
   57.7530   33.1890   44.0520 C   0  0  0  0  0  0  0  0  0  0  0  0
   58.5490   33.9450   44.9150 C   0  0  0  0  0  0  0  0  0  0  0  0
   59.1120   33.3570   46.0600 C   0  0  0  0  0  0  0  0  0  0  0  0
   59.9730   34.1510   46.9650 C   0  0  0  0  0  0  0  0  0  0  0  0
   59.8520   35.4070   47.0000 O   0  0  0  0  0  0  0  0  0  0  0  0
   60.9460   33.5060   47.8040 N   0  0  0  0  0  0  0  0  0  0  0  0
   62.1220   34.2150   48.3250 C   0  0  1  0  0  0  0  0  0  0  0  0
   62.3420   33.9090   49.8310 C   0  0  0  0  0  0  0  0  0  0  0  0
   63.4230   32.8420   50.1060 C   0  0  0  0  0  0  0  0  0  0  0  0
   63.4710   31.7550   49.0220 C   0  0  1  0  0  0  0  0  0  0  0  0
   62.2760   31.0180   49.0520 O   0  0  0  0  0  0  0  0  0  0  0  0
   63.7100   32.3520   47.6100 C   0  0  0  0  0  0  0  0  0  0  0  0
   63.3690   33.8510   47.5010 C   0  0  0  0  0  0  0  0  0  0  0  0
   58.8740   31.9930   46.3140 C   0  0  0  0  0  0  0  0  0  0  0  0
   58.5470   29.1330   46.7500 C   0  0  0  0  0  0  0  0  0  0  0  0
   58.2960   27.7890   47.0370 C   0  0  0  0  0  0  0  0  0  0  0  0
   56.4438   22.3308   43.5684 H   0  0  0  0  0  0  0  0  0  0  0  0
   55.7285   23.6336   42.5596 H   0  0  0  0  0  0  0  0  0  0  0  0
   57.5054   23.3709   42.5596 H   0  0  0  0  0  0  0  0  0  0  0  0
   57.5452   23.9753   44.9991 H   0  0  0  0  0  0  0  0  0  0  0  0
   56.9663   25.3174   43.9155 H   0  0  0  0  0  0  0  0  0  0  0  0
   54.6642   24.8987   44.5280 H   0  0  0  0  0  0  0  0  0  0  0  0
   55.1724   23.4513   45.5127 H   0  0  0  0  0  0  0  0  0  0  0  0
   55.1620   24.8870   47.2080 H   0  0  0  0  0  0  0  0  0  0  0  0
   57.1981   25.4919   47.7287 H   0  0  0  0  0  0  0  0  0  0  0  0
   57.6522   24.9877   46.0450 H   0  0  0  0  0  0  0  0  0  0  0  0
   55.8948   27.1646   44.6839 H   0  0  0  0  0  0  0  0  0  0  0  0
   56.3322   29.5610   44.1766 H   0  0  0  0  0  0  0  0  0  0  0  0
   56.8822   31.2531   43.6312 H   0  0  0  0  0  0  0  0  0  0  0  0
   57.3130   33.6594   43.1603 H   0  0  0  0  0  0  0  0  0  0  0  0
   58.7363   35.0068   44.6971 H   0  0  0  0  0  0  0  0  0  0  0  0
   60.7900   32.5040   48.0540 H   0  0  0  0  0  0  0  0  0  0  0  0
   61.9431   35.2963   48.2310 H   0  0  0  0  0  0  0  0  0  0  0  0
   61.3907   33.5539   50.2539 H   0  0  0  0  0  0  0  0  0  0  0  0
   62.6918   34.8422   50.2965 H   0  0  0  0  0  0  0  0  0  0  0  0
   63.2087   32.3649   51.0737 H   0  0  0  0  0  0  0  0  0  0  0  0
   64.3985   33.3503   50.1107 H   0  0  0  0  0  0  0  0  0  0  0  0
   64.3220   31.0916   49.2358 H   0  0  0  0  0  0  0  0  0  0  0  0
   62.1690   30.6800   49.9800 H   0  0  0  0  0  0  0  0  0  0  0  0
   63.0858   31.8014   46.8908 H   0  0  0  0  0  0  0  0  0  0  0  0
   64.7849   32.2524   47.3985 H   0  0  0  0  0  0  0  0  0  0  0  0
   63.1827   34.0978   46.4454 H   0  0  0  0  0  0  0  0  0  0  0  0
   64.2198   34.4247   47.8972 H   0  0  0  0  0  0  0  0  0  0  0  0
   59.3207   31.5202   47.2011 H   0  0  0  0  0  0  0  0  0  0  0  0
   59.3037   29.6827   47.3290 H   0  0  0  0  0  0  0  0  0  0  0  0
   58.8514   27.2891   47.8442 H   0  0  0  0  0  0  0  0  0  0  0  0
  1  2  1  0
  2  3  1  0
  3  4  1  0
  4  5  1  0
  5  6  1  0
  6  7  2  0
  7  8  1  0
  8  9  2  0
  9 10  1  0
 10 11  2  0
 11 12  1  0
 12 13  2  0
 13 14  1  0
 14 15  1  0
 15 16  2  0
 15 17  1  0
 17 18  1  0
 18 19  1  0
 19 20  1  0
 20 21  1  0
 21 22  1  0
 21 23  1  0
 23 24  1  0
 14 25  2  0
  9 26  1  0
 26 27  2  0
 27  6  1  0
 25 10  1  0
 24 18  1  0
  1 28  1  0
  1 29  1  0
  1 30  1  0
  2 31  1  0
  2 32  1  0
  3 33  1  0
  3 34  1  0
  4 35  1  0
  5 36  1  0
  5 37  1  0
  7 38  1  0
  8 39  1  0
 11 40  1  0
 12 41  1  0
 13 42  1  0
 17 43  1  0
 18 44  1  1
 19 45  1  0
 19 46  1  0
 20 47  1  0
 20 48  1  0
 21 49  1  1
 22 50  1  0
 23 51  1  0
 23 52  1  0
 24 53  1  0
 24 54  1  0
 25 55  1  0
 26 56  1  0
 27 57  1  0
M  END
>  <UniqueID>  (30) 
30

>  <SMILES>  (30) 
CCCNCc1ccc(-c2cccc(C(=O)NC3CCC(O)CC3)c2)cc1

>  <Energy>  (30) 
64.80652381663823

>  <Genealogy>  (30) 
CCCNCc1ccc(-c2cccc(C(=O)NC3CCC(O)CC3)c2)cc1 (3D coordinates assigned)
CCCNCc1ccc(-c2cccc(C(=O)NC3CCC(O)CC3)c2)cc1 (nonaromatic ring conformer: 64.80652381663823 kcal/mol)

>  <smiles>  (30) 
CCCNCc1ccc(-c2cccc(C(=O)NC3CCC(O)CC3)c2)cc1

>  <score_type>  (30) 
oracle

>  <origin>  (30) 
adg

>  <m_score__min__energy>  (30) 
-9.4299999999999997

>  <m_primary>  (30) 
energy

$$$$
31:0
     RDKit          3D

 23 24  0  0  0  0  0  0  0  0999 V2000
   58.3540   28.2420   44.1450 C   0  0  0  0  0  0  0  0  0  0  0  0
   57.4130   28.9650   44.3560 C   0  0  0  0  0  0  0  0  0  0  0  0
   56.2890   29.8290   44.6110 C   0  0  0  0  0  0  0  0  0  0  0  0
   55.1710   29.3130   44.8680 O   0  0  0  0  0  0  0  0  0  0  0  0
   56.3940   31.2540   44.5000 N   0  0  0  0  0  0  0  0  0  0  0  0
   57.4240   32.0820   45.0610 C   0  0  0  0  0  0  0  0  0  0  0  0
   58.0490   33.0320   44.2460 C   0  0  0  0  0  0  0  0  0  0  0  0
   59.0130   33.8500   44.7470 N   0  0  0  0  0  0  0  0  0  0  0  0
   59.3930   33.7870   46.0570 C   0  0  0  0  0  0  0  0  0  0  0  0
   60.3900   34.6390   46.5550 C   0  0  0  0  0  0  0  0  0  0  0  0
   60.7620   34.5730   47.9010 C   0  0  0  0  0  0  0  0  0  0  0  0
   60.1420   33.6600   48.7580 C   0  0  0  0  0  0  0  0  0  0  0  0
   59.1470   32.8060   48.2760 C   0  0  0  0  0  0  0  0  0  0  0  0
   58.7680   32.8610   46.9250 C   0  0  0  0  0  0  0  0  0  0  0  0
   57.7740   32.0160   46.4180 C   0  0  0  0  0  0  0  0  0  0  0  0
   59.2128   27.5822   43.9524 H   0  0  0  0  0  0  0  0  0  0  0  0
   57.7576   33.1182   43.1888 H   0  0  0  0  0  0  0  0  0  0  0  0
   59.4650   34.5390   44.1040 H   0  0  0  0  0  0  0  0  0  0  0  0
   60.8802   35.3606   45.8849 H   0  0  0  0  0  0  0  0  0  0  0  0
   61.5454   35.2420   48.2867 H   0  0  0  0  0  0  0  0  0  0  0  0
   60.4385   33.6135   49.8163 H   0  0  0  0  0  0  0  0  0  0  0  0
   58.6603   32.0903   48.9549 H   0  0  0  0  0  0  0  0  0  0  0  0
   57.2677   31.3008   47.0829 H   0  0  0  0  0  0  0  0  0  0  0  0
  1  2  3  0
  2  3  1  0
  3  4  2  0
  3  5  1  0
  5  6  1  0
  6  7  2  0
  7  8  1  0
  8  9  2  0
  9 10  1  0
 10 11  2  0
 11 12  1  0
 12 13  2  0
 13 14  1  0
 14 15  2  0
 15  6  1  0
 14  9  1  0
  1 16  1  0
  7 17  1  0
  8 18  1  0
 10 19  1  0
 11 20  1  0
 12 21  1  0
 13 22  1  0
 15 23  1  0
M  CHG  2   5  -1   8   1
M  END
>  <UniqueID>  (31) 
31

>  <SMILES>  (31) 
C#CC(=O)[N-]c1c[nH+]c2ccccc2c1

>  <Energy>  (31) 
28.628140166617936

>  <Genealogy>  (31) 
C#CC(=O)[N-]c1c[nH+]c2ccccc2c1 (protonated)
C#CC(=O)[N-]c1c[nH+]c2ccccc2c1 (3D coordinates assigned)
C#CC(=O)[N-]c1c[nH+]c2ccccc2c1 (optimized conformer: 28.628140166617936 kcal/mol)

>  <smiles>  (31) 
C#CC(=O)Nc1cnc2ccccc2c1

>  <score_type>  (31) 
oracle

>  <origin>  (31) 
adg

>  <m_score__min__energy>  (31) 
-6.5300000000000002

>  <m_primary>  (31) 
energy

$$$$
32:0
     RDKit          3D

 55 57  0  0  0  0  0  0  0  0999 V2000
   55.5380   29.7180   43.3620 C   0  0  0  0  0  0  0  0  0  0  0  0
   55.5080   28.9730   44.5750 O   0  0  0  0  0  0  0  0  0  0  0  0
   56.6400   28.6590   45.3440 C   0  0  0  0  0  0  0  0  0  0  0  0
   57.7540   29.5170   45.4170 C   0  0  0  0  0  0  0  0  0  0  0  0
   58.8620   29.1710   46.1920 C   0  0  0  0  0  0  0  0  0  0  0  0
   58.8770   27.9680   46.9090 C   0  0  0  0  0  0  0  0  0  0  0  0
   60.0890   27.5960   47.7230 C   0  0  0  0  0  0  0  0  0  0  0  0
   60.3520   28.6290   48.7430 N   0  0  0  0  0  0  0  0  0  0  0  0
   59.0900   29.2520   49.1960 C   0  0  0  0  0  0  0  0  0  0  0  0
   59.2720   30.0480   50.5070 C   0  0  0  0  0  0  0  0  0  0  0  0
   60.6830   30.4300   50.7480 N   0  0  0  0  0  0  0  0  0  0  0  0
   61.2240   31.4030   49.7590 C   0  0  0  0  0  0  0  0  0  0  0  0
   61.3090   32.8400   50.3000 C   0  0  0  0  0  0  0  0  0  0  0  0
   60.1430   33.5720   49.9270 O   0  0  0  0  0  0  0  0  0  0  0  0
   59.5960   33.5910   48.6360 C   0  0  0  0  0  0  0  0  0  0  0  0
   60.0550   34.4660   47.6330 C   0  0  0  0  0  0  0  0  0  0  0  0
   59.4720   34.4460   46.3620 C   0  0  0  0  0  0  0  0  0  0  0  0
   58.4290   33.5560   46.0810 C   0  0  0  0  0  0  0  0  0  0  0  0
   57.7000   33.5320   44.4860 Cl  0  0  0  0  0  0  0  0  0  0  0  0
   57.9710   32.6860   47.0740 C   0  0  0  0  0  0  0  0  0  0  0  0
   58.5520   32.7030   48.3460 C   0  0  0  0  0  0  0  0  0  0  0  0
   61.5410   29.2170   50.8370 C   0  0  0  0  0  0  0  0  0  0  0  0
   61.0980   28.0800   49.8900 C   0  0  0  0  0  0  0  0  0  0  0  0
   57.7710   27.1090   46.8370 C   0  0  0  0  0  0  0  0  0  0  0  0
   56.6490   27.4500   46.0560 C   0  0  0  0  0  0  0  0  0  0  0  0
   55.5250   26.6120   45.9600 O   0  0  0  0  0  0  0  0  0  0  0  0
   55.5820   25.2080   45.7330 C   0  0  0  0  0  0  0  0  0  0  0  0
   55.5813   30.7927   43.5927 H   0  0  0  0  0  0  0  0  0  0  0  0
   56.4254   29.4323   42.7781 H   0  0  0  0  0  0  0  0  0  0  0  0
   54.6305   29.5046   42.7781 H   0  0  0  0  0  0  0  0  0  0  0  0
   57.7510   30.4655   44.8600 H   0  0  0  0  0  0  0  0  0  0  0  0
   59.7284   29.8470   46.2399 H   0  0  0  0  0  0  0  0  0  0  0  0
   59.9111   26.6310   48.2201 H   0  0  0  0  0  0  0  0  0  0  0  0
   60.9604   27.5188   47.0561 H   0  0  0  0  0  0  0  0  0  0  0  0
   58.7312   29.9360   48.4128 H   0  0  0  0  0  0  0  0  0  0  0  0
   58.3647   28.4473   49.3866 H   0  0  0  0  0  0  0  0  0  0  0  0
   58.6635   30.9627   50.4516 H   0  0  0  0  0  0  0  0  0  0  0  0
   58.9546   29.4006   51.3377 H   0  0  0  0  0  0  0  0  0  0  0  0
   60.7190   30.8960   51.6860 H   0  0  0  0  0  0  0  0  0  0  0  0
   62.2344   31.0795   49.4683 H   0  0  0  0  0  0  0  0  0  0  0  0
   60.5306   31.4178   48.9052 H   0  0  0  0  0  0  0  0  0  0  0  0
   61.3861   32.8122   51.3969 H   0  0  0  0  0  0  0  0  0  0  0  0
   62.1959   33.3334   49.8758 H   0  0  0  0  0  0  0  0  0  0  0  0
   60.8744   35.1672   47.8497 H   0  0  0  0  0  0  0  0  0  0  0  0
   59.8340   35.1313   45.5814 H   0  0  0  0  0  0  0  0  0  0  0  0
   57.1514   31.9860   46.8546 H   0  0  0  0  0  0  0  0  0  0  0  0
   58.1872   32.0153   49.1231 H   0  0  0  0  0  0  0  0  0  0  0  0
   62.5728   29.5006   50.5822 H   0  0  0  0  0  0  0  0  0  0  0  0
   61.4560   28.8345   51.8648 H   0  0  0  0  0  0  0  0  0  0  0  0
   61.9873   27.5470   49.5226 H   0  0  0  0  0  0  0  0  0  0  0  0
   60.4450   27.3886   50.4429 H   0  0  0  0  0  0  0  0  0  0  0  0
   57.7794   26.1610   47.3949 H   0  0  0  0  0  0  0  0  0  0  0  0
   55.6034   24.6811   46.6983 H   0  0  0  0  0  0  0  0  0  0  0  0
   54.6959   24.8925   45.1626 H   0  0  0  0  0  0  0  0  0  0  0  0
   56.4907   24.9654   45.1626 H   0  0  0  0  0  0  0  0  0  0  0  0
  1  2  1  0
  2  3  1  0
  3  4  2  0
  4  5  1  0
  5  6  2  0
  6  7  1  0
  7  8  1  0
  8  9  1  0
  9 10  1  0
 10 11  1  0
 11 12  1  0
 12 13  1  0
 13 14  1  0
 14 15  1  0
 15 16  2  0
 16 17  1  0
 17 18  2  0
 18 19  1  0
 18 20  1  0
 20 21  2  0
 11 22  1  0
 22 23  1  0
  6 24  1  0
 24 25  2  0
 25 26  1  0
 26 27  1  0
 25  3  1  0
 23  8  1  0
 21 15  1  0
  1 28  1  0
  1 29  1  0
  1 30  1  0
  4 31  1  0
  5 32  1  0
  7 33  1  0
  7 34  1  0
  9 35  1  0
  9 36  1  0
 10 37  1  0
 10 38  1  0
 11 39  1  0
 12 40  1  0
 12 41  1  0
 13 42  1  0
 13 43  1  0
 16 44  1  0
 17 45  1  0
 20 46  1  0
 21 47  1  0
 22 48  1  0
 22 49  1  0
 23 50  1  0
 23 51  1  0
 24 52  1  0
 27 53  1  0
 27 54  1  0
 27 55  1  0
M  CHG  1  11   1
M  END
>  <UniqueID>  (32) 
32

>  <SMILES>  (32) 
COc1ccc(CN2CC[NH+](CCOc3ccc(Cl)cc3)CC2)cc1OC

>  <Energy>  (32) 
65.91440673067832

>  <Genealogy>  (32) 
COc1ccc(CN2CC[NH+](CCOc3ccc(Cl)cc3)CC2)cc1OC (protonated)
COc1ccc(CN2CC[NH+](CCOc3ccc(Cl)cc3)CC2)cc1OC (3D coordinates assigned)
COc1ccc(CN2CC[NH+](CCOc3ccc(Cl)cc3)CC2)cc1OC (nonaromatic ring conformer: 65.91440673067832 kcal/mol)

>  <smiles>  (32) 
COc1ccc(CN2CCN(CCOc3ccc(Cl)cc3)CC2)cc1OC

>  <score_type>  (32) 
oracle

>  <origin>  (32) 
adg

>  <m_score__min__energy>  (32) 
-7.1299999999999999

>  <m_primary>  (32) 
energy

$$$$
33:0
     RDKit          3D

 43 46  0  0  0  0  0  0  0  0999 V2000
   60.2890   31.1410   48.4000 C   0  0  0  0  0  0  0  0  0  0  0  0
   60.2090   32.3560   47.5900 N   0  0  0  0  0  0  0  0  0  0  0  0
   61.0380   33.4320   47.6150 C   0  0  0  0  0  0  0  0  0  0  0  0
   62.2190   33.5160   48.4260 N   0  0  0  0  0  0  0  0  0  0  0  0
   63.5220   33.1750   47.8440 C   0  0  0  0  0  0  0  0  0  0  0  0
   64.5180   32.6950   48.9270 C   0  0  0  0  0  0  0  0  0  0  0  0
   64.0190   32.8050   50.2500 O   0  0  0  0  0  0  0  0  0  0  0  0
   63.4770   34.0900   50.4570 C   0  0  0  0  0  0  0  0  0  0  0  0
   62.1440   34.2030   49.7180 C   0  0  0  0  0  0  0  0  0  0  0  0
   60.6470   34.4240   46.7800 N   0  0  0  0  0  0  0  0  0  0  0  0
   59.5400   33.9380   46.1960 C   0  0  0  0  0  0  0  0  0  0  0  0
   58.7460   34.5510   45.2310 C   0  0  0  0  0  0  0  0  0  0  0  0
   57.6340   33.8400   44.7530 C   0  0  0  0  0  0  0  0  0  0  0  0
   57.3440   32.5460   45.2420 C   0  0  0  0  0  0  0  0  0  0  0  0
   58.1710   31.9400   46.2210 C   0  0  0  0  0  0  0  0  0  0  0  0
   57.9340   30.6530   46.7280 O   0  0  0  0  0  0  0  0  0  0  0  0
   57.9610   29.4500   45.9610 C   0  0  0  0  0  0  0  0  0  0  0  0
   57.0420   29.5530   44.7860 C   0  0  0  0  0  0  0  0  0  0  0  0
   57.4260   29.5770   43.4610 C   0  0  0  0  0  0  0  0  0  0  0  0
   56.2560   29.6780   42.7390 C   0  0  0  0  0  0  0  0  0  0  0  0
   55.2340   29.7050   43.6670 C   0  0  0  0  0  0  0  0  0  0  0  0
   55.7340   29.6280   44.8800 O   0  0  0  0  0  0  0  0  0  0  0  0
   59.2670   32.6850   46.6780 C   0  0  0  0  0  0  0  0  0  0  0  0
   60.2713   31.4095   49.4666 H   0  0  0  0  0  0  0  0  0  0  0  0
   59.4317   30.4908   48.1713 H   0  0  0  0  0  0  0  0  0  0  0  0
   61.2241   30.6088   48.1713 H   0  0  0  0  0  0  0  0  0  0  0  0
   63.3842   32.3727   47.1042 H   0  0  0  0  0  0  0  0  0  0  0  0
   63.9355   34.0775   47.3701 H   0  0  0  0  0  0  0  0  0  0  0  0
   64.7591   31.6393   48.7335 H   0  0  0  0  0  0  0  0  0  0  0  0
   65.4020   33.3464   48.8619 H   0  0  0  0  0  0  0  0  0  0  0  0
   63.3150   34.2512   51.5330 H   0  0  0  0  0  0  0  0  0  0  0  0
   64.1749   34.8494   50.0747 H   0  0  0  0  0  0  0  0  0  0  0  0
   61.3513   33.7444   50.3273 H   0  0  0  0  0  0  0  0  0  0  0  0
   61.9195   35.2659   49.5455 H   0  0  0  0  0  0  0  0  0  0  0  0
   61.1130   35.3420   46.6080 H   0  0  0  0  0  0  0  0  0  0  0  0
   58.9818   35.5578   44.8559 H   0  0  0  0  0  0  0  0  0  0  0  0
   56.9828   34.2938   43.9914 H   0  0  0  0  0  0  0  0  0  0  0  0
   56.4672   32.0034   44.8588 H   0  0  0  0  0  0  0  0  0  0  0  0
   58.9860   29.2724   45.6035 H   0  0  0  0  0  0  0  0  0  0  0  0
   57.6297   28.6165   46.5978 H   0  0  0  0  0  0  0  0  0  0  0  0
   58.4506   29.5262   43.0641 H   0  0  0  0  0  0  0  0  0  0  0  0
   56.1567   29.7272   41.6446 H   0  0  0  0  0  0  0  0  0  0  0  0
   54.1630   29.7797   43.4273 H   0  0  0  0  0  0  0  0  0  0  0  0
  1  2  1  0
  2  3  1  0
  3  4  1  0
  4  5  1  0
  5  6  1  0
  6  7  1  0
  7  8  1  0
  8  9  1  0
  3 10  2  0
 10 11  1  0
 11 12  2  0
 12 13  1  0
 13 14  2  0
 14 15  1  0
 15 16  1  0
 16 17  1  0
 17 18  1  0
 18 19  2  0
 19 20  1  0
 20 21  2  0
 21 22  1  0
 15 23  2  0
 23  2  1  0
  9  4  1  0
 23 11  1  0
 22 18  1  0
  1 24  1  0
  1 25  1  0
  1 26  1  0
  5 27  1  0
  5 28  1  0
  6 29  1  0
  6 30  1  0
  8 31  1  0
  8 32  1  0
  9 33  1  0
  9 34  1  0
 10 35  1  0
 12 36  1  0
 13 37  1  0
 14 38  1  0
 17 39  1  0
 17 40  1  0
 19 41  1  0
 20 42  1  0
 21 43  1  0
M  CHG  1  10   1
M  END
>  <UniqueID>  (33) 
33

>  <SMILES>  (33) 
Cn1c(N2CCOCC2)[nH+]c2cccc(OCc3ccco3)c21

>  <Energy>  (33) 
119.99251789811827

>  <Genealogy>  (33) 
Cn1c(N2CCOCC2)[nH+]c2cccc(OCc3ccco3)c21 (protonated)
Cn1c(N2CCOCC2)[nH+]c2cccc(OCc3ccco3)c21 (3D coordinates assigned)
Cn1c(N2CCOCC2)[nH+]c2cccc(OCc3ccco3)c21 (nonaromatic ring conformer: 119.99251789811827 kcal/mol)

>  <smiles>  (33) 
Cn1c(N2CCOCC2)nc2cccc(OCc3ccco3)c21

>  <score_type>  (33) 
oracle

>  <origin>  (33) 
adg

>  <m_score__min__energy>  (33) 
-5.6699999999999999

>  <m_primary>  (33) 
energy

$$$$
34:0
     RDKit          3D

 39 41  0  0  0  0  0  0  0  0999 V2000
   57.7670   23.1260   44.2270 C   0  0  0  0  0  0  0  0  0  0  0  0
   57.0180   24.2990   43.9250 O   0  0  0  0  0  0  0  0  0  0  0  0
   57.3960   25.6000   44.2950 C   0  0  0  0  0  0  0  0  0  0  0  0
   58.0870   26.4560   43.4140 C   0  0  0  0  0  0  0  0  0  0  0  0
   58.4450   27.7440   43.8190 C   0  0  0  0  0  0  0  0  0  0  0  0
   58.1240   28.1990   45.1060 C   0  0  0  0  0  0  0  0  0  0  0  0
   58.4890   29.5330   45.5210 N   0  0  0  0  0  0  0  0  0  0  0  0
   57.6850   30.5850   45.1940 C   0  0  0  0  0  0  0  0  0  0  0  0
   56.6540   30.3950   44.4880 O   0  0  0  0  0  0  0  0  0  0  0  0
   57.9940   31.8730   45.6500 C   0  0  0  0  0  0  0  0  0  0  0  0
   57.1560   32.9610   45.3380 C   0  0  0  0  0  0  0  0  0  0  0  0
   57.4280   34.2260   45.8400 C   0  0  0  0  0  0  0  0  0  0  0  0
   58.5010   34.4160   46.7010 C   0  0  0  0  0  0  0  0  0  0  0  0
   59.3510   33.3550   47.0380 C   0  0  0  0  0  0  0  0  0  0  0  0
   60.5490   33.7600   48.4910 Br  0  0  0  0  0  0  0  0  0  0  0  0
   59.1580   32.0640   46.4410 C   0  0  0  0  0  0  0  0  0  0  0  0
   60.0330   31.0040   46.5930 N   0  0  0  0  0  0  0  0  0  0  0  0
   61.4170   31.1870   47.0670 C   0  0  0  0  0  0  0  0  0  0  0  0
   59.6520   29.7390   46.2120 C   0  0  0  0  0  0  0  0  0  0  0  0
   60.3830   28.7470   46.5020 O   0  0  0  0  0  0  0  0  0  0  0  0
   57.4380   27.3490   45.9840 C   0  0  0  0  0  0  0  0  0  0  0  0
   57.0720   26.0590   45.5820 C   0  0  0  0  0  0  0  0  0  0  0  0
   56.1920   24.9980   46.7350 S   0  0  0  0  0  0  0  0  0  0  0  0
   54.7580   24.7870   45.6330 C   0  0  0  0  0  0  0  0  0  0  0  0
   57.8415   23.0094   45.3183 H   0  0  0  0  0  0  0  0  0  0  0  0
   57.2620   22.2479   43.7980 H   0  0  0  0  0  0  0  0  0  0  0  0
   58.7760   23.2147   43.7980 H   0  0  0  0  0  0  0  0  0  0  0  0
   58.3455   26.1082   42.4030 H   0  0  0  0  0  0  0  0  0  0  0  0
   58.9823   28.4058   43.1238 H   0  0  0  0  0  0  0  0  0  0  0  0
   56.2794   32.8071   44.6916 H   0  0  0  0  0  0  0  0  0  0  0  0
   56.7935   35.0784   45.5558 H   0  0  0  0  0  0  0  0  0  0  0  0
   58.6860   35.4142   47.1244 H   0  0  0  0  0  0  0  0  0  0  0  0
   61.4306   31.1888   48.1669 H   0  0  0  0  0  0  0  0  0  0  0  0
   62.0442   30.3640   46.6939 H   0  0  0  0  0  0  0  0  0  0  0  0
   61.8087   32.1448   46.6939 H   0  0  0  0  0  0  0  0  0  0  0  0
   57.1854   27.6979   46.9961 H   0  0  0  0  0  0  0  0  0  0  0  0
   53.8482   24.6531   46.2367 H   0  0  0  0  0  0  0  0  0  0  0  0
   54.6490   25.6788   44.9983 H   0  0  0  0  0  0  0  0  0  0  0  0
   54.9105   23.9016   44.9983 H   0  0  0  0  0  0  0  0  0  0  0  0
  1  2  1  0
  2  3  1  0
  3  4  2  0
  4  5  1  0
  5  6  2  0
  6  7  1  0
  7  8  1  0
  8  9  2  0
  8 10  1  0
 10 11  2  0
 11 12  1  0
 12 13  2  0
 13 14  1  0
 14 15  1  0
 14 16  2  0
 16 17  1  0
 17 18  1  0
 17 19  1  0
 19 20  2  0
  6 21  1  0
 21 22  2  0
 22 23  1  0
 23 24  1  0
 22  3  1  0
 19  7  1  0
 16 10  1  0
  1 25  1  0
  1 26  1  0
  1 27  1  0
  4 28  1  0
  5 29  1  0
 11 30  1  0
 12 31  1  0
 13 32  1  0
 18 33  1  0
 18 34  1  0
 18 35  1  0
 21 36  1  0
 24 37  1  0
 24 38  1  0
 24 39  1  0
M  END
>  <UniqueID>  (34) 
34

>  <SMILES>  (34) 
COc1ccc(-n2c(=O)c3cccc(Br)c3n(C)c2=O)cc1SC

>  <Energy>  (34) 
69.25063174088795

>  <Genealogy>  (34) 
COc1ccc(-n2c(=O)c3cccc(Br)c3n(C)c2=O)cc1SC (3D coordinates assigned)
COc1ccc(-n2c(=O)c3cccc(Br)c3n(C)c2=O)cc1SC (optimized conformer: 69.25063174088795 kcal/mol)

>  <smiles>  (34) 
COc1ccc(-n2c(=O)c3cccc(Br)c3n(C)c2=O)cc1SC

>  <score_type>  (34) 
oracle

>  <origin>  (34) 
adg

>  <m_score__min__energy>  (34) 
-7.4800000000000004

>  <m_primary>  (34) 
energy

$$$$
35:0
     RDKit          3D

 43 45  0  0  0  0  0  0  0  0999 V2000
   56.0140   30.1160   45.6180 H   0  0  0  0  0  0  0  0  0  0  0  0
   55.6150   29.5820   44.8830 O   0  0  0  0  0  0  0  0  0  0  0  0
   56.4830   29.7140   43.7910 C   0  0  0  0  0  0  0  0  0  0  0  0
   57.0920   30.6218   43.9139 H   0  0  0  0  0  0  0  0  0  0  0  0
   55.8972   29.7894   42.8630 H   0  0  0  0  0  0  0  0  0  0  0  0
   57.4010   28.4880   43.7190 C   0  0  0  0  0  0  0  0  0  0  0  0
   58.4453   28.8274   43.7835 H   0  0  0  0  0  0  0  0  0  0  0  0
   57.1944   27.9767   42.7672 H   0  0  0  0  0  0  0  0  0  0  0  0
   57.1530   27.5200   44.8040 N   0  0  0  0  0  0  0  0  0  0  0  0
   56.9910   28.0470   45.6940 H   0  0  0  0  0  0  0  0  0  0  0  0
   56.2680   27.0030   44.5930 H   0  0  0  0  0  0  0  0  0  0  0  0
   58.2400   26.5470   45.0360 C   0  0  0  0  0  0  0  0  0  0  0  0
   59.0306   26.7265   44.2926 H   0  0  0  0  0  0  0  0  0  0  0  0
   57.7969   25.5443   44.9458 H   0  0  0  0  0  0  0  0  0  0  0  0
   58.8640   26.6360   46.4380 C   0  0  0  0  0  0  0  0  0  0  0  0
   59.9369   26.8593   46.3431 H   0  0  0  0  0  0  0  0  0  0  0  0
   58.7205   25.6744   46.9526 H   0  0  0  0  0  0  0  0  0  0  0  0
   58.2210   27.6900   47.2190 N   0  0  0  0  0  0  0  0  0  0  0  0
   58.5910   28.9360   47.2000 C   0  0  0  0  0  0  0  0  0  0  0  0
   58.0070   29.8360   46.3610 N   0  0  0  0  0  0  0  0  0  0  0  0
   58.3830   31.1490   46.3200 C   0  0  0  0  0  0  0  0  0  0  0  0
   57.7390   32.0120   45.4260 C   0  0  0  0  0  0  0  0  0  0  0  0
   56.9352   31.6301   44.7795 H   0  0  0  0  0  0  0  0  0  0  0  0
   58.1110   33.3520   45.3510 C   0  0  0  0  0  0  0  0  0  0  0  0
   57.5986   34.0255   44.6483 H   0  0  0  0  0  0  0  0  0  0  0  0
   59.1330   33.8420   46.1660 C   0  0  0  0  0  0  0  0  0  0  0  0
   59.6450   35.6790   46.0400 Br  0  0  0  0  0  0  0  0  0  0  0  0
   59.7880   32.9960   47.0660 C   0  0  0  0  0  0  0  0  0  0  0  0
   60.5957   33.3930   47.6984 H   0  0  0  0  0  0  0  0  0  0  0  0
   59.4220   31.6380   47.1700 C   0  0  0  0  0  0  0  0  0  0  0  0
   60.0130   30.6930   48.0490 C   0  0  0  0  0  0  0  0  0  0  0  0
   59.6000   29.3850   48.0440 C   0  0  0  0  0  0  0  0  0  0  0  0
   60.2880   28.6500   48.9350 N   0  0  0  0  0  0  0  0  0  0  0  0
   61.1290   29.5510   49.4890 C   0  0  0  0  0  0  0  0  0  0  0  0
   61.8583   29.2931   50.2710 H   0  0  0  0  0  0  0  0  0  0  0  0
   60.9880   30.8030   48.9890 N   0  0  0  0  0  0  0  0  0  0  0  0
   61.7920   31.9450   49.4320 C   0  0  0  0  0  0  0  0  0  0  0  0
   62.2740   31.6981   50.3894 H   0  0  0  0  0  0  0  0  0  0  0  0
   61.1330   32.8176   49.5517 H   0  0  0  0  0  0  0  0  0  0  0  0
   62.8680   32.2780   48.3990 C   0  0  0  0  0  0  0  0  0  0  0  0
   63.7958   32.5651   48.9155 H   0  0  0  0  0  0  0  0  0  0  0  0
   63.0569   31.3963   47.7690 H   0  0  0  0  0  0  0  0  0  0  0  0
   62.5258   33.1123   47.7690 H   0  0  0  0  0  0  0  0  0  0  0  0
  1  2  1  0
  2  3  1  0
  3  4  1  0
  3  5  1  0
  3  6  1  0
  6  7  1  0
  6  8  1  0
  6  9  1  0
  9 10  1  0
  9 11  1  0
  9 12  1  0
 12 13  1  0
 12 14  1  0
 12 15  1  0
 15 16  1  0
 15 17  1  0
 15 18  1  0
 18 19  2  0
 19 20  1  0
 20 21  1  0
 21 22  2  0
 22 23  1  0
 22 24  1  0
 24 25  1  0
 24 26  2  0
 26 27  1  0
 26 28  1  0
 28 29  1  0
 28 30  2  0
 30 31  1  0
 31 32  2  0
 32 33  1  0
 33 34  2  0
 34 35  1  0
 34 36  1  0
 36 37  1  0
 37 38  1  0
 37 39  1  0
 37 40  1  0
 40 41  1  0
 40 42  1  0
 40 43  1  0
 32 19  1  0
 30 21  1  0
 36 31  1  0
M  CHG  2   9   1  20  -1
M  END
>  <UniqueID>  (35) 
35

>  <SMILES>  (35) 
CCn1cnc2/c(=N/CC[NH2+]CCO)[n-]c3ccc(Br)cc3c21

>  <Energy>  (35) 
86.05359275809484

>  <Genealogy>  (35) 
CCn1cnc2c(=NCC[NH2+]CCO)[n-]c3ccc(Br)cc3c21 (protonated)
CCn1cnc2/c(=N/CC[NH2+]CCO)[n-]c3ccc(Br)cc3c21 (cis-trans isomerization)
CCn1cnc2/c(=N/CC[NH2+]CCO)[n-]c3ccc(Br)cc3c21 (3D coordinates assigned)
CCn1cnc2/c(=N/CC[NH2+]CCO)[n-]c3ccc(Br)cc3c21 (optimized conformer: 86.05359275809484 kcal/mol)

>  <smiles>  (35) 
CCn1cnc2c(=NCCNCCO)[nH]c3ccc(Br)cc3c21

>  <score_type>  (35) 
oracle

>  <origin>  (35) 
adg

>  <m_score__min__energy>  (35) 
-6.7699999999999996

>  <m_primary>  (35) 
energy

$$$$
36:0
     RDKit          3D

 38 39  0  0  0  0  0  0  0  0999 V2000
   57.4750   34.1104   43.8171 H   0  0  0  0  0  0  0  0  0  0  0  0
   57.8100   33.0740   43.9710 C   0  0  0  0  0  0  0  0  0  0  0  0
   57.7960   32.2600   42.9060 C   0  0  0  0  0  0  0  0  0  0  0  0
   58.3708   32.5970   42.0307 H   0  0  0  0  0  0  0  0  0  0  0  0
   57.0830   30.9320   42.7650 C   0  0  0  0  0  0  0  0  0  0  0  0
   56.0025   31.1379   42.7768 H   0  0  0  0  0  0  0  0  0  0  0  0
   57.4776   30.5060   41.8308 H   0  0  0  0  0  0  0  0  0  0  0  0
   57.3550   29.8480   43.8280 C   0  0  2  0  0  0  0  0  0  0  0  0
   57.6360   28.9211   43.3066 H   0  0  0  0  0  0  0  0  0  0  0  0
   56.1410   29.6260   44.6180 N   0  0  0  0  0  0  0  0  0  0  0  0
   55.2060   30.4520   44.5880 O   0  0  0  0  0  0  0  0  0  0  0  0
   55.9400   28.4080   45.2240 O   0  0  0  0  0  0  0  0  0  0  0  0
   58.5330   30.2250   44.7500 C   0  0  0  0  0  0  0  0  0  0  0  0
   58.8857   29.3186   45.2638 H   0  0  0  0  0  0  0  0  0  0  0  0
   59.3257   30.6632   44.1258 H   0  0  0  0  0  0  0  0  0  0  0  0
   58.1300   31.2660   45.8030 C   0  0  0  0  0  0  0  0  0  0  0  0
   57.0860   31.0763   46.0929 H   0  0  0  0  0  0  0  0  0  0  0  0
   58.8337   31.1546   46.6411 H   0  0  0  0  0  0  0  0  0  0  0  0
   58.2380   32.6960   45.3360 C   0  0  0  0  0  0  0  0  0  0  0  0
   58.4750   33.6050   46.2400 N   0  0  0  0  0  0  0  0  0  0  0  0
   59.6870   33.7910   46.9890 C   0  0  0  0  0  0  0  0  0  0  0  0
   59.6010   34.0950   48.3520 C   0  0  0  0  0  0  0  0  0  0  0  0
   58.6147   34.2159   48.8237 H   0  0  0  0  0  0  0  0  0  0  0  0
   60.7600   34.2460   49.1180 C   0  0  0  0  0  0  0  0  0  0  0  0
   60.6782   34.5058   50.1837 H   0  0  0  0  0  0  0  0  0  0  0  0
   62.0240   34.0700   48.5430 C   0  0  0  0  0  0  0  0  0  0  0  0
   63.1530   34.2400   49.3610 O   0  0  0  0  0  0  0  0  0  0  0  0
   64.2480   33.3300   49.4650 C   0  0  0  0  0  0  0  0  0  0  0  0
   64.8483   33.5878   50.3500 H   0  0  0  0  0  0  0  0  0  0  0  0
   64.8580   33.4068   48.5528 H   0  0  0  0  0  0  0  0  0  0  0  0
   63.7490   31.8950   49.6000 C   0  0  0  0  0  0  0  0  0  0  0  0
   63.6592   31.6367   50.6655 H   0  0  0  0  0  0  0  0  0  0  0  0
   62.7656   31.8017   49.1159 H   0  0  0  0  0  0  0  0  0  0  0  0
   64.4623   31.2117   49.1159 H   0  0  0  0  0  0  0  0  0  0  0  0
   62.1130   33.7360   47.1770 C   0  0  0  0  0  0  0  0  0  0  0  0
   63.0991   33.5928   46.7110 H   0  0  0  0  0  0  0  0  0  0  0  0
   60.9530   33.5860   46.4120 C   0  0  0  0  0  0  0  0  0  0  0  0
   61.0308   33.3056   45.3512 H   0  0  0  0  0  0  0  0  0  0  0  0
  1  2  1  0
  2  3  2  0
  3  4  1  0
  3  5  1  0
  5  6  1  0
  5  7  1  0
  5  8  1  0
  8  9  1  6
  8 10  1  0
 10 11  2  0
 10 12  1  0
  8 13  1  0
 13 14  1  0
 13 15  1  0
 13 16  1  0
 16 17  1  0
 16 18  1  0
 16 19  1  0
 19 20  2  0
 20 21  1  0
 21 22  2  0
 22 23  1  0
 22 24  1  0
 24 25  1  0
 24 26  2  0
 26 27  1  0
 27 28  1  0
 28 29  1  0
 28 30  1  0
 28 31  1  0
 31 32  1  0
 31 33  1  0
 31 34  1  0
 26 35  1  0
 35 36  1  0
 35 37  2  0
 37 38  1  0
 19  2  1  0
 37 21  1  0
M  CHG  2  10   1  12  -1
M  END
>  <UniqueID>  (36) 
36

>  <SMILES>  (36) 
CCOc1ccc(/N=C2\C=CC[C@H]([N+](=O)[O-])CC2)cc1

>  <Energy>  (36) 
53.14017153703524

>  <Genealogy>  (36) 
CCOc1ccc(N=C2C=CC[C@H]([N+](=O)[O-])CC2)cc1 (chirality)
CCOc1ccc(/N=C2\C=CC[C@H]([N+](=O)[O-])CC2)cc1 (cis-trans isomerization)
CCOc1ccc(/N=C2\C=CC[C@H]([N+](=O)[O-])CC2)cc1 (3D coordinates assigned)
CCOc1ccc(/N=C2\C=CC[C@H]([N+](=O)[O-])CC2)cc1 (nonaromatic ring conformer: 53.14017153703524 kcal/mol)

>  <smiles>  (36) 
CCOc1ccc(N=C2C=CCC([N+](=O)[O-])CC2)cc1

>  <score_type>  (36) 
oracle

>  <origin>  (36) 
adg

>  <m_score__min__energy>  (36) 
-5.46

>  <m_primary>  (36) 
energy

$$$$
37:0
     RDKit          3D

 33 34  0  0  0  0  0  0  0  0999 V2000
   60.9560   34.1160   49.1740 C   0  0  0  0  0  0  0  0  0  0  0  0
   59.6520   34.3950   48.6760 O   0  0  0  0  0  0  0  0  0  0  0  0
   59.2660   34.2410   47.3360 C   0  0  0  0  0  0  0  0  0  0  0  0
   59.5930   35.1840   46.3420 C   0  0  0  0  0  0  0  0  0  0  0  0
   59.2010   34.9750   45.0190 C   0  0  0  0  0  0  0  0  0  0  0  0
   58.4750   33.8320   44.6730 C   0  0  0  0  0  0  0  0  0  0  0  0
   58.1190   32.8950   45.6530 C   0  0  0  0  0  0  0  0  0  0  0  0
   57.3910   31.7170   45.2680 N   0  0  0  0  0  0  0  0  0  0  0  0
   57.2120   31.2900   43.9090 C   0  0  0  0  0  0  0  0  0  0  0  0
   57.9380   31.7540   42.9890 O   0  0  0  0  0  0  0  0  0  0  0  0
   56.1970   30.2370   43.5860 C   0  0  0  0  0  0  0  0  0  0  0  0
   55.8410   29.5120   44.7620 O   0  0  0  0  0  0  0  0  0  0  0  0
   56.6130   28.4690   45.2830 C   0  0  0  0  0  0  0  0  0  0  0  0
   56.0750   27.3820   45.6290 O   0  0  0  0  0  0  0  0  0  0  0  0
   58.0620   28.6480   45.4300 C   0  0  0  0  0  0  0  0  0  0  0  0
   59.0310   28.3010   44.4960 C   0  0  0  0  0  0  0  0  0  0  0  0
   60.3340   28.5890   44.9220 C   0  0  0  0  0  0  0  0  0  0  0  0
   60.3950   29.1600   46.1860 C   0  0  0  0  0  0  0  0  0  0  0  0
   58.8260   29.3070   46.7760 S   0  0  0  0  0  0  0  0  0  0  0  0
   58.5350   33.1000   46.9810 C   0  0  0  0  0  0  0  0  0  0  0  0
   60.9371   34.1200   50.2738 H   0  0  0  0  0  0  0  0  0  0  0  0
   61.2814   33.1279   48.8165 H   0  0  0  0  0  0  0  0  0  0  0  0
   61.6572   34.8844   48.8165 H   0  0  0  0  0  0  0  0  0  0  0  0
   60.1593   36.0883   46.6095 H   0  0  0  0  0  0  0  0  0  0  0  0
   59.4643   35.7122   44.2462 H   0  0  0  0  0  0  0  0  0  0  0  0
   58.1813   33.6667   43.6259 H   0  0  0  0  0  0  0  0  0  0  0  0
   57.0170   31.0990   46.0250 H   0  0  0  0  0  0  0  0  0  0  0  0
   55.2984   30.7154   43.1692 H   0  0  0  0  0  0  0  0  0  0  0  0
   56.6279   29.5389   42.8532 H   0  0  0  0  0  0  0  0  0  0  0  0
   58.7984   27.8466   43.5216 H   0  0  0  0  0  0  0  0  0  0  0  0
   61.2256   28.3821   44.3120 H   0  0  0  0  0  0  0  0  0  0  0  0
   61.3120   29.4642   46.7118 H   0  0  0  0  0  0  0  0  0  0  0  0
   58.2832   32.3551   47.7502 H   0  0  0  0  0  0  0  0  0  0  0  0
  1  2  1  0
  2  3  1  0
  3  4  2  0
  4  5  1  0
  5  6  2  0
  6  7  1  0
  7  8  1  0
  8  9  1  0
  9 10  2  0
  9 11  1  0
 11 12  1  0
 12 13  1  0
 13 14  2  0
 13 15  1  0
 15 16  2  0
 16 17  1  0
 17 18  2  0
 18 19  1  0
  7 20  2  0
 20  3  1  0
 19 15  1  0
  1 21  1  0
  1 22  1  0
  1 23  1  0
  4 24  1  0
  5 25  1  0
  6 26  1  0
  8 27  1  0
 11 28  1  0
 11 29  1  0
 16 30  1  0
 17 31  1  0
 18 32  1  0
 20 33  1  0
M  END
>  <UniqueID>  (37) 
37

>  <SMILES>  (37) 
COc1cccc(NC(=O)COC(=O)c2cccs2)c1

>  <Energy>  (37) 
58.081460376481715

>  <Genealogy>  (37) 
COc1cccc(NC(=O)COC(=O)c2cccs2)c1 (3D coordinates assigned)
COc1cccc(NC(=O)COC(=O)c2cccs2)c1 (optimized conformer: 58.081460376481715 kcal/mol)

>  <smiles>  (37) 
COc1cccc(NC(=O)COC(=O)c2cccs2)c1

>  <score_type>  (37) 
oracle

>  <origin>  (37) 
adg

>  <m_score__min__energy>  (37) 
-7.1100000000000003

>  <m_primary>  (37) 
energy

$$$$
38:0
     RDKit          3D

 30 31  0  0  0  0  0  0  0  0999 V2000
   58.0570   27.9220   44.0900 C   0  0  0  0  0  0  0  0  0  0  0  0
   57.5100   28.4060   45.4280 C   0  0  0  0  0  0  0  0  0  0  0  0
   56.3180   29.1650   45.2410 O   0  0  0  0  0  0  0  0  0  0  0  0
   56.0800   29.9650   44.1180 C   0  0  0  0  0  0  0  0  0  0  0  0
   55.1200   29.7100   43.3400 O   0  0  0  0  0  0  0  0  0  0  0  0
   56.9640   31.1060   43.8450 C   0  0  0  0  0  0  0  0  0  0  0  0
   57.3890   31.4760   42.6130 N   0  0  0  0  0  0  0  0  0  0  0  0
   58.1770   32.5630   42.8000 C   0  0  0  0  0  0  0  0  0  0  0  0
   58.2550   32.8810   44.1060 N   0  0  0  0  0  0  0  0  0  0  0  0
   58.9060   33.8640   44.7680 C   0  0  0  0  0  0  0  0  0  0  0  0
   59.6080   34.7060   44.1430 O   0  0  0  0  0  0  0  0  0  0  0  0
   58.7760   33.9130   46.1320 N   0  0  0  0  0  0  0  0  0  0  0  0
   59.4380   34.9530   46.9250 C   0  0  0  0  0  0  0  0  0  0  0  0
   60.5400   34.4150   47.6300 O   0  0  0  0  0  0  0  0  0  0  0  0
   60.1760   34.1550   48.9690 C   0  0  0  0  0  0  0  0  0  0  0  0
   58.0170   33.0000   46.7610 N   0  0  0  0  0  0  0  0  0  0  0  0
   57.3780   32.0320   46.0940 N   0  0  0  0  0  0  0  0  0  0  0  0
   57.5100   31.9890   44.7520 C   0  0  0  0  0  0  0  0  0  0  0  0
   58.8703   27.2024   44.2651 H   0  0  0  0  0  0  0  0  0  0  0  0
   57.2525   27.4346   43.5197 H   0  0  0  0  0  0  0  0  0  0  0  0
   58.4429   28.7798   43.5197 H   0  0  0  0  0  0  0  0  0  0  0  0
   57.2879   27.5358   46.0632 H   0  0  0  0  0  0  0  0  0  0  0  0
   58.2650   29.0463   45.9076 H   0  0  0  0  0  0  0  0  0  0  0  0
   57.1620   31.0210   41.7020 H   0  0  0  0  0  0  0  0  0  0  0  0
   58.6846   33.1117   41.9930 H   0  0  0  0  0  0  0  0  0  0  0  0
   59.7920   35.7492   46.2537 H   0  0  0  0  0  0  0  0  0  0  0  0
   58.7172   35.3593   47.6498 H   0  0  0  0  0  0  0  0  0  0  0  0
   60.8819   34.6592   49.6454 H   0  0  0  0  0  0  0  0  0  0  0  0
   59.1592   34.5325   49.1525 H   0  0  0  0  0  0  0  0  0  0  0  0
   60.2033   33.0708   49.1525 H   0  0  0  0  0  0  0  0  0  0  0  0
  1  2  1  0
  2  3  1  0
  3  4  1  0
  4  5  2  0
  4  6  1  0
  6  7  1  0
  7  8  2  0
  8  9  1  0
  9 10  1  0
 10 11  2  0
 10 12  1  0
 12 13  1  0
 13 14  1  0
 14 15  1  0
 12 16  1  0
 16 17  2  0
 17 18  1  0
 18  6  2  0
 18  9  1  0
  1 19  1  0
  1 20  1  0
  1 21  1  0
  2 22  1  0
  2 23  1  0
  7 24  1  0
  8 25  1  0
 13 26  1  0
 13 27  1  0
 15 28  1  0
 15 29  1  0
 15 30  1  0
M  CHG  1   7   1
M  END
>  <UniqueID>  (38) 
38

>  <SMILES>  (38) 
CCOC(=O)c1[nH+]cn2c(=O)n(COC)nnc12

>  <Energy>  (38) 
68.36547522942708

>  <Genealogy>  (38) 
CCOC(=O)c1[nH+]cn2c(=O)n(COC)nnc12 (protonated)
CCOC(=O)c1[nH+]cn2c(=O)n(COC)nnc12 (3D coordinates assigned)
CCOC(=O)c1[nH+]cn2c(=O)n(COC)nnc12 (optimized conformer: 68.36547522942708 kcal/mol)

>  <smiles>  (38) 
CCOC(=O)c1ncn2c(=O)n(COC)nnc12

>  <score_type>  (38) 
oracle

>  <origin>  (38) 
adg

>  <m_score__min__energy>  (38) 
-4.1299999999999999

>  <m_primary>  (38) 
energy

$$$$
39:0
     RDKit          3D

 33 34  0  0  0  0  0  0  0  0999 V2000
   56.4199   33.7345   44.8779 H   0  0  0  0  0  0  0  0  0  0  0  0
   57.4460   33.3380   44.8810 C   0  0  0  0  0  0  0  0  0  0  0  0
   57.8610   32.6590   43.8050 C   0  0  0  0  0  0  0  0  0  0  0  0
   58.4685   33.1684   43.0424 H   0  0  0  0  0  0  0  0  0  0  0  0
   57.5090   31.2150   43.6260 C   0  0  0  0  0  0  0  0  0  0  0  0
   58.3854   30.5919   43.8576 H   0  0  0  0  0  0  0  0  0  0  0  0
   57.1998   31.0378   42.5853 H   0  0  0  0  0  0  0  0  0  0  0  0
   56.4410   30.8780   44.5040 O   0  0  0  0  0  0  0  0  0  0  0  0
   55.6770   29.7160   44.3620 C   0  0  0  0  0  0  0  0  0  0  0  0
   54.7670   29.6530   43.4930 O   0  0  0  0  0  0  0  0  0  0  0  0
   55.8850   28.6020   45.2350 N   0  0  0  0  0  0  0  0  0  0  0  0
   57.1600   28.1120   45.6770 C   0  0  0  0  0  0  0  0  0  0  0  0
   58.1060   29.0280   46.1560 C   0  0  0  0  0  0  0  0  0  0  0  0
   57.8649   30.1011   46.1773 H   0  0  0  0  0  0  0  0  0  0  0  0
   59.3540   28.5880   46.6070 C   0  0  0  0  0  0  0  0  0  0  0  0
   60.0960   29.3153   46.9682 H   0  0  0  0  0  0  0  0  0  0  0  0
   59.6590   27.2240   46.5990 C   0  0  0  0  0  0  0  0  0  0  0  0
   60.6436   26.8781   46.9466 H   0  0  0  0  0  0  0  0  0  0  0  0
   58.7120   26.3000   46.1490 C   0  0  0  0  0  0  0  0  0  0  0  0
   58.9496   25.2260   46.1506 H   0  0  0  0  0  0  0  0  0  0  0  0
   57.4640   26.7370   45.6970 C   0  0  0  0  0  0  0  0  0  0  0  0
   56.7171   26.0051   45.3559 H   0  0  0  0  0  0  0  0  0  0  0  0
   58.2860   33.5880   46.0770 C   0  0  0  0  0  0  0  0  0  0  0  0
   59.1970   34.6590   46.0460 C   0  0  0  0  0  0  0  0  0  0  0  0
   59.2745   35.2836   45.1439 H   0  0  0  0  0  0  0  0  0  0  0  0
   60.0050   34.9360   47.1530 C   0  0  0  0  0  0  0  0  0  0  0  0
   60.7200   35.7711   47.1156 H   0  0  0  0  0  0  0  0  0  0  0  0
   59.9060   34.1550   48.3050 C   0  0  0  0  0  0  0  0  0  0  0  0
   60.5454   34.3724   49.1733 H   0  0  0  0  0  0  0  0  0  0  0  0
   58.9960   33.0980   48.3560 C   0  0  0  0  0  0  0  0  0  0  0  0
   58.9162   32.4865   49.2669 H   0  0  0  0  0  0  0  0  0  0  0  0
   58.1850   32.8140   47.2520 C   0  0  0  0  0  0  0  0  0  0  0  0
   57.4654   31.9835   47.3004 H   0  0  0  0  0  0  0  0  0  0  0  0
  1  2  1  0
  2  3  2  0
  3  4  1  0
  3  5  1  0
  5  6  1  0
  5  7  1  0
  5  8  1  0
  8  9  1  0
  9 10  2  0
  9 11  1  0
 11 12  1  0
 12 13  2  0
 13 14  1  0
 13 15  1  0
 15 16  1  0
 15 17  2  0
 17 18  1  0
 17 19  1  0
 19 20  1  0
 19 21  2  0
 21 22  1  0
  2 23  1  0
 23 24  2  0
 24 25  1  0
 24 26  1  0
 26 27  1  0
 26 28  2  0
 28 29  1  0
 28 30  1  0
 30 31  1  0
 30 32  2  0
 32 33  1  0
 21 12  1  0
 32 23  1  0
M  CHG  1  11  -1
M  END
>  <UniqueID>  (39) 
39

>  <SMILES>  (39) 
O=C([N-]c1ccccc1)OC/C=C/c1ccccc1

>  <Energy>  (39) 
33.75230445083204

>  <Genealogy>  (39) 
O=C([N-]c1ccccc1)OCC=Cc1ccccc1 (protonated)
O=C([N-]c1ccccc1)OC/C=C/c1ccccc1 (cis-trans isomerization)
O=C([N-]c1ccccc1)OC/C=C/c1ccccc1 (3D coordinates assigned)
O=C([N-]c1ccccc1)OC/C=C/c1ccccc1 (optimized conformer: 33.75230445083204 kcal/mol)

>  <smiles>  (39) 
O=C(Nc1ccccc1)OCC=Cc1ccccc1

>  <score_type>  (39) 
oracle

>  <origin>  (39) 
adg

>  <m_score__min__energy>  (39) 
-9

>  <m_primary>  (39) 
energy

$$$$
40:0
     RDKit          3D

 52 55  0  0  0  0  0  0  0  0999 V2000
   63.8120   33.5010   47.3560 C   0  0  0  0  0  0  0  0  0  0  0  0
   62.3510   33.7530   47.5830 C   0  0  0  0  0  0  0  0  0  0  0  0
   61.9040   34.2610   48.8120 C   0  0  0  0  0  0  0  0  0  0  0  0
   60.5490   34.5400   49.0080 C   0  0  0  0  0  0  0  0  0  0  0  0
   59.6320   34.3230   47.9750 C   0  0  0  0  0  0  0  0  0  0  0  0
   60.0640   33.8210   46.7390 C   0  0  0  0  0  0  0  0  0  0  0  0
   59.0850   33.6360   45.6110 C   0  0  0  0  0  0  0  0  0  0  0  0
   58.4990   32.2510   45.6550 C   0  0  0  0  0  0  0  0  0  0  0  0
   57.1830   32.0200   45.2230 C   0  0  0  0  0  0  0  0  0  0  0  0
   56.6710   30.7600   45.2290 N   0  0  0  0  0  0  0  0  0  0  0  0
   57.4050   29.6910   45.6390 C   0  0  0  0  0  0  0  0  0  0  0  0
   56.8590   28.4040   45.6420 C   0  0  0  0  0  0  0  0  0  0  0  0
   55.5410   28.2160   45.2310 O   0  0  0  0  0  0  0  0  0  0  0  0
   57.6340   27.3120   46.0760 C   0  0  0  0  0  0  0  0  0  0  0  0
   57.0440   25.9570   46.0910 C   0  0  0  0  0  0  0  0  0  0  0  0
   57.7170   24.9920   46.5460 O   0  0  0  0  0  0  0  0  0  0  0  0
   55.7270   25.7340   45.5710 N   0  0  0  0  0  0  0  0  0  0  0  0
   54.9800   24.5080   45.8330 C   0  0  0  0  0  0  0  0  0  0  0  0
   55.4990   23.3950   44.9650 C   0  0  0  0  0  0  0  0  0  0  0  0
   55.7710   23.6150   43.6050 C   0  0  0  0  0  0  0  0  0  0  0  0
   56.2970   22.5870   42.8160 C   0  0  0  0  0  0  0  0  0  0  0  0
   56.5630   21.3370   43.3810 C   0  0  0  0  0  0  0  0  0  0  0  0
   57.0750   20.3410   42.6160 F   0  0  0  0  0  0  0  0  0  0  0  0
   56.3030   21.1120   44.7370 C   0  0  0  0  0  0  0  0  0  0  0  0
   55.7760   22.1380   45.5280 C   0  0  0  0  0  0  0  0  0  0  0  0
   58.9750   27.5420   46.4730 C   0  0  0  0  0  0  0  0  0  0  0  0
   59.8880   26.4250   46.8920 C   0  0  0  0  0  0  0  0  0  0  0  0
   59.4720   28.8100   46.4660 N   0  0  0  0  0  0  0  0  0  0  0  0
   58.7310   29.8750   46.0680 C   0  0  0  0  0  0  0  0  0  0  0  0
   59.2770   31.1600   46.0700 C   0  0  0  0  0  0  0  0  0  0  0  0
   61.4300   33.5530   46.5420 C   0  0  0  0  0  0  0  0  0  0  0  0
   64.3238   33.4127   48.3256 H   0  0  0  0  0  0  0  0  0  0  0  0
   63.9392   32.5677   46.7879 H   0  0  0  0  0  0  0  0  0  0  0  0
   64.2445   34.3378   46.7879 H   0  0  0  0  0  0  0  0  0  0  0  0
   62.6233   34.4404   49.6247 H   0  0  0  0  0  0  0  0  0  0  0  0
   60.2032   34.9309   49.9763 H   0  0  0  0  0  0  0  0  0  0  0  0
   58.5667   34.5471   48.1327 H   0  0  0  0  0  0  0  0  0  0  0  0
   58.2767   34.3760   45.7061 H   0  0  0  0  0  0  0  0  0  0  0  0
   59.6092   33.7742   44.6539 H   0  0  0  0  0  0  0  0  0  0  0  0
   56.5638   32.8614   44.8784 H   0  0  0  0  0  0  0  0  0  0  0  0
   55.2750   26.4790   44.9930 H   0  0  0  0  0  0  0  0  0  0  0  0
   55.0961   24.2295   46.8908 H   0  0  0  0  0  0  0  0  0  0  0  0
   53.9169   24.6771   45.6066 H   0  0  0  0  0  0  0  0  0  0  0  0
   55.5695   24.5999   43.1584 H   0  0  0  0  0  0  0  0  0  0  0  0
   56.5015   22.7627   41.7496 H   0  0  0  0  0  0  0  0  0  0  0  0
   56.5131   20.1279   45.1812 H   0  0  0  0  0  0  0  0  0  0  0  0
   55.5776   21.9600   46.5952 H   0  0  0  0  0  0  0  0  0  0  0  0
   59.9278   26.3763   47.9902 H   0  0  0  0  0  0  0  0  0  0  0  0
   59.5070   25.4720   46.4963 H   0  0  0  0  0  0  0  0  0  0  0  0
   60.8978   26.6088   46.4963 H   0  0  0  0  0  0  0  0  0  0  0  0
   60.3157   31.3166   46.3965 H   0  0  0  0  0  0  0  0  0  0  0  0
   61.7795   33.1844   45.5663 H   0  0  0  0  0  0  0  0  0  0  0  0
  1  2  1  0
  2  3  2  0
  3  4  1  0
  4  5  2  0
  5  6  1  0
  6  7  1  0
  7  8  1  0
  8  9  2  0
  9 10  1  0
 10 11  2  0
 11 12  1  0
 12 13  1  0
 12 14  2  0
 14 15  1  0
 15 16  2  0
 15 17  1  0
 17 18  1  0
 18 19  1  0
 19 20  2  0
 20 21  1  0
 21 22  2  0
 22 23  1  0
 22 24  1  0
 24 25  2  0
 14 26  1  0
 26 27  1  0
 26 28  2  0
 28 29  1  0
 29 30  2  0
  6 31  2  0
 31  2  1  0
 30  8  1  0
 29 11  1  0
 25 19  1  0
  1 32  1  0
  1 33  1  0
  1 34  1  0
  3 35  1  0
  4 36  1  0
  5 37  1  0
  7 38  1  0
  7 39  1  0
  9 40  1  0
 17 41  1  0
 18 42  1  0
 18 43  1  0
 20 44  1  0
 21 45  1  0
 24 46  1  0
 25 47  1  0
 27 48  1  0
 27 49  1  0
 27 50  1  0
 30 51  1  0
 31 52  1  0
M  CHG  1  13  -1
M  END
>  <UniqueID>  (40) 
40

>  <SMILES>  (40) 
Cc1cccc(Cc2cnc3c([O-])c(C(=O)NCc4ccc(F)cc4)c(C)nc3c2)c1

>  <Energy>  (40) 
60.35802270560017

>  <Genealogy>  (40) 
Cc1cccc(Cc2cnc3c([O-])c(C(=O)NCc4ccc(F)cc4)c(C)nc3c2)c1 (protonated)
Cc1cccc(Cc2cnc3c([O-])c(C(=O)NCc4ccc(F)cc4)c(C)nc3c2)c1 (3D coordinates assigned)
Cc1cccc(Cc2cnc3c([O-])c(C(=O)NCc4ccc(F)cc4)c(C)nc3c2)c1 (optimized conformer: 60.35802270560017 kcal/mol)

>  <smiles>  (40) 
Cc1cccc(Cc2cnc3c(O)c(C(=O)NCc4ccc(F)cc4)c(C)nc3c2)c1

>  <score_type>  (40) 
oracle

>  <origin>  (40) 
adg

>  <m_score__min__energy>  (40) 
-13.26

>  <m_primary>  (40) 
energy

$$$$
41:0
     RDKit          3D

 39 40  0  0  0  0  0  0  0  0999 V2000
   59.8360   29.2550   45.0380 C   0  0  0  0  0  0  0  0  0  0  0  0
   58.6640   29.6290   45.9660 C   0  0  0  0  0  0  0  0  0  0  0  0
   57.4870   30.2320   45.2880 N   0  0  2  0  0  0  0  0  0  0  0  0
   56.4650   29.2540   44.8700 C   0  0  0  0  0  0  0  0  0  0  0  0
   55.8380   29.7940   43.6010 C   0  0  0  0  0  0  0  0  0  0  0  0
   56.9570   30.5660   42.9410 C   0  0  0  0  0  0  0  0  0  0  0  0
   57.8380   31.0530   44.0970 C   0  0  1  0  0  0  0  0  0  0  0  0
   57.6200   32.5650   44.3500 C   0  0  0  0  0  0  0  0  0  0  0  0
   56.9030   32.7970   45.6150 N   0  0  0  0  0  0  0  0  0  0  0  0
   57.5100   33.8540   46.4420 C   0  0  0  0  0  0  0  0  0  0  0  0
   58.9710   33.5920   46.7240 C   0  0  0  0  0  0  0  0  0  0  0  0
   59.9580   34.4110   46.1500 C   0  0  0  0  0  0  0  0  0  0  0  0
   61.3120   34.1640   46.3990 C   0  0  0  0  0  0  0  0  0  0  0  0
   61.6900   33.0990   47.2230 C   0  0  0  0  0  0  0  0  0  0  0  0
   63.3880   32.7900   47.5340 Cl  0  0  0  0  0  0  0  0  0  0  0  0
   60.7130   32.2800   47.7990 C   0  0  0  0  0  0  0  0  0  0  0  0
   59.3590   32.5260   47.5510 C   0  0  0  0  0  0  0  0  0  0  0  0
   60.7099   28.9761   45.6451 H   0  0  0  0  0  0  0  0  0  0  0  0
   59.5443   28.4053   44.4032 H   0  0  0  0  0  0  0  0  0  0  0  0
   60.0904   30.1166   44.4032 H   0  0  0  0  0  0  0  0  0  0  0  0
   58.3301   28.7144   46.4779 H   0  0  0  0  0  0  0  0  0  0  0  0
   59.0501   30.3995   46.6496 H   0  0  0  0  0  0  0  0  0  0  0  0
   57.0250   30.8420   46.0060 H   0  0  0  0  0  0  0  0  0  0  0  0
   56.9321   28.2772   44.6760 H   0  0  0  0  0  0  0  0  0  0  0  0
   55.7083   29.1126   45.6557 H   0  0  0  0  0  0  0  0  0  0  0  0
   55.4948   28.9730   42.9543 H   0  0  0  0  0  0  0  0  0  0  0  0
   54.9525   30.4163   43.7976 H   0  0  0  0  0  0  0  0  0  0  0  0
   57.5306   29.9142   42.2657 H   0  0  0  0  0  0  0  0  0  0  0  0
   56.5799   31.3989   42.3294 H   0  0  0  0  0  0  0  0  0  0  0  0
   58.9058   30.9327   43.8620 H   0  0  0  0  0  0  0  0  0  0  0  0
   58.5984   33.0656   44.3955 H   0  0  0  0  0  0  0  0  0  0  0  0
   57.0134   32.9712   43.5271 H   0  0  0  0  0  0  0  0  0  0  0  0
   55.9120   33.0570   45.3980 H   0  0  0  0  0  0  0  0  0  0  0  0
   57.4183   34.8140   45.9128 H   0  0  0  0  0  0  0  0  0  0  0  0
   56.9793   33.8746   47.4053 H   0  0  0  0  0  0  0  0  0  0  0  0
   59.6645   35.2500   45.5020 H   0  0  0  0  0  0  0  0  0  0  0  0
   62.0803   34.8080   45.9463 H   0  0  0  0  0  0  0  0  0  0  0  0
   61.0100   31.4423   48.4471 H   0  0  0  0  0  0  0  0  0  0  0  0
   58.5935   31.8806   48.0065 H   0  0  0  0  0  0  0  0  0  0  0  0
  1  2  1  0
  2  3  1  0
  3  4  1  0
  4  5  1  0
  5  6  1  0
  6  7  1  0
  7  8  1  0
  8  9  1  0
  9 10  1  0
 10 11  1  0
 11 12  2  0
 12 13  1  0
 13 14  2  0
 14 15  1  0
 14 16  1  0
 16 17  2  0
  7  3  1  0
 17 11  1  0
  1 18  1  0
  1 19  1  0
  1 20  1  0
  2 21  1  0
  2 22  1  0
  3 23  1  1
  4 24  1  0
  4 25  1  0
  5 26  1  0
  5 27  1  0
  6 28  1  0
  6 29  1  0
  7 30  1  6
  8 31  1  0
  8 32  1  0
  9 33  1  0
 10 34  1  0
 10 35  1  0
 12 36  1  0
 13 37  1  0
 16 38  1  0
 17 39  1  0
M  CHG  1   3   1
M  END
>  <UniqueID>  (41) 
41

>  <SMILES>  (41) 
CC[N@@H+]1CCC[C@H]1CNCc1ccc(Cl)cc1

>  <Energy>  (41) 
44.79005909220276

>  <Genealogy>  (41) 
CC[NH+]1CCCC1CNCc1ccc(Cl)cc1 (protonated)
CC[N@@H+]1CCC[C@H]1CNCc1ccc(Cl)cc1 (chirality)
CC[N@@H+]1CCC[C@H]1CNCc1ccc(Cl)cc1 (3D coordinates assigned)
CC[N@@H+]1CCC[C@H]1CNCc1ccc(Cl)cc1 (nonaromatic ring conformer: 44.79005909220276 kcal/mol)

>  <smiles>  (41) 
CCN1CCCC1CNCc1ccc(Cl)cc1

>  <score_type>  (41) 
oracle

>  <origin>  (41) 
adg

>  <m_score__min__energy>  (41) 
-4.8600000000000003

>  <m_primary>  (41) 
energy

$$$$
42:0
     RDKit          3D

 39 42  0  0  0  0  0  0  0  0999 V2000
   58.6120   35.1470   47.8674 H   0  0  0  0  0  0  0  0  0  0  0  0
   59.2810   34.3180   47.5930 C   0  0  0  0  0  0  0  0  0  0  0  0
   59.0140   33.6370   46.4730 C   0  0  0  0  0  0  0  0  0  0  0  0
   58.8640   34.4680   44.8720 S   0  0  0  0  0  0  0  0  0  0  0  0
   58.4540   32.8580   44.1990 C   0  0  0  0  0  0  0  0  0  0  0  0
   57.7490   32.4640   42.7290 S   0  0  0  0  0  0  0  0  0  0  0  0
   57.5330   30.8400   43.1680 C   0  0  0  0  0  0  0  0  0  0  0  0
   57.1007   30.0553   42.5298 H   0  0  0  0  0  0  0  0  0  0  0  0
   57.9960   30.6640   44.4770 C   0  0  0  0  0  0  0  0  0  0  0  0
   57.9260   29.3700   45.1860 C   0  0  0  0  0  0  0  0  0  0  0  0
   59.0720   28.8290   45.7860 C   0  0  0  0  0  0  0  0  0  0  0  0
   60.0243   29.3779   45.7426 H   0  0  0  0  0  0  0  0  0  0  0  0
   59.0090   27.5950   46.4390 C   0  0  0  0  0  0  0  0  0  0  0  0
   59.9094   27.1786   46.9143 H   0  0  0  0  0  0  0  0  0  0  0  0
   57.8050   26.8900   46.4890 C   0  0  0  0  0  0  0  0  0  0  0  0
   57.7605   25.9223   47.0102 H   0  0  0  0  0  0  0  0  0  0  0  0
   56.6540   27.4050   45.8810 C   0  0  0  0  0  0  0  0  0  0  0  0
   55.4710   26.6540   45.9530 O   0  0  0  0  0  0  0  0  0  0  0  0
   55.3870   25.2570   45.6890 C   0  0  0  0  0  0  0  0  0  0  0  0
   55.3538   24.7054   46.6402 H   0  0  0  0  0  0  0  0  0  0  0  0
   54.4746   25.0472   45.1115 H   0  0  0  0  0  0  0  0  0  0  0  0
   56.2677   24.9394   45.1115 H   0  0  0  0  0  0  0  0  0  0  0  0
   56.7220   28.6480   45.2230 C   0  0  0  0  0  0  0  0  0  0  0  0
   55.8253   29.0566   44.7342 H   0  0  0  0  0  0  0  0  0  0  0  0
   58.4910   31.8100   45.0230 N   0  0  0  0  0  0  0  0  0  0  0  0
   58.8160   32.1830   46.3510 C   0  0  0  0  0  0  0  0  0  0  0  0
   58.9160   31.3590   47.2980 O   0  0  0  0  0  0  0  0  0  0  0  0
   60.4190   34.0220   48.4800 C   0  0  0  0  0  0  0  0  0  0  0  0
   60.3190   33.8460   49.8450 C   0  0  0  0  0  0  0  0  0  0  0  0
   59.4079   33.9295   50.4557 H   0  0  0  0  0  0  0  0  0  0  0  0
   61.5910   33.5440   50.2920 C   0  0  0  0  0  0  0  0  0  0  0  0
   61.8933   33.3539   51.3324 H   0  0  0  0  0  0  0  0  0  0  0  0
   62.4100   33.5270   49.1790 C   0  0  0  0  0  0  0  0  0  0  0  0
   63.4905   33.3210   49.1929 H   0  0  0  0  0  0  0  0  0  0  0  0
   61.6890   33.8000   48.0750 N   0  0  0  0  0  0  0  0  0  0  0  0
   62.2160   33.8350   46.7120 C   0  0  0  0  0  0  0  0  0  0  0  0
   63.3131   33.9079   46.7448 H   0  0  0  0  0  0  0  0  0  0  0  0
   61.9253   32.9156   46.1827 H   0  0  0  0  0  0  0  0  0  0  0  0
   61.8062   34.7079   46.1827 H   0  0  0  0  0  0  0  0  0  0  0  0
  1  2  1  0
  2  3  2  0
  3  4  1  0
  4  5  1  0
  5  6  1  0
  6  7  1  0
  7  8  1  0
  7  9  2  0
  9 10  1  0
 10 11  2  0
 11 12  1  0
 11 13  1  0
 13 14  1  0
 13 15  2  0
 15 16  1  0
 15 17  1  0
 17 18  1  0
 18 19  1  0
 19 20  1  0
 19 21  1  0
 19 22  1  0
 17 23  2  0
 23 24  1  0
  9 25  1  0
 25 26  1  0
 26 27  2  0
  2 28  1  0
 28 29  2  0
 29 30  1  0
 29 31  1  0
 31 32  1  0
 31 33  2  0
 33 34  1  0
 33 35  1  0
 35 36  1  0
 36 37  1  0
 36 38  1  0
 36 39  1  0
 26  3  1  0
 35 28  1  0
 25  5  2  0
 23 10  1  0
M  CHG  1  25   1
M  END
>  <UniqueID>  (42) 
42

>  <SMILES>  (42) 
COc1cccc(-c2csc3[n+]2C(=O)/C(=C\c2cccn2C)S3)c1

>  <Energy>  (42) 
139.11764762776065

>  <Genealogy>  (42) 
COc1cccc(-c2csc3[n+]2C(=O)/C(=C\c2cccn2C)S3)c1 (cis-trans isomerization)
COc1cccc(-c2csc3[n+]2C(=O)/C(=C\c2cccn2C)S3)c1 (3D coordinates assigned)
COc1cccc(-c2csc3[n+]2C(=O)/C(=C\c2cccn2C)S3)c1 (nonaromatic ring conformer: 139.11764762776065 kcal/mol)

>  <smiles>  (42) 
COc1cccc(-c2csc3[n+]2C(=O)C(=Cc2cccn2C)S3)c1

>  <score_type>  (42) 
oracle

>  <origin>  (42) 
adg

>  <m_score__min__energy>  (42) 
-7.2599999999999998

>  <m_primary>  (42) 
energy

$$$$
43:0
     RDKit          3D

 52 54  0  0  1  0  0  0  0  0999 V2000
   56.5720   30.2710   42.6560 C   0  0  0  0  0  0  0  0  0  0  0  0
   55.5520   29.7150   43.6120 C   0  0  0  0  0  0  0  0  0  0  0  0
   56.1300   29.3050   44.8760 N   0  0  0  0  0  0  0  0  0  0  0  0
   57.2960   29.6830   45.2690 C   0  0  0  0  0  0  0  0  0  0  0  0
   58.2880   28.7240   45.2820 C   0  0  0  0  0  0  0  0  0  0  0  0
   59.5470   29.1030   45.6990 C   0  0  0  0  0  0  0  0  0  0  0  0
   59.7870   30.3710   46.0770 N   0  0  0  0  0  0  0  0  0  0  0  0
   58.8160   31.3260   46.0680 C   0  0  0  0  0  0  0  0  0  0  0  0
   59.0930   32.7270   46.4870 C   0  0  2  0  0  0  0  0  0  0  0  0
   58.0100   33.5270   45.8020 C   0  0  0  0  0  0  0  0  0  0  0  0
   58.0920   34.8820   45.9450 O   0  0  0  0  0  0  0  0  0  0  0  0
   59.3180   35.2440   45.3350 C   0  0  0  0  0  0  0  0  0  0  0  0
   60.3630   34.6510   46.2570 C   0  0  0  0  0  0  0  0  0  0  0  0
   60.4030   33.2030   46.2180 N   0  0  0  0  0  0  0  0  0  0  0  0
   61.3950   32.7620   47.1280 C   0  0  0  0  0  0  0  0  0  0  0  0
   61.2260   33.1660   48.5420 C   0  0  0  0  0  0  0  0  0  0  0  0
   61.9710   32.1190   49.3820 C   0  0  0  0  0  0  0  0  0  0  0  0
   63.2830   31.9060   48.8540 N   0  0  0  0  0  0  0  0  0  0  0  0
   64.1880   31.9590   50.0100 C   0  0  0  0  0  0  0  0  0  0  0  0
   65.4000   32.7980   49.7740 C   0  0  0  0  0  0  0  0  0  0  0  0
   63.7340   32.9410   47.9670 C   0  0  0  0  0  0  0  0  0  0  0  0
   62.8150   33.1400   46.7700 C   0  0  0  0  0  0  0  0  0  0  0  0
   57.6020   30.9110   45.6540 N   0  0  0  0  0  0  0  0  0  0  0  0
   57.3992   30.7219   43.2238 H   0  0  0  0  0  0  0  0  0  0  0  0
   56.9611   29.4602   42.0226 H   0  0  0  0  0  0  0  0  0  0  0  0
   56.1014   31.0374   42.0226 H   0  0  0  0  0  0  0  0  0  0  0  0
   54.7947   30.4887   43.8066 H   0  0  0  0  0  0  0  0  0  0  0  0
   55.1128   28.8216   43.1441 H   0  0  0  0  0  0  0  0  0  0  0  0
   58.0813   27.6897   44.9696 H   0  0  0  0  0  0  0  0  0  0  0  0
   60.3604   28.3628   45.7225 H   0  0  0  0  0  0  0  0  0  0  0  0
   60.7520   30.6440   46.3920 H   0  0  0  0  0  0  0  0  0  0  0  0
   59.0695   32.8176   47.5830 H   0  0  0  0  0  0  0  0  0  0  0  0
   58.0501   33.2980   44.7268 H   0  0  0  0  0  0  0  0  0  0  0  0
   57.0681   33.2318   46.2874 H   0  0  0  0  0  0  0  0  0  0  0  0
   59.3961   34.8148   44.3252 H   0  0  0  0  0  0  0  0  0  0  0  0
   59.4276   36.3311   45.2077 H   0  0  0  0  0  0  0  0  0  0  0  0
   61.3498   35.0361   45.9605 H   0  0  0  0  0  0  0  0  0  0  0  0
   60.0968   34.9431   47.2836 H   0  0  0  0  0  0  0  0  0  0  0  0
   61.2334   31.6784   47.0291 H   0  0  0  0  0  0  0  0  0  0  0  0
   61.6580   34.1641   48.7071 H   0  0  0  0  0  0  0  0  0  0  0  0
   60.1626   33.2170   48.8186 H   0  0  0  0  0  0  0  0  0  0  0  0
   62.0502   32.4749   50.4198 H   0  0  0  0  0  0  0  0  0  0  0  0
   61.4134   31.1713   49.3520 H   0  0  0  0  0  0  0  0  0  0  0  0
   63.6367   32.3752   50.8660 H   0  0  0  0  0  0  0  0  0  0  0  0
   64.5347   30.9324   50.1993 H   0  0  0  0  0  0  0  0  0  0  0  0
   65.8325   33.0974   50.7401 H   0  0  0  0  0  0  0  0  0  0  0  0
   66.1415   32.2189   49.2040 H   0  0  0  0  0  0  0  0  0  0  0  0
   65.1191   33.6959   49.2040 H   0  0  0  0  0  0  0  0  0  0  0  0
   63.7877   33.8853   48.5286 H   0  0  0  0  0  0  0  0  0  0  0  0
   64.7178   32.6373   47.5799 H   0  0  0  0  0  0  0  0  0  0  0  0
   62.8427   34.1960   46.4631 H   0  0  0  0  0  0  0  0  0  0  0  0
   63.1584   32.4980   45.9454 H   0  0  0  0  0  0  0  0  0  0  0  0
  1  2  1  0
  2  3  1  0
  3  4  2  0
  4  5  1  0
  5  6  2  0
  6  7  1  0
  7  8  1  0
  8  9  1  0
  9 10  1  0
 10 11  1  0
 11 12  1  0
 12 13  1  0
 13 14  1  0
 14 15  1  0
 15 16  1  0
 16 17  1  0
 17 18  1  0
 18 19  1  0
 19 20  1  0
 18 21  1  0
 21 22  1  0
  8 23  2  0
 23  4  1  0
 14  9  1  0
 22 15  1  0
  1 24  1  0
  1 25  1  0
  1 26  1  0
  2 27  1  0
  2 28  1  0
  5 29  1  0
  6 30  1  0
  7 31  1  0
  9 32  1  1
 10 33  1  0
 10 34  1  0
 12 35  1  0
 12 36  1  0
 13 37  1  0
 13 38  1  0
 15 39  1  0
 16 40  1  0
 16 41  1  0
 17 42  1  0
 17 43  1  0
 19 44  1  0
 19 45  1  0
 20 46  1  0
 20 47  1  0
 20 48  1  0
 21 49  1  0
 21 50  1  0
 22 51  1  0
 22 52  1  0
M  END
>  <smiles>  (43) 
CCN=c1cc[nH]c(C2COCCN2C2CCN(CC)CC2)n1

>  <score_type>  (43) 
oracle

>  <origin>  (43) 
adg

>  <m_score__min__energy>  (43) 
-7.3600000000000003

>  <m_primary>  (43) 
energy

$$$$
44:0
     RDKit          3D

 40 43  0  0  0  0  0  0  0  0999 V2000
   56.7750   30.8490   52.0250 C   0  0  0  0  0  0  0  0  0  0  0  0
   57.4340   30.0900   51.0180 O   0  0  0  0  0  0  0  0  0  0  0  0
   58.5390   30.5420   50.2810 C   0  0  0  0  0  0  0  0  0  0  0  0
   59.6600   29.7280   50.0220 C   0  0  0  0  0  0  0  0  0  0  0  0
   60.7360   30.2270   49.2820 C   0  0  0  0  0  0  0  0  0  0  0  0
   60.7060   31.5360   48.7950 C   0  0  0  0  0  0  0  0  0  0  0  0
   59.6000   32.3530   49.0520 C   0  0  0  0  0  0  0  0  0  0  0  0
   59.5700   34.0380   48.4430 S   0  0  0  0  0  0  0  0  0  0  0  0
   59.0750   33.5260   46.7990 C   0  0  0  0  0  0  0  0  0  0  0  0
   58.8430   34.4850   45.7910 C   0  0  0  0  0  0  0  0  0  0  0  0
   58.4530   34.0840   44.5030 C   0  0  0  0  0  0  0  0  0  0  0  0
   58.3250   32.7170   44.2670 C   0  0  0  0  0  0  0  0  0  0  0  0
   57.9370   32.1320   43.1170 N   0  0  0  0  0  0  0  0  0  0  0  0
   57.9430   30.8260   43.3670 N   0  0  0  0  0  0  0  0  0  0  0  0
   58.3390   30.6320   44.6430 C   0  0  0  0  0  0  0  0  0  0  0  0
   58.4810   29.3050   45.2750 C   0  0  0  0  0  0  0  0  0  0  0  0
   59.7520   28.8630   45.6770 C   0  0  0  0  0  0  0  0  0  0  0  0
   59.9040   27.6120   46.2820 C   0  0  0  0  0  0  0  0  0  0  0  0
   58.7890   26.7990   46.5040 C   0  0  0  0  0  0  0  0  0  0  0  0
   57.5180   27.2420   46.1300 C   0  0  0  0  0  0  0  0  0  0  0  0
   57.3570   28.4930   45.5230 C   0  0  0  0  0  0  0  0  0  0  0  0
   56.1060   28.9260   45.2240 F   0  0  0  0  0  0  0  0  0  0  0  0
   58.5760   31.8190   45.2330 N   0  0  0  0  0  0  0  0  0  0  0  0
   58.9190   32.1610   46.5020 C   0  0  0  0  0  0  0  0  0  0  0  0
   58.5200   31.8530   49.7900 C   0  0  0  0  0  0  0  0  0  0  0  0
   57.0864   30.4904   53.0172 H   0  0  0  0  0  0  0  0  0  0  0  0
   57.0428   31.9106   51.9182 H   0  0  0  0  0  0  0  0  0  0  0  0
   55.6864   30.7329   51.9182 H   0  0  0  0  0  0  0  0  0  0  0  0
   59.6884   28.6966   50.4034 H   0  0  0  0  0  0  0  0  0  0  0  0
   61.6084   29.5873   49.0827 H   0  0  0  0  0  0  0  0  0  0  0  0
   61.5523   31.9243   48.2093 H   0  0  0  0  0  0  0  0  0  0  0  0
   58.9685   35.5545   46.0154 H   0  0  0  0  0  0  0  0  0  0  0  0
   58.2561   34.8211   43.7106 H   0  0  0  0  0  0  0  0  0  0  0  0
   57.6930   30.0910   42.6690 H   0  0  0  0  0  0  0  0  0  0  0  0
   60.6314   29.5037   45.5151 H   0  0  0  0  0  0  0  0  0  0  0  0
   60.9037   27.2666   46.5841 H   0  0  0  0  0  0  0  0  0  0  0  0
   58.9121   25.8115   46.9727 H   0  0  0  0  0  0  0  0  0  0  0  0
   56.6401   26.6051   46.3133 H   0  0  0  0  0  0  0  0  0  0  0  0
   59.0702   31.3925   47.2744 H   0  0  0  0  0  0  0  0  0  0  0  0
   57.6491   32.4959   49.9856 H   0  0  0  0  0  0  0  0  0  0  0  0
  1  2  1  0
  2  3  1  0
  3  4  2  0
  4  5  1  0
  5  6  2  0
  6  7  1  0
  7  8  1  0
  8  9  1  0
  9 10  1  0
 10 11  2  0
 11 12  1  0
 12 13  2  0
 13 14  1  0
 14 15  2  0
 15 16  1  0
 16 17  2  0
 17 18  1  0
 18 19  2  0
 19 20  1  0
 20 21  2  0
 21 22  1  0
 15 23  1  0
 23 24  1  0
  7 25  2  0
 25  3  1  0
 24  9  2  0
 23 12  1  0
 21 16  1  0
  1 26  1  0
  1 27  1  0
  1 28  1  0
  4 29  1  0
  5 30  1  0
  6 31  1  0
 10 32  1  0
 11 33  1  0
 14 34  1  0
 17 35  1  0
 18 36  1  0
 19 37  1  0
 20 38  1  0
 24 39  1  0
 25 40  1  0
M  CHG  1  14   1
M  END
>  <UniqueID>  (44) 
43

>  <SMILES>  (44) 
COc1cccc(Sc2ccc3n[nH+]c(-c4ccccc4F)n3c2)c1

>  <Energy>  (44) 
86.13146420247705

>  <Genealogy>  (44) 
COc1cccc(Sc2ccc3n[nH+]c(-c4ccccc4F)n3c2)c1 (protonated)
COc1cccc(Sc2ccc3n[nH+]c(-c4ccccc4F)n3c2)c1 (3D coordinates assigned)
COc1cccc(Sc2ccc3n[nH+]c(-c4ccccc4F)n3c2)c1 (optimized conformer: 86.13146420247705 kcal/mol)

>  <smiles>  (44) 
COc1cccc(Sc2ccc3nnc(-c4ccccc4F)n3c2)c1

>  <score_type>  (44) 
oracle

>  <origin>  (44) 
adg

>  <m_score__min__energy>  (44) 
-7.4299999999999997

>  <m_primary>  (44) 
energy

$$$$
45:0
     RDKit          3D

 35 36  0  0  0  0  0  0  0  0999 V2000
   57.3320   25.6970   46.8000 C   0  0  0  0  0  0  0  0  0  0  0  0
   56.0720   26.3250   46.2160 C   0  0  0  0  0  0  0  0  0  0  0  0
   56.3820   27.6140   45.6020 N   0  0  0  0  0  0  0  0  0  0  0  0
   57.4020   27.7620   44.6010 C   0  0  0  0  0  0  0  0  0  0  0  0
   57.8840   26.7440   44.0390 O   0  0  0  0  0  0  0  0  0  0  0  0
   57.8940   29.0530   44.2290 N   0  0  0  0  0  0  0  0  0  0  0  0
   56.9190   30.4850   44.1740 S   0  0  0  0  0  0  0  0  0  0  0  0
   56.6580   30.8430   42.7400 O   0  0  0  0  0  0  0  0  0  0  0  0
   55.6130   30.1940   44.8590 O   0  0  0  0  0  0  0  0  0  0  0  0
   57.7710   31.8300   44.9560 C   0  0  0  0  0  0  0  0  0  0  0  0
   57.4100   33.1410   44.6040 C   0  0  0  0  0  0  0  0  0  0  0  0
   58.1010   34.2360   45.1270 C   0  0  0  0  0  0  0  0  0  0  0  0
   59.1590   34.0360   46.0120 C   0  0  0  0  0  0  0  0  0  0  0  0
   59.5180   32.7420   46.3910 C   0  0  0  0  0  0  0  0  0  0  0  0
   58.8240   31.6290   45.8840 C   0  0  0  0  0  0  0  0  0  0  0  0
   59.2160   30.2850   46.3560 C   0  0  0  0  0  0  0  0  0  0  0  0
   60.2580   29.5830   45.7320 C   0  0  0  0  0  0  0  0  0  0  0  0
   60.6070   28.3080   46.1830 C   0  0  0  0  0  0  0  0  0  0  0  0
   59.9020   27.7430   47.2490 C   0  0  0  0  0  0  0  0  0  0  0  0
   58.8860   28.4300   47.8340 N   0  0  0  0  0  0  0  0  0  0  0  0
   58.5270   29.6730   47.4140 C   0  0  0  0  0  0  0  0  0  0  0  0
   57.2795   25.7232   47.8984 H   0  0  0  0  0  0  0  0  0  0  0  0
   57.4123   24.6535   46.4615 H   0  0  0  0  0  0  0  0  0  0  0  0
   58.2136   26.2611   46.4615 H   0  0  0  0  0  0  0  0  0  0  0  0
   55.6518   25.6524   45.4538 H   0  0  0  0  0  0  0  0  0  0  0  0
   55.3437   26.4816   47.0254 H   0  0  0  0  0  0  0  0  0  0  0  0
   55.8160   28.4400   45.8960 H   0  0  0  0  0  0  0  0  0  0  0  0
   56.5739   33.3069   43.9088 H   0  0  0  0  0  0  0  0  0  0  0  0
   57.8100   35.2573   44.8402 H   0  0  0  0  0  0  0  0  0  0  0  0
   59.7115   34.8990   46.4120 H   0  0  0  0  0  0  0  0  0  0  0  0
   60.3515   32.5911   47.0928 H   0  0  0  0  0  0  0  0  0  0  0  0
   60.7995   30.0361   44.8885 H   0  0  0  0  0  0  0  0  0  0  0  0
   61.4281   27.7545   45.7041 H   0  0  0  0  0  0  0  0  0  0  0  0
   60.1698   26.7409   47.6150 H   0  0  0  0  0  0  0  0  0  0  0  0
   57.6950   30.1993   47.9047 H   0  0  0  0  0  0  0  0  0  0  0  0
  1  2  1  0
  2  3  1  0
  3  4  1  0
  4  5  2  0
  4  6  1  0
  6  7  1  0
  7  8  2  0
  7  9  2  0
  7 10  1  0
 10 11  2  0
 11 12  1  0
 12 13  2  0
 13 14  1  0
 14 15  2  0
 15 16  1  0
 16 17  2  0
 17 18  1  0
 18 19  2  0
 19 20  1  0
 20 21  2  0
 15 10  1  0
 21 16  1  0
  1 22  1  0
  1 23  1  0
  1 24  1  0
  2 25  1  0
  2 26  1  0
  3 27  1  0
 11 28  1  0
 12 29  1  0
 13 30  1  0
 14 31  1  0
 17 32  1  0
 18 33  1  0
 19 34  1  0
 21 35  1  0
M  CHG  1   6  -1
M  END
>  <UniqueID>  (45) 
44

>  <SMILES>  (45) 
CCNC(=O)[N-]S(=O)(=O)c1ccccc1-c1cccnc1

>  <Energy>  (45) 
41.11127416656929

>  <Genealogy>  (45) 
CCNC(=O)[N-]S(=O)(=O)c1ccccc1-c1cccnc1 (protonated)
CCNC(=O)[N-]S(=O)(=O)c1ccccc1-c1cccnc1 (3D coordinates assigned)
CCNC(=O)[N-]S(=O)(=O)c1ccccc1-c1cccnc1 (optimized conformer: 41.11127416656929 kcal/mol)

>  <smiles>  (45) 
CCNC(=O)NS(=O)(=O)c1ccccc1-c1cccnc1

>  <score_type>  (45) 
oracle

>  <origin>  (45) 
adg

>  <m_score__min__energy>  (45) 
-8.9399999999999995

>  <m_primary>  (45) 
energy

$$$$
46:0
     RDKit          3D

 39 40  0  0  0  0  0  0  0  0999 V2000
   60.5622   28.8090   47.0938 H   0  0  0  0  0  0  0  0  0  0  0  0
   60.1960   29.7690   46.7010 C   0  0  0  0  0  0  0  0  0  0  0  0
   60.9660   30.8530   46.8670 C   0  0  0  0  0  0  0  0  0  0  0  0
   61.9294   30.8858   46.3371 H   0  0  0  0  0  0  0  0  0  0  0  0
   60.6050   32.0060   47.7150 C   0  0  0  0  0  0  0  0  0  0  0  0
   61.3090   33.2230   47.6470 C   0  0  0  0  0  0  0  0  0  0  0  0
   62.3700   33.3690   46.7450 O   0  0  0  0  0  0  0  0  0  0  0  0
   63.7310   33.3940   47.1560 C   0  0  0  0  0  0  0  0  0  0  0  0
   63.7822   33.3949   48.2548 H   0  0  0  0  0  0  0  0  0  0  0  0
   64.2483   32.5052   46.7656 H   0  0  0  0  0  0  0  0  0  0  0  0
   64.2153   34.3012   46.7656 H   0  0  0  0  0  0  0  0  0  0  0  0
   60.9640   34.2490   48.4750 N   0  0  0  0  0  0  0  0  0  0  0  0
   59.9610   34.1340   49.3860 C   0  0  0  0  0  0  0  0  0  0  0  0
   59.7017   34.9875   50.0296 H   0  0  0  0  0  0  0  0  0  0  0  0
   59.2610   32.9330   49.5040 C   0  0  0  0  0  0  0  0  0  0  0  0
   58.4557   32.8303   50.2462 H   0  0  0  0  0  0  0  0  0  0  0  0
   59.5920   31.8640   48.6720 C   0  0  0  0  0  0  0  0  0  0  0  0
   59.0568   30.9077   48.7674 H   0  0  0  0  0  0  0  0  0  0  0  0
   58.8850   29.7870   46.0220 C   0  0  0  0  0  0  0  0  0  0  0  0
   58.0438   30.3319   46.4754 H   0  0  0  0  0  0  0  0  0  0  0  0
   58.7110   29.1470   44.8610 C   0  0  0  0  0  0  0  0  0  0  0  0
   59.3247   28.2612   44.6403 H   0  0  0  0  0  0  0  0  0  0  0  0
   57.7000   29.6060   43.8510 C   0  0  0  0  0  0  0  0  0  0  0  0
   58.1493   30.3957   43.2310 H   0  0  0  0  0  0  0  0  0  0  0  0
   57.4106   28.7393   43.2386 H   0  0  0  0  0  0  0  0  0  0  0  0
   56.4650   30.1470   44.5060 C   0  0  0  0  0  0  0  0  0  0  0  0
   55.5750   29.3420   44.8930 O   0  0  0  0  0  0  0  0  0  0  0  0
   56.2590   31.5320   44.5640 O   0  0  0  0  0  0  0  0  0  0  0  0
   57.2260   32.4950   44.8970 C   0  0  0  0  0  0  0  0  0  0  0  0
   57.1310   33.1210   46.1460 C   0  0  0  0  0  0  0  0  0  0  0  0
   56.3238   32.8391   46.8380 H   0  0  0  0  0  0  0  0  0  0  0  0
   58.0550   34.1020   46.5200 C   0  0  0  0  0  0  0  0  0  0  0  0
   57.9761   34.5841   47.5056 H   0  0  0  0  0  0  0  0  0  0  0  0
   59.0780   34.4700   45.6430 C   0  0  0  0  0  0  0  0  0  0  0  0
   59.8076   35.2378   45.9398 H   0  0  0  0  0  0  0  0  0  0  0  0
   59.1740   33.8620   44.3880 C   0  0  0  0  0  0  0  0  0  0  0  0
   59.9760   34.1564   43.6951 H   0  0  0  0  0  0  0  0  0  0  0  0
   58.2520   32.8800   44.0120 C   0  0  0  0  0  0  0  0  0  0  0  0
   58.3283   32.4067   43.0219 H   0  0  0  0  0  0  0  0  0  0  0  0
  1  2  1  0
  2  3  2  0
  3  4  1  0
  3  5  1  0
  5  6  2  0
  6  7  1  0
  7  8  1  0
  8  9  1  0
  8 10  1  0
  8 11  1  0
  6 12  1  0
 12 13  2  0
 13 14  1  0
 13 15  1  0
 15 16  1  0
 15 17  2  0
 17 18  1  0
  2 19  1  0
 19 20  1  0
 19 21  2  0
 21 22  1  0
 21 23  1  0
 23 24  1  0
 23 25  1  0
 23 26  1  0
 26 27  2  0
 26 28  1  0
 28 29  1  0
 29 30  2  0
 30 31  1  0
 30 32  1  0
 32 33  1  0
 32 34  2  0
 34 35  1  0
 34 36  1  0
 36 37  1  0
 36 38  2  0
 38 39  1  0
 17  5  1  0
 38 29  1  0
M  END
>  <UniqueID>  (46) 
45

>  <SMILES>  (46) 
COc1ncccc1C=C/C=C/CC(=O)Oc1ccccc1

>  <Energy>  (46) 
42.659971867967045

>  <Genealogy>  (46) 
COc1ncccc1C=C/C=C/CC(=O)Oc1ccccc1 (cis-trans isomerization)
COc1ncccc1C=C/C=C/CC(=O)Oc1ccccc1 (3D coordinates assigned)
COc1ncccc1C=C/C=C/CC(=O)Oc1ccccc1 (optimized conformer: 42.659971867967045 kcal/mol)

>  <smiles>  (46) 
COc1ncccc1C=CC=CCC(=O)Oc1ccccc1

>  <score_type>  (46) 
oracle

>  <origin>  (46) 
adg

>  <m_score__min__energy>  (46) 
-6.7199999999999998

>  <m_primary>  (46) 
energy

$$$$
