0:0
     RDKit          3D

 61 63  0  0  0  0  0  0  0  0999 V2000
   59.3270   33.2650   51.1190 C   0  0  0  0  0  0  0  0  0  0  0  0
   59.8030   34.1880   50.0030 C   0  0  0  0  0  0  0  0  0  0  0  0
   60.2070   33.4340   48.8600 O   0  0  0  0  0  0  0  0  0  0  0  0
   59.7090   33.5650   47.5490 C   0  0  0  0  0  0  0  0  0  0  0  0
   59.6400   34.8260   46.9350 C   0  0  0  0  0  0  0  0  0  0  0  0
   59.2250   34.9500   45.6180 C   0  0  0  0  0  0  0  0  0  0  0  0
   58.8510   33.8290   44.8890 C   0  0  0  0  0  0  0  0  0  0  0  0
   58.8490   32.5400   45.4750 C   0  0  0  0  0  0  0  0  0  0  0  0
   59.3040   32.4060   46.8200 C   0  0  0  0  0  0  0  0  0  0  0  0
   59.3510   31.1110   47.3880 C   0  0  0  0  0  0  0  0  0  0  0  0
   59.6610   30.9220   48.7760 N   0  0  0  0  0  0  0  0  0  0  0  0
   60.7150   29.9930   49.1760 C   0  0  0  0  0  0  0  0  0  0  0  0
   61.4610   30.5130   50.4010 C   0  0  0  0  0  0  0  0  0  0  0  0
   62.7240   31.0020   49.9990 O   0  0  0  0  0  0  0  0  0  0  0  0
   63.1550   32.0370   50.8640 C   0  0  0  0  0  0  0  0  0  0  0  0
   63.3580   33.3540   50.0920 C   0  0  0  0  0  0  0  0  0  0  0  0
   62.6800   33.3530   48.7710 N   0  0  0  0  0  0  0  0  0  0  0  0
   63.5530   33.0570   47.6090 C   0  0  0  0  0  0  0  0  0  0  0  0
   63.3560   34.0540   46.4530 C   0  0  0  0  0  0  0  0  0  0  0  0
   63.4200   31.6050   47.1260 C   0  0  0  0  0  0  0  0  0  0  0  0
   59.1140   29.9860   46.5830 C   0  0  0  0  0  0  0  0  0  0  0  0
   59.2940   28.6810   47.0940 C   0  0  0  0  0  0  0  0  0  0  0  0
   59.1110   27.5670   46.2780 C   0  0  0  0  0  0  0  0  0  0  0  0
   58.7540   27.7310   44.9450 C   0  0  0  0  0  0  0  0  0  0  0  0
   58.5510   29.0100   44.4250 C   0  0  0  0  0  0  0  0  0  0  0  0
   58.6920   30.1620   45.2420 C   0  0  0  0  0  0  0  0  0  0  0  0
   58.4340   31.4300   44.7610 N   0  0  0  0  0  0  0  0  0  0  0  0
   57.6890   31.6000   43.4930 C   0  0  0  0  0  0  0  0  0  0  0  0
   59.5605   33.7178   52.0939 H   0  0  0  0  0  0  0  0  0  0  0  0
   58.2403   33.1173   51.0342 H   0  0  0  0  0  0  0  0  0  0  0  0
   59.8368   32.2939   51.0342 H   0  0  0  0  0  0  0  0  0  0  0  0
   58.9823   34.8629   49.7183 H   0  0  0  0  0  0  0  0  0  0  0  0
   60.6651   34.7663   50.3670 H   0  0  0  0  0  0  0  0  0  0  0  0
   59.9181   35.7248   47.5049 H   0  0  0  0  0  0  0  0  0  0  0  0
   59.1918   35.9436   45.1472 H   0  0  0  0  0  0  0  0  0  0  0  0
   58.5508   33.9444   43.8371 H   0  0  0  0  0  0  0  0  0  0  0  0
   59.1350   31.4810   49.4870 H   0  0  0  0  0  0  0  0  0  0  0  0
   60.2647   29.0183   49.4151 H   0  0  0  0  0  0  0  0  0  0  0  0
   61.4292   29.8921   48.3455 H   0  0  0  0  0  0  0  0  0  0  0  0
   60.8831   31.3245   50.8674 H   0  0  0  0  0  0  0  0  0  0  0  0
   61.5930   29.6985   51.1284 H   0  0  0  0  0  0  0  0  0  0  0  0
   62.3965   32.1916   51.6455 H   0  0  0  0  0  0  0  0  0  0  0  0
   64.1155   31.7419   51.3115 H   0  0  0  0  0  0  0  0  0  0  0  0
   62.9542   34.1811   50.6944 H   0  0  0  0  0  0  0  0  0  0  0  0
   64.4368   33.4714   49.9122 H   0  0  0  0  0  0  0  0  0  0  0  0
   61.9190   32.6320   48.7910 H   0  0  0  0  0  0  0  0  0  0  0  0
   62.1990   34.2670   48.5960 H   0  0  0  0  0  0  0  0  0  0  0  0
   64.5840   33.1828   47.9711 H   0  0  0  0  0  0  0  0  0  0  0  0
   63.1581   35.0556   46.8624 H   0  0  0  0  0  0  0  0  0  0  0  0
   64.2657   34.0835   45.8352 H   0  0  0  0  0  0  0  0  0  0  0  0
   62.5035   33.7353   45.8352 H   0  0  0  0  0  0  0  0  0  0  0  0
   63.3585   30.9336   47.9952 H   0  0  0  0  0  0  0  0  0  0  0  0
   62.5087   31.5027   46.5185 H   0  0  0  0  0  0  0  0  0  0  0  0
   64.2975   31.3388   46.5185 H   0  0  0  0  0  0  0  0  0  0  0  0
   59.5815   28.5434   48.1468 H   0  0  0  0  0  0  0  0  0  0  0  0
   59.2492   26.5562   46.6893 H   0  0  0  0  0  0  0  0  0  0  0  0
   58.6311   26.8500   44.2978 H   0  0  0  0  0  0  0  0  0  0  0  0
   58.2776   29.1271   43.3660 H   0  0  0  0  0  0  0  0  0  0  0  0
   56.6385   31.8397   43.7143 H   0  0  0  0  0  0  0  0  0  0  0  0
   58.1373   32.4189   42.9113 H   0  0  0  0  0  0  0  0  0  0  0  0
   57.7377   30.6677   42.9113 H   0  0  0  0  0  0  0  0  0  0  0  0
  1  2  1  0
  2  3  1  0
  3  4  1  0
  4  5  2  0
  5  6  1  0
  6  7  2  0
  7  8  1  0
  8  9  2  0
  9 10  1  0
 10 11  1  0
 11 12  1  0
 12 13  1  0
 13 14  1  0
 14 15  1  0
 15 16  1  0
 16 17  1  0
 17 18  1  0
 18 19  1  0
 18 20  1  0
 10 21  2  0
 21 22  1  0
 22 23  2  0
 23 24  1  0
 24 25  2  0
 25 26  1  0
 26 27  2  0
 27 28  1  0
  9  4  1  0
 26 21  1  0
 27  8  1  0
  1 29  1  0
  1 30  1  0
  1 31  1  0
  2 32  1  0
  2 33  1  0
  5 34  1  0
  6 35  1  0
  7 36  1  0
 11 37  1  0
 12 38  1  0
 12 39  1  0
 13 40  1  0
 13 41  1  0
 15 42  1  0
 15 43  1  0
 16 44  1  0
 16 45  1  0
 17 46  1  0
 17 47  1  0
 18 48  1  0
 19 49  1  0
 19 50  1  0
 19 51  1  0
 20 52  1  0
 20 53  1  0
 20 54  1  0
 22 55  1  0
 23 56  1  0
 24 57  1  0
 25 58  1  0
 28 59  1  0
 28 60  1  0
 28 61  1  0
M  CHG  2  17   1  27   1
M  END
>  <UniqueID>  (1) 
1

>  <SMILES>  (1) 
CCOc1cccc2c1c(NCCOCC[NH2+]C(C)C)c1ccccc1[n+]2C

>  <Energy>  (1) 
88.14798864827215

>  <Genealogy>  (1) 
CCOc1cccc2c1c(NCCOCC[NH2+]C(C)C)c1ccccc1[n+]2C (protonated)
CCOc1cccc2c1c(NCCOCC[NH2+]C(C)C)c1ccccc1[n+]2C (3D coordinates assigned)
CCOc1cccc2c1c(NCCOCC[NH2+]C(C)C)c1ccccc1[n+]2C (optimized conformer: 88.14798864827215 kcal/mol)

>  <smiles>  (1) 
CCOc1cccc2c1c(NCCOCCNC(C)C)c1ccccc1[n+]2C

>  <score_type>  (1) 
oracle

>  <origin>  (1) 
adg

>  <m_score__min__energy>  (1) 
-3.6899999999999999

>  <m_primary>  (1) 
energy

$$$$
1:0
     RDKit          3D

 41 41  0  0  0  0  0  0  0  0999 V2000
   54.6780   22.8200   46.4920 C   0  0  0  0  0  0  0  0  0  0  0  0
   55.4970   23.2110   45.2970 C   0  0  0  0  0  0  0  0  0  0  0  0
   55.5760   22.3410   44.2520 N   0  0  0  0  0  0  0  0  0  0  0  0
   56.2960   22.6160   43.1330 C   0  0  0  0  0  0  0  0  0  0  0  0
   56.9870   23.8220   43.0270 C   0  0  0  0  0  0  0  0  0  0  0  0
   56.9260   24.7390   44.0740 C   0  0  0  0  0  0  0  0  0  0  0  0
   56.1710   24.4540   45.2240 C   0  0  0  0  0  0  0  0  0  0  0  0
   56.1710   25.4350   46.3730 C   0  0  0  0  0  0  0  0  0  0  0  0
   55.5340   26.6780   45.9580 N   0  0  0  0  0  0  0  0  0  0  0  0
   56.2670   27.8470   45.5860 C   0  0  0  0  0  0  0  0  0  0  0  0
   57.5270   27.8550   45.6440 O   0  0  0  0  0  0  0  0  0  0  0  0
   55.5530   29.0170   45.1810 N   0  0  0  0  0  0  0  0  0  0  0  0
   55.7350   29.6880   43.8960 C   0  0  0  0  0  0  0  0  0  0  0  0
   56.7450   30.8470   43.9860 C   0  0  0  0  0  0  0  0  0  0  0  0
   57.3020   30.9850   45.3390 N   0  0  0  0  0  0  0  0  0  0  0  0
   58.6290   31.6210   45.3270 C   0  0  0  0  0  0  0  0  0  0  0  0
   58.5490   33.0720   45.8420 C   0  0  0  0  0  0  0  0  0  0  0  0
   57.9770   33.1450   47.2640 C   0  0  0  0  0  0  0  0  0  0  0  0
   57.7410   33.9590   44.8870 C   0  0  0  0  0  0  0  0  0  0  0  0
   55.2232   23.0803   47.4112 H   0  0  0  0  0  0  0  0  0  0  0  0
   53.7183   23.3571   46.4704 H   0  0  0  0  0  0  0  0  0  0  0  0
   54.4922   21.7360   46.4704 H   0  0  0  0  0  0  0  0  0  0  0  0
   56.3336   21.8867   42.3104 H   0  0  0  0  0  0  0  0  0  0  0  0
   57.5749   24.0475   42.1251 H   0  0  0  0  0  0  0  0  0  0  0  0
   57.4718   25.6912   43.9999 H   0  0  0  0  0  0  0  0  0  0  0  0
   55.6168   25.0054   47.2205 H   0  0  0  0  0  0  0  0  0  0  0  0
   57.2082   25.6409   46.6760 H   0  0  0  0  0  0  0  0  0  0  0  0
   56.1006   28.9551   43.1617 H   0  0  0  0  0  0  0  0  0  0  0  0
   54.7644   30.1071   43.5921 H   0  0  0  0  0  0  0  0  0  0  0  0
   57.5674   30.6575   43.2805 H   0  0  0  0  0  0  0  0  0  0  0  0
   56.2167   31.7795   43.7382 H   0  0  0  0  0  0  0  0  0  0  0  0
   57.4130   30.0200   45.7310 H   0  0  0  0  0  0  0  0  0  0  0  0
   59.3094   31.0467   45.9730 H   0  0  0  0  0  0  0  0  0  0  0  0
   59.0021   31.6356   44.2923 H   0  0  0  0  0  0  0  0  0  0  0  0
   59.5795   33.4551   45.8786 H   0  0  0  0  0  0  0  0  0  0  0  0
   58.7937   33.0408   47.9935 H   0  0  0  0  0  0  0  0  0  0  0  0
   57.4774   34.1142   47.4089 H   0  0  0  0  0  0  0  0  0  0  0  0
   57.2499   32.3324   47.4089 H   0  0  0  0  0  0  0  0  0  0  0  0
   57.1129   34.6485   45.4701 H   0  0  0  0  0  0  0  0  0  0  0  0
   58.4292   34.5372   44.2529 H   0  0  0  0  0  0  0  0  0  0  0  0
   57.1013   33.3275   44.2529 H   0  0  0  0  0  0  0  0  0  0  0  0
  1  2  1  0
  2  3  2  0
  3  4  1  0
  4  5  2  0
  5  6  1  0
  6  7  2  0
  7  8  1  0
  8  9  1  0
  9 10  1  0
 10 11  2  0
 10 12  1  0
 12 13  1  0
 13 14  1  0
 14 15  1  0
 15 16  1  0
 16 17  1  0
 17 18  1  0
 17 19  1  0
  7  2  1  0
  1 20  1  0
  1 21  1  0
  1 22  1  0
  4 23  1  0
  5 24  1  0
  6 25  1  0
  8 26  1  0
  8 27  1  0
 13 28  1  0
 13 29  1  0
 14 30  1  0
 14 31  1  0
 15 32  1  0
 16 33  1  0
 16 34  1  0
 17 35  1  0
 18 36  1  0
 18 37  1  0
 18 38  1  0
 19 39  1  0
 19 40  1  0
 19 41  1  0
M  CHG  2   9  -1  12  -1
M  END
>  <UniqueID>  (2) 
2

>  <SMILES>  (2) 
Cc1ncccc1C[N-]C(=O)[N-]CCNCC(C)C

>  <Energy>  (2) 
25.72333860796846

>  <Genealogy>  (2) 
Cc1ncccc1C[N-]C(=O)[N-]CCNCC(C)C (protonated)
Cc1ncccc1C[N-]C(=O)[N-]CCNCC(C)C (3D coordinates assigned)
Cc1ncccc1C[N-]C(=O)[N-]CCNCC(C)C (optimized conformer: 25.72333860796846 kcal/mol)

>  <smiles>  (2) 
Cc1ncccc1CNC(=O)NCCNCC(C)C

>  <score_type>  (2) 
oracle

>  <origin>  (2) 
adg

>  <m_score__min__energy>  (2) 
-10.380000000000001

>  <m_primary>  (2) 
energy

$$$$
2:0
     RDKit          3D

 76 79  0  0  0  0  0  0  0  0999 V2000
   56.8370   31.9320   52.0330 C   0  0  0  0  0  0  0  0  0  0  0  0
   58.0960   32.6470   52.5060 C   0  0  0  0  0  0  0  0  0  0  0  0
   59.0280   32.8150   51.3820 N   0  0  0  0  0  0  0  0  0  0  0  0
   58.4970   32.2420   50.1280 C   0  0  2  0  0  0  0  0  0  0  0  0
   58.9100   30.7600   49.9520 C   0  0  0  0  0  0  0  0  0  0  0  0
   60.0330   30.4040   50.8390 N   0  0  0  0  0  0  0  0  0  0  0  0
   61.0080   29.4870   50.2240 C   0  0  0  0  0  0  0  0  0  0  0  0
   60.7650   29.2830   48.7480 C   0  0  0  0  0  0  0  0  0  0  0  0
   60.2290   28.0740   48.2800 C   0  0  0  0  0  0  0  0  0  0  0  0
   59.9800   27.8930   46.9180 C   0  0  0  0  0  0  0  0  0  0  0  0
   60.2510   28.9230   46.0000 C   0  0  0  0  0  0  0  0  0  0  0  0
   59.9410   28.7400   44.5270 C   0  0  0  0  0  0  0  0  0  0  0  0
   58.4890   28.6600   44.2340 N   0  0  0  0  0  0  0  0  0  0  0  0
   58.0320   27.2610   44.0730 C   0  0  0  0  0  0  0  0  0  0  0  0
   58.1120   26.7970   42.6210 C   0  0  0  0  0  0  0  0  0  0  0  0
   57.6770   29.4360   45.2000 C   0  0  0  0  0  0  0  0  0  0  0  0
   57.8160   30.9150   44.9480 C   0  0  0  0  0  0  0  0  0  0  0  0
   57.8650   31.4090   43.6320 C   0  0  0  0  0  0  0  0  0  0  0  0
   58.0070   32.7790   43.3980 C   0  0  0  0  0  0  0  0  0  0  0  0
   58.1220   33.6640   44.4720 C   0  0  0  0  0  0  0  0  0  0  0  0
   58.0990   33.1800   45.7830 C   0  0  0  0  0  0  0  0  0  0  0  0
   57.9550   31.8090   46.0220 C   0  0  0  0  0  0  0  0  0  0  0  0
   60.8110   30.1240   46.4670 C   0  0  0  0  0  0  0  0  0  0  0  0
   61.0670   30.3020   47.8290 C   0  0  0  0  0  0  0  0  0  0  0  0
   58.9220   33.1090   48.9120 C   0  0  0  0  0  0  0  0  0  0  0  0
   59.9700   34.1130   49.1980 N   0  0  0  0  0  0  0  0  0  0  0  0
   61.2740   33.7060   48.7190 C   0  0  0  0  0  0  0  0  0  0  0  0
   61.6300   33.9500   47.3770 C   0  0  0  0  0  0  0  0  0  0  0  0
   62.8950   33.6040   46.8980 C   0  0  0  0  0  0  0  0  0  0  0  0
   63.2240   33.8670   45.6110 F   0  0  0  0  0  0  0  0  0  0  0  0
   63.8300   33.0060   47.7450 C   0  0  0  0  0  0  0  0  0  0  0  0
   63.5000   32.7460   49.0810 C   0  0  0  0  0  0  0  0  0  0  0  0
   64.4330   32.1730   49.9540 C   0  0  0  0  0  0  0  0  0  0  0  0
   64.0850   31.9310   51.2850 C   0  0  0  0  0  0  0  0  0  0  0  0
   62.8030   32.2590   51.7280 C   0  0  0  0  0  0  0  0  0  0  0  0
   61.9080   32.8180   50.8730 N   0  0  0  0  0  0  0  0  0  0  0  0
   62.2140   33.0780   49.5710 C   0  0  0  0  0  0  0  0  0  0  0  0
   56.2539   31.6008   52.9050 H   0  0  0  0  0  0  0  0  0  0  0  0
   56.2304   32.6204   51.4262 H   0  0  0  0  0  0  0  0  0  0  0  0
   57.1175   31.0584   51.4262 H   0  0  0  0  0  0  0  0  0  0  0  0
   57.8256   33.6352   52.9065 H   0  0  0  0  0  0  0  0  0  0  0  0
   58.5798   32.0473   53.2911 H   0  0  0  0  0  0  0  0  0  0  0  0
   59.9420   32.3720   51.6500 H   0  0  0  0  0  0  0  0  0  0  0  0
   57.3986   32.2552   50.1866 H   0  0  0  0  0  0  0  0  0  0  0  0
   58.0490   30.1181   50.1899 H   0  0  0  0  0  0  0  0  0  0  0  0
   59.2319   30.6123   48.9106 H   0  0  0  0  0  0  0  0  0  0  0  0
   60.5300   31.2820   51.1190 H   0  0  0  0  0  0  0  0  0  0  0  0
   62.0171   29.9031   50.3603 H   0  0  0  0  0  0  0  0  0  0  0  0
   60.9013   28.5093   50.7166 H   0  0  0  0  0  0  0  0  0  0  0  0
   60.0037   27.2643   48.9897 H   0  0  0  0  0  0  0  0  0  0  0  0
   59.5687   26.9374   46.5605 H   0  0  0  0  0  0  0  0  0  0  0  0
   60.3614   29.5929   43.9740 H   0  0  0  0  0  0  0  0  0  0  0  0
   60.3868   27.7828   44.2188 H   0  0  0  0  0  0  0  0  0  0  0  0
   58.6656   26.6071   44.6902 H   0  0  0  0  0  0  0  0  0  0  0  0
   56.9797   27.2088   44.3890 H   0  0  0  0  0  0  0  0  0  0  0  0
   58.2988   25.7134   42.5921 H   0  0  0  0  0  0  0  0  0  0  0  0
   57.1623   27.0190   42.1123 H   0  0  0  0  0  0  0  0  0  0  0  0
   58.9325   27.3242   42.1123 H   0  0  0  0  0  0  0  0  0  0  0  0
   56.6201   29.1498   45.0948 H   0  0  0  0  0  0  0  0  0  0  0  0
   58.0333   29.2163   46.2173 H   0  0  0  0  0  0  0  0  0  0  0  0
   57.7912   30.7134   42.7831 H   0  0  0  0  0  0  0  0  0  0  0  0
   58.0282   33.1609   42.3666 H   0  0  0  0  0  0  0  0  0  0  0  0
   58.2308   34.7427   44.2861 H   0  0  0  0  0  0  0  0  0  0  0  0
   58.1942   33.8779   46.6279 H   0  0  0  0  0  0  0  0  0  0  0  0
   57.9507   31.4301   47.0547 H   0  0  0  0  0  0  0  0  0  0  0  0
   61.0493   30.9289   45.7561 H   0  0  0  0  0  0  0  0  0  0  0  0
   61.5075   31.2454   48.1838 H   0  0  0  0  0  0  0  0  0  0  0  0
   59.2987   32.4360   48.1277 H   0  0  0  0  0  0  0  0  0  0  0  0
   58.0282   33.6742   48.6090 H   0  0  0  0  0  0  0  0  0  0  0  0
   60.0340   34.2210   50.2380 H   0  0  0  0  0  0  0  0  0  0  0  0
   59.6960   35.0540   48.8370 H   0  0  0  0  0  0  0  0  0  0  0  0
   60.9020   34.4189   46.6987 H   0  0  0  0  0  0  0  0  0  0  0  0
   64.8263   32.7389   47.3628 H   0  0  0  0  0  0  0  0  0  0  0  0
   65.4389   31.9137   49.5920 H   0  0  0  0  0  0  0  0  0  0  0  0
   64.8147   31.4860   51.9775 H   0  0  0  0  0  0  0  0  0  0  0  0
   62.5167   32.0643   52.7721 H   0  0  0  0  0  0  0  0  0  0  0  0
  1  2  1  0
  2  3  1  0
  3  4  1  0
  4  5  1  0
  5  6  1  0
  6  7  1  0
  7  8  1  0
  8  9  2  0
  9 10  1  0
 10 11  2  0
 11 12  1  0
 12 13  1  0
 13 14  1  0
 14 15  1  0
 13 16  1  0
 16 17  1  0
 17 18  2  0
 18 19  1  0
 19 20  2  0
 20 21  1  0
 21 22  2  0
 11 23  1  0
 23 24  2  0
  4 25  1  0
 25 26  1  0
 26 27  1  0
 27 28  2  0
 28 29  1  0
 29 30  1  0
 29 31  2  0
 31 32  1  0
 32 33  2  0
 33 34  1  0
 34 35  2  0
 35 36  1  0
 36 37  2  0
 24  8  1  0
 37 27  1  0
 22 17  1  0
 37 32  1  0
  1 38  1  0
  1 39  1  0
  1 40  1  0
  2 41  1  0
  2 42  1  0
  3 43  1  0
  4 44  1  1
  5 45  1  0
  5 46  1  0
  6 47  1  0
  7 48  1  0
  7 49  1  0
  9 50  1  0
 10 51  1  0
 12 52  1  0
 12 53  1  0
 14 54  1  0
 14 55  1  0
 15 56  1  0
 15 57  1  0
 15 58  1  0
 16 59  1  0
 16 60  1  0
 18 61  1  0
 19 62  1  0
 20 63  1  0
 21 64  1  0
 22 65  1  0
 23 66  1  0
 24 67  1  0
 25 68  1  0
 25 69  1  0
 26 70  1  0
 26 71  1  0
 28 72  1  0
 31 73  1  0
 33 74  1  0
 34 75  1  0
 35 76  1  0
M  CHG  1  26   1
M  END
>  <UniqueID>  (3) 
3

>  <SMILES>  (3) 
CCN[C@H](CNCc1ccc(CN(CC)Cc2ccccc2)cc1)C[NH2+]c1cc(F)cc2cccnc12

>  <Energy>  (3) 
85.69485652251684

>  <Genealogy>  (3) 
CCNC(CNCc1ccc(CN(CC)Cc2ccccc2)cc1)C[NH2+]c1cc(F)cc2cccnc12 (protonated)
CCN[C@H](CNCc1ccc(CN(CC)Cc2ccccc2)cc1)C[NH2+]c1cc(F)cc2cccnc12 (chirality)
CCN[C@H](CNCc1ccc(CN(CC)Cc2ccccc2)cc1)C[NH2+]c1cc(F)cc2cccnc12 (3D coordinates assigned)
CCN[C@H](CNCc1ccc(CN(CC)Cc2ccccc2)cc1)C[NH2+]c1cc(F)cc2cccnc12 (optimized conformer: 85.69485652251684 kcal/mol)

>  <smiles>  (3) 
CCNC(CNCc1ccc(CN(CC)Cc2ccccc2)cc1)CNc1cc(F)cc2cccnc12

>  <score_type>  (3) 
oracle

>  <origin>  (3) 
adg

>  <m_score__min__energy>  (3) 
-6.9699999999999998

>  <m_primary>  (3) 
energy

$$$$
3:0
     RDKit          3D

 73 76  0  0  0  0  0  0  0  0999 V2000
   60.8040   28.8560   45.2450 C   0  0  0  0  0  0  0  0  0  0  0  0
   60.5220   29.8000   46.4070 C   0  0  0  0  0  0  0  0  0  0  0  0
   59.0740   29.9250   46.6340 N   0  0  0  0  0  0  0  0  0  0  0  0
   58.5390   29.7630   47.9910 C   0  0  0  0  0  0  0  0  0  0  0  0
   59.6500   30.0070   49.0250 C   0  0  0  0  0  0  0  0  0  0  0  0
   59.4590   31.2560   49.7870 N   0  0  0  0  0  0  0  0  0  0  0  0
   60.1750   32.3950   49.2160 C   0  0  0  0  0  0  0  0  0  0  0  0
   59.6960   33.0030   48.0330 C   0  0  0  0  0  0  0  0  0  0  0  0
   58.3150   33.0410   47.7300 C   0  0  0  0  0  0  0  0  0  0  0  0
   57.8610   33.6440   46.5600 C   0  0  0  0  0  0  0  0  0  0  0  0
   58.7620   34.2340   45.6830 C   0  0  0  0  0  0  0  0  0  0  0  0
   60.1260   34.2250   45.9690 C   0  0  0  0  0  0  0  0  0  0  0  0
   60.6210   33.6020   47.1430 C   0  0  0  0  0  0  0  0  0  0  0  0
   61.9680   33.5660   47.4310 N   0  0  0  0  0  0  0  0  0  0  0  0
   62.9610   33.8230   46.3650 C   0  0  0  0  0  0  0  0  0  0  0  0
   62.3810   33.3120   48.7260 C   0  0  0  0  0  0  0  0  0  0  0  0
   63.7090   33.5760   49.1340 C   0  0  0  0  0  0  0  0  0  0  0  0
   64.1200   33.3330   50.4370 C   0  0  0  0  0  0  0  0  0  0  0  0
   63.2120   32.8910   51.3860 C   0  0  0  0  0  0  0  0  0  0  0  0
   61.8710   32.6490   51.0440 C   0  0  0  0  0  0  0  0  0  0  0  0
   60.9050   32.4420   52.0960 N   0  0  0  0  0  0  0  0  0  0  0  0
   60.4980   33.4990   53.0280 C   0  0  0  0  0  0  0  0  0  0  0  0
   58.9860   33.4570   53.3030 C   0  0  0  0  0  0  0  0  0  0  0  0
   58.1610   33.0410   52.0740 C   0  0  0  0  0  0  0  0  0  0  0  0
   58.0370   31.5680   51.9640 N   0  0  0  0  0  0  0  0  0  0  0  0
   56.6540   31.1960   51.6270 C   0  0  0  0  0  0  0  0  0  0  0  0
   58.4250   30.9040   53.2220 C   0  0  0  0  0  0  0  0  0  0  0  0
   61.4620   32.7850   49.6810 C   0  0  0  0  0  0  0  0  0  0  0  0
   58.1690   30.0850   45.5240 C   0  0  0  0  0  0  0  0  0  0  0  0
   57.0600   29.2320   45.3920 C   0  0  0  0  0  0  0  0  0  0  0  0
   56.1760   29.3850   44.3200 C   0  0  0  0  0  0  0  0  0  0  0  0
   56.3910   30.3890   43.3720 C   0  0  0  0  0  0  0  0  0  0  0  0
   57.4900   31.2430   43.4960 C   0  0  0  0  0  0  0  0  0  0  0  0
   58.3760   31.0940   44.5680 C   0  0  0  0  0  0  0  0  0  0  0  0
   61.0983   27.8709   45.6360 H   0  0  0  0  0  0  0  0  0  0  0  0
   59.8981   28.7507   44.6300 H   0  0  0  0  0  0  0  0  0  0  0  0
   61.6192   29.2648   44.6300 H   0  0  0  0  0  0  0  0  0  0  0  0
   60.9976   29.4052   47.3169 H   0  0  0  0  0  0  0  0  0  0  0  0
   60.9294   30.7925   46.1640 H   0  0  0  0  0  0  0  0  0  0  0  0
   57.7264   30.4869   48.1513 H   0  0  0  0  0  0  0  0  0  0  0  0
   58.1541   28.7392   48.1083 H   0  0  0  0  0  0  0  0  0  0  0  0
   59.6642   29.1635   49.7309 H   0  0  0  0  0  0  0  0  0  0  0  0
   60.5990   30.0964   48.4760 H   0  0  0  0  0  0  0  0  0  0  0  0
   58.4270   31.4170   49.7870 H   0  0  0  0  0  0  0  0  0  0  0  0
   59.7190   31.1130   50.7850 H   0  0  0  0  0  0  0  0  0  0  0  0
   57.5923   32.5896   48.4257 H   0  0  0  0  0  0  0  0  0  0  0  0
   56.7855   33.6531   46.3295 H   0  0  0  0  0  0  0  0  0  0  0  0
   58.3981   34.7096   44.7603 H   0  0  0  0  0  0  0  0  0  0  0  0
   60.8288   34.7080   45.2742 H   0  0  0  0  0  0  0  0  0  0  0  0
   63.9306   34.0739   46.8199 H   0  0  0  0  0  0  0  0  0  0  0  0
   63.0704   32.9236   45.7412 H   0  0  0  0  0  0  0  0  0  0  0  0
   62.6203   34.6626   45.7412 H   0  0  0  0  0  0  0  0  0  0  0  0
   64.4281   33.9806   48.4065 H   0  0  0  0  0  0  0  0  0  0  0  0
   65.1716   33.4920   50.7179 H   0  0  0  0  0  0  0  0  0  0  0  0
   63.5458   32.7274   52.4213 H   0  0  0  0  0  0  0  0  0  0  0  0
   60.2350   31.6520   51.9630 H   0  0  0  0  0  0  0  0  0  0  0  0
   61.0377   33.3657   53.9772 H   0  0  0  0  0  0  0  0  0  0  0  0
   60.7390   34.4712   52.5734 H   0  0  0  0  0  0  0  0  0  0  0  0
   58.7971   32.7359   54.1119 H   0  0  0  0  0  0  0  0  0  0  0  0
   58.6741   34.4754   53.5781 H   0  0  0  0  0  0  0  0  0  0  0  0
   57.1547   33.4773   52.1570 H   0  0  0  0  0  0  0  0  0  0  0  0
   58.6794   33.4074   51.1756 H   0  0  0  0  0  0  0  0  0  0  0  0
   56.0799   31.0416   52.5525 H   0  0  0  0  0  0  0  0  0  0  0  0
   56.1907   32.0015   51.0383 H   0  0  0  0  0  0  0  0  0  0  0  0
   56.6573   30.2668   51.0383 H   0  0  0  0  0  0  0  0  0  0  0  0
   58.0751   31.5029   54.0758 H   0  0  0  0  0  0  0  0  0  0  0  0
   57.9692   29.9038   53.2644 H   0  0  0  0  0  0  0  0  0  0  0  0
   59.5202   30.8100   53.2644 H   0  0  0  0  0  0  0  0  0  0  0  0
   56.8868   28.4402   46.1357 H   0  0  0  0  0  0  0  0  0  0  0  0
   55.3098   28.7141   44.2225 H   0  0  0  0  0  0  0  0  0  0  0  0
   55.6951   30.5070   42.5283 H   0  0  0  0  0  0  0  0  0  0  0  0
   57.6586   32.0333   42.7497 H   0  0  0  0  0  0  0  0  0  0  0  0
   59.2388   31.7697   44.6632 H   0  0  0  0  0  0  0  0  0  0  0  0
  1  2  1  0
  2  3  1  0
  3  4  1  0
  4  5  1  0
  5  6  1  0
  6  7  1  0
  7  8  1  0
  8  9  2  0
  9 10  1  0
 10 11  2  0
 11 12  1  0
 12 13  2  0
 13 14  1  0
 14 15  1  0
 14 16  2  0
 16 17  1  0
 17 18  2  0
 18 19  1  0
 19 20  2  0
 20 21  1  0
 21 22  1  0
 22 23  1  0
 23 24  1  0
 24 25  1  0
 25 26  1  0
 25 27  1  0
 20 28  1  0
  3 29  1  0
 29 30  2  0
 30 31  1  0
 31 32  2  0
 32 33  1  0
 33 34  2  0
 28  7  2  0
 34 29  1  0
 13  8  1  0
 28 16  1  0
  1 35  1  0
  1 36  1  0
  1 37  1  0
  2 38  1  0
  2 39  1  0
  4 40  1  0
  4 41  1  0
  5 42  1  0
  5 43  1  0
  6 44  1  0
  6 45  1  0
  9 46  1  0
 10 47  1  0
 11 48  1  0
 12 49  1  0
 15 50  1  0
 15 51  1  0
 15 52  1  0
 17 53  1  0
 18 54  1  0
 19 55  1  0
 21 56  1  0
 22 57  1  0
 22 58  1  0
 23 59  1  0
 23 60  1  0
 24 61  1  0
 24 62  1  0
 26 63  1  0
 26 64  1  0
 26 65  1  0
 27 66  1  0
 27 67  1  0
 27 68  1  0
 30 69  1  0
 31 70  1  0
 32 71  1  0
 33 72  1  0
 34 73  1  0
M  CHG  2   6   1  14   1
M  END
>  <UniqueID>  (4) 
4

>  <SMILES>  (4) 
CCN(CC[NH2+]c1c2ccccc2[n+](C)c2cccc(NCCCN(C)C)c12)c1ccccc1

>  <Energy>  (4) 
112.83876274250888

>  <Genealogy>  (4) 
CCN(CC[NH2+]c1c2ccccc2[n+](C)c2cccc(NCCCN(C)C)c12)c1ccccc1 (protonated)
CCN(CC[NH2+]c1c2ccccc2[n+](C)c2cccc(NCCCN(C)C)c12)c1ccccc1 (3D coordinates assigned)
CCN(CC[NH2+]c1c2ccccc2[n+](C)c2cccc(NCCCN(C)C)c12)c1ccccc1 (optimized conformer: 112.83876274250888 kcal/mol)

>  <smiles>  (4) 
CCN(CCNc1c2ccccc2[n+](C)c2cccc(NCCCN(C)C)c12)c1ccccc1

>  <score_type>  (4) 
oracle

>  <origin>  (4) 
adg

>  <m_score__min__energy>  (4) 
-4.8200000000000003

>  <m_primary>  (4) 
energy

$$$$
4:0
     RDKit          3D

 55 57  0  0  0  0  0  0  0  0999 V2000
   59.9050   35.1860   45.9720 C   0  0  0  0  0  0  0  0  0  0  0  0
   59.2350   34.7600   47.2770 C   0  0  0  0  0  0  0  0  0  0  0  0
   58.0250   33.8340   47.0560 C   0  0  0  0  0  0  0  0  0  0  0  0
   57.9100   33.3160   45.6190 C   0  0  0  0  0  0  0  0  0  0  0  0
   57.1820   32.1040   45.6090 O   0  0  0  0  0  0  0  0  0  0  0  0
   57.5090   31.3280   44.4700 C   0  0  0  0  0  0  0  0  0  0  0  0
   57.9880   29.9340   44.8800 C   0  0  0  0  0  0  0  0  0  0  0  0
   57.6430   29.6990   46.2300 O   0  0  0  0  0  0  0  0  0  0  0  0
   58.5480   28.7770   46.7980 C   0  0  0  0  0  0  0  0  0  0  0  0
   59.6600   29.5480   47.5020 C   0  0  0  0  0  0  0  0  0  0  0  0
   59.2520   30.9260   47.7680 N   0  0  0  0  0  0  0  0  0  0  0  0
   59.9470   31.7140   48.7450 C   0  0  0  0  0  0  0  0  0  0  0  0
   61.1590   32.3400   48.4110 C   0  0  0  0  0  0  0  0  0  0  0  0
   61.7150   32.1940   47.1240 C   0  0  0  0  0  0  0  0  0  0  0  0
   62.8780   32.8720   46.7710 C   0  0  0  0  0  0  0  0  0  0  0  0
   63.5020   33.7080   47.6900 C   0  0  0  0  0  0  0  0  0  0  0  0
   62.9840   33.8470   48.9780 C   0  0  0  0  0  0  0  0  0  0  0  0
   61.8240   33.1360   49.3820 C   0  0  0  0  0  0  0  0  0  0  0  0
   61.3310   33.2150   50.6720 N   0  0  0  0  0  0  0  0  0  0  0  0
   62.1620   33.8070   51.7460 C   0  0  0  0  0  0  0  0  0  0  0  0
   60.0760   32.7130   50.9660 C   0  0  0  0  0  0  0  0  0  0  0  0
   59.4320   32.9850   52.2010 C   0  0  0  0  0  0  0  0  0  0  0  0
   58.1890   32.4280   52.5030 C   0  0  0  0  0  0  0  0  0  0  0  0
   57.5480   31.6020   51.5850 C   0  0  0  0  0  0  0  0  0  0  0  0
   55.9890   30.9010   51.9760 Cl  0  0  0  0  0  0  0  0  0  0  0  0
   58.1360   31.3520   50.3470 C   0  0  0  0  0  0  0  0  0  0  0  0
   59.3850   31.9180   50.0140 C   0  0  0  0  0  0  0  0  0  0  0  0
   60.8135   35.7636   46.1978 H   0  0  0  0  0  0  0  0  0  0  0  0
   60.1739   34.2927   45.3892 H   0  0  0  0  0  0  0  0  0  0  0  0
   59.2101   35.8085   45.3892 H   0  0  0  0  0  0  0  0  0  0  0  0
   59.9748   34.2292   47.8942 H   0  0  0  0  0  0  0  0  0  0  0  0
   58.8669   35.6711   47.7713 H   0  0  0  0  0  0  0  0  0  0  0  0
   58.1185   32.9708   47.7314 H   0  0  0  0  0  0  0  0  0  0  0  0
   57.1210   34.4263   47.2611 H   0  0  0  0  0  0  0  0  0  0  0  0
   57.3879   34.0618   45.0016 H   0  0  0  0  0  0  0  0  0  0  0  0
   58.9168   33.1410   45.2119 H   0  0  0  0  0  0  0  0  0  0  0  0
   56.6178   31.2299   43.8328 H   0  0  0  0  0  0  0  0  0  0  0  0
   58.3189   31.8314   43.9217 H   0  0  0  0  0  0  0  0  0  0  0  0
   57.5078   29.1780   44.2413 H   0  0  0  0  0  0  0  0  0  0  0  0
   59.0799   29.8707   44.7627 H   0  0  0  0  0  0  0  0  0  0  0  0
   58.0209   28.1421   47.5254 H   0  0  0  0  0  0  0  0  0  0  0  0
   58.9764   28.1405   46.0097 H   0  0  0  0  0  0  0  0  0  0  0  0
   59.8947   29.0516   48.4551 H   0  0  0  0  0  0  0  0  0  0  0  0
   60.5448   29.5635   46.8486 H   0  0  0  0  0  0  0  0  0  0  0  0
   58.4430   31.3560   47.2640 H   0  0  0  0  0  0  0  0  0  0  0  0
   61.2244   31.5371   46.3907 H   0  0  0  0  0  0  0  0  0  0  0  0
   63.3037   32.7464   45.7645 H   0  0  0  0  0  0  0  0  0  0  0  0
   64.4073   34.2618   47.4006 H   0  0  0  0  0  0  0  0  0  0  0  0
   63.4829   34.5187   49.6921 H   0  0  0  0  0  0  0  0  0  0  0  0
   61.7553   33.5173   52.7261 H   0  0  0  0  0  0  0  0  0  0  0  0
   63.1950   33.4402   51.6547 H   0  0  0  0  0  0  0  0  0  0  0  0
   62.1528   34.9032   51.6547 H   0  0  0  0  0  0  0  0  0  0  0  0
   59.9208   33.6458   52.9321 H   0  0  0  0  0  0  0  0  0  0  0  0
   57.7135   32.6429   53.4714 H   0  0  0  0  0  0  0  0  0  0  0  0
   57.6208   30.7061   49.6208 H   0  0  0  0  0  0  0  0  0  0  0  0
  1  2  1  0
  2  3  1  0
  3  4  1  0
  4  5  1  0
  5  6  1  0
  6  7  1  0
  7  8  1  0
  8  9  1  0
  9 10  1  0
 10 11  1  0
 11 12  1  0
 12 13  2  0
 13 14  1  0
 14 15  2  0
 15 16  1  0
 16 17  2  0
 17 18  1  0
 18 19  2  0
 19 20  1  0
 19 21  1  0
 21 22  2  0
 22 23  1  0
 23 24  2  0
 24 25  1  0
 24 26  1  0
 26 27  2  0
 27 12  1  0
 18 13  1  0
 27 21  1  0
  1 28  1  0
  1 29  1  0
  1 30  1  0
  2 31  1  0
  2 32  1  0
  3 33  1  0
  3 34  1  0
  4 35  1  0
  4 36  1  0
  6 37  1  0
  6 38  1  0
  7 39  1  0
  7 40  1  0
  9 41  1  0
  9 42  1  0
 10 43  1  0
 10 44  1  0
 11 45  1  0
 14 46  1  0
 15 47  1  0
 16 48  1  0
 17 49  1  0
 20 50  1  0
 20 51  1  0
 20 52  1  0
 22 53  1  0
 23 54  1  0
 26 55  1  0
M  CHG  1  19   1
M  END
>  <UniqueID>  (5) 
5

>  <SMILES>  (5) 
CCCCOCCOCCNc1c2ccccc2[n+](C)c2ccc(Cl)cc12

>  <Energy>  (5) 
73.56435470859601

>  <Genealogy>  (5) 
CCCCOCCOCCNc1c2ccccc2[n+](C)c2ccc(Cl)cc12 (3D coordinates assigned)
CCCCOCCOCCNc1c2ccccc2[n+](C)c2ccc(Cl)cc12 (optimized conformer: 73.56435470859601 kcal/mol)

>  <smiles>  (5) 
CCCCOCCOCCNc1c2ccccc2[n+](C)c2ccc(Cl)cc12

>  <score_type>  (5) 
oracle

>  <origin>  (5) 
adg

>  <m_score__min__energy>  (5) 
-5.8300000000000001

>  <m_primary>  (5) 
energy

$$$$
5:0
     RDKit          3D

 43 44  0  0  0  0  0  0  0  0999 V2000
   55.2510   24.2210   45.2830 C   0  0  0  0  0  0  0  0  0  0  0  0
   54.3500   25.3960   45.6450 C   0  0  0  0  0  0  0  0  0  0  0  0
   55.1530   26.5710   45.9700 N   0  0  0  0  0  0  0  0  0  0  0  0
   56.5460   26.4950   46.2900 C   0  0  0  0  0  0  0  0  0  0  0  0
   56.9440   25.7380   47.2170 O   0  0  0  0  0  0  0  0  0  0  0  0
   57.5430   27.3490   45.5650 C   0  0  0  0  0  0  0  0  0  0  0  0
   57.1520   28.7690   45.5560 N   0  0  0  0  0  0  0  0  0  0  0  0
   57.8430   29.7150   46.4510 C   0  0  0  0  0  0  0  0  0  0  0  0
   58.3790   30.9720   45.7250 C   0  0  0  0  0  0  0  0  0  0  0  0
   57.3170   31.7720   45.0690 N   0  0  0  0  0  0  0  0  0  0  0  0
   57.5790   33.2200   45.2480 C   0  0  0  0  0  0  0  0  0  0  0  0
   58.6600   33.4350   46.2750 C   0  0  0  0  0  0  0  0  0  0  0  0
   58.3820   33.3240   47.6480 C   0  0  0  0  0  0  0  0  0  0  0  0
   59.3890   33.5490   48.5910 C   0  0  0  0  0  0  0  0  0  0  0  0
   60.6820   33.8800   48.1710 C   0  0  0  0  0  0  0  0  0  0  0  0
   61.9440   34.1690   49.3550 Cl  0  0  0  0  0  0  0  0  0  0  0  0
   60.9680   33.9800   46.8070 C   0  0  0  0  0  0  0  0  0  0  0  0
   59.9600   33.7620   45.8620 C   0  0  0  0  0  0  0  0  0  0  0  0
   57.2070   31.4670   43.6210 C   0  0  0  0  0  0  0  0  0  0  0  0
   56.9360   29.9830   43.3190 C   0  0  0  0  0  0  0  0  0  0  0  0
   56.3190   29.2870   44.4960 C   0  0  0  0  0  0  0  0  0  0  0  0
   55.0650   29.1660   44.5520 O   0  0  0  0  0  0  0  0  0  0  0  0
   55.6176   23.7429   46.2033 H   0  0  0  0  0  0  0  0  0  0  0  0
   54.6801   23.4896   44.6922 H   0  0  0  0  0  0  0  0  0  0  0  0
   56.1055   24.5826   44.6922 H   0  0  0  0  0  0  0  0  0  0  0  0
   53.6965   25.6283   44.7912 H   0  0  0  0  0  0  0  0  0  0  0  0
   53.7437   25.1242   46.5217 H   0  0  0  0  0  0  0  0  0  0  0  0
   58.5199   27.2530   46.0614 H   0  0  0  0  0  0  0  0  0  0  0  0
   57.5904   27.0036   44.5217 H   0  0  0  0  0  0  0  0  0  0  0  0
   57.1360   30.0375   47.2295 H   0  0  0  0  0  0  0  0  0  0  0  0
   58.7127   29.1877   46.8699 H   0  0  0  0  0  0  0  0  0  0  0  0
   58.8899   31.6089   46.4621 H   0  0  0  0  0  0  0  0  0  0  0  0
   59.0587   30.6241   44.9332 H   0  0  0  0  0  0  0  0  0  0  0  0
   57.8997   33.6517   44.2884 H   0  0  0  0  0  0  0  0  0  0  0  0
   56.6564   33.7096   45.5932 H   0  0  0  0  0  0  0  0  0  0  0  0
   57.3680   33.0590   47.9820 H   0  0  0  0  0  0  0  0  0  0  0  0
   59.1647   33.4657   49.6647 H   0  0  0  0  0  0  0  0  0  0  0  0
   61.9867   34.2304   46.4760 H   0  0  0  0  0  0  0  0  0  0  0  0
   60.1880   33.8475   44.7893 H   0  0  0  0  0  0  0  0  0  0  0  0
   56.3822   32.0625   43.2026 H   0  0  0  0  0  0  0  0  0  0  0  0
   58.1774   31.7150   43.1662 H   0  0  0  0  0  0  0  0  0  0  0  0
   56.2503   29.9120   42.4618 H   0  0  0  0  0  0  0  0  0  0  0  0
   57.8959   29.4954   43.0936 H   0  0  0  0  0  0  0  0  0  0  0  0
  1  2  1  0
  2  3  1  0
  3  4  1  0
  4  5  2  0
  4  6  1  0
  6  7  1  0
  7  8  1  0
  8  9  1  0
  9 10  1  0
 10 11  1  0
 11 12  1  0
 12 13  2  0
 13 14  1  0
 14 15  2  0
 15 16  1  0
 15 17  1  0
 17 18  2  0
 10 19  1  0
 19 20  1  0
 20 21  1  0
 21 22  2  0
 21  7  1  0
 18 12  1  0
  1 23  1  0
  1 24  1  0
  1 25  1  0
  2 26  1  0
  2 27  1  0
  6 28  1  0
  6 29  1  0
  8 30  1  0
  8 31  1  0
  9 32  1  0
  9 33  1  0
 11 34  1  0
 11 35  1  0
 13 36  1  0
 14 37  1  0
 17 38  1  0
 18 39  1  0
 19 40  1  0
 19 41  1  0
 20 42  1  0
 20 43  1  0
M  CHG  1   3  -1
M  END
>  <UniqueID>  (6) 
6

>  <SMILES>  (6) 
CC[N-]C(=O)CN1CCN(Cc2ccc(Cl)cc2)CCC1=O

>  <Energy>  (6) 
42.43964265840996

>  <Genealogy>  (6) 
CC[N-]C(=O)CN1CCN(Cc2ccc(Cl)cc2)CCC1=O (protonated)
CC[N-]C(=O)CN1CCN(Cc2ccc(Cl)cc2)CCC1=O (3D coordinates assigned)
CC[N-]C(=O)CN1CCN(Cc2ccc(Cl)cc2)CCC1=O (nonaromatic ring conformer: 42.43964265840996 kcal/mol)

>  <smiles>  (6) 
CCNC(=O)CN1CCN(Cc2ccc(Cl)cc2)CCC1=O

>  <score_type>  (6) 
oracle

>  <origin>  (6) 
adg

>  <m_score__min__energy>  (6) 
-8.4000000000000004

>  <m_primary>  (6) 
energy

$$$$
6:0
     RDKit          3D

 65 67  0  0  0  0  0  0  0  0999 V2000
   63.0180   34.5570   50.5200 C   0  0  0  0  0  0  0  0  0  0  0  0
   62.9760   34.2170   49.0200 C   0  0  0  0  0  0  0  0  0  0  0  0
   62.7380   32.7820   48.7070 N   0  0  0  0  0  0  0  0  0  0  0  0
   62.8710   32.5260   47.2460 C   0  0  0  0  0  0  0  0  0  0  0  0
   63.1460   33.8070   46.4470 C   0  0  0  0  0  0  0  0  0  0  0  0
   63.5970   31.8570   49.4970 C   0  0  0  0  0  0  0  0  0  0  0  0
   62.7990   30.8090   50.3150 C   0  0  0  0  0  0  0  0  0  0  0  0
   61.7150   31.4140   51.2320 C   0  0  0  0  0  0  0  0  0  0  0  0
   60.4700   31.6260   50.4820 N   0  0  0  0  0  0  0  0  0  0  0  0
   59.6020   30.4460   50.5760 C   0  0  0  0  0  0  0  0  0  0  0  0
   59.0250   30.0950   49.2030 C   0  0  0  0  0  0  0  0  0  0  0  0
   59.7790   30.7450   48.1310 N   0  0  0  0  0  0  0  0  0  0  0  0
   59.2240   30.8500   46.8130 C   0  0  0  0  0  0  0  0  0  0  0  0
   58.9510   29.6770   46.0900 C   0  0  0  0  0  0  0  0  0  0  0  0
   59.3100   28.4110   46.6040 C   0  0  0  0  0  0  0  0  0  0  0  0
   59.0760   27.2520   45.8700 C   0  0  0  0  0  0  0  0  0  0  0  0
   58.4980   27.3320   44.6090 C   0  0  0  0  0  0  0  0  0  0  0  0
   58.1320   28.5710   44.0830 C   0  0  0  0  0  0  0  0  0  0  0  0
   58.3240   29.7670   44.8220 C   0  0  0  0  0  0  0  0  0  0  0  0
   57.9340   30.9970   44.3300 N   0  0  0  0  0  0  0  0  0  0  0  0
   57.0170   31.0690   43.1710 C   0  0  0  0  0  0  0  0  0  0  0  0
   58.3830   32.1590   44.9320 C   0  0  0  0  0  0  0  0  0  0  0  0
   58.2530   33.4130   44.2890 C   0  0  0  0  0  0  0  0  0  0  0  0
   58.6510   34.5880   44.9140 C   0  0  0  0  0  0  0  0  0  0  0  0
   59.2020   34.5530   46.1840 C   0  0  0  0  0  0  0  0  0  0  0  0
   59.3990   33.3310   46.8490 C   0  0  0  0  0  0  0  0  0  0  0  0
   59.9870   33.3080   48.1260 O   0  0  0  0  0  0  0  0  0  0  0  0
   59.6790   34.2010   49.1920 C   0  0  0  0  0  0  0  0  0  0  0  0
   59.0060   32.1140   46.2140 C   0  0  0  0  0  0  0  0  0  0  0  0
   62.9041   33.6346   51.1084 H   0  0  0  0  0  0  0  0  0  0  0  0
   63.9814   35.0296   50.7620 H   0  0  0  0  0  0  0  0  0  0  0  0
   62.1986   35.2498   50.7620 H   0  0  0  0  0  0  0  0  0  0  0  0
   62.1687   34.8052   48.5592 H   0  0  0  0  0  0  0  0  0  0  0  0
   63.9731   34.4572   48.6223 H   0  0  0  0  0  0  0  0  0  0  0  0
   61.7400   32.5980   48.9680 H   0  0  0  0  0  0  0  0  0  0  0  0
   63.7030   31.8246   47.0852 H   0  0  0  0  0  0  0  0  0  0  0  0
   61.9165   32.1098   46.8916 H   0  0  0  0  0  0  0  0  0  0  0  0
   63.3250   34.6410   47.1415 H   0  0  0  0  0  0  0  0  0  0  0  0
   64.0332   33.6606   45.8134 H   0  0  0  0  0  0  0  0  0  0  0  0
   62.2769   34.0376   45.8134 H   0  0  0  0  0  0  0  0  0  0  0  0
   64.2616   31.3223   48.8024 H   0  0  0  0  0  0  0  0  0  0  0  0
   64.1521   32.4731   50.2197 H   0  0  0  0  0  0  0  0  0  0  0  0
   62.3097   30.1209   49.6099 H   0  0  0  0  0  0  0  0  0  0  0  0
   63.5222   30.3032   50.9717 H   0  0  0  0  0  0  0  0  0  0  0  0
   61.5218   30.7256   52.0679 H   0  0  0  0  0  0  0  0  0  0  0  0
   62.0706   32.3822   51.6142 H   0  0  0  0  0  0  0  0  0  0  0  0
   60.7190   31.7680   49.4740 H   0  0  0  0  0  0  0  0  0  0  0  0
   60.1884   29.5941   50.9509 H   0  0  0  0  0  0  0  0  0  0  0  0
   58.7731   30.6678   51.2643 H   0  0  0  0  0  0  0  0  0  0  0  0
   59.0694   29.0048   49.0630 H   0  0  0  0  0  0  0  0  0  0  0  0
   57.9844   30.4490   49.1614 H   0  0  0  0  0  0  0  0  0  0  0  0
   60.6980   31.2050   48.3190 H   0  0  0  0  0  0  0  0  0  0  0  0
   59.7800   28.3405   47.5960 H   0  0  0  0  0  0  0  0  0  0  0  0
   59.3488   26.2719   46.2884 H   0  0  0  0  0  0  0  0  0  0  0  0
   58.3286   26.4160   44.0240 H   0  0  0  0  0  0  0  0  0  0  0  0
   57.6870   28.6217   43.0783 H   0  0  0  0  0  0  0  0  0  0  0  0
   55.9799   31.1504   43.5285 H   0  0  0  0  0  0  0  0  0  0  0  0
   57.2650   31.9504   42.5614 H   0  0  0  0  0  0  0  0  0  0  0  0
   57.1244   30.1597   42.5614 H   0  0  0  0  0  0  0  0  0  0  0  0
   57.8288   33.4581   43.2751 H   0  0  0  0  0  0  0  0  0  0  0  0
   58.5278   35.5513   44.3974 H   0  0  0  0  0  0  0  0  0  0  0  0
   59.4889   35.4930   46.6781 H   0  0  0  0  0  0  0  0  0  0  0  0
   59.8528   33.6971   50.1542 H   0  0  0  0  0  0  0  0  0  0  0  0
   60.3222   35.0906   49.1225 H   0  0  0  0  0  0  0  0  0  0  0  0
   58.6241   34.5049   49.1225 H   0  0  0  0  0  0  0  0  0  0  0  0
  1  2  1  0
  2  3  1  0
  3  4  1  0
  4  5  1  0
  3  6  1  0
  6  7  1  0
  7  8  1  0
  8  9  1  0
  9 10  1  0
 10 11  1  0
 11 12  1  0
 12 13  1  0
 13 14  2  0
 14 15  1  0
 15 16  2  0
 16 17  1  0
 17 18  2  0
 18 19  1  0
 19 20  2  0
 20 21  1  0
 20 22  1  0
 22 23  2  0
 23 24  1  0
 24 25  2  0
 25 26  1  0
 26 27  1  0
 27 28  1  0
 26 29  2  0
 29 13  1  0
 19 14  1  0
 29 22  1  0
  1 30  1  0
  1 31  1  0
  1 32  1  0
  2 33  1  0
  2 34  1  0
  3 35  1  0
  4 36  1  0
  4 37  1  0
  5 38  1  0
  5 39  1  0
  5 40  1  0
  6 41  1  0
  6 42  1  0
  7 43  1  0
  7 44  1  0
  8 45  1  0
  8 46  1  0
  9 47  1  0
 10 48  1  0
 10 49  1  0
 11 50  1  0
 11 51  1  0
 12 52  1  0
 15 53  1  0
 16 54  1  0
 17 55  1  0
 18 56  1  0
 21 57  1  0
 21 58  1  0
 21 59  1  0
 23 60  1  0
 24 61  1  0
 25 62  1  0
 28 63  1  0
 28 64  1  0
 28 65  1  0
M  CHG  2   3   1  20   1
M  END
>  <UniqueID>  (7) 
7

>  <SMILES>  (7) 
CC[NH+](CC)CCCNCCNc1c2ccccc2[n+](C)c2cccc(OC)c12

>  <Energy>  (7) 
95.65400237328019

>  <Genealogy>  (7) 
CC[NH+](CC)CCCNCCNc1c2ccccc2[n+](C)c2cccc(OC)c12 (protonated)
CC[NH+](CC)CCCNCCNc1c2ccccc2[n+](C)c2cccc(OC)c12 (3D coordinates assigned)
CC[NH+](CC)CCCNCCNc1c2ccccc2[n+](C)c2cccc(OC)c12 (optimized conformer: 95.65400237328019 kcal/mol)

>  <smiles>  (7) 
CCN(CC)CCCNCCNc1c2ccccc2[n+](C)c2cccc(OC)c12

>  <score_type>  (7) 
oracle

>  <origin>  (7) 
adg

>  <m_score__min__energy>  (7) 
-3.0499999999999998

>  <m_primary>  (7) 
energy

$$$$
7:0
     RDKit          3D

 69 71  0  0  0  0  0  0  0  0999 V2000
   57.1120   31.0860   43.1140 C   0  0  0  0  0  0  0  0  0  0  0  0
   56.5570   29.7780   43.6870 C   0  0  0  0  0  0  0  0  0  0  0  0
   57.4210   28.6220   43.3770 N   0  0  0  0  0  0  0  0  0  0  0  0
   58.1780   28.1670   44.5580 C   0  0  0  0  0  0  0  0  0  0  0  0
   59.3530   29.1040   44.8860 C   0  0  0  0  0  0  0  0  0  0  0  0
   59.7630   29.0430   46.3640 C   0  0  0  0  0  0  0  0  0  0  0  0
   58.5650   29.3180   47.2800 C   0  0  0  0  0  0  0  0  0  0  0  0
   58.8640   30.4030   48.2140 N   0  0  0  0  0  0  0  0  0  0  0  0
   59.8020   31.4440   47.8880 C   0  0  0  0  0  0  0  0  0  0  0  0
   59.4480   32.4460   46.9700 C   0  0  0  0  0  0  0  0  0  0  0  0
   58.1420   32.5110   46.4380 C   0  0  0  0  0  0  0  0  0  0  0  0
   57.7840   33.5280   45.5560 C   0  0  0  0  0  0  0  0  0  0  0  0
   58.7120   34.4990   45.2000 C   0  0  0  0  0  0  0  0  0  0  0  0
   60.0130   34.4450   45.7010 C   0  0  0  0  0  0  0  0  0  0  0  0
   60.4200   33.4000   46.5680 C   0  0  0  0  0  0  0  0  0  0  0  0
   61.7210   33.2990   47.0270 N   0  0  0  0  0  0  0  0  0  0  0  0
   62.7950   34.0880   46.3840 C   0  0  0  0  0  0  0  0  0  0  0  0
   62.0200   32.4430   48.0720 C   0  0  0  0  0  0  0  0  0  0  0  0
   63.2600   32.5040   48.7550 C   0  0  0  0  0  0  0  0  0  0  0  0
   63.5730   31.6190   49.7900 C   0  0  0  0  0  0  0  0  0  0  0  0
   64.8340   31.7330   50.3980 O   0  0  0  0  0  0  0  0  0  0  0  0
   65.7030   32.8610   50.3020 C   0  0  0  0  0  0  0  0  0  0  0  0
   67.1570   32.4470   50.6200 C   0  0  0  0  0  0  0  0  0  0  0  0
   67.3350   31.6820   51.8930 N   0  0  0  0  0  0  0  0  0  0  0  0
   67.1400   30.2290   51.6740 C   0  0  0  0  0  0  0  0  0  0  0  0
   68.6730   31.9210   52.4880 C   0  0  0  0  0  0  0  0  0  0  0  0
   66.3080   32.1470   52.8570 C   0  0  0  0  0  0  0  0  0  0  0  0
   62.6270   30.6610   50.1800 C   0  0  0  0  0  0  0  0  0  0  0  0
   61.3850   30.6040   49.5540 C   0  0  0  0  0  0  0  0  0  0  0  0
   61.0660   31.4840   48.5000 C   0  0  0  0  0  0  0  0  0  0  0  0
   57.3963   31.7561   43.9387 H   0  0  0  0  0  0  0  0  0  0  0  0
   57.9959   30.8697   42.4959 H   0  0  0  0  0  0  0  0  0  0  0  0
   56.3423   31.5713   42.4959 H   0  0  0  0  0  0  0  0  0  0  0  0
   56.4755   29.8764   44.7796 H   0  0  0  0  0  0  0  0  0  0  0  0
   55.5743   29.5980   43.2266 H   0  0  0  0  0  0  0  0  0  0  0  0
   56.8470   27.8390   42.9840 H   0  0  0  0  0  0  0  0  0  0  0  0
   58.1010   28.9290   42.6430 H   0  0  0  0  0  0  0  0  0  0  0  0
   57.4994   28.1324   45.4230 H   0  0  0  0  0  0  0  0  0  0  0  0
   58.5896   27.1716   44.3347 H   0  0  0  0  0  0  0  0  0  0  0  0
   60.2165   28.8153   44.2688 H   0  0  0  0  0  0  0  0  0  0  0  0
   59.0275   30.1330   44.6731 H   0  0  0  0  0  0  0  0  0  0  0  0
   60.1623   28.0422   46.5852 H   0  0  0  0  0  0  0  0  0  0  0  0
   60.5271   29.8128   46.5470 H   0  0  0  0  0  0  0  0  0  0  0  0
   57.6979   29.6003   46.6648 H   0  0  0  0  0  0  0  0  0  0  0  0
   58.3452   28.4071   47.8562 H   0  0  0  0  0  0  0  0  0  0  0  0
   58.3260   30.4690   49.1080 H   0  0  0  0  0  0  0  0  0  0  0  0
   57.3996   31.7509   46.7228 H   0  0  0  0  0  0  0  0  0  0  0  0
   56.7659   33.5624   45.1410 H   0  0  0  0  0  0  0  0  0  0  0  0
   58.4198   35.3133   44.5206 H   0  0  0  0  0  0  0  0  0  0  0  0
   60.7345   35.2259   45.4187 H   0  0  0  0  0  0  0  0  0  0  0  0
   63.4243   34.5503   47.1587 H   0  0  0  0  0  0  0  0  0  0  0  0
   63.4113   33.4263   45.7576 H   0  0  0  0  0  0  0  0  0  0  0  0
   62.3478   34.8739   45.7576 H   0  0  0  0  0  0  0  0  0  0  0  0
   63.9954   33.2680   48.4628 H   0  0  0  0  0  0  0  0  0  0  0  0
   65.6569   33.2687   49.2814 H   0  0  0  0  0  0  0  0  0  0  0  0
   65.3814   33.6229   51.0273 H   0  0  0  0  0  0  0  0  0  0  0  0
   67.5218   31.8209   49.7924 H   0  0  0  0  0  0  0  0  0  0  0  0
   67.7219   33.3828   50.7434 H   0  0  0  0  0  0  0  0  0  0  0  0
   67.0714   29.7177   52.6455 H   0  0  0  0  0  0  0  0  0  0  0  0
   66.2118   30.0650   51.1070 H   0  0  0  0  0  0  0  0  0  0  0  0
   67.9921   29.8260   51.1070 H   0  0  0  0  0  0  0  0  0  0  0  0
   68.5942   31.9069   53.5851 H   0  0  0  0  0  0  0  0  0  0  0  0
   69.3663   31.1325   52.1600 H   0  0  0  0  0  0  0  0  0  0  0  0
   69.0504   32.9008   52.1600 H   0  0  0  0  0  0  0  0  0  0  0  0
   66.6681   31.9839   53.8835 H   0  0  0  0  0  0  0  0  0  0  0  0
   66.1176   33.2191   52.7012 H   0  0  0  0  0  0  0  0  0  0  0  0
   65.3767   31.5828   52.7012 H   0  0  0  0  0  0  0  0  0  0  0  0
   62.8673   29.9507   50.9848 H   0  0  0  0  0  0  0  0  0  0  0  0
   60.6431   29.8629   49.8860 H   0  0  0  0  0  0  0  0  0  0  0  0
  1  2  1  0
  2  3  1  0
  3  4  1  0
  4  5  1  0
  5  6  1  0
  6  7  1  0
  7  8  1  0
  8  9  1  0
  9 10  2  0
 10 11  1  0
 11 12  2  0
 12 13  1  0
 13 14  2  0
 14 15  1  0
 15 16  2  0
 16 17  1  0
 16 18  1  0
 18 19  2  0
 19 20  1  0
 20 21  1  0
 21 22  1  0
 22 23  1  0
 23 24  1  0
 24 25  1  0
 24 26  1  0
 24 27  1  0
 20 28  2  0
 28 29  1  0
 29 30  2  0
 30  9  1  0
 15 10  1  0
 30 18  1  0
  1 31  1  0
  1 32  1  0
  1 33  1  0
  2 34  1  0
  2 35  1  0
  3 36  1  0
  3 37  1  0
  4 38  1  0
  4 39  1  0
  5 40  1  0
  5 41  1  0
  6 42  1  0
  6 43  1  0
  7 44  1  0
  7 45  1  0
  8 46  1  0
 11 47  1  0
 12 48  1  0
 13 49  1  0
 14 50  1  0
 17 51  1  0
 17 52  1  0
 17 53  1  0
 19 54  1  0
 22 55  1  0
 22 56  1  0
 23 57  1  0
 23 58  1  0
 25 59  1  0
 25 60  1  0
 25 61  1  0
 26 62  1  0
 26 63  1  0
 26 64  1  0
 27 65  1  0
 27 66  1  0
 27 67  1  0
 28 68  1  0
 29 69  1  0
M  CHG  3   3   1  16   1  24   1
M  END
>  <UniqueID>  (8) 
8

>  <SMILES>  (8) 
CC[NH2+]CCCCNc1c2ccccc2[n+](C)c2cc(OCC[N+](C)(C)C)ccc12

>  <Energy>  (8) 
93.57357093155821

>  <Genealogy>  (8) 
CC[NH2+]CCCCNc1c2ccccc2[n+](C)c2cc(OCC[N+](C)(C)C)ccc12 (protonated)
CC[NH2+]CCCCNc1c2ccccc2[n+](C)c2cc(OCC[N+](C)(C)C)ccc12 (3D coordinates assigned)
CC[NH2+]CCCCNc1c2ccccc2[n+](C)c2cc(OCC[N+](C)(C)C)ccc12 (optimized conformer: 93.57357093155821 kcal/mol)

>  <smiles>  (8) 
CCNCCCCNc1c2ccccc2[n+](C)c2cc(OCC[N+](C)(C)C)ccc12

>  <score_type>  (8) 
oracle

>  <origin>  (8) 
adg

>  <m_score__min__energy>  (8) 
-3.3900000000000001

>  <m_primary>  (8) 
energy

$$$$
8:0
     RDKit          3D

 58 61  0  0  0  0  0  0  0  0999 V2000
   56.0970   29.7580   43.3360 C   0  0  0  0  0  0  0  0  0  0  0  0
   56.0180   29.6480   44.7530 O   0  0  0  0  0  0  0  0  0  0  0  0
   57.1290   29.5520   45.6050 C   0  0  0  0  0  0  0  0  0  0  0  0
   57.5950   28.3110   46.0940 C   0  0  0  0  0  0  0  0  0  0  0  0
   58.7190   28.2870   46.9190 C   0  0  0  0  0  0  0  0  0  0  0  0
   59.3570   29.4450   47.2820 C   0  0  0  0  0  0  0  0  0  0  0  0
   58.9060   30.6870   46.8440 C   0  0  0  0  0  0  0  0  0  0  0  0
   57.8100   30.7450   45.9560 C   0  0  0  0  0  0  0  0  0  0  0  0
   57.3610   31.9560   45.4040 O   0  0  0  0  0  0  0  0  0  0  0  0
   57.2290   33.1920   46.1100 C   0  0  0  0  0  0  0  0  0  0  0  0
   58.2730   34.2160   45.6260 C   0  0  0  0  0  0  0  0  0  0  0  0
   59.2970   34.4680   46.6530 N   0  0  0  0  0  0  0  0  0  0  0  0
   60.6030   33.8490   46.3320 C   0  0  0  0  0  0  0  0  0  0  0  0
   61.5670   33.7110   47.5370 C   0  0  2  0  0  0  0  0  0  0  0  0
   62.9690   33.2340   47.1210 C   0  0  0  0  0  0  0  0  0  0  0  0
   60.9920   32.8240   48.6630 C   0  0  0  0  0  0  0  0  0  0  0  0
   60.3070   33.5980   49.6490 O   0  0  0  0  0  0  0  0  0  0  0  0
   59.3520   33.1130   50.5570 C   0  0  0  0  0  0  0  0  0  0  0  0
   58.9130   33.8620   51.6870 C   0  0  0  0  0  0  0  0  0  0  0  0
   57.9460   33.3330   52.5640 C   0  0  0  0  0  0  0  0  0  0  0  0
   57.4620   32.0540   52.3040 C   0  0  0  0  0  0  0  0  0  0  0  0
   57.8900   31.3290   51.2390 C   0  0  0  0  0  0  0  0  0  0  0  0
   58.8250   31.8250   50.3360 C   0  0  0  0  0  0  0  0  0  0  0  0
   57.2740   30.0940   51.2470 O   0  0  0  0  0  0  0  0  0  0  0  0
   56.4150   30.0350   52.3940 C   0  0  0  0  0  0  0  0  0  0  0  0
   56.5430   31.3170   53.0250 O   0  0  0  0  0  0  0  0  0  0  0  0
   60.5130   29.1900   48.1720 C   0  0  0  0  0  0  0  0  0  0  0  0
   60.6160   27.6520   48.2080 C   0  0  0  0  0  0  0  0  0  0  0  0
   59.3690   27.0900   47.4970 C   0  0  0  0  0  0  0  0  0  0  0  0
   56.7196   30.6249   43.0697 H   0  0  0  0  0  0  0  0  0  0  0  0
   56.5457   28.8431   42.9217 H   0  0  0  0  0  0  0  0  0  0  0  0
   55.0867   29.8910   42.9217 H   0  0  0  0  0  0  0  0  0  0  0  0
   57.0785   27.3770   45.8277 H   0  0  0  0  0  0  0  0  0  0  0  0
   59.3968   31.6105   47.1851 H   0  0  0  0  0  0  0  0  0  0  0  0
   56.2208   33.5979   45.9401 H   0  0  0  0  0  0  0  0  0  0  0  0
   57.3920   33.0037   47.1814 H   0  0  0  0  0  0  0  0  0  0  0  0
   58.7625   33.8271   44.7209 H   0  0  0  0  0  0  0  0  0  0  0  0
   57.7554   35.1633   45.4145 H   0  0  0  0  0  0  0  0  0  0  0  0
   59.3820   35.5020   46.7710 H   0  0  0  0  0  0  0  0  0  0  0  0
   60.4154   32.8439   45.9263 H   0  0  0  0  0  0  0  0  0  0  0  0
   61.0970   34.5200   45.6139 H   0  0  0  0  0  0  0  0  0  0  0  0
   61.6732   34.7271   47.9447 H   0  0  0  0  0  0  0  0  0  0  0  0
   63.5687   33.0300   48.0203 H   0  0  0  0  0  0  0  0  0  0  0  0
   62.8811   32.3152   46.5226 H   0  0  0  0  0  0  0  0  0  0  0  0
   63.4597   34.0157   46.5226 H   0  0  0  0  0  0  0  0  0  0  0  0
   60.2874   32.1026   48.2236 H   0  0  0  0  0  0  0  0  0  0  0  0
   61.8301   32.3080   49.1542 H   0  0  0  0  0  0  0  0  0  0  0  0
   59.3326   34.8611   51.8759 H   0  0  0  0  0  0  0  0  0  0  0  0
   57.5849   33.9120   53.4267 H   0  0  0  0  0  0  0  0  0  0  0  0
   59.1451   31.2262   49.4705 H   0  0  0  0  0  0  0  0  0  0  0  0
   55.3735   29.8580   52.0874 H   0  0  0  0  0  0  0  0  0  0  0  0
   56.6896   29.2134   53.0719 H   0  0  0  0  0  0  0  0  0  0  0  0
   61.4307   29.6348   47.7598 H   0  0  0  0  0  0  0  0  0  0  0  0
   60.3865   29.6318   49.1714 H   0  0  0  0  0  0  0  0  0  0  0  0
   61.5267   27.3238   47.6855 H   0  0  0  0  0  0  0  0  0  0  0  0
   60.6677   27.2903   49.2455 H   0  0  0  0  0  0  0  0  0  0  0  0
   59.6555   26.3803   46.7069 H   0  0  0  0  0  0  0  0  0  0  0  0
   58.7068   26.5348   48.1776 H   0  0  0  0  0  0  0  0  0  0  0  0
  1  2  1  0
  2  3  1  0
  3  4  2  0
  4  5  1  0
  5  6  2  0
  6  7  1  0
  7  8  2  0
  8  9  1  0
  9 10  1  0
 10 11  1  0
 11 12  1  0
 12 13  1  0
 13 14  1  0
 14 15  1  0
 14 16  1  0
 16 17  1  0
 17 18  1  0
 18 19  2  0
 19 20  1  0
 20 21  2  0
 21 22  1  0
 22 23  2  0
 22 24  1  0
 24 25  1  0
 25 26  1  0
  6 27  1  0
 27 28  1  0
 28 29  1  0
  8  3  1  0
 23 18  1  0
 29  5  1  0
 26 21  1  0
  1 30  1  0
  1 31  1  0
  1 32  1  0
  4 33  1  0
  7 34  1  0
 10 35  1  0
 10 36  1  0
 11 37  1  0
 11 38  1  0
 12 39  1  0
 13 40  1  0
 13 41  1  0
 14 42  1  1
 15 43  1  0
 15 44  1  0
 15 45  1  0
 16 46  1  0
 16 47  1  0
 19 48  1  0
 20 49  1  0
 23 50  1  0
 25 51  1  0
 25 52  1  0
 27 53  1  0
 27 54  1  0
 28 55  1  0
 28 56  1  0
 29 57  1  0
 29 58  1  0
M  END
>  <UniqueID>  (9) 
9

>  <SMILES>  (9) 
COc1cc2c(cc1OCCNC[C@H](C)COc1ccc3c(c1)OCO3)CCC2

>  <Energy>  (9) 
92.61770069496457

>  <Genealogy>  (9) 
COc1cc2c(cc1OCCNC[C@H](C)COc1ccc3c(c1)OCO3)CCC2 (chirality)
COc1cc2c(cc1OCCNC[C@H](C)COc1ccc3c(c1)OCO3)CCC2 (3D coordinates assigned)
COc1cc2c(cc1OCCNC[C@H](C)COc1ccc3c(c1)OCO3)CCC2 (nonaromatic ring conformer: 92.61770069496457 kcal/mol)

>  <smiles>  (9) 
COc1cc2c(cc1OCCNCC(C)COc1ccc3c(c1)OCO3)CCC2

>  <score_type>  (9) 
oracle

>  <origin>  (9) 
adg

>  <m_score__min__energy>  (9) 
-8.4800000000000004

>  <m_primary>  (9) 
energy

$$$$
9:0
     RDKit          3D

 39 40  0  0  0  0  0  0  0  0999 V2000
   63.7520   33.0480   47.6510 C   0  0  0  0  0  0  0  0  0  0  0  0
   62.6520   31.9870   47.6540 C   0  0  0  0  0  0  0  0  0  0  0  0
   61.5010   32.4240   46.8480 N   0  0  0  0  0  0  0  0  0  0  0  0
   61.5910   33.8460   46.4740 C   0  0  0  0  0  0  0  0  0  0  0  0
   60.2420   34.4110   45.9810 C   0  0  0  0  0  0  0  0  0  0  0  0
   59.1120   33.6040   46.4690 N   0  0  0  0  0  0  0  0  0  0  0  0
   58.5800   33.8310   47.8120 C   0  0  0  0  0  0  0  0  0  0  0  0
   59.2580   32.8920   48.7900 C   0  0  0  0  0  0  0  0  0  0  0  0
   58.7910   31.5280   48.6160 N   0  0  0  0  0  0  0  0  0  0  0  0
   58.8880   30.7440   47.4230 C   0  0  0  0  0  0  0  0  0  0  0  0
   59.4990   29.6430   47.5010 O   0  0  0  0  0  0  0  0  0  0  0  0
   58.4430   31.2240   46.0830 C   0  0  0  0  0  0  0  0  0  0  0  0
   57.8460   30.2780   45.2230 C   0  0  0  0  0  0  0  0  0  0  0  0
   57.3770   30.6370   43.9530 C   0  0  0  0  0  0  0  0  0  0  0  0
   56.7180   29.6160   43.0740 C   0  0  0  0  0  0  0  0  0  0  0  0
   57.4640   31.9680   43.5430 C   0  0  0  0  0  0  0  0  0  0  0  0
   58.0440   32.9220   44.3760 C   0  0  0  0  0  0  0  0  0  0  0  0
   58.5450   32.5720   45.6430 C   0  0  0  0  0  0  0  0  0  0  0  0
   64.0174   33.3040   48.6874 H   0  0  0  0  0  0  0  0  0  0  0  0
   64.6387   32.6554   47.1317 H   0  0  0  0  0  0  0  0  0  0  0  0
   63.3917   33.9483   47.1317 H   0  0  0  0  0  0  0  0  0  0  0  0
   63.0518   31.0521   47.2343 H   0  0  0  0  0  0  0  0  0  0  0  0
   62.3171   31.8298   48.6899 H   0  0  0  0  0  0  0  0  0  0  0  0
   61.4210   31.8340   45.9870 H   0  0  0  0  0  0  0  0  0  0  0  0
   60.6270   32.2970   47.4120 H   0  0  0  0  0  0  0  0  0  0  0  0
   61.9155   34.4226   47.3528 H   0  0  0  0  0  0  0  0  0  0  0  0
   62.3122   33.9306   45.6477 H   0  0  0  0  0  0  0  0  0  0  0  0
   60.1303   35.4421   46.3476 H   0  0  0  0  0  0  0  0  0  0  0  0
   60.2367   34.3853   44.8813 H   0  0  0  0  0  0  0  0  0  0  0  0
   58.7713   34.8722   48.1109 H   0  0  0  0  0  0  0  0  0  0  0  0
   57.4964   33.6419   47.8137 H   0  0  0  0  0  0  0  0  0  0  0  0
   60.3448   32.9234   48.6233 H   0  0  0  0  0  0  0  0  0  0  0  0
   59.0136   33.2168   49.8121 H   0  0  0  0  0  0  0  0  0  0  0  0
   57.7467   29.2348   45.5576 H   0  0  0  0  0  0  0  0  0  0  0  0
   56.2273   28.8557   43.6994 H   0  0  0  0  0  0  0  0  0  0  0  0
   55.9671   30.1088   42.4390 H   0  0  0  0  0  0  0  0  0  0  0  0
   57.4763   29.1347   42.4390 H   0  0  0  0  0  0  0  0  0  0  0  0
   57.0732   32.2649   42.5586 H   0  0  0  0  0  0  0  0  0  0  0  0
   58.1114   33.9664   44.0374 H   0  0  0  0  0  0  0  0  0  0  0  0
  1  2  1  0
  2  3  1  0
  3  4  1  0
  4  5  1  0
  5  6  1  0
  6  7  1  0
  7  8  1  0
  8  9  1  0
  9 10  1  0
 10 11  2  0
 10 12  1  0
 12 13  2  0
 13 14  1  0
 14 15  1  0
 14 16  2  0
 16 17  1  0
 17 18  2  0
 18  6  1  0
 18 12  1  0
  1 19  1  0
  1 20  1  0
  1 21  1  0
  2 22  1  0
  2 23  1  0
  3 24  1  0
  3 25  1  0
  4 26  1  0
  4 27  1  0
  5 28  1  0
  5 29  1  0
  7 30  1  0
  7 31  1  0
  8 32  1  0
  8 33  1  0
 13 34  1  0
 15 35  1  0
 15 36  1  0
 15 37  1  0
 16 38  1  0
 17 39  1  0
M  CHG  2   3   1   9  -1
M  END
>  <UniqueID>  (10) 
10

>  <SMILES>  (10) 
CC[NH2+]CCN1CC[N-]C(=O)c2cc(C)ccc21

>  <Energy>  (10) 
47.62576864046005

>  <Genealogy>  (10) 
CC[NH2+]CCN1CC[N-]C(=O)c2cc(C)ccc21 (protonated)
CC[NH2+]CCN1CC[N-]C(=O)c2cc(C)ccc21 (3D coordinates assigned)
CC[NH2+]CCN1CC[N-]C(=O)c2cc(C)ccc21 (nonaromatic ring conformer: 47.62576864046005 kcal/mol)

>  <smiles>  (10) 
CCNCCN1CCNC(=O)c2cc(C)ccc21

>  <score_type>  (10) 
oracle

>  <origin>  (10) 
adg

>  <m_score__min__energy>  (10) 
-4.7400000000000002

>  <m_primary>  (10) 
energy

$$$$
10:0
     RDKit          3D

 79 82  0  0  0  0  0  0  0  0999 V2000
   62.6120   33.8590   46.5170 C   0  0  0  0  0  0  0  0  0  0  0  0
   63.7490   33.1010   47.1520 C   0  0  0  0  0  0  0  0  0  0  0  0
   63.3580   31.7760   47.7780 C   0  0  0  0  0  0  0  0  0  0  0  0
   61.9310   31.7680   48.3000 N   0  0  0  0  0  0  0  0  0  0  0  0
   61.6810   30.5390   49.0890 C   0  0  0  0  0  0  0  0  0  0  0  0
   60.7200   29.6030   48.3750 C   0  0  0  0  0  0  0  0  0  0  0  0
   59.3530   30.2110   48.2630 N   0  0  0  0  0  0  0  0  0  0  0  0
   58.8230   30.5810   46.9650 C   0  0  0  0  0  0  0  0  0  0  0  0
   58.5500   29.5150   46.0320 C   0  0  0  0  0  0  0  0  0  0  0  0
   58.7140   28.1830   46.4630 C   0  0  0  0  0  0  0  0  0  0  0  0
   58.4520   27.1360   45.5540 C   0  0  0  0  0  0  0  0  0  0  0  0
   58.1710   27.4160   44.2590 C   0  0  0  0  0  0  0  0  0  0  0  0
   57.9990   28.7550   43.8200 C   0  0  0  0  0  0  0  0  0  0  0  0
   58.2000   29.8380   44.7340 C   0  0  0  0  0  0  0  0  0  0  0  0
   57.9570   31.1620   44.3120 N   0  0  0  0  0  0  0  0  0  0  0  0
   57.3830   31.4400   43.0260 C   0  0  0  0  0  0  0  0  0  0  0  0
   58.3460   32.1920   45.1480 C   0  0  0  0  0  0  0  0  0  0  0  0
   58.3540   33.5730   44.7030 C   0  0  0  0  0  0  0  0  0  0  0  0
   58.6530   34.5690   45.5490 C   0  0  0  0  0  0  0  0  0  0  0  0
   58.9930   34.3640   46.8740 C   0  0  0  0  0  0  0  0  0  0  0  0
   59.1310   33.0330   47.3330 C   0  0  0  0  0  0  0  0  0  0  0  0
   59.6770   32.7640   48.6210 O   0  0  0  0  0  0  0  0  0  0  0  0
   59.2610   33.2190   49.8590 C   0  0  0  0  0  0  0  0  0  0  0  0
   58.1690   32.3370   50.4700 C   0  0  0  0  0  0  0  0  0  0  0  0
   58.0830   32.1680   51.9770 N   0  0  0  0  0  0  0  0  0  0  0  0
   58.7250   33.3050   52.7890 C   0  0  0  0  0  0  0  0  0  0  0  0
   58.8770   30.9180   52.2910 C   0  0  0  0  0  0  0  0  0  0  0  0
   58.4300   30.2840   53.6050 C   0  0  0  0  0  0  0  0  0  0  0  0
   56.9810   29.9210   53.6800 N   0  0  0  0  0  0  0  0  0  0  0  0
   56.8200   28.4320   53.5820 C   0  0  0  0  0  0  0  0  0  0  0  0
   56.3510   30.4380   54.9750 C   0  0  0  0  0  0  0  0  0  0  0  0
   56.2370   30.5380   52.5110 C   0  0  0  0  0  0  0  0  0  0  0  0
   56.6480   32.0110   52.3510 C   0  0  0  0  0  0  0  0  0  0  0  0
   58.7740   31.9460   46.4980 C   0  0  0  0  0  0  0  0  0  0  0  0
   61.9717   34.2859   47.3030 H   0  0  0  0  0  0  0  0  0  0  0  0
   63.0153   34.6695   45.8922 H   0  0  0  0  0  0  0  0  0  0  0  0
   62.0189   33.1749   45.8922 H   0  0  0  0  0  0  0  0  0  0  0  0
   64.5041   32.9038   46.3768 H   0  0  0  0  0  0  0  0  0  0  0  0
   64.1232   33.7325   47.9713 H   0  0  0  0  0  0  0  0  0  0  0  0
   63.4589   30.9858   47.0194 H   0  0  0  0  0  0  0  0  0  0  0  0
   64.0248   31.6063   48.6362 H   0  0  0  0  0  0  0  0  0  0  0  0
   61.2550   31.8190   47.5220 H   0  0  0  0  0  0  0  0  0  0  0  0
   61.7950   32.6000   48.9040 H   0  0  0  0  0  0  0  0  0  0  0  0
   62.6358   30.0167   49.2488 H   0  0  0  0  0  0  0  0  0  0  0  0
   61.2285   30.8314   50.0481 H   0  0  0  0  0  0  0  0  0  0  0  0
   61.1044   29.3960   47.3654 H   0  0  0  0  0  0  0  0  0  0  0  0
   60.6411   28.6736   48.9582 H   0  0  0  0  0  0  0  0  0  0  0  0
   58.8060   30.3740   49.1280 H   0  0  0  0  0  0  0  0  0  0  0  0
   59.0406   27.9635   47.4902 H   0  0  0  0  0  0  0  0  0  0  0  0
   58.4760   26.0913   45.8975 H   0  0  0  0  0  0  0  0  0  0  0  0
   58.0745   26.5927   43.5359 H   0  0  0  0  0  0  0  0  0  0  0  0
   57.7115   28.9601   42.7782 H   0  0  0  0  0  0  0  0  0  0  0  0
   56.4002   31.9160   43.1583 H   0  0  0  0  0  0  0  0  0  0  0  0
   58.0460   32.1168   42.4671 H   0  0  0  0  0  0  0  0  0  0  0  0
   57.2630   30.5002   42.4671 H   0  0  0  0  0  0  0  0  0  0  0  0
   58.1111   33.8062   43.6558 H   0  0  0  0  0  0  0  0  0  0  0  0
   58.6266   35.6014   45.1703 H   0  0  0  0  0  0  0  0  0  0  0  0
   59.1520   35.2143   47.5535 H   0  0  0  0  0  0  0  0  0  0  0  0
   60.1256   33.2322   50.5390 H   0  0  0  0  0  0  0  0  0  0  0  0
   58.8400   34.2259   49.7214 H   0  0  0  0  0  0  0  0  0  0  0  0
   57.2048   32.7524   50.1417 H   0  0  0  0  0  0  0  0  0  0  0  0
   58.4321   31.3288   50.1175 H   0  0  0  0  0  0  0  0  0  0  0  0
   58.6088   33.0992   53.8633 H   0  0  0  0  0  0  0  0  0  0  0  0
   59.7948   33.3730   52.5423 H   0  0  0  0  0  0  0  0  0  0  0  0
   58.2306   34.2562   52.5423 H   0  0  0  0  0  0  0  0  0  0  0  0
   58.7352   30.1912   51.4775 H   0  0  0  0  0  0  0  0  0  0  0  0
   59.9363   31.1983   52.3870 H   0  0  0  0  0  0  0  0  0  0  0  0
   59.0182   29.3670   53.7571 H   0  0  0  0  0  0  0  0  0  0  0  0
   58.5928   31.0464   54.3811 H   0  0  0  0  0  0  0  0  0  0  0  0
   56.7734   28.0009   54.5929 H   0  0  0  0  0  0  0  0  0  0  0  0
   55.8914   28.1984   53.0406 H   0  0  0  0  0  0  0  0  0  0  0  0
   57.6772   28.0053   53.0406 H   0  0  0  0  0  0  0  0  0  0  0  0
   56.8785   30.0051   55.8377 H   0  0  0  0  0  0  0  0  0  0  0  0
   56.4305   31.5346   55.0091 H   0  0  0  0  0  0  0  0  0  0  0  0
   55.2910   30.1460   55.0091 H   0  0  0  0  0  0  0  0  0  0  0  0
   56.4829   29.9882   51.5905 H   0  0  0  0  0  0  0  0  0  0  0  0
   55.1546   30.4813   52.6987 H   0  0  0  0  0  0  0  0  0  0  0  0
   56.0272   32.4668   51.5656 H   0  0  0  0  0  0  0  0  0  0  0  0
   56.5006   32.5057   53.3224 H   0  0  0  0  0  0  0  0  0  0  0  0
  1  2  1  0
  2  3  1  0
  3  4  1  0
  4  5  1  0
  5  6  1  0
  6  7  1  0
  7  8  1  0
  8  9  2  0
  9 10  1  0
 10 11  2  0
 11 12  1  0
 12 13  2  0
 13 14  1  0
 14 15  2  0
 15 16  1  0
 15 17  1  0
 17 18  2  0
 18 19  1  0
 19 20  2  0
 20 21  1  0
 21 22  1  0
 22 23  1  0
 23 24  1  0
 24 25  1  0
 25 26  1  0
 25 27  1  0
 27 28  1  0
 28 29  1  0
 29 30  1  0
 29 31  1  0
 29 32  1  0
 32 33  1  0
 21 34  2  0
 34  8  1  0
 14  9  1  0
 34 17  1  0
 33 25  1  0
  1 35  1  0
  1 36  1  0
  1 37  1  0
  2 38  1  0
  2 39  1  0
  3 40  1  0
  3 41  1  0
  4 42  1  0
  4 43  1  0
  5 44  1  0
  5 45  1  0
  6 46  1  0
  6 47  1  0
  7 48  1  0
 10 49  1  0
 11 50  1  0
 12 51  1  0
 13 52  1  0
 16 53  1  0
 16 54  1  0
 16 55  1  0
 18 56  1  0
 19 57  1  0
 20 58  1  0
 23 59  1  0
 23 60  1  0
 24 61  1  0
 24 62  1  0
 26 63  1  0
 26 64  1  0
 26 65  1  0
 27 66  1  0
 27 67  1  0
 28 68  1  0
 28 69  1  0
 30 70  1  0
 30 71  1  0
 30 72  1  0
 31 73  1  0
 31 74  1  0
 31 75  1  0
 32 76  1  0
 32 77  1  0
 33 78  1  0
 33 79  1  0
M  CHG  4   4   1  15   1  25   1  29   1
M  END
>  <UniqueID>  (11) 
11

>  <SMILES>  (11) 
CCC[NH2+]CCNc1c2ccccc2[n+](C)c2cccc(OCC[N+]3(C)CC[N+](C)(C)CC3)c12

>  <Energy>  (11) 
203.2721806496254

>  <Genealogy>  (11) 
CCC[NH2+]CCNc1c2ccccc2[n+](C)c2cccc(OCC[N+]3(C)CC[N+](C)(C)CC3)c12 (protonated)
CCC[NH2+]CCNc1c2ccccc2[n+](C)c2cccc(OCC[N+]3(C)CC[N+](C)(C)CC3)c12 (3D coordinates assigned)
CCC[NH2+]CCNc1c2ccccc2[n+](C)c2cccc(OCC[N+]3(C)CC[N+](C)(C)CC3)c12 (nonaromatic ring conformer: 203.2721806496254 kcal/mol)

>  <smiles>  (11) 
CCCNCCNc1c2ccccc2[n+](C)c2cccc(OCC[N+]3(C)CC[N+](C)(C)CC3)c12

>  <score_type>  (11) 
oracle

>  <origin>  (11) 
adg

>  <m_score__min__energy>  (11) 
-2.25

>  <m_primary>  (11) 
energy

$$$$
11:0
     RDKit          3D

 51 55  0  0  0  0  0  0  0  0999 V2000
   60.4960   33.8440   49.6970 C   0  0  0  0  0  0  0  0  0  0  0  0
   62.0140   33.8300   49.8670 C   0  0  0  0  0  0  0  0  0  0  0  0
   62.6880   33.8600   48.5570 N   0  0  0  0  0  0  0  0  0  0  0  0
   63.3780   32.5890   48.2590 C   0  0  0  0  0  0  0  0  0  0  0  0
   62.5850   31.6820   47.3030 C   0  0  0  0  0  0  0  0  0  0  0  0
   61.2700   31.3520   47.8540 N   0  0  0  0  0  0  0  0  0  0  0  0
   60.1280   31.1760   47.0030 C   0  0  0  0  0  0  0  0  0  0  0  0
   59.5010   29.9360   46.9080 C   0  0  0  0  0  0  0  0  0  0  0  0
   58.3810   29.7520   46.1140 C   0  0  0  0  0  0  0  0  0  0  0  0
   57.9130   30.7430   45.2890 N   0  0  0  0  0  0  0  0  0  0  0  0
   56.9370   30.4220   44.2340 C   0  0  0  0  0  0  0  0  0  0  0  0
   58.4370   32.0210   45.4270 C   0  0  0  0  0  0  0  0  0  0  0  0
   57.8570   33.1350   44.7720 C   0  0  0  0  0  0  0  0  0  0  0  0
   58.4150   34.4070   44.8910 C   0  0  0  0  0  0  0  0  0  0  0  0
   59.5490   34.6090   45.6700 C   0  0  0  0  0  0  0  0  0  0  0  0
   60.1250   33.5440   46.3570 C   0  0  0  0  0  0  0  0  0  0  0  0
   59.5790   32.2480   46.2640 C   0  0  0  0  0  0  0  0  0  0  0  0
   57.9310   28.3460   46.2730 C   0  0  0  0  0  0  0  0  0  0  0  0
   56.7480   27.6910   45.8690 C   0  0  0  0  0  0  0  0  0  0  0  0
   56.6080   26.3570   46.2650 C   0  0  0  0  0  0  0  0  0  0  0  0
   57.5390   25.7190   47.0380 C   0  0  0  0  0  0  0  0  0  0  0  0
   58.6920   26.3590   47.4980 C   0  0  0  0  0  0  0  0  0  0  0  0
   58.8530   27.6950   47.1020 C   0  0  0  0  0  0  0  0  0  0  0  0
   59.8630   28.6540   47.5130 C   0  0  0  0  0  0  0  0  0  0  0  0
   60.8710   28.4100   48.2270 O   0  0  0  0  0  0  0  0  0  0  0  0
   57.1230   24.4240   47.2800 O   0  0  0  0  0  0  0  0  0  0  0  0
   55.8600   24.2320   46.6260 C   0  0  0  0  0  0  0  0  0  0  0  0
   55.5670   25.4880   45.9970 O   0  0  0  0  0  0  0  0  0  0  0  0
   60.0162   33.8484   50.6868 H   0  0  0  0  0  0  0  0  0  0  0  0
   60.1976   34.7449   49.1409 H   0  0  0  0  0  0  0  0  0  0  0  0
   60.1810   32.9487   49.1409 H   0  0  0  0  0  0  0  0  0  0  0  0
   62.3197   34.7113   50.4500 H   0  0  0  0  0  0  0  0  0  0  0  0
   62.3015   32.9060   50.3901 H   0  0  0  0  0  0  0  0  0  0  0  0
   63.3590   34.6620   48.5230 H   0  0  0  0  0  0  0  0  0  0  0  0
   61.9650   34.0140   47.8160 H   0  0  0  0  0  0  0  0  0  0  0  0
   64.3503   32.8181   47.7984 H   0  0  0  0  0  0  0  0  0  0  0  0
   63.4901   32.0460   49.2090 H   0  0  0  0  0  0  0  0  0  0  0  0
   62.4513   32.2024   46.3432 H   0  0  0  0  0  0  0  0  0  0  0  0
   63.1480   30.7474   47.1629 H   0  0  0  0  0  0  0  0  0  0  0  0
   61.2130   31.0090   48.8400 H   0  0  0  0  0  0  0  0  0  0  0  0
   55.9882   30.1099   44.6949 H   0  0  0  0  0  0  0  0  0  0  0  0
   56.7663   31.3113   43.6095 H   0  0  0  0  0  0  0  0  0  0  0  0
   57.3275   29.6050   43.6095 H   0  0  0  0  0  0  0  0  0  0  0  0
   56.9534   32.9944   44.1607 H   0  0  0  0  0  0  0  0  0  0  0  0
   57.9551   35.2566   44.3651 H   0  0  0  0  0  0  0  0  0  0  0  0
   59.9921   35.6131   45.7436 H   0  0  0  0  0  0  0  0  0  0  0  0
   61.0158   33.7158   46.9791 H   0  0  0  0  0  0  0  0  0  0  0  0
   55.9769   28.2026   45.2742 H   0  0  0  0  0  0  0  0  0  0  0  0
   59.4296   25.8462   48.1328 H   0  0  0  0  0  0  0  0  0  0  0  0
   55.9325   23.4319   45.8746 H   0  0  0  0  0  0  0  0  0  0  0  0
   55.0723   23.9328   47.3331 H   0  0  0  0  0  0  0  0  0  0  0  0
  1  2  1  0
  2  3  1  0
  3  4  1  0
  4  5  1  0
  5  6  1  0
  6  7  1  0
  7  8  2  0
  8  9  1  0
  9 10  2  0
 10 11  1  0
 10 12  1  0
 12 13  2  0
 13 14  1  0
 14 15  2  0
 15 16  1  0
 16 17  2  0
  9 18  1  0
 18 19  2  0
 19 20  1  0
 20 21  2  0
 21 22  1  0
 22 23  2  0
 23 24  1  0
 24 25  2  0
 21 26  1  0
 26 27  1  0
 27 28  1  0
 17  7  1  0
 23 18  1  0
 24  8  1  0
 17 12  1  0
 28 20  1  0
  1 29  1  0
  1 30  1  0
  1 31  1  0
  2 32  1  0
  2 33  1  0
  3 34  1  0
  3 35  1  0
  4 36  1  0
  4 37  1  0
  5 38  1  0
  5 39  1  0
  6 40  1  0
 11 41  1  0
 11 42  1  0
 11 43  1  0
 13 44  1  0
 14 45  1  0
 15 46  1  0
 16 47  1  0
 19 48  1  0
 22 49  1  0
 27 50  1  0
 27 51  1  0
M  CHG  2   3   1  10   1
M  END
>  <UniqueID>  (12) 
12

>  <SMILES>  (12) 
CC[NH2+]CCNc1c2c([n+](C)c3ccccc13)-c1cc3c(cc1C2=O)OCO3

>  <Energy>  (12) 
134.18856281326887

>  <Genealogy>  (12) 
CC[NH2+]CCNc1c2c([n+](C)c3ccccc13)-c1cc3c(cc1C2=O)OCO3 (protonated)
CC[NH2+]CCNc1c2c([n+](C)c3ccccc13)-c1cc3c(cc1C2=O)OCO3 (3D coordinates assigned)
CC[NH2+]CCNc1c2c([n+](C)c3ccccc13)-c1cc3c(cc1C2=O)OCO3 (nonaromatic ring conformer: 134.18856281326887 kcal/mol)

>  <smiles>  (12) 
CCNCCNc1c2c([n+](C)c3ccccc13)-c1cc3c(cc1C2=O)OCO3

>  <score_type>  (12) 
oracle

>  <origin>  (12) 
adg

>  <m_score__min__energy>  (12) 
-5.3300000000000001

>  <m_primary>  (12) 
energy

$$$$
12:0
     RDKit          3D

 61 62  0  0  0  0  0  0  0  0999 V2000
   57.0080   23.0850   46.7960 C   0  0  0  0  0  0  0  0  0  0  0  0
   56.0210   24.1100   47.3600 C   0  0  0  0  0  0  0  0  0  0  0  0
   55.7780   25.2170   46.4110 N   0  0  0  0  0  0  0  0  0  0  0  0
   55.8590   24.7040   45.0300 C   0  0  0  0  0  0  0  0  0  0  0  0
   56.7250   26.3450   46.6070 C   0  0  0  0  0  0  0  0  0  0  0  0
   57.0560   27.0010   45.2570 C   0  0  0  0  0  0  0  0  0  0  0  0
   56.6930   28.3690   45.2460 O   0  0  0  0  0  0  0  0  0  0  0  0
   57.0040   28.9850   44.0110 C   0  0  0  0  0  0  0  0  0  0  0  0
   57.6560   30.3530   44.2240 C   0  0  0  0  0  0  0  0  0  0  0  0
   57.0270   31.0260   45.2880 O   0  0  0  0  0  0  0  0  0  0  0  0
   58.0250   31.5580   46.0430 N   0  0  0  0  0  0  0  0  0  0  0  0
   58.4420   32.9130   45.8530 C   0  0  0  0  0  0  0  0  0  0  0  0
   58.2060   33.5590   44.7680 N   0  0  0  0  0  0  0  0  0  0  0  0
   58.7830   34.8950   44.8630 C   0  0  0  0  0  0  0  0  0  0  0  0
   59.4490   34.9550   46.2480 C   0  0  0  0  0  0  0  0  0  0  0  0
   59.1630   33.6540   46.8210 N   0  0  0  0  0  0  0  0  0  0  0  0
   59.4130   33.2750   48.2150 C   0  0  0  0  0  0  0  0  0  0  0  0
   60.8820   32.8810   48.4510 C   0  0  0  0  0  0  0  0  0  0  0  0
   61.3860   31.8210   47.4570 C   0  0  0  0  0  0  0  0  0  0  0  0
   60.3700   30.7670   47.2520 N   0  0  0  0  0  0  0  0  0  0  0  0
   60.0960   30.0570   48.5140 C   0  0  0  0  0  0  0  0  0  0  0  0
   58.9000   29.0980   48.3390 C   0  0  0  0  0  0  0  0  0  0  0  0
   58.6390   28.7620   46.9300 N   0  0  0  0  0  0  0  0  0  0  0  0
   59.8930   28.5390   46.2020 C   0  0  0  0  0  0  0  0  0  0  0  0
   60.7870   29.8000   46.2120 C   0  0  0  0  0  0  0  0  0  0  0  0
   57.5095   22.5642   47.6250 H   0  0  0  0  0  0  0  0  0  0  0  0
   56.4649   22.3541   46.1788 H   0  0  0  0  0  0  0  0  0  0  0  0
   57.7589   23.6001   46.1788 H   0  0  0  0  0  0  0  0  0  0  0  0
   55.0663   23.6062   47.5716 H   0  0  0  0  0  0  0  0  0  0  0  0
   56.4553   24.5346   48.2771 H   0  0  0  0  0  0  0  0  0  0  0  0
   56.0305   23.6177   45.0519 H   0  0  0  0  0  0  0  0  0  0  0  0
   54.9163   24.9159   44.5043 H   0  0  0  0  0  0  0  0  0  0  0  0
   56.6906   25.1960   44.5043 H   0  0  0  0  0  0  0  0  0  0  0  0
   56.2672   27.0925   47.2716 H   0  0  0  0  0  0  0  0  0  0  0  0
   57.6526   25.9608   47.0564 H   0  0  0  0  0  0  0  0  0  0  0  0
   58.1372   26.9159   45.0730 H   0  0  0  0  0  0  0  0  0  0  0  0
   56.4851   26.4845   44.4713 H   0  0  0  0  0  0  0  0  0  0  0  0
   57.6982   28.3396   43.4528 H   0  0  0  0  0  0  0  0  0  0  0  0
   56.0699   29.1280   43.4479 H   0  0  0  0  0  0  0  0  0  0  0  0
   58.7218   30.2158   44.4591 H   0  0  0  0  0  0  0  0  0  0  0  0
   57.5500   30.9501   43.3063 H   0  0  0  0  0  0  0  0  0  0  0  0
   58.5150   30.9570   46.7420 H   0  0  0  0  0  0  0  0  0  0  0  0
   59.5296   35.0490   44.0700 H   0  0  0  0  0  0  0  0  0  0  0  0
   58.0212   35.6791   44.7412 H   0  0  0  0  0  0  0  0  0  0  0  0
   60.5336   35.1136   46.1556 H   0  0  0  0  0  0  0  0  0  0  0  0
   59.0761   35.7853   46.8658 H   0  0  0  0  0  0  0  0  0  0  0  0
   59.1652   34.1274   48.8646 H   0  0  0  0  0  0  0  0  0  0  0  0
   58.7856   32.4019   48.4474 H   0  0  0  0  0  0  0  0  0  0  0  0
   61.5068   33.7808   48.3510 H   0  0  0  0  0  0  0  0  0  0  0  0
   60.9485   32.4455   49.4589 H   0  0  0  0  0  0  0  0  0  0  0  0
   61.6029   32.3049   46.4933 H   0  0  0  0  0  0  0  0  0  0  0  0
   62.2958   31.3582   47.8670 H   0  0  0  0  0  0  0  0  0  0  0  0
   60.9852   29.4789   48.8058 H   0  0  0  0  0  0  0  0  0  0  0  0
   59.8533   30.7936   49.2941 H   0  0  0  0  0  0  0  0  0  0  0  0
   59.1114   28.1688   48.8884 H   0  0  0  0  0  0  0  0  0  0  0  0
   58.0068   29.6085   48.7284 H   0  0  0  0  0  0  0  0  0  0  0  0
   58.1290   29.5620   46.4830 H   0  0  0  0  0  0  0  0  0  0  0  0
   60.4390   27.7102   46.6764 H   0  0  0  0  0  0  0  0  0  0  0  0
   59.6470   28.2992   45.1570 H   0  0  0  0  0  0  0  0  0  0  0  0
   61.8266   29.4968   46.4053 H   0  0  0  0  0  0  0  0  0  0  0  0
   60.6916   30.2919   45.2328 H   0  0  0  0  0  0  0  0  0  0  0  0
  1  2  1  0
  2  3  1  0
  3  4  1  0
  3  5  1  0
  5  6  1  0
  6  7  1  0
  7  8  1  0
  8  9  1  0
  9 10  1  0
 10 11  1  0
 11 12  1  0
 12 13  2  0
 13 14  1  0
 14 15  1  0
 15 16  1  0
 16 17  1  0
 17 18  1  0
 18 19  1  0
 19 20  1  0
 20 21  1  0
 21 22  1  0
 22 23  1  0
 23 24  1  0
 24 25  1  0
 16 12  1  0
 25 20  1  0
  1 26  1  0
  1 27  1  0
  1 28  1  0
  2 29  1  0
  2 30  1  0
  4 31  1  0
  4 32  1  0
  4 33  1  0
  5 34  1  0
  5 35  1  0
  6 36  1  0
  6 37  1  0
  8 38  1  0
  8 39  1  0
  9 40  1  0
  9 41  1  0
 11 42  1  0
 14 43  1  0
 14 44  1  0
 15 45  1  0
 15 46  1  0
 17 47  1  0
 17 48  1  0
 18 49  1  0
 18 50  1  0
 19 51  1  0
 19 52  1  0
 21 53  1  0
 21 54  1  0
 22 55  1  0
 22 56  1  0
 23 57  1  0
 24 58  1  0
 24 59  1  0
 25 60  1  0
 25 61  1  0
M  END
>  <UniqueID>  (13) 
13

>  <SMILES>  (13) 
CCN(C)CCOCCONC1=NCCN1CCCN1CCNCC1

>  <Energy>  (13) 
72.75020164865346

>  <Genealogy>  (13) 
CCN(C)CCOCCONC1=NCCN1CCCN1CCNCC1 (3D coordinates assigned)
CCN(C)CCOCCONC1=NCCN1CCCN1CCNCC1 (nonaromatic ring conformer: 72.75020164865346 kcal/mol)

>  <smiles>  (13) 
CCN(C)CCOCCONC1=NCCN1CCCN1CCNCC1

>  <score_type>  (13) 
oracle

>  <origin>  (13) 
adg

>  <m_score__min__energy>  (13) 
-6.1500000000000004

>  <m_primary>  (13) 
energy

$$$$
13:0
     RDKit          3D

 33 34  0  0  0  0  0  0  0  0999 V2000
   64.8920   33.0460   49.1640 C   0  0  0  0  0  0  0  0  0  0  0  0
   63.5180   33.3030   48.6200 C   0  0  0  0  0  0  0  0  0  0  0  0
   63.3350   33.5580   47.2540 C   0  0  0  0  0  0  0  0  0  0  0  0
   62.0610   33.8360   46.7540 C   0  0  0  0  0  0  0  0  0  0  0  0
   60.9590   33.9110   47.6180 C   0  0  0  0  0  0  0  0  0  0  0  0
   59.3300   34.2920   46.9420 S   0  0  0  0  0  0  0  0  0  0  0  0
   59.2690   33.0830   45.5440 C   0  0  0  0  0  0  0  0  0  0  0  0
   59.2130   31.5970   45.9810 C   0  0  0  0  0  0  0  0  0  0  0  0
   57.8140   30.9730   45.8720 C   0  0  0  0  0  0  0  0  0  0  0  0
   57.2070   31.2280   44.5560 N   0  0  0  0  0  0  0  0  0  0  0  0
   56.0770   30.4560   44.1220 C   0  0  0  0  0  0  0  0  0  0  0  0
   55.5550   29.5940   44.8780 O   0  0  0  0  0  0  0  0  0  0  0  0
   57.7510   32.2670   43.6750 C   0  0  0  0  0  0  0  0  0  0  0  0
   58.1920   33.4700   44.5090 C   0  0  0  0  0  0  0  0  0  0  0  0
   61.1310   33.6060   48.9830 C   0  0  0  0  0  0  0  0  0  0  0  0
   59.6470   33.4810   50.1930 Br  0  0  0  0  0  0  0  0  0  0  0  0
   62.4100   33.3280   49.4790 C   0  0  0  0  0  0  0  0  0  0  0  0
   64.8582   33.0523   50.2635 H   0  0  0  0  0  0  0  0  0  0  0  0
   65.2476   32.0658   48.8137 H   0  0  0  0  0  0  0  0  0  0  0  0
   65.5779   33.8314   48.8137 H   0  0  0  0  0  0  0  0  0  0  0  0
   64.1985   33.5391   46.5729 H   0  0  0  0  0  0  0  0  0  0  0  0
   61.9210   33.9973   45.6749 H   0  0  0  0  0  0  0  0  0  0  0  0
   60.2412   33.1581   45.0349 H   0  0  0  0  0  0  0  0  0  0  0  0
   59.9004   31.0216   45.3435 H   0  0  0  0  0  0  0  0  0  0  0  0
   59.4977   31.5636   47.0430 H   0  0  0  0  0  0  0  0  0  0  0  0
   57.8952   29.8864   46.0229 H   0  0  0  0  0  0  0  0  0  0  0  0
   57.1731   31.4301   46.6403 H   0  0  0  0  0  0  0  0  0  0  0  0
   55.6617   30.6193   43.1166 H   0  0  0  0  0  0  0  0  0  0  0  0
   58.6158   31.8654   43.1265 H   0  0  0  0  0  0  0  0  0  0  0  0
   56.9755   32.5827   42.9616 H   0  0  0  0  0  0  0  0  0  0  0  0
   58.6028   34.2381   43.8373 H   0  0  0  0  0  0  0  0  0  0  0  0
   57.3147   33.8503   45.0529 H   0  0  0  0  0  0  0  0  0  0  0  0
   62.5471   33.1274   50.5518 H   0  0  0  0  0  0  0  0  0  0  0  0
  1  2  1  0
  2  3  2  0
  3  4  1  0
  4  5  2  0
  5  6  1  0
  6  7  1  0
  7  8  1  0
  8  9  1  0
  9 10  1  0
 10 11  1  0
 11 12  2  0
 10 13  1  0
 13 14  1  0
  5 15  1  0
 15 16  1  0
 15 17  2  0
 17  2  1  0
 14  7  1  0
  1 18  1  0
  1 19  1  0
  1 20  1  0
  3 21  1  0
  4 22  1  0
  7 23  1  0
  8 24  1  0
  8 25  1  0
  9 26  1  0
  9 27  1  0
 11 28  1  0
 13 29  1  0
 13 30  1  0
 14 31  1  0
 14 32  1  0
 17 33  1  0
M  END
>  <UniqueID>  (14) 
14

>  <SMILES>  (14) 
Cc1ccc(SC2CCN(C=O)CC2)c(Br)c1

>  <Energy>  (14) 
33.11255308764631

>  <Genealogy>  (14) 
Cc1ccc(SC2CCN(C=O)CC2)c(Br)c1 (3D coordinates assigned)
Cc1ccc(SC2CCN(C=O)CC2)c(Br)c1 (nonaromatic ring conformer: 33.11255308764631 kcal/mol)

>  <smiles>  (14) 
Cc1ccc(SC2CCN(C=O)CC2)c(Br)c1

>  <score_type>  (14) 
oracle

>  <origin>  (14) 
adg

>  <m_score__min__energy>  (14) 
-7.5199999999999996

>  <m_primary>  (14) 
energy

$$$$
14:0
     RDKit          3D

 55 57  0  0  0  0  0  0  0  0999 V2000
   55.2460   23.8640   44.6840 C   0  0  0  0  0  0  0  0  0  0  0  0
   54.5600   24.8650   45.6070 C   0  0  0  0  0  0  0  0  0  0  0  0
   55.5420   25.4600   46.5200 N   0  0  0  0  0  0  0  0  0  0  0  0
   56.8660   25.5100   45.8900 C   0  0  0  0  0  0  0  0  0  0  0  0
   57.1500   26.9170   45.3340 C   0  0  0  0  0  0  0  0  0  0  0  0
   56.0680   27.8780   45.6110 N   0  0  0  0  0  0  0  0  0  0  0  0
   56.2320   29.1420   44.8810 C   0  0  0  0  0  0  0  0  0  0  0  0
   57.2690   28.9740   43.7690 C   0  0  0  0  0  0  0  0  0  0  0  0
   58.5260   29.6330   44.1210 N   0  0  0  0  0  0  0  0  0  0  0  0
   58.7350   30.2120   45.4220 C   0  0  0  0  0  0  0  0  0  0  0  0
   58.4560   31.5700   45.6430 C   0  0  0  0  0  0  0  0  0  0  0  0
   58.0780   32.4150   44.5780 C   0  0  0  0  0  0  0  0  0  0  0  0
   57.8240   33.7660   44.7960 C   0  0  0  0  0  0  0  0  0  0  0  0
   57.9600   34.3020   46.0710 C   0  0  0  0  0  0  0  0  0  0  0  0
   58.3260   33.4860   47.1410 C   0  0  0  0  0  0  0  0  0  0  0  0
   58.5520   32.0970   46.9580 C   0  0  0  0  0  0  0  0  0  0  0  0
   58.8680   31.2660   48.0170 N   0  0  0  0  0  0  0  0  0  0  0  0
   58.6730   31.7350   49.4070 C   0  0  0  0  0  0  0  0  0  0  0  0
   59.3440   29.9910   47.7750 C   0  0  0  0  0  0  0  0  0  0  0  0
   59.9510   29.2140   48.7960 C   0  0  0  0  0  0  0  0  0  0  0  0
   60.3980   27.9040   48.5480 C   0  0  0  0  0  0  0  0  0  0  0  0
   60.9840   27.1050   49.5430 O   0  0  0  0  0  0  0  0  0  0  0  0
   61.1180   27.4800   50.9090 C   0  0  0  0  0  0  0  0  0  0  0  0
   60.2680   27.3700   47.2700 C   0  0  0  0  0  0  0  0  0  0  0  0
   59.7210   28.1260   46.2390 C   0  0  0  0  0  0  0  0  0  0  0  0
   59.2550   29.4360   46.4730 C   0  0  0  0  0  0  0  0  0  0  0  0
   55.7659   23.1054   45.2875 H   0  0  0  0  0  0  0  0  0  0  0  0
   54.4927   23.3745   44.0493 H   0  0  0  0  0  0  0  0  0  0  0  0
   55.9744   24.3899   44.0493 H   0  0  0  0  0  0  0  0  0  0  0  0
   54.0962   25.6589   45.0031 H   0  0  0  0  0  0  0  0  0  0  0  0
   53.7892   24.3449   46.1947 H   0  0  0  0  0  0  0  0  0  0  0  0
   55.2430   26.4460   46.7180 H   0  0  0  0  0  0  0  0  0  0  0  0
   57.6317   25.2556   46.6377 H   0  0  0  0  0  0  0  0  0  0  0  0
   56.8903   24.7894   45.0592 H   0  0  0  0  0  0  0  0  0  0  0  0
   58.0774   27.2931   45.7906 H   0  0  0  0  0  0  0  0  0  0  0  0
   57.2358   26.8263   44.2411 H   0  0  0  0  0  0  0  0  0  0  0  0
   55.1470   27.4500   45.3580 H   0  0  0  0  0  0  0  0  0  0  0  0
   55.2683   29.4349   44.4390 H   0  0  0  0  0  0  0  0  0  0  0  0
   56.5744   29.9200   45.5791 H   0  0  0  0  0  0  0  0  0  0  0  0
   57.4568   27.9017   43.6113 H   0  0  0  0  0  0  0  0  0  0  0  0
   56.8764   29.4355   42.8509 H   0  0  0  0  0  0  0  0  0  0  0  0
   59.2640   29.7500   43.3900 H   0  0  0  0  0  0  0  0  0  0  0  0
   57.9829   32.0010   43.5633 H   0  0  0  0  0  0  0  0  0  0  0  0
   57.5156   34.4096   43.9590 H   0  0  0  0  0  0  0  0  0  0  0  0
   57.7782   35.3741   46.2368 H   0  0  0  0  0  0  0  0  0  0  0  0
   58.4413   33.9259   48.1426 H   0  0  0  0  0  0  0  0  0  0  0  0
   58.9987   30.9518   50.1073 H   0  0  0  0  0  0  0  0  0  0  0  0
   59.2670   32.6457   49.5734 H   0  0  0  0  0  0  0  0  0  0  0  0
   57.6084   31.9561   49.5734 H   0  0  0  0  0  0  0  0  0  0  0  0
   60.0741   29.6449   49.8006 H   0  0  0  0  0  0  0  0  0  0  0  0
   60.8175   26.6390   51.5513 H   0  0  0  0  0  0  0  0  0  0  0  0
   62.1658   27.7432   51.1159 H   0  0  0  0  0  0  0  0  0  0  0  0
   60.4743   28.3476   51.1159 H   0  0  0  0  0  0  0  0  0  0  0  0
   60.6010   26.3402   47.0732 H   0  0  0  0  0  0  0  0  0  0  0  0
   59.6510   27.6968   45.2286 H   0  0  0  0  0  0  0  0  0  0  0  0
  1  2  1  0
  2  3  1  0
  3  4  1  0
  4  5  1  0
  5  6  1  0
  6  7  1  0
  7  8  1  0
  8  9  1  0
  9 10  1  0
 10 11  2  0
 11 12  1  0
 12 13  2  0
 13 14  1  0
 14 15  2  0
 15 16  1  0
 16 17  2  0
 17 18  1  0
 17 19  1  0
 19 20  2  0
 20 21  1  0
 21 22  1  0
 22 23  1  0
 21 24  2  0
 24 25  1  0
 25 26  2  0
 26 10  1  0
 16 11  1  0
 26 19  1  0
  1 27  1  0
  1 28  1  0
  1 29  1  0
  2 30  1  0
  2 31  1  0
  3 32  1  0
  4 33  1  0
  4 34  1  0
  5 35  1  0
  5 36  1  0
  6 37  1  0
  7 38  1  0
  7 39  1  0
  8 40  1  0
  8 41  1  0
  9 42  1  0
 12 43  1  0
 13 44  1  0
 14 45  1  0
 15 46  1  0
 18 47  1  0
 18 48  1  0
 18 49  1  0
 20 50  1  0
 23 51  1  0
 23 52  1  0
 23 53  1  0
 24 54  1  0
 25 55  1  0
M  CHG  1  17   1
M  END
>  <UniqueID>  (15) 
15

>  <SMILES>  (15) 
CCNCCNCCNc1c2ccccc2[n+](C)c2cc(OC)ccc12

>  <Energy>  (15) 
73.73480463856859

>  <Genealogy>  (15) 
CCNCCNCCNc1c2ccccc2[n+](C)c2cc(OC)ccc12 (3D coordinates assigned)
CCNCCNCCNc1c2ccccc2[n+](C)c2cc(OC)ccc12 (optimized conformer: 73.73480463856859 kcal/mol)

>  <smiles>  (15) 
CCNCCNCCNc1c2ccccc2[n+](C)c2cc(OC)ccc12

>  <score_type>  (15) 
oracle

>  <origin>  (15) 
adg

>  <m_score__min__energy>  (15) 
-6.0700000000000003

>  <m_primary>  (15) 
energy

$$$$
15:0
     RDKit          3D

 33 35  0  0  0  0  0  0  0  0999 V2000
   57.0010   34.5880   44.8760 C   0  0  0  0  0  0  0  0  0  0  0  0
   58.1800   33.9480   45.5440 C   0  0  0  0  0  0  0  0  0  0  0  0
   59.2950   34.7110   45.9550 C   0  0  0  0  0  0  0  0  0  0  0  0
   60.4160   34.0860   46.5470 C   0  0  0  0  0  0  0  0  0  0  0  0
   60.4450   32.6900   46.7210 C   0  0  0  0  0  0  0  0  0  0  0  0
   59.3390   31.9610   46.2910 C   0  0  0  0  0  0  0  0  0  0  0  0
   59.0900   30.6090   46.3170 C   0  0  0  0  0  0  0  0  0  0  0  0
   57.8290   30.4800   45.7370 C   0  0  0  0  0  0  0  0  0  0  0  0
   57.1020   29.2150   45.5440 C   0  0  0  0  0  0  0  0  0  0  0  0
   55.9590   29.2350   45.0130 O   0  0  0  0  0  0  0  0  0  0  0  0
   57.6950   27.9580   45.9130 N   0  0  0  0  0  0  0  0  0  0  0  0
   57.3870   26.7610   45.1280 C   0  0  0  0  0  0  0  0  0  0  0  0
   58.5200   25.7410   45.2780 C   0  0  0  0  0  0  0  0  0  0  0  0
   58.7970   25.4910   46.6440 O   0  0  0  0  0  0  0  0  0  0  0  0
   59.2840   26.6690   47.2580 C   0  0  0  0  0  0  0  0  0  0  0  0
   58.2080   27.7580   47.2730 C   0  0  0  0  0  0  0  0  0  0  0  0
   57.3520   31.6640   45.3950 O   0  0  0  0  0  0  0  0  0  0  0  0
   58.2490   32.5620   45.7210 C   0  0  0  0  0  0  0  0  0  0  0  0
   56.3063   34.9651   45.6409 H   0  0  0  0  0  0  0  0  0  0  0  0
   57.3442   35.4237   44.2484 H   0  0  0  0  0  0  0  0  0  0  0  0
   56.4872   33.8450   44.2484 H   0  0  0  0  0  0  0  0  0  0  0  0
   59.2910   35.8018   45.8131 H   0  0  0  0  0  0  0  0  0  0  0  0
   61.2716   34.6951   46.8739 H   0  0  0  0  0  0  0  0  0  0  0  0
   61.3112   32.1917   47.1807 H   0  0  0  0  0  0  0  0  0  0  0  0
   59.7385   29.8106   46.7069 H   0  0  0  0  0  0  0  0  0  0  0  0
   56.4466   26.3189   45.4887 H   0  0  0  0  0  0  0  0  0  0  0  0
   57.2823   27.0367   44.0683 H   0  0  0  0  0  0  0  0  0  0  0  0
   58.2237   24.7995   44.7924 H   0  0  0  0  0  0  0  0  0  0  0  0
   59.4253   26.1490   44.8047 H   0  0  0  0  0  0  0  0  0  0  0  0
   59.5806   26.4406   48.2923 H   0  0  0  0  0  0  0  0  0  0  0  0
   60.1483   27.0347   46.6842 H   0  0  0  0  0  0  0  0  0  0  0  0
   57.3843   27.4504   47.9340 H   0  0  0  0  0  0  0  0  0  0  0  0
   58.6433   28.6982   47.6425 H   0  0  0  0  0  0  0  0  0  0  0  0
  1  2  1  0
  2  3  2  0
  3  4  1  0
  4  5  2  0
  5  6  1  0
  6  7  1  0
  7  8  2  0
  8  9  1  0
  9 10  2  0
  9 11  1  0
 11 12  1  0
 12 13  1  0
 13 14  1  0
 14 15  1  0
 15 16  1  0
  8 17  1  0
 17 18  1  0
 18  2  1  0
 18  6  2  0
 16 11  1  0
  1 19  1  0
  1 20  1  0
  1 21  1  0
  3 22  1  0
  4 23  1  0
  5 24  1  0
  7 25  1  0
 12 26  1  0
 12 27  1  0
 13 28  1  0
 13 29  1  0
 15 30  1  0
 15 31  1  0
 16 32  1  0
 16 33  1  0
M  END
>  <UniqueID>  (16) 
16

>  <SMILES>  (16) 
Cc1cccc2cc(C(=O)N3CCOCC3)oc12

>  <Energy>  (16) 
70.01638719997257

>  <Genealogy>  (16) 
Cc1cccc2cc(C(=O)N3CCOCC3)oc12 (3D coordinates assigned)
Cc1cccc2cc(C(=O)N3CCOCC3)oc12 (nonaromatic ring conformer: 70.01638719997257 kcal/mol)

>  <smiles>  (16) 
Cc1cccc2cc(C(=O)N3CCOCC3)oc12

>  <score_type>  (16) 
oracle

>  <origin>  (16) 
adg

>  <m_score__min__energy>  (16) 
-6.6900000000000004

>  <m_primary>  (16) 
energy

$$$$
16:0
     RDKit          3D

 38 38  0  0  0  0  0  0  0  0999 V2000
   59.3560   34.6460   46.0630 C   0  0  0  0  0  0  0  0  0  0  0  0
   58.4240   34.3640   44.8910 C   0  0  0  0  0  0  0  0  0  0  0  0
   57.3350   32.9460   45.2660 S   0  0  0  0  0  0  0  0  0  0  0  0
   57.7070   32.0030   43.7430 C   0  0  0  0  0  0  0  0  0  0  0  0
   58.1550   30.5720   44.0700 C   0  0  0  0  0  0  0  0  0  0  0  0
   57.1230   29.5010   43.6780 C   0  0  0  0  0  0  0  0  0  0  0  0
   56.4360   28.9120   44.8700 C   0  0  0  0  0  0  0  0  0  0  0  0
   55.3010   29.3380   45.2140 O   0  0  0  0  0  0  0  0  0  0  0  0
   57.0890   27.8900   45.6310 N   0  0  0  0  0  0  0  0  0  0  0  0
   56.3790   26.8190   46.3220 C   0  0  0  0  0  0  0  0  0  0  0  0
   56.3030   25.5910   45.4560 C   0  0  0  0  0  0  0  0  0  0  0  0
   55.1930   24.7370   45.5430 C   0  0  0  0  0  0  0  0  0  0  0  0
   55.1180   23.5920   44.7450 C   0  0  0  0  0  0  0  0  0  0  0  0
   56.1510   23.2800   43.8520 C   0  0  0  0  0  0  0  0  0  0  0  0
   56.0230   22.1260   43.0640 O   0  0  0  0  0  0  0  0  0  0  0  0
   57.0100   21.1040   42.9670 C   0  0  0  0  0  0  0  0  0  0  0  0
   57.2730   24.1300   43.7740 C   0  0  0  0  0  0  0  0  0  0  0  0
   57.3450   25.2760   44.5690 C   0  0  0  0  0  0  0  0  0  0  0  0
   58.8168   34.4828   47.0078 H   0  0  0  0  0  0  0  0  0  0  0  0
   60.2221   33.9697   46.0137 H   0  0  0  0  0  0  0  0  0  0  0  0
   59.7019   35.6890   46.0137 H   0  0  0  0  0  0  0  0  0  0  0  0
   57.8064   35.2535   44.6975 H   0  0  0  0  0  0  0  0  0  0  0  0
   59.0297   34.1227   44.0050 H   0  0  0  0  0  0  0  0  0  0  0  0
   56.8033   31.9616   43.1172 H   0  0  0  0  0  0  0  0  0  0  0  0
   58.5252   32.5105   43.2110 H   0  0  0  0  0  0  0  0  0  0  0  0
   59.0909   30.3681   43.5292 H   0  0  0  0  0  0  0  0  0  0  0  0
   58.2824   30.5144   45.1611 H   0  0  0  0  0  0  0  0  0  0  0  0
   56.3666   29.9607   43.0249 H   0  0  0  0  0  0  0  0  0  0  0  0
   57.6585   28.6898   43.1629 H   0  0  0  0  0  0  0  0  0  0  0  0
   56.9119   26.5731   47.2523 H   0  0  0  0  0  0  0  0  0  0  0  0
   55.3572   27.1582   46.5478 H   0  0  0  0  0  0  0  0  0  0  0  0
   54.3773   24.9700   46.2432 H   0  0  0  0  0  0  0  0  0  0  0  0
   54.2416   22.9313   44.8188 H   0  0  0  0  0  0  0  0  0  0  0  0
   57.3132   20.7901   43.9767 H   0  0  0  0  0  0  0  0  0  0  0  0
   56.5935   20.2423   42.4247 H   0  0  0  0  0  0  0  0  0  0  0  0
   57.8856   21.4902   42.4247 H   0  0  0  0  0  0  0  0  0  0  0  0
   58.0953   23.8896   43.0840 H   0  0  0  0  0  0  0  0  0  0  0  0
   58.2227   25.9354   44.4999 H   0  0  0  0  0  0  0  0  0  0  0  0
  1  2  1  0
  2  3  1  0
  3  4  1  0
  4  5  1  0
  5  6  1  0
  6  7  1  0
  7  8  2  0
  7  9  1  0
  9 10  1  0
 10 11  1  0
 11 12  2  0
 12 13  1  0
 13 14  2  0
 14 15  1  0
 15 16  1  0
 14 17  1  0
 17 18  2  0
 18 11  1  0
  1 19  1  0
  1 20  1  0
  1 21  1  0
  2 22  1  0
  2 23  1  0
  4 24  1  0
  4 25  1  0
  5 26  1  0
  5 27  1  0
  6 28  1  0
  6 29  1  0
 10 30  1  0
 10 31  1  0
 12 32  1  0
 13 33  1  0
 16 34  1  0
 16 35  1  0
 16 36  1  0
 17 37  1  0
 18 38  1  0
M  CHG  1   9  -1
M  END
>  <UniqueID>  (17) 
17

>  <SMILES>  (17) 
CCSCCCC(=O)[N-]Cc1ccc(OC)cc1

>  <Energy>  (17) 
22.991207659600175

>  <Genealogy>  (17) 
CCSCCCC(=O)[N-]Cc1ccc(OC)cc1 (protonated)
CCSCCCC(=O)[N-]Cc1ccc(OC)cc1 (3D coordinates assigned)
CCSCCCC(=O)[N-]Cc1ccc(OC)cc1 (optimized conformer: 22.991207659600175 kcal/mol)

>  <smiles>  (17) 
CCSCCCC(=O)NCc1ccc(OC)cc1

>  <score_type>  (17) 
oracle

>  <origin>  (17) 
adg

>  <m_score__min__energy>  (17) 
-8.4100000000000001

>  <m_primary>  (17) 
energy

$$$$
17:0
     RDKit          3D

 36 38  0  0  0  0  0  0  0  0999 V2000
   62.4310   32.2280   47.5120 C   0  0  0  0  0  0  0  0  0  0  0  0
   61.1220   31.7920   47.0330 N   0  0  0  0  0  0  0  0  0  0  0  0
   60.7520   30.5240   46.8960 N   0  0  0  0  0  0  0  0  0  0  0  0
   59.4860   30.4860   46.4160 C   0  0  0  0  0  0  0  0  0  0  0  0
   58.7670   29.2670   46.1410 N   0  0  0  0  0  0  0  0  0  0  0  0
   57.6560   29.2920   45.1790 C   0  0  0  0  0  0  0  0  0  0  0  0
   57.3650   27.8840   44.6500 C   0  0  0  0  0  0  0  0  0  0  0  0
   57.0650   26.8730   45.7860 C   0  0  0  0  0  0  0  0  0  0  0  0
   55.6200   26.7600   45.9950 N   0  0  0  0  0  0  0  0  0  0  0  0
   57.7580   27.2460   47.1190 C   0  0  0  0  0  0  0  0  0  0  0  0
   59.0490   28.0400   46.9010 C   0  0  0  0  0  0  0  0  0  0  0  0
   59.0400   31.7920   46.2530 C   0  0  0  0  0  0  0  0  0  0  0  0
   57.8250   32.3510   45.8510 C   0  0  0  0  0  0  0  0  0  0  0  0
   57.7240   33.7540   45.8300 C   0  0  0  0  0  0  0  0  0  0  0  0
   58.8180   34.5590   46.2160 C   0  0  0  0  0  0  0  0  0  0  0  0
   60.0240   33.9700   46.6370 C   0  0  0  0  0  0  0  0  0  0  0  0
   60.0970   32.5770   46.6460 C   0  0  0  0  0  0  0  0  0  0  0  0
   62.4369   32.2300   48.6120 H   0  0  0  0  0  0  0  0  0  0  0  0
   63.2048   31.5391   47.1424 H   0  0  0  0  0  0  0  0  0  0  0  0
   62.6372   33.2433   47.1424 H   0  0  0  0  0  0  0  0  0  0  0  0
   61.3590   29.7020   47.1130 H   0  0  0  0  0  0  0  0  0  0  0  0
   56.7565   29.6837   45.6765 H   0  0  0  0  0  0  0  0  0  0  0  0
   57.9358   29.9366   44.3327 H   0  0  0  0  0  0  0  0  0  0  0  0
   56.4931   27.9318   43.9810 H   0  0  0  0  0  0  0  0  0  0  0  0
   58.2631   27.5341   44.1199 H   0  0  0  0  0  0  0  0  0  0  0  0
   57.4752   25.9043   45.4644 H   0  0  0  0  0  0  0  0  0  0  0  0
   55.1440   27.4690   45.3900 H   0  0  0  0  0  0  0  0  0  0  0  0
   55.4050   27.0390   46.9800 H   0  0  0  0  0  0  0  0  0  0  0  0
   57.0657   27.8545   47.7194 H   0  0  0  0  0  0  0  0  0  0  0  0
   58.0214   26.3106   47.6344 H   0  0  0  0  0  0  0  0  0  0  0  0
   59.4803   28.3078   47.8768 H   0  0  0  0  0  0  0  0  0  0  0  0
   59.7601   27.4213   46.3339 H   0  0  0  0  0  0  0  0  0  0  0  0
   56.9754   31.7155   45.5605 H   0  0  0  0  0  0  0  0  0  0  0  0
   56.7844   34.2282   45.5100 H   0  0  0  0  0  0  0  0  0  0  0  0
   58.7265   35.6548   46.1873 H   0  0  0  0  0  0  0  0  0  0  0  0
   60.8800   34.5866   46.9484 H   0  0  0  0  0  0  0  0  0  0  0  0
  1  2  1  0
  2  3  1  0
  3  4  2  0
  4  5  1  0
  5  6  1  0
  6  7  1  0
  7  8  1  0
  8  9  1  0
  8 10  1  0
 10 11  1  0
  4 12  1  0
 12 13  2  0
 13 14  1  0
 14 15  2  0
 15 16  1  0
 16 17  2  0
 17  2  1  0
 11  5  1  0
 17 12  1  0
  1 18  1  0
  1 19  1  0
  1 20  1  0
  3 21  1  0
  6 22  1  0
  6 23  1  0
  7 24  1  0
  7 25  1  0
  8 26  1  0
  9 27  1  0
  9 28  1  0
 10 29  1  0
 10 30  1  0
 11 31  1  0
 11 32  1  0
 13 33  1  0
 14 34  1  0
 15 35  1  0
 16 36  1  0
M  CHG  1   3   1
M  END
>  <UniqueID>  (18) 
18

>  <SMILES>  (18) 
Cn1[nH+]c(N2CCC(N)CC2)c2ccccc21

>  <Energy>  (18) 
80.15982743230431

>  <Genealogy>  (18) 
Cn1[nH+]c(N2CCC(N)CC2)c2ccccc21 (protonated)
Cn1[nH+]c(N2CCC(N)CC2)c2ccccc21 (3D coordinates assigned)
Cn1[nH+]c(N2CCC(N)CC2)c2ccccc21 (nonaromatic ring conformer: 80.15982743230431 kcal/mol)

>  <smiles>  (18) 
Cn1nc(N2CCC(N)CC2)c2ccccc21

>  <score_type>  (18) 
oracle

>  <origin>  (18) 
adg

>  <m_score__min__energy>  (18) 
-5.3700000000000001

>  <m_primary>  (18) 
energy

$$$$
18:0
     RDKit          3D

 50 53  0  0  0  0  0  0  0  0999 V2000
   60.5313   30.4326   50.8438 H   0  0  0  0  0  0  0  0  0  0  0  0
   60.0160   31.1270   50.1640 C   0  0  0  0  0  0  0  0  0  0  0  0
   58.6640   31.4200   50.3510 C   0  0  0  0  0  0  0  0  0  0  0  0
   57.9020   30.8770   51.4930 C   0  0  0  0  0  0  0  0  0  0  0  0
   56.5230   30.8550   51.6250 C   0  0  0  0  0  0  0  0  0  0  0  0
   55.7981   31.2374   50.8913 H   0  0  0  0  0  0  0  0  0  0  0  0
   56.2240   30.2840   52.8080 N   0  0  0  0  0  0  0  0  0  0  0  0
   54.8890   30.1370   53.3740 C   0  0  0  0  0  0  0  0  0  0  0  0
   54.9535   30.1441   54.4721 H   0  0  0  0  0  0  0  0  0  0  0  0
   54.2547   30.9707   53.0385 H   0  0  0  0  0  0  0  0  0  0  0  0
   54.4513   29.1852   53.0385 H   0  0  0  0  0  0  0  0  0  0  0  0
   57.3430   29.9650   53.4360 N   0  0  0  0  0  0  0  0  0  0  0  0
   57.3950   29.5330   54.3860 H   0  0  0  0  0  0  0  0  0  0  0  0
   58.3880   30.3050   52.6610 C   0  0  0  0  0  0  0  0  0  0  0  0
   59.4488   30.1552   52.9103 H   0  0  0  0  0  0  0  0  0  0  0  0
   58.0180   32.1740   49.4240 N   0  0  0  0  0  0  0  0  0  0  0  0
   58.6250   32.7160   48.3330 C   0  0  0  0  0  0  0  0  0  0  0  0
   57.8240   33.1410   47.3920 N   0  0  0  0  0  0  0  0  0  0  0  0
   58.0430   33.3810   45.9660 C   0  0  0  0  0  0  0  0  0  0  0  0
   57.1030   33.7163   45.5034 H   0  0  0  0  0  0  0  0  0  0  0  0
   58.8138   34.1559   45.8421 H   0  0  0  0  0  0  0  0  0  0  0  0
   58.5140   32.0800   45.2840 C   0  0  0  0  0  0  0  0  0  0  0  0
   58.9015   32.3381   44.2874 H   0  0  0  0  0  0  0  0  0  0  0  0
   59.2738   31.6424   45.9482 H   0  0  0  0  0  0  0  0  0  0  0  0
   57.4660   31.0460   45.1160 N   0  0  0  0  0  0  0  0  0  0  0  0
   57.9380   29.6630   45.2930 C   0  0  0  0  0  0  0  0  0  0  0  0
   58.5977   29.3917   44.4557 H   0  0  0  0  0  0  0  0  0  0  0  0
   58.4925   29.5853   46.2398 H   0  0  0  0  0  0  0  0  0  0  0  0
   56.7310   28.7030   45.3270 C   0  0  0  0  0  0  0  0  0  0  0  0
   56.9557   27.8339   44.6912 H   0  0  0  0  0  0  0  0  0  0  0  0
   56.5698   28.4121   46.3755 H   0  0  0  0  0  0  0  0  0  0  0  0
   55.5330   29.3060   44.8630 O   0  0  0  0  0  0  0  0  0  0  0  0
   55.7710   29.9830   43.6450 C   0  0  0  0  0  0  0  0  0  0  0  0
   56.2587   29.2956   42.9381 H   0  0  0  0  0  0  0  0  0  0  0  0
   54.8099   30.3284   43.2364 H   0  0  0  0  0  0  0  0  0  0  0  0
   56.6820   31.2040   43.8750 C   0  0  0  0  0  0  0  0  0  0  0  0
   57.3709   31.3056   43.0235 H   0  0  0  0  0  0  0  0  0  0  0  0
   56.0527   32.1015   43.9671 H   0  0  0  0  0  0  0  0  0  0  0  0
   60.0500   32.6060   48.2240 C   0  0  0  0  0  0  0  0  0  0  0  0
   60.8900   33.4000   47.4010 C   0  0  0  0  0  0  0  0  0  0  0  0
   60.4540   34.4570   46.8750 O   0  0  0  0  0  0  0  0  0  0  0  0
   62.2160   33.0840   47.2590 N   0  0  0  0  0  0  0  0  0  0  0  0
   63.0750   33.8560   46.3520 C   0  0  0  0  0  0  0  0  0  0  0  0
   63.7659   34.4769   46.9412 H   0  0  0  0  0  0  0  0  0  0  0  0
   63.6516   33.1667   45.7177 H   0  0  0  0  0  0  0  0  0  0  0  0
   62.4509   34.5027   45.7177 H   0  0  0  0  0  0  0  0  0  0  0  0
   62.7770   32.1180   48.0410 C   0  0  0  0  0  0  0  0  0  0  0  0
   63.8364   31.8530   47.9087 H   0  0  0  0  0  0  0  0  0  0  0  0
   62.0360   31.4840   48.9790 N   0  0  0  0  0  0  0  0  0  0  0  0
   60.7090   31.7210   49.1090 C   0  0  0  0  0  0  0  0  0  0  0  0
  1  2  1  0
  2  3  2  0
  3  4  1  0
  4  5  2  0
  5  6  1  0
  5  7  1  0
  7  8  1  0
  8  9  1  0
  8 10  1  0
  8 11  1  0
  7 12  1  0
 12 13  1  0
 12 14  2  0
 14 15  1  0
  3 16  1  0
 16 17  1  0
 17 18  2  0
 18 19  1  0
 19 20  1  0
 19 21  1  0
 19 22  1  0
 22 23  1  0
 22 24  1  0
 22 25  1  0
 25 26  1  0
 26 27  1  0
 26 28  1  0
 26 29  1  0
 29 30  1  0
 29 31  1  0
 29 32  1  0
 32 33  1  0
 33 34  1  0
 33 35  1  0
 33 36  1  0
 36 37  1  0
 36 38  1  0
 17 39  1  0
 39 40  1  0
 40 41  2  0
 40 42  1  0
 42 43  1  0
 43 44  1  0
 43 45  1  0
 43 46  1  0
 42 47  1  0
 47 48  1  0
 47 49  2  0
 49 50  1  0
 50  2  1  0
 14  4  1  0
 36 25  1  0
 50 39  2  0
M  CHG  2  12   1  16  -1
M  END
>  <UniqueID>  (19) 
19

>  <SMILES>  (19) 
Cn1cc(-c2cc3ncn(C)c(=O)c3/c(=N\CCN3CCOCC3)[n-]2)c[nH+]1

>  <Energy>  (19) 
123.00326394597954

>  <Genealogy>  (19) 
Cn1cc(-c2cc3ncn(C)c(=O)c3c(=NCCN3CCOCC3)[n-]2)c[nH+]1 (protonated)
Cn1cc(-c2cc3ncn(C)c(=O)c3/c(=N\CCN3CCOCC3)[n-]2)c[nH+]1 (cis-trans isomerization)
Cn1cc(-c2cc3ncn(C)c(=O)c3/c(=N\CCN3CCOCC3)[n-]2)c[nH+]1 (3D coordinates assigned)
Cn1cc(-c2cc3ncn(C)c(=O)c3/c(=N\CCN3CCOCC3)[n-]2)c[nH+]1 (nonaromatic ring conformer: 123.00326394597954 kcal/mol)

>  <smiles>  (19) 
Cn1cc(-c2cc3ncn(C)c(=O)c3c(=NCCN3CCOCC3)[nH]2)cn1

>  <score_type>  (19) 
oracle

>  <origin>  (19) 
adg

>  <m_score__min__energy>  (19) 
-7.5099999999999998

>  <m_primary>  (19) 
energy

$$$$
19:0
     RDKit          3D

 53 54  0  0  0  0  0  0  0  0999 V2000
   60.4290   30.3310   47.8670 C   0  0  0  0  0  0  0  0  0  0  0  0
   58.9240   30.1170   47.7390 C   0  0  0  0  0  0  0  0  0  0  0  0
   58.5730   29.7520   46.3470 N   0  0  0  0  0  0  0  0  0  0  0  0
   59.7780   29.7040   45.4870 C   0  0  0  0  0  0  0  0  0  0  0  0
   60.2360   28.2600   45.2990 C   0  0  0  0  0  0  0  0  0  0  0  0
   57.8340   28.4680   46.3040 C   0  0  0  0  0  0  0  0  0  0  0  0
   56.9970   28.3800   45.0290 C   0  0  0  0  0  0  0  0  0  0  0  0
   55.8520   29.1920   45.1800 O   0  0  0  0  0  0  0  0  0  0  0  0
   55.6950   30.0500   44.0650 C   0  0  0  0  0  0  0  0  0  0  0  0
   57.0490   30.4570   43.4580 C   0  0  0  0  0  0  0  0  0  0  0  0
   57.4100   31.9240   43.7270 C   0  0  0  0  0  0  0  0  0  0  0  0
   57.2520   32.2410   45.1530 N   0  0  0  0  0  0  0  0  0  0  0  0
   57.6960   33.6060   45.4690 C   0  0  0  0  0  0  0  0  0  0  0  0
   58.8390   33.6150   46.4550 C   0  0  0  0  0  0  0  0  0  0  0  0
   58.5850   33.6170   47.8360 C   0  0  0  0  0  0  0  0  0  0  0  0
   59.6410   33.6580   48.7510 C   0  0  0  0  0  0  0  0  0  0  0  0
   60.9670   33.7030   48.2980 C   0  0  0  0  0  0  0  0  0  0  0  0
   62.0340   33.7490   49.2080 C   0  0  0  0  0  0  0  0  0  0  0  0
   63.3510   33.7970   48.7440 C   0  0  0  0  0  0  0  0  0  0  0  0
   63.6140   33.8000   47.3710 C   0  0  0  0  0  0  0  0  0  0  0  0
   62.5590   33.7540   46.4540 C   0  0  0  0  0  0  0  0  0  0  0  0
   61.2320   33.7050   46.9060 C   0  0  0  0  0  0  0  0  0  0  0  0
   60.1650   33.6610   45.9960 C   0  0  0  0  0  0  0  0  0  0  0  0
   60.7046   30.3702   48.9312 H   0  0  0  0  0  0  0  0  0  0  0  0
   60.9603   29.4994   47.3810 H   0  0  0  0  0  0  0  0  0  0  0  0
   60.7074   31.2778   47.3810 H   0  0  0  0  0  0  0  0  0  0  0  0
   58.6138   29.3071   48.4157 H   0  0  0  0  0  0  0  0  0  0  0  0
   58.4060   31.0501   48.0056 H   0  0  0  0  0  0  0  0  0  0  0  0
   59.5412   30.1405   44.5055 H   0  0  0  0  0  0  0  0  0  0  0  0
   60.5848   30.2761   45.9684 H   0  0  0  0  0  0  0  0  0  0  0  0
   60.3846   27.7914   46.2830 H   0  0  0  0  0  0  0  0  0  0  0  0
   59.4706   27.7025   44.7392 H   0  0  0  0  0  0  0  0  0  0  0  0
   61.1828   28.2456   44.7392 H   0  0  0  0  0  0  0  0  0  0  0  0
   58.5523   27.6351   46.3247 H   0  0  0  0  0  0  0  0  0  0  0  0
   57.1653   28.4109   47.1755 H   0  0  0  0  0  0  0  0  0  0  0  0
   57.5900   28.7326   44.1723 H   0  0  0  0  0  0  0  0  0  0  0  0
   56.6952   27.3373   44.8511 H   0  0  0  0  0  0  0  0  0  0  0  0
   55.1030   29.5304   43.2972 H   0  0  0  0  0  0  0  0  0  0  0  0
   55.1868   30.9636   44.4072 H   0  0  0  0  0  0  0  0  0  0  0  0
   57.8332   29.8181   43.8903 H   0  0  0  0  0  0  0  0  0  0  0  0
   56.9719   30.3317   42.3679 H   0  0  0  0  0  0  0  0  0  0  0  0
   58.4548   32.0996   43.4310 H   0  0  0  0  0  0  0  0  0  0  0  0
   56.7363   32.5684   43.1431 H   0  0  0  0  0  0  0  0  0  0  0  0
   57.8050   31.5560   45.7210 H   0  0  0  0  0  0  0  0  0  0  0  0
   58.0240   34.0966   44.5407 H   0  0  0  0  0  0  0  0  0  0  0  0
   56.8500   34.1414   45.9247 H   0  0  0  0  0  0  0  0  0  0  0  0
   57.5476   33.5861   48.2004 H   0  0  0  0  0  0  0  0  0  0  0  0
   59.4308   33.6549   49.8307 H   0  0  0  0  0  0  0  0  0  0  0  0
   61.8331   33.7473   50.2895 H   0  0  0  0  0  0  0  0  0  0  0  0
   64.1839   33.8326   49.4616 H   0  0  0  0  0  0  0  0  0  0  0  0
   64.6528   33.8386   47.0112 H   0  0  0  0  0  0  0  0  0  0  0  0
   62.7706   33.7563   45.3745 H   0  0  0  0  0  0  0  0  0  0  0  0
   60.3689   33.6626   44.9151 H   0  0  0  0  0  0  0  0  0  0  0  0
  1  2  1  0
  2  3  1  0
  3  4  1  0
  4  5  1  0
  3  6  1  0
  6  7  1  0
  7  8  1  0
  8  9  1  0
  9 10  1  0
 10 11  1  0
 11 12  1  0
 12 13  1  0
 13 14  1  0
 14 15  2  0
 15 16  1  0
 16 17  2  0
 17 18  1  0
 18 19  2  0
 19 20  1  0
 20 21  2  0
 21 22  1  0
 22 23  2  0
 23 14  1  0
 22 17  1  0
  1 24  1  0
  1 25  1  0
  1 26  1  0
  2 27  1  0
  2 28  1  0
  4 29  1  0
  4 30  1  0
  5 31  1  0
  5 32  1  0
  5 33  1  0
  6 34  1  0
  6 35  1  0
  7 36  1  0
  7 37  1  0
  9 38  1  0
  9 39  1  0
 10 40  1  0
 10 41  1  0
 11 42  1  0
 11 43  1  0
 12 44  1  0
 13 45  1  0
 13 46  1  0
 15 47  1  0
 16 48  1  0
 18 49  1  0
 19 50  1  0
 20 51  1  0
 21 52  1  0
 23 53  1  0
M  END
>  <UniqueID>  (20) 
20

>  <SMILES>  (20) 
CCN(CC)CCOCCCNCc1ccc2ccccc2c1

>  <Energy>  (20) 
49.856817227888435

>  <Genealogy>  (20) 
CCN(CC)CCOCCCNCc1ccc2ccccc2c1 (3D coordinates assigned)
CCN(CC)CCOCCCNCc1ccc2ccccc2c1 (optimized conformer: 49.856817227888435 kcal/mol)

>  <smiles>  (20) 
CCN(CC)CCOCCCNCc1ccc2ccccc2c1

>  <score_type>  (20) 
oracle

>  <origin>  (20) 
adg

>  <m_score__min__energy>  (20) 
-6.8799999999999999

>  <m_primary>  (20) 
energy

$$$$
20:0
     RDKit          3D

 42 44  0  0  0  0  0  0  0  0999 V2000
   57.7730   34.5370   45.1790 C   0  0  0  0  0  0  0  0  0  0  0  0
   59.2220   34.8800   44.8710 C   0  0  0  0  0  0  0  0  0  0  0  0
   60.0340   34.5650   46.0000 O   0  0  0  0  0  0  0  0  0  0  0  0
   60.2990   33.2610   46.4550 C   0  0  0  0  0  0  0  0  0  0  0  0
   59.3960   32.2030   46.2450 C   0  0  0  0  0  0  0  0  0  0  0  0
   59.7000   30.9120   46.7130 C   0  0  0  0  0  0  0  0  0  0  0  0
   58.7690   29.7730   46.5120 C   0  0  0  0  0  0  0  0  0  0  0  0
   59.0900   28.5110   47.0350 C   0  0  0  0  0  0  0  0  0  0  0  0
   58.2320   27.4250   46.8520 C   0  0  0  0  0  0  0  0  0  0  0  0
   57.0330   27.5780   46.1330 C   0  0  0  0  0  0  0  0  0  0  0  0
   56.1430   26.5100   45.9310 O   0  0  0  0  0  0  0  0  0  0  0  0
   56.5170   25.2330   45.4250 C   0  0  0  0  0  0  0  0  0  0  0  0
   56.7050   28.8300   45.5930 C   0  0  0  0  0  0  0  0  0  0  0  0
   55.5060   28.9500   44.8720 O   0  0  0  0  0  0  0  0  0  0  0  0
   55.3470   29.7270   43.6890 C   0  0  0  0  0  0  0  0  0  0  0  0
   57.5770   29.9220   45.7810 C   0  0  0  0  0  0  0  0  0  0  0  0
   60.8660   30.7060   47.3840 N   0  0  0  0  0  0  0  0  0  0  0  0
   61.7640   31.7000   47.6090 C   0  0  0  0  0  0  0  0  0  0  0  0
   62.9180   31.4350   48.2820 N   0  0  0  0  0  0  0  0  0  0  0  0
   63.8410   32.4060   48.5220 C   0  0  0  0  0  0  0  0  0  0  0  0
   63.6200   33.7110   48.0790 C   0  0  0  0  0  0  0  0  0  0  0  0
   62.4460   34.0130   47.3870 C   0  0  0  0  0  0  0  0  0  0  0  0
   61.4990   33.0070   47.1430 C   0  0  0  0  0  0  0  0  0  0  0  0
   57.6280   34.5027   46.2689 H   0  0  0  0  0  0  0  0  0  0  0  0
   57.1145   35.3041   44.7455 H   0  0  0  0  0  0  0  0  0  0  0  0
   57.5283   33.5561   44.7455 H   0  0  0  0  0  0  0  0  0  0  0  0
   59.5602   34.2970   44.0017 H   0  0  0  0  0  0  0  0  0  0  0  0
   59.3055   35.9536   44.6467 H   0  0  0  0  0  0  0  0  0  0  0  0
   58.4503   32.3857   45.7137 H   0  0  0  0  0  0  0  0  0  0  0  0
   60.0272   28.3761   47.5949 H   0  0  0  0  0  0  0  0  0  0  0  0
   58.4954   26.4434   47.2728 H   0  0  0  0  0  0  0  0  0  0  0  0
   56.7169   24.5503   46.2640 H   0  0  0  0  0  0  0  0  0  0  0  0
   55.6996   24.8285   44.8100 H   0  0  0  0  0  0  0  0  0  0  0  0
   57.4235   25.3334   44.8100 H   0  0  0  0  0  0  0  0  0  0  0  0
   55.1334   30.7710   43.9620 H   0  0  0  0  0  0  0  0  0  0  0  0
   56.2723   29.6851   43.0957 H   0  0  0  0  0  0  0  0  0  0  0  0
   54.5125   29.3250   43.0957 H   0  0  0  0  0  0  0  0  0  0  0  0
   57.3219   30.9018   45.3509 H   0  0  0  0  0  0  0  0  0  0  0  0
   63.1060   30.4650   48.6240 H   0  0  0  0  0  0  0  0  0  0  0  0
   64.7646   32.1614   49.0671 H   0  0  0  0  0  0  0  0  0  0  0  0
   64.3657   34.4959   48.2738 H   0  0  0  0  0  0  0  0  0  0  0  0
   62.2635   35.0385   47.0334 H   0  0  0  0  0  0  0  0  0  0  0  0
  1  2  1  0
  2  3  1  0
  3  4  1  0
  4  5  2  0
  5  6  1  0
  6  7  1  0
  7  8  2  0
  8  9  1  0
  9 10  2  0
 10 11  1  0
 11 12  1  0
 10 13  1  0
 13 14  1  0
 14 15  1  0
 13 16  2  0
  6 17  2  0
 17 18  1  0
 18 19  2  0
 19 20  1  0
 20 21  2  0
 21 22  1  0
 22 23  2  0
 23  4  1  0
 16  7  1  0
 23 18  1  0
  1 24  1  0
  1 25  1  0
  1 26  1  0
  2 27  1  0
  2 28  1  0
  5 29  1  0
  8 30  1  0
  9 31  1  0
 12 32  1  0
 12 33  1  0
 12 34  1  0
 15 35  1  0
 15 36  1  0
 15 37  1  0
 16 38  1  0
 19 39  1  0
 20 40  1  0
 21 41  1  0
 22 42  1  0
M  CHG  1  19   1
M  END
>  <UniqueID>  (21) 
21

>  <SMILES>  (21) 
CCOc1cc(-c2ccc(OC)c(OC)c2)nc2[nH+]cccc12

>  <Energy>  (21) 
47.607855991326964

>  <Genealogy>  (21) 
CCOc1cc(-c2ccc(OC)c(OC)c2)nc2[nH+]cccc12 (protonated)
CCOc1cc(-c2ccc(OC)c(OC)c2)nc2[nH+]cccc12 (3D coordinates assigned)
CCOc1cc(-c2ccc(OC)c(OC)c2)nc2[nH+]cccc12 (optimized conformer: 47.607855991326964 kcal/mol)

>  <smiles>  (21) 
CCOc1cc(-c2ccc(OC)c(OC)c2)nc2ncccc12

>  <score_type>  (21) 
oracle

>  <origin>  (21) 
adg

>  <m_score__min__energy>  (21) 
-5.5700000000000003

>  <m_primary>  (21) 
energy

$$$$
21:0
     RDKit          3D

 47 49  0  0  0  0  0  0  0  0999 V2000
   52.3400   31.5890   51.2750 C   0  0  0  0  0  0  0  0  0  0  0  0
   53.5530   30.6650   51.1790 C   0  0  0  0  0  0  0  0  0  0  0  0
   54.5080   30.8440   52.3660 C   0  0  0  0  0  0  0  0  0  0  0  0
   55.8160   31.3250   51.9260 N   0  0  0  0  0  0  0  0  0  0  0  0
   56.9880   30.4960   51.9390 C   0  0  0  0  0  0  0  0  0  0  0  0
   56.8990   29.2770   52.2540 O   0  0  0  0  0  0  0  0  0  0  0  0
   58.3220   31.0630   51.5180 C   0  0  0  0  0  0  0  0  0  0  0  0
   58.1320   31.9840   50.2910 C   0  0  0  0  0  0  0  0  0  0  0  0
   59.4430   32.1970   49.5310 C   0  0  0  0  0  0  0  0  0  0  0  0
   60.0320   30.9090   49.1230 N   0  0  0  0  0  0  0  0  0  0  0  0
   60.8510   30.8340   47.9420 C   0  0  0  0  0  0  0  0  0  0  0  0
   60.7810   29.8210   47.1950 O   0  0  0  0  0  0  0  0  0  0  0  0
   61.7460   31.9390   47.5570 C   0  0  0  0  0  0  0  0  0  0  0  0
   63.3780   32.0040   47.9570 S   0  0  0  0  0  0  0  0  0  0  0  0
   63.7300   33.4190   47.1200 C   0  0  0  0  0  0  0  0  0  0  0  0
   62.5630   33.8700   46.5180 C   0  0  0  0  0  0  0  0  0  0  0  0
   61.4460   33.0560   46.7670 C   0  0  0  0  0  0  0  0  0  0  0  0
   60.1260   33.4000   46.3130 N   0  0  0  0  0  0  0  0  0  0  0  0
   59.6520   34.6390   46.0720 C   0  0  0  0  0  0  0  0  0  0  0  0
   58.3480   34.5630   45.6260 C   0  0  0  0  0  0  0  0  0  0  0  0
   58.0230   33.2200   45.5850 C   0  0  0  0  0  0  0  0  0  0  0  0
   59.1420   32.5310   46.0040 C   0  0  0  0  0  0  0  0  0  0  0  0
   59.6220   29.6700   49.7980 C   0  0  0  0  0  0  0  0  0  0  0  0
   59.3680   29.9390   51.2840 C   0  0  0  0  0  0  0  0  0  0  0  0
   52.1007   31.7713   52.3331 H   0  0  0  0  0  0  0  0  0  0  0  0
   52.5672   32.5450   50.7805 H   0  0  0  0  0  0  0  0  0  0  0  0
   51.4787   31.1160   50.7805 H   0  0  0  0  0  0  0  0  0  0  0  0
   53.2040   29.6220   51.1583 H   0  0  0  0  0  0  0  0  0  0  0  0
   54.1018   30.9197   50.2603 H   0  0  0  0  0  0  0  0  0  0  0  0
   54.0754   31.5726   53.0675 H   0  0  0  0  0  0  0  0  0  0  0  0
   54.6428   29.8675   52.8541 H   0  0  0  0  0  0  0  0  0  0  0  0
   55.8830   32.2950   51.5430 H   0  0  0  0  0  0  0  0  0  0  0  0
   58.7299   31.6795   52.3326 H   0  0  0  0  0  0  0  0  0  0  0  0
   57.3976   31.5257   49.6123 H   0  0  0  0  0  0  0  0  0  0  0  0
   57.7822   32.9632   50.6498 H   0  0  0  0  0  0  0  0  0  0  0  0
   59.2446   32.8021   48.6341 H   0  0  0  0  0  0  0  0  0  0  0  0
   60.1530   32.7127   50.1944 H   0  0  0  0  0  0  0  0  0  0  0  0
   64.7154   33.9041   47.0597 H   0  0  0  0  0  0  0  0  0  0  0  0
   62.5175   34.7808   45.9028 H   0  0  0  0  0  0  0  0  0  0  0  0
   60.2196   35.5710   46.2102 H   0  0  0  0  0  0  0  0  0  0  0  0
   57.6951   35.4061   45.3560 H   0  0  0  0  0  0  0  0  0  0  0  0
   57.0601   32.7857   45.2782 H   0  0  0  0  0  0  0  0  0  0  0  0
   59.2202   31.4361   46.0755 H   0  0  0  0  0  0  0  0  0  0  0  0
   58.6994   29.2912   49.3340 H   0  0  0  0  0  0  0  0  0  0  0  0
   60.4244   28.9240   49.6994 H   0  0  0  0  0  0  0  0  0  0  0  0
   59.0010   29.0135   51.7517 H   0  0  0  0  0  0  0  0  0  0  0  0
   60.3177   30.2702   51.7294 H   0  0  0  0  0  0  0  0  0  0  0  0
  1  2  1  0
  2  3  1  0
  3  4  1  0
  4  5  1  0
  5  6  2  0
  5  7  1  0
  7  8  1  0
  8  9  1  0
  9 10  1  0
 10 11  1  0
 11 12  2  0
 11 13  1  0
 13 14  1  0
 14 15  1  0
 15 16  2  0
 16 17  1  0
 17 18  1  0
 18 19  1  0
 19 20  2  0
 20 21  1  0
 21 22  2  0
 10 23  1  0
 23 24  1  0
 24  7  1  0
 17 13  2  0
 22 18  1  0
  1 25  1  0
  1 26  1  0
  1 27  1  0
  2 28  1  0
  2 29  1  0
  3 30  1  0
  3 31  1  0
  4 32  1  0
  7 33  1  0
  8 34  1  0
  8 35  1  0
  9 36  1  0
  9 37  1  0
 15 38  1  0
 16 39  1  0
 19 40  1  0
 20 41  1  0
 21 42  1  0
 22 43  1  0
 23 44  1  0
 23 45  1  0
 24 46  1  0
 24 47  1  0
M  END
>  <UniqueID>  (22) 
22

>  <SMILES>  (22) 
CCCNC(=O)C1CCN(C(=O)c2sccc2-n2cccc2)CC1

>  <Energy>  (22) 
100.24228738740631

>  <Genealogy>  (22) 
CCCNC(=O)C1CCN(C(=O)c2sccc2-n2cccc2)CC1 (3D coordinates assigned)
CCCNC(=O)C1CCN(C(=O)c2sccc2-n2cccc2)CC1 (nonaromatic ring conformer: 100.24228738740631 kcal/mol)

>  <smiles>  (22) 
CCCNC(=O)C1CCN(C(=O)c2sccc2-n2cccc2)CC1

>  <score_type>  (22) 
oracle

>  <origin>  (22) 
adg

>  <m_score__min__energy>  (22) 
-7.4000000000000004

>  <m_primary>  (22) 
energy

$$$$
22:0
     RDKit          3D

 43 44  0  0  0  0  0  0  0  0999 V2000
   62.2330   33.7610   48.3380 C   0  0  0  0  0  0  0  0  0  0  0  0
   61.2110   34.2270   49.3700 C   0  0  0  0  0  0  0  0  0  0  0  0
   59.9940   34.7200   48.7200 N   0  0  0  0  0  0  0  0  0  0  0  0
   59.4700   34.2010   47.4760 C   0  0  0  0  0  0  0  0  0  0  0  0
   59.6630   34.9210   46.2790 C   0  0  0  0  0  0  0  0  0  0  0  0
   59.1570   34.4500   45.0680 C   0  0  0  0  0  0  0  0  0  0  0  0
   58.4460   33.2520   45.0250 C   0  0  0  0  0  0  0  0  0  0  0  0
   57.7930   32.6520   43.4670 S   0  0  0  0  0  0  0  0  0  0  0  0
   57.6170   30.9780   44.0800 C   0  0  0  0  0  0  0  0  0  0  0  0
   56.3460   30.4700   44.3820 C   0  0  0  0  0  0  0  0  0  0  0  0
   56.2090   29.1660   44.8680 C   0  0  0  0  0  0  0  0  0  0  0  0
   57.3420   28.3640   45.0520 C   0  0  0  0  0  0  0  0  0  0  0  0
   57.1550   26.5850   45.7180 Br  0  0  0  0  0  0  0  0  0  0  0  0
   58.6120   28.8690   44.7470 C   0  0  0  0  0  0  0  0  0  0  0  0
   58.7490   30.1730   44.2610 C   0  0  0  0  0  0  0  0  0  0  0  0
   58.2470   32.5190   46.1950 C   0  0  0  0  0  0  0  0  0  0  0  0
   58.7420   32.9780   47.4300 C   0  0  0  0  0  0  0  0  0  0  0  0
   58.5320   32.0820   48.6400 C   0  0  0  0  0  0  0  0  0  0  0  0
   59.6920   31.1920   48.8790 N   0  0  0  0  0  0  0  0  0  0  0  0
   59.6980   30.6720   50.2590 C   0  0  0  0  0  0  0  0  0  0  0  0
   59.6720   30.0700   47.9250 C   0  0  0  0  0  0  0  0  0  0  0  0
   63.1171   33.3579   48.8536 H   0  0  0  0  0  0  0  0  0  0  0  0
   61.7868   32.9773   47.7081 H   0  0  0  0  0  0  0  0  0  0  0  0
   62.5321   34.6117   47.7081 H   0  0  0  0  0  0  0  0  0  0  0  0
   60.9516   33.3827   50.0257 H   0  0  0  0  0  0  0  0  0  0  0  0
   61.6528   35.0478   49.9541 H   0  0  0  0  0  0  0  0  0  0  0  0
   59.5250   35.5240   49.1870 H   0  0  0  0  0  0  0  0  0  0  0  0
   60.2212   35.8686   46.3009 H   0  0  0  0  0  0  0  0  0  0  0  0
   59.3193   35.0252   44.1446 H   0  0  0  0  0  0  0  0  0  0  0  0
   55.4548   31.0982   44.2364 H   0  0  0  0  0  0  0  0  0  0  0  0
   55.2107   28.7700   45.1059 H   0  0  0  0  0  0  0  0  0  0  0  0
   59.5026   28.2394   44.8898 H   0  0  0  0  0  0  0  0  0  0  0  0
   59.7473   30.5673   44.0204 H   0  0  0  0  0  0  0  0  0  0  0  0
   57.6952   31.5684   46.1518 H   0  0  0  0  0  0  0  0  0  0  0  0
   58.3801   32.7137   49.5277 H   0  0  0  0  0  0  0  0  0  0  0  0
   57.6528   31.4500   48.4465 H   0  0  0  0  0  0  0  0  0  0  0  0
   60.5790   31.7270   48.7220 H   0  0  0  0  0  0  0  0  0  0  0  0
   59.6883   31.5131   50.9678 H   0  0  0  0  0  0  0  0  0  0  0  0
   58.8070   30.0471   50.4193 H   0  0  0  0  0  0  0  0  0  0  0  0
   60.6032   30.0679   50.4193 H   0  0  0  0  0  0  0  0  0  0  0  0
   59.6550   29.1191   48.4777 H   0  0  0  0  0  0  0  0  0  0  0  0
   58.7750   30.1425   47.2924 H   0  0  0  0  0  0  0  0  0  0  0  0
   60.5710   30.1105   47.2924 H   0  0  0  0  0  0  0  0  0  0  0  0
  1  2  1  0
  2  3  1  0
  3  4  1  0
  4  5  2  0
  5  6  1  0
  6  7  2  0
  7  8  1  0
  8  9  1  0
  9 10  2  0
 10 11  1  0
 11 12  2  0
 12 13  1  0
 12 14  1  0
 14 15  2  0
  7 16  1  0
 16 17  2  0
 17 18  1  0
 18 19  1  0
 19 20  1  0
 19 21  1  0
 17  4  1  0
 15  9  1  0
  1 22  1  0
  1 23  1  0
  1 24  1  0
  2 25  1  0
  2 26  1  0
  3 27  1  0
  5 28  1  0
  6 29  1  0
 10 30  1  0
 11 31  1  0
 14 32  1  0
 15 33  1  0
 16 34  1  0
 18 35  1  0
 18 36  1  0
 19 37  1  0
 20 38  1  0
 20 39  1  0
 20 40  1  0
 21 41  1  0
 21 42  1  0
 21 43  1  0
M  CHG  1  19   1
M  END
>  <UniqueID>  (23) 
23

>  <SMILES>  (23) 
CCNc1ccc(Sc2ccc(Br)cc2)cc1C[NH+](C)C

>  <Energy>  (23) 
38.509212311453595

>  <Genealogy>  (23) 
CCNc1ccc(Sc2ccc(Br)cc2)cc1C[NH+](C)C (protonated)
CCNc1ccc(Sc2ccc(Br)cc2)cc1C[NH+](C)C (3D coordinates assigned)
CCNc1ccc(Sc2ccc(Br)cc2)cc1C[NH+](C)C (optimized conformer: 38.509212311453595 kcal/mol)

>  <smiles>  (23) 
CCNc1ccc(Sc2ccc(Br)cc2)cc1CN(C)C

>  <score_type>  (23) 
oracle

>  <origin>  (23) 
adg

>  <m_score__min__energy>  (23) 
-6.2300000000000004

>  <m_primary>  (23) 
energy

$$$$
23:0
     RDKit          3D

 79 82  0  0  0  0  0  0  0  0999 V2000
   58.8430   33.8900   45.0270 C   0  0  0  0  0  0  0  0  0  0  0  0
   58.8140   32.4280   45.2560 N   0  0  0  0  0  0  0  0  0  0  0  0
   58.1380   31.6030   44.3780 C   0  0  0  0  0  0  0  0  0  0  0  0
   57.7230   32.0550   43.0990 C   0  0  0  0  0  0  0  0  0  0  0  0
   56.9900   31.2290   42.2470 C   0  0  0  0  0  0  0  0  0  0  0  0
   56.6540   29.9390   42.6410 C   0  0  0  0  0  0  0  0  0  0  0  0
   57.0750   29.4550   43.8770 C   0  0  0  0  0  0  0  0  0  0  0  0
   57.8380   30.2630   44.7470 C   0  0  0  0  0  0  0  0  0  0  0  0
   58.2990   29.7680   45.9810 C   0  0  0  0  0  0  0  0  0  0  0  0
   57.8230   28.5010   46.4790 N   0  0  0  0  0  0  0  0  0  0  0  0
   58.6190   27.2740   46.3860 C   0  0  0  0  0  0  0  0  0  0  0  0
   58.4760   26.5920   45.0050 C   0  0  0  0  0  0  0  0  0  0  0  0
   57.7760   25.2700   44.9930 N   0  0  0  0  0  0  0  0  0  0  0  0
   57.3840   24.8730   43.6140 C   0  0  0  0  0  0  0  0  0  0  0  0
   56.5390   25.4010   45.8030 C   0  0  0  0  0  0  0  0  0  0  0  0
   58.6160   24.2100   45.5960 C   0  0  0  0  0  0  0  0  0  0  0  0
   59.2170   30.5380   46.7220 C   0  0  0  0  0  0  0  0  0  0  0  0
   59.9250   29.9780   47.8040 C   0  0  0  0  0  0  0  0  0  0  0  0
   60.7980   30.7480   48.5630 C   0  0  0  0  0  0  0  0  0  0  0  0
   61.0040   32.0970   48.2520 C   0  0  0  0  0  0  0  0  0  0  0  0
   61.8330   32.9310   49.0220 O   0  0  0  0  0  0  0  0  0  0  0  0
   62.8940   33.7400   48.5100 C   0  0  0  0  0  0  0  0  0  0  0  0
   64.2460   32.9980   48.6510 C   0  0  0  0  0  0  0  0  0  0  0  0
   64.7020   32.6940   50.0490 N   0  0  0  0  0  0  0  0  0  0  0  0
   63.9070   31.5150   50.4970 C   0  0  0  0  0  0  0  0  0  0  0  0
   64.3870   33.8430   50.9570 C   0  0  0  0  0  0  0  0  0  0  0  0
   65.2590   33.8330   52.2280 C   0  0  0  0  0  0  0  0  0  0  0  0
   66.7190   33.9800   51.9210 N   0  0  0  0  0  0  0  0  0  0  0  0
   67.1010   35.4110   52.0180 C   0  0  0  0  0  0  0  0  0  0  0  0
   67.5030   33.2310   52.9360 C   0  0  0  0  0  0  0  0  0  0  0  0
   67.0650   33.4790   50.5510 C   0  0  0  0  0  0  0  0  0  0  0  0
   66.1550   32.3160   50.0990 C   0  0  0  0  0  0  0  0  0  0  0  0
   60.3740   32.6420   47.1310 C   0  0  0  0  0  0  0  0  0  0  0  0
   59.4580   31.8870   46.3530 C   0  0  0  0  0  0  0  0  0  0  0  0
   58.8534   34.4126   45.9949 H   0  0  0  0  0  0  0  0  0  0  0  0
   59.7466   34.1542   44.4580 H   0  0  0  0  0  0  0  0  0  0  0  0
   57.9506   34.1898   44.4580 H   0  0  0  0  0  0  0  0  0  0  0  0
   57.9834   33.0731   42.7740 H   0  0  0  0  0  0  0  0  0  0  0  0
   56.6767   31.5997   41.2599 H   0  0  0  0  0  0  0  0  0  0  0  0
   56.0549   29.2998   41.9757 H   0  0  0  0  0  0  0  0  0  0  0  0
   56.8098   28.4310   44.1788 H   0  0  0  0  0  0  0  0  0  0  0  0
   56.8420   28.4400   46.8430 H   0  0  0  0  0  0  0  0  0  0  0  0
   59.6775   27.5244   46.5502 H   0  0  0  0  0  0  0  0  0  0  0  0
   58.2520   26.5729   47.1501 H   0  0  0  0  0  0  0  0  0  0  0  0
   57.9158   27.2749   44.3494 H   0  0  0  0  0  0  0  0  0  0  0  0
   59.5031   26.3854   44.6698 H   0  0  0  0  0  0  0  0  0  0  0  0
   56.6119   24.0910   43.6631 H   0  0  0  0  0  0  0  0  0  0  0  0
   56.9860   25.7482   43.0796 H   0  0  0  0  0  0  0  0  0  0  0  0
   58.2642   24.4861   43.0796 H   0  0  0  0  0  0  0  0  0  0  0  0
   56.7962   25.3738   46.8722 H   0  0  0  0  0  0  0  0  0  0  0  0
   56.0466   26.3563   45.5685 H   0  0  0  0  0  0  0  0  0  0  0  0
   55.8575   24.5700   45.5685 H   0  0  0  0  0  0  0  0  0  0  0  0
   58.5617   24.2785   46.6925 H   0  0  0  0  0  0  0  0  0  0  0  0
   58.2512   23.2242   45.2717 H   0  0  0  0  0  0  0  0  0  0  0  0
   59.6591   24.3399   45.2717 H   0  0  0  0  0  0  0  0  0  0  0  0
   59.7845   28.9155   48.0515 H   0  0  0  0  0  0  0  0  0  0  0  0
   61.3299   30.2950   49.4126 H   0  0  0  0  0  0  0  0  0  0  0  0
   62.7067   33.9558   47.4478 H   0  0  0  0  0  0  0  0  0  0  0  0
   62.9379   34.6791   49.0811 H   0  0  0  0  0  0  0  0  0  0  0  0
   64.1604   32.0427   48.1124 H   0  0  0  0  0  0  0  0  0  0  0  0
   64.9998   33.6874   48.2429 H   0  0  0  0  0  0  0  0  0  0  0  0
   63.8857   31.4834   51.5963 H   0  0  0  0  0  0  0  0  0  0  0  0
   62.8797   31.5980   50.1126 H   0  0  0  0  0  0  0  0  0  0  0  0
   64.3690   30.5937   50.1126 H   0  0  0  0  0  0  0  0  0  0  0  0
   64.5627   34.7831   50.4136 H   0  0  0  0  0  0  0  0  0  0  0  0
   63.3354   33.7518   51.2667 H   0  0  0  0  0  0  0  0  0  0  0  0
   64.9487   34.6661   52.8758 H   0  0  0  0  0  0  0  0  0  0  0  0
   65.1170   32.8617   52.7244 H   0  0  0  0  0  0  0  0  0  0  0  0
   67.1779   35.6990   53.0768 H   0  0  0  0  0  0  0  0  0  0  0  0
   68.0719   35.5656   51.5245 H   0  0  0  0  0  0  0  0  0  0  0  0
   66.3363   36.0289   51.5245 H   0  0  0  0  0  0  0  0  0  0  0  0
   67.1841   33.5357   53.9437 H   0  0  0  0  0  0  0  0  0  0  0  0
   67.3324   32.1519   52.8080 H   0  0  0  0  0  0  0  0  0  0  0  0
   68.5732   33.4507   52.8080 H   0  0  0  0  0  0  0  0  0  0  0  0
   66.9598   34.3078   49.8354 H   0  0  0  0  0  0  0  0  0  0  0  0
   68.0977   33.1017   50.5842 H   0  0  0  0  0  0  0  0  0  0  0  0
   66.4687   31.9952   49.0946 H   0  0  0  0  0  0  0  0  0  0  0  0
   66.2601   31.5088   50.8389 H   0  0  0  0  0  0  0  0  0  0  0  0
   60.5930   33.6811   46.8442 H   0  0  0  0  0  0  0  0  0  0  0  0
  1  2  1  0
  2  3  2  0
  3  4  1  0
  4  5  2  0
  5  6  1  0
  6  7  2  0
  7  8  1  0
  8  9  2  0
  9 10  1  0
 10 11  1  0
 11 12  1  0
 12 13  1  0
 13 14  1  0
 13 15  1  0
 13 16  1  0
  9 17  1  0
 17 18  2  0
 18 19  1  0
 19 20  2  0
 20 21  1  0
 21 22  1  0
 22 23  1  0
 23 24  1  0
 24 25  1  0
 24 26  1  0
 26 27  1  0
 27 28  1  0
 28 29  1  0
 28 30  1  0
 28 31  1  0
 31 32  1  0
 20 33  1  0
 33 34  2  0
 34  2  1  0
  8  3  1  0
 34 17  1  0
 32 24  1  0
  1 35  1  0
  1 36  1  0
  1 37  1  0
  4 38  1  0
  5 39  1  0
  6 40  1  0
  7 41  1  0
 10 42  1  0
 11 43  1  0
 11 44  1  0
 12 45  1  0
 12 46  1  0
 14 47  1  0
 14 48  1  0
 14 49  1  0
 15 50  1  0
 15 51  1  0
 15 52  1  0
 16 53  1  0
 16 54  1  0
 16 55  1  0
 18 56  1  0
 19 57  1  0
 22 58  1  0
 22 59  1  0
 23 60  1  0
 23 61  1  0
 25 62  1  0
 25 63  1  0
 25 64  1  0
 26 65  1  0
 26 66  1  0
 27 67  1  0
 27 68  1  0
 29 69  1  0
 29 70  1  0
 29 71  1  0
 30 72  1  0
 30 73  1  0
 30 74  1  0
 31 75  1  0
 31 76  1  0
 32 77  1  0
 32 78  1  0
 33 79  1  0
M  CHG  4   2   1  13   1  24   1  28   1
M  END
>  <UniqueID>  (24) 
24

>  <SMILES>  (24) 
C[n+]1c2ccccc2c(NCC[N+](C)(C)C)c2ccc(OCC[N+]3(C)CC[N+](C)(C)CC3)cc21

>  <Energy>  (24) 
142.75650596026279

>  <Genealogy>  (24) 
C[n+]1c2ccccc2c(NCC[N+](C)(C)C)c2ccc(OCC[N+]3(C)CC[N+](C)(C)CC3)cc21 (3D coordinates assigned)
C[n+]1c2ccccc2c(NCC[N+](C)(C)C)c2ccc(OCC[N+]3(C)CC[N+](C)(C)CC3)cc21 (nonaromatic ring conformer: 142.75650596026279 kcal/mol)

>  <smiles>  (24) 
C[n+]1c2ccccc2c(NCC[N+](C)(C)C)c2ccc(OCC[N+]3(C)CC[N+](C)(C)CC3)cc21

>  <score_type>  (24) 
oracle

>  <origin>  (24) 
adg

>  <m_score__min__energy>  (24) 
-2.1899999999999999

>  <m_primary>  (24) 
energy

$$$$
24:0
     RDKit          3D

 54 55  0  0  0  0  0  0  0  0999 V2000
   58.9080   32.4740   50.4850 C   0  0  0  0  0  0  0  0  0  0  0  0
   58.6110   31.1560   49.7750 C   0  0  0  0  0  0  0  0  0  0  0  0
   59.3940   31.0390   48.5380 N   0  0  0  0  0  0  0  0  0  0  0  0
   58.8370   29.9880   47.6700 C   0  0  0  0  0  0  0  0  0  0  0  0
   59.6710   29.7910   46.3860 C   0  0  0  0  0  0  0  0  0  0  0  0
   61.1530   30.1600   46.5380 C   0  0  0  0  0  0  0  0  0  0  0  0
   61.2760   31.4340   47.1160 O   0  0  0  0  0  0  0  0  0  0  0  0
   62.4560   31.4450   47.7970 N   0  0  0  0  0  0  0  0  0  0  0  0
   62.2040   31.8140   49.2080 C   0  0  0  0  0  0  0  0  0  0  0  0
   62.5660   33.2760   49.5370 C   0  0  0  0  0  0  0  0  0  0  0  0
   62.1750   34.1920   48.4490 N   0  0  0  0  0  0  0  0  0  0  0  0
   60.7060   34.3760   48.3730 C   0  0  0  0  0  0  0  0  0  0  0  0
   60.2660   34.5730   46.9180 C   0  0  0  0  0  0  0  0  0  0  0  0
   59.3660   33.4910   46.4720 N   0  0  0  0  0  0  0  0  0  0  0  0
   58.0450   33.5530   47.1480 C   0  0  0  0  0  0  0  0  0  0  0  0
   56.8630   33.4940   46.1650 C   0  0  0  0  0  0  0  0  0  0  0  0
   57.0020   32.4140   45.2630 O   0  0  0  0  0  0  0  0  0  0  0  0
   58.2240   32.4490   44.5390 C   0  0  0  0  0  0  0  0  0  0  0  0
   59.2500   33.5000   45.0040 C   0  0  0  0  0  0  0  0  0  0  0  0
   62.7950   33.8270   47.1490 C   0  0  0  0  0  0  0  0  0  0  0  0
   63.3540   32.3870   47.1180 C   0  0  0  0  0  0  0  0  0  0  0  0
   58.8733   32.3200   51.5736 H   0  0  0  0  0  0  0  0  0  0  0  0
   59.9086   32.8285   50.1966 H   0  0  0  0  0  0  0  0  0  0  0  0
   58.1562   33.2234   50.1966 H   0  0  0  0  0  0  0  0  0  0  0  0
   58.8672   30.3210   50.4437 H   0  0  0  0  0  0  0  0  0  0  0  0
   57.5418   31.1284   49.5181 H   0  0  0  0  0  0  0  0  0  0  0  0
   59.3760   31.9550   48.0340 H   0  0  0  0  0  0  0  0  0  0  0  0
   60.3860   30.7990   48.7810 H   0  0  0  0  0  0  0  0  0  0  0  0
   58.8171   29.0406   48.2286 H   0  0  0  0  0  0  0  0  0  0  0  0
   57.8245   30.2974   47.3714 H   0  0  0  0  0  0  0  0  0  0  0  0
   59.6070   28.7331   46.0915 H   0  0  0  0  0  0  0  0  0  0  0  0
   59.2516   30.4693   45.6284 H   0  0  0  0  0  0  0  0  0  0  0  0
   61.6483   29.4187   47.1823 H   0  0  0  0  0  0  0  0  0  0  0  0
   61.6259   30.1679   45.5449 H   0  0  0  0  0  0  0  0  0  0  0  0
   61.1354   31.6637   49.4214 H   0  0  0  0  0  0  0  0  0  0  0  0
   62.8482   31.1743   49.8290 H   0  0  0  0  0  0  0  0  0  0  0  0
   62.0446   33.5738   50.4586 H   0  0  0  0  0  0  0  0  0  0  0  0
   63.6568   33.3394   49.6638 H   0  0  0  0  0  0  0  0  0  0  0  0
   60.2076   33.4861   48.7849 H   0  0  0  0  0  0  0  0  0  0  0  0
   60.4279   35.2681   48.9534 H   0  0  0  0  0  0  0  0  0  0  0  0
   59.7388   35.5345   46.8314 H   0  0  0  0  0  0  0  0  0  0  0  0
   61.1633   34.5588   46.2819 H   0  0  0  0  0  0  0  0  0  0  0  0
   57.9663   32.7033   47.8421 H   0  0  0  0  0  0  0  0  0  0  0  0
   57.9888   34.5184   47.6723 H   0  0  0  0  0  0  0  0  0  0  0  0
   55.9295   33.3691   46.7333 H   0  0  0  0  0  0  0  0  0  0  0  0
   56.8430   34.4300   45.5875 H   0  0  0  0  0  0  0  0  0  0  0  0
   58.6944   31.4582   44.6230 H   0  0  0  0  0  0  0  0  0  0  0  0
   57.9535   32.7307   43.5106 H   0  0  0  0  0  0  0  0  0  0  0  0
   60.2305   33.2696   44.5617 H   0  0  0  0  0  0  0  0  0  0  0  0
   58.9128   34.4954   44.6792 H   0  0  0  0  0  0  0  0  0  0  0  0
   62.0337   33.9224   46.3607 H   0  0  0  0  0  0  0  0  0  0  0  0
   63.6443   34.5082   46.9919 H   0  0  0  0  0  0  0  0  0  0  0  0
   63.4750   32.0733   46.0706 H   0  0  0  0  0  0  0  0  0  0  0  0
   64.3204   32.3813   47.6434 H   0  0  0  0  0  0  0  0  0  0  0  0
  1  2  1  0
  2  3  1  0
  3  4  1  0
  4  5  1  0
  5  6  1  0
  6  7  1  0
  7  8  1  0
  8  9  1  0
  9 10  1  0
 10 11  1  0
 11 12  1  0
 12 13  1  0
 13 14  1  0
 14 15  1  0
 15 16  1  0
 16 17  1  0
 17 18  1  0
 18 19  1  0
 11 20  1  0
 20 21  1  0
 21  8  1  0
 19 14  1  0
  1 22  1  0
  1 23  1  0
  1 24  1  0
  2 25  1  0
  2 26  1  0
  3 27  1  0
  3 28  1  0
  4 29  1  0
  4 30  1  0
  5 31  1  0
  5 32  1  0
  6 33  1  0
  6 34  1  0
  9 35  1  0
  9 36  1  0
 10 37  1  0
 10 38  1  0
 12 39  1  0
 12 40  1  0
 13 41  1  0
 13 42  1  0
 15 43  1  0
 15 44  1  0
 16 45  1  0
 16 46  1  0
 18 47  1  0
 18 48  1  0
 19 49  1  0
 19 50  1  0
 20 51  1  0
 20 52  1  0
 21 53  1  0
 21 54  1  0
M  CHG  1   3   1
M  END
>  <UniqueID>  (25) 
25

>  <SMILES>  (25) 
CC[NH2+]CCCON1CCN(CCN2CCOCC2)CC1

>  <Energy>  (25) 
66.66274000537646

>  <Genealogy>  (25) 
CC[NH2+]CCCON1CCN(CCN2CCOCC2)CC1 (protonated)
CC[NH2+]CCCON1CCN(CCN2CCOCC2)CC1 (3D coordinates assigned)
CC[NH2+]CCCON1CCN(CCN2CCOCC2)CC1 (nonaromatic ring conformer: 66.66274000537646 kcal/mol)

>  <smiles>  (25) 
CCNCCCON1CCN(CCN2CCOCC2)CC1

>  <score_type>  (25) 
oracle

>  <origin>  (25) 
adg

>  <m_score__min__energy>  (25) 
-4.1500000000000004

>  <m_primary>  (25) 
energy

$$$$
