0:0
     RDKit          3D

 27 29  0  0  0  0  0  0  0  0999 V2000
   58.1510   34.4970   47.1420 F   0  0  0  0  0  0  0  0  0  0  0  0
   58.0700   33.7660   46.0030 C   0  0  0  0  0  0  0  0  0  0  0  0
   57.4020   32.5400   45.8870 C   0  0  0  0  0  0  0  0  0  0  0  0
   57.4970   32.0640   44.6290 N   0  0  0  0  0  0  0  0  0  0  0  0
   57.0950   31.0220   43.8930 C   0  0  0  0  0  0  0  0  0  0  0  0
   56.2740   29.8690   44.3860 C   0  0  0  0  0  0  0  0  0  0  0  0
   56.9920   28.6080   44.1930 N   0  0  0  0  0  0  0  0  0  0  0  0
   58.1450   28.2110   44.9640 C   0  0  0  0  0  0  0  0  0  0  0  0
   59.3570   28.9250   44.8700 C   0  0  0  0  0  0  0  0  0  0  0  0
   60.4700   28.5380   45.6190 C   0  0  0  0  0  0  0  0  0  0  0  0
   60.3910   27.4380   46.4740 C   0  0  0  0  0  0  0  0  0  0  0  0
   59.2000   26.7210   46.5800 C   0  0  0  0  0  0  0  0  0  0  0  0
   58.0760   27.0980   45.8330 C   0  0  0  0  0  0  0  0  0  0  0  0
   56.4920   26.0310   46.0020 Br  0  0  0  0  0  0  0  0  0  0  0  0
   57.5470   31.1780   42.6230 N   0  0  0  0  0  0  0  0  0  0  0  0
   58.2310   32.3210   42.5450 N   0  0  0  0  0  0  0  0  0  0  0  0
   58.1730   32.8210   43.7920 C   0  0  0  0  0  0  0  0  0  0  0  0
   58.7640   34.2210   44.5000 S   0  0  0  0  0  0  0  0  0  0  0  0
   56.8730   32.0353   46.7088 H   0  0  0  0  0  0  0  0  0  0  0  0
   56.0644   30.0058   45.4571 H   0  0  0  0  0  0  0  0  0  0  0  0
   55.3334   29.8332   43.8168 H   0  0  0  0  0  0  0  0  0  0  0  0
   56.6650   28.0010   43.4090 H   0  0  0  0  0  0  0  0  0  0  0  0
   59.4264   29.7950   44.2004 H   0  0  0  0  0  0  0  0  0  0  0  0
   61.4110   29.1014   45.5349 H   0  0  0  0  0  0  0  0  0  0  0  0
   61.2687   27.1365   47.0645 H   0  0  0  0  0  0  0  0  0  0  0  0
   59.1423   25.8538   47.2543 H   0  0  0  0  0  0  0  0  0  0  0  0
   57.3900   30.5270   41.8220 H   0  0  0  0  0  0  0  0  0  0  0  0
  1  2  1  0
  2  3  2  0
  3  4  1  0
  4  5  1  0
  5  6  1  0
  6  7  1  0
  7  8  1  0
  8  9  2  0
  9 10  1  0
 10 11  2  0
 11 12  1  0
 12 13  2  0
 13 14  1  0
  5 15  2  0
 15 16  1  0
 16 17  2  0
 17 18  1  0
 18  2  1  0
 17  4  1  0
 13  8  1  0
  3 19  1  0
  6 20  1  0
  6 21  1  0
  7 22  1  0
  9 23  1  0
 10 24  1  0
 11 25  1  0
 12 26  1  0
 15 27  1  0
M  CHG  1  15   1
M  END
>  <UniqueID>  (1) 
1

>  <SMILES>  (1) 
Fc1cn2c(CNc3ccccc3Br)[nH+]nc2s1

>  <Energy>  (1) 
116.5237061075209

>  <Genealogy>  (1) 
Fc1cn2c(CNc3ccccc3Br)[nH+]nc2s1 (protonated)
Fc1cn2c(CNc3ccccc3Br)[nH+]nc2s1 (3D coordinates assigned)
Fc1cn2c(CNc3ccccc3Br)[nH+]nc2s1 (optimized conformer: 116.5237061075209 kcal/mol)

>  <smiles>  (1) 
Fc1cn2c(CNc3ccccc3Br)nnc2s1

>  <score_type>  (1) 
oracle

>  <origin>  (1) 
adg

>  <m_score__min__energy>  (1) 
-5.25

>  <m_primary>  (1) 
energy

$$$$
1:0
     RDKit          3D

 51 54  0  0  0  0  0  0  0  0999 V2000
   58.9510   25.7710   46.2220 C   0  0  0  0  0  0  0  0  0  0  0  0
   58.5710   27.1030   45.6470 C   0  0  0  0  0  0  0  0  0  0  0  0
   59.5360   27.9180   45.0400 C   0  0  0  0  0  0  0  0  0  0  0  0
   59.1780   29.1720   44.5420 C   0  0  0  0  0  0  0  0  0  0  0  0
   57.8520   29.6080   44.6650 C   0  0  0  0  0  0  0  0  0  0  0  0
   57.4370   30.9450   44.1250 C   0  0  0  0  0  0  0  0  0  0  0  0
   57.9630   32.0270   44.9830 N   0  0  0  0  0  0  0  0  0  0  0  0
   57.1120   33.2360   44.9140 C   0  0  0  0  0  0  0  0  0  0  0  0
   57.9590   34.5290   44.8470 C   0  0  0  0  0  0  0  0  0  0  0  0
   59.0670   34.6020   45.9190 C   0  0  0  0  0  0  0  0  0  0  0  0
   58.7630   33.8720   47.1820 N   0  0  0  0  0  0  0  0  0  0  0  0
   59.3100   34.5700   48.3640 C   0  0  0  0  0  0  0  0  0  0  0  0
   60.5710   33.9040   48.8330 C   0  0  0  0  0  0  0  0  0  0  0  0
   60.7730   33.2980   50.0660 C   0  0  0  0  0  0  0  0  0  0  0  0
   62.0150   32.7650   50.0920 N   0  0  0  0  0  0  0  0  0  0  0  0
   62.5380   33.0460   48.8840 C   0  0  0  0  0  0  0  0  0  0  0  0
   63.8060   32.6880   48.4270 C   0  0  0  0  0  0  0  0  0  0  0  0
   64.1570   33.0670   47.1200 C   0  0  0  0  0  0  0  0  0  0  0  0
   63.2480   33.7820   46.3180 C   0  0  0  0  0  0  0  0  0  0  0  0
   61.9850   34.1150   46.8310 C   0  0  0  0  0  0  0  0  0  0  0  0
   61.6870   33.7310   48.1000 N   0  0  0  0  0  0  0  0  0  0  0  0
   59.0870   32.4250   47.2030 C   0  0  0  0  0  0  0  0  0  0  0  0
   58.1340   31.5470   46.3690 C   0  0  0  0  0  0  0  0  0  0  0  0
   56.9340   28.8090   45.2740 N   0  0  0  0  0  0  0  0  0  0  0  0
   57.2600   27.5840   45.7680 C   0  0  0  0  0  0  0  0  0  0  0  0
   58.9348   25.8277   47.3204 H   0  0  0  0  0  0  0  0  0  0  0  0
   58.2348   25.0078   45.8837 H   0  0  0  0  0  0  0  0  0  0  0  0
   59.9621   25.5006   45.8837 H   0  0  0  0  0  0  0  0  0  0  0  0
   60.5759   27.5695   44.9559 H   0  0  0  0  0  0  0  0  0  0  0  0
   59.9300   29.8121   44.0574 H   0  0  0  0  0  0  0  0  0  0  0  0
   57.8333   31.0642   43.1058 H   0  0  0  0  0  0  0  0  0  0  0  0
   56.3385   31.0008   44.1095 H   0  0  0  0  0  0  0  0  0  0  0  0
   56.4805   33.1766   44.0153 H   0  0  0  0  0  0  0  0  0  0  0  0
   56.4977   33.2754   45.8256 H   0  0  0  0  0  0  0  0  0  0  0  0
   58.4315   34.5835   43.8551 H   0  0  0  0  0  0  0  0  0  0  0  0
   57.2757   35.3706   45.0336 H   0  0  0  0  0  0  0  0  0  0  0  0
   59.9864   34.1765   45.4905 H   0  0  0  0  0  0  0  0  0  0  0  0
   59.1659   35.6633   46.1907 H   0  0  0  0  0  0  0  0  0  0  0  0
   59.5300   35.6143   48.0976 H   0  0  0  0  0  0  0  0  0  0  0  0
   58.5665   34.5329   49.1738 H   0  0  0  0  0  0  0  0  0  0  0  0
   60.0421   33.2582   50.8871 H   0  0  0  0  0  0  0  0  0  0  0  0
   62.4630   32.2400   50.8760 H   0  0  0  0  0  0  0  0  0  0  0  0
   64.5057   32.1295   49.0661 H   0  0  0  0  0  0  0  0  0  0  0  0
   65.1478   32.8033   46.7216 H   0  0  0  0  0  0  0  0  0  0  0  0
   63.5258   34.0779   45.2956 H   0  0  0  0  0  0  0  0  0  0  0  0
   61.2565   34.6713   46.2229 H   0  0  0  0  0  0  0  0  0  0  0  0
   60.1064   32.2950   46.8107 H   0  0  0  0  0  0  0  0  0  0  0  0
   58.9842   32.0954   48.2474 H   0  0  0  0  0  0  0  0  0  0  0  0
   58.5385   30.5246   46.3373 H   0  0  0  0  0  0  0  0  0  0  0  0
   57.1467   31.5863   46.8524 H   0  0  0  0  0  0  0  0  0  0  0  0
   56.4934   26.9699   46.2632 H   0  0  0  0  0  0  0  0  0  0  0  0
  1  2  1  0
  2  3  2  0
  3  4  1  0
  4  5  2  0
  5  6  1  0
  6  7  1  0
  7  8  1  0
  8  9  1  0
  9 10  1  0
 10 11  1  0
 11 12  1  0
 12 13  1  0
 13 14  2  0
 14 15  1  0
 15 16  2  0
 16 17  1  0
 17 18  2  0
 18 19  1  0
 19 20  2  0
 20 21  1  0
 11 22  1  0
 22 23  1  0
  5 24  1  0
 24 25  2  0
 25  2  1  0
 23  7  1  0
 21 13  1  0
 21 16  1  0
  1 26  1  0
  1 27  1  0
  1 28  1  0
  3 29  1  0
  4 30  1  0
  6 31  1  0
  6 32  1  0
  8 33  1  0
  8 34  1  0
  9 35  1  0
  9 36  1  0
 10 37  1  0
 10 38  1  0
 12 39  1  0
 12 40  1  0
 14 41  1  0
 15 42  1  0
 17 43  1  0
 18 44  1  0
 19 45  1  0
 20 46  1  0
 22 47  1  0
 22 48  1  0
 23 49  1  0
 23 50  1  0
 25 51  1  0
M  CHG  1  15   1
M  END
>  <UniqueID>  (2) 
2

>  <SMILES>  (2) 
Cc1ccc(CN2CCCN(Cc3c[nH+]c4ccccn34)CC2)nc1

>  <Energy>  (2) 
105.05459512354129

>  <Genealogy>  (2) 
Cc1ccc(CN2CCCN(Cc3c[nH+]c4ccccn34)CC2)nc1 (protonated)
Cc1ccc(CN2CCCN(Cc3c[nH+]c4ccccn34)CC2)nc1 (3D coordinates assigned)
Cc1ccc(CN2CCCN(Cc3c[nH+]c4ccccn34)CC2)nc1 (nonaromatic ring conformer: 105.05459512354129 kcal/mol)

>  <smiles>  (2) 
Cc1ccc(CN2CCCN(Cc3cnc4ccccn34)CC2)nc1

>  <score_type>  (2) 
oracle

>  <origin>  (2) 
adg

>  <m_score__min__energy>  (2) 
-4.8300000000000001

>  <m_primary>  (2) 
energy

$$$$
2:0
     RDKit          3D

 30 31  0  0  1  0  0  0  0  0999 V2000
   59.4170   34.8680   46.0950 C   0  0  0  0  0  0  0  0  0  0  0  0
   58.6520   34.4530   44.8700 C   0  0  0  0  0  0  0  0  0  0  0  0
   57.6410   33.3980   45.1800 C   0  0  0  0  0  0  0  0  0  0  0  0
   57.6030   32.1410   43.9240 S   0  0  0  0  0  0  0  0  0  0  0  0
   56.9300   30.5570   44.5020 C   0  0  0  0  0  0  0  0  0  0  0  0
   56.0800   29.8990   44.8630 N   0  0  0  0  0  0  0  0  0  0  0  0
   56.0440   28.6560   45.2110 N   0  0  0  0  0  0  0  0  0  0  0  0
   57.1890   28.0070   45.1460 C   0  0  0  0  0  0  0  0  0  0  0  0
   57.4940   26.7880   45.4140 N   0  0  0  0  0  0  0  0  0  0  0  0
   56.4730   25.7810   45.5320 C   0  0  0  0  0  0  0  0  0  0  0  0
   55.3460   26.0220   46.0360 O   0  0  0  0  0  0  0  0  0  0  0  0
   56.8450   24.4550   45.0210 C   0  0  0  0  0  0  0  0  0  0  0  0
   56.2560   24.0770   43.8310 C   0  0  0  0  0  0  0  0  0  0  0  0
   56.5430   22.8490   43.2770 C   0  0  0  0  0  0  0  0  0  0  0  0
   57.4210   22.0070   43.9210 C   0  0  0  0  0  0  0  0  0  0  0  0
   57.9970   22.4260   45.1240 C   0  0  0  0  0  0  0  0  0  0  0  0
   57.6890   23.6370   45.6330 N   0  0  0  0  0  0  0  0  0  0  0  0
   58.3460   29.2420   44.5630 S   0  0  0  0  0  0  0  0  0  0  0  0
   58.8605   34.5661   46.9946 H   0  0  0  0  0  0  0  0  0  0  0  0
   60.4035   34.3814   46.0936 H   0  0  0  0  0  0  0  0  0  0  0  0
   59.5470   35.9603   46.0936 H   0  0  0  0  0  0  0  0  0  0  0  0
   58.1348   35.3321   44.4581 H   0  0  0  0  0  0  0  0  0  0  0  0
   59.3669   34.0394   44.1435 H   0  0  0  0  0  0  0  0  0  0  0  0
   57.8946   32.9324   46.1438 H   0  0  0  0  0  0  0  0  0  0  0  0
   56.6496   33.8727   45.2226 H   0  0  0  0  0  0  0  0  0  0  0  0
   55.1430   28.1780   45.5320 H   0  0  0  0  0  0  0  0  0  0  0  0
   55.5562   24.7578   43.3243 H   0  0  0  0  0  0  0  0  0  0  0  0
   56.0751   22.5442   42.3293 H   0  0  0  0  0  0  0  0  0  0  0  0
   57.6651   21.0219   43.4967 H   0  0  0  0  0  0  0  0  0  0  0  0
   58.7010   21.7687   45.6553 H   0  0  0  0  0  0  0  0  0  0  0  0
  1  2  1  0
  2  3  1  0
  3  4  1  0
  4  5  1  0
  5  6  2  0
  6  7  1  0
  7  8  1  0
  8  9  2  0
  9 10  1  0
 10 11  2  0
 10 12  1  0
 12 13  2  0
 13 14  1  0
 14 15  2  0
 15 16  1  0
 16 17  2  0
  8 18  1  0
 18  5  1  0
 17 12  1  0
  1 19  1  0
  1 20  1  0
  1 21  1  0
  2 22  1  0
  2 23  1  0
  3 24  1  0
  3 25  1  0
  7 26  1  0
 13 27  1  0
 14 28  1  0
 15 29  1  0
 16 30  1  0
M  END
>  <smiles>  (3) 
CCCSc1n[nH]c(=NC(=O)c2ccccn2)s1

>  <score_type>  (3) 
oracle

>  <origin>  (3) 
adg

>  <m_score__min__energy>  (3) 
-7.6299999999999999

>  <m_primary>  (3) 
energy

$$$$
3:0
     RDKit          3D

 35 36  0  0  0  0  0  0  0  0999 V2000
   59.9420   33.4500   50.3680 C   0  0  0  0  0  0  0  0  0  0  0  0
   59.6510   33.7720   48.8960 C   0  0  0  0  0  0  0  0  0  0  0  0
   60.8420   34.1750   48.0920 N   0  0  0  0  0  0  0  0  0  0  0  0
   61.9400   33.1740   48.1140 C   0  0  0  0  0  0  0  0  0  0  0  0
   63.0070   33.4270   47.0440 C   0  0  0  0  0  0  0  0  0  0  0  0
   60.5040   34.5090   46.6840 C   0  0  0  0  0  0  0  0  0  0  0  0
   59.3850   33.6510   46.1340 C   0  0  0  0  0  0  0  0  0  0  0  0
   58.1510   34.2330   45.8010 C   0  0  0  0  0  0  0  0  0  0  0  0
   57.1040   33.4450   45.3120 C   0  0  0  0  0  0  0  0  0  0  0  0
   57.2780   32.0680   45.1540 C   0  0  0  0  0  0  0  0  0  0  0  0
   56.2790   31.3200   44.6890 O   0  0  0  0  0  0  0  0  0  0  0  0
   56.3900   30.0060   44.5200 C   0  0  0  0  0  0  0  0  0  0  0  0
   55.4100   29.3500   44.0770 O   0  0  0  0  0  0  0  0  0  0  0  0
   57.5860   29.3480   44.8300 C   0  0  0  0  0  0  0  0  0  0  0  0
   58.6580   30.0940   45.3180 C   0  0  0  0  0  0  0  0  0  0  0  0
   58.5150   31.4740   45.4870 C   0  0  0  0  0  0  0  0  0  0  0  0
   59.5630   32.2660   45.9740 C   0  0  0  0  0  0  0  0  0  0  0  0
   59.3446   34.1111   51.0130 H   0  0  0  0  0  0  0  0  0  0  0  0
   59.6787   32.4019   50.5731 H   0  0  0  0  0  0  0  0  0  0  0  0
   61.0114   33.6063   50.5731 H   0  0  0  0  0  0  0  0  0  0  0  0
   59.2122   32.8769   48.4310 H   0  0  0  0  0  0  0  0  0  0  0  0
   58.9738   34.6388   48.8986 H   0  0  0  0  0  0  0  0  0  0  0  0
   61.2210   35.0470   48.5300 H   0  0  0  0  0  0  0  0  0  0  0  0
   62.4216   33.2046   49.1025 H   0  0  0  0  0  0  0  0  0  0  0  0
   61.4919   32.1917   47.9038 H   0  0  0  0  0  0  0  0  0  0  0  0
   63.9671   33.6546   47.5302 H   0  0  0  0  0  0  0  0  0  0  0  0
   63.1172   32.5301   46.4168 H   0  0  0  0  0  0  0  0  0  0  0  0
   62.7028   34.2779   46.4168 H   0  0  0  0  0  0  0  0  0  0  0  0
   60.1949   35.5636   46.6367 H   0  0  0  0  0  0  0  0  0  0  0  0
   61.3991   34.3203   46.0731 H   0  0  0  0  0  0  0  0  0  0  0  0
   58.0069   35.3164   45.9257 H   0  0  0  0  0  0  0  0  0  0  0  0
   56.1420   33.9104   45.0514 H   0  0  0  0  0  0  0  0  0  0  0  0
   57.6785   28.2608   44.6909 H   0  0  0  0  0  0  0  0  0  0  0  0
   59.6087   29.6004   45.5680 H   0  0  0  0  0  0  0  0  0  0  0  0
   60.5270   31.8030   46.2316 H   0  0  0  0  0  0  0  0  0  0  0  0
  1  2  1  0
  2  3  1  0
  3  4  1  0
  4  5  1  0
  3  6  1  0
  6  7  1  0
  7  8  2  0
  8  9  1  0
  9 10  2  0
 10 11  1  0
 11 12  1  0
 12 13  2  0
 12 14  1  0
 14 15  2  0
 15 16  1  0
 16 17  2  0
 17  7  1  0
 16 10  1  0
  1 18  1  0
  1 19  1  0
  1 20  1  0
  2 21  1  0
  2 22  1  0
  3 23  1  0
  4 24  1  0
  4 25  1  0
  5 26  1  0
  5 27  1  0
  5 28  1  0
  6 29  1  0
  6 30  1  0
  8 31  1  0
  9 32  1  0
 14 33  1  0
 15 34  1  0
 17 35  1  0
M  CHG  1   3   1
M  END
>  <UniqueID>  (4) 
3

>  <SMILES>  (4) 
CC[NH+](CC)Cc1ccc2oc(=O)ccc2c1

>  <Energy>  (4) 
41.61536959829897

>  <Genealogy>  (4) 
CC[NH+](CC)Cc1ccc2oc(=O)ccc2c1 (protonated)
CC[NH+](CC)Cc1ccc2oc(=O)ccc2c1 (3D coordinates assigned)
CC[NH+](CC)Cc1ccc2oc(=O)ccc2c1 (optimized conformer: 41.61536959829897 kcal/mol)

>  <smiles>  (4) 
CCN(CC)Cc1ccc2oc(=O)ccc2c1

>  <score_type>  (4) 
oracle

>  <origin>  (4) 
adg

>  <m_score__min__energy>  (4) 
-5.0599999999999996

>  <m_primary>  (4) 
energy

$$$$
4:0
     RDKit          3D

 33 35  0  0  0  0  0  0  0  0999 V2000
   60.5040   26.0030   46.5620 C   0  0  0  0  0  0  0  0  0  0  0  0
   59.5960   27.0160   45.9300 C   0  0  0  0  0  0  0  0  0  0  0  0
   58.2030   26.8660   46.0120 C   0  0  0  0  0  0  0  0  0  0  0  0
   57.3560   27.8270   45.4520 C   0  0  0  0  0  0  0  0  0  0  0  0
   57.8930   28.9540   44.8150 C   0  0  0  0  0  0  0  0  0  0  0  0
   56.8400   30.1650   44.0940 S   0  0  0  0  0  0  0  0  0  0  0  0
   55.5120   30.1330   44.7970 O   0  0  0  0  0  0  0  0  0  0  0  0
   56.6260   29.8800   42.6340 O   0  0  0  0  0  0  0  0  0  0  0  0
   57.5700   31.7320   44.2610 N   0  0  0  0  0  0  0  0  0  0  0  0
   57.9420   32.5940   43.2770 C   0  0  0  0  0  0  0  0  0  0  0  0
   57.7870   32.3160   41.8150 C   0  0  0  0  0  0  0  0  0  0  0  0
   58.5320   33.7280   43.7470 N   0  0  0  0  0  0  0  0  0  0  0  0
   58.5070   33.5470   45.0810 C   0  0  0  0  0  0  0  0  0  0  0  0
   58.9860   34.3900   46.0770 C   0  0  0  0  0  0  0  0  0  0  0  0
   58.8520   33.9540   47.4080 C   0  0  0  0  0  0  0  0  0  0  0  0
   58.2500   32.7020   47.6820 C   0  0  0  0  0  0  0  0  0  0  0  0
   57.7980   31.9120   46.6610 N   0  0  0  0  0  0  0  0  0  0  0  0
   57.9340   32.3540   45.3860 C   0  0  0  0  0  0  0  0  0  0  0  0
   59.2830   29.1160   44.7510 C   0  0  0  0  0  0  0  0  0  0  0  0
   60.1300   28.1560   45.3090 C   0  0  0  0  0  0  0  0  0  0  0  0
   60.4343   26.0808   47.6570 H   0  0  0  0  0  0  0  0  0  0  0  0
   60.2030   24.9932   46.2462 H   0  0  0  0  0  0  0  0  0  0  0  0
   61.5406   26.1922   46.2462 H   0  0  0  0  0  0  0  0  0  0  0  0
   57.7757   25.9884   46.5192 H   0  0  0  0  0  0  0  0  0  0  0  0
   56.2652   27.6982   45.5115 H   0  0  0  0  0  0  0  0  0  0  0  0
   57.2555   31.3628   41.6773 H   0  0  0  0  0  0  0  0  0  0  0  0
   57.2113   33.1278   41.3464 H   0  0  0  0  0  0  0  0  0  0  0  0
   58.7802   32.2530   41.3464 H   0  0  0  0  0  0  0  0  0  0  0  0
   59.4503   35.3573   45.8348 H   0  0  0  0  0  0  0  0  0  0  0  0
   59.2140   34.5842   48.2337 H   0  0  0  0  0  0  0  0  0  0  0  0
   58.1451   32.3624   48.7230 H   0  0  0  0  0  0  0  0  0  0  0  0
   59.7090   30.0029   44.2592 H   0  0  0  0  0  0  0  0  0  0  0  0
   61.2203   28.2938   45.2617 H   0  0  0  0  0  0  0  0  0  0  0  0
  1  2  1  0
  2  3  2  0
  3  4  1  0
  4  5  2  0
  5  6  1  0
  6  7  2  0
  6  8  2  0
  6  9  1  0
  9 10  1  0
 10 11  1  0
 10 12  2  0
 12 13  1  0
 13 14  2  0
 14 15  1  0
 15 16  2  0
 16 17  1  0
 17 18  2  0
  5 19  1  0
 19 20  2  0
 20  2  1  0
 18  9  1  0
 18 13  1  0
  1 21  1  0
  1 22  1  0
  1 23  1  0
  3 24  1  0
  4 25  1  0
 11 26  1  0
 11 27  1  0
 11 28  1  0
 14 29  1  0
 15 30  1  0
 16 31  1  0
 19 32  1  0
 20 33  1  0
M  END
>  <UniqueID>  (5) 
4

>  <SMILES>  (5) 
Cc1ccc(S(=O)(=O)n2c(C)nc3cccnc32)cc1

>  <Energy>  (5) 
75.03215581146716

>  <Genealogy>  (5) 
Cc1ccc(S(=O)(=O)n2c(C)nc3cccnc32)cc1 (3D coordinates assigned)
Cc1ccc(S(=O)(=O)n2c(C)nc3cccnc32)cc1 (optimized conformer: 75.03215581146716 kcal/mol)

>  <smiles>  (5) 
Cc1ccc(S(=O)(=O)n2c(C)nc3cccnc32)cc1

>  <score_type>  (5) 
oracle

>  <origin>  (5) 
adg

>  <m_score__min__energy>  (5) 
-8.0099999999999998

>  <m_primary>  (5) 
energy

$$$$
5:0
     RDKit          3D

 49 51  0  0  0  0  0  0  0  0999 V2000
   57.4520   27.8380   46.3830 C   0  0  0  0  0  0  0  0  0  0  0  0
   57.3770   29.0170   45.4560 C   0  0  0  0  0  0  0  0  0  0  0  0
   56.1710   29.3080   44.8920 N   0  0  0  0  0  0  0  0  0  0  0  0
   56.0110   30.3060   43.9860 C   0  0  0  0  0  0  0  0  0  0  0  0
   57.1090   31.0550   43.5770 C   0  0  0  0  0  0  0  0  0  0  0  0
   58.3630   30.7840   44.1220 C   0  0  0  0  0  0  0  0  0  0  0  0
   58.5190   29.7830   45.0960 C   0  0  0  0  0  0  0  0  0  0  0  0
   59.9030   29.5180   45.6780 C   0  0  0  0  0  0  0  0  0  0  0  0
   60.1440   30.1160   47.0180 N   0  0  0  0  0  0  0  0  0  0  0  0
   61.4410   30.8320   47.1130 C   0  0  0  0  0  0  0  0  0  0  0  0
   61.9140   31.0330   48.5710 C   0  0  0  0  0  0  0  0  0  0  0  0
   60.7930   31.0880   49.5290 N   0  0  0  0  0  0  0  0  0  0  0  0
   60.0300   32.3550   49.4580 C   0  0  0  0  0  0  0  0  0  0  0  0
   58.5500   32.0580   49.2020 C   0  0  0  0  0  0  0  0  0  0  0  0
   58.3030   31.8600   47.8090 O   0  0  0  0  0  0  0  0  0  0  0  0
   58.3490   32.8580   46.8210 C   0  0  0  0  0  0  0  0  0  0  0  0
   59.5640   33.5250   46.6150 C   0  0  0  0  0  0  0  0  0  0  0  0
   59.6690   34.5250   45.6430 C   0  0  0  0  0  0  0  0  0  0  0  0
   58.5590   34.8690   44.8700 C   0  0  0  0  0  0  0  0  0  0  0  0
   57.3400   34.2170   45.0720 C   0  0  0  0  0  0  0  0  0  0  0  0
   57.2300   33.2170   46.0440 C   0  0  0  0  0  0  0  0  0  0  0  0
   59.9370   29.8750   49.4830 C   0  0  0  0  0  0  0  0  0  0  0  0
   59.9810   29.1480   48.1210 C   0  0  0  0  0  0  0  0  0  0  0  0
   57.4297   28.1890   47.4252 H   0  0  0  0  0  0  0  0  0  0  0  0
   56.5943   27.1736   46.2014 H   0  0  0  0  0  0  0  0  0  0  0  0
   58.3870   27.2877   46.2014 H   0  0  0  0  0  0  0  0  0  0  0  0
   55.0136   30.5221   43.5756 H   0  0  0  0  0  0  0  0  0  0  0  0
   56.9891   31.8539   42.8304 H   0  0  0  0  0  0  0  0  0  0  0  0
   59.2387   31.3590   43.7866 H   0  0  0  0  0  0  0  0  0  0  0  0
   60.0361   28.4292   45.7608 H   0  0  0  0  0  0  0  0  0  0  0  0
   60.6214   29.9938   44.9942 H   0  0  0  0  0  0  0  0  0  0  0  0
   59.3860   30.8300   47.1280 H   0  0  0  0  0  0  0  0  0  0  0  0
   62.2031   30.2499   46.5742 H   0  0  0  0  0  0  0  0  0  0  0  0
   61.2993   31.8298   46.6723 H   0  0  0  0  0  0  0  0  0  0  0  0
   62.5720   30.1957   48.8465 H   0  0  0  0  0  0  0  0  0  0  0  0
   62.4417   31.9969   48.6201 H   0  0  0  0  0  0  0  0  0  0  0  0
   60.1340   32.8973   50.4094 H   0  0  0  0  0  0  0  0  0  0  0  0
   60.4238   32.9695   48.6350 H   0  0  0  0  0  0  0  0  0  0  0  0
   58.2651   31.1484   49.7511 H   0  0  0  0  0  0  0  0  0  0  0  0
   57.9548   32.9168   49.5457 H   0  0  0  0  0  0  0  0  0  0  0  0
   60.4419   33.2600   47.2225 H   0  0  0  0  0  0  0  0  0  0  0  0
   60.6278   35.0412   45.4875 H   0  0  0  0  0  0  0  0  0  0  0  0
   58.6438   35.6525   44.1026 H   0  0  0  0  0  0  0  0  0  0  0  0
   56.4644   34.4907   44.4651 H   0  0  0  0  0  0  0  0  0  0  0  0
   56.2670   32.7095   46.2021 H   0  0  0  0  0  0  0  0  0  0  0  0
   60.2776   29.1774   50.2624 H   0  0  0  0  0  0  0  0  0  0  0  0
   58.8992   30.2020   49.6446 H   0  0  0  0  0  0  0  0  0  0  0  0
   60.8279   28.4460   48.1135 H   0  0  0  0  0  0  0  0  0  0  0  0
   59.0346   28.6057   47.9787 H   0  0  0  0  0  0  0  0  0  0  0  0
  1  2  1  0
  2  3  2  0
  3  4  1  0
  4  5  2  0
  5  6  1  0
  6  7  2  0
  7  8  1  0
  8  9  1  0
  9 10  1  0
 10 11  1  0
 11 12  1  0
 12 13  1  0
 13 14  1  0
 14 15  1  0
 15 16  1  0
 16 17  2  0
 17 18  1  0
 18 19  2  0
 19 20  1  0
 20 21  2  0
 12 22  1  0
 22 23  1  0
  7  2  1  0
 23  9  1  0
 21 16  1  0
  1 24  1  0
  1 25  1  0
  1 26  1  0
  4 27  1  0
  5 28  1  0
  6 29  1  0
  8 30  1  0
  8 31  1  0
  9 32  1  0
 10 33  1  0
 10 34  1  0
 11 35  1  0
 11 36  1  0
 13 37  1  0
 13 38  1  0
 14 39  1  0
 14 40  1  0
 17 41  1  0
 18 42  1  0
 19 43  1  0
 20 44  1  0
 21 45  1  0
 22 46  1  0
 22 47  1  0
 23 48  1  0
 23 49  1  0
M  CHG  1   9   1
M  END
>  <UniqueID>  (6) 
5

>  <SMILES>  (6) 
Cc1ncccc1C[NH+]1CCN(CCOc2ccccc2)CC1

>  <Energy>  (6) 
67.96076803627032

>  <Genealogy>  (6) 
Cc1ncccc1C[NH+]1CCN(CCOc2ccccc2)CC1 (protonated)
Cc1ncccc1C[NH+]1CCN(CCOc2ccccc2)CC1 (3D coordinates assigned)
Cc1ncccc1C[NH+]1CCN(CCOc2ccccc2)CC1 (nonaromatic ring conformer: 67.96076803627032 kcal/mol)

>  <smiles>  (6) 
Cc1ncccc1CN1CCN(CCOc2ccccc2)CC1

>  <score_type>  (6) 
oracle

>  <origin>  (6) 
adg

>  <m_score__min__energy>  (6) 
-5.1699999999999999

>  <m_primary>  (6) 
energy

$$$$
6:0
     RDKit          3D

 43 44  0  0  0  0  0  0  0  0999 V2000
   56.9740   21.1990   42.9970 C   0  0  0  0  0  0  0  0  0  0  0  0
   56.5050   22.3100   43.8420 N   0  0  0  0  0  0  0  0  0  0  0  0
   55.7780   23.2790   42.9990 C   0  0  0  0  0  0  0  0  0  0  0  0
   57.6540   22.9570   44.5140 C   0  0  0  0  0  0  0  0  0  0  0  0
   57.8510   22.3970   45.9310 C   0  0  0  0  0  0  0  0  0  0  0  0
   57.7680   23.4640   46.9260 N   0  0  0  0  0  0  0  0  0  0  0  0
   56.8490   24.5640   46.8690 C   0  0  0  0  0  0  0  0  0  0  0  0
   55.6740   24.4040   47.2920 O   0  0  0  0  0  0  0  0  0  0  0  0
   57.2590   25.8890   46.3710 C   0  0  0  0  0  0  0  0  0  0  0  0
   56.3170   26.7650   45.8150 C   0  0  0  0  0  0  0  0  0  0  0  0
   56.7300   27.9810   45.2600 C   0  0  0  0  0  0  0  0  0  0  0  0
   58.0850   28.3280   45.2440 C   0  0  0  0  0  0  0  0  0  0  0  0
   58.4760   29.5490   44.6010 N   0  0  0  0  0  0  0  0  0  0  0  0
   57.4280   30.9070   44.3540 S   0  0  0  0  0  0  0  0  0  0  0  0
   57.3610   31.2170   42.8850 O   0  0  0  0  0  0  0  0  0  0  0  0
   56.0460   30.5750   44.8400 O   0  0  0  0  0  0  0  0  0  0  0  0
   58.0810   32.3080   45.2000 C   0  0  0  0  0  0  0  0  0  0  0  0
   58.4130   33.4790   44.5030 C   0  0  0  0  0  0  0  0  0  0  0  0
   58.8930   34.5960   45.1950 C   0  0  0  0  0  0  0  0  0  0  0  0
   59.0470   34.5470   46.5830 C   0  0  0  0  0  0  0  0  0  0  0  0
   58.7250   33.3800   47.2820 C   0  0  0  0  0  0  0  0  0  0  0  0
   58.8730   33.3340   48.6290 F   0  0  0  0  0  0  0  0  0  0  0  0
   58.2370   32.2640   46.5930 C   0  0  0  0  0  0  0  0  0  0  0  0
   59.0230   27.4700   45.8460 C   0  0  0  0  0  0  0  0  0  0  0  0
   58.6090   26.2620   46.4140 C   0  0  0  0  0  0  0  0  0  0  0  0
   57.3222   20.3741   43.6359 H   0  0  0  0  0  0  0  0  0  0  0  0
   56.1476   20.8472   42.3619 H   0  0  0  0  0  0  0  0  0  0  0  0
   57.8025   21.5458   42.3619 H   0  0  0  0  0  0  0  0  0  0  0  0
   55.2419   23.9936   43.6408 H   0  0  0  0  0  0  0  0  0  0  0  0
   56.4936   23.8218   42.3639 H   0  0  0  0  0  0  0  0  0  0  0  0
   55.0567   22.7438   42.3639 H   0  0  0  0  0  0  0  0  0  0  0  0
   58.5648   22.7736   43.9251 H   0  0  0  0  0  0  0  0  0  0  0  0
   57.4536   24.0360   44.5888 H   0  0  0  0  0  0  0  0  0  0  0  0
   57.0691   21.6509   46.1360 H   0  0  0  0  0  0  0  0  0  0  0  0
   58.8470   21.9340   45.9922 H   0  0  0  0  0  0  0  0  0  0  0  0
   55.2504   26.4959   45.8149 H   0  0  0  0  0  0  0  0  0  0  0  0
   55.9846   28.6684   44.8336 H   0  0  0  0  0  0  0  0  0  0  0  0
   58.2957   33.5191   43.4100 H   0  0  0  0  0  0  0  0  0  0  0  0
   59.1495   35.5140   44.6459 H   0  0  0  0  0  0  0  0  0  0  0  0
   59.4218   35.4272   47.1259 H   0  0  0  0  0  0  0  0  0  0  0  0
   57.9750   31.3497   47.1456 H   0  0  0  0  0  0  0  0  0  0  0  0
   60.0863   27.7508   45.8698 H   0  0  0  0  0  0  0  0  0  0  0  0
   59.3451   25.6021   46.8963 H   0  0  0  0  0  0  0  0  0  0  0  0
  1  2  1  0
  2  3  1  0
  2  4  1  0
  4  5  1  0
  5  6  1  0
  6  7  1  0
  7  8  2  0
  7  9  1  0
  9 10  2  0
 10 11  1  0
 11 12  2  0
 12 13  1  0
 13 14  1  0
 14 15  2  0
 14 16  2  0
 14 17  1  0
 17 18  2  0
 18 19  1  0
 19 20  2  0
 20 21  1  0
 21 22  1  0
 21 23  2  0
 12 24  1  0
 24 25  2  0
 25  9  1  0
 23 17  1  0
  1 26  1  0
  1 27  1  0
  1 28  1  0
  3 29  1  0
  3 30  1  0
  3 31  1  0
  4 32  1  0
  4 33  1  0
  5 34  1  0
  5 35  1  0
 10 36  1  0
 11 37  1  0
 18 38  1  0
 19 39  1  0
 20 40  1  0
 23 41  1  0
 24 42  1  0
 25 43  1  0
M  CHG  2   6  -1  13  -1
M  END
>  <UniqueID>  (7) 
6

>  <SMILES>  (7) 
CN(C)CC[N-]C(=O)c1ccc([N-]S(=O)(=O)c2cccc(F)c2)cc1

>  <Energy>  (7) 
46.766888517819716

>  <Genealogy>  (7) 
CN(C)CC[N-]C(=O)c1ccc([N-]S(=O)(=O)c2cccc(F)c2)cc1 (protonated)
CN(C)CC[N-]C(=O)c1ccc([N-]S(=O)(=O)c2cccc(F)c2)cc1 (3D coordinates assigned)
CN(C)CC[N-]C(=O)c1ccc([N-]S(=O)(=O)c2cccc(F)c2)cc1 (optimized conformer: 46.766888517819716 kcal/mol)

>  <smiles>  (7) 
CN(C)CCNC(=O)c1ccc(NS(=O)(=O)c2cccc(F)c2)cc1

>  <score_type>  (7) 
oracle

>  <origin>  (7) 
adg

>  <m_score__min__energy>  (7) 
-10.609999999999999

>  <m_primary>  (7) 
energy

$$$$
7:0
     RDKit          3D

 42 43  0  0  0  0  0  0  0  0999 V2000
   57.4020   31.9360   41.5710 C   0  0  0  0  0  0  0  0  0  0  0  0
   58.1380   32.5340   42.7660 C   0  0  0  0  0  0  0  0  0  0  0  0
   57.9190   31.6890   43.9680 N   0  0  0  0  0  0  0  0  0  0  0  0
   57.1590   32.4570   44.9860 C   0  0  0  0  0  0  0  0  0  0  0  0
   58.0710   32.9420   46.0720 C   0  0  0  0  0  0  0  0  0  0  0  0
   57.7650   33.8690   47.0420 C   0  0  0  0  0  0  0  0  0  0  0  0
   58.8460   34.0600   47.7630 O   0  0  0  0  0  0  0  0  0  0  0  0
   59.7980   33.2960   47.2660 C   0  0  0  0  0  0  0  0  0  0  0  0
   61.1710   33.2430   47.8200 C   0  0  0  0  0  0  0  0  0  0  0  0
   62.2730   33.3730   46.9560 C   0  0  0  0  0  0  0  0  0  0  0  0
   63.5780   33.3280   47.4540 C   0  0  0  0  0  0  0  0  0  0  0  0
   63.8050   33.1680   48.8280 C   0  0  0  0  0  0  0  0  0  0  0  0
   65.2060   33.0800   49.3580 C   0  0  0  0  0  0  0  0  0  0  0  0
   62.7120   33.0210   49.6930 C   0  0  0  0  0  0  0  0  0  0  0  0
   61.4060   33.0650   49.1970 C   0  0  0  0  0  0  0  0  0  0  0  0
   59.3600   32.5870   46.2040 N   0  0  0  0  0  0  0  0  0  0  0  0
   57.3240   30.3640   43.6060 C   0  0  0  0  0  0  0  0  0  0  0  0
   58.1650   29.2310   44.2260 C   0  0  0  0  0  0  0  0  0  0  0  0
   55.8710   30.1730   44.0970 C   0  0  0  0  0  0  0  0  0  0  0  0
   56.5946   31.2800   41.9285 H   0  0  0  0  0  0  0  0  0  0  0  0
   56.9740   32.7455   40.9614 H   0  0  0  0  0  0  0  0  0  0  0  0
   58.1067   31.3513   40.9614 H   0  0  0  0  0  0  0  0  0  0  0  0
   59.2145   32.5819   42.5449 H   0  0  0  0  0  0  0  0  0  0  0  0
   57.7532   33.5462   42.9594 H   0  0  0  0  0  0  0  0  0  0  0  0
   56.6804   33.3217   44.5031 H   0  0  0  0  0  0  0  0  0  0  0  0
   56.3977   31.7990   45.4304 H   0  0  0  0  0  0  0  0  0  0  0  0
   56.7918   34.3607   47.1871 H   0  0  0  0  0  0  0  0  0  0  0  0
   62.1061   33.5115   45.8776 H   0  0  0  0  0  0  0  0  0  0  0  0
   64.4306   33.4185   46.7649 H   0  0  0  0  0  0  0  0  0  0  0  0
   65.1828   33.0815   50.4578 H   0  0  0  0  0  0  0  0  0  0  0  0
   65.6749   32.1506   49.0024 H   0  0  0  0  0  0  0  0  0  0  0  0
   65.7875   33.9434   49.0024 H   0  0  0  0  0  0  0  0  0  0  0  0
   62.8831   32.8700   50.7691 H   0  0  0  0  0  0  0  0  0  0  0  0
   60.5558   32.9599   49.8871 H   0  0  0  0  0  0  0  0  0  0  0  0
   59.8850   31.9170   45.6010 H   0  0  0  0  0  0  0  0  0  0  0  0
   57.3205   30.3338   42.5064 H   0  0  0  0  0  0  0  0  0  0  0  0
   58.1164   29.2965   45.3230 H   0  0  0  0  0  0  0  0  0  0  0  0
   57.7682   28.2586   43.8988 H   0  0  0  0  0  0  0  0  0  0  0  0
   59.2106   29.3293   43.8988 H   0  0  0  0  0  0  0  0  0  0  0  0
   55.8530   30.1706   45.1968 H   0  0  0  0  0  0  0  0  0  0  0  0
   55.2459   30.9967   43.7218 H   0  0  0  0  0  0  0  0  0  0  0  0
   55.4800   29.2157   43.7218 H   0  0  0  0  0  0  0  0  0  0  0  0
  1  2  1  0
  2  3  1  0
  3  4  1  0
  4  5  1  0
  5  6  2  0
  6  7  1  0
  7  8  1  0
  8  9  1  0
  9 10  2  0
 10 11  1  0
 11 12  2  0
 12 13  1  0
 12 14  1  0
 14 15  2  0
  8 16  2  0
  3 17  1  0
 17 18  1  0
 17 19  1  0
 16  5  1  0
 15  9  1  0
  1 20  1  0
  1 21  1  0
  1 22  1  0
  2 23  1  0
  2 24  1  0
  4 25  1  0
  4 26  1  0
  6 27  1  0
 10 28  1  0
 11 29  1  0
 13 30  1  0
 13 31  1  0
 13 32  1  0
 14 33  1  0
 15 34  1  0
 16 35  1  0
 17 36  1  0
 18 37  1  0
 18 38  1  0
 18 39  1  0
 19 40  1  0
 19 41  1  0
 19 42  1  0
M  CHG  1  16   1
M  END
>  <UniqueID>  (8) 
7

>  <SMILES>  (8) 
CCN(Cc1coc(-c2ccc(C)cc2)[nH+]1)C(C)C

>  <Energy>  (8) 
75.57660519631852

>  <Genealogy>  (8) 
CCN(Cc1coc(-c2ccc(C)cc2)[nH+]1)C(C)C (protonated)
CCN(Cc1coc(-c2ccc(C)cc2)[nH+]1)C(C)C (3D coordinates assigned)
CCN(Cc1coc(-c2ccc(C)cc2)[nH+]1)C(C)C (optimized conformer: 75.57660519631852 kcal/mol)

>  <smiles>  (8) 
CCN(Cc1coc(-c2ccc(C)cc2)n1)C(C)C

>  <score_type>  (8) 
oracle

>  <origin>  (8) 
adg

>  <m_score__min__energy>  (8) 
-5.1699999999999999

>  <m_primary>  (8) 
energy

$$$$
8:0
     RDKit          3D

 59 61  0  0  0  0  0  0  0  0999 V2000
   58.3474   35.7256   45.7586 H   0  0  0  0  0  0  0  0  0  0  0  0
   58.5540   34.6780   46.0230 C   0  0  0  0  0  0  0  0  0  0  0  0
   59.8570   34.1800   45.9380 C   0  0  0  0  0  0  0  0  0  0  0  0
   60.6737   34.8336   45.5977 H   0  0  0  0  0  0  0  0  0  0  0  0
   60.1240   32.8520   46.2850 C   0  0  0  0  0  0  0  0  0  0  0  0
   61.1473   32.4574   46.1999 H   0  0  0  0  0  0  0  0  0  0  0  0
   59.0880   32.0210   46.7420 C   0  0  0  0  0  0  0  0  0  0  0  0
   59.3630   30.6090   47.0930 C   0  0  0  0  0  0  0  0  0  0  0  0
   58.7940   29.5980   46.2880 C   0  0  0  0  0  0  0  0  0  0  0  0
   57.9180   29.9220   45.1410 C   0  0  0  0  0  0  0  0  0  0  0  0
   56.6170   29.4000   45.0660 C   0  0  0  0  0  0  0  0  0  0  0  0
   56.2392   28.7493   45.8684 H   0  0  0  0  0  0  0  0  0  0  0  0
   55.8010   29.7060   43.9730 C   0  0  0  0  0  0  0  0  0  0  0  0
   54.7846   29.2896   43.9132 H   0  0  0  0  0  0  0  0  0  0  0  0
   56.2740   30.5400   42.9560 C   0  0  0  0  0  0  0  0  0  0  0  0
   55.6310   30.7764   42.0954 H   0  0  0  0  0  0  0  0  0  0  0  0
   57.5640   31.0740   43.0320 C   0  0  0  0  0  0  0  0  0  0  0  0
   57.9342   31.7338   42.2335 H   0  0  0  0  0  0  0  0  0  0  0  0
   58.3840   30.7690   44.1240 C   0  0  0  0  0  0  0  0  0  0  0  0
   59.3966   31.1943   44.1853 H   0  0  0  0  0  0  0  0  0  0  0  0
   59.0260   28.2900   46.5790 N   0  0  0  0  0  0  0  0  0  0  0  0
   58.5820   27.5620   45.9720 H   0  0  0  0  0  0  0  0  0  0  0  0
   59.8130   27.9150   47.5940 N   0  0  0  0  0  0  0  0  0  0  0  0
   60.0190   26.4840   47.8480 C   0  0  0  0  0  0  0  0  0  0  0  0
   60.0449   26.3042   48.9329 H   0  0  0  0  0  0  0  0  0  0  0  0
   59.1943   25.9098   47.4007 H   0  0  0  0  0  0  0  0  0  0  0  0
   60.9722   26.1657   47.4007 H   0  0  0  0  0  0  0  0  0  0  0  0
   60.3690   28.8450   48.4270 C   0  0  0  0  0  0  0  0  0  0  0  0
   61.0750   28.4720   49.4070 O   0  0  0  0  0  0  0  0  0  0  0  0
   60.1550   30.2180   48.2130 C   0  0  0  0  0  0  0  0  0  0  0  0
   60.6840   31.0430   49.0830 N   0  0  0  0  0  0  0  0  0  0  0  0
   60.0630   32.0690   49.9140 C   0  0  0  0  0  0  0  0  0  0  0  0
   59.6295   31.6000   50.8096 H   0  0  0  0  0  0  0  0  0  0  0  0
   59.2722   32.5720   49.3381 H   0  0  0  0  0  0  0  0  0  0  0  0
   61.1110   33.1000   50.3380 C   0  0  0  0  0  0  0  0  0  0  0  0
   62.0285   32.5739   50.6403 H   0  0  0  0  0  0  0  0  0  0  0  0
   60.7018   33.6847   51.1751 H   0  0  0  0  0  0  0  0  0  0  0  0
   61.4440   34.0660   49.1920 C   0  0  0  0  0  0  0  0  0  0  0  0
   61.2492   35.0970   49.5222 H   0  0  0  0  0  0  0  0  0  0  0  0
   60.8142   33.8139   48.3261 H   0  0  0  0  0  0  0  0  0  0  0  0
   62.8650   33.9450   48.7940 N   0  0  0  0  0  0  0  0  0  0  0  0
   63.0600   33.0550   47.6290 C   0  0  0  0  0  0  0  0  0  0  0  0
   62.1402   32.4758   47.4600 H   0  0  0  0  0  0  0  0  0  0  0  0
   63.9043   32.3816   47.8378 H   0  0  0  0  0  0  0  0  0  0  0  0
   63.3790   33.8640   46.3750 C   0  0  0  0  0  0  0  0  0  0  0  0
   63.7683   34.8512   46.6647 H   0  0  0  0  0  0  0  0  0  0  0  0
   64.1349   33.3325   45.7782 H   0  0  0  0  0  0  0  0  0  0  0  0
   62.4638   33.9914   45.7782 H   0  0  0  0  0  0  0  0  0  0  0  0
   63.7610   33.6550   49.9390 C   0  0  0  0  0  0  0  0  0  0  0  0
   64.3704   34.5494   50.1356 H   0  0  0  0  0  0  0  0  0  0  0  0
   63.1141   33.3860   50.7870 H   0  0  0  0  0  0  0  0  0  0  0  0
   64.7080   32.4670   49.7110 C   0  0  0  0  0  0  0  0  0  0  0  0
   65.0300   32.0631   50.6822 H   0  0  0  0  0  0  0  0  0  0  0  0
   64.1837   31.6838   49.1438 H   0  0  0  0  0  0  0  0  0  0  0  0
   65.5884   32.8035   49.1438 H   0  0  0  0  0  0  0  0  0  0  0  0
   57.7750   32.5170   46.7950 C   0  0  0  0  0  0  0  0  0  0  0  0
   56.9519   31.8601   47.1129 H   0  0  0  0  0  0  0  0  0  0  0  0
   57.5130   33.8450   46.4440 C   0  0  0  0  0  0  0  0  0  0  0  0
   56.4859   34.2350   46.4992 H   0  0  0  0  0  0  0  0  0  0  0  0
  1  2  1  0
  2  3  2  0
  3  4  1  0
  3  5  1  0
  5  6  1  0
  5  7  2  0
  7  8  1  0
  8  9  2  0
  9 10  1  0
 10 11  2  0
 11 12  1  0
 11 13  1  0
 13 14  1  0
 13 15  2  0
 15 16  1  0
 15 17  1  0
 17 18  1  0
 17 19  2  0
 19 20  1  0
  9 21  1  0
 21 22  1  0
 21 23  1  0
 23 24  1  0
 24 25  1  0
 24 26  1  0
 24 27  1  0
 23 28  1  0
 28 29  2  0
 28 30  1  0
 30 31  2  0
 31 32  1  0
 32 33  1  0
 32 34  1  0
 32 35  1  0
 35 36  1  0
 35 37  1  0
 35 38  1  0
 38 39  1  0
 38 40  1  0
 38 41  1  0
 41 42  1  0
 42 43  1  0
 42 44  1  0
 42 45  1  0
 45 46  1  0
 45 47  1  0
 45 48  1  0
 41 49  1  0
 49 50  1  0
 49 51  1  0
 49 52  1  0
 52 53  1  0
 52 54  1  0
 52 55  1  0
  7 56  1  0
 56 57  1  0
 56 58  2  0
 58 59  1  0
 58  2  1  0
 30  8  1  0
 19 10  1  0
M  END
>  <UniqueID>  (9) 
8

>  <SMILES>  (9) 
CCN(CC)CCC/N=c1\c(-c2ccccc2)c(-c2ccccc2)[nH]n(C)c1=O

>  <Energy>  (9) 
81.84714151026537

>  <Genealogy>  (9) 
CCN(CC)CCC/N=c1\c(-c2ccccc2)c(-c2ccccc2)[nH]n(C)c1=O (cis-trans isomerization)
CCN(CC)CCC/N=c1\c(-c2ccccc2)c(-c2ccccc2)[nH]n(C)c1=O (3D coordinates assigned)
CCN(CC)CCC/N=c1\c(-c2ccccc2)c(-c2ccccc2)[nH]n(C)c1=O (optimized conformer: 81.84714151026537 kcal/mol)

>  <smiles>  (9) 
CCN(CC)CCCN=c1c(-c2ccccc2)c(-c2ccccc2)[nH]n(C)c1=O

>  <score_type>  (9) 
oracle

>  <origin>  (9) 
adg

>  <m_score__min__energy>  (9) 
-7.1500000000000004

>  <m_primary>  (9) 
energy

$$$$
9:0
     RDKit          3D

 52 53  0  0  0  0  0  0  0  0999 V2000
   57.7640   33.2280   52.6340 C   0  0  0  0  0  0  0  0  0  0  0  0
   58.9250   34.1450   52.2670 C   0  0  0  0  0  0  0  0  0  0  0  0
   59.7770   33.5650   50.8090 S   0  0  0  0  0  0  0  0  0  0  0  0
   59.6690   34.6000   49.7260 O   0  0  0  0  0  0  0  0  0  0  0  0
   61.2260   33.3570   51.1530 O   0  0  0  0  0  0  0  0  0  0  0  0
   59.0670   32.0130   50.2670 C   0  0  0  0  0  0  0  0  0  0  0  0
   58.7920   31.9800   48.7530 C   0  0  0  0  0  0  0  0  0  0  0  0
   59.8530   32.6190   47.9310 N   0  0  0  0  0  0  0  0  0  0  0  0
   60.9010   31.6840   47.4030 C   0  0  1  0  0  0  0  0  0  0  0  0
   62.3100   32.2750   47.6890 C   0  0  0  0  0  0  0  0  0  0  0  0
   62.2630   33.5730   48.3830 N   0  0  0  0  0  0  0  0  0  0  0  0
   63.4430   33.7890   49.2220 C   0  0  0  0  0  0  0  0  0  0  0  0
   60.8000   30.2050   47.8870 C   0  0  0  0  0  0  0  0  0  0  0  0
   60.2210   29.3060   46.8330 C   0  0  0  0  0  0  0  0  0  0  0  0
   60.5560   29.3040   45.4860 C   0  0  0  0  0  0  0  0  0  0  0  0
   59.8200   28.3770   44.7370 C   0  0  0  0  0  0  0  0  0  0  0  0
   58.9040   27.6540   45.4900 C   0  0  0  0  0  0  0  0  0  0  0  0
   59.0090   28.1680   47.0880 S   0  0  0  0  0  0  0  0  0  0  0  0
   59.1500   33.5300   46.5920 S   0  0  0  0  0  0  0  0  0  0  0  0
   58.1610   34.5280   47.1280 O   0  0  0  0  0  0  0  0  0  0  0  0
   60.2080   34.2970   45.8480 O   0  0  0  0  0  0  0  0  0  0  0  0
   58.3580   32.4570   45.4410 C   0  0  0  0  0  0  0  0  0  0  0  0
   58.2950   32.7760   44.0780 C   0  0  0  0  0  0  0  0  0  0  0  0
   57.6460   31.9050   43.2020 C   0  0  0  0  0  0  0  0  0  0  0  0
   57.0710   30.7290   43.6880 C   0  0  0  0  0  0  0  0  0  0  0  0
   56.2500   29.6250   42.5990 Cl  0  0  0  0  0  0  0  0  0  0  0  0
   57.1580   30.4410   45.0530 C   0  0  0  0  0  0  0  0  0  0  0  0
   57.7940   31.3030   45.8900 N   0  0  0  0  0  0  0  0  0  0  0  0
   57.6807   33.1622   53.7289 H   0  0  0  0  0  0  0  0  0  0  0  0
   56.8301   33.6348   52.2190 H   0  0  0  0  0  0  0  0  0  0  0  0
   57.9434   32.2252   52.2190 H   0  0  0  0  0  0  0  0  0  0  0  0
   58.5360   35.1560   52.0759 H   0  0  0  0  0  0  0  0  0  0  0  0
   59.6380   34.1532   53.1046 H   0  0  0  0  0  0  0  0  0  0  0  0
   59.7662   31.2009   50.5151 H   0  0  0  0  0  0  0  0  0  0  0  0
   58.1024   31.8921   50.7818 H   0  0  0  0  0  0  0  0  0  0  0  0
   58.6990   30.9292   48.4413 H   0  0  0  0  0  0  0  0  0  0  0  0
   57.8697   32.5554   48.5848 H   0  0  0  0  0  0  0  0  0  0  0  0
   60.7179   31.6137   46.3206 H   0  0  0  0  0  0  0  0  0  0  0  0
   62.8674   31.5632   48.3156 H   0  0  0  0  0  0  0  0  0  0  0  0
   62.7992   32.4404   46.7177 H   0  0  0  0  0  0  0  0  0  0  0  0
   61.4310   33.5600   49.0180 H   0  0  0  0  0  0  0  0  0  0  0  0
   63.1539   33.7361   50.2820 H   0  0  0  0  0  0  0  0  0  0  0  0
   64.1926   33.0132   49.0072 H   0  0  0  0  0  0  0  0  0  0  0  0
   63.8692   34.7801   49.0072 H   0  0  0  0  0  0  0  0  0  0  0  0
   61.8073   29.8464   48.1453 H   0  0  0  0  0  0  0  0  0  0  0  0
   60.1318   30.1784   48.7604 H   0  0  0  0  0  0  0  0  0  0  0  0
   61.3216   29.9633   45.0510 H   0  0  0  0  0  0  0  0  0  0  0  0
   59.9548   28.2351   43.6546 H   0  0  0  0  0  0  0  0  0  0  0  0
   58.2255   26.8776   45.1067 H   0  0  0  0  0  0  0  0  0  0  0  0
   58.7523   33.7033   43.7025 H   0  0  0  0  0  0  0  0  0  0  0  0
   57.5874   32.1445   42.1300 H   0  0  0  0  0  0  0  0  0  0  0  0
   56.7120   29.5171   45.4499 H   0  0  0  0  0  0  0  0  0  0  0  0
  1  2  1  0
  2  3  1  0
  3  4  2  0
  3  5  2  0
  3  6  1  0
  6  7  1  0
  7  8  1  0
  8  9  1  0
  9 10  1  0
 10 11  1  0
 11 12  1  0
  9 13  1  0
 13 14  1  0
 14 15  2  0
 15 16  1  0
 16 17  2  0
 17 18  1  0
  8 19  1  0
 19 20  2  0
 19 21  2  0
 19 22  1  0
 22 23  2  0
 23 24  1  0
 24 25  2  0
 25 26  1  0
 25 27  1  0
 27 28  2  0
 18 14  1  0
 28 22  1  0
  1 29  1  0
  1 30  1  0
  1 31  1  0
  2 32  1  0
  2 33  1  0
  6 34  1  0
  6 35  1  0
  7 36  1  0
  7 37  1  0
  9 38  1  6
 10 39  1  0
 10 40  1  0
 11 41  1  0
 12 42  1  0
 12 43  1  0
 12 44  1  0
 13 45  1  0
 13 46  1  0
 15 47  1  0
 16 48  1  0
 17 49  1  0
 23 50  1  0
 24 51  1  0
 27 52  1  0
M  END
>  <UniqueID>  (10) 
9

>  <SMILES>  (10) 
CCS(=O)(=O)CCN([C@@H](CNC)Cc1cccs1)S(=O)(=O)c1ccc(Cl)cn1

>  <Energy>  (10) 
73.9988441935394

>  <Genealogy>  (10) 
CCS(=O)(=O)CCN([C@@H](CNC)Cc1cccs1)S(=O)(=O)c1ccc(Cl)cn1 (chirality)
CCS(=O)(=O)CCN([C@@H](CNC)Cc1cccs1)S(=O)(=O)c1ccc(Cl)cn1 (3D coordinates assigned)
CCS(=O)(=O)CCN([C@@H](CNC)Cc1cccs1)S(=O)(=O)c1ccc(Cl)cn1 (optimized conformer: 73.9988441935394 kcal/mol)

>  <smiles>  (10) 
CCS(=O)(=O)CCN(C(CNC)Cc1cccs1)S(=O)(=O)c1ccc(Cl)cn1

>  <score_type>  (10) 
oracle

>  <origin>  (10) 
adg

>  <m_score__min__energy>  (10) 
-8.4800000000000004

>  <m_primary>  (10) 
energy

$$$$
10:0
     RDKit          3D

 57 61  0  0  0  0  0  0  0  0999 V2000
   59.2380   34.9630   47.5000 C   0  0  0  0  0  0  0  0  0  0  0  0
   60.0870   34.3980   46.3620 C   0  0  0  0  0  0  0  0  0  0  0  0
   59.5280   33.0600   45.8250 C   0  0  2  0  0  0  0  0  0  0  0  0
   57.9810   33.0620   45.7260 C   0  0  0  0  0  0  0  0  0  0  0  0
   57.3980   31.7720   45.8950 O   0  0  0  0  0  0  0  0  0  0  0  0
   58.1810   30.7680   45.2740 C   0  0  0  0  0  0  0  0  0  0  0  0
   59.5100   30.5860   46.0310 C   0  0  0  0  0  0  0  0  0  0  0  0
   59.9450   31.8720   46.5890 N   0  0  0  0  0  0  0  0  0  0  0  0
   60.2000   31.9330   48.0040 C   0  0  0  0  0  0  0  0  0  0  0  0
   59.2040   31.6250   48.8750 N   0  0  0  0  0  0  0  0  0  0  0  0
   59.3930   31.6370   50.2220 C   0  0  0  0  0  0  0  0  0  0  0  0
   58.2940   31.3150   51.0930 N   0  0  0  0  0  0  0  0  0  0  0  0
   57.3780   32.3200   51.6010 C   0  0  0  0  0  0  0  0  0  0  0  0
   56.4460   31.5950   52.5640 C   0  0  0  0  0  0  0  0  0  0  0  0
   56.7020   30.0990   52.3760 C   0  0  0  0  0  0  0  0  0  0  0  0
   57.9820   29.9760   51.5570 C   0  0  0  0  0  0  0  0  0  0  0  0
   60.6220   31.9570   50.7260 N   0  0  0  0  0  0  0  0  0  0  0  0
   61.6570   32.2660   49.8990 C   0  0  0  0  0  0  0  0  0  0  0  0
   62.8700   32.5900   50.4200 N   0  0  0  0  0  0  0  0  0  0  0  0
   63.9380   32.9160   49.6400 C   0  0  0  0  0  0  0  0  0  0  0  0
   65.2270   33.2730   50.2870 C   0  0  0  0  0  0  0  0  0  0  0  0
   65.2400   34.1760   51.3660 C   0  0  0  0  0  0  0  0  0  0  0  0
   66.4440   34.5210   51.9880 C   0  0  0  0  0  0  0  0  0  0  0  0
   67.6450   33.9630   51.5490 C   0  0  0  0  0  0  0  0  0  0  0  0
   67.6460   33.0580   50.4850 C   0  0  0  0  0  0  0  0  0  0  0  0
   66.4450   32.7110   49.8570 C   0  0  0  0  0  0  0  0  0  0  0  0
   63.7840   32.9360   48.2420 C   0  0  0  0  0  0  0  0  0  0  0  0
   62.5510   32.6080   47.6770 C   0  0  0  0  0  0  0  0  0  0  0  0
   61.4720   32.2610   48.5030 C   0  0  0  0  0  0  0  0  0  0  0  0
   59.6773   34.6707   48.4652 H   0  0  0  0  0  0  0  0  0  0  0  0
   59.2104   36.0602   47.4270 H   0  0  0  0  0  0  0  0  0  0  0  0
   58.2152   34.5648   47.4270 H   0  0  0  0  0  0  0  0  0  0  0  0
   60.1086   35.1284   45.5398 H   0  0  0  0  0  0  0  0  0  0  0  0
   61.0965   34.2085   46.7557 H   0  0  0  0  0  0  0  0  0  0  0  0
   59.9703   32.9850   44.8207 H   0  0  0  0  0  0  0  0  0  0  0  0
   57.5832   33.7285   46.5054 H   0  0  0  0  0  0  0  0  0  0  0  0
   57.7224   33.4034   44.7128 H   0  0  0  0  0  0  0  0  0  0  0  0
   57.6260   29.8183   45.2807 H   0  0  0  0  0  0  0  0  0  0  0  0
   58.3962   31.0698   44.2383 H   0  0  0  0  0  0  0  0  0  0  0  0
   59.3689   29.8627   46.8476 H   0  0  0  0  0  0  0  0  0  0  0  0
   60.2764   30.2145   45.3348 H   0  0  0  0  0  0  0  0  0  0  0  0
   57.9326   33.1100   52.1286 H   0  0  0  0  0  0  0  0  0  0  0  0
   56.8178   32.8015   50.7859 H   0  0  0  0  0  0  0  0  0  0  0  0
   56.6663   31.8906   53.6004 H   0  0  0  0  0  0  0  0  0  0  0  0
   55.3941   31.8460   52.3629 H   0  0  0  0  0  0  0  0  0  0  0  0
   56.8281   29.6097   53.3531 H   0  0  0  0  0  0  0  0  0  0  0  0
   55.8569   29.6127   51.8668 H   0  0  0  0  0  0  0  0  0  0  0  0
   58.7997   29.5887   52.1827 H   0  0  0  0  0  0  0  0  0  0  0  0
   57.8549   29.2789   50.7156 H   0  0  0  0  0  0  0  0  0  0  0  0
   60.7850   31.9760   51.7570 H   0  0  0  0  0  0  0  0  0  0  0  0
   64.2961   34.6138   51.7229 H   0  0  0  0  0  0  0  0  0  0  0  0
   66.4442   35.2341   52.8255 H   0  0  0  0  0  0  0  0  0  0  0  0
   68.5906   34.2356   52.0405 H   0  0  0  0  0  0  0  0  0  0  0  0
   68.5930   32.6173   50.1402 H   0  0  0  0  0  0  0  0  0  0  0  0
   66.4519   31.9948   49.0222 H   0  0  0  0  0  0  0  0  0  0  0  0
   64.6320   33.2091   47.5968 H   0  0  0  0  0  0  0  0  0  0  0  0
   62.4254   32.6216   46.5843 H   0  0  0  0  0  0  0  0  0  0  0  0
  1  2  1  0
  2  3  1  0
  3  4  1  0
  4  5  1  0
  5  6  1  0
  6  7  1  0
  7  8  1  0
  8  9  1  0
  9 10  2  0
 10 11  1  0
 11 12  1  0
 12 13  1  0
 13 14  1  0
 14 15  1  0
 15 16  1  0
 11 17  2  0
 17 18  1  0
 18 19  2  0
 19 20  1  0
 20 21  1  0
 21 22  2  0
 22 23  1  0
 23 24  2  0
 24 25  1  0
 25 26  2  0
 20 27  2  0
 27 28  1  0
 28 29  2  0
  8  3  1  0
 29  9  1  0
 16 12  1  0
 29 18  1  0
 26 21  1  0
  1 30  1  0
  1 31  1  0
  1 32  1  0
  2 33  1  0
  2 34  1  0
  3 35  1  6
  4 36  1  0
  4 37  1  0
  6 38  1  0
  6 39  1  0
  7 40  1  0
  7 41  1  0
 13 42  1  0
 13 43  1  0
 14 44  1  0
 14 45  1  0
 15 46  1  0
 15 47  1  0
 16 48  1  0
 16 49  1  0
 17 50  1  0
 22 51  1  0
 23 52  1  0
 24 53  1  0
 25 54  1  0
 26 55  1  0
 27 56  1  0
 28 57  1  0
M  CHG  1  17   1
M  END
>  <UniqueID>  (11) 
10

>  <SMILES>  (11) 
CC[C@@H]1COCCN1c1nc(N2CCCC2)[nH+]c2nc(-c3ccccc3)ccc12

>  <Energy>  (11) 
81.23862426395056

>  <Genealogy>  (11) 
CCC1COCCN1c1nc(N2CCCC2)[nH+]c2nc(-c3ccccc3)ccc12 (protonated)
CC[C@@H]1COCCN1c1nc(N2CCCC2)[nH+]c2nc(-c3ccccc3)ccc12 (chirality)
CC[C@@H]1COCCN1c1nc(N2CCCC2)[nH+]c2nc(-c3ccccc3)ccc12 (3D coordinates assigned)
CC[C@@H]1COCCN1c1nc(N2CCCC2)[nH+]c2nc(-c3ccccc3)ccc12 (nonaromatic ring conformer: 81.23862426395056 kcal/mol)

>  <smiles>  (11) 
CCC1COCCN1c1nc(N2CCCC2)nc2nc(-c3ccccc3)ccc12

>  <score_type>  (11) 
oracle

>  <origin>  (11) 
adg

>  <m_score__min__energy>  (11) 
-6.6699999999999999

>  <m_primary>  (11) 
energy

$$$$
11:0
     RDKit          3D

 21 22  0  0  0  0  0  0  0  0999 V2000
   58.1420   32.2870   45.0210 C   0  0  0  0  0  0  0  0  0  0  0  0
   58.1350   30.8560   45.3640 N   0  0  0  0  0  0  0  0  0  0  0  0
   57.0200   30.0920   45.0960 C   0  0  0  0  0  0  0  0  0  0  0  0
   56.0030   30.5840   44.5360 O   0  0  0  0  0  0  0  0  0  0  0  0
   57.0360   28.7590   45.4660 C   0  0  0  0  0  0  0  0  0  0  0  0
   56.0890   27.8240   45.3290 N   0  0  0  0  0  0  0  0  0  0  0  0
   56.6460   26.7240   45.8900 C   0  0  0  0  0  0  0  0  0  0  0  0
   55.8260   25.1790   45.9900 Cl  0  0  0  0  0  0  0  0  0  0  0  0
   57.9000   26.9280   46.3730 N   0  0  0  0  0  0  0  0  0  0  0  0
   58.1120   28.2270   46.0840 C   0  0  0  0  0  0  0  0  0  0  0  0
   59.2220   28.9610   46.3690 N   0  0  0  0  0  0  0  0  0  0  0  0
   60.3530   28.3640   47.0920 C   0  0  0  0  0  0  0  0  0  0  0  0
   59.2170   30.2970   46.0270 C   0  0  0  0  0  0  0  0  0  0  0  0
   60.2080   31.0200   46.3290 O   0  0  0  0  0  0  0  0  0  0  0  0
   58.1449   32.8853   45.9441 H   0  0  0  0  0  0  0  0  0  0  0  0
   59.0413   32.5183   44.4313 H   0  0  0  0  0  0  0  0  0  0  0  0
   57.2450   32.5271   44.4313 H   0  0  0  0  0  0  0  0  0  0  0  0
   55.1410   27.9180   44.9000 H   0  0  0  0  0  0  0  0  0  0  0  0
   60.1839   28.4533   48.1753 H   0  0  0  0  0  0  0  0  0  0  0  0
   60.4417   27.3016   46.8210 H   0  0  0  0  0  0  0  0  0  0  0  0
   61.2802   28.8902   46.8210 H   0  0  0  0  0  0  0  0  0  0  0  0
  1  2  1  0
  2  3  1  0
  3  4  2  0
  3  5  1  0
  5  6  1  0
  6  7  1  0
  7  8  1  0
  7  9  2  0
  9 10  1  0
 10 11  1  0
 11 12  1  0
 11 13  1  0
 13 14  2  0
 13  2  1  0
 10  5  2  0
  1 15  1  0
  1 16  1  0
  1 17  1  0
  6 18  1  0
 12 19  1  0
 12 20  1  0
 12 21  1  0
M  END
>  <UniqueID>  (12) 
11

>  <SMILES>  (12) 
Cn1c(=O)c2[nH]c(Cl)nc2n(C)c1=O

>  <Energy>  (12) 
65.24141847854303

>  <Genealogy>  (12) 
Cn1c(=O)c2[nH]c(Cl)nc2n(C)c1=O (3D coordinates assigned)
Cn1c(=O)c2[nH]c(Cl)nc2n(C)c1=O (optimized conformer: 65.24141847854303 kcal/mol)

>  <smiles>  (12) 
Cn1c(=O)c2[nH]c(Cl)nc2n(C)c1=O

>  <score_type>  (12) 
oracle

>  <origin>  (12) 
adg

>  <m_score__min__energy>  (12) 
-5.0800000000000001

>  <m_primary>  (12) 
energy

$$$$
12:0
     RDKit          3D

 57 60  0  0  0  0  0  0  0  0999 V2000
   56.6800   31.7160   44.4900 C   0  0  0  0  0  0  0  0  0  0  0  0
   57.1300   30.9060   45.5710 O   0  0  0  0  0  0  0  0  0  0  0  0
   58.0610   29.8620   45.4480 C   0  0  0  0  0  0  0  0  0  0  0  0
   57.9850   28.9070   44.4150 C   0  0  0  0  0  0  0  0  0  0  0  0
   58.9270   27.8750   44.3350 C   0  0  0  0  0  0  0  0  0  0  0  0
   59.9460   27.7810   45.2830 C   0  0  0  0  0  0  0  0  0  0  0  0
   60.0310   28.7220   46.3120 C   0  0  0  0  0  0  0  0  0  0  0  0
   59.0970   29.7670   46.3940 C   0  0  0  0  0  0  0  0  0  0  0  0
   59.2310   30.7560   47.4280 N   0  0  0  0  0  0  0  0  0  0  0  0
   59.3260   30.3080   48.8200 C   0  0  0  0  0  0  0  0  0  0  0  0
   58.5230   31.2420   49.7210 C   0  0  0  0  0  0  0  0  0  0  0  0
   58.9920   32.6210   49.5370 N   0  0  0  0  0  0  0  0  0  0  0  0
   59.3890   33.4230   50.7050 C   0  0  0  0  0  0  0  0  0  0  0  0
   60.8930   33.5160   50.8090 C   0  0  0  0  0  0  0  0  0  0  0  0
   61.3990   33.8020   51.8860 O   0  0  0  0  0  0  0  0  0  0  0  0
   61.7320   33.3240   49.6400 N   0  0  0  0  0  0  0  0  0  0  0  0
   62.9870   34.1160   49.7580 C   0  0  0  0  0  0  0  0  0  0  0  0
   64.1990   33.4340   49.0840 C   0  0  0  0  0  0  0  0  0  0  0  0
   63.8260   32.6750   47.8780 N   0  0  0  0  0  0  0  0  0  0  0  0
   63.4910   33.5640   46.7530 C   0  0  0  0  0  0  0  0  0  0  0  0
   62.7760   31.6540   48.1320 C   0  0  0  0  0  0  0  0  0  0  0  0
   61.9950   31.8860   49.4420 C   0  0  0  0  0  0  0  0  0  0  0  0
   59.1560   33.1070   48.1800 C   0  0  0  0  0  0  0  0  0  0  0  0
   59.2060   34.4870   47.8900 C   0  0  0  0  0  0  0  0  0  0  0  0
   59.3770   34.9310   46.5740 C   0  0  0  0  0  0  0  0  0  0  0  0
   59.4980   34.0100   45.5350 C   0  0  0  0  0  0  0  0  0  0  0  0
   59.4490   32.6380   45.8050 C   0  0  0  0  0  0  0  0  0  0  0  0
   59.2720   32.1730   47.1250 C   0  0  0  0  0  0  0  0  0  0  0  0
   56.1817   32.6129   44.8866 H   0  0  0  0  0  0  0  0  0  0  0  0
   57.5404   32.0166   43.8741 H   0  0  0  0  0  0  0  0  0  0  0  0
   55.9702   31.1443   43.8741 H   0  0  0  0  0  0  0  0  0  0  0  0
   57.1809   28.9728   43.6673 H   0  0  0  0  0  0  0  0  0  0  0  0
   58.8637   27.1362   43.5225 H   0  0  0  0  0  0  0  0  0  0  0  0
   60.6823   26.9662   45.2203 H   0  0  0  0  0  0  0  0  0  0  0  0
   60.8329   28.6439   47.0609 H   0  0  0  0  0  0  0  0  0  0  0  0
   58.9251   29.2870   48.9030 H   0  0  0  0  0  0  0  0  0  0  0  0
   60.3803   30.3195   49.1335 H   0  0  0  0  0  0  0  0  0  0  0  0
   57.4569   31.1789   49.4576 H   0  0  0  0  0  0  0  0  0  0  0  0
   58.6589   30.9452   50.7714 H   0  0  0  0  0  0  0  0  0  0  0  0
   58.9716   34.4358   50.6051 H   0  0  0  0  0  0  0  0  0  0  0  0
   59.0034   32.9363   51.6130 H   0  0  0  0  0  0  0  0  0  0  0  0
   61.2090   33.6680   48.7990 H   0  0  0  0  0  0  0  0  0  0  0  0
   62.8285   35.0961   49.2843 H   0  0  0  0  0  0  0  0  0  0  0  0
   63.2168   34.2093   50.8297 H   0  0  0  0  0  0  0  0  0  0  0  0
   64.9265   34.2090   48.8010 H   0  0  0  0  0  0  0  0  0  0  0  0
   64.6238   32.7218   49.8067 H   0  0  0  0  0  0  0  0  0  0  0  0
   63.1282   34.5268   47.1420 H   0  0  0  0  0  0  0  0  0  0  0  0
   64.3877   33.7313   46.1383 H   0  0  0  0  0  0  0  0  0  0  0  0
   62.7068   33.0979   46.1383 H   0  0  0  0  0  0  0  0  0  0  0  0
   62.0634   31.6717   47.2942 H   0  0  0  0  0  0  0  0  0  0  0  0
   63.2851   30.6835   48.2268 H   0  0  0  0  0  0  0  0  0  0  0  0
   61.0377   31.3465   49.3929 H   0  0  0  0  0  0  0  0  0  0  0  0
   62.5968   31.5154   50.2849 H   0  0  0  0  0  0  0  0  0  0  0  0
   59.1098   35.2196   48.7049 H   0  0  0  0  0  0  0  0  0  0  0  0
   59.4160   36.0091   46.3591 H   0  0  0  0  0  0  0  0  0  0  0  0
   59.6322   34.3621   44.5016 H   0  0  0  0  0  0  0  0  0  0  0  0
   59.5493   31.9160   44.9812 H   0  0  0  0  0  0  0  0  0  0  0  0
  1  2  1  0
  2  3  1  0
  3  4  2  0
  4  5  1  0
  5  6  2  0
  6  7  1  0
  7  8  2  0
  8  9  1  0
  9 10  1  0
 10 11  1  0
 11 12  1  0
 12 13  1  0
 13 14  1  0
 14 15  2  0
 14 16  1  0
 16 17  1  0
 17 18  1  0
 18 19  1  0
 19 20  1  0
 19 21  1  0
 21 22  1  0
 12 23  1  0
 23 24  2  0
 24 25  1  0
 25 26  2  0
 26 27  1  0
 27 28  2  0
  8  3  1  0
 28  9  1  0
 22 16  1  0
 28 23  1  0
  1 29  1  0
  1 30  1  0
  1 31  1  0
  4 32  1  0
  5 33  1  0
  6 34  1  0
  7 35  1  0
 10 36  1  0
 10 37  1  0
 11 38  1  0
 11 39  1  0
 13 40  1  0
 13 41  1  0
 16 42  1  0
 17 43  1  0
 17 44  1  0
 18 45  1  0
 18 46  1  0
 20 47  1  0
 20 48  1  0
 20 49  1  0
 21 50  1  0
 21 51  1  0
 22 52  1  0
 22 53  1  0
 24 54  1  0
 25 55  1  0
 26 56  1  0
 27 57  1  0
M  CHG  1  16   1
M  END
>  <UniqueID>  (13) 
12

>  <SMILES>  (13) 
COc1ccccc1N1CCN(CC(=O)[NH+]2CCN(C)CC2)c2ccccc21

>  <Energy>  (13) 
79.58876238924246

>  <Genealogy>  (13) 
COc1ccccc1N1CCN(CC(=O)[NH+]2CCN(C)CC2)c2ccccc21 (protonated)
COc1ccccc1N1CCN(CC(=O)[NH+]2CCN(C)CC2)c2ccccc21 (3D coordinates assigned)
COc1ccccc1N1CCN(CC(=O)[NH+]2CCN(C)CC2)c2ccccc21 (nonaromatic ring conformer: 79.58876238924246 kcal/mol)

>  <smiles>  (13) 
COc1ccccc1N1CCN(CC(=O)N2CCN(C)CC2)c2ccccc21

>  <score_type>  (13) 
oracle

>  <origin>  (13) 
adg

>  <m_score__min__energy>  (13) 
-6.5499999999999998

>  <m_primary>  (13) 
energy

$$$$
13:0
     RDKit          3D

 43 45  0  0  0  0  0  0  0  0999 V2000
   63.3990   33.3910   47.0950 C   0  0  0  0  0  0  0  0  0  0  0  0
   62.3550   34.1980   47.6290 O   0  0  0  0  0  0  0  0  0  0  0  0
   61.6990   33.9530   48.8460 C   0  0  0  0  0  0  0  0  0  0  0  0
   62.3860   33.4430   49.9660 C   0  0  0  0  0  0  0  0  0  0  0  0
   61.7100   33.2040   51.1640 C   0  0  0  0  0  0  0  0  0  0  0  0
   60.3440   33.4710   51.2630 C   0  0  0  0  0  0  0  0  0  0  0  0
   59.4230   33.1390   52.9040 Br  0  0  0  0  0  0  0  0  0  0  0  0
   59.6510   33.9770   50.1630 C   0  0  0  0  0  0  0  0  0  0  0  0
   60.3170   34.2250   48.9510 C   0  0  0  0  0  0  0  0  0  0  0  0
   59.5250   34.7610   47.7820 C   0  0  0  0  0  0  0  0  0  0  0  0
   58.9980   33.6490   46.9630 N   0  0  0  0  0  0  0  0  0  0  0  0
   59.7860   33.4430   45.7200 C   0  0  0  0  0  0  0  0  0  0  0  0
   59.0990   34.0420   44.4810 C   0  0  0  0  0  0  0  0  0  0  0  0
   57.7480   33.4670   44.2540 N   0  0  0  0  0  0  0  0  0  0  0  0
   57.7800   32.3960   43.2360 C   0  0  0  0  0  0  0  0  0  0  0  0
   57.5810   31.0510   43.8680 C   0  0  0  0  0  0  0  0  0  0  0  0
   58.5610   30.2900   44.4920 C   0  0  0  0  0  0  0  0  0  0  0  0
   58.0660   29.1010   45.0400 C   0  0  0  0  0  0  0  0  0  0  0  0
   56.6990   28.9290   44.8570 C   0  0  0  0  0  0  0  0  0  0  0  0
   56.1060   30.2590   44.0150 S   0  0  0  0  0  0  0  0  0  0  0  0
   57.0900   33.0080   45.5040 C   0  0  0  0  0  0  0  0  0  0  0  0
   57.5490   33.8280   46.7140 C   0  0  0  0  0  0  0  0  0  0  0  0
   63.9757   32.9452   47.9188 H   0  0  0  0  0  0  0  0  0  0  0  0
   62.9647   32.5915   46.4768 H   0  0  0  0  0  0  0  0  0  0  0  0
   64.0633   34.0127   46.4768 H   0  0  0  0  0  0  0  0  0  0  0  0
   63.4632   33.2316   49.8957 H   0  0  0  0  0  0  0  0  0  0  0  0
   62.2554   32.8044   52.0317 H   0  0  0  0  0  0  0  0  0  0  0  0
   58.5737   34.1836   50.2453 H   0  0  0  0  0  0  0  0  0  0  0  0
   58.6851   35.3632   48.1589 H   0  0  0  0  0  0  0  0  0  0  0  0
   60.1853   35.3815   47.1583 H   0  0  0  0  0  0  0  0  0  0  0  0
   60.7697   33.9196   45.8429 H   0  0  0  0  0  0  0  0  0  0  0  0
   59.8791   32.3588   45.5591 H   0  0  0  0  0  0  0  0  0  0  0  0
   59.0023   35.1288   44.6205 H   0  0  0  0  0  0  0  0  0  0  0  0
   59.7185   33.8039   43.6038 H   0  0  0  0  0  0  0  0  0  0  0  0
   56.9787   32.5717   42.5031 H   0  0  0  0  0  0  0  0  0  0  0  0
   58.7626   32.4102   42.7417 H   0  0  0  0  0  0  0  0  0  0  0  0
   59.6175   30.5908   44.5496 H   0  0  0  0  0  0  0  0  0  0  0  0
   58.6992   28.3714   45.5660 H   0  0  0  0  0  0  0  0  0  0  0  0
   56.1061   28.0698   45.2036 H   0  0  0  0  0  0  0  0  0  0  0  0
   56.0006   33.1128   45.3937 H   0  0  0  0  0  0  0  0  0  0  0  0
   57.3671   31.9572   45.6741 H   0  0  0  0  0  0  0  0  0  0  0  0
   57.3462   34.8923   46.5241 H   0  0  0  0  0  0  0  0  0  0  0  0
   56.9975   33.4805   47.6001 H   0  0  0  0  0  0  0  0  0  0  0  0
  1  2  1  0
  2  3  1  0
  3  4  2  0
  4  5  1  0
  5  6  2  0
  6  7  1  0
  6  8  1  0
  8  9  2  0
  9 10  1  0
 10 11  1  0
 11 12  1  0
 12 13  1  0
 13 14  1  0
 14 15  1  0
 15 16  1  0
 16 17  2  0
 17 18  1  0
 18 19  2  0
 19 20  1  0
 14 21  1  0
 21 22  1  0
  9  3  1  0
 22 11  1  0
 20 16  1  0
  1 23  1  0
  1 24  1  0
  1 25  1  0
  4 26  1  0
  5 27  1  0
  8 28  1  0
 10 29  1  0
 10 30  1  0
 12 31  1  0
 12 32  1  0
 13 33  1  0
 13 34  1  0
 15 35  1  0
 15 36  1  0
 17 37  1  0
 18 38  1  0
 19 39  1  0
 21 40  1  0
 21 41  1  0
 22 42  1  0
 22 43  1  0
M  END
>  <UniqueID>  (14) 
13

>  <SMILES>  (14) 
COc1ccc(Br)cc1CN1CCN(Cc2cccs2)CC1

>  <Energy>  (14) 
82.00401034776547

>  <Genealogy>  (14) 
COc1ccc(Br)cc1CN1CCN(Cc2cccs2)CC1 (3D coordinates assigned)
COc1ccc(Br)cc1CN1CCN(Cc2cccs2)CC1 (nonaromatic ring conformer: 82.00401034776547 kcal/mol)

>  <smiles>  (14) 
COc1ccc(Br)cc1CN1CCN(Cc2cccs2)CC1

>  <score_type>  (14) 
oracle

>  <origin>  (14) 
adg

>  <m_score__min__energy>  (14) 
-7.5499999999999998

>  <m_primary>  (14) 
energy

$$$$
14:0
     RDKit          3D

 42 44  0  0  0  0  0  0  0  0999 V2000
   59.2980   34.9660   47.6850 C   0  0  0  0  0  0  0  0  0  0  0  0
   59.4990   35.1100   46.3730 C   0  0  0  0  0  0  0  0  0  0  0  0
   59.9320   33.9630   45.5020 C   0  0  0  0  0  0  0  0  0  0  0  0
   59.6560   32.6880   46.1700 N   0  0  0  0  0  0  0  0  0  0  0  0
   58.5010   31.9830   46.1800 C   0  0  0  0  0  0  0  0  0  0  0  0
   57.0310   32.3890   45.2270 S   0  0  0  0  0  0  0  0  0  0  0  0
   57.1930   30.9750   44.0770 C   0  0  0  0  0  0  0  0  0  0  0  0
   56.6930   29.6960   44.6950 C   0  0  0  0  0  0  0  0  0  0  0  0
   55.4500   29.5730   44.8730 O   0  0  0  0  0  0  0  0  0  0  0  0
   57.5980   28.6030   45.1440 C   0  0  0  0  0  0  0  0  0  0  0  0
   57.0340   27.4480   45.7210 C   0  0  0  0  0  0  0  0  0  0  0  0
   57.8480   26.4030   46.1670 C   0  0  0  0  0  0  0  0  0  0  0  0
   59.2340   26.4910   46.0390 C   0  0  0  0  0  0  0  0  0  0  0  0
   59.8100   27.6240   45.4620 C   0  0  0  0  0  0  0  0  0  0  0  0
   59.0030   28.6770   45.0120 C   0  0  0  0  0  0  0  0  0  0  0  0
   59.6060   29.7390   44.4230 F   0  0  0  0  0  0  0  0  0  0  0  0
   58.5670   30.9230   47.0100 N   0  0  0  0  0  0  0  0  0  0  0  0
   59.7740   30.9540   47.5480 N   0  0  0  0  0  0  0  0  0  0  0  0
   60.4350   32.0070   47.0390 C   0  0  0  0  0  0  0  0  0  0  0  0
   61.7900   32.3960   47.4610 C   0  0  0  0  0  0  0  0  0  0  0  0
   62.6150   33.2740   46.7940 C   0  0  0  0  0  0  0  0  0  0  0  0
   63.7680   33.3500   47.5500 C   0  0  0  0  0  0  0  0  0  0  0  0
   63.6540   32.5910   48.6180 O   0  0  0  0  0  0  0  0  0  0  0  0
   62.4740   32.0130   48.6020 C   0  0  0  0  0  0  0  0  0  0  0  0
   61.9900   31.1100   49.6890 C   0  0  0  0  0  0  0  0  0  0  0  0
   58.9814   35.8279   48.2908 H   0  0  0  0  0  0  0  0  0  0  0  0
   59.4490   33.9855   48.1602 H   0  0  0  0  0  0  0  0  0  0  0  0
   59.3431   36.0979   45.9150 H   0  0  0  0  0  0  0  0  0  0  0  0
   59.3815   34.0013   44.5504 H   0  0  0  0  0  0  0  0  0  0  0  0
   61.0128   34.0431   45.3140 H   0  0  0  0  0  0  0  0  0  0  0  0
   56.6085   31.1848   43.1691 H   0  0  0  0  0  0  0  0  0  0  0  0
   58.2591   30.8471   43.8379 H   0  0  0  0  0  0  0  0  0  0  0  0
   55.9415   27.3678   45.8215 H   0  0  0  0  0  0  0  0  0  0  0  0
   57.3944   25.5091   46.6200 H   0  0  0  0  0  0  0  0  0  0  0  0
   59.8728   25.6682   46.3925 H   0  0  0  0  0  0  0  0  0  0  0  0
   60.9033   27.6904   45.3601 H   0  0  0  0  0  0  0  0  0  0  0  0
   60.1290   30.2680   48.2520 H   0  0  0  0  0  0  0  0  0  0  0  0
   62.4002   33.8044   45.8545 H   0  0  0  0  0  0  0  0  0  0  0  0
   64.6507   33.9554   47.2966 H   0  0  0  0  0  0  0  0  0  0  0  0
   62.2277   31.5535   50.6672 H   0  0  0  0  0  0  0  0  0  0  0  0
   60.9013   30.9800   49.6002 H   0  0  0  0  0  0  0  0  0  0  0  0
   62.4845   30.1315   49.6002 H   0  0  0  0  0  0  0  0  0  0  0  0
  1  2  2  0
  2  3  1  0
  3  4  1  0
  4  5  1  0
  5  6  1  0
  6  7  1  0
  7  8  1  0
  8  9  2  0
  8 10  1  0
 10 11  2  0
 11 12  1  0
 12 13  2  0
 13 14  1  0
 14 15  2  0
 15 16  1  0
  5 17  2  0
 17 18  1  0
 18 19  2  0
 19 20  1  0
 20 21  1  0
 21 22  2  0
 22 23  1  0
 23 24  1  0
 24 25  1  0
 19  4  1  0
 24 20  2  0
 15 10  1  0
  1 26  1  0
  1 27  1  0
  2 28  1  0
  3 29  1  0
  3 30  1  0
  7 31  1  0
  7 32  1  0
 11 33  1  0
 12 34  1  0
 13 35  1  0
 14 36  1  0
 18 37  1  0
 21 38  1  0
 22 39  1  0
 25 40  1  0
 25 41  1  0
 25 42  1  0
M  CHG  1  18   1
M  END
>  <UniqueID>  (15) 
14

>  <SMILES>  (15) 
C=CCn1c(SCC(=O)c2ccccc2F)n[nH+]c1-c1ccoc1C

>  <Energy>  (15) 
107.4158697862885

>  <Genealogy>  (15) 
C=CCn1c(SCC(=O)c2ccccc2F)n[nH+]c1-c1ccoc1C (protonated)
C=CCn1c(SCC(=O)c2ccccc2F)n[nH+]c1-c1ccoc1C (3D coordinates assigned)
C=CCn1c(SCC(=O)c2ccccc2F)n[nH+]c1-c1ccoc1C (optimized conformer: 107.4158697862885 kcal/mol)

>  <smiles>  (15) 
C=CCn1c(SCC(=O)c2ccccc2F)nnc1-c1ccoc1C

>  <score_type>  (15) 
oracle

>  <origin>  (15) 
adg

>  <m_score__min__energy>  (15) 
-6.75

>  <m_primary>  (15) 
energy

$$$$
15:0
     RDKit          3D

 49 52  0  0  0  0  0  0  0  0999 V2000
   58.0805   34.2989   53.1137 H   0  0  0  0  0  0  0  0  0  0  0  0
   58.2750   33.5680   52.3150 C   0  0  0  0  0  0  0  0  0  0  0  0
   59.2810   33.8100   51.3760 C   0  0  0  0  0  0  0  0  0  0  0  0
   59.8813   34.7296   51.4391 H   0  0  0  0  0  0  0  0  0  0  0  0
   59.5260   32.8850   50.3560 C   0  0  0  0  0  0  0  0  0  0  0  0
   60.3287   33.0737   49.6279 H   0  0  0  0  0  0  0  0  0  0  0  0
   58.7540   31.7180   50.2560 C   0  0  0  0  0  0  0  0  0  0  0  0
   59.0430   30.7670   49.2180 N   0  0  0  0  0  0  0  0  0  0  0  0
   58.2610   30.4740   48.5890 H   0  0  0  0  0  0  0  0  0  0  0  0
   60.3400   30.2060   48.9600 C   0  0  0  0  0  0  0  0  0  0  0  0
   60.6780   29.8580   47.6090 N   0  0  0  0  0  0  0  0  0  0  0  0
   59.8610   29.8210   46.5960 C   0  0  0  0  0  0  0  0  0  0  0  0
   59.4730   28.6800   45.9670 N   0  0  0  0  0  0  0  0  0  0  0  0
   59.7220   27.6930   46.1980 H   0  0  0  0  0  0  0  0  0  0  0  0
   58.6260   29.1050   45.0100 C   0  0  0  0  0  0  0  0  0  0  0  0
   57.9020   28.3390   44.0840 C   0  0  0  0  0  0  0  0  0  0  0  0
   58.0060   26.8360   44.0360 C   0  0  0  0  0  0  0  0  0  0  0  0
   59.0614   26.5510   43.9144 H   0  0  0  0  0  0  0  0  0  0  0  0
   57.4105   26.4676   43.1877 H   0  0  0  0  0  0  0  0  0  0  0  0
   57.4650   26.2160   45.3200 C   0  0  0  0  0  0  0  0  0  0  0  0
   57.9090   26.7249   46.1883 H   0  0  0  0  0  0  0  0  0  0  0  0
   56.3711   26.3285   45.3489 H   0  0  0  0  0  0  0  0  0  0  0  0
   57.7246   25.1475   45.3489 H   0  0  0  0  0  0  0  0  0  0  0  0
   57.0170   29.0290   43.2270 C   0  0  0  0  0  0  0  0  0  0  0  0
   56.4226   28.4669   42.4917 H   0  0  0  0  0  0  0  0  0  0  0  0
   56.8870   30.4330   43.3040 C   0  0  0  0  0  0  0  0  0  0  0  0
   56.1967   30.9546   42.6248 H   0  0  0  0  0  0  0  0  0  0  0  0
   57.6320   31.1700   44.2410 C   0  0  0  0  0  0  0  0  0  0  0  0
   57.5303   32.2628   44.3151 H   0  0  0  0  0  0  0  0  0  0  0  0
   58.5060   30.4680   45.0750 C   0  0  0  0  0  0  0  0  0  0  0  0
   59.2790   30.9350   46.0780 N   0  0  0  0  0  0  0  0  0  0  0  0
   59.4530   32.2970   46.5060 C   0  0  0  0  0  0  0  0  0  0  0  0
   58.3380   33.1350   46.6760 C   0  0  0  0  0  0  0  0  0  0  0  0
   57.3265   32.7459   46.4875 H   0  0  0  0  0  0  0  0  0  0  0  0
   58.5090   34.4620   47.0840 C   0  0  0  0  0  0  0  0  0  0  0  0
   57.6327   35.1131   47.2184 H   0  0  0  0  0  0  0  0  0  0  0  0
   59.7930   34.9610   47.3210 C   0  0  0  0  0  0  0  0  0  0  0  0
   59.9263   36.0043   47.6432 H   0  0  0  0  0  0  0  0  0  0  0  0
   60.9070   34.1360   47.1490 C   0  0  0  0  0  0  0  0  0  0  0  0
   61.9168   34.5307   47.3347 H   0  0  0  0  0  0  0  0  0  0  0  0
   60.7400   32.8090   46.7410 C   0  0  0  0  0  0  0  0  0  0  0  0
   61.6199   32.1633   46.6035 H   0  0  0  0  0  0  0  0  0  0  0  0
   61.2000   30.0410   49.9210 N   0  0  0  0  0  0  0  0  0  0  0  0
   61.4130   29.0910   50.2970 H   0  0  0  0  0  0  0  0  0  0  0  0
   61.7050   30.8510   50.3450 H   0  0  0  0  0  0  0  0  0  0  0  0
   57.7580   31.4700   51.2200 C   0  0  0  0  0  0  0  0  0  0  0  0
   57.1677   30.5431   51.1714 H   0  0  0  0  0  0  0  0  0  0  0  0
   57.5160   32.3970   52.2390 C   0  0  0  0  0  0  0  0  0  0  0  0
   56.7275   32.2042   52.9813 H   0  0  0  0  0  0  0  0  0  0  0  0
  1  2  1  0
  2  3  2  0
  3  4  1  0
  3  5  1  0
  5  6  1  0
  5  7  2  0
  7  8  1  0
  8  9  1  0
  8 10  1  0
 10 11  1  0
 11 12  2  0
 12 13  1  0
 13 14  1  0
 13 15  1  0
 15 16  2  0
 16 17  1  0
 17 18  1  0
 17 19  1  0
 17 20  1  0
 20 21  1  0
 20 22  1  0
 20 23  1  0
 16 24  1  0
 24 25  1  0
 24 26  2  0
 26 27  1  0
 26 28  1  0
 28 29  1  0
 28 30  2  0
 30 31  1  0
 31 32  1  0
 32 33  2  0
 33 34  1  0
 33 35  1  0
 35 36  1  0
 35 37  2  0
 37 38  1  0
 37 39  1  0
 39 40  1  0
 39 41  2  0
 41 42  1  0
 10 43  2  0
 43 44  1  0
 43 45  1  0
  7 46  1  0
 46 47  1  0
 46 48  2  0
 48 49  1  0
 48  2  1  0
 31 12  1  0
 41 32  1  0
 30 15  1  0
M  CHG  1  43   1
M  END
>  <UniqueID>  (16) 
15

>  <SMILES>  (16) 
CCc1cccc2c1[nH]/c(=N\C(=[NH2+])Nc1ccccc1)n2-c1ccccc1

>  <Energy>  (16) 
106.28056801370847

>  <Genealogy>  (16) 
CCc1cccc2c1[nH]c(=NC(=[NH2+])Nc1ccccc1)n2-c1ccccc1 (protonated)
CCc1cccc2c1[nH]/c(=N\C(=[NH2+])Nc1ccccc1)n2-c1ccccc1 (cis-trans isomerization)
CCc1cccc2c1[nH]/c(=N\C(=[NH2+])Nc1ccccc1)n2-c1ccccc1 (3D coordinates assigned)
CCc1cccc2c1[nH]/c(=N\C(=[NH2+])Nc1ccccc1)n2-c1ccccc1 (optimized conformer: 106.28056801370847 kcal/mol)

>  <smiles>  (16) 
CCc1cccc2c1[nH]c(=NC(=N)Nc1ccccc1)n2-c1ccccc1

>  <score_type>  (16) 
oracle

>  <origin>  (16) 
adg

>  <m_score__min__energy>  (16) 
-6.9299999999999997

>  <m_primary>  (16) 
energy

$$$$
16:0
     RDKit          3D

 41 44  0  0  0  0  0  0  0  0999 V2000
   57.0200   34.3640   45.1730 C   0  0  0  0  0  0  0  0  0  0  0  0
   57.9380   33.2580   45.6000 C   0  0  0  0  0  0  0  0  0  0  0  0
   59.1330   33.5200   46.3000 C   0  0  0  0  0  0  0  0  0  0  0  0
   59.9590   32.4490   46.7300 C   0  0  0  0  0  0  0  0  0  0  0  0
   61.1780   32.6920   47.4580 N   0  0  0  0  0  0  0  0  0  0  0  0
   62.2820   31.7210   47.4540 C   0  0  0  0  0  0  0  0  0  0  0  0
   63.6130   32.4240   47.1470 C   0  0  0  0  0  0  0  0  0  0  0  0
   63.7300   33.8260   47.7840 C   0  0  0  0  0  0  0  0  0  0  0  0
   62.6840   34.0700   48.8800 C   0  0  0  0  0  0  0  0  0  0  0  0
   61.2680   33.8820   48.3170 C   0  0  0  0  0  0  0  0  0  0  0  0
   59.5590   31.1650   46.4930 N   0  0  0  0  0  0  0  0  0  0  0  0
   58.4190   30.9540   45.8400 N   0  0  0  0  0  0  0  0  0  0  0  0
   57.8100   29.8110   45.5030 C   0  0  0  0  0  0  0  0  0  0  0  0
   58.3280   28.4310   45.8130 C   0  0  0  0  0  0  0  0  0  0  0  0
   59.7280   28.1700   45.2650 C   0  0  0  0  0  0  0  0  0  0  0  0
   60.2550   28.0220   46.6860 C   0  0  0  0  0  0  0  0  0  0  0  0
   58.8590   28.2810   47.2370 C   0  0  0  0  0  0  0  0  0  0  0  0
   56.6440   30.0820   44.8680 N   0  0  0  0  0  0  0  0  0  0  0  0
   56.5190   31.4070   44.8010 N   0  0  0  0  0  0  0  0  0  0  0  0
   57.6130   31.9180   45.4000 C   0  0  0  0  0  0  0  0  0  0  0  0
   56.6069   34.8617   46.0627 H   0  0  0  0  0  0  0  0  0  0  0  0
   57.5809   35.0945   44.5715 H   0  0  0  0  0  0  0  0  0  0  0  0
   56.1987   33.9472   44.5715 H   0  0  0  0  0  0  0  0  0  0  0  0
   59.4265   34.5583   46.5138 H   0  0  0  0  0  0  0  0  0  0  0  0
   62.3454   31.2403   48.4414 H   0  0  0  0  0  0  0  0  0  0  0  0
   62.0901   30.9660   46.6774 H   0  0  0  0  0  0  0  0  0  0  0  0
   64.4334   31.7985   47.5287 H   0  0  0  0  0  0  0  0  0  0  0  0
   63.6640   32.5586   46.0565 H   0  0  0  0  0  0  0  0  0  0  0  0
   64.7323   33.9290   48.2254 H   0  0  0  0  0  0  0  0  0  0  0  0
   63.5562   34.5665   46.9894 H   0  0  0  0  0  0  0  0  0  0  0  0
   62.8457   33.3562   49.7012 H   0  0  0  0  0  0  0  0  0  0  0  0
   62.7877   35.1006   49.2504 H   0  0  0  0  0  0  0  0  0  0  0  0
   60.5632   33.7714   49.1543 H   0  0  0  0  0  0  0  0  0  0  0  0
   61.0212   34.7641   47.7079 H   0  0  0  0  0  0  0  0  0  0  0  0
   57.4722   27.8301   45.4716 H   0  0  0  0  0  0  0  0  0  0  0  0
   59.8098   27.2563   44.6580 H   0  0  0  0  0  0  0  0  0  0  0  0
   60.1955   28.8817   44.5686 H   0  0  0  0  0  0  0  0  0  0  0  0
   60.6490   27.0211   46.9159 H   0  0  0  0  0  0  0  0  0  0  0  0
   61.1074   28.6277   47.0275 H   0  0  0  0  0  0  0  0  0  0  0  0
   58.4294   27.4326   47.7899 H   0  0  0  0  0  0  0  0  0  0  0  0
   58.6913   29.0736   47.9811 H   0  0  0  0  0  0  0  0  0  0  0  0
  1  2  1  0
  2  3  2  0
  3  4  1  0
  4  5  1  0
  5  6  1  0
  6  7  1  0
  7  8  1  0
  8  9  1  0
  9 10  1  0
  4 11  2  0
 11 12  1  0
 12 13  1  0
 13 14  1  0
 14 15  1  0
 15 16  1  0
 16 17  1  0
 13 18  2  0
 18 19  1  0
 19 20  2  0
 20  2  1  0
 10  5  1  0
 20 12  1  0
 17 14  1  0
  1 21  1  0
  1 22  1  0
  1 23  1  0
  3 24  1  0
  6 25  1  0
  6 26  1  0
  7 27  1  0
  7 28  1  0
  8 29  1  0
  8 30  1  0
  9 31  1  0
  9 32  1  0
 10 33  1  0
 10 34  1  0
 14 35  1  0
 15 36  1  0
 15 37  1  0
 16 38  1  0
 16 39  1  0
 17 40  1  0
 17 41  1  0
M  END
>  <UniqueID>  (17) 
16

>  <SMILES>  (17) 
Cc1cc(N2CCCCC2)nn2c(C3CCC3)nnc12

>  <Energy>  (17) 
148.66547926824893

>  <Genealogy>  (17) 
Cc1cc(N2CCCCC2)nn2c(C3CCC3)nnc12 (3D coordinates assigned)
Cc1cc(N2CCCCC2)nn2c(C3CCC3)nnc12 (nonaromatic ring conformer: 148.66547926824893 kcal/mol)

>  <smiles>  (17) 
Cc1cc(N2CCCCC2)nn2c(C3CCC3)nnc12

>  <score_type>  (17) 
oracle

>  <origin>  (17) 
adg

>  <m_score__min__energy>  (17) 
-8.1400000000000006

>  <m_primary>  (17) 
energy

$$$$
17:0
     RDKit          3D

 56 59  0  0  0  0  0  0  0  0999 V2000
   58.1410   27.0770   42.6050 C   0  0  0  0  0  0  0  0  0  0  0  0
   57.8470   26.8120   44.0570 C   0  0  0  0  0  0  0  0  0  0  0  0
   57.6250   25.4920   44.4860 C   0  0  0  0  0  0  0  0  0  0  0  0
   57.3430   25.2210   45.8270 C   0  0  0  0  0  0  0  0  0  0  0  0
   57.2860   26.2620   46.7550 C   0  0  0  0  0  0  0  0  0  0  0  0
   57.5210   27.5760   46.3450 C   0  0  0  0  0  0  0  0  0  0  0  0
   57.8150   27.8610   45.0040 C   0  0  0  0  0  0  0  0  0  0  0  0
   58.0800   29.2200   44.6160 N   0  0  0  0  0  0  0  0  0  0  0  0
   57.1550   29.9430   43.7400 C   0  0  0  0  0  0  0  0  0  0  0  0
   56.6510   31.2020   44.4480 C   0  0  0  0  0  0  0  0  0  0  0  0
   57.7810   31.9410   45.0290 N   0  0  0  0  0  0  0  0  0  0  0  0
   57.7570   33.3790   45.0430 C   0  0  0  0  0  0  0  0  0  0  0  0
   56.6510   33.9840   45.1080 O   0  0  0  0  0  0  0  0  0  0  0  0
   59.0320   34.1760   45.0000 C   0  0  0  0  0  0  0  0  0  0  0  0
   59.7840   34.0580   46.3000 C   0  0  0  0  0  0  0  0  0  0  0  0
   61.1560   33.7690   46.2960 C   0  0  0  0  0  0  0  0  0  0  0  0
   61.8650   33.6890   47.4970 C   0  0  0  0  0  0  0  0  0  0  0  0
   61.2180   33.9050   48.7300 C   0  0  0  0  0  0  0  0  0  0  0  0
   61.9520   33.8230   49.9750 N   0  0  0  0  0  0  0  0  0  0  0  0
   63.3780   34.0930   50.0980 C   0  0  0  0  0  0  0  0  0  0  0  0
   63.6820   34.0540   51.5900 C   0  0  0  0  0  0  0  0  0  0  0  0
   62.5060   33.3300   52.2340 C   0  0  0  0  0  0  0  0  0  0  0  0
   61.3510   33.4590   51.2500 C   0  0  0  0  0  0  0  0  0  0  0  0
   59.8430   34.2080   48.7240 C   0  0  0  0  0  0  0  0  0  0  0  0
   59.1350   34.2880   47.5210 C   0  0  0  0  0  0  0  0  0  0  0  0
   58.7080   31.2020   45.9010 C   0  0  0  0  0  0  0  0  0  0  0  0
   59.2160   29.9520   45.1830 C   0  0  0  0  0  0  0  0  0  0  0  0
   58.9559   27.8115   42.5240 H   0  0  0  0  0  0  0  0  0  0  0  0
   58.4423   26.1395   42.1149 H   0  0  0  0  0  0  0  0  0  0  0  0
   57.2397   27.4737   42.1149 H   0  0  0  0  0  0  0  0  0  0  0  0
   57.6737   24.6665   43.7606 H   0  0  0  0  0  0  0  0  0  0  0  0
   57.1655   24.1853   46.1522 H   0  0  0  0  0  0  0  0  0  0  0  0
   57.0560   26.0474   47.8091 H   0  0  0  0  0  0  0  0  0  0  0  0
   57.4751   28.3936   47.0795 H   0  0  0  0  0  0  0  0  0  0  0  0
   57.6759   30.2281   42.8140 H   0  0  0  0  0  0  0  0  0  0  0  0
   56.3001   29.2942   43.4986 H   0  0  0  0  0  0  0  0  0  0  0  0
   56.1309   31.8442   43.7220 H   0  0  0  0  0  0  0  0  0  0  0  0
   55.9596   30.9105   45.2523 H   0  0  0  0  0  0  0  0  0  0  0  0
   59.6646   33.7996   44.1826 H   0  0  0  0  0  0  0  0  0  0  0  0
   58.7797   35.2339   44.8348 H   0  0  0  0  0  0  0  0  0  0  0  0
   61.6772   33.6043   45.3414 H   0  0  0  0  0  0  0  0  0  0  0  0
   62.9397   33.4549   47.4800 H   0  0  0  0  0  0  0  0  0  0  0  0
   63.9602   33.3244   49.5685 H   0  0  0  0  0  0  0  0  0  0  0  0
   63.6451   35.0643   49.6562 H   0  0  0  0  0  0  0  0  0  0  0  0
   64.6176   33.5063   51.7762 H   0  0  0  0  0  0  0  0  0  0  0  0
   63.8109   35.0651   52.0037 H   0  0  0  0  0  0  0  0  0  0  0  0
   62.7521   32.2707   52.3992 H   0  0  0  0  0  0  0  0  0  0  0  0
   62.2530   33.7602   53.2143 H   0  0  0  0  0  0  0  0  0  0  0  0
   60.8153   32.5024   51.1613 H   0  0  0  0  0  0  0  0  0  0  0  0
   60.6201   34.2113   51.5814 H   0  0  0  0  0  0  0  0  0  0  0  0
   59.3203   34.3836   49.6758 H   0  0  0  0  0  0  0  0  0  0  0  0
   58.0626   34.5328   47.5328 H   0  0  0  0  0  0  0  0  0  0  0  0
   59.5612   31.8477   46.1561 H   0  0  0  0  0  0  0  0  0  0  0  0
   58.1799   30.9023   46.8182 H   0  0  0  0  0  0  0  0  0  0  0  0
   59.9027   30.2463   44.3756 H   0  0  0  0  0  0  0  0  0  0  0  0
   59.7474   29.3078   45.8990 H   0  0  0  0  0  0  0  0  0  0  0  0
  1  2  1  0
  2  3  2  0
  3  4  1  0
  4  5  2  0
  5  6  1  0
  6  7  2  0
  7  8  1  0
  8  9  1  0
  9 10  1  0
 10 11  1  0
 11 12  1  0
 12 13  2  0
 12 14  1  0
 14 15  1  0
 15 16  2  0
 16 17  1  0
 17 18  2  0
 18 19  1  0
 19 20  1  0
 20 21  1  0
 21 22  1  0
 22 23  1  0
 18 24  1  0
 24 25  2  0
 11 26  1  0
 26 27  1  0
  7  2  1  0
 27  8  1  0
 25 15  1  0
 23 19  1  0
  1 28  1  0
  1 29  1  0
  1 30  1  0
  3 31  1  0
  4 32  1  0
  5 33  1  0
  6 34  1  0
  9 35  1  0
  9 36  1  0
 10 37  1  0
 10 38  1  0
 14 39  1  0
 14 40  1  0
 16 41  1  0
 17 42  1  0
 20 43  1  0
 20 44  1  0
 21 45  1  0
 21 46  1  0
 22 47  1  0
 22 48  1  0
 23 49  1  0
 23 50  1  0
 24 51  1  0
 25 52  1  0
 26 53  1  0
 26 54  1  0
 27 55  1  0
 27 56  1  0
M  END
>  <UniqueID>  (18) 
17

>  <SMILES>  (18) 
Cc1ccccc1N1CCN(C(=O)Cc2ccc(N3CCCC3)cc2)CC1

>  <Energy>  (18) 
64.61930256778561

>  <Genealogy>  (18) 
Cc1ccccc1N1CCN(C(=O)Cc2ccc(N3CCCC3)cc2)CC1 (3D coordinates assigned)
Cc1ccccc1N1CCN(C(=O)Cc2ccc(N3CCCC3)cc2)CC1 (nonaromatic ring conformer: 64.61930256778561 kcal/mol)

>  <smiles>  (18) 
Cc1ccccc1N1CCN(C(=O)Cc2ccc(N3CCCC3)cc2)CC1

>  <score_type>  (18) 
oracle

>  <origin>  (18) 
adg

>  <m_score__min__energy>  (18) 
-8.2300000000000004

>  <m_primary>  (18) 
energy

$$$$
18:0
     RDKit          3D

 50 53  0  0  0  0  0  0  0  0999 V2000
   57.9940   32.3400   41.4730 C   0  0  0  0  0  0  0  0  0  0  0  0
   57.9710   31.4200   42.6140 N   0  0  0  0  0  0  0  0  0  0  0  0
   56.7420   30.6060   42.6530 C   0  0  0  0  0  0  0  0  0  0  0  0
   56.1660   30.4430   44.0720 C   0  0  0  0  0  0  0  0  0  0  0  0
   57.2330   30.3620   45.0770 N   0  0  0  0  0  0  0  0  0  0  0  0
   57.8030   31.3950   45.7490 C   0  0  0  0  0  0  0  0  0  0  0  0
   57.4920   32.7540   45.6590 C   0  0  0  0  0  0  0  0  0  0  0  0
   58.2200   33.6570   46.4530 C   0  0  0  0  0  0  0  0  0  0  0  0
   59.2320   33.2000   47.3380 C   0  0  0  0  0  0  0  0  0  0  0  0
   60.0080   34.1820   48.1940 C   0  0  0  0  0  0  0  0  0  0  0  0
   61.4610   34.2180   47.9060 N   0  0  0  0  0  0  0  0  0  0  0  0
   61.8050   33.8580   46.5160 C   0  0  0  0  0  0  0  0  0  0  0  0
   63.3130   33.5890   46.3940 C   0  0  0  0  0  0  0  0  0  0  0  0
   63.7770   32.5220   47.2160 O   0  0  0  0  0  0  0  0  0  0  0  0
   62.9680   32.2820   48.3600 C   0  0  0  0  0  0  0  0  0  0  0  0
   62.3090   33.5540   48.9200 C   0  0  0  0  0  0  0  0  0  0  0  0
   59.5410   31.8220   47.3890 C   0  0  0  0  0  0  0  0  0  0  0  0
   58.8020   30.9530   46.5920 C   0  0  0  0  0  0  0  0  0  0  0  0
   58.8590   29.5870   46.4400 C   0  0  0  0  0  0  0  0  0  0  0  0
   59.6770   28.6290   47.0370 C   0  0  0  0  0  0  0  0  0  0  0  0
   59.4920   27.2870   46.6650 C   0  0  0  0  0  0  0  0  0  0  0  0
   58.5060   26.9360   45.7150 C   0  0  0  0  0  0  0  0  0  0  0  0
   58.3420   25.6360   45.3670 F   0  0  0  0  0  0  0  0  0  0  0  0
   57.6940   27.9230   45.1290 C   0  0  0  0  0  0  0  0  0  0  0  0
   57.8910   29.2550   45.5120 C   0  0  0  0  0  0  0  0  0  0  0  0
   58.0199   33.3771   41.8387 H   0  0  0  0  0  0  0  0  0  0  0  0
   58.8875   32.1442   40.8620 H   0  0  0  0  0  0  0  0  0  0  0  0
   57.0918   32.1891   40.8620 H   0  0  0  0  0  0  0  0  0  0  0  0
   58.0120   31.9940   43.4890 H   0  0  0  0  0  0  0  0  0  0  0  0
   58.8220   30.8130   42.5950 H   0  0  0  0  0  0  0  0  0  0  0  0
   55.9825   31.0894   42.0210 H   0  0  0  0  0  0  0  0  0  0  0  0
   57.0041   29.6014   42.2896 H   0  0  0  0  0  0  0  0  0  0  0  0
   55.5249   31.3074   44.2995 H   0  0  0  0  0  0  0  0  0  0  0  0
   55.5871   29.5082   44.1055 H   0  0  0  0  0  0  0  0  0  0  0  0
   56.6984   33.1081   44.9846 H   0  0  0  0  0  0  0  0  0  0  0  0
   58.0026   34.7333   46.3878 H   0  0  0  0  0  0  0  0  0  0  0  0
   59.5971   35.1882   48.0244 H   0  0  0  0  0  0  0  0  0  0  0  0
   59.8992   33.8492   49.2368 H   0  0  0  0  0  0  0  0  0  0  0  0
   61.2502   32.9531   46.2273 H   0  0  0  0  0  0  0  0  0  0  0  0
   61.5349   34.6926   45.8522 H   0  0  0  0  0  0  0  0  0  0  0  0
   63.5371   33.3415   45.3459 H   0  0  0  0  0  0  0  0  0  0  0  0
   63.8284   34.5001   46.7321 H   0  0  0  0  0  0  0  0  0  0  0  0
   62.1752   31.5714   48.0835 H   0  0  0  0  0  0  0  0  0  0  0  0
   63.6269   31.8847   49.1461 H   0  0  0  0  0  0  0  0  0  0  0  0
   61.6856   33.2823   49.7846 H   0  0  0  0  0  0  0  0  0  0  0  0
   63.1052   34.2534   49.2149 H   0  0  0  0  0  0  0  0  0  0  0  0
   60.3436   31.4466   48.0408 H   0  0  0  0  0  0  0  0  0  0  0  0
   60.4416   28.9143   47.7746 H   0  0  0  0  0  0  0  0  0  0  0  0
   60.1189   26.5038   47.1162 H   0  0  0  0  0  0  0  0  0  0  0  0
   56.9247   27.6557   44.3896 H   0  0  0  0  0  0  0  0  0  0  0  0
  1  2  1  0
  2  3  1  0
  3  4  1  0
  4  5  1  0
  5  6  1  0
  6  7  2  0
  7  8  1  0
  8  9  2  0
  9 10  1  0
 10 11  1  0
 11 12  1  0
 12 13  1  0
 13 14  1  0
 14 15  1  0
 15 16  1  0
  9 17  1  0
 17 18  2  0
 18 19  1  0
 19 20  2  0
 20 21  1  0
 21 22  2  0
 22 23  1  0
 22 24  1  0
 24 25  2  0
 25  5  1  0
 18  6  1  0
 25 19  1  0
 16 11  1  0
  1 26  1  0
  1 27  1  0
  1 28  1  0
  2 29  1  0
  2 30  1  0
  3 31  1  0
  3 32  1  0
  4 33  1  0
  4 34  1  0
  7 35  1  0
  8 36  1  0
 10 37  1  0
 10 38  1  0
 12 39  1  0
 12 40  1  0
 13 41  1  0
 13 42  1  0
 15 43  1  0
 15 44  1  0
 16 45  1  0
 16 46  1  0
 17 47  1  0
 20 48  1  0
 21 49  1  0
 24 50  1  0
M  CHG  1   2   1
M  END
>  <UniqueID>  (19) 
18

>  <SMILES>  (19) 
C[NH2+]CCn1c2ccc(CN3CCOCC3)cc2c2ccc(F)cc21

>  <Energy>  (19) 
108.70080905458076

>  <Genealogy>  (19) 
C[NH2+]CCn1c2ccc(CN3CCOCC3)cc2c2ccc(F)cc21 (protonated)
C[NH2+]CCn1c2ccc(CN3CCOCC3)cc2c2ccc(F)cc21 (3D coordinates assigned)
C[NH2+]CCn1c2ccc(CN3CCOCC3)cc2c2ccc(F)cc21 (nonaromatic ring conformer: 108.70080905458076 kcal/mol)

>  <smiles>  (19) 
CNCCn1c2ccc(CN3CCOCC3)cc2c2ccc(F)cc21

>  <score_type>  (19) 
oracle

>  <origin>  (19) 
adg

>  <m_score__min__energy>  (19) 
-6.4400000000000004

>  <m_primary>  (19) 
energy

$$$$
19:0
     RDKit          3D

 34 36  0  0  0  0  0  0  0  0999 V2000
   58.3350   28.3510   45.3800 C   0  0  0  0  0  0  0  0  0  0  0  0
   57.6490   29.6280   45.0360 C   0  0  0  0  0  0  0  0  0  0  0  0
   58.2840   30.8070   44.8850 N   0  0  0  0  0  0  0  0  0  0  0  0
   57.2480   31.6290   44.6170 C   0  0  0  0  0  0  0  0  0  0  0  0
   57.4000   33.0930   44.3270 C   0  0  0  0  0  0  0  0  0  0  0  0
   58.7730   33.5610   44.5780 N   0  0  0  0  0  0  0  0  0  0  0  0
   58.8790   34.3950   45.7880 C   0  0  0  0  0  0  0  0  0  0  0  0
   59.9010   33.8110   46.7750 C   0  0  2  0  0  0  0  0  0  0  0  0
   61.3490   34.2020   46.3770 C   0  0  0  0  0  0  0  0  0  0  0  0
   62.2840   33.3790   47.1310 N   0  0  0  0  0  0  0  0  0  0  0  0
   63.6150   33.5060   47.2850 C   0  0  0  0  0  0  0  0  0  0  0  0
   64.1160   32.4970   48.0290 N   0  0  0  0  0  0  0  0  0  0  0  0
   63.0680   31.7060   48.3430 C   0  0  0  0  0  0  0  0  0  0  0  0
   61.9430   32.2520   47.7640 C   0  0  0  0  0  0  0  0  0  0  0  0
   60.5160   31.8140   47.8510 C   0  0  0  0  0  0  0  0  0  0  0  0
   59.7580   32.3930   46.7940 O   0  0  0  0  0  0  0  0  0  0  0  0
   56.0630   30.9860   44.6050 N   0  0  0  0  0  0  0  0  0  0  0  0
   56.3540   29.7500   44.8740 O   0  0  0  0  0  0  0  0  0  0  0  0
   58.3905   28.2477   46.4737 H   0  0  0  0  0  0  0  0  0  0  0  0
   57.7693   27.5062   44.9601 H   0  0  0  0  0  0  0  0  0  0  0  0
   59.3517   28.3563   44.9601 H   0  0  0  0  0  0  0  0  0  0  0  0
   57.1494   33.2747   43.2714 H   0  0  0  0  0  0  0  0  0  0  0  0
   56.7232   33.6457   44.9951 H   0  0  0  0  0  0  0  0  0  0  0  0
   59.4060   32.7330   44.6780 H   0  0  0  0  0  0  0  0  0  0  0  0
   59.1966   35.4078   45.4994 H   0  0  0  0  0  0  0  0  0  0  0  0
   57.8955   34.4234   46.2798 H   0  0  0  0  0  0  0  0  0  0  0  0
   59.7114   34.2216   47.7777 H   0  0  0  0  0  0  0  0  0  0  0  0
   61.4942   34.0332   45.2998 H   0  0  0  0  0  0  0  0  0  0  0  0
   61.5231   35.2647   46.6014 H   0  0  0  0  0  0  0  0  0  0  0  0
   64.2155   34.3241   46.8606 H   0  0  0  0  0  0  0  0  0  0  0  0
   65.1130   32.3570   48.3080 H   0  0  0  0  0  0  0  0  0  0  0  0
   63.1054   30.7904   48.9515 H   0  0  0  0  0  0  0  0  0  0  0  0
   60.4672   30.7177   47.7747 H   0  0  0  0  0  0  0  0  0  0  0  0
   60.0980   32.1427   48.8139 H   0  0  0  0  0  0  0  0  0  0  0  0
  1  2  1  0
  2  3  2  0
  3  4  1  0
  4  5  1  0
  5  6  1  0
  6  7  1  0
  7  8  1  0
  8  9  1  0
  9 10  1  0
 10 11  1  0
 11 12  2  0
 12 13  1  0
 13 14  2  0
 14 15  1  0
 15 16  1  0
  4 17  2  0
 17 18  1  0
 18  2  1  0
 16  8  1  0
 14 10  1  0
  1 19  1  0
  1 20  1  0
  1 21  1  0
  5 22  1  0
  5 23  1  0
  6 24  1  0
  7 25  1  0
  7 26  1  0
  8 27  1  1
  9 28  1  0
  9 29  1  0
 11 30  1  0
 12 31  1  0
 13 32  1  0
 15 33  1  0
 15 34  1  0
M  CHG  1  12   1
M  END
>  <UniqueID>  (20) 
19

>  <SMILES>  (20) 
Cc1nc(CNC[C@@H]2Cn3c[nH+]cc3CO2)no1

>  <Energy>  (20) 
102.27694220717552

>  <Genealogy>  (20) 
Cc1nc(CNCC2Cn3c[nH+]cc3CO2)no1 (protonated)
Cc1nc(CNC[C@@H]2Cn3c[nH+]cc3CO2)no1 (chirality)
Cc1nc(CNC[C@@H]2Cn3c[nH+]cc3CO2)no1 (3D coordinates assigned)
Cc1nc(CNC[C@@H]2Cn3c[nH+]cc3CO2)no1 (nonaromatic ring conformer: 102.27694220717552 kcal/mol)

>  <smiles>  (20) 
Cc1nc(CNCC2Cn3cncc3CO2)no1

>  <score_type>  (20) 
oracle

>  <origin>  (20) 
adg

>  <m_score__min__energy>  (20) 
-5.1100000000000003

>  <m_primary>  (20) 
energy

$$$$
20:0
     RDKit          3D

 40 42  0  0  0  0  0  0  0  0999 V2000
   59.1960   27.5580   44.9990 C   0  0  0  0  0  0  0  0  0  0  0  0
   58.4860   28.6900   44.5090 O   0  0  0  0  0  0  0  0  0  0  0  0
   58.4780   29.9600   45.1090 C   0  0  0  0  0  0  0  0  0  0  0  0
   59.5350   30.3060   45.8580 C   0  0  0  0  0  0  0  0  0  0  0  0
   59.5360   31.6570   46.5500 C   0  0  1  0  0  0  0  0  0  0  0  0
   60.9090   32.0890   47.0500 C   0  0  0  0  0  0  0  0  0  0  0  0
   61.7430   31.1800   47.7290 C   0  0  0  0  0  0  0  0  0  0  0  0
   62.9720   31.5910   48.2460 C   0  0  0  0  0  0  0  0  0  0  0  0
   63.3830   32.9200   48.1360 C   0  0  0  0  0  0  0  0  0  0  0  0
   64.6330   33.2770   48.6630 O   0  0  0  0  0  0  0  0  0  0  0  0
   65.2530   32.6340   49.7710 C   0  0  0  0  0  0  0  0  0  0  0  0
   62.5300   33.8520   47.5170 C   0  0  0  0  0  0  0  0  0  0  0  0
   61.2850   33.4530   47.0060 C   0  0  0  0  0  0  0  0  0  0  0  0
   60.3920   34.4950   46.3780 C   0  0  0  0  0  0  0  0  0  0  0  0
   58.9530   33.9980   46.2130 C   0  0  0  0  0  0  0  0  0  0  0  0
   58.9530   32.6520   45.6150 N   0  0  2  0  0  0  0  0  0  0  0  0
   57.6130   32.2410   45.2410 C   0  0  0  0  0  0  0  0  0  0  0  0
   57.3670   30.9460   44.9370 C   0  0  0  0  0  0  0  0  0  0  0  0
   56.1040   30.5080   44.5070 O   0  0  0  0  0  0  0  0  0  0  0  0
   55.8630   29.7250   43.3420 C   0  0  0  0  0  0  0  0  0  0  0  0
   59.1892   27.5689   46.0989 H   0  0  0  0  0  0  0  0  0  0  0  0
   58.7129   26.6379   44.6384 H   0  0  0  0  0  0  0  0  0  0  0  0
   60.2346   27.5923   44.6384 H   0  0  0  0  0  0  0  0  0  0  0  0
   60.3885   29.6211   45.9693 H   0  0  0  0  0  0  0  0  0  0  0  0
   58.9251   31.5804   47.4615 H   0  0  0  0  0  0  0  0  0  0  0  0
   61.4222   30.1351   47.8531 H   0  0  0  0  0  0  0  0  0  0  0  0
   63.6240   30.8595   48.7457 H   0  0  0  0  0  0  0  0  0  0  0  0
   64.8523   33.0496   50.7073 H   0  0  0  0  0  0  0  0  0  0  0  0
   65.0464   31.5543   49.7310 H   0  0  0  0  0  0  0  0  0  0  0  0
   66.3395   32.8011   49.7310 H   0  0  0  0  0  0  0  0  0  0  0  0
   62.8417   34.9035   47.4327 H   0  0  0  0  0  0  0  0  0  0  0  0
   60.3869   35.3897   47.0179 H   0  0  0  0  0  0  0  0  0  0  0  0
   60.7885   34.7217   45.3773 H   0  0  0  0  0  0  0  0  0  0  0  0
   58.4652   33.9594   47.1982 H   0  0  0  0  0  0  0  0  0  0  0  0
   58.4052   34.6872   45.5536 H   0  0  0  0  0  0  0  0  0  0  0  0
   59.5230   32.6780   44.7330 H   0  0  0  0  0  0  0  0  0  0  0  0
   56.7993   32.9803   45.2047 H   0  0  0  0  0  0  0  0  0  0  0  0
   55.5514   28.7126   43.6386 H   0  0  0  0  0  0  0  0  0  0  0  0
   55.0673   30.1930   42.7438 H   0  0  0  0  0  0  0  0  0  0  0  0
   56.7841   29.6646   42.7438 H   0  0  0  0  0  0  0  0  0  0  0  0
  1  2  1  0
  2  3  1  0
  3  4  2  0
  4  5  1  0
  5  6  1  0
  6  7  2  0
  7  8  1  0
  8  9  2  0
  9 10  1  0
 10 11  1  0
  9 12  1  0
 12 13  2  0
 13 14  1  0
 14 15  1  0
 15 16  1  0
 16 17  1  0
 17 18  2  0
 18 19  1  0
 19 20  1  0
 18  3  1  0
 16  5  1  0
 13  6  1  0
  1 21  1  0
  1 22  1  0
  1 23  1  0
  4 24  1  0
  5 25  1  1
  7 26  1  0
  8 27  1  0
 11 28  1  0
 11 29  1  0
 11 30  1  0
 12 31  1  0
 14 32  1  0
 14 33  1  0
 15 34  1  0
 15 35  1  0
 16 36  1  6
 17 37  1  0
 20 38  1  0
 20 39  1  0
 20 40  1  0
M  CHG  1  16   1
M  END
>  <UniqueID>  (21) 
20

>  <SMILES>  (21) 
COC1=C[C@H]2c3ccc(OC)cc3CC[N@@H+]2C=C1OC

>  <Energy>  (21) 
52.12912532951793

>  <Genealogy>  (21) 
COC1=CC2c3ccc(OC)cc3CC[NH+]2C=C1OC (protonated)
COC1=C[C@H]2c3ccc(OC)cc3CC[N@@H+]2C=C1OC (chirality)
COC1=C[C@H]2c3ccc(OC)cc3CC[N@@H+]2C=C1OC (3D coordinates assigned)
COC1=C[C@H]2c3ccc(OC)cc3CC[N@@H+]2C=C1OC (nonaromatic ring conformer: 52.12912532951793 kcal/mol)

>  <smiles>  (21) 
COC1=CC2c3ccc(OC)cc3CCN2C=C1OC

>  <score_type>  (21) 
oracle

>  <origin>  (21) 
adg

>  <m_score__min__energy>  (21) 
-4.9000000000000004

>  <m_primary>  (21) 
energy

$$$$
21:0
     RDKit          3D

 34 37  0  0  0  0  0  0  0  0999 V2000
   58.5330   32.5630   48.2150 C   0  0  0  0  0  0  0  0  0  0  0  0
   58.7580   33.4460   47.0160 C   0  0  0  0  0  0  0  0  0  0  0  0
   59.2260   34.7540   47.2140 C   0  0  0  0  0  0  0  0  0  0  0  0
   59.4700   35.5680   46.1530 N   0  0  0  0  0  0  0  0  0  0  0  0
   59.2690   35.1550   44.8750 C   0  0  0  0  0  0  0  0  0  0  0  0
   58.7890   33.8710   44.6220 C   0  0  0  0  0  0  0  0  0  0  0  0
   58.5090   33.0120   45.6920 C   0  0  0  0  0  0  0  0  0  0  0  0
   57.9750   31.6700   45.3980 C   0  0  0  0  0  0  0  0  0  0  0  0
   56.7240   31.4460   44.9440 N   0  0  0  0  0  0  0  0  0  0  0  0
   56.5670   30.1300   44.8650 N   0  0  0  0  0  0  0  0  0  0  0  0
   57.7280   29.5840   45.2780 C   0  0  0  0  0  0  0  0  0  0  0  0
   58.6320   30.5140   45.6030 N   0  0  0  0  0  0  0  0  0  0  0  0
   59.8540   30.2370   46.3590 C   0  0  0  0  0  0  0  0  0  0  0  0
   60.4020   28.8410   45.9900 C   0  0  0  0  0  0  0  0  0  0  0  0
   59.3070   27.7910   45.8740 C   0  0  0  0  0  0  0  0  0  0  0  0
   59.6100   26.4340   46.0650 C   0  0  0  0  0  0  0  0  0  0  0  0
   58.6250   25.4600   45.8780 C   0  0  0  0  0  0  0  0  0  0  0  0
   57.3360   25.8280   45.4810 C   0  0  0  0  0  0  0  0  0  0  0  0
   57.0240   27.1740   45.2690 C   0  0  0  0  0  0  0  0  0  0  0  0
   58.0070   28.1550   45.4600 C   0  0  0  0  0  0  0  0  0  0  0  0
   58.6821   33.1481   49.1344 H   0  0  0  0  0  0  0  0  0  0  0  0
   57.5059   32.1697   48.1932 H   0  0  0  0  0  0  0  0  0  0  0  0
   59.2466   31.7262   48.1932 H   0  0  0  0  0  0  0  0  0  0  0  0
   59.3968   35.1236   48.2359 H   0  0  0  0  0  0  0  0  0  0  0  0
   59.4854   35.8350   44.0379 H   0  0  0  0  0  0  0  0  0  0  0  0
   58.6309   33.5341   43.5869 H   0  0  0  0  0  0  0  0  0  0  0  0
   60.6102   30.9994   46.1202 H   0  0  0  0  0  0  0  0  0  0  0  0
   59.6249   30.2608   47.4346 H   0  0  0  0  0  0  0  0  0  0  0  0
   60.9247   28.9122   45.0247 H   0  0  0  0  0  0  0  0  0  0  0  0
   61.0792   28.5263   46.7977 H   0  0  0  0  0  0  0  0  0  0  0  0
   60.6261   26.1359   46.3629 H   0  0  0  0  0  0  0  0  0  0  0  0
   58.8651   24.3994   46.0439 H   0  0  0  0  0  0  0  0  0  0  0  0
   56.5655   25.0566   45.3351 H   0  0  0  0  0  0  0  0  0  0  0  0
   56.0105   27.4625   44.9534 H   0  0  0  0  0  0  0  0  0  0  0  0
  1  2  1  0
  2  3  2  0
  3  4  1  0
  4  5  2  0
  5  6  1  0
  6  7  2  0
  7  8  1  0
  8  9  2  0
  9 10  1  0
 10 11  2  0
 11 12  1  0
 12 13  1  0
 13 14  1  0
 14 15  1  0
 15 16  2  0
 16 17  1  0
 17 18  2  0
 18 19  1  0
 19 20  2  0
  7  2  1  0
 12  8  1  0
 20 15  1  0
 20 11  1  0
  1 21  1  0
  1 22  1  0
  1 23  1  0
  3 24  1  0
  5 25  1  0
  6 26  1  0
 13 27  1  0
 13 28  1  0
 14 29  1  0
 14 30  1  0
 16 31  1  0
 17 32  1  0
 18 33  1  0
 19 34  1  0
M  END
>  <UniqueID>  (22) 
21

>  <SMILES>  (22) 
Cc1cnccc1-c1nnc2n1CCc1ccccc1-2

>  <Energy>  (22) 
85.17840834721622

>  <Genealogy>  (22) 
Cc1cnccc1-c1nnc2n1CCc1ccccc1-2 (3D coordinates assigned)
Cc1cnccc1-c1nnc2n1CCc1ccccc1-2 (nonaromatic ring conformer: 85.17840834721622 kcal/mol)

>  <smiles>  (22) 
Cc1cnccc1-c1nnc2n1CCc1ccccc1-2

>  <score_type>  (22) 
oracle

>  <origin>  (22) 
adg

>  <m_score__min__energy>  (22) 
-7.9500000000000002

>  <m_primary>  (22) 
energy

$$$$
22:0
     RDKit          3D

 33 34  0  0  0  0  0  0  0  0999 V2000
   56.9850   34.2780   45.1980 C   0  0  0  0  0  0  0  0  0  0  0  0
   58.1170   33.4700   44.9740 N   0  0  0  0  0  0  0  0  0  0  0  0
   58.7900   32.9360   46.0980 C   0  0  0  0  0  0  0  0  0  0  0  0
   59.2930   34.0630   46.9560 C   0  0  0  0  0  0  0  0  0  0  0  0
   60.7210   33.9340   47.3410 C   0  0  0  0  0  0  0  0  0  0  0  0
   61.0930   33.9110   48.6880 C   0  0  0  0  0  0  0  0  0  0  0  0
   62.3980   33.7930   49.0900 C   0  0  0  0  0  0  0  0  0  0  0  0
   63.3780   33.6930   48.1370 C   0  0  0  0  0  0  0  0  0  0  0  0
   63.0310   33.7140   46.7970 C   0  0  0  0  0  0  0  0  0  0  0  0
   61.7260   33.8310   46.3820 C   0  0  0  0  0  0  0  0  0  0  0  0
   58.2960   32.8640   43.7150 C   0  0  0  0  0  0  0  0  0  0  0  0
   57.3790   31.7000   43.5840 C   0  0  0  0  0  0  0  0  0  0  0  0
   57.0510   30.9940   42.4860 N   0  0  0  0  0  0  0  0  0  0  0  0
   56.1890   30.0280   42.7970 N   0  0  0  0  0  0  0  0  0  0  0  0
   55.9440   30.0970   44.1200 C   0  0  0  0  0  0  0  0  0  0  0  0
   55.1810   29.3580   44.8210 O   0  0  0  0  0  0  0  0  0  0  0  0
   56.6850   31.1330   44.5990 N   0  0  0  0  0  0  0  0  0  0  0  0
   56.8246   34.3925   46.2802 H   0  0  0  0  0  0  0  0  0  0  0  0
   57.1450   35.2672   44.7444 H   0  0  0  0  0  0  0  0  0  0  0  0
   56.1015   33.8052   44.7444 H   0  0  0  0  0  0  0  0  0  0  0  0
   58.0957   32.3123   46.6802 H   0  0  0  0  0  0  0  0  0  0  0  0
   59.6379   32.3209   45.7625 H   0  0  0  0  0  0  0  0  0  0  0  0
   59.1676   35.0040   46.4004 H   0  0  0  0  0  0  0  0  0  0  0  0
   58.7078   34.0415   47.8872 H   0  0  0  0  0  0  0  0  0  0  0  0
   60.3084   33.9906   49.4549 H   0  0  0  0  0  0  0  0  0  0  0  0
   62.6546   33.7788   50.1596 H   0  0  0  0  0  0  0  0  0  0  0  0
   64.4326   33.5968   48.4348 H   0  0  0  0  0  0  0  0  0  0  0  0
   63.8252   33.6345   46.0401 H   0  0  0  0  0  0  0  0  0  0  0  0
   61.4792   33.8431   45.3101 H   0  0  0  0  0  0  0  0  0  0  0  0
   58.0751   33.5945   42.9228 H   0  0  0  0  0  0  0  0  0  0  0  0
   59.3367   32.5204   43.6207 H   0  0  0  0  0  0  0  0  0  0  0  0
   55.7490   29.3130   42.1620 H   0  0  0  0  0  0  0  0  0  0  0  0
   56.6680   31.3940   45.6150 H   0  0  0  0  0  0  0  0  0  0  0  0
  1  2  1  0
  2  3  1  0
  3  4  1  0
  4  5  1  0
  5  6  2  0
  6  7  1  0
  7  8  2  0
  8  9  1  0
  9 10  2  0
  2 11  1  0
 11 12  1  0
 12 13  2  0
 13 14  1  0
 14 15  1  0
 15 16  2  0
 15 17  1  0
 10  5  1  0
 17 12  1  0
  1 18  1  0
  1 19  1  0
  1 20  1  0
  3 21  1  0
  3 22  1  0
  4 23  1  0
  4 24  1  0
  6 25  1  0
  7 26  1  0
  8 27  1  0
  9 28  1  0
 10 29  1  0
 11 30  1  0
 11 31  1  0
 14 32  1  0
 17 33  1  0
M  END
>  <smiles>  (23) 
CN(CCc1ccccc1)Cc1n[nH]c(=O)[nH]1

>  <score_type>  (23) 
oracle

>  <origin>  (23) 
adg

>  <m_score__min__energy>  (23) 
-6.9299999999999997

>  <m_primary>  (23) 
energy

$$$$
23:0
     RDKit          3D

 54 58  0  0  0  0  0  0  0  0999 V2000
   54.5940   30.6300   51.7830 C   0  0  0  0  0  0  0  0  0  0  0  0
   55.9840   30.3650   51.6310 O   0  0  0  0  0  0  0  0  0  0  0  0
   56.8920   30.2070   52.6930 C   0  0  0  0  0  0  0  0  0  0  0  0
   56.4500   29.8630   53.9870 C   0  0  0  0  0  0  0  0  0  0  0  0
   57.3640   29.7010   55.0300 C   0  0  0  0  0  0  0  0  0  0  0  0
   58.7260   29.8770   54.7990 C   0  0  0  0  0  0  0  0  0  0  0  0
   59.1810   30.2180   53.5250 C   0  0  0  0  0  0  0  0  0  0  0  0
   58.2780   30.3910   52.4590 C   0  0  0  0  0  0  0  0  0  0  0  0
   58.8010   30.7570   51.1190 C   0  0  0  0  0  0  0  0  0  0  0  0
   58.3430   30.2420   49.9560 N   0  0  0  0  0  0  0  0  0  0  0  0
   59.1090   30.8610   49.0390 C   0  0  0  0  0  0  0  0  0  0  0  0
   58.9000   30.6980   47.5890 C   0  0  0  0  0  0  0  0  0  0  0  0
   59.1370   29.4960   46.9190 C   0  0  0  0  0  0  0  0  0  0  0  0
   59.5920   28.2050   47.5240 C   0  0  0  0  0  0  0  0  0  0  0  0
   58.7430   29.6950   45.3020 S   0  0  0  0  0  0  0  0  0  0  0  0
   58.3050   31.3140   45.4140 C   0  0  0  0  0  0  0  0  0  0  0  0
   58.4560   31.7390   46.7420 C   0  0  0  0  0  0  0  0  0  0  0  0
   58.1100   33.1220   47.2710 C   0  0  0  0  0  0  0  0  0  0  0  0
   58.7120   34.3250   46.5170 C   0  0  0  0  0  0  0  0  0  0  0  0
   58.0930   34.5420   45.1270 C   0  0  0  0  0  0  0  0  0  0  0  0
   58.4970   33.4610   44.1040 C   0  0  0  0  0  0  0  0  0  0  0  0
   57.7770   32.1130   44.2630 C   0  0  0  0  0  0  0  0  0  0  0  0
   59.9840   31.7100   49.6190 N   0  0  0  0  0  0  0  0  0  0  0  0
   61.0000   32.5240   49.0140 C   0  0  0  0  0  0  0  0  0  0  0  0
   61.2130   33.8700   49.2260 C   0  0  0  0  0  0  0  0  0  0  0  0
   62.2030   34.2290   48.4480 O   0  0  0  0  0  0  0  0  0  0  0  0
   62.5740   33.1640   47.7720 C   0  0  0  0  0  0  0  0  0  0  0  0
   63.6960   33.1600   46.7900 C   0  0  0  0  0  0  0  0  0  0  0  0
   61.8550   32.0650   48.0810 N   0  0  0  0  0  0  0  0  0  0  0  0
   59.7920   31.6510   50.9250 N   0  0  0  0  0  0  0  0  0  0  0  0
   54.3447   30.6775   52.8533 H   0  0  0  0  0  0  0  0  0  0  0  0
   54.3497   31.5909   51.3066 H   0  0  0  0  0  0  0  0  0  0  0  0
   54.0133   29.8264   51.3066 H   0  0  0  0  0  0  0  0  0  0  0  0
   55.3758   29.7210   54.1764 H   0  0  0  0  0  0  0  0  0  0  0  0
   57.0077   29.4339   56.0358 H   0  0  0  0  0  0  0  0  0  0  0  0
   59.4440   29.7470   55.6221 H   0  0  0  0  0  0  0  0  0  0  0  0
   60.2587   30.3534   53.3513 H   0  0  0  0  0  0  0  0  0  0  0  0
   59.5641   28.2841   48.6208 H   0  0  0  0  0  0  0  0  0  0  0  0
   58.9261   27.3924   47.1979 H   0  0  0  0  0  0  0  0  0  0  0  0
   60.6202   27.9895   47.1979 H   0  0  0  0  0  0  0  0  0  0  0  0
   57.0152   33.2251   47.2422 H   0  0  0  0  0  0  0  0  0  0  0  0
   58.5504   33.1636   48.2781 H   0  0  0  0  0  0  0  0  0  0  0  0
   58.5477   35.2316   47.1179 H   0  0  0  0  0  0  0  0  0  0  0  0
   59.7815   34.1148   46.3685 H   0  0  0  0  0  0  0  0  0  0  0  0
   56.9976   34.5355   45.2277 H   0  0  0  0  0  0  0  0  0  0  0  0
   58.4687   35.5045   44.7496 H   0  0  0  0  0  0  0  0  0  0  0  0
   58.2802   33.8466   43.0969 H   0  0  0  0  0  0  0  0  0  0  0  0
   59.5649   33.2604   44.2752 H   0  0  0  0  0  0  0  0  0  0  0  0
   56.7058   32.3022   44.4266 H   0  0  0  0  0  0  0  0  0  0  0  0
   57.9490   31.5315   43.3452 H   0  0  0  0  0  0  0  0  0  0  0  0
   60.6564   34.5192   49.9179 H   0  0  0  0  0  0  0  0  0  0  0  0
   64.6549   33.1566   47.3289 H   0  0  0  0  0  0  0  0  0  0  0  0
   63.6272   32.2621   46.1583 H   0  0  0  0  0  0  0  0  0  0  0  0
   63.6336   34.0584   46.1583 H   0  0  0  0  0  0  0  0  0  0  0  0
  1  2  1  0
  2  3  1  0
  3  4  2  0
  4  5  1  0
  5  6  2  0
  6  7  1  0
  7  8  2  0
  8  9  1  0
  9 10  1  0
 10 11  2  0
 11 12  1  0
 12 13  2  0
 13 14  1  0
 13 15  1  0
 15 16  1  0
 16 17  2  0
 17 18  1  0
 18 19  1  0
 19 20  1  0
 20 21  1  0
 21 22  1  0
 11 23  1  0
 23 24  1  0
 24 25  2  0
 25 26  1  0
 26 27  1  0
 27 28  1  0
 27 29  2  0
 23 30  1  0
  8  3  1  0
 30  9  2  0
 17 12  1  0
 29 24  1  0
 22 16  1  0
  1 31  1  0
  1 32  1  0
  1 33  1  0
  4 34  1  0
  5 35  1  0
  6 36  1  0
  7 37  1  0
 14 38  1  0
 14 39  1  0
 14 40  1  0
 18 41  1  0
 18 42  1  0
 19 43  1  0
 19 44  1  0
 20 45  1  0
 20 46  1  0
 21 47  1  0
 21 48  1  0
 22 49  1  0
 22 50  1  0
 25 51  1  0
 28 52  1  0
 28 53  1  0
 28 54  1  0
M  END
>  <UniqueID>  (24) 
22

>  <SMILES>  (24) 
COc1ccccc1-c1nc(-c2c(C)sc3c2CCCCC3)n(-c2coc(C)n2)n1

>  <Energy>  (24) 
159.1125631331085

>  <Genealogy>  (24) 
COc1ccccc1-c1nc(-c2c(C)sc3c2CCCCC3)n(-c2coc(C)n2)n1 (3D coordinates assigned)
COc1ccccc1-c1nc(-c2c(C)sc3c2CCCCC3)n(-c2coc(C)n2)n1 (nonaromatic ring conformer: 159.1125631331085 kcal/mol)

>  <smiles>  (24) 
COc1ccccc1-c1nc(-c2c(C)sc3c2CCCCC3)n(-c2coc(C)n2)n1

>  <score_type>  (24) 
oracle

>  <origin>  (24) 
adg

>  <m_score__min__energy>  (24) 
-6.6699999999999999

>  <m_primary>  (24) 
energy

$$$$
24:0
     RDKit          3D

 40 43  0  0  0  0  0  0  0  0999 V2000
   60.0030   33.7590   49.9970 C   0  0  0  0  0  0  0  0  0  0  0  0
   59.0450   33.3020   49.0480 O   0  0  0  0  0  0  0  0  0  0  0  0
   59.0500   33.6380   47.6830 C   0  0  0  0  0  0  0  0  0  0  0  0
   59.2650   34.9620   47.2470 C   0  0  0  0  0  0  0  0  0  0  0  0
   59.2650   35.2700   45.8850 C   0  0  0  0  0  0  0  0  0  0  0  0
   59.0550   34.2700   44.9360 C   0  0  0  0  0  0  0  0  0  0  0  0
   58.8400   32.9510   45.3450 C   0  0  0  0  0  0  0  0  0  0  0  0
   58.6350   31.9820   44.4140 N   0  0  0  0  0  0  0  0  0  0  0  0
   58.4220   30.6830   44.7600 C   0  0  0  0  0  0  0  0  0  0  0  0
   58.2190   29.7510   43.7950 N   0  0  0  0  0  0  0  0  0  0  0  0
   57.9960   28.4420   44.1080 C   0  0  0  0  0  0  0  0  0  0  0  0
   57.7690   27.4530   42.9920 C   0  0  0  0  0  0  0  0  0  0  0  0
   57.9920   28.0420   45.4250 N   0  0  0  0  0  0  0  0  0  0  0  0
   57.7820   26.6600   45.7700 C   0  0  0  0  0  0  0  0  0  0  0  0
   58.8320   25.7370   45.6580 C   0  0  0  0  0  0  0  0  0  0  0  0
   58.6260   24.3950   45.9910 C   0  0  0  0  0  0  0  0  0  0  0  0
   57.3700   23.9680   46.4330 C   0  0  0  0  0  0  0  0  0  0  0  0
   56.3180   24.8820   46.5410 C   0  0  0  0  0  0  0  0  0  0  0  0
   56.5210   26.2260   46.2090 C   0  0  0  0  0  0  0  0  0  0  0  0
   58.1900   28.9570   46.4270 C   0  0  0  0  0  0  0  0  0  0  0  0
   58.1830   28.5860   47.6350 O   0  0  0  0  0  0  0  0  0  0  0  0
   58.4080   30.3080   46.1120 C   0  0  0  0  0  0  0  0  0  0  0  0
   58.6180   31.2910   47.0960 C   0  0  0  0  0  0  0  0  0  0  0  0
   58.8360   32.6270   46.7220 C   0  0  0  0  0  0  0  0  0  0  0  0
   59.6258   33.5791   51.0145 H   0  0  0  0  0  0  0  0  0  0  0  0
   60.9484   33.2149   49.8548 H   0  0  0  0  0  0  0  0  0  0  0  0
   60.1750   34.8361   49.8548 H   0  0  0  0  0  0  0  0  0  0  0  0
   59.4341   35.7588   47.9862 H   0  0  0  0  0  0  0  0  0  0  0  0
   59.4316   36.3072   45.5588 H   0  0  0  0  0  0  0  0  0  0  0  0
   59.0586   34.5195   43.8647 H   0  0  0  0  0  0  0  0  0  0  0  0
   58.2340   30.0520   42.7940 H   0  0  0  0  0  0  0  0  0  0  0  0
   57.5422   26.4647   43.4184 H   0  0  0  0  0  0  0  0  0  0  0  0
   56.9243   27.7874   42.3719 H   0  0  0  0  0  0  0  0  0  0  0  0
   58.6750   27.3856   42.3719 H   0  0  0  0  0  0  0  0  0  0  0  0
   59.8200   26.0698   45.3073 H   0  0  0  0  0  0  0  0  0  0  0  0
   59.4526   23.6744   45.9052 H   0  0  0  0  0  0  0  0  0  0  0  0
   57.2097   22.9120   46.6959 H   0  0  0  0  0  0  0  0  0  0  0  0
   55.3300   24.5445   46.8872 H   0  0  0  0  0  0  0  0  0  0  0  0
   55.6914   26.9436   46.2921 H   0  0  0  0  0  0  0  0  0  0  0  0
   58.6115   31.0128   48.1602 H   0  0  0  0  0  0  0  0  0  0  0  0
  1  2  1  0
  2  3  1  0
  3  4  2  0
  4  5  1  0
  5  6  2  0
  6  7  1  0
  7  8  2  0
  8  9  1  0
  9 10  1  0
 10 11  2  0
 11 12  1  0
 11 13  1  0
 13 14  1  0
 14 15  2  0
 15 16  1  0
 16 17  2  0
 17 18  1  0
 18 19  2  0
 13 20  1  0
 20 21  2  0
 20 22  1  0
 22 23  1  0
 23 24  2  0
 24  3  1  0
 24  7  1  0
 22  9  2  0
 19 14  1  0
  1 25  1  0
  1 26  1  0
  1 27  1  0
  4 28  1  0
  5 29  1  0
  6 30  1  0
 10 31  1  0
 12 32  1  0
 12 33  1  0
 12 34  1  0
 15 35  1  0
 16 36  1  0
 17 37  1  0
 18 38  1  0
 19 39  1  0
 23 40  1  0
M  CHG  1  10   1
M  END
>  <UniqueID>  (25) 
23

>  <SMILES>  (25) 
COc1cccc2nc3[nH+]c(C)n(-c4ccccc4)c(=O)c3cc12

>  <Energy>  (25) 
62.01020409200566

>  <Genealogy>  (25) 
COc1cccc2nc3[nH+]c(C)n(-c4ccccc4)c(=O)c3cc12 (protonated)
COc1cccc2nc3[nH+]c(C)n(-c4ccccc4)c(=O)c3cc12 (3D coordinates assigned)
COc1cccc2nc3[nH+]c(C)n(-c4ccccc4)c(=O)c3cc12 (optimized conformer: 62.01020409200566 kcal/mol)

>  <smiles>  (25) 
COc1cccc2nc3nc(C)n(-c4ccccc4)c(=O)c3cc12

>  <score_type>  (25) 
oracle

>  <origin>  (25) 
adg

>  <m_score__min__energy>  (25) 
-5.8700000000000001

>  <m_primary>  (25) 
energy

$$$$
25:0
     RDKit          3D

 55 57  0  0  0  0  0  0  0  0999 V2000
   60.6380   30.4730   49.4380 C   0  0  0  0  0  0  0  0  0  0  0  0
   60.2410   29.5900   48.3310 C   0  0  0  0  0  0  0  0  0  0  0  0
   59.2170   28.6850   48.5570 C   0  0  0  0  0  0  0  0  0  0  0  0
   57.3980   33.7390   45.2630 C   0  0  0  0  0  0  0  0  0  0  0  0
   57.9100   27.0340   47.7390 O   0  0  0  0  0  0  0  0  0  0  0  0
   59.4430   27.8980   46.3070 N   0  0  0  0  0  0  0  0  0  0  0  0
   58.9970   26.9880   45.2710 C   0  0  0  0  0  0  0  0  0  0  0  0
   57.6330   27.4350   44.8110 C   0  0  0  0  0  0  0  0  0  0  0  0
   57.5200   27.8440   43.4700 N   0  0  0  0  0  0  0  0  0  0  0  0
   58.0960   27.0520   42.4610 C   0  0  0  0  0  0  0  0  0  0  0  0
   57.1140   29.1540   43.1990 C   0  0  0  0  0  0  0  0  0  0  0  0
   56.3990   29.7410   44.3940 C   0  0  0  0  0  0  0  0  0  0  0  0
   57.2670   30.0920   45.4560 O   0  0  0  0  0  0  0  0  0  0  0  0
   57.6850   31.4120   45.5520 C   0  0  0  0  0  0  0  0  0  0  0  0
   56.9680   32.4630   45.1580 N   0  0  0  0  0  0  0  0  0  0  0  0
   58.8490   27.8570   47.5160 C   0  0  0  0  0  0  0  0  0  0  0  0
   56.6550   34.7290   44.8620 N   0  0  0  0  0  0  0  0  0  0  0  0
   58.6340   34.0030   45.8010 C   0  0  0  0  0  0  0  0  0  0  0  0
   59.3110   35.1390   46.0260 N   0  0  0  0  0  0  0  0  0  0  0  0
   60.4800   34.7580   46.5770 C   0  0  0  0  0  0  0  0  0  0  0  0
   60.5290   33.4110   46.6930 N   0  0  0  0  0  0  0  0  0  0  0  0
   61.6360   32.6670   47.2430 C   0  0  0  0  0  0  0  0  0  0  0  0
   62.9080   33.4690   47.0330 C   0  0  0  0  0  0  0  0  0  0  0  0
   63.8790   33.2560   48.0930 C   0  0  0  0  0  0  0  0  0  0  0  0
   64.6530   33.0950   48.9340 N   0  0  0  0  0  0  0  0  0  0  0  0
   59.3790   32.9040   46.2110 C   0  0  0  0  0  0  0  0  0  0  0  0
   58.8990   31.6510   46.0810 N   0  0  0  0  0  0  0  0  0  0  0  0
   60.4340   28.7890   46.1230 C   0  0  0  0  0  0  0  0  0  0  0  0
   61.1230   28.8830   44.8280 C   0  0  0  0  0  0  0  0  0  0  0  0
   60.8210   29.6190   47.1210 N   0  0  0  0  0  0  0  0  0  0  0  0
   60.4169   29.9811   50.3967 H   0  0  0  0  0  0  0  0  0  0  0  0
   61.7162   30.6809   49.3726 H   0  0  0  0  0  0  0  0  0  0  0  0
   60.0779   31.4175   49.3726 H   0  0  0  0  0  0  0  0  0  0  0  0
   58.7139   28.6282   49.5336 H   0  0  0  0  0  0  0  0  0  0  0  0
   59.7013   27.0105   44.4264 H   0  0  0  0  0  0  0  0  0  0  0  0
   58.9501   25.9604   45.6605 H   0  0  0  0  0  0  0  0  0  0  0  0
   56.9386   26.5955   44.9628 H   0  0  0  0  0  0  0  0  0  0  0  0
   57.4074   28.3321   45.4062 H   0  0  0  0  0  0  0  0  0  0  0  0
   58.6839   26.2436   42.9202 H   0  0  0  0  0  0  0  0  0  0  0  0
   57.3010   26.6181   41.8367 H   0  0  0  0  0  0  0  0  0  0  0  0
   58.7537   27.6747   41.8367 H   0  0  0  0  0  0  0  0  0  0  0  0
   57.9977   29.7670   42.9681 H   0  0  0  0  0  0  0  0  0  0  0  0
   56.4262   29.1444   42.3406 H   0  0  0  0  0  0  0  0  0  0  0  0
   55.8630   30.6450   44.0693 H   0  0  0  0  0  0  0  0  0  0  0  0
   55.7179   28.9662   44.7758 H   0  0  0  0  0  0  0  0  0  0  0  0
   56.0140   35.1560   45.5570 H   0  0  0  0  0  0  0  0  0  0  0  0
   61.2809   35.4447   46.8884 H   0  0  0  0  0  0  0  0  0  0  0  0
   61.4745   32.5025   48.3186 H   0  0  0  0  0  0  0  0  0  0  0  0
   61.7193   31.6908   46.7428 H   0  0  0  0  0  0  0  0  0  0  0  0
   63.3595   33.1708   46.0753 H   0  0  0  0  0  0  0  0  0  0  0  0
   62.6366   34.5350   47.0363 H   0  0  0  0  0  0  0  0  0  0  0  0
   59.4930   30.8590   46.4040 H   0  0  0  0  0  0  0  0  0  0  0  0
   62.2002   29.0300   44.9956 H   0  0  0  0  0  0  0  0  0  0  0  0
   60.9636   27.9548   44.2596 H   0  0  0  0  0  0  0  0  0  0  0  0
   60.7208   29.7346   44.2596 H   0  0  0  0  0  0  0  0  0  0  0  0
  1  2  1  0
  2  3  2  0
  3  4  1  0
  4  5  2  0
  4  6  1  0
  6  7  1  0
  7  8  1  0
  8  9  1  0
  9 10  1  0
  9 11  1  0
 11 12  1  0
 12 13  1  0
 13 14  1  0
 14 15  2  0
 15 16  1  0
 16 17  2  3
 16 18  1  0
 18 19  1  0
 19 20  2  0
 20 21  1  0
 21 22  1  0
 22 23  1  0
 23 24  1  0
 24 25  3  0
 21 26  1  0
 26 27  1  0
  6 28  1  0
 28 29  1  0
 28 30  2  0
 30  2  1  0
 27 14  1  0
 26 18  2  0
  1 31  1  0
  1 32  1  0
  1 33  1  0
  3 34  1  0
  7 35  1  0
  7 36  1  0
  8 37  1  0
  8 38  1  0
 10 39  1  0
 10 40  1  0
 10 41  1  0
 11 42  1  0
 11 43  1  0
 12 44  1  0
 12 45  1  0
 17 46  1  0
 20 47  1  0
 22 48  1  0
 22 49  1  0
 23 50  1  0
 23 51  1  0
 27 52  1  0
 29 53  1  0
 29 54  1  0
 29 55  1  0
M  END
>  <smiles>  (26) 
Cc1cc(=O)n(CCN(C)CCOc2nc(=N)c3ncn(CCC#N)c3[nH]2)c(C)n1

>  <score_type>  (26) 
oracle

>  <origin>  (26) 
adg

>  <m_score__min__energy>  (26) 
-6.6600000000000001

>  <m_primary>  (26) 
energy

$$$$
26:0
     RDKit          3D

 36 38  0  0  0  0  0  0  0  0999 V2000
   56.6230   24.9640   45.3640 C   0  0  0  0  0  0  0  0  0  0  0  0
   56.6700   26.0570   46.4290 C   0  0  0  0  0  0  0  0  0  0  0  0
   57.7720   27.0040   46.1420 N   0  0  0  0  0  0  0  0  0  0  0  0
   58.2990   26.7880   44.7730 C   0  0  0  0  0  0  0  0  0  0  0  0
   59.3550   27.8330   44.3600 C   0  0  0  0  0  0  0  0  0  0  0  0
   59.0920   29.1740   45.0080 C   0  0  0  0  0  0  0  0  0  0  0  0
   58.6310   30.2080   44.2490 N   0  0  0  0  0  0  0  0  0  0  0  0
   58.3140   31.4160   44.7910 C   0  0  0  0  0  0  0  0  0  0  0  0
   57.8510   32.4540   43.9660 C   0  0  0  0  0  0  0  0  0  0  0  0
   57.5160   33.6930   44.5130 C   0  0  0  0  0  0  0  0  0  0  0  0
   57.6390   33.9080   45.8850 C   0  0  0  0  0  0  0  0  0  0  0  0
   58.0980   32.8860   46.7190 C   0  0  0  0  0  0  0  0  0  0  0  0
   58.4410   31.6250   46.1850 C   0  0  0  0  0  0  0  0  0  0  0  0
   58.9040   30.5670   46.9990 C   0  0  0  0  0  0  0  0  0  0  0  0
   59.0400   30.7890   48.7500 Cl  0  0  0  0  0  0  0  0  0  0  0  0
   59.2430   29.3280   46.4050 C   0  0  0  0  0  0  0  0  0  0  0  0
   59.7560   28.1490   47.2210 C   0  0  0  0  0  0  0  0  0  0  0  0
   58.8370   26.9050   47.1720 C   0  0  0  0  0  0  0  0  0  0  0  0
   56.5806   23.9788   45.8514 H   0  0  0  0  0  0  0  0  0  0  0  0
   55.7299   25.1015   44.7367 H   0  0  0  0  0  0  0  0  0  0  0  0
   57.5246   25.0243   44.7367 H   0  0  0  0  0  0  0  0  0  0  0  0
   55.7144   26.6019   46.4328 H   0  0  0  0  0  0  0  0  0  0  0  0
   56.8420   25.5934   47.4116 H   0  0  0  0  0  0  0  0  0  0  0  0
   58.7582   25.7895   44.7281 H   0  0  0  0  0  0  0  0  0  0  0  0
   57.4528   26.8836   44.0767 H   0  0  0  0  0  0  0  0  0  0  0  0
   60.3494   27.4767   44.6671 H   0  0  0  0  0  0  0  0  0  0  0  0
   59.3044   27.9616   43.2687 H   0  0  0  0  0  0  0  0  0  0  0  0
   58.5120   30.0660   43.2190 H   0  0  0  0  0  0  0  0  0  0  0  0
   57.7520   32.2893   42.8829 H   0  0  0  0  0  0  0  0  0  0  0  0
   57.1543   34.5015   43.8607 H   0  0  0  0  0  0  0  0  0  0  0  0
   57.3735   34.8862   46.3123 H   0  0  0  0  0  0  0  0  0  0  0  0
   58.1930   33.0650   47.8002 H   0  0  0  0  0  0  0  0  0  0  0  0
   60.7454   27.8641   46.8337 H   0  0  0  0  0  0  0  0  0  0  0  0
   59.7918   28.4783   48.2699 H   0  0  0  0  0  0  0  0  0  0  0  0
   59.4552   26.0222   46.9518 H   0  0  0  0  0  0  0  0  0  0  0  0
   58.3394   26.8278   48.1500 H   0  0  0  0  0  0  0  0  0  0  0  0
  1  2  1  0
  2  3  1  0
  3  4  1  0
  4  5  1  0
  5  6  1  0
  6  7  2  0
  7  8  1  0
  8  9  2  0
  9 10  1  0
 10 11  2  0
 11 12  1  0
 12 13  2  0
 13 14  1  0
 14 15  1  0
 14 16  2  0
 16 17  1  0
 17 18  1  0
 18  3  1  0
 16  6  1  0
 13  8  1  0
  1 19  1  0
  1 20  1  0
  1 21  1  0
  2 22  1  0
  2 23  1  0
  4 24  1  0
  4 25  1  0
  5 26  1  0
  5 27  1  0
  7 28  1  0
  9 29  1  0
 10 30  1  0
 11 31  1  0
 12 32  1  0
 17 33  1  0
 17 34  1  0
 18 35  1  0
 18 36  1  0
M  CHG  1   7   1
M  END
>  <UniqueID>  (27) 
24

>  <SMILES>  (27) 
CCN1CCc2[nH+]c3ccccc3c(Cl)c2CC1

>  <Energy>  (27) 
54.844361921911

>  <Genealogy>  (27) 
CCN1CCc2[nH+]c3ccccc3c(Cl)c2CC1 (protonated)
CCN1CCc2[nH+]c3ccccc3c(Cl)c2CC1 (3D coordinates assigned)
CCN1CCc2[nH+]c3ccccc3c(Cl)c2CC1 (nonaromatic ring conformer: 54.844361921911 kcal/mol)

>  <smiles>  (27) 
CCN1CCc2nc3ccccc3c(Cl)c2CC1

>  <score_type>  (27) 
oracle

>  <origin>  (27) 
adg

>  <m_score__min__energy>  (27) 
-3.8999999999999999

>  <m_primary>  (27) 
energy

$$$$
27:0
     RDKit          3D

 42 43  0  0  0  0  0  0  0  0999 V2000
   64.4110   32.9050   51.1990 F   0  0  0  0  0  0  0  0  0  0  0  0
   63.3850   33.7840   50.9050 C   0  0  0  0  0  0  0  0  0  0  0  0
   62.2760   33.4550   51.6660 F   0  0  0  0  0  0  0  0  0  0  0  0
   63.7790   35.0670   51.2480 F   0  0  0  0  0  0  0  0  0  0  0  0
   63.0640   33.6990   49.4330 C   0  0  0  0  0  0  0  0  0  0  0  0
   64.0300   33.2420   48.5200 C   0  0  0  0  0  0  0  0  0  0  0  0
   63.7200   33.1290   47.1620 C   0  0  0  0  0  0  0  0  0  0  0  0
   62.4380   33.4470   46.7050 C   0  0  0  0  0  0  0  0  0  0  0  0
   61.4500   33.8610   47.6100 C   0  0  0  0  0  0  0  0  0  0  0  0
   60.0780   34.2260   47.1150 C   0  0  0  0  0  0  0  0  0  0  0  0
   59.9850   33.9360   45.6790 N   0  0  0  0  0  0  0  0  0  0  0  0
   58.9400   34.7260   45.0040 C   0  0  0  0  0  0  0  0  0  0  0  0
   57.5120   34.1630   45.1710 C   0  0  0  0  0  0  0  0  0  0  0  0
   57.4610   32.6940   45.6220 C   0  0  0  0  0  0  0  0  0  0  0  0
   58.1940   31.8220   44.6740 N   0  0  0  0  0  0  0  0  0  0  0  0
   58.6380   30.5650   45.3060 C   0  0  0  0  0  0  0  0  0  0  0  0
   57.4480   29.6180   45.5930 C   0  0  0  0  0  0  0  0  0  0  0  0
   56.2730   29.9670   44.8810 O   0  0  0  0  0  0  0  0  0  0  0  0
   56.5900   30.2540   43.5350 C   0  0  0  0  0  0  0  0  0  0  0  0
   57.4220   31.5490   43.4370 C   0  0  0  0  0  0  0  0  0  0  0  0
   61.7690   33.9910   48.9710 C   0  0  0  0  0  0  0  0  0  0  0  0
   65.0351   32.9719   48.8762 H   0  0  0  0  0  0  0  0  0  0  0  0
   64.4871   32.7888   46.4508 H   0  0  0  0  0  0  0  0  0  0  0  0
   62.2035   33.3723   45.6329 H   0  0  0  0  0  0  0  0  0  0  0  0
   59.3234   33.6379   47.6579 H   0  0  0  0  0  0  0  0  0  0  0  0
   59.8986   35.2977   47.2859 H   0  0  0  0  0  0  0  0  0  0  0  0
   59.8140   32.9140   45.5340 H   0  0  0  0  0  0  0  0  0  0  0  0
   58.9588   35.7458   45.4159 H   0  0  0  0  0  0  0  0  0  0  0  0
   59.1672   34.6958   43.9281 H   0  0  0  0  0  0  0  0  0  0  0  0
   56.9868   34.7723   45.9212 H   0  0  0  0  0  0  0  0  0  0  0  0
   57.0383   34.2051   44.1791 H   0  0  0  0  0  0  0  0  0  0  0  0
   57.9191   32.6074   46.6183 H   0  0  0  0  0  0  0  0  0  0  0  0
   56.4094   32.3729   45.6524 H   0  0  0  0  0  0  0  0  0  0  0  0
   59.3436   30.0569   44.6322 H   0  0  0  0  0  0  0  0  0  0  0  0
   59.1178   30.8134   46.2642 H   0  0  0  0  0  0  0  0  0  0  0  0
   57.7383   28.5957   45.3091 H   0  0  0  0  0  0  0  0  0  0  0  0
   57.2168   29.6988   46.6654 H   0  0  0  0  0  0  0  0  0  0  0  0
   57.1698   29.4192   43.1143 H   0  0  0  0  0  0  0  0  0  0  0  0
   55.6549   30.3900   42.9719 H   0  0  0  0  0  0  0  0  0  0  0  0
   58.1247   31.4542   42.5961 H   0  0  0  0  0  0  0  0  0  0  0  0
   56.7232   32.3852   43.2872 H   0  0  0  0  0  0  0  0  0  0  0  0
   60.9987   34.3243   49.6821 H   0  0  0  0  0  0  0  0  0  0  0  0
  1  2  1  0
  2  3  1  0
  2  4  1  0
  2  5  1  0
  5  6  2  0
  6  7  1  0
  7  8  2  0
  8  9  1  0
  9 10  1  0
 10 11  1  0
 11 12  1  0
 12 13  1  0
 13 14  1  0
 14 15  1  0
 15 16  1  0
 16 17  1  0
 17 18  1  0
 18 19  1  0
 19 20  1  0
  9 21  2  0
 21  5  1  0
 20 15  1  0
  6 22  1  0
  7 23  1  0
  8 24  1  0
 10 25  1  0
 10 26  1  0
 11 27  1  0
 12 28  1  0
 12 29  1  0
 13 30  1  0
 13 31  1  0
 14 32  1  0
 14 33  1  0
 16 34  1  0
 16 35  1  0
 17 36  1  0
 17 37  1  0
 19 38  1  0
 19 39  1  0
 20 40  1  0
 20 41  1  0
 21 42  1  0
M  END
>  <UniqueID>  (28) 
25

>  <SMILES>  (28) 
FC(F)(F)c1cccc(CNCCCN2CCOCC2)c1

>  <Energy>  (28) 
50.97660092035969

>  <Genealogy>  (28) 
FC(F)(F)c1cccc(CNCCCN2CCOCC2)c1 (3D coordinates assigned)
FC(F)(F)c1cccc(CNCCCN2CCOCC2)c1 (nonaromatic ring conformer: 50.97660092035969 kcal/mol)

>  <smiles>  (28) 
FC(F)(F)c1cccc(CNCCCN2CCOCC2)c1

>  <score_type>  (28) 
oracle

>  <origin>  (28) 
adg

>  <m_score__min__energy>  (28) 
-6.6200000000000001

>  <m_primary>  (28) 
energy

$$$$
28:0
     RDKit          3D

 48 49  0  0  0  0  0  0  0  0999 V2000
   57.7800   32.3280   41.4470 C   0  0  0  0  0  0  0  0  0  0  0  0
   57.4200   31.6700   42.7800 C   0  0  0  0  0  0  0  0  0  0  0  0
   56.6190   30.3670   42.6050 C   0  0  0  0  0  0  0  0  0  0  0  0
   55.9730   29.8570   43.8990 C   0  0  0  0  0  0  0  0  0  0  0  0
   56.9520   29.1750   44.7470 N   0  0  0  0  0  0  0  0  0  0  0  0
   58.2330   29.5470   44.9470 C   0  0  0  0  0  0  0  0  0  0  0  0
   58.8200   28.7020   45.8750 C   0  0  0  0  0  0  0  0  0  0  0  0
   60.2070   28.8460   46.4450 C   0  0  2  0  0  0  0  0  0  0  0  0
   60.6840   27.6050   46.9060 O   0  0  0  0  0  0  0  0  0  0  0  0
   60.2520   29.8580   47.5220 N   0  0  0  0  0  0  0  0  0  0  0  0
   60.4850   31.2420   47.0400 C   0  0  1  0  0  0  0  0  0  0  0  0
   59.2540   32.1250   47.2920 C   0  0  0  0  0  0  0  0  0  0  0  0
   61.6860   31.8380   47.7430 C   0  0  0  0  0  0  0  0  0  0  0  0
   61.6620   32.0910   49.1230 C   0  0  0  0  0  0  0  0  0  0  0  0
   62.8120   32.5380   49.7750 C   0  0  0  0  0  0  0  0  0  0  0  0
   63.9900   32.7500   49.0350 C   0  0  0  0  0  0  0  0  0  0  0  0
   65.1890   33.1550   49.6440 O   0  0  0  0  0  0  0  0  0  0  0  0
   66.0440   32.2940   50.3870 C   0  0  0  0  0  0  0  0  0  0  0  0
   63.9770   32.5480   47.6880 N   0  0  0  0  0  0  0  0  0  0  0  0
   62.8670   32.1080   47.0360 C   0  0  0  0  0  0  0  0  0  0  0  0
   57.8630   27.7650   46.2390 C   0  0  0  0  0  0  0  0  0  0  0  0
   56.7340   28.0960   45.5210 C   0  0  0  0  0  0  0  0  0  0  0  0
   55.5180   27.4260   45.6000 O   0  0  0  0  0  0  0  0  0  0  0  0
   58.3001   33.2787   41.6360 H   0  0  0  0  0  0  0  0  0  0  0  0
   58.4373   31.6582   40.8732 H   0  0  0  0  0  0  0  0  0  0  0  0
   56.8615   32.5204   40.8732 H   0  0  0  0  0  0  0  0  0  0  0  0
   58.3498   31.4410   43.3213 H   0  0  0  0  0  0  0  0  0  0  0  0
   56.7866   32.3758   43.3374 H   0  0  0  0  0  0  0  0  0  0  0  0
   55.8228   30.5462   41.8675 H   0  0  0  0  0  0  0  0  0  0  0  0
   57.3314   29.5954   42.2778 H   0  0  0  0  0  0  0  0  0  0  0  0
   55.5533   30.7108   44.4511 H   0  0  0  0  0  0  0  0  0  0  0  0
   55.1824   29.1396   43.6340 H   0  0  0  0  0  0  0  0  0  0  0  0
   58.7342   30.3908   44.4502 H   0  0  0  0  0  0  0  0  0  0  0  0
   60.8651   29.1958   45.6360 H   0  0  0  0  0  0  0  0  0  0  0  0
   60.9210   27.0730   46.1040 H   0  0  0  0  0  0  0  0  0  0  0  0
   59.3330   29.8070   48.0230 H   0  0  0  0  0  0  0  0  0  0  0  0
   60.6728   31.2011   45.9569 H   0  0  0  0  0  0  0  0  0  0  0  0
   59.0984   32.2366   48.3752 H   0  0  0  0  0  0  0  0  0  0  0  0
   59.4144   33.1152   46.8406 H   0  0  0  0  0  0  0  0  0  0  0  0
   58.3675   31.6556   46.8406 H   0  0  0  0  0  0  0  0  0  0  0  0
   60.7338   31.9365   49.6927 H   0  0  0  0  0  0  0  0  0  0  0  0
   62.7978   32.7232   50.8592 H   0  0  0  0  0  0  0  0  0  0  0  0
   65.8827   32.4564   51.4629 H   0  0  0  0  0  0  0  0  0  0  0  0
   65.8178   31.2471   50.1363 H   0  0  0  0  0  0  0  0  0  0  0  0
   67.0924   32.5128   50.1363 H   0  0  0  0  0  0  0  0  0  0  0  0
   64.8500   32.7130   47.1390 H   0  0  0  0  0  0  0  0  0  0  0  0
   62.8959   31.9629   45.9460 H   0  0  0  0  0  0  0  0  0  0  0  0
   57.9807   26.9340   46.9501 H   0  0  0  0  0  0  0  0  0  0  0  0
  1  2  1  0
  2  3  1  0
  3  4  1  0
  4  5  1  0
  5  6  1  0
  6  7  2  0
  7  8  1  0
  8  9  1  0
  8 10  1  0
 10 11  1  0
 11 12  1  0
 11 13  1  0
 13 14  2  0
 14 15  1  0
 15 16  2  0
 16 17  1  0
 17 18  1  0
 16 19  1  0
 19 20  2  0
  7 21  1  0
 21 22  2  0
 22 23  1  0
 22  5  1  0
 20 13  1  0
  1 24  1  0
  1 25  1  0
  1 26  1  0
  2 27  1  0
  2 28  1  0
  3 29  1  0
  3 30  1  0
  4 31  1  0
  4 32  1  0
  6 33  1  0
  8 34  1  6
  9 35  1  0
 10 36  1  0
 11 37  1  6
 12 38  1  0
 12 39  1  0
 12 40  1  0
 14 41  1  0
 15 42  1  0
 18 43  1  0
 18 44  1  0
 18 45  1  0
 19 46  1  0
 20 47  1  0
 21 48  1  0
M  CHG  2  19   1  23  -1
M  END
>  <UniqueID>  (29) 
26

>  <SMILES>  (29) 
CCCCn1cc([C@H](O)N[C@@H](C)c2ccc(OC)[nH+]c2)cc1[O-]

>  <Energy>  (29) 
64.75539355219011

>  <Genealogy>  (29) 
CCCCn1cc(C(O)NC(C)c2ccc(OC)[nH+]c2)cc1[O-] (protonated)
CCCCn1cc([C@H](O)N[C@@H](C)c2ccc(OC)[nH+]c2)cc1[O-] (chirality)
CCCCn1cc([C@H](O)N[C@@H](C)c2ccc(OC)[nH+]c2)cc1[O-] (3D coordinates assigned)
CCCCn1cc([C@H](O)N[C@@H](C)c2ccc(OC)[nH+]c2)cc1[O-] (optimized conformer: 64.75539355219011 kcal/mol)

>  <smiles>  (29) 
CCCCn1cc(C(O)NC(C)c2ccc(OC)nc2)cc1O

>  <score_type>  (29) 
oracle

>  <origin>  (29) 
adg

>  <m_score__min__energy>  (29) 
-8.4800000000000004

>  <m_primary>  (29) 
energy

$$$$
29:0
     RDKit          3D

 28 29  0  0  0  0  0  0  0  0999 V2000
   57.9801   33.5487   43.2097 H   0  0  0  0  0  0  0  0  0  0  0  0
   58.1990   33.5100   44.2870 C   0  0  0  0  0  0  0  0  0  0  0  0
   57.8260   32.3870   45.0420 C   0  0  0  0  0  0  0  0  0  0  0  0
   57.1300   31.2370   44.4110 C   0  0  0  0  0  0  0  0  0  0  0  0
   55.9480   30.8640   44.7660 N   0  0  0  0  0  0  0  0  0  0  0  0
   55.5300   29.7110   43.9770 C   0  0  0  0  0  0  0  0  0  0  0  0
   55.3257   28.8497   44.6301 H   0  0  0  0  0  0  0  0  0  0  0  0
   54.6046   29.9090   43.4162 H   0  0  0  0  0  0  0  0  0  0  0  0
   56.7130   29.4130   43.0470 C   0  0  0  0  0  0  0  0  0  0  0  0
   57.1200   28.4095   43.2403 H   0  0  0  0  0  0  0  0  0  0  0  0
   56.4311   29.4255   41.9838 H   0  0  0  0  0  0  0  0  0  0  0  0
   57.6840   30.4370   43.3810 N   0  0  0  0  0  0  0  0  0  0  0  0
   58.6420   30.5020   42.9730 H   0  0  0  0  0  0  0  0  0  0  0  0
   58.1170   32.3720   46.4170 C   0  0  0  0  0  0  0  0  0  0  0  0
   57.8277   31.5056   47.0299 H   0  0  0  0  0  0  0  0  0  0  0  0
   58.7800   33.4670   47.0130 C   0  0  0  0  0  0  0  0  0  0  0  0
   59.0750   33.4980   48.2850 N   0  0  0  0  0  0  0  0  0  0  0  0
   60.1970   34.1840   48.9280 C   0  0  0  0  0  0  0  0  0  0  0  0
   60.2231   33.9122   49.9936 H   0  0  0  0  0  0  0  0  0  0  0  0
   60.0594   35.2693   48.8130 H   0  0  0  0  0  0  0  0  0  0  0  0
   61.5190   33.7870   48.2780 C   0  0  0  0  0  0  0  0  0  0  0  0
   62.2599   33.5645   49.0601 H   0  0  0  0  0  0  0  0  0  0  0  0
   61.3668   32.8949   47.6527 H   0  0  0  0  0  0  0  0  0  0  0  0
   61.8834   34.6153   47.6527 H   0  0  0  0  0  0  0  0  0  0  0  0
   59.1230   34.5350   46.2370 N   0  0  0  0  0  0  0  0  0  0  0  0
   59.6110   35.3530   46.6690 H   0  0  0  0  0  0  0  0  0  0  0  0
   58.8480   34.5760   44.9080 C   0  0  0  0  0  0  0  0  0  0  0  0
   59.1395   35.4568   44.3170 H   0  0  0  0  0  0  0  0  0  0  0  0
  1  2  1  0
  2  3  1  0
  3  4  1  0
  4  5  2  0
  5  6  1  0
  6  7  1  0
  6  8  1  0
  6  9  1  0
  9 10  1  0
  9 11  1  0
  9 12  1  0
 12 13  1  0
  3 14  2  0
 14 15  1  0
 14 16  1  0
 16 17  2  0
 17 18  1  0
 18 19  1  0
 18 20  1  0
 18 21  1  0
 21 22  1  0
 21 23  1  0
 21 24  1  0
 16 25  1  0
 25 26  1  0
 25 27  1  0
 27 28  1  0
 27  2  2  0
 12  4  1  0
M  END
>  <UniqueID>  (30) 
27

>  <SMILES>  (30) 
CC/N=c1\cc(C2=NCCN2)cc[nH]1

>  <Energy>  (30) 
40.673206833981844

>  <Genealogy>  (30) 
CC/N=c1\cc(C2=NCCN2)cc[nH]1 (cis-trans isomerization)
CC/N=c1\cc(C2=NCCN2)cc[nH]1 (3D coordinates assigned)
CC/N=c1\cc(C2=NCCN2)cc[nH]1 (nonaromatic ring conformer: 40.673206833981844 kcal/mol)

>  <smiles>  (30) 
CCN=c1cc(C2=NCCN2)cc[nH]1

>  <score_type>  (30) 
oracle

>  <origin>  (30) 
adg

>  <m_score__min__energy>  (30) 
-5.2999999999999998

>  <m_primary>  (30) 
energy

$$$$
30:0
     RDKit          3D

 40 42  0  0  0  0  0  0  0  0999 V2000
   58.1050   26.8820   42.8060 C   0  0  0  0  0  0  0  0  0  0  0  0
   57.7740   26.2950   44.1730 C   0  0  0  0  0  0  0  0  0  0  0  0
   58.0720   27.2620   45.2370 N   0  0  0  0  0  0  0  0  0  0  0  0
   58.6330   26.8260   46.5230 C   0  0  0  0  0  0  0  0  0  0  0  0
   60.1380   26.6060   46.4060 C   0  0  0  0  0  0  0  0  0  0  0  0
   57.5880   28.6050   45.1120 C   0  0  0  0  0  0  0  0  0  0  0  0
   56.4130   28.8620   44.4630 N   0  0  0  0  0  0  0  0  0  0  0  0
   55.9340   30.1410   44.3330 C   0  0  0  0  0  0  0  0  0  0  0  0
   56.6280   31.1980   44.8550 N   0  0  0  0  0  0  0  0  0  0  0  0
   57.7930   30.9380   45.4970 C   0  0  0  0  0  0  0  0  0  0  0  0
   58.2840   29.6870   45.6370 C   0  0  0  0  0  0  0  0  0  0  0  0
   59.4490   29.7080   46.3120 N   0  0  0  0  0  0  0  0  0  0  0  0
   59.6240   31.0340   46.5640 C   0  0  0  0  0  0  0  0  0  0  0  0
   58.6230   31.8150   46.0760 N   0  0  0  0  0  0  0  0  0  0  0  0
   58.4740   33.2740   46.1560 C   0  0  0  0  0  0  0  0  0  0  0  0
   59.4180   33.8920   47.1800 C   0  0  0  0  0  0  0  0  0  0  0  0
   59.6550   35.3190   46.6990 C   0  0  0  0  0  0  0  0  0  0  0  0
   59.2690   35.3620   45.2190 C   0  0  0  0  0  0  0  0  0  0  0  0
   58.8080   33.9590   44.8390 C   0  0  0  0  0  0  0  0  0  0  0  0
   58.6415   27.8335   42.9357 H   0  0  0  0  0  0  0  0  0  0  0  0
   58.7385   26.1769   42.2478 H   0  0  0  0  0  0  0  0  0  0  0  0
   57.1738   27.0592   42.2478 H   0  0  0  0  0  0  0  0  0  0  0  0
   56.7049   26.0384   44.2069 H   0  0  0  0  0  0  0  0  0  0  0  0
   58.3867   25.3951   44.3301 H   0  0  0  0  0  0  0  0  0  0  0  0
   58.4385   27.5977   47.2824 H   0  0  0  0  0  0  0  0  0  0  0  0
   58.1577   25.8775   46.8136 H   0  0  0  0  0  0  0  0  0  0  0  0
   60.5784   26.5416   47.4119 H   0  0  0  0  0  0  0  0  0  0  0  0
   60.3305   25.6702   45.8609 H   0  0  0  0  0  0  0  0  0  0  0  0
   60.5903   27.4476   45.8609 H   0  0  0  0  0  0  0  0  0  0  0  0
   54.9852   30.3178   43.8053 H   0  0  0  0  0  0  0  0  0  0  0  0
   60.4909   31.4352   47.1094 H   0  0  0  0  0  0  0  0  0  0  0  0
   57.4208   33.4280   46.4337 H   0  0  0  0  0  0  0  0  0  0  0  0
   58.9559   33.8936   48.1783 H   0  0  0  0  0  0  0  0  0  0  0  0
   60.3577   33.3266   47.2651 H   0  0  0  0  0  0  0  0  0  0  0  0
   59.0306   36.0197   47.2728 H   0  0  0  0  0  0  0  0  0  0  0  0
   60.7062   35.6111   46.8392 H   0  0  0  0  0  0  0  0  0  0  0  0
   58.4536   36.0834   45.0618 H   0  0  0  0  0  0  0  0  0  0  0  0
   60.1215   35.6770   44.5994 H   0  0  0  0  0  0  0  0  0  0  0  0
   57.9184   34.0076   44.1938 H   0  0  0  0  0  0  0  0  0  0  0  0
   59.5799   33.4124   44.2774 H   0  0  0  0  0  0  0  0  0  0  0  0
  1  2  1  0
  2  3  1  0
  3  4  1  0
  4  5  1  0
  3  6  1  0
  6  7  2  0
  7  8  1  0
  8  9  2  0
  9 10  1  0
 10 11  2  0
 11 12  1  0
 12 13  2  0
 13 14  1  0
 14 15  1  0
 15 16  1  0
 16 17  1  0
 17 18  1  0
 18 19  1  0
 11  6  1  0
 19 15  1  0
 14 10  1  0
  1 20  1  0
  1 21  1  0
  1 22  1  0
  2 23  1  0
  2 24  1  0
  4 25  1  0
  4 26  1  0
  5 27  1  0
  5 28  1  0
  5 29  1  0
  8 30  1  0
 13 31  1  0
 15 32  1  0
 16 33  1  0
 16 34  1  0
 17 35  1  0
 17 36  1  0
 18 37  1  0
 18 38  1  0
 19 39  1  0
 19 40  1  0
M  END
>  <UniqueID>  (31) 
28

>  <SMILES>  (31) 
CCN(CC)c1ncnc2c1ncn2C1CCCC1

>  <Energy>  (31) 
80.77351295880538

>  <Genealogy>  (31) 
CCN(CC)c1ncnc2c1ncn2C1CCCC1 (3D coordinates assigned)
CCN(CC)c1ncnc2c1ncn2C1CCCC1 (nonaromatic ring conformer: 80.77351295880538 kcal/mol)

>  <smiles>  (31) 
CCN(CC)c1ncnc2c1ncn2C1CCCC1

>  <score_type>  (31) 
oracle

>  <origin>  (31) 
adg

>  <m_score__min__energy>  (31) 
-6.3099999999999996

>  <m_primary>  (31) 
energy

$$$$
31:0
     RDKit          3D

 52 55  0  0  0  0  0  0  0  0999 V2000
   57.7150   32.3650   40.7450 C   0  0  0  0  0  0  0  0  0  0  0  0
   57.9420   32.7140   42.1410 N   0  0  0  0  0  0  0  0  0  0  0  0
   57.4030   31.9200   43.2110 C   0  0  0  0  0  0  0  0  0  0  0  0
   56.7270   30.8910   42.9380 O   0  0  0  0  0  0  0  0  0  0  0  0
   57.6300   32.2720   44.5910 N   0  0  0  0  0  0  0  0  0  0  0  0
   56.6780   33.0880   45.3320 C   0  0  0  0  0  0  0  0  0  0  0  0
   57.3690   33.4590   46.6380 C   0  0  0  0  0  0  0  0  0  0  0  0
   58.8660   33.2430   46.3800 C   0  0  2  0  0  0  0  0  0  0  0  0
   58.9150   32.1590   45.2790 C   0  0  1  0  0  0  0  0  0  0  0  0
   59.1540   30.7670   45.8530 C   0  0  0  0  0  0  0  0  0  0  0  0
   58.5450   29.6060   45.3430 C   0  0  0  0  0  0  0  0  0  0  0  0
   58.8950   28.3350   45.8350 C   0  0  0  0  0  0  0  0  0  0  0  0
   58.2470   27.1140   45.2930 C   0  0  0  0  0  0  0  0  0  0  0  0
   57.6130   26.1980   46.1530 C   0  0  0  0  0  0  0  0  0  0  0  0
   57.0070   25.0470   45.6430 C   0  0  0  0  0  0  0  0  0  0  0  0
   57.0240   24.7950   44.2660 C   0  0  0  0  0  0  0  0  0  0  0  0
   56.3990   23.6090   43.7420 C   0  0  0  0  0  0  0  0  0  0  0  0
   55.8950   22.6560   43.3210 N   0  0  0  0  0  0  0  0  0  0  0  0
   57.6500   25.7000   43.4010 C   0  0  0  0  0  0  0  0  0  0  0  0
   58.2580   26.8510   43.9100 C   0  0  0  0  0  0  0  0  0  0  0  0
   59.8690   28.2370   46.8420 C   0  0  0  0  0  0  0  0  0  0  0  0
   60.4750   29.3850   47.3550 C   0  0  0  0  0  0  0  0  0  0  0  0
   60.1240   30.6490   46.8580 C   0  0  0  0  0  0  0  0  0  0  0  0
   60.6600   31.8540   47.4280 N   0  0  0  0  0  0  0  0  0  0  0  0
   62.0670   31.9250   47.8410 C   0  0  0  0  0  0  0  0  0  0  0  0
   59.6740   32.9240   47.6840 C   0  0  1  0  0  0  0  0  0  0  0  0
   60.3010   34.2070   48.2800 C   0  0  0  0  0  0  0  0  0  0  0  0
   59.6320   34.5900   49.4510 O   0  0  0  0  0  0  0  0  0  0  0  0
   57.1160   31.4440   40.6900 H   0  0  0  0  0  0  0  0  0  0  0  0
   57.1759   33.1834   40.2454 H   0  0  0  0  0  0  0  0  0  0  0  0
   58.6817   32.2040   40.2454 H   0  0  0  0  0  0  0  0  0  0  0  0
   58.5340   33.5480   42.3450 H   0  0  0  0  0  0  0  0  0  0  0  0
   56.4266   33.9945   44.7618 H   0  0  0  0  0  0  0  0  0  0  0  0
   55.7384   32.5455   45.5136 H   0  0  0  0  0  0  0  0  0  0  0  0
   57.1700   34.5101   46.8941 H   0  0  0  0  0  0  0  0  0  0  0  0
   57.0064   32.8518   47.4805 H   0  0  0  0  0  0  0  0  0  0  0  0
   59.3769   34.1545   46.0362 H   0  0  0  0  0  0  0  0  0  0  0  0
   59.7576   32.3094   44.5881 H   0  0  0  0  0  0  0  0  0  0  0  0
   57.7868   29.6927   44.5508 H   0  0  0  0  0  0  0  0  0  0  0  0
   57.5944   26.3899   47.2360 H   0  0  0  0  0  0  0  0  0  0  0  0
   56.5155   24.3374   46.3248 H   0  0  0  0  0  0  0  0  0  0  0  0
   57.6635   25.5050   42.3185 H   0  0  0  0  0  0  0  0  0  0  0  0
   58.7491   27.5572   43.2243 H   0  0  0  0  0  0  0  0  0  0  0  0
   60.1564   27.2484   47.2293 H   0  0  0  0  0  0  0  0  0  0  0  0
   61.2295   29.2984   48.1508 H   0  0  0  0  0  0  0  0  0  0  0  0
   62.1270   31.9280   48.9394 H   0  0  0  0  0  0  0  0  0  0  0  0
   62.6094   31.0531   47.4465 H   0  0  0  0  0  0  0  0  0  0  0  0
   62.5188   32.8471   47.4465 H   0  0  0  0  0  0  0  0  0  0  0  0
   58.9848   32.5423   48.4517 H   0  0  0  0  0  0  0  0  0  0  0  0
   61.3586   34.0161   48.5148 H   0  0  0  0  0  0  0  0  0  0  0  0
   60.2131   35.0181   47.5422 H   0  0  0  0  0  0  0  0  0  0  0  0
   59.3590   35.5360   49.3260 H   0  0  0  0  0  0  0  0  0  0  0  0
  1  2  1  0
  2  3  1  0
  3  4  2  0
  3  5  1  0
  5  6  1  0
  6  7  1  0
  7  8  1  0
  8  9  1  0
  9 10  1  0
 10 11  2  0
 11 12  1  0
 12 13  1  0
 13 14  2  0
 14 15  1  0
 15 16  2  0
 16 17  1  0
 17 18  3  0
 16 19  1  0
 19 20  2  0
 12 21  2  0
 21 22  1  0
 22 23  2  0
 23 24  1  0
 24 25  1  0
 24 26  1  0
 26 27  1  0
 27 28  1  0
  9  5  1  0
 23 10  1  0
 26  8  1  0
 20 13  1  0
  1 29  1  0
  1 30  1  0
  1 31  1  0
  2 32  1  0
  6 33  1  0
  6 34  1  0
  7 35  1  0
  7 36  1  0
  8 37  1  6
  9 38  1  6
 11 39  1  0
 14 40  1  0
 15 41  1  0
 19 42  1  0
 20 43  1  0
 21 44  1  0
 22 45  1  0
 25 46  1  0
 25 47  1  0
 25 48  1  0
 26 49  1  1
 27 50  1  0
 27 51  1  0
 28 52  1  0
M  END
>  <UniqueID>  (32) 
29

>  <SMILES>  (32) 
CNC(=O)N1CC[C@H]2C(CO)N(C)c3ccc(-c4ccc(C#N)cc4)cc3[C@H]21

>  <Energy>  (32) 
71.10354303642515

>  <Genealogy>  (32) 
CNC(=O)N1CC[C@H]2C(CO)N(C)c3ccc(-c4ccc(C#N)cc4)cc3[C@H]21 (chirality)
CNC(=O)N1CC[C@H]2C(CO)N(C)c3ccc(-c4ccc(C#N)cc4)cc3[C@H]21 (3D coordinates assigned)
CNC(=O)N1CC[C@H]2C(CO)N(C)c3ccc(-c4ccc(C#N)cc4)cc3[C@H]21 (nonaromatic ring conformer: 71.10354303642515 kcal/mol)

>  <smiles>  (32) 
CNC(=O)N1CCC2C1c1cc(-c3ccc(C#N)cc3)ccc1N(C)C2CO

>  <score_type>  (32) 
oracle

>  <origin>  (32) 
adg

>  <m_score__min__energy>  (32) 
-8.0099999999999998

>  <m_primary>  (32) 
energy

$$$$
32:0
     RDKit          3D

 51 53  0  0  0  0  0  0  0  0999 V2000
   59.0330   21.8160   44.4460 C   0  0  0  0  0  0  0  0  0  0  0  0
   57.7500   21.0980   44.4710 N   0  0  0  0  0  0  0  0  0  0  0  0
   57.5110   20.5160   45.7980 C   0  0  0  0  0  0  0  0  0  0  0  0
   56.4520   22.1870   44.0500 S   0  0  0  0  0  0  0  0  0  0  0  0
   56.0900   22.0260   42.5980 O   0  0  0  0  0  0  0  0  0  0  0  0
   55.2370   21.8760   44.8810 O   0  0  0  0  0  0  0  0  0  0  0  0
   56.9390   23.8520   44.3630 C   0  0  0  0  0  0  0  0  0  0  0  0
   57.3610   24.6820   43.3210 C   0  0  0  0  0  0  0  0  0  0  0  0
   57.7730   25.9890   43.5930 C   0  0  0  0  0  0  0  0  0  0  0  0
   57.7660   26.4570   44.9170 C   0  0  0  0  0  0  0  0  0  0  0  0
   58.1900   27.7980   45.2390 N   0  0  0  0  0  0  0  0  0  0  0  0
   58.7480   28.0780   46.5690 C   0  0  0  0  0  0  0  0  0  0  0  0
   58.4960   29.5370   46.9560 C   0  0  0  0  0  0  0  0  0  0  0  0
   59.1270   30.5170   45.9390 C   0  0  0  0  0  0  0  0  0  0  0  0
   58.4700   31.8480   46.0270 N   0  0  0  0  0  0  0  0  0  0  0  0
   58.2420   32.5310   44.7370 C   0  0  0  0  0  0  0  0  0  0  0  0
   57.3620   33.7810   44.9620 C   0  0  0  0  0  0  0  0  0  0  0  0
   57.2890   34.1650   46.3250 O   0  0  0  0  0  0  0  0  0  0  0  0
   58.5820   34.1790   46.8950 C   0  0  0  0  0  0  0  0  0  0  0  0
   59.1450   32.7470   46.9860 C   0  0  0  0  0  0  0  0  0  0  0  0
   59.2100   29.9360   44.4960 C   0  0  0  0  0  0  0  0  0  0  0  0
   58.1550   28.8580   44.2170 C   0  0  0  0  0  0  0  0  0  0  0  0
   57.3440   25.6250   45.9120 N   0  0  0  0  0  0  0  0  0  0  0  0
   56.9400   24.3500   45.6690 C   0  0  0  0  0  0  0  0  0  0  0  0
   59.3683   22.0036   45.4767 H   0  0  0  0  0  0  0  0  0  0  0  0
   59.7838   21.2070   43.9213 H   0  0  0  0  0  0  0  0  0  0  0  0
   58.9066   22.7745   43.9213 H   0  0  0  0  0  0  0  0  0  0  0  0
   57.7780   20.3280   43.7630 H   0  0  0  0  0  0  0  0  0  0  0  0
   57.8073   21.2375   46.5736 H   0  0  0  0  0  0  0  0  0  0  0  0
   56.4425   20.2784   45.9072 H   0  0  0  0  0  0  0  0  0  0  0  0
   58.1042   19.5961   45.9072 H   0  0  0  0  0  0  0  0  0  0  0  0
   57.3688   24.3065   42.2871 H   0  0  0  0  0  0  0  0  0  0  0  0
   58.1008   26.6474   42.7751 H   0  0  0  0  0  0  0  0  0  0  0  0
   58.2702   27.4189   47.3088 H   0  0  0  0  0  0  0  0  0  0  0  0
   59.8327   27.8967   46.5466 H   0  0  0  0  0  0  0  0  0  0  0  0
   57.4109   29.7131   46.9943 H   0  0  0  0  0  0  0  0  0  0  0  0
   58.9599   29.7160   47.9372 H   0  0  0  0  0  0  0  0  0  0  0  0
   60.1812   30.6644   46.2165 H   0  0  0  0  0  0  0  0  0  0  0  0
   59.2080   32.8355   44.3080 H   0  0  0  0  0  0  0  0  0  0  0  0
   57.7323   31.8446   44.0448 H   0  0  0  0  0  0  0  0  0  0  0  0
   57.7840   34.6163   44.3839 H   0  0  0  0  0  0  0  0  0  0  0  0
   56.3423   33.5309   44.6339 H   0  0  0  0  0  0  0  0  0  0  0  0
   59.2476   34.7909   46.2685 H   0  0  0  0  0  0  0  0  0  0  0  0
   58.5206   34.6032   47.9081 H   0  0  0  0  0  0  0  0  0  0  0  0
   60.2215   32.7693   46.7610 H   0  0  0  0  0  0  0  0  0  0  0  0
   58.9704   32.3670   48.0034 H   0  0  0  0  0  0  0  0  0  0  0  0
   59.0676   30.7583   43.7793 H   0  0  0  0  0  0  0  0  0  0  0  0
   60.1972   29.4623   44.3906 H   0  0  0  0  0  0  0  0  0  0  0  0
   57.1583   29.3234   44.2174 H   0  0  0  0  0  0  0  0  0  0  0  0
   58.3722   28.4045   43.2387 H   0  0  0  0  0  0  0  0  0  0  0  0
   56.6134   23.7093   46.5014 H   0  0  0  0  0  0  0  0  0  0  0  0
  1  2  1  0
  2  3  1  0
  2  4  1  0
  4  5  2  0
  4  6  2  0
  4  7  1  0
  7  8  2  0
  8  9  1  0
  9 10  2  0
 10 11  1  0
 11 12  1  0
 12 13  1  0
 13 14  1  0
 14 15  1  0
 15 16  1  0
 16 17  1  0
 17 18  1  0
 18 19  1  0
 19 20  1  0
 14 21  1  0
 21 22  1  0
 10 23  1  0
 23 24  2  0
 24  7  1  0
 22 11  1  0
 20 15  1  0
  1 25  1  0
  1 26  1  0
  1 27  1  0
  2 28  1  0
  3 29  1  0
  3 30  1  0
  3 31  1  0
  8 32  1  0
  9 33  1  0
 12 34  1  0
 12 35  1  0
 13 36  1  0
 13 37  1  0
 14 38  1  0
 16 39  1  0
 16 40  1  0
 17 41  1  0
 17 42  1  0
 19 43  1  0
 19 44  1  0
 20 45  1  0
 20 46  1  0
 21 47  1  0
 21 48  1  0
 22 49  1  0
 22 50  1  0
 24 51  1  0
M  CHG  1   2   1
M  END
>  <UniqueID>  (33) 
30

>  <SMILES>  (33) 
C[NH+](C)S(=O)(=O)c1ccc(N2CCC(N3CCOCC3)CC2)nc1

>  <Energy>  (33) 
67.64819197524659

>  <Genealogy>  (33) 
C[NH+](C)S(=O)(=O)c1ccc(N2CCC(N3CCOCC3)CC2)nc1 (protonated)
C[NH+](C)S(=O)(=O)c1ccc(N2CCC(N3CCOCC3)CC2)nc1 (3D coordinates assigned)
C[NH+](C)S(=O)(=O)c1ccc(N2CCC(N3CCOCC3)CC2)nc1 (nonaromatic ring conformer: 67.64819197524659 kcal/mol)

>  <smiles>  (33) 
CN(C)S(=O)(=O)c1ccc(N2CCC(N3CCOCC3)CC2)nc1

>  <score_type>  (33) 
oracle

>  <origin>  (33) 
adg

>  <m_score__min__energy>  (33) 
-6.6799999999999997

>  <m_primary>  (33) 
energy

$$$$
33:0
     RDKit          3D

 35 36  0  0  0  0  0  0  0  0999 V2000
   60.0230   28.3320   44.8770 C   0  0  0  0  0  0  0  0  0  0  0  0
   58.5520   27.9310   44.9750 C   0  0  0  0  0  0  0  0  0  0  0  0
   57.7390   28.3330   43.7360 C   0  0  0  0  0  0  0  0  0  0  0  0
   56.6980   29.7640   44.0120 S   0  0  0  0  0  0  0  0  0  0  0  0
   56.1730   30.2530   42.6910 O   0  0  0  0  0  0  0  0  0  0  0  0
   55.5260   29.3760   44.8710 O   0  0  0  0  0  0  0  0  0  0  0  0
   57.6110   31.0610   44.7780 C   0  0  0  0  0  0  0  0  0  0  0  0
   57.7940   32.2890   44.1260 C   0  0  0  0  0  0  0  0  0  0  0  0
   58.5010   33.3190   44.7540 C   0  0  0  0  0  0  0  0  0  0  0  0
   59.0190   33.1410   46.0420 C   0  0  0  0  0  0  0  0  0  0  0  0
   59.7320   34.1940   46.6330 O   0  0  0  0  0  0  0  0  0  0  0  0
   61.0030   34.0880   47.2170 C   0  0  0  0  0  0  0  0  0  0  0  0
   62.1540   33.8160   46.4530 C   0  0  0  0  0  0  0  0  0  0  0  0
   63.4000   33.7010   47.0760 C   0  0  0  0  0  0  0  0  0  0  0  0
   63.5070   33.8440   48.4620 C   0  0  0  0  0  0  0  0  0  0  0  0
   62.3660   34.0930   49.2280 C   0  0  0  0  0  0  0  0  0  0  0  0
   61.1170   34.2090   48.6070 C   0  0  0  0  0  0  0  0  0  0  0  0
   58.8490   31.9030   46.6880 C   0  0  0  0  0  0  0  0  0  0  0  0
   58.1430   30.8730   46.0600 C   0  0  0  0  0  0  0  0  0  0  0  0
   60.4402   28.4457   45.8884 H   0  0  0  0  0  0  0  0  0  0  0  0
   60.5802   27.5530   44.3360 H   0  0  0  0  0  0  0  0  0  0  0  0
   60.1077   29.2860   44.3360 H   0  0  0  0  0  0  0  0  0  0  0  0
   58.4931   26.8391   45.0943 H   0  0  0  0  0  0  0  0  0  0  0  0
   58.1223   28.4609   45.8378 H   0  0  0  0  0  0  0  0  0  0  0  0
   58.4378   28.5612   42.9177 H   0  0  0  0  0  0  0  0  0  0  0  0
   57.0777   27.4891   43.4899 H   0  0  0  0  0  0  0  0  0  0  0  0
   57.3804   32.4423   43.1183 H   0  0  0  0  0  0  0  0  0  0  0  0
   58.6511   34.2757   44.2322 H   0  0  0  0  0  0  0  0  0  0  0  0
   62.0725   33.6937   45.3629 H   0  0  0  0  0  0  0  0  0  0  0  0
   64.2980   33.4976   46.4742 H   0  0  0  0  0  0  0  0  0  0  0  0
   64.4895   33.7605   48.9495 H   0  0  0  0  0  0  0  0  0  0  0  0
   62.4490   34.1980   50.3198 H   0  0  0  0  0  0  0  0  0  0  0  0
   60.2196   34.3964   49.2149 H   0  0  0  0  0  0  0  0  0  0  0  0
   59.2730   31.7450   47.6906 H   0  0  0  0  0  0  0  0  0  0  0  0
   58.0046   29.9108   46.5747 H   0  0  0  0  0  0  0  0  0  0  0  0
  1  2  1  0
  2  3  1  0
  3  4  1  0
  4  5  2  0
  4  6  2  0
  4  7  1  0
  7  8  2  0
  8  9  1  0
  9 10  2  0
 10 11  1  0
 11 12  1  0
 12 13  2  0
 13 14  1  0
 14 15  2  0
 15 16  1  0
 16 17  2  0
 10 18  1  0
 18 19  2  0
 19  7  1  0
 17 12  1  0
  1 20  1  0
  1 21  1  0
  1 22  1  0
  2 23  1  0
  2 24  1  0
  3 25  1  0
  3 26  1  0
  8 27  1  0
  9 28  1  0
 13 29  1  0
 14 30  1  0
 15 31  1  0
 16 32  1  0
 17 33  1  0
 18 34  1  0
 19 35  1  0
M  END
>  <UniqueID>  (34) 
31

>  <SMILES>  (34) 
CCCS(=O)(=O)c1ccc(Oc2ccccc2)cc1

>  <Energy>  (34) 
35.07412260193774

>  <Genealogy>  (34) 
CCCS(=O)(=O)c1ccc(Oc2ccccc2)cc1 (3D coordinates assigned)
CCCS(=O)(=O)c1ccc(Oc2ccccc2)cc1 (optimized conformer: 35.07412260193774 kcal/mol)

>  <smiles>  (34) 
CCCS(=O)(=O)c1ccc(Oc2ccccc2)cc1

>  <score_type>  (34) 
oracle

>  <origin>  (34) 
adg

>  <m_score__min__energy>  (34) 
-7.3899999999999997

>  <m_primary>  (34) 
energy

$$$$
34:0
     RDKit          3D

 49 50  0  0  0  0  0  0  0  0999 V2000
   61.7090   30.0690   50.1730 C   0  0  0  0  0  0  0  0  0  0  0  0
   61.1490   31.1450   51.1100 C   0  0  0  0  0  0  0  0  0  0  0  0
   61.6130   32.5180   50.7780 N   0  0  0  0  0  0  0  0  0  0  0  0
   61.3090   33.5190   51.8400 C   0  0  0  0  0  0  0  0  0  0  0  0
   60.0710   33.2030   52.6910 C   0  0  0  0  0  0  0  0  0  0  0  0
   63.0510   32.4710   50.4040 C   0  0  0  0  0  0  0  0  0  0  0  0
   63.4730   33.6110   49.4590 C   0  0  0  0  0  0  0  0  0  0  0  0
   62.3900   33.9700   48.6040 O   0  0  0  0  0  0  0  0  0  0  0  0
   62.3070   33.5800   47.2610 C   0  0  0  0  0  0  0  0  0  0  0  0
   63.3500   33.4610   46.5610 O   0  0  0  0  0  0  0  0  0  0  0  0
   60.9620   33.3020   46.6480 C   0  0  2  0  0  0  0  0  0  0  0  0
   59.9850   34.3760   47.0920 C   0  0  0  0  0  0  0  0  0  0  0  0
   59.9480   35.6830   46.3630 C   0  0  0  0  0  0  0  0  0  0  0  0
   59.2800   34.2350   48.1780 N   0  0  0  0  0  0  0  0  0  0  0  0
   59.2780   33.0150   48.9220 C   0  0  0  0  0  0  0  0  0  0  0  0
   58.7080   32.9600   50.0420 O   0  0  0  0  0  0  0  0  0  0  0  0
   59.9100   31.8560   48.3790 N   0  0  0  0  0  0  0  0  0  0  0  0
   60.4770   31.8770   47.0300 C   0  0  1  0  0  0  0  0  0  0  0  0
   59.4800   31.3410   46.0150 C   0  0  0  0  0  0  0  0  0  0  0  0
   59.4220   29.9730   45.6850 C   0  0  0  0  0  0  0  0  0  0  0  0
   58.4680   29.5020   44.7780 C   0  0  0  0  0  0  0  0  0  0  0  0
   57.5520   30.3860   44.2000 C   0  0  0  0  0  0  0  0  0  0  0  0
   56.2470   29.7380   42.9660 Br  0  0  0  0  0  0  0  0  0  0  0  0
   57.5910   31.7430   44.5310 C   0  0  0  0  0  0  0  0  0  0  0  0
   58.5440   32.2180   45.4370 C   0  0  0  0  0  0  0  0  0  0  0  0
   62.1357   29.2492   50.7696 H   0  0  0  0  0  0  0  0  0  0  0  0
   60.8999   29.6781   49.5385 H   0  0  0  0  0  0  0  0  0  0  0  0
   62.4933   30.5074   49.5385 H   0  0  0  0  0  0  0  0  0  0  0  0
   60.0509   31.1238   51.0482 H   0  0  0  0  0  0  0  0  0  0  0  0
   61.5135   30.9153   52.1221 H   0  0  0  0  0  0  0  0  0  0  0  0
   61.0870   32.8160   49.9210 H   0  0  0  0  0  0  0  0  0  0  0  0
   62.1784   33.5799   52.5111 H   0  0  0  0  0  0  0  0  0  0  0  0
   61.0930   34.4641   51.3203 H   0  0  0  0  0  0  0  0  0  0  0  0
   60.3324   33.2697   53.7574 H   0  0  0  0  0  0  0  0  0  0  0  0
   59.2747   33.9267   52.4627 H   0  0  0  0  0  0  0  0  0  0  0  0
   59.7189   32.1862   52.4627 H   0  0  0  0  0  0  0  0  0  0  0  0
   63.6528   32.5381   51.3223 H   0  0  0  0  0  0  0  0  0  0  0  0
   63.2169   31.5252   49.8674 H   0  0  0  0  0  0  0  0  0  0  0  0
   63.7700   34.4861   50.0557 H   0  0  0  0  0  0  0  0  0  0  0  0
   64.3185   33.2712   48.8428 H   0  0  0  0  0  0  0  0  0  0  0  0
   61.0334   33.3314   45.5507 H   0  0  0  0  0  0  0  0  0  0  0  0
   59.9246   36.5079   47.0903 H   0  0  0  0  0  0  0  0  0  0  0  0
   60.8439   35.7761   45.7315 H   0  0  0  0  0  0  0  0  0  0  0  0
   59.0483   35.7253   45.7315 H   0  0  0  0  0  0  0  0  0  0  0  0
   61.3555   31.2151   47.0201 H   0  0  0  0  0  0  0  0  0  0  0  0
   60.1325   29.2700   46.1443 H   0  0  0  0  0  0  0  0  0  0  0  0
   58.4380   28.4335   44.5186 H   0  0  0  0  0  0  0  0  0  0  0  0
   56.8701   32.4393   44.0776 H   0  0  0  0  0  0  0  0  0  0  0  0
   58.5621   33.2859   45.7000 H   0  0  0  0  0  0  0  0  0  0  0  0
  1  2  1  0
  2  3  1  0
  3  4  1  0
  4  5  1  0
  3  6  1  0
  6  7  1  0
  7  8  1  0
  8  9  1  0
  9 10  2  0
  9 11  1  0
 11 12  1  0
 12 13  1  0
 12 14  2  0
 14 15  1  0
 15 16  2  0
 15 17  1  0
 17 18  1  0
 18 19  1  0
 19 20  2  0
 20 21  1  0
 21 22  2  0
 22 23  1  0
 22 24  1  0
 24 25  2  0
 18 11  1  0
 25 19  1  0
  1 26  1  0
  1 27  1  0
  1 28  1  0
  2 29  1  0
  2 30  1  0
  3 31  1  0
  4 32  1  0
  4 33  1  0
  5 34  1  0
  5 35  1  0
  5 36  1  0
  6 37  1  0
  6 38  1  0
  7 39  1  0
  7 40  1  0
 11 41  1  6
 13 42  1  0
 13 43  1  0
 13 44  1  0
 18 45  1  1
 20 46  1  0
 21 47  1  0
 24 48  1  0
 25 49  1  0
M  CHG  2   3   1  17  -1
M  END
>  <UniqueID>  (35) 
32

>  <SMILES>  (35) 
CC[NH+](CC)CCOC(=O)[C@@H]1C(C)=NC(=O)[N-][C@H]1c1ccc(Br)cc1

>  <Energy>  (35) 
48.70988784848216

>  <Genealogy>  (35) 
CC[NH+](CC)CCOC(=O)C1C(C)=NC(=O)[N-]C1c1ccc(Br)cc1 (protonated)
CC[NH+](CC)CCOC(=O)[C@@H]1C(C)=NC(=O)[N-][C@H]1c1ccc(Br)cc1 (chirality)
CC[NH+](CC)CCOC(=O)[C@@H]1C(C)=NC(=O)[N-][C@H]1c1ccc(Br)cc1 (3D coordinates assigned)
CC[NH+](CC)CCOC(=O)[C@@H]1C(C)=NC(=O)[N-][C@H]1c1ccc(Br)cc1 (nonaromatic ring conformer: 48.70988784848216 kcal/mol)

>  <smiles>  (35) 
CCN(CC)CCOC(=O)C1C(C)=NC(=O)NC1c1ccc(Br)cc1

>  <score_type>  (35) 
oracle

>  <origin>  (35) 
adg

>  <m_score__min__energy>  (35) 
-6.0899999999999999

>  <m_primary>  (35) 
energy

$$$$
35:0
     RDKit          3D

 31 32  0  0  0  0  0  0  0  0999 V2000
   60.1460   26.3750   46.4500 C   0  0  0  0  0  0  0  0  0  0  0  0
   58.8750   25.7890   46.7160 O   0  0  0  0  0  0  0  0  0  0  0  0
   58.2540   24.8190   45.9110 C   0  0  0  0  0  0  0  0  0  0  0  0
   58.9010   23.6060   45.6040 C   0  0  0  0  0  0  0  0  0  0  0  0
   58.2780   22.6480   44.8060 C   0  0  0  0  0  0  0  0  0  0  0  0
   56.9960   22.8720   44.2910 C   0  0  0  0  0  0  0  0  0  0  0  0
   56.3600   21.8780   43.4660 N   0  0  0  0  0  0  0  0  0  0  0  0
   56.2520   20.6960   43.8600 O   0  0  0  0  0  0  0  0  0  0  0  0
   55.8590   22.2110   42.2290 O   0  0  0  0  0  0  0  0  0  0  0  0
   56.3440   24.0800   44.5920 C   0  0  0  0  0  0  0  0  0  0  0  0
   56.9560   25.0620   45.3970 C   0  0  0  0  0  0  0  0  0  0  0  0
   56.2240   26.3270   45.6850 C   0  0  0  0  0  0  0  0  0  0  0  0
   55.1360   26.3090   46.3220 O   0  0  0  0  0  0  0  0  0  0  0  0
   56.7530   27.5820   45.2390 N   0  0  0  0  0  0  0  0  0  0  0  0
   57.5700   28.4560   46.0720 C   0  0  0  0  0  0  0  0  0  0  0  0
   57.6330   29.8260   45.4780 C   0  0  0  0  0  0  0  0  0  0  0  0
   58.7210   30.6740   45.5180 C   0  0  0  0  0  0  0  0  0  0  0  0
   58.3180   31.8230   44.8730 C   0  0  0  0  0  0  0  0  0  0  0  0
   57.0110   31.6070   44.4840 C   0  0  0  0  0  0  0  0  0  0  0  0
   56.6300   30.4080   44.8610 O   0  0  0  0  0  0  0  0  0  0  0  0
   60.6490   26.6069   47.4004 H   0  0  0  0  0  0  0  0  0  0  0  0
   60.7613   25.6697   45.8721 H   0  0  0  0  0  0  0  0  0  0  0  0
   60.0092   27.3009   45.8721 H   0  0  0  0  0  0  0  0  0  0  0  0
   59.9094   23.4126   45.9986 H   0  0  0  0  0  0  0  0  0  0  0  0
   58.7992   21.7064   44.5787 H   0  0  0  0  0  0  0  0  0  0  0  0
   55.3360   24.2629   44.1914 H   0  0  0  0  0  0  0  0  0  0  0  0
   57.1283   28.5162   47.0776 H   0  0  0  0  0  0  0  0  0  0  0  0
   58.5883   28.0444   46.1325 H   0  0  0  0  0  0  0  0  0  0  0  0
   59.7038   30.4745   45.9700 H   0  0  0  0  0  0  0  0  0  0  0  0
   58.9170   32.7297   44.7024 H   0  0  0  0  0  0  0  0  0  0  0  0
   56.3840   32.3294   43.9408 H   0  0  0  0  0  0  0  0  0  0  0  0
  1  2  1  0
  2  3  1  0
  3  4  2  0
  4  5  1  0
  5  6  2  0
  6  7  1  0
  7  8  2  0
  7  9  1  0
  6 10  1  0
 10 11  2  0
 11 12  1  0
 12 13  2  0
 12 14  1  0
 14 15  1  0
 15 16  1  0
 16 17  2  0
 17 18  1  0
 18 19  2  0
 19 20  1  0
 11  3  1  0
 20 16  1  0
  1 21  1  0
  1 22  1  0
  1 23  1  0
  4 24  1  0
  5 25  1  0
 10 26  1  0
 15 27  1  0
 15 28  1  0
 17 29  1  0
 18 30  1  0
 19 31  1  0
M  CHG  3   7   1   9  -1  14  -1
M  END
>  <UniqueID>  (36) 
33

>  <SMILES>  (36) 
COc1ccc([N+](=O)[O-])cc1C(=O)[N-]Cc1ccco1

>  <Energy>  (36) 
57.73695463385388

>  <Genealogy>  (36) 
COc1ccc([N+](=O)[O-])cc1C(=O)[N-]Cc1ccco1 (protonated)
COc1ccc([N+](=O)[O-])cc1C(=O)[N-]Cc1ccco1 (3D coordinates assigned)
COc1ccc([N+](=O)[O-])cc1C(=O)[N-]Cc1ccco1 (optimized conformer: 57.73695463385388 kcal/mol)

>  <smiles>  (36) 
COc1ccc([N+](=O)[O-])cc1C(=O)NCc1ccco1

>  <score_type>  (36) 
oracle

>  <origin>  (36) 
adg

>  <m_score__min__energy>  (36) 
-9

>  <m_primary>  (36) 
energy

$$$$
36:0
     RDKit          3D

 42 45  0  0  0  0  0  0  0  0999 V2000
   55.0890   24.5030   45.4310 C   0  0  0  0  0  0  0  0  0  0  0  0
   55.1900   25.7790   46.0550 O   0  0  0  0  0  0  0  0  0  0  0  0
   56.3910   26.4850   46.2230 C   0  0  0  0  0  0  0  0  0  0  0  0
   56.6470   27.7070   45.5730 C   0  0  0  0  0  0  0  0  0  0  0  0
   57.8590   28.3740   45.7750 C   0  0  0  0  0  0  0  0  0  0  0  0
   58.8280   27.8370   46.6420 C   0  0  0  0  0  0  0  0  0  0  0  0
   60.0940   28.4760   46.8610 N   0  0  0  0  0  0  0  0  0  0  0  0
   60.6550   29.5520   46.0960 C   0  0  0  0  0  0  0  0  0  0  0  0
   61.1500   29.3370   44.9570 O   0  0  0  0  0  0  0  0  0  0  0  0
   60.6710   30.9240   46.6480 C   0  0  0  0  0  0  0  0  0  0  0  0
   61.7350   31.2780   47.4890 C   0  0  0  0  0  0  0  0  0  0  0  0
   61.7690   32.5350   48.1040 C   0  0  0  0  0  0  0  0  0  0  0  0
   62.9000   32.8750   49.0010 C   0  0  0  0  0  0  0  0  0  0  0  0
   64.1560   32.2880   49.0240 C   0  0  0  0  0  0  0  0  0  0  0  0
   64.8550   32.9340   50.0200 C   0  0  0  0  0  0  0  0  0  0  0  0
   63.9940   33.8730   50.5450 C   0  0  0  0  0  0  0  0  0  0  0  0
   62.8410   33.8140   49.9210 O   0  0  0  0  0  0  0  0  0  0  0  0
   60.7570   33.4230   47.8780 N   0  0  0  0  0  0  0  0  0  0  0  0
   59.7160   33.1310   47.0450 C   0  0  0  0  0  0  0  0  0  0  0  0
   58.7110   34.0870   46.8210 C   0  0  0  0  0  0  0  0  0  0  0  0
   57.6610   33.8170   45.9440 C   0  0  0  0  0  0  0  0  0  0  0  0
   57.6100   32.5960   45.2710 C   0  0  0  0  0  0  0  0  0  0  0  0
   58.5970   31.6320   45.4840 C   0  0  0  0  0  0  0  0  0  0  0  0
   59.6520   31.8730   46.3920 C   0  0  0  0  0  0  0  0  0  0  0  0
   58.5800   26.6100   47.2670 C   0  0  0  0  0  0  0  0  0  0  0  0
   57.3670   25.9440   47.0670 C   0  0  0  0  0  0  0  0  0  0  0  0
   55.0271   23.7214   46.2025 H   0  0  0  0  0  0  0  0  0  0  0  0
   54.1856   24.4718   44.8042 H   0  0  0  0  0  0  0  0  0  0  0  0
   55.9763   24.3301   44.8042 H   0  0  0  0  0  0  0  0  0  0  0  0
   55.8896   28.1394   44.9027 H   0  0  0  0  0  0  0  0  0  0  0  0
   58.0557   29.3225   45.2539 H   0  0  0  0  0  0  0  0  0  0  0  0
   62.5505   30.5617   47.6673 H   0  0  0  0  0  0  0  0  0  0  0  0
   64.5195   31.4740   48.3796 H   0  0  0  0  0  0  0  0  0  0  0  0
   65.8914   32.7394   50.3330 H   0  0  0  0  0  0  0  0  0  0  0  0
   64.2364   34.5670   51.3633 H   0  0  0  0  0  0  0  0  0  0  0  0
   60.7770   34.3570   48.3430 H   0  0  0  0  0  0  0  0  0  0  0  0
   58.7528   35.0553   47.3412 H   0  0  0  0  0  0  0  0  0  0  0  0
   56.8726   34.5670   45.7828 H   0  0  0  0  0  0  0  0  0  0  0  0
   56.7880   32.3919   44.5691 H   0  0  0  0  0  0  0  0  0  0  0  0
   58.5528   30.6768   44.9403 H   0  0  0  0  0  0  0  0  0  0  0  0
   59.3452   26.1659   47.9207 H   0  0  0  0  0  0  0  0  0  0  0  0
   57.1786   24.9877   47.5769 H   0  0  0  0  0  0  0  0  0  0  0  0
  1  2  1  0
  2  3  1  0
  3  4  2  0
  4  5  1  0
  5  6  2  0
  6  7  1  0
  7  8  1  0
  8  9  2  0
  8 10  1  0
 10 11  2  0
 11 12  1  0
 12 13  1  0
 13 14  2  0
 14 15  1  0
 15 16  2  0
 16 17  1  0
 12 18  2  0
 18 19  1  0
 19 20  2  0
 20 21  1  0
 21 22  2  0
 22 23  1  0
 23 24  2  0
  6 25  1  0
 25 26  2  0
 26  3  1  0
 24 10  1  0
 17 13  1  0
 24 19  1  0
  1 27  1  0
  1 28  1  0
  1 29  1  0
  4 30  1  0
  5 31  1  0
 11 32  1  0
 14 33  1  0
 15 34  1  0
 16 35  1  0
 18 36  1  0
 20 37  1  0
 21 38  1  0
 22 39  1  0
 23 40  1  0
 25 41  1  0
 26 42  1  0
M  CHG  2   7  -1  18   1
M  END
>  <UniqueID>  (37) 
34

>  <SMILES>  (37) 
COc1ccc([N-]C(=O)c2cc(-c3ccco3)[nH+]c3ccccc23)cc1

>  <Energy>  (37) 
87.06190960107116

>  <Genealogy>  (37) 
COc1ccc([N-]C(=O)c2cc(-c3ccco3)[nH+]c3ccccc23)cc1 (protonated)
COc1ccc([N-]C(=O)c2cc(-c3ccco3)[nH+]c3ccccc23)cc1 (3D coordinates assigned)
COc1ccc([N-]C(=O)c2cc(-c3ccco3)[nH+]c3ccccc23)cc1 (optimized conformer: 87.06190960107116 kcal/mol)

>  <smiles>  (37) 
COc1ccc(NC(=O)c2cc(-c3ccco3)nc3ccccc23)cc1

>  <score_type>  (37) 
oracle

>  <origin>  (37) 
adg

>  <m_score__min__energy>  (37) 
-7.3600000000000003

>  <m_primary>  (37) 
energy

$$$$
37:0
     RDKit          3D

 60 65  0  0  0  0  0  0  0  0999 V2000
   57.3900   32.3760   40.8260 C   0  0  0  0  0  0  0  0  0  0  0  0
   57.4970   32.3360   42.1590 C   0  0  0  0  0  0  0  0  0  0  0  0
   57.1010   31.1060   42.9300 C   0  0  0  0  0  0  0  0  0  0  0  0
   57.8840   31.0010   44.1700 N   0  0  0  0  0  0  0  0  0  0  0  0
   58.1370   32.2110   44.9180 C   0  0  0  0  0  0  0  0  0  0  0  0
   58.9560   32.1800   45.9640 C   0  0  0  0  0  0  0  0  0  0  0  0
   59.4290   33.2790   46.7710 C   0  0  0  0  0  0  0  0  0  0  0  0
   59.0420   34.4740   46.6630 O   0  0  0  0  0  0  0  0  0  0  0  0
   60.5400   32.7930   47.6580 C   0  0  2  0  0  0  0  0  0  0  0  0
   61.8400   33.5540   47.3380 C   0  0  0  0  0  0  0  0  0  0  0  0
   60.6340   31.3410   47.2350 C   0  0  0  0  0  0  0  0  0  0  0  0
   59.6550   30.9910   46.3730 C   0  0  0  0  0  0  0  0  0  0  0  0
   59.2120   29.6820   45.8210 C   0  0  0  0  0  0  0  0  0  0  0  0
   59.4720   28.4440   46.4390 C   0  0  0  0  0  0  0  0  0  0  0  0
   59.0520   27.2540   45.8470 C   0  0  0  0  0  0  0  0  0  0  0  0
   58.3280   27.2810   44.6580 C   0  0  0  0  0  0  0  0  0  0  0  0
   57.7620   25.6450   43.8490 Br  0  0  0  0  0  0  0  0  0  0  0  0
   57.9700   28.5010   44.0840 C   0  0  0  0  0  0  0  0  0  0  0  0
   58.3710   29.7190   44.6740 C   0  0  0  0  0  0  0  0  0  0  0  0
   61.5200   30.4640   48.0550 C   0  0  0  0  0  0  0  0  0  0  0  0
   60.9280   30.4150   49.4640 C   0  0  0  0  0  0  0  0  0  0  0  0
   60.5020   31.7890   49.9860 C   0  0  0  0  0  0  0  0  0  0  0  0
   60.2210   32.8590   49.1600 C   0  0  0  0  0  0  0  0  0  0  0  0
   59.6420   34.1770   49.7220 C   0  0  0  0  0  0  0  0  0  0  0  0
   59.2830   34.1980   51.2370 C   0  0  0  0  0  0  0  0  0  0  0  0
   59.0530   32.7750   51.7690 C   0  0  2  0  0  0  0  0  0  0  0  0
   57.7620   32.1540   51.1700 C   0  0  0  0  0  0  0  0  0  0  0  0
   58.9940   32.6220   53.2520 C   0  0  0  0  0  0  0  0  0  0  0  0
   58.3620   33.3590   53.9920 O   0  0  0  0  0  0  0  0  0  0  0  0
   59.7440   31.4170   53.7280 C   0  0  0  0  0  0  0  0  0  0  0  0
   60.3180   30.8080   52.4390 C   0  0  0  0  0  0  0  0  0  0  0  0
   60.3280   31.9920   51.4670 C   0  0  1  0  0  0  0  0  0  0  0  0
   57.6839   33.2831   40.2776 H   0  0  0  0  0  0  0  0  0  0  0  0
   57.0081   31.5018   40.2784 H   0  0  0  0  0  0  0  0  0  0  0  0
   57.8798   33.2146   42.6989 H   0  0  0  0  0  0  0  0  0  0  0  0
   56.0317   31.1649   43.1811 H   0  0  0  0  0  0  0  0  0  0  0  0
   57.2967   30.2190   42.3096 H   0  0  0  0  0  0  0  0  0  0  0  0
   57.6536   33.1540   44.6228 H   0  0  0  0  0  0  0  0  0  0  0  0
   62.3355   33.8441   48.2763 H   0  0  0  0  0  0  0  0  0  0  0  0
   62.5103   32.9057   46.7546 H   0  0  0  0  0  0  0  0  0  0  0  0
   61.6028   34.4559   46.7546 H   0  0  0  0  0  0  0  0  0  0  0  0
   60.0113   28.4156   47.3973 H   0  0  0  0  0  0  0  0  0  0  0  0
   59.2932   26.2909   46.3205 H   0  0  0  0  0  0  0  0  0  0  0  0
   57.3693   28.5139   43.1626 H   0  0  0  0  0  0  0  0  0  0  0  0
   61.5522   29.4524   47.6242 H   0  0  0  0  0  0  0  0  0  0  0  0
   62.5472   30.8569   48.0762 H   0  0  0  0  0  0  0  0  0  0  0  0
   60.0464   29.7573   49.4503 H   0  0  0  0  0  0  0  0  0  0  0  0
   61.7133   30.0386   50.1361 H   0  0  0  0  0  0  0  0  0  0  0  0
   60.3850   34.9686   49.5453 H   0  0  0  0  0  0  0  0  0  0  0  0
   58.6849   34.3168   49.1981 H   0  0  0  0  0  0  0  0  0  0  0  0
   60.1092   34.6617   51.7959 H   0  0  0  0  0  0  0  0  0  0  0  0
   58.3560   34.7753   51.3692 H   0  0  0  0  0  0  0  0  0  0  0  0
   57.0966   31.8339   51.9854 H   0  0  0  0  0  0  0  0  0  0  0  0
   57.2481   32.9034   50.5501 H   0  0  0  0  0  0  0  0  0  0  0  0
   58.0267   31.2847   50.5501 H   0  0  0  0  0  0  0  0  0  0  0  0
   60.5507   31.7051   54.4181 H   0  0  0  0  0  0  0  0  0  0  0  0
   59.1077   30.7127   54.2840 H   0  0  0  0  0  0  0  0  0  0  0  0
   61.3356   30.4239   52.6033 H   0  0  0  0  0  0  0  0  0  0  0  0
   59.7350   29.9515   52.0696 H   0  0  0  0  0  0  0  0  0  0  0  0
   61.2785   32.5088   51.6656 H   0  0  0  0  0  0  0  0  0  0  0  0
  1  2  2  0
  2  3  1  0
  3  4  1  0
  4  5  1  0
  5  6  2  0
  6  7  1  0
  7  8  2  0
  7  9  1  0
  9 10  1  1
  9 11  1  0
 11 12  2  0
 12 13  1  0
 13 14  2  0
 14 15  1  0
 15 16  2  0
 16 17  1  0
 16 18  1  0
 18 19  2  0
 11 20  1  0
 20 21  1  0
 21 22  1  0
 22 23  2  0
 23 24  1  0
 24 25  1  0
 25 26  1  0
 26 27  1  6
 26 28  1  0
 28 29  2  0
 28 30  1  0
 30 31  1  0
 31 32  1  0
 19  4  1  0
 32 22  1  0
 12  6  1  0
 19 13  1  0
 32 26  1  0
 23  9  1  0
  1 33  1  0
  1 34  1  0
  2 35  1  0
  3 36  1  0
  3 37  1  0
  5 38  1  0
 10 39  1  0
 10 40  1  0
 10 41  1  0
 14 42  1  0
 15 43  1  0
 18 44  1  0
 20 45  1  0
 20 46  1  0
 21 47  1  0
 21 48  1  0
 24 49  1  0
 24 50  1  0
 25 51  1  0
 25 52  1  0
 27 53  1  0
 27 54  1  0
 27 55  1  0
 30 56  1  0
 30 57  1  0
 31 58  1  0
 31 59  1  0
 32 60  1  1
M  END
>  <UniqueID>  (38) 
35

>  <SMILES>  (38) 
C=CCN1C=C2C(=O)[C@]3(C)C(=C2c2ccc(Br)cc21)CCC1=C3CC[C@]2(C)C(=O)CCC12

>  <Energy>  (38) 
116.38615733601912

>  <Genealogy>  (38) 
C=CCN1C=C2C(=O)[C@]3(C)C(=C2c2ccc(Br)cc21)CCC1=C3CC[C@]2(C)C(=O)CCC12 (chirality)
C=CCN1C=C2C(=O)[C@]3(C)C(=C2c2ccc(Br)cc21)CCC1=C3CC[C@]2(C)C(=O)CCC12 (3D coordinates assigned)
C=CCN1C=C2C(=O)[C@]3(C)C(=C2c2ccc(Br)cc21)CCC1=C3CC[C@]2(C)C(=O)CCC12 (nonaromatic ring conformer: 116.38615733601912 kcal/mol)

>  <smiles>  (38) 
C=CCN1C=C2C(=O)C3(C)C(=C2c2ccc(Br)cc21)CCC1=C3CCC2(C)C(=O)CCC12

>  <score_type>  (38) 
oracle

>  <origin>  (38) 
adg

>  <m_score__min__energy>  (38) 
-9.9000000000000004

>  <m_primary>  (38) 
energy

$$$$
38:0
     RDKit          3D

 41 43  0  0  0  0  0  0  0  0999 V2000
   61.4100   33.2600   49.9390 C   0  0  0  0  0  0  0  0  0  0  0  0
   61.0350   32.1920   48.9540 C   0  0  0  0  0  0  0  0  0  0  0  0
   59.9120   31.3860   49.1900 C   0  0  0  0  0  0  0  0  0  0  0  0
   59.5320   30.4170   48.2570 C   0  0  0  0  0  0  0  0  0  0  0  0
   60.2710   30.2450   47.0800 C   0  0  0  0  0  0  0  0  0  0  0  0
   59.7610   29.0130   45.8760 S   0  0  0  0  0  0  0  0  0  0  0  0
   58.1320   28.6410   46.6280 C   0  0  0  0  0  0  0  0  0  0  0  0
   57.1440   28.0400   45.6260 C   0  0  0  0  0  0  0  0  0  0  0  0
   56.1870   29.0560   45.2080 N   0  0  0  0  0  0  0  0  0  0  0  0
   56.3950   29.9360   44.1000 C   0  0  0  0  0  0  0  0  0  0  0  0
   55.9320   29.6350   42.9650 O   0  0  0  0  0  0  0  0  0  0  0  0
   57.1730   31.1810   44.2850 C   0  0  0  0  0  0  0  0  0  0  0  0
   57.7070   31.8620   43.1770 C   0  0  0  0  0  0  0  0  0  0  0  0
   58.4670   33.0220   43.3520 C   0  0  0  0  0  0  0  0  0  0  0  0
   58.7020   33.5250   44.6380 C   0  0  0  0  0  0  0  0  0  0  0  0
   59.4710   34.6840   44.8250 C   0  0  0  0  0  0  0  0  0  0  0  0
   59.7010   35.1740   46.1150 C   0  0  0  0  0  0  0  0  0  0  0  0
   59.1640   34.5140   47.2230 C   0  0  0  0  0  0  0  0  0  0  0  0
   58.3930   33.3600   47.0500 C   0  0  0  0  0  0  0  0  0  0  0  0
   58.1600   32.8560   45.7610 C   0  0  0  0  0  0  0  0  0  0  0  0
   57.4020   31.6920   45.5770 C   0  0  0  0  0  0  0  0  0  0  0  0
   61.3800   31.0610   46.8310 C   0  0  0  0  0  0  0  0  0  0  0  0
   61.7620   32.0320   47.7630 C   0  0  0  0  0  0  0  0  0  0  0  0
   61.2761   32.8786   50.9620 H   0  0  0  0  0  0  0  0  0  0  0  0
   62.4618   33.5446   49.7885 H   0  0  0  0  0  0  0  0  0  0  0  0
   60.7670   34.1397   49.7885 H   0  0  0  0  0  0  0  0  0  0  0  0
   59.3279   31.5168   50.1129 H   0  0  0  0  0  0  0  0  0  0  0  0
   58.6501   29.7879   48.4478 H   0  0  0  0  0  0  0  0  0  0  0  0
   58.2789   27.9252   47.4503 H   0  0  0  0  0  0  0  0  0  0  0  0
   57.7065   29.5898   46.9867 H   0  0  0  0  0  0  0  0  0  0  0  0
   57.6935   27.6720   44.7470 H   0  0  0  0  0  0  0  0  0  0  0  0
   56.6055   27.2069   46.1014 H   0  0  0  0  0  0  0  0  0  0  0  0
   57.5249   31.4782   42.1623 H   0  0  0  0  0  0  0  0  0  0  0  0
   58.8823   33.5420   42.4762 H   0  0  0  0  0  0  0  0  0  0  0  0
   59.8938   35.2083   43.9553 H   0  0  0  0  0  0  0  0  0  0  0  0
   60.3063   36.0814   46.2573 H   0  0  0  0  0  0  0  0  0  0  0  0
   59.3482   34.9033   48.2352 H   0  0  0  0  0  0  0  0  0  0  0  0
   57.9686   32.8467   47.9254 H   0  0  0  0  0  0  0  0  0  0  0  0
   56.9816   31.1722   46.4505 H   0  0  0  0  0  0  0  0  0  0  0  0
   61.9530   30.9388   45.9000 H   0  0  0  0  0  0  0  0  0  0  0  0
   62.6340   32.6718   47.5625 H   0  0  0  0  0  0  0  0  0  0  0  0
  1  2  1  0
  2  3  2  0
  3  4  1  0
  4  5  2  0
  5  6  1  0
  6  7  1  0
  7  8  1  0
  8  9  1  0
  9 10  1  0
 10 11  2  0
 10 12  1  0
 12 13  2  0
 13 14  1  0
 14 15  2  0
 15 16  1  0
 16 17  2  0
 17 18  1  0
 18 19  2  0
 19 20  1  0
 20 21  2  0
  5 22  1  0
 22 23  2  0
 23  2  1  0
 21 12  1  0
 20 15  1  0
  1 24  1  0
  1 25  1  0
  1 26  1  0
  3 27  1  0
  4 28  1  0
  7 29  1  0
  7 30  1  0
  8 31  1  0
  8 32  1  0
 13 33  1  0
 14 34  1  0
 16 35  1  0
 17 36  1  0
 18 37  1  0
 19 38  1  0
 21 39  1  0
 22 40  1  0
 23 41  1  0
M  CHG  1   9  -1
M  END
>  <UniqueID>  (39) 
36

>  <SMILES>  (39) 
Cc1ccc(SCC[N-]C(=O)c2ccc3ccccc3c2)cc1

>  <Energy>  (39) 
35.01434763279211

>  <Genealogy>  (39) 
Cc1ccc(SCC[N-]C(=O)c2ccc3ccccc3c2)cc1 (protonated)
Cc1ccc(SCC[N-]C(=O)c2ccc3ccccc3c2)cc1 (3D coordinates assigned)
Cc1ccc(SCC[N-]C(=O)c2ccc3ccccc3c2)cc1 (optimized conformer: 35.01434763279211 kcal/mol)

>  <smiles>  (39) 
Cc1ccc(SCCNC(=O)c2ccc3ccccc3c2)cc1

>  <score_type>  (39) 
oracle

>  <origin>  (39) 
adg

>  <m_score__min__energy>  (39) 
-9.4800000000000004

>  <m_primary>  (39) 
energy

$$$$
39:0
     RDKit          3D

 33 35  0  0  0  0  0  0  0  0999 V2000
   55.2360   29.4070   44.8290 N   0  0  0  0  0  0  0  0  0  0  0  0
   56.5820   29.5390   44.2850 C   0  0  0  0  0  0  0  0  0  0  0  0
   57.2890   30.6860   44.9460 C   0  0  0  0  0  0  0  0  0  0  0  0
   56.6590   31.8610   45.2080 N   0  0  0  0  0  0  0  0  0  0  0  0
   57.6450   32.6240   45.7120 C   0  0  0  0  0  0  0  0  0  0  0  0
   57.5690   33.9430   46.1440 C   0  0  0  0  0  0  0  0  0  0  0  0
   58.7110   34.5380   46.6020 N   0  0  0  0  0  0  0  0  0  0  0  0
   59.9090   33.8700   46.6370 C   0  0  0  0  0  0  0  0  0  0  0  0
   59.9980   32.5370   46.1990 C   0  0  0  0  0  0  0  0  0  0  0  0
   58.8210   31.9410   45.7400 C   0  0  0  0  0  0  0  0  0  0  0  0
   58.6170   30.7010   45.2580 N   0  0  0  0  0  0  0  0  0  0  0  0
   59.6100   29.6410   45.0500 C   0  0  0  0  0  0  0  0  0  0  0  0
   59.7650   28.8110   46.2960 C   0  0  0  0  0  0  0  0  0  0  0  0
   60.1790   27.4710   46.2060 C   0  0  0  0  0  0  0  0  0  0  0  0
   60.3130   26.6950   47.3600 C   0  0  0  0  0  0  0  0  0  0  0  0
   60.0380   27.2490   48.6130 C   0  0  0  0  0  0  0  0  0  0  0  0
   59.6310   28.5830   48.7130 C   0  0  0  0  0  0  0  0  0  0  0  0
   59.4970   29.3630   47.5600 C   0  0  0  0  0  0  0  0  0  0  0  0
   55.1310   30.0870   45.6180 H   0  0  0  0  0  0  0  0  0  0  0  0
   55.1520   28.4510   45.2450 H   0  0  0  0  0  0  0  0  0  0  0  0
   57.1424   28.6104   44.4685 H   0  0  0  0  0  0  0  0  0  0  0  0
   56.5189   29.7271   43.2030 H   0  0  0  0  0  0  0  0  0  0  0  0
   56.6164   34.4925   46.1180 H   0  0  0  0  0  0  0  0  0  0  0  0
   58.6710   35.5300   46.9300 H   0  0  0  0  0  0  0  0  0  0  0  0
   60.8078   34.3820   47.0111 H   0  0  0  0  0  0  0  0  0  0  0  0
   60.9512   31.9883   46.2169 H   0  0  0  0  0  0  0  0  0  0  0  0
   59.2812   28.9944   44.2231 H   0  0  0  0  0  0  0  0  0  0  0  0
   60.5783   30.1035   44.8083 H   0  0  0  0  0  0  0  0  0  0  0  0
   60.3986   27.0310   45.2221 H   0  0  0  0  0  0  0  0  0  0  0  0
   60.6355   25.6462   47.2821 H   0  0  0  0  0  0  0  0  0  0  0  0
   60.1417   26.6359   49.5204 H   0  0  0  0  0  0  0  0  0  0  0  0
   59.4160   29.0194   49.6996 H   0  0  0  0  0  0  0  0  0  0  0  0
   59.1804   30.4132   47.6430 H   0  0  0  0  0  0  0  0  0  0  0  0
  1  2  1  0
  2  3  1  0
  3  4  2  0
  4  5  1  0
  5  6  2  0
  6  7  1  0
  7  8  2  0
  8  9  1  0
  9 10  2  0
 10 11  1  0
 11 12  1  0
 12 13  1  0
 13 14  2  0
 14 15  1  0
 15 16  2  0
 16 17  1  0
 17 18  2  0
 11  3  1  0
 18 13  1  0
 10  5  1  0
  1 19  1  0
  1 20  1  0
  2 21  1  0
  2 22  1  0
  6 23  1  0
  7 24  1  0
  8 25  1  0
  9 26  1  0
 12 27  1  0
 12 28  1  0
 14 29  1  0
 15 30  1  0
 16 31  1  0
 17 32  1  0
 18 33  1  0
M  CHG  1   7   1
M  END
>  <UniqueID>  (40) 
37

>  <SMILES>  (40) 
NCc1nc2c[nH+]ccc2n1Cc1ccccc1

>  <Energy>  (40) 
69.81177189028546

>  <Genealogy>  (40) 
NCc1nc2c[nH+]ccc2n1Cc1ccccc1 (protonated)
NCc1nc2c[nH+]ccc2n1Cc1ccccc1 (3D coordinates assigned)
NCc1nc2c[nH+]ccc2n1Cc1ccccc1 (optimized conformer: 69.81177189028546 kcal/mol)

>  <smiles>  (40) 
NCc1nc2cnccc2n1Cc1ccccc1

>  <score_type>  (40) 
oracle

>  <origin>  (40) 
adg

>  <m_score__min__energy>  (40) 
-5.3099999999999996

>  <m_primary>  (40) 
energy

$$$$
40:0
     RDKit          3D

 40 42  0  0  0  0  0  0  0  0999 V2000
   58.0685   35.8026   46.8657 H   0  0  0  0  0  0  0  0  0  0  0  0
   58.5360   34.8100   46.7870 C   0  0  0  0  0  0  0  0  0  0  0  0
   59.7570   34.6170   47.2890 C   0  0  0  0  0  0  0  0  0  0  0  0
   60.2769   35.4547   47.7769 H   0  0  0  0  0  0  0  0  0  0  0  0
   60.4310   33.2920   47.2030 C   0  0  0  0  0  0  0  0  0  0  0  0
   61.6360   33.1160   47.6700 N   0  0  0  0  0  0  0  0  0  0  0  0
   62.8490   33.7810   47.2000 C   0  0  0  0  0  0  0  0  0  0  0  0
   62.8097   34.8444   47.4788 H   0  0  0  0  0  0  0  0  0  0  0  0
   62.9102   33.6769   46.1066 H   0  0  0  0  0  0  0  0  0  0  0  0
   64.0990   33.1370   47.8320 C   0  0  0  0  0  0  0  0  0  0  0  0
   64.9614   33.7855   47.6182 H   0  0  0  0  0  0  0  0  0  0  0  0
   64.1843   32.1340   47.3884 H   0  0  0  0  0  0  0  0  0  0  0  0
   64.0290   32.9350   49.2980 N   0  0  0  0  0  0  0  0  0  0  0  0
   65.3270   33.1040   49.9720 C   0  0  0  0  0  0  0  0  0  0  0  0
   65.1795   33.0848   51.0619 H   0  0  0  0  0  0  0  0  0  0  0  0
   66.0016   32.2861   49.6788 H   0  0  0  0  0  0  0  0  0  0  0  0
   65.7697   34.0674   49.6788 H   0  0  0  0  0  0  0  0  0  0  0  0
   63.3860   31.6710   49.6850 C   0  0  0  0  0  0  0  0  0  0  0  0
   63.3494   31.5991   50.7820 H   0  0  0  0  0  0  0  0  0  0  0  0
   62.3632   31.6413   49.2813 H   0  0  0  0  0  0  0  0  0  0  0  0
   63.9642   30.8268   49.2813 H   0  0  0  0  0  0  0  0  0  0  0  0
   59.7070   32.1520   46.5580 C   0  0  0  0  0  0  0  0  0  0  0  0
   58.4210   32.3810   46.0300 C   0  0  0  0  0  0  0  0  0  0  0  0
   57.7350   31.3750   45.4290 N   0  0  0  0  0  0  0  0  0  0  0  0
   58.2320   30.1180   45.3000 C   0  0  0  0  0  0  0  0  0  0  0  0
   57.4710   29.1030   44.6650 C   0  0  0  0  0  0  0  0  0  0  0  0
   56.1610   29.3580   44.1130 N   0  0  0  0  0  0  0  0  0  0  0  0
   55.1440   29.3740   44.8380 O   0  0  0  0  0  0  0  0  0  0  0  0
   56.0160   29.6460   42.7760 O   0  0  0  0  0  0  0  0  0  0  0  0
   58.0130   27.8080   44.5750 C   0  0  0  0  0  0  0  0  0  0  0  0
   57.4315   27.0091   44.0916 H   0  0  0  0  0  0  0  0  0  0  0  0
   59.2770   27.5230   45.0900 C   0  0  0  0  0  0  0  0  0  0  0  0
   59.6843   26.5045   45.0081 H   0  0  0  0  0  0  0  0  0  0  0  0
   60.0270   28.5220   45.7080 C   0  0  0  0  0  0  0  0  0  0  0  0
   61.0250   28.2892   46.1077 H   0  0  0  0  0  0  0  0  0  0  0  0
   59.5140   29.8260   45.8230 C   0  0  0  0  0  0  0  0  0  0  0  0
   60.2510   30.8510   46.4530 C   0  0  0  0  0  0  0  0  0  0  0  0
   61.3940   30.5980   46.9240 O   0  0  0  0  0  0  0  0  0  0  0  0
   57.8070   33.7170   46.1310 C   0  0  0  0  0  0  0  0  0  0  0  0
   56.6580   33.9270   45.6570 O   0  0  0  0  0  0  0  0  0  0  0  0
  1  2  1  0
  2  3  2  0
  3  4  1  0
  3  5  1  0
  5  6  2  0
  6  7  1  0
  7  8  1  0
  7  9  1  0
  7 10  1  0
 10 11  1  0
 10 12  1  0
 10 13  1  0
 13 14  1  0
 14 15  1  0
 14 16  1  0
 14 17  1  0
 13 18  1  0
 18 19  1  0
 18 20  1  0
 18 21  1  0
  5 22  1  0
 22 23  2  0
 23 24  1  0
 24 25  1  0
 25 26  2  0
 26 27  1  0
 27 28  2  0
 27 29  1  0
 26 30  1  0
 30 31  1  0
 30 32  2  0
 32 33  1  0
 32 34  1  0
 34 35  1  0
 34 36  2  0
 36 37  1  0
 37 38  2  0
 23 39  1  0
 39 40  2  0
 39  2  1  0
 37 22  1  0
 36 25  1  0
M  CHG  3  24  -1  27   1  29  -1
M  END
>  <UniqueID>  (41) 
38

>  <SMILES>  (41) 
CN(C)CC/N=C1\C=CC(=O)c2[n-]c3c([N+](=O)[O-])cccc3c(=O)c21

>  <Energy>  (41) 
55.18421456712224

>  <Genealogy>  (41) 
CN(C)CCN=C1C=CC(=O)c2[n-]c3c([N+](=O)[O-])cccc3c(=O)c21 (protonated)
CN(C)CC/N=C1\C=CC(=O)c2[n-]c3c([N+](=O)[O-])cccc3c(=O)c21 (cis-trans isomerization)
CN(C)CC/N=C1\C=CC(=O)c2[n-]c3c([N+](=O)[O-])cccc3c(=O)c21 (3D coordinates assigned)
CN(C)CC/N=C1\C=CC(=O)c2[n-]c3c([N+](=O)[O-])cccc3c(=O)c21 (nonaromatic ring conformer: 55.18421456712224 kcal/mol)

>  <smiles>  (41) 
CN(C)CCN=C1C=CC(=O)c2[nH]c3c([N+](=O)[O-])cccc3c(=O)c21

>  <score_type>  (41) 
oracle

>  <origin>  (41) 
adg

>  <m_score__min__energy>  (41) 
-9.5700000000000003

>  <m_primary>  (41) 
energy

$$$$
41:0
     RDKit          3D

 41 40  0  0  0  0  0  0  0  0999 V2000
   56.6390   23.5010   46.7690 C   0  0  0  0  0  0  0  0  0  0  0  0
   55.9810   24.7160   47.1100 O   0  0  0  0  0  0  0  0  0  0  0  0
   55.9120   25.8030   46.2350 C   0  0  0  0  0  0  0  0  0  0  0  0
   54.8020   26.3370   45.9580 O   0  0  0  0  0  0  0  0  0  0  0  0
   57.1690   26.3530   45.6400 C   0  0  0  0  0  0  0  0  0  0  0  0
   57.3810   27.7500   46.0930 N   0  0  0  0  0  0  0  0  0  0  0  0
   58.3740   27.7850   47.1800 C   0  0  0  0  0  0  0  0  0  0  0  0
   57.8240   28.6350   44.9910 C   0  0  0  0  0  0  0  0  0  0  0  0
   57.9760   30.0920   45.4580 C   0  0  0  0  0  0  0  0  0  0  0  0
   56.9310   30.9520   44.8590 N   0  0  0  0  0  0  0  0  0  0  0  0
   55.9590   30.1290   44.1240 C   0  0  0  0  0  0  0  0  0  0  0  0
   57.5040   32.0060   43.9850 C   0  0  0  0  0  0  0  0  0  0  0  0
   57.4150   33.3590   44.6980 C   0  0  0  0  0  0  0  0  0  0  0  0
   58.4170   33.4430   45.7830 N   0  0  0  0  0  0  0  0  0  0  0  0
   59.2320   34.6590   45.6330 C   0  0  0  0  0  0  0  0  0  0  0  0
   57.7630   33.4540   47.1040 C   0  0  0  0  0  0  0  0  0  0  0  0
   56.9269   22.9695   47.6880 H   0  0  0  0  0  0  0  0  0  0  0  0
   55.9596   22.8695   46.1777 H   0  0  0  0  0  0  0  0  0  0  0  0
   57.5391   23.7249   46.1777 H   0  0  0  0  0  0  0  0  0  0  0  0
   58.0219   25.7348   45.9568 H   0  0  0  0  0  0  0  0  0  0  0  0
   57.0830   26.3401   44.5434 H   0  0  0  0  0  0  0  0  0  0  0  0
   57.8562   27.7668   48.1503 H   0  0  0  0  0  0  0  0  0  0  0  0
   59.0354   26.9096   47.1008 H   0  0  0  0  0  0  0  0  0  0  0  0
   58.9721   28.7048   47.1008 H   0  0  0  0  0  0  0  0  0  0  0  0
   58.7942   28.2780   44.6152 H   0  0  0  0  0  0  0  0  0  0  0  0
   57.0602   28.6063   44.2000 H   0  0  0  0  0  0  0  0  0  0  0  0
   57.8885   30.1296   46.5539 H   0  0  0  0  0  0  0  0  0  0  0  0
   58.9610   30.4621   45.1375 H   0  0  0  0  0  0  0  0  0  0  0  0
   55.3210   29.5888   44.8390 H   0  0  0  0  0  0  0  0  0  0  0  0
   55.3341   30.7767   43.4916 H   0  0  0  0  0  0  0  0  0  0  0  0
   56.4948   29.4058   43.4916 H   0  0  0  0  0  0  0  0  0  0  0  0
   58.5572   31.7726   43.7700 H   0  0  0  0  0  0  0  0  0  0  0  0
   56.9401   32.0490   43.0415 H   0  0  0  0  0  0  0  0  0  0  0  0
   57.6009   34.1635   43.9712 H   0  0  0  0  0  0  0  0  0  0  0  0
   56.4106   33.4645   45.1340 H   0  0  0  0  0  0  0  0  0  0  0  0
   59.4939   35.0498   46.6273 H   0  0  0  0  0  0  0  0  0  0  0  0
   60.1517   34.4181   45.0798 H   0  0  0  0  0  0  0  0  0  0  0  0
   58.6596   35.4181   45.0798 H   0  0  0  0  0  0  0  0  0  0  0  0
   58.5296   33.4411   47.8928 H   0  0  0  0  0  0  0  0  0  0  0  0
   57.1508   34.3626   47.2025 H   0  0  0  0  0  0  0  0  0  0  0  0
   57.1206   32.5665   47.2025 H   0  0  0  0  0  0  0  0  0  0  0  0
  1  2  1  0
  2  3  1  0
  3  4  2  0
  3  5  1  0
  5  6  1  0
  6  7  1  0
  6  8  1  0
  8  9  1  0
  9 10  1  0
 10 11  1  0
 10 12  1  0
 12 13  1  0
 13 14  1  0
 14 15  1  0
 14 16  1  0
  1 17  1  0
  1 18  1  0
  1 19  1  0
  5 20  1  0
  5 21  1  0
  7 22  1  0
  7 23  1  0
  7 24  1  0
  8 25  1  0
  8 26  1  0
  9 27  1  0
  9 28  1  0
 11 29  1  0
 11 30  1  0
 11 31  1  0
 12 32  1  0
 12 33  1  0
 13 34  1  0
 13 35  1  0
 15 36  1  0
 15 37  1  0
 15 38  1  0
 16 39  1  0
 16 40  1  0
 16 41  1  0
M  END
>  <UniqueID>  (42) 
39

>  <SMILES>  (42) 
COC(=O)CN(C)CCN(C)CCN(C)C

>  <Energy>  (42) 
35.41893115310373

>  <Genealogy>  (42) 
COC(=O)CN(C)CCN(C)CCN(C)C (3D coordinates assigned)
COC(=O)CN(C)CCN(C)CCN(C)C (optimized conformer: 35.41893115310373 kcal/mol)

>  <smiles>  (42) 
COC(=O)CN(C)CCN(C)CCN(C)C

>  <score_type>  (42) 
oracle

>  <origin>  (42) 
adg

>  <m_score__min__energy>  (42) 
-5.0999999999999996

>  <m_primary>  (42) 
energy

$$$$
42:0
     RDKit          3D

 38 41  0  0  0  0  0  0  0  0999 V2000
   60.3860   27.8050   45.6110 C   0  0  0  0  0  0  0  0  0  0  0  0
   59.1260   28.2620   44.9400 C   0  0  0  0  0  0  0  0  0  0  0  0
   58.5070   27.4630   43.9690 C   0  0  0  0  0  0  0  0  0  0  0  0
   57.3970   27.9070   43.3220 N   0  0  0  0  0  0  0  0  0  0  0  0
   56.8580   29.1270   43.5870 C   0  0  0  0  0  0  0  0  0  0  0  0
   57.4320   29.9620   44.5510 C   0  0  0  0  0  0  0  0  0  0  0  0
   56.8540   31.2550   44.7820 N   0  0  0  0  0  0  0  0  0  0  0  0
   57.4870   32.5240   44.5720 C   0  0  0  0  0  0  0  0  0  0  0  0
   57.3920   33.1140   43.4620 O   0  0  0  0  0  0  0  0  0  0  0  0
   58.2990   33.1150   45.6430 C   0  0  0  0  0  0  0  0  0  0  0  0
   58.5180   34.4710   45.8580 C   0  0  0  0  0  0  0  0  0  0  0  0
   59.3090   34.7580   46.9260 N   0  0  0  0  0  0  0  0  0  0  0  0
   59.7330   33.6480   47.5730 C   0  0  0  0  0  0  0  0  0  0  0  0
   60.6010   33.6680   48.7780 C   0  0  0  0  0  0  0  0  0  0  0  0
   60.0320   33.8070   50.0690 C   0  0  0  0  0  0  0  0  0  0  0  0
   60.8420   33.8360   51.2220 C   0  0  0  0  0  0  0  0  0  0  0  0
   62.2360   33.7250   51.1170 C   0  0  0  0  0  0  0  0  0  0  0  0
   62.7840   33.5850   49.8470 C   0  0  0  0  0  0  0  0  0  0  0  0
   64.0870   33.4540   49.5460 N   0  0  0  0  0  0  0  0  0  0  0  0
   64.1470   33.3350   48.2020 C   0  0  0  0  0  0  0  0  0  0  0  0
   62.8750   33.3920   47.6470 C   0  0  0  0  0  0  0  0  0  0  0  0
   62.0050   33.5570   48.7140 C   0  0  0  0  0  0  0  0  0  0  0  0
   59.1250   32.2580   46.8310 S   0  0  0  0  0  0  0  0  0  0  0  0
   58.5940   29.5290   45.2110 C   0  0  0  0  0  0  0  0  0  0  0  0
   60.2578   27.8515   46.7025 H   0  0  0  0  0  0  0  0  0  0  0  0
   60.6062   26.7697   45.3115 H   0  0  0  0  0  0  0  0  0  0  0  0
   61.2187   28.4584   45.3115 H   0  0  0  0  0  0  0  0  0  0  0  0
   58.9211   26.4725   43.7295 H   0  0  0  0  0  0  0  0  0  0  0  0
   56.9500   27.2990   42.5990 H   0  0  0  0  0  0  0  0  0  0  0  0
   55.9640   29.4596   43.0392 H   0  0  0  0  0  0  0  0  0  0  0  0
   58.0851   35.2509   45.2143 H   0  0  0  0  0  0  0  0  0  0  0  0
   58.9403   33.8936   50.1725 H   0  0  0  0  0  0  0  0  0  0  0  0
   60.3768   33.9466   52.2126 H   0  0  0  0  0  0  0  0  0  0  0  0
   62.8758   33.7480   52.0115 H   0  0  0  0  0  0  0  0  0  0  0  0
   64.8900   33.4400   50.2120 H   0  0  0  0  0  0  0  0  0  0  0  0
   65.0758   33.2101   47.6260 H   0  0  0  0  0  0  0  0  0  0  0  0
   62.6121   33.3209   46.5812 H   0  0  0  0  0  0  0  0  0  0  0  0
   59.0871   30.1864   45.9422 H   0  0  0  0  0  0  0  0  0  0  0  0
  1  2  1  0
  2  3  2  0
  3  4  1  0
  4  5  2  0
  5  6  1  0
  6  7  1  0
  7  8  1  0
  8  9  2  0
  8 10  1  0
 10 11  2  0
 11 12  1  0
 12 13  2  0
 13 14  1  0
 14 15  2  0
 15 16  1  0
 16 17  2  0
 17 18  1  0
 18 19  1  0
 19 20  1  0
 20 21  2  0
 21 22  1  0
 13 23  1  0
  6 24  2  0
 24  2  1  0
 23 10  1  0
 22 14  1  0
 22 18  2  0
  1 25  1  0
  1 26  1  0
  1 27  1  0
  3 28  1  0
  4 29  1  0
  5 30  1  0
 11 31  1  0
 15 32  1  0
 16 33  1  0
 17 34  1  0
 19 35  1  0
 20 36  1  0
 21 37  1  0
 24 38  1  0
M  CHG  2   4   1   7  -1
M  END
>  <UniqueID>  (43) 
40

>  <SMILES>  (43) 
Cc1c[nH+]cc([N-]C(=O)c2cnc(-c3cccc4[nH]ccc34)s2)c1

>  <Energy>  (43) 
109.24347761666687

>  <Genealogy>  (43) 
Cc1c[nH+]cc([N-]C(=O)c2cnc(-c3cccc4[nH]ccc34)s2)c1 (protonated)
Cc1c[nH+]cc([N-]C(=O)c2cnc(-c3cccc4[nH]ccc34)s2)c1 (3D coordinates assigned)
Cc1c[nH+]cc([N-]C(=O)c2cnc(-c3cccc4[nH]ccc34)s2)c1 (optimized conformer: 109.24347761666687 kcal/mol)

>  <smiles>  (43) 
Cc1cncc(NC(=O)c2cnc(-c3cccc4[nH]ccc34)s2)c1

>  <score_type>  (43) 
oracle

>  <origin>  (43) 
adg

>  <m_score__min__energy>  (43) 
-8.3699999999999992

>  <m_primary>  (43) 
energy

$$$$
43:0
     RDKit          3D

 30 31  0  0  0  0  0  0  0  0999 V2000
   60.1270   33.8220   50.2800 C   0  0  0  0  0  0  0  0  0  0  0  0
   60.7450   33.7650   48.9420 N   0  0  0  0  0  0  0  0  0  0  0  0
   62.1310   34.2520   49.0200 C   0  0  0  0  0  0  0  0  0  0  0  0
   59.9770   34.5770   47.9750 C   0  0  0  0  0  0  0  0  0  0  0  0
   59.2100   33.6900   47.0280 C   0  0  0  0  0  0  0  0  0  0  0  0
   58.4820   34.2420   45.9640 C   0  0  0  0  0  0  0  0  0  0  0  0
   57.7580   33.4160   45.0990 C   0  0  0  0  0  0  0  0  0  0  0  0
   57.7480   32.0190   45.2820 C   0  0  0  0  0  0  0  0  0  0  0  0
   57.0050   31.1510   44.4020 N   0  0  0  0  0  0  0  0  0  0  0  0
   57.2210   30.9380   43.0860 C   0  0  0  0  0  0  0  0  0  0  0  0
   56.2930   30.0290   42.6290 C   0  0  0  0  0  0  0  0  0  0  0  0
   55.5280   29.7210   43.7360 C   0  0  0  0  0  0  0  0  0  0  0  0
   55.9800   30.4110   44.8000 N   0  0  0  0  0  0  0  0  0  0  0  0
   58.4730   31.4750   46.3590 C   0  0  0  0  0  0  0  0  0  0  0  0
   59.1970   32.3030   47.2220 C   0  0  0  0  0  0  0  0  0  0  0  0
   60.9102   33.7498   51.0490 H   0  0  0  0  0  0  0  0  0  0  0  0
   59.5874   34.7737   50.3944 H   0  0  0  0  0  0  0  0  0  0  0  0
   59.4225   32.9850   50.3944 H   0  0  0  0  0  0  0  0  0  0  0  0
   62.4246   34.3551   50.0751 H   0  0  0  0  0  0  0  0  0  0  0  0
   62.8001   33.5351   48.5216 H   0  0  0  0  0  0  0  0  0  0  0  0
   62.2047   35.2299   48.5216 H   0  0  0  0  0  0  0  0  0  0  0  0
   59.2702   35.2181   48.5222 H   0  0  0  0  0  0  0  0  0  0  0  0
   60.6785   35.1934   47.3937 H   0  0  0  0  0  0  0  0  0  0  0  0
   58.4806   35.3310   45.8091 H   0  0  0  0  0  0  0  0  0  0  0  0
   57.1910   33.8608   44.2680 H   0  0  0  0  0  0  0  0  0  0  0  0
   58.0073   31.4118   42.4800 H   0  0  0  0  0  0  0  0  0  0  0  0
   56.1851   29.6353   41.6075 H   0  0  0  0  0  0  0  0  0  0  0  0
   54.6802   29.0202   43.7471 H   0  0  0  0  0  0  0  0  0  0  0  0
   58.4699   30.3873   46.5233 H   0  0  0  0  0  0  0  0  0  0  0  0
   59.7597   31.8626   48.0583 H   0  0  0  0  0  0  0  0  0  0  0  0
  1  2  1  0
  2  3  1  0
  2  4  1  0
  4  5  1  0
  5  6  2  0
  6  7  1  0
  7  8  2  0
  8  9  1  0
  9 10  1  0
 10 11  2  0
 11 12  1  0
 12 13  2  0
  8 14  1  0
 14 15  2  0
 15  5  1  0
 13  9  1  0
  1 16  1  0
  1 17  1  0
  1 18  1  0
  3 19  1  0
  3 20  1  0
  3 21  1  0
  4 22  1  0
  4 23  1  0
  6 24  1  0
  7 25  1  0
 10 26  1  0
 11 27  1  0
 12 28  1  0
 14 29  1  0
 15 30  1  0
M  END
>  <UniqueID>  (44) 
41

>  <SMILES>  (44) 
CN(C)Cc1ccc(-n2cccn2)cc1

>  <Energy>  (44) 
61.57571433810128

>  <Genealogy>  (44) 
CN(C)Cc1ccc(-n2cccn2)cc1 (3D coordinates assigned)
CN(C)Cc1ccc(-n2cccn2)cc1 (optimized conformer: 61.57571433810128 kcal/mol)

>  <smiles>  (44) 
CN(C)Cc1ccc(-n2cccn2)cc1

>  <score_type>  (44) 
oracle

>  <origin>  (44) 
adg

>  <m_score__min__energy>  (44) 
-5.9100000000000001

>  <m_primary>  (44) 
energy

$$$$
44:0
     RDKit          3D

 49 52  0  0  0  0  0  0  0  0999 V2000
   64.6890   30.2580   53.3690 C   0  0  0  0  0  0  0  0  0  0  0  0
   65.7770   31.1080   52.8550 N   0  0  0  0  0  0  0  0  0  0  0  0
   66.8670   31.2300   53.8390 C   0  0  0  0  0  0  0  0  0  0  0  0
   66.2520   30.7180   51.4990 C   0  0  0  0  0  0  0  0  0  0  0  0
   67.0520   31.7800   50.7050 C   0  0  0  0  0  0  0  0  0  0  0  0
   66.4950   33.2040   50.8120 C   0  0  0  0  0  0  0  0  0  0  0  0
   65.1250   33.2470   50.3000 N   0  0  0  0  0  0  0  0  0  0  0  0
   64.9300   33.2940   48.9320 O   0  0  0  0  0  0  0  0  0  0  0  0
   63.6520   33.4010   48.3690 C   0  0  0  0  0  0  0  0  0  0  0  0
   63.5200   33.4230   46.9820 C   0  0  0  0  0  0  0  0  0  0  0  0
   62.2630   33.5380   46.3940 C   0  0  0  0  0  0  0  0  0  0  0  0
   61.1060   33.6380   47.1830 C   0  0  0  0  0  0  0  0  0  0  0  0
   59.8060   33.8060   46.4950 C   0  0  0  0  0  0  0  0  0  0  0  0
   58.7450   32.9270   46.7660 C   0  0  0  0  0  0  0  0  0  0  0  0
   57.5240   33.0710   46.1000 C   0  0  0  0  0  0  0  0  0  0  0  0
   57.3570   34.0870   45.1550 C   0  0  0  0  0  0  0  0  0  0  0  0
   58.4130   34.9570   44.8700 C   0  0  0  0  0  0  0  0  0  0  0  0
   59.6360   34.8160   45.5330 C   0  0  0  0  0  0  0  0  0  0  0  0
   61.2210   33.5950   48.5980 C   0  0  0  0  0  0  0  0  0  0  0  0
   60.0900   33.6360   49.4400 C   0  0  0  0  0  0  0  0  0  0  0  0
   60.2370   33.6000   50.8280 C   0  0  0  0  0  0  0  0  0  0  0  0
   61.5040   33.5120   51.4020 C   0  0  0  0  0  0  0  0  0  0  0  0
   62.6460   33.4490   50.5900 C   0  0  0  0  0  0  0  0  0  0  0  0
   62.5090   33.4840   49.1890 C   0  0  0  0  0  0  0  0  0  0  0  0
   63.9940   33.3410   51.1800 C   0  0  0  0  0  0  0  0  0  0  0  0
   64.1530   33.3320   52.4320 O   0  0  0  0  0  0  0  0  0  0  0  0
   64.7034   30.2692   54.4688 H   0  0  0  0  0  0  0  0  0  0  0  0
   63.7227   30.6428   53.0110 H   0  0  0  0  0  0  0  0  0  0  0  0
   64.8286   29.2273   53.0110 H   0  0  0  0  0  0  0  0  0  0  0  0
   65.3750   32.0710   52.7540 H   0  0  0  0  0  0  0  0  0  0  0  0
   66.4500   31.1833   54.8558 H   0  0  0  0  0  0  0  0  0  0  0  0
   67.5823   30.4063   53.6979 H   0  0  0  0  0  0  0  0  0  0  0  0
   67.3825   32.1914   53.6979 H   0  0  0  0  0  0  0  0  0  0  0  0
   66.8963   29.8339   51.6140 H   0  0  0  0  0  0  0  0  0  0  0  0
   65.3371   30.5498   50.9119 H   0  0  0  0  0  0  0  0  0  0  0  0
   68.0851   31.7856   51.0826 H   0  0  0  0  0  0  0  0  0  0  0  0
   66.9842   31.4956   49.6446 H   0  0  0  0  0  0  0  0  0  0  0  0
   66.4996   33.5184   51.8661 H   0  0  0  0  0  0  0  0  0  0  0  0
   67.1237   33.8825   50.2167 H   0  0  0  0  0  0  0  0  0  0  0  0
   64.4152   33.3490   46.3470 H   0  0  0  0  0  0  0  0  0  0  0  0
   62.1754   33.5506   45.2976 H   0  0  0  0  0  0  0  0  0  0  0  0
   58.8748   32.1224   47.5047 H   0  0  0  0  0  0  0  0  0  0  0  0
   56.6938   32.3837   46.3201 H   0  0  0  0  0  0  0  0  0  0  0  0
   56.3943   34.2020   44.6354 H   0  0  0  0  0  0  0  0  0  0  0  0
   58.2818   35.7538   44.1231 H   0  0  0  0  0  0  0  0  0  0  0  0
   60.4675   35.4977   45.3008 H   0  0  0  0  0  0  0  0  0  0  0  0
   59.0839   33.6968   48.9994 H   0  0  0  0  0  0  0  0  0  0  0  0
   59.3468   33.6414   51.4729 H   0  0  0  0  0  0  0  0  0  0  0  0
   61.6089   33.4919   52.4968 H   0  0  0  0  0  0  0  0  0  0  0  0
  1  2  1  0
  2  3  1  0
  2  4  1  0
  4  5  1  0
  5  6  1  0
  6  7  1  0
  7  8  1  0
  8  9  1  0
  9 10  1  0
 10 11  2  0
 11 12  1  0
 12 13  1  0
 13 14  2  0
 14 15  1  0
 15 16  2  0
 16 17  1  0
 17 18  2  0
 12 19  2  0
 19 20  1  0
 20 21  2  0
 21 22  1  0
 22 23  2  0
 23 24  1  0
 23 25  1  0
 25 26  2  0
 25  7  1  0
 24  9  2  0
 18 13  1  0
 24 19  1  0
  1 27  1  0
  1 28  1  0
  1 29  1  0
  2 30  1  0
  3 31  1  0
  3 32  1  0
  3 33  1  0
  4 34  1  0
  4 35  1  0
  5 36  1  0
  5 37  1  0
  6 38  1  0
  6 39  1  0
 10 40  1  0
 11 41  1  0
 14 42  1  0
 15 43  1  0
 16 44  1  0
 17 45  1  0
 18 46  1  0
 20 47  1  0
 21 48  1  0
 22 49  1  0
M  CHG  1   2   1
M  END
>  <UniqueID>  (45) 
42

>  <SMILES>  (45) 
C[NH+](C)CCCN1Oc2ccc(-c3ccccc3)c3cccc(c23)C1=O

>  <Energy>  (45) 
68.69676523329238

>  <Genealogy>  (45) 
C[NH+](C)CCCN1Oc2ccc(-c3ccccc3)c3cccc(c23)C1=O (protonated)
C[NH+](C)CCCN1Oc2ccc(-c3ccccc3)c3cccc(c23)C1=O (3D coordinates assigned)
C[NH+](C)CCCN1Oc2ccc(-c3ccccc3)c3cccc(c23)C1=O (nonaromatic ring conformer: 68.69676523329238 kcal/mol)

>  <smiles>  (45) 
CN(C)CCCN1Oc2ccc(-c3ccccc3)c3cccc(c23)C1=O

>  <score_type>  (45) 
oracle

>  <origin>  (45) 
adg

>  <m_score__min__energy>  (45) 
-6.9699999999999998

>  <m_primary>  (45) 
energy

$$$$
