0:0
     RDKit          3D

 42 43  0  0  0  0  0  0  0  0999 V2000
   63.2910   33.7970   46.4100 C   0  0  0  0  0  0  0  0  0  0  0  0
   63.3660   33.9640   47.9270 C   0  0  0  0  0  0  0  0  0  0  0  0
   62.6790   32.8460   48.6120 N   0  0  0  0  0  0  0  0  0  0  0  0
   63.6690   32.0050   49.3120 C   0  0  0  0  0  0  0  0  0  0  0  0
   61.6620   33.3530   49.5620 C   0  0  0  0  0  0  0  0  0  0  0  0
   60.2420   33.3100   48.9680 C   0  0  0  0  0  0  0  0  0  0  0  0
   60.1810   32.5850   47.6840 N   0  0  0  0  0  0  0  0  0  0  0  0
   59.3260   33.2580   46.7480 C   0  0  0  0  0  0  0  0  0  0  0  0
   58.3790   32.8610   45.8130 C   0  0  0  0  0  0  0  0  0  0  0  0
   57.8180   31.6060   45.3940 N   0  0  0  0  0  0  0  0  0  0  0  0
   56.6560   31.6060   44.4990 C   0  0  0  0  0  0  0  0  0  0  0  0
   56.2760   30.1770   44.1010 C   0  0  0  0  0  0  0  0  0  0  0  0
   56.2560   29.3130   45.2860 N   0  0  0  0  0  0  0  0  0  0  0  0
   57.5830   29.1810   45.9200 C   0  0  0  0  0  0  0  0  0  0  0  0
   58.5460   30.3580   45.6490 C   0  0  0  0  0  0  0  0  0  0  0  0
   58.1930   34.1850   45.4520 C   0  0  0  0  0  0  0  0  0  0  0  0
   57.4680   34.7900   44.6200 O   0  0  0  0  0  0  0  0  0  0  0  0
   59.1230   34.5770   46.3910 C   0  0  0  0  0  0  0  0  0  0  0  0
   59.5920   35.6830   46.7650 O   0  0  0  0  0  0  0  0  0  0  0  0
   62.8512   32.8177   46.1702 H   0  0  0  0  0  0  0  0  0  0  0  0
   62.6646   34.5945   45.9838 H   0  0  0  0  0  0  0  0  0  0  0  0
   64.3032   33.8586   45.9838 H   0  0  0  0  0  0  0  0  0  0  0  0
   64.4215   33.9828   48.2363 H   0  0  0  0  0  0  0  0  0  0  0  0
   62.8699   34.9060   48.2036 H   0  0  0  0  0  0  0  0  0  0  0  0
   63.5400   32.1145   50.3989 H   0  0  0  0  0  0  0  0  0  0  0  0
   63.5210   30.9523   49.0295 H   0  0  0  0  0  0  0  0  0  0  0  0
   64.6840   32.3213   49.0295 H   0  0  0  0  0  0  0  0  0  0  0  0
   61.6853   32.7334   50.4706 H   0  0  0  0  0  0  0  0  0  0  0  0
   61.9029   34.4022   49.7881 H   0  0  0  0  0  0  0  0  0  0  0  0
   59.5756   32.8097   49.6861 H   0  0  0  0  0  0  0  0  0  0  0  0
   59.9311   34.3478   48.7775 H   0  0  0  0  0  0  0  0  0  0  0  0
   59.8420   31.6040   47.8190 H   0  0  0  0  0  0  0  0  0  0  0  0
   61.1390   32.5390   47.2680 H   0  0  0  0  0  0  0  0  0  0  0  0
   55.8046   32.0755   45.0134 H   0  0  0  0  0  0  0  0  0  0  0  0
   56.9117   32.1691   43.5893 H   0  0  0  0  0  0  0  0  0  0  0  0
   55.2787   30.1814   43.6369 H   0  0  0  0  0  0  0  0  0  0  0  0
   57.0190   29.7922   43.3869 H   0  0  0  0  0  0  0  0  0  0  0  0
   55.5860   29.7190   45.9820 H   0  0  0  0  0  0  0  0  0  0  0  0
   57.4371   29.1006   47.0073 H   0  0  0  0  0  0  0  0  0  0  0  0
   58.0510   28.2881   45.4798 H   0  0  0  0  0  0  0  0  0  0  0  0
   59.1953   30.4967   46.5260 H   0  0  0  0  0  0  0  0  0  0  0  0
   59.1388   30.1174   44.7542 H   0  0  0  0  0  0  0  0  0  0  0  0
  1  2  1  0
  2  3  1  0
  3  4  1  0
  3  5  1  0
  5  6  1  0
  6  7  1  0
  7  8  1  0
  8  9  2  0
  9 10  1  0
 10 11  1  0
 11 12  1  0
 12 13  1  0
 13 14  1  0
 14 15  1  0
  9 16  1  0
 16 17  2  0
 16 18  1  0
 18 19  2  0
 18  8  1  0
 15 10  1  0
  1 20  1  0
  1 21  1  0
  1 22  1  0
  2 23  1  0
  2 24  1  0
  4 25  1  0
  4 26  1  0
  4 27  1  0
  5 28  1  0
  5 29  1  0
  6 30  1  0
  6 31  1  0
  7 32  1  0
  7 33  1  0
 11 34  1  0
 11 35  1  0
 12 36  1  0
 12 37  1  0
 13 38  1  0
 14 39  1  0
 14 40  1  0
 15 41  1  0
 15 42  1  0
M  CHG  1   7   1
M  END
>  <UniqueID>  (1) 
1

>  <SMILES>  (1) 
CCN(C)CC[NH2+]c1c(N2CCNCC2)c(=O)c1=O

>  <Energy>  (1) 
32.1190482297368

>  <Genealogy>  (1) 
CCN(C)CC[NH2+]c1c(N2CCNCC2)c(=O)c1=O (protonated)
CCN(C)CC[NH2+]c1c(N2CCNCC2)c(=O)c1=O (3D coordinates assigned)
CCN(C)CC[NH2+]c1c(N2CCNCC2)c(=O)c1=O (nonaromatic ring conformer: 32.1190482297368 kcal/mol)

>  <smiles>  (1) 
CCN(C)CCNc1c(N2CCNCC2)c(=O)c1=O

>  <score_type>  (1) 
oracle

>  <origin>  (1) 
adg

>  <m_score__min__energy>  (1) 
-4.4699999999999998

>  <m_primary>  (1) 
energy

$$$$
1:0
     RDKit          3D

 28 30  0  0  1  0  0  0  0  0999 V2000
   60.8340   30.4520   46.9060 C   0  0  0  0  0  0  0  0  0  0  0  0
   59.5140   29.9770   46.4110 C   0  0  0  0  0  0  0  0  0  0  0  0
   58.9590   28.7740   46.8020 C   0  0  0  0  0  0  0  0  0  0  0  0
   57.7300   28.3540   46.3290 C   0  0  0  0  0  0  0  0  0  0  0  0
   57.2830   27.2470   46.7270 N   0  0  0  0  0  0  0  0  0  0  0  0
   57.2140   26.0250   46.0610 C   0  0  0  0  0  0  0  0  0  0  0  0
   58.3760   25.2620   45.8620 C   0  0  0  0  0  0  0  0  0  0  0  0
   58.2630   24.0160   45.2390 C   0  0  0  0  0  0  0  0  0  0  0  0
   57.0130   23.5630   44.8320 C   0  0  0  0  0  0  0  0  0  0  0  0
   55.8610   24.2980   45.0190 C   0  0  0  0  0  0  0  0  0  0  0  0
   55.9680   25.5320   45.6350 C   0  0  0  0  0  0  0  0  0  0  0  0
   54.8760   26.3270   45.8600 F   0  0  0  0  0  0  0  0  0  0  0  0
   57.0290   29.0960   45.4720 N   0  0  0  0  0  0  0  0  0  0  0  0
   55.8740   28.9460   44.8820 N   0  0  0  0  0  0  0  0  0  0  0  0
   55.6990   30.0610   44.1120 C   0  0  0  0  0  0  0  0  0  0  0  0
   56.7460   30.8850   44.2360 N   0  0  0  0  0  0  0  0  0  0  0  0
   57.5750   30.2670   45.0950 C   0  0  0  0  0  0  0  0  0  0  0  0
   58.7710   30.7050   45.5380 N   0  0  0  0  0  0  0  0  0  0  0  0
   60.8346   30.4522   48.0060 H   0  0  0  0  0  0  0  0  0  0  0  0
   61.6258   29.7824   46.5390 H   0  0  0  0  0  0  0  0  0  0  0  0
   61.0176   31.4726   46.5390 H   0  0  0  0  0  0  0  0  0  0  0  0
   59.5090   28.1341   47.5077 H   0  0  0  0  0  0  0  0  0  0  0  0
   59.3564   25.6378   46.1902 H   0  0  0  0  0  0  0  0  0  0  0  0
   59.1573   23.3977   45.0717 H   0  0  0  0  0  0  0  0  0  0  0  0
   56.9401   22.5808   44.3421 H   0  0  0  0  0  0  0  0  0  0  0  0
   54.8849   23.9139   44.6877 H   0  0  0  0  0  0  0  0  0  0  0  0
   55.1440   28.2210   44.8840 H   0  0  0  0  0  0  0  0  0  0  0  0
   54.8205   30.2542   43.4788 H   0  0  0  0  0  0  0  0  0  0  0  0
  1  2  1  0
  2  3  2  0
  3  4  1  0
  4  5  2  0
  5  6  1  0
  6  7  2  0
  7  8  1  0
  8  9  2  0
  9 10  1  0
 10 11  2  0
 11 12  1  0
  4 13  1  0
 13 14  1  0
 14 15  1  0
 15 16  2  0
 16 17  1  0
 17 18  2  0
 18  2  1  0
 11  6  1  0
 17 13  1  0
  1 19  1  0
  1 20  1  0
  1 21  1  0
  3 22  1  0
  7 23  1  0
  8 24  1  0
  9 25  1  0
 10 26  1  0
 14 27  1  0
 15 28  1  0
M  END
>  <smiles>  (2) 
Cc1cc(=Nc2ccccc2F)n2[nH]cnc2n1

>  <score_type>  (2) 
oracle

>  <origin>  (2) 
adg

>  <m_score__min__energy>  (2) 
-6.4000000000000004

>  <m_primary>  (2) 
energy

$$$$
2:0
     RDKit          3D

 51 53  0  0  0  0  0  0  0  0999 V2000
   57.1690   32.2160   52.1440 C   0  0  0  0  0  0  0  0  0  0  0  0
   56.6650   30.8710   51.6300 C   0  0  0  0  0  0  0  0  0  0  0  0
   57.7920   29.9990   51.2740 N   0  0  0  0  0  0  0  0  0  0  0  0
   59.0670   30.7280   51.3080 C   0  0  0  0  0  0  0  0  0  0  0  0
   60.1740   29.8710   50.6900 C   0  0  0  0  0  0  0  0  0  0  0  0
   59.6220   28.5910   50.2190 N   0  0  0  0  0  0  0  0  0  0  0  0
   60.3610   28.0440   49.0670 C   0  0  0  0  0  0  0  0  0  0  0  0
   60.0780   28.8220   47.7730 C   0  0  0  0  0  0  0  0  0  0  0  0
   58.8980   29.6680   47.9430 N   0  0  0  0  0  0  0  0  0  0  0  0
   58.6370   30.7610   47.0460 C   0  0  0  0  0  0  0  0  0  0  0  0
   57.9780   30.5350   45.8230 C   0  0  0  0  0  0  0  0  0  0  0  0
   57.6040   29.2320   45.4290 C   0  0  0  0  0  0  0  0  0  0  0  0
   56.9930   29.0080   44.1980 C   0  0  0  0  0  0  0  0  0  0  0  0
   56.7530   30.0710   43.3360 C   0  0  0  0  0  0  0  0  0  0  0  0
   57.0950   31.3700   43.7110 C   0  0  0  0  0  0  0  0  0  0  0  0
   57.6790   31.6370   44.9770 C   0  0  0  0  0  0  0  0  0  0  0  0
   57.9660   32.9260   45.3870 N   0  0  0  0  0  0  0  0  0  0  0  0
   57.3940   34.0800   44.6580 C   0  0  0  0  0  0  0  0  0  0  0  0
   58.7700   33.1360   46.4920 C   0  0  0  0  0  0  0  0  0  0  0  0
   59.3120   34.4130   46.7880 C   0  0  0  0  0  0  0  0  0  0  0  0
   60.0970   34.6170   47.9220 C   0  0  0  0  0  0  0  0  0  0  0  0
   60.3800   33.5590   48.7790 C   0  0  0  0  0  0  0  0  0  0  0  0
   61.3770   33.8220   50.1980 Cl  0  0  0  0  0  0  0  0  0  0  0  0
   59.8920   32.2840   48.4950 C   0  0  0  0  0  0  0  0  0  0  0  0
   59.0920   32.0540   47.3550 C   0  0  0  0  0  0  0  0  0  0  0  0
   57.1675   32.2121   53.2440 H   0  0  0  0  0  0  0  0  0  0  0  0
   58.1925   32.3877   51.7793 H   0  0  0  0  0  0  0  0  0  0  0  0
   56.5104   33.0180   51.7793 H   0  0  0  0  0  0  0  0  0  0  0  0
   56.0659   30.3855   52.4145 H   0  0  0  0  0  0  0  0  0  0  0  0
   56.0510   31.0413   50.7333 H   0  0  0  0  0  0  0  0  0  0  0  0
   57.6420   29.6750   50.2880 H   0  0  0  0  0  0  0  0  0  0  0  0
   58.9679   31.6629   50.7369 H   0  0  0  0  0  0  0  0  0  0  0  0
   59.3260   30.9558   52.3525 H   0  0  0  0  0  0  0  0  0  0  0  0
   60.6190   30.4095   49.8403 H   0  0  0  0  0  0  0  0  0  0  0  0
   60.9419   29.6722   51.4521 H   0  0  0  0  0  0  0  0  0  0  0  0
   58.6160   28.7230   49.9610 H   0  0  0  0  0  0  0  0  0  0  0  0
   61.4387   28.0937   49.2816 H   0  0  0  0  0  0  0  0  0  0  0  0
   60.0301   27.0059   48.9159 H   0  0  0  0  0  0  0  0  0  0  0  0
   60.9460   29.4528   47.5306 H   0  0  0  0  0  0  0  0  0  0  0  0
   59.8943   28.1080   46.9566 H   0  0  0  0  0  0  0  0  0  0  0  0
   58.3980   29.6370   48.8590 H   0  0  0  0  0  0  0  0  0  0  0  0
   57.7975   28.3839   46.1022 H   0  0  0  0  0  0  0  0  0  0  0  0
   56.7000   27.9883   43.9076 H   0  0  0  0  0  0  0  0  0  0  0  0
   56.2917   29.8873   42.3544 H   0  0  0  0  0  0  0  0  0  0  0  0
   56.9092   32.2010   43.0146 H   0  0  0  0  0  0  0  0  0  0  0  0
   57.0254   34.8236   45.3799 H   0  0  0  0  0  0  0  0  0  0  0  0
   58.1704   34.5359   44.0261 H   0  0  0  0  0  0  0  0  0  0  0  0
   56.5610   33.7382   44.0261 H   0  0  0  0  0  0  0  0  0  0  0  0
   59.1096   35.2564   46.1115 H   0  0  0  0  0  0  0  0  0  0  0  0
   60.4943   35.6194   48.1398 H   0  0  0  0  0  0  0  0  0  0  0  0
   60.1333   31.4475   49.1673 H   0  0  0  0  0  0  0  0  0  0  0  0
  1  2  1  0
  2  3  1  0
  3  4  1  0
  4  5  1  0
  5  6  1  0
  6  7  1  0
  7  8  1  0
  8  9  1  0
  9 10  1  0
 10 11  2  0
 11 12  1  0
 12 13  2  0
 13 14  1  0
 14 15  2  0
 15 16  1  0
 16 17  2  0
 17 18  1  0
 17 19  1  0
 19 20  2  0
 20 21  1  0
 21 22  2  0
 22 23  1  0
 22 24  1  0
 24 25  2  0
 25 10  1  0
 16 11  1  0
 25 19  1  0
  1 26  1  0
  1 27  1  0
  1 28  1  0
  2 29  1  0
  2 30  1  0
  3 31  1  0
  4 32  1  0
  4 33  1  0
  5 34  1  0
  5 35  1  0
  6 36  1  0
  7 37  1  0
  7 38  1  0
  8 39  1  0
  8 40  1  0
  9 41  1  0
 12 42  1  0
 13 43  1  0
 14 44  1  0
 15 45  1  0
 18 46  1  0
 18 47  1  0
 18 48  1  0
 20 49  1  0
 21 50  1  0
 24 51  1  0
M  CHG  1  17   1
M  END
>  <UniqueID>  (3) 
2

>  <SMILES>  (3) 
CCNCCNCCNc1c2ccccc2[n+](C)c2ccc(Cl)cc12

>  <Energy>  (3) 
72.65273071822807

>  <Genealogy>  (3) 
CCNCCNCCNc1c2ccccc2[n+](C)c2ccc(Cl)cc12 (3D coordinates assigned)
CCNCCNCCNc1c2ccccc2[n+](C)c2ccc(Cl)cc12 (optimized conformer: 72.65273071822807 kcal/mol)

>  <smiles>  (3) 
CCNCCNCCNc1c2ccccc2[n+](C)c2ccc(Cl)cc12

>  <score_type>  (3) 
oracle

>  <origin>  (3) 
adg

>  <m_score__min__energy>  (3) 
-5.8499999999999996

>  <m_primary>  (3) 
energy

$$$$
3:0
     RDKit          3D

 50 52  0  0  0  0  0  0  0  0999 V2000
   54.8100   24.0270   45.1170 C   0  0  0  0  0  0  0  0  0  0  0  0
   53.9510   25.1810   45.6220 C   0  0  0  0  0  0  0  0  0  0  0  0
   54.7780   26.3250   45.9950 N   0  0  0  0  0  0  0  0  0  0  0  0
   56.2000   26.3280   46.1850 C   0  0  0  0  0  0  0  0  0  0  0  0
   56.6870   25.6160   47.1040 O   0  0  0  0  0  0  0  0  0  0  0  0
   57.1360   27.1460   45.3350 C   0  0  0  0  0  0  0  0  0  0  0  0
   56.6680   28.6080   45.2580 C   0  0  0  0  0  0  0  0  0  0  0  0
   57.6900   29.5300   45.7980 N   0  0  0  0  0  0  0  0  0  0  0  0
   57.7610   30.7550   44.9780 C   0  0  0  0  0  0  0  0  0  0  0  0
   58.5880   31.8130   45.7170 C   0  0  0  0  0  0  0  0  0  0  0  0
   59.7270   31.1910   46.4030 N   0  0  0  0  0  0  0  0  0  0  0  0
   60.3970   31.8910   47.4670 C   0  0  0  0  0  0  0  0  0  0  0  0
   59.6520   32.5120   48.4780 C   0  0  0  0  0  0  0  0  0  0  0  0
   60.2970   33.2120   49.5060 C   0  0  0  0  0  0  0  0  0  0  0  0
   59.4640   33.8700   50.5780 C   0  0  0  0  0  0  0  0  0  0  0  0
   61.7100   33.2800   49.5100 C   0  0  0  0  0  0  0  0  0  0  0  0
   62.4290   33.9550   50.5200 C   0  0  0  0  0  0  0  0  0  0  0  0
   63.8250   33.9980   50.4870 C   0  0  0  0  0  0  0  0  0  0  0  0
   64.5230   33.3720   49.4530 C   0  0  0  0  0  0  0  0  0  0  0  0
   63.8300   32.7000   48.4460 C   0  0  0  0  0  0  0  0  0  0  0  0
   62.4270   32.6470   48.4630 C   0  0  0  0  0  0  0  0  0  0  0  0
   61.7570   31.9820   47.4770 N   0  0  0  0  0  0  0  0  0  0  0  0
   60.1910   29.8760   45.9510 C   0  0  0  0  0  0  0  0  0  0  0  0
   59.0200   28.8740   45.9050 C   0  0  0  0  0  0  0  0  0  0  0  0
   55.2217   23.4739   45.9741 H   0  0  0  0  0  0  0  0  0  0  0  0
   54.1936   23.3510   44.5063 H   0  0  0  0  0  0  0  0  0  0  0  0
   55.6345   24.4235   44.5063 H   0  0  0  0  0  0  0  0  0  0  0  0
   53.2539   25.4850   44.8273 H   0  0  0  0  0  0  0  0  0  0  0  0
   53.3984   24.8434   46.5112 H   0  0  0  0  0  0  0  0  0  0  0  0
   58.1439   27.1128   45.7743 H   0  0  0  0  0  0  0  0  0  0  0  0
   57.1469   26.7257   44.3185 H   0  0  0  0  0  0  0  0  0  0  0  0
   56.4723   28.8664   44.2068 H   0  0  0  0  0  0  0  0  0  0  0  0
   55.7543   28.7116   45.8616 H   0  0  0  0  0  0  0  0  0  0  0  0
   58.2371   30.5243   44.0136 H   0  0  0  0  0  0  0  0  0  0  0  0
   56.7455   31.1390   44.8011 H   0  0  0  0  0  0  0  0  0  0  0  0
   58.9616   32.5512   44.9921 H   0  0  0  0  0  0  0  0  0  0  0  0
   57.9486   32.3046   46.4649 H   0  0  0  0  0  0  0  0  0  0  0  0
   58.5539   32.4496   48.4646 H   0  0  0  0  0  0  0  0  0  0  0  0
   59.8398   33.5731   51.5683 H   0  0  0  0  0  0  0  0  0  0  0  0
   59.5291   34.9631   50.4737 H   0  0  0  0  0  0  0  0  0  0  0  0
   58.4157   33.5535   50.4737 H   0  0  0  0  0  0  0  0  0  0  0  0
   61.8864   34.4505   51.3386 H   0  0  0  0  0  0  0  0  0  0  0  0
   64.3760   34.5270   51.2786 H   0  0  0  0  0  0  0  0  0  0  0  0
   65.6222   33.4087   49.4322 H   0  0  0  0  0  0  0  0  0  0  0  0
   64.3859   32.2087   47.6338 H   0  0  0  0  0  0  0  0  0  0  0  0
   62.3010   31.5120   46.7180 H   0  0  0  0  0  0  0  0  0  0  0  0
   60.6246   29.9719   44.9446 H   0  0  0  0  0  0  0  0  0  0  0  0
   60.9480   29.5048   46.6575 H   0  0  0  0  0  0  0  0  0  0  0  0
   59.1565   28.2168   45.0335 H   0  0  0  0  0  0  0  0  0  0  0  0
   59.0324   28.3139   46.8517 H   0  0  0  0  0  0  0  0  0  0  0  0
  1  2  1  0
  2  3  1  0
  3  4  1  0
  4  5  2  0
  4  6  1  0
  6  7  1  0
  7  8  1  0
  8  9  1  0
  9 10  1  0
 10 11  1  0
 11 12  1  0
 12 13  2  0
 13 14  1  0
 14 15  1  0
 14 16  2  0
 16 17  1  0
 17 18  2  0
 18 19  1  0
 19 20  2  0
 20 21  1  0
 21 22  2  0
 11 23  1  0
 23 24  1  0
 24  8  1  0
 22 12  1  0
 21 16  1  0
  1 25  1  0
  1 26  1  0
  1 27  1  0
  2 28  1  0
  2 29  1  0
  6 30  1  0
  6 31  1  0
  7 32  1  0
  7 33  1  0
  9 34  1  0
  9 35  1  0
 10 36  1  0
 10 37  1  0
 13 38  1  0
 15 39  1  0
 15 40  1  0
 15 41  1  0
 17 42  1  0
 18 43  1  0
 19 44  1  0
 20 45  1  0
 22 46  1  0
 23 47  1  0
 23 48  1  0
 24 49  1  0
 24 50  1  0
M  CHG  2   3  -1  22   1
M  END
>  <UniqueID>  (4) 
3

>  <SMILES>  (4) 
CC[N-]C(=O)CCN1CCN(c2cc(C)c3ccccc3[nH+]2)CC1

>  <Energy>  (4) 
59.874642850185495

>  <Genealogy>  (4) 
CC[N-]C(=O)CCN1CCN(c2cc(C)c3ccccc3[nH+]2)CC1 (protonated)
CC[N-]C(=O)CCN1CCN(c2cc(C)c3ccccc3[nH+]2)CC1 (3D coordinates assigned)
CC[N-]C(=O)CCN1CCN(c2cc(C)c3ccccc3[nH+]2)CC1 (nonaromatic ring conformer: 59.874642850185495 kcal/mol)

>  <smiles>  (4) 
CCNC(=O)CCN1CCN(c2cc(C)c3ccccc3n2)CC1

>  <score_type>  (4) 
oracle

>  <origin>  (4) 
adg

>  <m_score__min__energy>  (4) 
-8.0999999999999996

>  <m_primary>  (4) 
energy

$$$$
4:0
     RDKit          3D

 41 42  0  0  0  0  0  0  0  0999 V2000
   57.3660   33.9130   45.2390 C   0  0  0  0  0  0  0  0  0  0  0  0
   57.8650   32.4760   45.2350 C   0  0  0  0  0  0  0  0  0  0  0  0
   56.8040   31.6150   44.8800 O   0  0  0  0  0  0  0  0  0  0  0  0
   57.0590   31.0010   43.6300 C   0  0  0  0  0  0  0  0  0  0  0  0
   56.3930   29.6220   43.5770 C   0  0  0  0  0  0  0  0  0  0  0  0
   57.3990   28.5550   43.4750 N   0  0  0  0  0  0  0  0  0  0  0  0
   58.2560   28.5770   44.6380 C   0  0  0  0  0  0  0  0  0  0  0  0
   59.4250   29.3600   44.6310 C   0  0  0  0  0  0  0  0  0  0  0  0
   60.2430   29.4250   45.7600 C   0  0  0  0  0  0  0  0  0  0  0  0
   59.8960   28.7240   46.9160 C   0  0  0  0  0  0  0  0  0  0  0  0
   58.7340   27.9510   46.9440 C   0  0  0  0  0  0  0  0  0  0  0  0
   57.9130   27.8570   45.8050 C   0  0  0  0  0  0  0  0  0  0  0  0
   56.7300   27.1010   45.8240 O   0  0  0  0  0  0  0  0  0  0  0  0
   56.5710   25.8220   45.2670 C   0  0  0  0  0  0  0  0  0  0  0  0
   55.5120   24.9720   45.6310 C   0  0  0  0  0  0  0  0  0  0  0  0
   55.3930   23.7050   45.0540 C   0  0  0  0  0  0  0  0  0  0  0  0
   56.3390   23.2560   44.1170 C   0  0  0  0  0  0  0  0  0  0  0  0
   56.2130   21.9500   43.5230 N   0  0  0  0  0  0  0  0  0  0  0  0
   56.2700   21.8050   42.2830 O   0  0  0  0  0  0  0  0  0  0  0  0
   56.0780   20.8340   44.3130 O   0  0  0  0  0  0  0  0  0  0  0  0
   57.4120   24.0980   43.7770 C   0  0  0  0  0  0  0  0  0  0  0  0
   57.5260   25.3660   44.3520 C   0  0  0  0  0  0  0  0  0  0  0  0
   57.2466   34.2568   46.2770 H   0  0  0  0  0  0  0  0  0  0  0  0
   58.0937   34.5553   44.7214 H   0  0  0  0  0  0  0  0  0  0  0  0
   56.3968   33.9660   44.7214 H   0  0  0  0  0  0  0  0  0  0  0  0
   58.6819   32.3727   44.5056 H   0  0  0  0  0  0  0  0  0  0  0  0
   58.2351   32.2115   46.2365 H   0  0  0  0  0  0  0  0  0  0  0  0
   56.6542   31.6320   42.8250 H   0  0  0  0  0  0  0  0  0  0  0  0
   58.1450   30.8823   43.5012 H   0  0  0  0  0  0  0  0  0  0  0  0
   55.8017   29.4726   44.4924 H   0  0  0  0  0  0  0  0  0  0  0  0
   55.7454   29.5793   42.6888 H   0  0  0  0  0  0  0  0  0  0  0  0
   56.9270   27.6240   43.3890 H   0  0  0  0  0  0  0  0  0  0  0  0
   57.9750   28.7000   42.6140 H   0  0  0  0  0  0  0  0  0  0  0  0
   59.6966   29.9259   43.7277 H   0  0  0  0  0  0  0  0  0  0  0  0
   61.1620   30.0292   45.7387 H   0  0  0  0  0  0  0  0  0  0  0  0
   60.5393   28.7808   47.8065 H   0  0  0  0  0  0  0  0  0  0  0  0
   58.4583   27.4119   47.8623 H   0  0  0  0  0  0  0  0  0  0  0  0
   54.7730   25.3062   46.3741 H   0  0  0  0  0  0  0  0  0  0  0  0
   54.5522   23.0540   45.3355 H   0  0  0  0  0  0  0  0  0  0  0  0
   58.1668   23.7562   43.0535 H   0  0  0  0  0  0  0  0  0  0  0  0
   58.3747   26.0120   44.0828 H   0  0  0  0  0  0  0  0  0  0  0  0
  1  2  1  0
  2  3  1  0
  3  4  1  0
  4  5  1  0
  5  6  1  0
  6  7  1  0
  7  8  2  0
  8  9  1  0
  9 10  2  0
 10 11  1  0
 11 12  2  0
 12 13  1  0
 13 14  1  0
 14 15  2  0
 15 16  1  0
 16 17  2  0
 17 18  1  0
 18 19  2  0
 18 20  1  0
 17 21  1  0
 21 22  2  0
 12  7  1  0
 22 14  1  0
  1 23  1  0
  1 24  1  0
  1 25  1  0
  2 26  1  0
  2 27  1  0
  4 28  1  0
  4 29  1  0
  5 30  1  0
  5 31  1  0
  6 32  1  0
  6 33  1  0
  8 34  1  0
  9 35  1  0
 10 36  1  0
 11 37  1  0
 15 38  1  0
 16 39  1  0
 21 40  1  0
 22 41  1  0
M  CHG  3   6   1  18   1  20  -1
M  END
>  <UniqueID>  (5) 
4

>  <SMILES>  (5) 
CCOCC[NH2+]c1ccccc1Oc1ccc([N+](=O)[O-])cc1

>  <Energy>  (5) 
47.075786001347424

>  <Genealogy>  (5) 
CCOCC[NH2+]c1ccccc1Oc1ccc([N+](=O)[O-])cc1 (protonated)
CCOCC[NH2+]c1ccccc1Oc1ccc([N+](=O)[O-])cc1 (3D coordinates assigned)
CCOCC[NH2+]c1ccccc1Oc1ccc([N+](=O)[O-])cc1 (optimized conformer: 47.075786001347424 kcal/mol)

>  <smiles>  (5) 
CCOCCNc1ccccc1Oc1ccc([N+](=O)[O-])cc1

>  <score_type>  (5) 
oracle

>  <origin>  (5) 
adg

>  <m_score__min__energy>  (5) 
-5.9400000000000004

>  <m_primary>  (5) 
energy

$$$$
5:0
     RDKit          3D

 51 55  0  0  0  0  0  0  0  0999 V2000
   60.0070   36.1300   45.8040 C   0  0  0  0  0  0  0  0  0  0  0  0
   60.0060   35.0540   46.8090 N   0  0  0  0  0  0  0  0  0  0  0  0
   60.9540   33.9830   46.4140 C   0  0  0  0  0  0  0  0  0  0  0  0
   61.9430   33.7240   47.5210 C   0  0  0  0  0  0  0  0  0  0  0  0
   63.2350   33.2690   47.2170 C   0  0  0  0  0  0  0  0  0  0  0  0
   64.1590   33.0790   48.2480 C   0  0  0  0  0  0  0  0  0  0  0  0
   63.8020   33.3240   49.5370 N   0  0  0  0  0  0  0  0  0  0  0  0
   62.5530   33.7500   49.8610 C   0  0  0  0  0  0  0  0  0  0  0  0
   61.5990   33.9530   48.8620 C   0  0  0  0  0  0  0  0  0  0  0  0
   58.6250   34.5430   46.9830 C   0  0  0  0  0  0  0  0  0  0  0  0
   58.2780   33.5190   45.9320 C   0  0  0  0  0  0  0  0  0  0  0  0
   58.1570   33.8950   44.5870 C   0  0  0  0  0  0  0  0  0  0  0  0
   57.8930   32.9340   43.6120 C   0  0  0  0  0  0  0  0  0  0  0  0
   57.7530   31.5900   43.9670 C   0  0  0  0  0  0  0  0  0  0  0  0
   57.8590   31.1910   45.3120 C   0  0  0  0  0  0  0  0  0  0  0  0
   57.7580   29.7590   45.7000 C   0  0  0  0  0  0  0  0  0  0  0  0
   58.6200   29.0560   46.5450 C   0  0  0  0  0  0  0  0  0  0  0  0
   58.2540   27.7170   46.7360 C   0  0  0  0  0  0  0  0  0  0  0  0
   57.1050   27.3550   46.0450 C   0  0  0  0  0  0  0  0  0  0  0  0
   56.4830   26.0260   46.0400 C   0  0  0  0  0  0  0  0  0  0  0  0
   55.1370   25.8440   45.9670 N   0  0  0  0  0  0  0  0  0  0  0  0
   55.0240   24.5080   45.9950 C   0  0  0  0  0  0  0  0  0  0  0  0
   53.8560   23.7500   45.9490 C   0  0  0  0  0  0  0  0  0  0  0  0
   53.9860   22.3470   45.9930 C   0  0  0  0  0  0  0  0  0  0  0  0
   52.8780   21.5670   45.9530 F   0  0  0  0  0  0  0  0  0  0  0  0
   55.2650   21.7510   46.0830 C   0  0  0  0  0  0  0  0  0  0  0  0
   56.4230   22.5510   46.1280 C   0  0  0  0  0  0  0  0  0  0  0  0
   56.2550   23.9330   46.0800 C   0  0  0  0  0  0  0  0  0  0  0  0
   57.2060   24.8770   46.1100 N   0  0  0  0  0  0  0  0  0  0  0  0
   56.5460   28.6950   45.2000 S   0  0  0  0  0  0  0  0  0  0  0  0
   58.1000   32.1740   46.2910 C   0  0  0  0  0  0  0  0  0  0  0  0
   60.0079   37.1059   46.3116 H   0  0  0  0  0  0  0  0  0  0  0  0
   60.9051   36.0432   45.1748 H   0  0  0  0  0  0  0  0  0  0  0  0
   59.1088   36.0448   45.1748 H   0  0  0  0  0  0  0  0  0  0  0  0
   60.3925   33.0602   46.2061 H   0  0  0  0  0  0  0  0  0  0  0  0
   61.5002   34.3032   45.5145 H   0  0  0  0  0  0  0  0  0  0  0  0
   63.5186   33.0633   46.1743 H   0  0  0  0  0  0  0  0  0  0  0  0
   65.1764   32.7308   48.0165 H   0  0  0  0  0  0  0  0  0  0  0  0
   62.2928   33.9355   50.9136 H   0  0  0  0  0  0  0  0  0  0  0  0
   60.5852   34.2899   49.1242 H   0  0  0  0  0  0  0  0  0  0  0  0
   58.5381   34.0790   47.9765 H   0  0  0  0  0  0  0  0  0  0  0  0
   57.9290   35.3890   46.8836 H   0  0  0  0  0  0  0  0  0  0  0  0
   58.2706   34.9508   44.3001 H   0  0  0  0  0  0  0  0  0  0  0  0
   57.7945   33.2353   42.5587 H   0  0  0  0  0  0  0  0  0  0  0  0
   57.5583   30.8376   43.1885 H   0  0  0  0  0  0  0  0  0  0  0  0
   59.5036   29.5111   47.0164 H   0  0  0  0  0  0  0  0  0  0  0  0
   58.8213   27.0207   47.3711 H   0  0  0  0  0  0  0  0  0  0  0  0
   52.8681   24.2289   45.8808 H   0  0  0  0  0  0  0  0  0  0  0  0
   55.3561   20.6553   46.1181 H   0  0  0  0  0  0  0  0  0  0  0  0
   57.4242   22.1008   46.1985 H   0  0  0  0  0  0  0  0  0  0  0  0
   58.1494   31.8839   47.3509 H   0  0  0  0  0  0  0  0  0  0  0  0
  1  2  1  0
  2  3  1  0
  3  4  1  0
  4  5  2  0
  5  6  1  0
  6  7  2  0
  7  8  1  0
  8  9  2  0
  2 10  1  0
 10 11  1  0
 11 12  2  0
 12 13  1  0
 13 14  2  0
 14 15  1  0
 15 16  1  0
 16 17  2  0
 17 18  1  0
 18 19  2  0
 19 20  1  0
 20 21  2  0
 21 22  1  0
 22 23  2  0
 23 24  1  0
 24 25  1  0
 24 26  2  0
 26 27  1  0
 27 28  2  0
 28 29  1  0
 19 30  1  0
 15 31  2  0
  9  4  1  0
 31 11  1  0
 30 16  1  0
 29 20  1  0
 28 22  1  0
  1 32  1  0
  1 33  1  0
  1 34  1  0
  3 35  1  0
  3 36  1  0
  5 37  1  0
  6 38  1  0
  8 39  1  0
  9 40  1  0
 10 41  1  0
 10 42  1  0
 12 43  1  0
 13 44  1  0
 14 45  1  0
 17 46  1  0
 18 47  1  0
 23 48  1  0
 26 49  1  0
 27 50  1  0
 31 51  1  0
M  CHG  1  29  -1
M  END
>  <UniqueID>  (6) 
5

>  <SMILES>  (6) 
CN(Cc1ccncc1)Cc1cccc(-c2ccc(-c3nc4cc(F)ccc4[n-]3)s2)c1

>  <Energy>  (6) 
118.64866453320818

>  <Genealogy>  (6) 
CN(Cc1ccncc1)Cc1cccc(-c2ccc(-c3nc4cc(F)ccc4[n-]3)s2)c1 (protonated)
CN(Cc1ccncc1)Cc1cccc(-c2ccc(-c3nc4cc(F)ccc4[n-]3)s2)c1 (3D coordinates assigned)
CN(Cc1ccncc1)Cc1cccc(-c2ccc(-c3nc4cc(F)ccc4[n-]3)s2)c1 (optimized conformer: 118.64866453320818 kcal/mol)

>  <smiles>  (6) 
CN(Cc1ccncc1)Cc1cccc(-c2ccc(-c3nc4cc(F)ccc4[nH]3)s2)c1

>  <score_type>  (6) 
oracle

>  <origin>  (6) 
adg

>  <m_score__min__energy>  (6) 
-10.76

>  <m_primary>  (6) 
energy

$$$$
6:0
     RDKit          3D

 87 90  0  0  0  0  0  0  0  0999 V2000
   63.2020   33.4690   46.7010 C   0  0  0  0  0  0  0  0  0  0  0  0
   63.3060   32.2850   47.6760 C   0  0  0  0  0  0  0  0  0  0  0  0
   63.3440   32.6750   49.1080 N   0  0  2  0  0  0  0  0  0  0  0  0
   63.4010   34.1440   49.2600 C   0  0  0  0  0  0  0  0  0  0  0  0
   64.4440   31.9990   49.8540 C   0  0  0  0  0  0  0  0  0  0  0  0
   63.9810   31.4180   51.2020 C   0  0  0  0  0  0  0  0  0  0  0  0
   62.6340   30.9850   51.1220 O   0  0  0  0  0  0  0  0  0  0  0  0
   62.4560   29.6950   51.6780 C   0  0  0  0  0  0  0  0  0  0  0  0
   61.4860   28.9050   50.7900 C   0  0  0  0  0  0  0  0  0  0  0  0
   60.6580   29.7190   49.9740 O   0  0  0  0  0  0  0  0  0  0  0  0
   59.3700   29.1740   49.7300 C   0  0  0  0  0  0  0  0  0  0  0  0
   59.1120   28.7090   48.2850 C   0  0  0  0  0  0  0  0  0  0  0  0
   59.8400   29.5310   47.3200 N   0  0  0  0  0  0  0  0  0  0  0  0
   59.2450   30.6860   46.7070 C   0  0  0  0  0  0  0  0  0  0  0  0
   58.4190   30.5360   45.5820 C   0  0  0  0  0  0  0  0  0  0  0  0
   58.0710   29.2570   45.1020 C   0  0  0  0  0  0  0  0  0  0  0  0
   57.2510   29.1130   43.9870 C   0  0  0  0  0  0  0  0  0  0  0  0
   56.7540   30.2380   43.3420 C   0  0  0  0  0  0  0  0  0  0  0  0
   57.0810   31.5140   43.7980 C   0  0  0  0  0  0  0  0  0  0  0  0
   57.9300   31.6930   44.9180 C   0  0  0  0  0  0  0  0  0  0  0  0
   58.2740   32.9500   45.3730 N   0  0  0  0  0  0  0  0  0  0  0  0
   58.0300   34.1360   44.5280 C   0  0  0  0  0  0  0  0  0  0  0  0
   58.8670   33.0950   46.6130 C   0  0  0  0  0  0  0  0  0  0  0  0
   58.9250   34.3490   47.2660 C   0  0  0  0  0  0  0  0  0  0  0  0
   59.5700   34.4900   48.4950 C   0  0  0  0  0  0  0  0  0  0  0  0
   60.1760   33.3960   49.1100 C   0  0  0  0  0  0  0  0  0  0  0  0
   60.8510   33.6130   50.3250 O   0  0  0  0  0  0  0  0  0  0  0  0
   60.2350   33.8210   51.5970 C   0  0  0  0  0  0  0  0  0  0  0  0
   60.3400   32.6000   52.5510 C   0  0  0  0  0  0  0  0  0  0  0  0
   59.0640   32.0900   53.1660 N   0  0  0  0  0  0  0  0  0  0  0  0
   59.0290   32.3930   54.6220 C   0  0  0  0  0  0  0  0  0  0  0  0
   57.8660   32.7210   52.5120 C   0  0  0  0  0  0  0  0  0  0  0  0
   57.3900   31.9600   51.2650 C   0  0  0  0  0  0  0  0  0  0  0  0
   56.9260   30.5410   51.6290 C   0  0  0  0  0  0  0  0  0  0  0  0
   57.6290   30.0070   52.8890 C   0  0  0  0  0  0  0  0  0  0  0  0
   59.0490   30.5890   53.0040 C   0  0  0  0  0  0  0  0  0  0  0  0
   60.0830   32.1340   48.5060 C   0  0  0  0  0  0  0  0  0  0  0  0
   59.4130   31.9650   47.2750 C   0  0  0  0  0  0  0  0  0  0  0  0
   63.1196   34.4066   47.2703 H   0  0  0  0  0  0  0  0  0  0  0  0
   64.1007   33.5024   46.0675 H   0  0  0  0  0  0  0  0  0  0  0  0
   62.3113   33.3452   46.0675 H   0  0  0  0  0  0  0  0  0  0  0  0
   62.4345   31.6323   47.5196 H   0  0  0  0  0  0  0  0  0  0  0  0
   64.2604   31.7823   47.4608 H   0  0  0  0  0  0  0  0  0  0  0  0
   62.4230   32.3660   49.5040 H   0  0  0  0  0  0  0  0  0  0  0  0
   63.4110   34.4019   50.3293 H   0  0  0  0  0  0  0  0  0  0  0  0
   64.3147   34.5269   48.7819 H   0  0  0  0  0  0  0  0  0  0  0  0
   62.5197   34.5966   48.7819 H   0  0  0  0  0  0  0  0  0  0  0  0
   64.8370   31.1795   49.2344 H   0  0  0  0  0  0  0  0  0  0  0  0
   65.2140   32.7554   50.0662 H   0  0  0  0  0  0  0  0  0  0  0  0
   64.6206   30.5629   51.4659 H   0  0  0  0  0  0  0  0  0  0  0  0
   64.0568   32.2012   51.9706 H   0  0  0  0  0  0  0  0  0  0  0  0
   63.4241   29.1746   51.7226 H   0  0  0  0  0  0  0  0  0  0  0  0
   62.0476   29.7792   52.6959 H   0  0  0  0  0  0  0  0  0  0  0  0
   62.0749   28.2452   50.1360 H   0  0  0  0  0  0  0  0  0  0  0  0
   60.8193   28.3473   51.4642 H   0  0  0  0  0  0  0  0  0  0  0  0
   59.2370   28.3073   50.3942 H   0  0  0  0  0  0  0  0  0  0  0  0
   58.6557   29.9891   49.9180 H   0  0  0  0  0  0  0  0  0  0  0  0
   59.4383   27.6636   48.1822 H   0  0  0  0  0  0  0  0  0  0  0  0
   58.0359   28.8053   48.0782 H   0  0  0  0  0  0  0  0  0  0  0  0
   60.8090   29.2520   47.0440 H   0  0  0  0  0  0  0  0  0  0  0  0
   58.4523   28.3619   45.6152 H   0  0  0  0  0  0  0  0  0  0  0  0
   56.9967   28.1089   43.6168 H   0  0  0  0  0  0  0  0  0  0  0  0
   56.0986   30.1215   42.4663 H   0  0  0  0  0  0  0  0  0  0  0  0
   56.6738   32.3951   43.2805 H   0  0  0  0  0  0  0  0  0  0  0  0
   57.8498   35.0119   45.1686 H   0  0  0  0  0  0  0  0  0  0  0  0
   58.9089   34.3208   43.8929 H   0  0  0  0  0  0  0  0  0  0  0  0
   57.1495   33.9589   43.8929 H   0  0  0  0  0  0  0  0  0  0  0  0
   58.4544   35.2259   46.7975 H   0  0  0  0  0  0  0  0  0  0  0  0
   59.6006   35.4750   48.9837 H   0  0  0  0  0  0  0  0  0  0  0  0
   60.7199   34.6818   52.0806 H   0  0  0  0  0  0  0  0  0  0  0  0
   59.1643   33.9911   51.4107 H   0  0  0  0  0  0  0  0  0  0  0  0
   60.7849   31.7720   51.9796 H   0  0  0  0  0  0  0  0  0  0  0  0
   60.9389   32.9580   53.4014 H   0  0  0  0  0  0  0  0  0  0  0  0
   59.1368   31.4593   55.1935 H   0  0  0  0  0  0  0  0  0  0  0  0
   59.8543   33.0749   54.8746 H   0  0  0  0  0  0  0  0  0  0  0  0
   58.0699   32.8688   54.8746 H   0  0  0  0  0  0  0  0  0  0  0  0
   57.0428   32.7482   53.2411 H   0  0  0  0  0  0  0  0  0  0  0  0
   58.1622   33.7295   52.1878 H   0  0  0  0  0  0  0  0  0  0  0  0
   56.5516   32.5065   50.8084 H   0  0  0  0  0  0  0  0  0  0  0  0
   58.2304   31.8835   50.5593 H   0  0  0  0  0  0  0  0  0  0  0  0
   55.8409   30.5579   51.8086 H   0  0  0  0  0  0  0  0  0  0  0  0
   57.1818   29.8758   50.7911 H   0  0  0  0  0  0  0  0  0  0  0  0
   57.0472   30.2948   53.7771 H   0  0  0  0  0  0  0  0  0  0  0  0
   57.6991   28.9115   52.8189 H   0  0  0  0  0  0  0  0  0  0  0  0
   59.5423   30.1379   53.8776 H   0  0  0  0  0  0  0  0  0  0  0  0
   59.5754   30.3556   52.0668 H   0  0  0  0  0  0  0  0  0  0  0  0
   60.5389   31.2626   48.9988 H   0  0  0  0  0  0  0  0  0  0  0  0
  1  2  1  0
  2  3  1  0
  3  4  1  0
  3  5  1  0
  5  6  1  0
  6  7  1  0
  7  8  1  0
  8  9  1  0
  9 10  1  0
 10 11  1  0
 11 12  1  0
 12 13  1  0
 13 14  1  0
 14 15  2  0
 15 16  1  0
 16 17  2  0
 17 18  1  0
 18 19  2  0
 19 20  1  0
 20 21  2  0
 21 22  1  0
 21 23  1  0
 23 24  2  0
 24 25  1  0
 25 26  2  0
 26 27  1  0
 27 28  1  0
 28 29  1  0
 29 30  1  0
 30 31  1  0
 30 32  1  0
 32 33  1  0
 33 34  1  0
 34 35  1  0
 35 36  1  0
 26 37  1  0
 37 38  2  0
 38 14  1  0
 20 15  1  0
 38 23  1  0
 36 30  1  0
  1 39  1  0
  1 40  1  0
  1 41  1  0
  2 42  1  0
  2 43  1  0
  3 44  1  1
  4 45  1  0
  4 46  1  0
  4 47  1  0
  5 48  1  0
  5 49  1  0
  6 50  1  0
  6 51  1  0
  8 52  1  0
  8 53  1  0
  9 54  1  0
  9 55  1  0
 11 56  1  0
 11 57  1  0
 12 58  1  0
 12 59  1  0
 13 60  1  0
 16 61  1  0
 17 62  1  0
 18 63  1  0
 19 64  1  0
 22 65  1  0
 22 66  1  0
 22 67  1  0
 24 68  1  0
 25 69  1  0
 28 70  1  0
 28 71  1  0
 29 72  1  0
 29 73  1  0
 31 74  1  0
 31 75  1  0
 31 76  1  0
 32 77  1  0
 32 78  1  0
 33 79  1  0
 33 80  1  0
 34 81  1  0
 34 82  1  0
 35 83  1  0
 35 84  1  0
 36 85  1  0
 36 86  1  0
 37 87  1  0
M  CHG  3   3   1  21   1  30   1
M  END
>  <UniqueID>  (7) 
6

>  <SMILES>  (7) 
CC[N@H+](C)CCOCCOCCNc1c2ccccc2[n+](C)c2ccc(OCC[N+]3(C)CCCCC3)cc12

>  <Energy>  (7) 
144.32149617134843

>  <Genealogy>  (7) 
CC[NH+](C)CCOCCOCCNc1c2ccccc2[n+](C)c2ccc(OCC[N+]3(C)CCCCC3)cc12 (protonated)
CC[N@H+](C)CCOCCOCCNc1c2ccccc2[n+](C)c2ccc(OCC[N+]3(C)CCCCC3)cc12 (chirality)
CC[N@H+](C)CCOCCOCCNc1c2ccccc2[n+](C)c2ccc(OCC[N+]3(C)CCCCC3)cc12 (3D coordinates assigned)
CC[N@H+](C)CCOCCOCCNc1c2ccccc2[n+](C)c2ccc(OCC[N+]3(C)CCCCC3)cc12 (nonaromatic ring conformer: 144.32149617134843 kcal/mol)

>  <smiles>  (7) 
CCN(C)CCOCCOCCNc1c2ccccc2[n+](C)c2ccc(OCC[N+]3(C)CCCCC3)cc12

>  <score_type>  (7) 
oracle

>  <origin>  (7) 
adg

>  <m_score__min__energy>  (7) 
-4.1500000000000004

>  <m_primary>  (7) 
energy

$$$$
7:0
     RDKit          3D

 61 63  0  0  0  0  0  0  0  0999 V2000
   63.6700   33.8520   46.9060 C   0  0  0  0  0  0  0  0  0  0  0  0
   62.3580   33.8400   47.7050 C   0  0  0  0  0  0  0  0  0  0  0  0
   61.2070   33.2320   46.9930 N   0  0  0  0  0  0  0  0  0  0  0  0
   61.0910   31.7620   47.1540 C   0  0  0  0  0  0  0  0  0  0  0  0
   62.2210   31.1240   47.9650 C   0  0  0  0  0  0  0  0  0  0  0  0
   59.9450   34.0010   47.0750 C   0  0  0  0  0  0  0  0  0  0  0  0
   58.7310   33.1630   46.6430 C   0  0  0  0  0  0  0  0  0  0  0  0
   57.9370   33.8720   45.6250 N   0  0  0  0  0  0  0  0  0  0  0  0
   58.3650   33.5220   44.2580 C   0  0  0  0  0  0  0  0  0  0  0  0
   57.6900   32.2380   43.7510 C   0  0  0  0  0  0  0  0  0  0  0  0
   57.2060   31.4600   44.8460 O   0  0  0  0  0  0  0  0  0  0  0  0
   57.4900   30.1020   45.0670 C   0  0  0  0  0  0  0  0  0  0  0  0
   58.8040   29.5970   45.1150 C   0  0  0  0  0  0  0  0  0  0  0  0
   59.0310   28.2350   45.3430 C   0  0  0  0  0  0  0  0  0  0  0  0
   57.9500   27.3570   45.5230 C   0  0  0  0  0  0  0  0  0  0  0  0
   58.1310   25.9830   45.7560 C   0  0  0  0  0  0  0  0  0  0  0  0
   59.2940   25.4990   45.8370 O   0  0  0  0  0  0  0  0  0  0  0  0
   57.0040   25.1540   45.9200 C   0  0  0  0  0  0  0  0  0  0  0  0
   57.1300   23.6930   46.1500 C   0  0  0  0  0  0  0  0  0  0  0  0
   56.5310   23.0890   47.2700 C   0  0  0  0  0  0  0  0  0  0  0  0
   56.6630   21.7150   47.4910 C   0  0  0  0  0  0  0  0  0  0  0  0
   57.4050   20.9210   46.5960 C   0  0  0  0  0  0  0  0  0  0  0  0
   57.5700   19.5400   46.7770 O   0  0  0  0  0  0  0  0  0  0  0  0
   58.6790   18.9420   47.4420 C   0  0  0  0  0  0  0  0  0  0  0  0
   58.0050   21.5230   45.4850 C   0  0  0  0  0  0  0  0  0  0  0  0
   57.8720   22.8960   45.2630 C   0  0  0  0  0  0  0  0  0  0  0  0
   55.7320   25.7470   45.8630 C   0  0  0  0  0  0  0  0  0  0  0  0
   55.5950   27.0510   45.6490 O   0  0  0  0  0  0  0  0  0  0  0  0
   56.6320   27.8630   45.4770 C   0  0  0  0  0  0  0  0  0  0  0  0
   56.4130   29.2250   45.2520 C   0  0  0  0  0  0  0  0  0  0  0  0
   64.5225   33.8598   47.6011 H   0  0  0  0  0  0  0  0  0  0  0  0
   63.7217   32.9543   46.2724 H   0  0  0  0  0  0  0  0  0  0  0  0
   63.7052   34.7505   46.2724 H   0  0  0  0  0  0  0  0  0  0  0  0
   62.5262   33.2729   48.6324 H   0  0  0  0  0  0  0  0  0  0  0  0
   62.0928   34.8923   47.8849 H   0  0  0  0  0  0  0  0  0  0  0  0
   60.1390   31.5454   47.6608 H   0  0  0  0  0  0  0  0  0  0  0  0
   61.1469   31.3301   46.1439 H   0  0  0  0  0  0  0  0  0  0  0  0
   62.0131   31.2414   49.0388 H   0  0  0  0  0  0  0  0  0  0  0  0
   62.2895   30.0539   47.7196 H   0  0  0  0  0  0  0  0  0  0  0  0
   63.1726   31.6181   47.7196 H   0  0  0  0  0  0  0  0  0  0  0  0
   59.7971   34.3311   48.1138 H   0  0  0  0  0  0  0  0  0  0  0  0
   60.0254   34.8597   46.3923 H   0  0  0  0  0  0  0  0  0  0  0  0
   59.0830   32.2086   46.2245 H   0  0  0  0  0  0  0  0  0  0  0  0
   58.0955   32.9861   47.5233 H   0  0  0  0  0  0  0  0  0  0  0  0
   58.0740   34.9020   45.7550 H   0  0  0  0  0  0  0  0  0  0  0  0
   56.9190   33.6610   45.7500 H   0  0  0  0  0  0  0  0  0  0  0  0
   58.1048   34.3500   43.5821 H   0  0  0  0  0  0  0  0  0  0  0  0
   59.4510   33.3483   44.2775 H   0  0  0  0  0  0  0  0  0  0  0  0
   56.8469   32.5064   43.0974 H   0  0  0  0  0  0  0  0  0  0  0  0
   58.4293   31.6446   43.1931 H   0  0  0  0  0  0  0  0  0  0  0  0
   59.6567   30.2771   44.9725 H   0  0  0  0  0  0  0  0  0  0  0  0
   60.0609   27.8505   45.3814 H   0  0  0  0  0  0  0  0  0  0  0  0
   55.9541   23.7026   47.9776 H   0  0  0  0  0  0  0  0  0  0  0  0
   56.1854   21.2525   48.3674 H   0  0  0  0  0  0  0  0  0  0  0  0
   58.5383   19.0179   48.5303 H   0  0  0  0  0  0  0  0  0  0  0  0
   58.7512   17.8827   47.1546 H   0  0  0  0  0  0  0  0  0  0  0  0
   59.6037   19.4638   47.1546 H   0  0  0  0  0  0  0  0  0  0  0  0
   58.5864   20.9103   44.7803 H   0  0  0  0  0  0  0  0  0  0  0  0
   58.3521   23.3563   44.3868 H   0  0  0  0  0  0  0  0  0  0  0  0
   54.8364   25.1227   45.9975 H   0  0  0  0  0  0  0  0  0  0  0  0
   55.3840   29.6126   45.2198 H   0  0  0  0  0  0  0  0  0  0  0  0
  1  2  1  0
  2  3  1  0
  3  4  1  0
  4  5  1  0
  3  6  1  0
  6  7  1  0
  7  8  1  0
  8  9  1  0
  9 10  1  0
 10 11  1  0
 11 12  1  0
 12 13  2  0
 13 14  1  0
 14 15  2  0
 15 16  1  0
 16 17  2  0
 16 18  1  0
 18 19  1  0
 19 20  2  0
 20 21  1  0
 21 22  2  0
 22 23  1  0
 23 24  1  0
 22 25  1  0
 25 26  2  0
 18 27  2  0
 27 28  1  0
 28 29  1  0
 29 30  2  0
 30 12  1  0
 29 15  1  0
 26 19  1  0
  1 31  1  0
  1 32  1  0
  1 33  1  0
  2 34  1  0
  2 35  1  0
  4 36  1  0
  4 37  1  0
  5 38  1  0
  5 39  1  0
  5 40  1  0
  6 41  1  0
  6 42  1  0
  7 43  1  0
  7 44  1  0
  8 45  1  0
  8 46  1  0
  9 47  1  0
  9 48  1  0
 10 49  1  0
 10 50  1  0
 13 51  1  0
 14 52  1  0
 20 53  1  0
 21 54  1  0
 24 55  1  0
 24 56  1  0
 24 57  1  0
 25 58  1  0
 26 59  1  0
 27 60  1  0
 30 61  1  0
M  CHG  1   8   1
M  END
>  <UniqueID>  (8) 
7

>  <SMILES>  (8) 
CCN(CC)CC[NH2+]CCOc1ccc2c(=O)c(-c3ccc(OC)cc3)coc2c1

>  <Energy>  (8) 
78.44307310495911

>  <Genealogy>  (8) 
CCN(CC)CC[NH2+]CCOc1ccc2c(=O)c(-c3ccc(OC)cc3)coc2c1 (protonated)
CCN(CC)CC[NH2+]CCOc1ccc2c(=O)c(-c3ccc(OC)cc3)coc2c1 (3D coordinates assigned)
CCN(CC)CC[NH2+]CCOc1ccc2c(=O)c(-c3ccc(OC)cc3)coc2c1 (optimized conformer: 78.44307310495911 kcal/mol)

>  <smiles>  (8) 
CCN(CC)CCNCCOc1ccc2c(=O)c(-c3ccc(OC)cc3)coc2c1

>  <score_type>  (8) 
oracle

>  <origin>  (8) 
adg

>  <m_score__min__energy>  (8) 
-5.3099999999999996

>  <m_primary>  (8) 
energy

$$$$
8:0
     RDKit          3D

 65 69  0  0  0  0  0  0  0  0999 V2000
   58.6770   33.4190   51.8790 C   0  0  0  0  0  0  0  0  0  0  0  0
   60.0610   33.8430   51.4050 C   0  0  0  0  0  0  0  0  0  0  0  0
   60.2560   33.4630   50.0050 N   0  0  0  0  0  0  0  0  0  0  0  0
   59.2710   33.2240   49.1070 C   0  0  0  0  0  0  0  0  0  0  0  0
   59.8130   32.9560   47.8530 C   0  0  0  0  0  0  0  0  0  0  0  0
   59.0540   32.6460   46.6250 C   0  0  0  0  0  0  0  0  0  0  0  0
   58.2590   33.6400   46.0040 C   0  0  0  0  0  0  0  0  0  0  0  0
   57.5470   33.3560   44.8280 C   0  0  0  0  0  0  0  0  0  0  0  0
   57.6380   32.0670   44.3160 C   0  0  0  0  0  0  0  0  0  0  0  0
   57.0630   31.6060   43.1900 N   0  0  0  0  0  0  0  0  0  0  0  0
   57.4440   30.3370   43.0930 N   0  0  0  0  0  0  0  0  0  0  0  0
   58.2260   30.0360   44.1560 C   0  0  0  0  0  0  0  0  0  0  0  0
   58.9520   28.7210   44.3620 C   0  0  0  0  0  0  0  0  0  0  0  0
   60.3820   28.9140   44.9400 C   0  0  0  0  0  0  0  0  0  0  0  0
   60.5250   28.4900   46.4120 C   0  0  0  0  0  0  0  0  0  0  0  0
   59.2970   28.7610   47.1740 N   0  0  0  0  0  0  0  0  0  0  0  0
   59.3630   29.3660   48.4800 C   0  0  0  0  0  0  0  0  0  0  0  0
   58.3080   29.5080   49.1580 O   0  0  0  0  0  0  0  0  0  0  0  0
   60.5990   29.7970   48.9880 O   0  0  0  0  0  0  0  0  0  0  0  0
   61.0830   29.6140   50.3270 C   0  0  0  0  0  0  0  0  0  0  0  0
   60.0890   30.3140   51.2680 C   0  0  0  0  0  0  0  0  0  0  0  0
   62.4690   30.2640   50.4950 C   0  0  0  0  0  0  0  0  0  0  0  0
   61.1370   28.1160   50.6860 C   0  0  0  0  0  0  0  0  0  0  0  0
   58.0010   28.2800   46.6700 C   0  0  0  0  0  0  0  0  0  0  0  0
   58.1040   27.7710   45.2260 C   0  0  0  0  0  0  0  0  0  0  0  0
   58.3720   31.1270   44.9310 N   0  0  0  0  0  0  0  0  0  0  0  0
   59.0870   31.3540   46.0630 C   0  0  0  0  0  0  0  0  0  0  0  0
   61.1880   33.0690   48.0060 C   0  0  0  0  0  0  0  0  0  0  0  0
   62.2310   32.9930   47.0800 C   0  0  0  0  0  0  0  0  0  0  0  0
   63.5410   33.2070   47.5410 C   0  0  0  0  0  0  0  0  0  0  0  0
   63.7810   33.5070   48.8970 C   0  0  0  0  0  0  0  0  0  0  0  0
   62.7130   33.6050   49.8060 C   0  0  0  0  0  0  0  0  0  0  0  0
   61.4190   33.3800   49.3260 C   0  0  0  0  0  0  0  0  0  0  0  0
   58.6524   33.4115   52.9787 H   0  0  0  0  0  0  0  0  0  0  0  0
   57.9264   34.1284   51.5003 H   0  0  0  0  0  0  0  0  0  0  0  0
   58.4526   32.4109   51.5003 H   0  0  0  0  0  0  0  0  0  0  0  0
   60.1595   34.9343   51.5021 H   0  0  0  0  0  0  0  0  0  0  0  0
   60.8205   33.3402   52.0218 H   0  0  0  0  0  0  0  0  0  0  0  0
   58.1952   33.2394   49.3359 H   0  0  0  0  0  0  0  0  0  0  0  0
   58.1988   34.6448   46.4477 H   0  0  0  0  0  0  0  0  0  0  0  0
   56.9391   34.1256   44.3298 H   0  0  0  0  0  0  0  0  0  0  0  0
   57.1860   29.7100   42.3000 H   0  0  0  0  0  0  0  0  0  0  0  0
   59.0882   28.2574   43.3738 H   0  0  0  0  0  0  0  0  0  0  0  0
   61.0819   28.3156   44.3382 H   0  0  0  0  0  0  0  0  0  0  0  0
   60.5998   29.9914   44.8968 H   0  0  0  0  0  0  0  0  0  0  0  0
   60.7408   27.4122   46.4539 H   0  0  0  0  0  0  0  0  0  0  0  0
   61.3440   29.0718   46.8601 H   0  0  0  0  0  0  0  0  0  0  0  0
   60.3709   30.1155   52.3126 H   0  0  0  0  0  0  0  0  0  0  0  0
   60.1096   31.3980   51.0824 H   0  0  0  0  0  0  0  0  0  0  0  0
   59.0753   29.9294   51.0824 H   0  0  0  0  0  0  0  0  0  0  0  0
   62.6966   30.3707   51.5659 H   0  0  0  0  0  0  0  0  0  0  0  0
   63.2316   29.6296   50.0195 H   0  0  0  0  0  0  0  0  0  0  0  0
   62.4689   31.2559   50.0195 H   0  0  0  0  0  0  0  0  0  0  0  0
   61.1411   28.0010   51.7800 H   0  0  0  0  0  0  0  0  0  0  0  0
   60.2566   27.6066   50.2671 H   0  0  0  0  0  0  0  0  0  0  0  0
   62.0518   27.6713   50.2671 H   0  0  0  0  0  0  0  0  0  0  0  0
   57.6517   27.4586   47.3129 H   0  0  0  0  0  0  0  0  0  0  0  0
   57.2942   29.1227   46.6857 H   0  0  0  0  0  0  0  0  0  0  0  0
   58.5709   26.7750   45.2288 H   0  0  0  0  0  0  0  0  0  0  0  0
   57.0910   27.7224   44.8000 H   0  0  0  0  0  0  0  0  0  0  0  0
   59.6764   30.5506   46.5290 H   0  0  0  0  0  0  0  0  0  0  0  0
   62.0326   32.7721   46.0208 H   0  0  0  0  0  0  0  0  0  0  0  0
   64.3850   33.1399   46.8387 H   0  0  0  0  0  0  0  0  0  0  0  0
   64.8118   33.6657   49.2468 H   0  0  0  0  0  0  0  0  0  0  0  0
   62.8900   33.8513   50.8633 H   0  0  0  0  0  0  0  0  0  0  0  0
  1  2  1  0
  2  3  1  0
  3  4  1  0
  4  5  2  0
  5  6  1  0
  6  7  1  0
  7  8  2  0
  8  9  1  0
  9 10  2  0
 10 11  1  0
 11 12  2  0
 12 13  1  0
 13 14  1  0
 14 15  1  0
 15 16  1  0
 16 17  1  0
 17 18  2  0
 17 19  1  0
 19 20  1  0
 20 21  1  0
 20 22  1  0
 20 23  1  0
 16 24  1  0
 24 25  1  0
 12 26  1  0
 26 27  1  0
  5 28  1  0
 28 29  2  0
 29 30  1  0
 30 31  2  0
 31 32  1  0
 32 33  2  0
 33  3  1  0
 27  6  2  0
 33 28  1  0
 26  9  1  0
 25 13  1  0
  1 34  1  0
  1 35  1  0
  1 36  1  0
  2 37  1  0
  2 38  1  0
  4 39  1  0
  7 40  1  0
  8 41  1  0
 11 42  1  0
 13 43  1  0
 14 44  1  0
 14 45  1  0
 15 46  1  0
 15 47  1  0
 21 48  1  0
 21 49  1  0
 21 50  1  0
 22 51  1  0
 22 52  1  0
 22 53  1  0
 23 54  1  0
 23 55  1  0
 23 56  1  0
 24 57  1  0
 24 58  1  0
 25 59  1  0
 25 60  1  0
 27 61  1  0
 29 62  1  0
 30 63  1  0
 31 64  1  0
 32 65  1  0
M  CHG  1  11   1
M  END
>  <UniqueID>  (9) 
8

>  <SMILES>  (9) 
CCn1cc(-c2ccc3n[nH+]c(C4CCN(C(=O)OC(C)(C)C)CC4)n3c2)c2ccccc21

>  <Energy>  (9) 
142.6281664629288

>  <Genealogy>  (9) 
CCn1cc(-c2ccc3n[nH+]c(C4CCN(C(=O)OC(C)(C)C)CC4)n3c2)c2ccccc21 (protonated)
CCn1cc(-c2ccc3n[nH+]c(C4CCN(C(=O)OC(C)(C)C)CC4)n3c2)c2ccccc21 (3D coordinates assigned)
CCn1cc(-c2ccc3n[nH+]c(C4CCN(C(=O)OC(C)(C)C)CC4)n3c2)c2ccccc21 (nonaromatic ring conformer: 142.6281664629288 kcal/mol)

>  <smiles>  (9) 
CCn1cc(-c2ccc3nnc(C4CCN(C(=O)OC(C)(C)C)CC4)n3c2)c2ccccc21

>  <score_type>  (9) 
oracle

>  <origin>  (9) 
adg

>  <m_score__min__energy>  (9) 
-7.9900000000000002

>  <m_primary>  (9) 
energy

$$$$
9:0
     RDKit          3D

 64 66  0  0  0  0  0  0  0  0999 V2000
   63.1040   32.9530   48.0550 C   0  0  0  0  0  0  0  0  0  0  0  0
   62.5030   31.7210   47.3660 C   0  0  0  0  0  0  0  0  0  0  0  0
   61.2480   31.2640   48.0170 N   0  0  0  0  0  0  0  0  0  0  0  0
   60.7410   30.0500   47.3220 C   0  0  0  0  0  0  0  0  0  0  0  0
   59.7820   29.2380   48.2050 C   0  0  0  0  0  0  0  0  0  0  0  0
   61.4570   31.0050   49.4770 C   0  0  0  0  0  0  0  0  0  0  0  0
   60.4420   31.7670   50.3430 C   0  0  0  0  0  0  0  0  0  0  0  0
   59.5400   32.4780   49.5160 O   0  0  0  0  0  0  0  0  0  0  0  0
   59.7370   33.8710   49.6450 C   0  0  0  0  0  0  0  0  0  0  0  0
   60.0510   34.4870   48.2810 C   0  0  0  0  0  0  0  0  0  0  0  0
   58.8730   34.5890   47.4770 O   0  0  0  0  0  0  0  0  0  0  0  0
   58.5050   33.7180   46.4380 C   0  0  0  0  0  0  0  0  0  0  0  0
   58.1630   34.2800   45.2010 C   0  0  0  0  0  0  0  0  0  0  0  0
   57.7810   33.4720   44.1260 C   0  0  0  0  0  0  0  0  0  0  0  0
   57.7320   32.0760   44.2800 C   0  0  0  0  0  0  0  0  0  0  0  0
   57.3490   31.2220   43.2360 C   0  0  0  0  0  0  0  0  0  0  0  0
   57.0280   31.6790   42.1040 O   0  0  0  0  0  0  0  0  0  0  0  0
   57.3140   29.8440   43.4550 C   0  0  0  0  0  0  0  0  0  0  0  0
   57.6720   29.3370   44.7190 C   0  0  0  0  0  0  0  0  0  0  0  0
   57.6370   27.8810   45.0230 C   0  0  0  0  0  0  0  0  0  0  0  0
   57.8280   26.9050   44.0270 C   0  0  0  0  0  0  0  0  0  0  0  0
   57.7700   25.5440   44.3410 C   0  0  0  0  0  0  0  0  0  0  0  0
   57.5320   25.1160   45.6630 C   0  0  0  0  0  0  0  0  0  0  0  0
   57.4520   23.7030   45.9840 N   0  0  0  0  0  0  0  0  0  0  0  0
   56.6490   23.2430   47.1250 C   0  0  0  0  0  0  0  0  0  0  0  0
   58.1950   22.7130   45.1890 C   0  0  0  0  0  0  0  0  0  0  0  0
   57.3670   26.0990   46.6610 C   0  0  0  0  0  0  0  0  0  0  0  0
   57.4230   27.4580   46.3450 C   0  0  0  0  0  0  0  0  0  0  0  0
   58.0290   30.1820   45.6860 O   0  0  0  0  0  0  0  0  0  0  0  0
   58.0730   31.5010   45.5220 C   0  0  0  0  0  0  0  0  0  0  0  0
   58.4540   32.3170   46.5920 C   0  0  0  0  0  0  0  0  0  0  0  0
   63.0434   32.8288   49.1463 H   0  0  0  0  0  0  0  0  0  0  0  0
   64.1570   33.0630   47.7564 H   0  0  0  0  0  0  0  0  0  0  0  0
   62.5425   33.8505   47.7564 H   0  0  0  0  0  0  0  0  0  0  0  0
   62.2856   31.9734   46.3177 H   0  0  0  0  0  0  0  0  0  0  0  0
   63.2360   30.9042   47.4401 H   0  0  0  0  0  0  0  0  0  0  0  0
   60.5360   32.0210   47.8700 H   0  0  0  0  0  0  0  0  0  0  0  0
   60.2083   30.3593   46.4107 H   0  0  0  0  0  0  0  0  0  0  0  0
   61.6039   29.4114   47.0821 H   0  0  0  0  0  0  0  0  0  0  0  0
   60.0081   29.4294   49.2644 H   0  0  0  0  0  0  0  0  0  0  0  0
   58.7451   29.5369   47.9915 H   0  0  0  0  0  0  0  0  0  0  0  0
   59.9059   28.1660   47.9915 H   0  0  0  0  0  0  0  0  0  0  0  0
   61.3482   29.9269   49.6665 H   0  0  0  0  0  0  0  0  0  0  0  0
   62.4651   31.3539   49.7451 H   0  0  0  0  0  0  0  0  0  0  0  0
   59.8818   31.0515   50.9629 H   0  0  0  0  0  0  0  0  0  0  0  0
   60.9786   32.4781   50.9883 H   0  0  0  0  0  0  0  0  0  0  0  0
   58.8239   34.3314   50.0504 H   0  0  0  0  0  0  0  0  0  0  0  0
   60.5823   34.0531   50.3250 H   0  0  0  0  0  0  0  0  0  0  0  0
   60.4724   35.4922   48.4295 H   0  0  0  0  0  0  0  0  0  0  0  0
   60.7717   33.8375   47.7627 H   0  0  0  0  0  0  0  0  0  0  0  0
   58.1955   35.3721   45.0739 H   0  0  0  0  0  0  0  0  0  0  0  0
   57.5189   33.9287   43.1602 H   0  0  0  0  0  0  0  0  0  0  0  0
   57.0098   29.1609   42.6483 H   0  0  0  0  0  0  0  0  0  0  0  0
   58.0250   27.2164   42.9906 H   0  0  0  0  0  0  0  0  0  0  0  0
   57.9119   24.7971   43.5460 H   0  0  0  0  0  0  0  0  0  0  0  0
   57.1475   23.5286   48.0631 H   0  0  0  0  0  0  0  0  0  0  0  0
   55.6527   23.7073   47.0831 H   0  0  0  0  0  0  0  0  0  0  0  0
   56.5456   22.1487   47.0831 H   0  0  0  0  0  0  0  0  0  0  0  0
   58.7166   22.0180   45.8635 H   0  0  0  0  0  0  0  0  0  0  0  0
   57.4936   22.1513   44.5545 H   0  0  0  0  0  0  0  0  0  0  0  0
   58.9303   23.2295   44.5545 H   0  0  0  0  0  0  0  0  0  0  0  0
   57.1918   25.7909   47.7023 H   0  0  0  0  0  0  0  0  0  0  0  0
   57.2980   28.2065   47.1413 H   0  0  0  0  0  0  0  0  0  0  0  0
   58.7154   31.8634   47.5594 H   0  0  0  0  0  0  0  0  0  0  0  0
  1  2  1  0
  2  3  1  0
  3  4  1  0
  4  5  1  0
  3  6  1  0
  6  7  1  0
  7  8  1  0
  8  9  1  0
  9 10  1  0
 10 11  1  0
 11 12  1  0
 12 13  2  0
 13 14  1  0
 14 15  2  0
 15 16  1  0
 16 17  2  0
 16 18  1  0
 18 19  2  0
 19 20  1  0
 20 21  2  0
 21 22  1  0
 22 23  2  0
 23 24  1  0
 24 25  1  0
 24 26  1  0
 23 27  1  0
 27 28  2  0
 19 29  1  0
 29 30  1  0
 30 31  2  0
 31 12  1  0
 30 15  1  0
 28 20  1  0
  1 32  1  0
  1 33  1  0
  1 34  1  0
  2 35  1  0
  2 36  1  0
  3 37  1  0
  4 38  1  0
  4 39  1  0
  5 40  1  0
  5 41  1  0
  5 42  1  0
  6 43  1  0
  6 44  1  0
  7 45  1  0
  7 46  1  0
  9 47  1  0
  9 48  1  0
 10 49  1  0
 10 50  1  0
 13 51  1  0
 14 52  1  0
 18 53  1  0
 21 54  1  0
 22 55  1  0
 25 56  1  0
 25 57  1  0
 25 58  1  0
 26 59  1  0
 26 60  1  0
 26 61  1  0
 27 62  1  0
 28 63  1  0
 31 64  1  0
M  CHG  1   3   1
M  END
>  <UniqueID>  (10) 
9

>  <SMILES>  (10) 
CC[NH+](CC)CCOCCOc1ccc2c(=O)cc(-c3ccc(N(C)C)cc3)oc2c1

>  <Energy>  (10) 
77.86597531913925

>  <Genealogy>  (10) 
CC[NH+](CC)CCOCCOc1ccc2c(=O)cc(-c3ccc(N(C)C)cc3)oc2c1 (protonated)
CC[NH+](CC)CCOCCOc1ccc2c(=O)cc(-c3ccc(N(C)C)cc3)oc2c1 (3D coordinates assigned)
CC[NH+](CC)CCOCCOc1ccc2c(=O)cc(-c3ccc(N(C)C)cc3)oc2c1 (optimized conformer: 77.86597531913925 kcal/mol)

>  <smiles>  (10) 
CCN(CC)CCOCCOc1ccc2c(=O)cc(-c3ccc(N(C)C)cc3)oc2c1

>  <score_type>  (10) 
oracle

>  <origin>  (10) 
adg

>  <m_score__min__energy>  (10) 
-5.5899999999999999

>  <m_primary>  (10) 
energy

$$$$
10:0
     RDKit          3D

 33 34  0  0  0  0  0  0  0  0999 V2000
   57.7260   28.1010   44.2710 C   0  0  0  0  0  0  0  0  0  0  0  0
   56.6290   28.2960   45.3110 C   0  0  0  0  0  0  0  0  0  0  0  0
   55.7170   29.3660   44.8710 N   0  0  0  0  0  0  0  0  0  0  0  0
   56.1770   30.0420   43.6480 C   0  0  0  0  0  0  0  0  0  0  0  0
   57.1330   31.1970   43.9750 C   0  0  0  0  0  0  0  0  0  0  0  0
   57.2820   31.3580   45.3870 O   0  0  0  0  0  0  0  0  0  0  0  0
   58.4970   31.3740   46.0920 C   0  0  0  0  0  0  0  0  0  0  0  0
   59.0720   30.2040   46.6170 C   0  0  0  0  0  0  0  0  0  0  0  0
   60.2800   30.2570   47.3100 C   0  0  0  0  0  0  0  0  0  0  0  0
   60.9410   31.4780   47.4900 C   0  0  0  0  0  0  0  0  0  0  0  0
   62.1580   31.5220   48.1890 C   0  0  0  0  0  0  0  0  0  0  0  0
   62.8200   32.7380   48.3710 C   0  0  0  0  0  0  0  0  0  0  0  0
   64.4750   32.7910   49.3240 Br  0  0  0  0  0  0  0  0  0  0  0  0
   62.2750   33.9150   47.8560 C   0  0  0  0  0  0  0  0  0  0  0  0
   61.0640   33.8860   47.1570 C   0  0  0  0  0  0  0  0  0  0  0  0
   60.3800   32.6690   46.9640 C   0  0  0  0  0  0  0  0  0  0  0  0
   59.1530   32.6070   46.2610 C   0  0  0  0  0  0  0  0  0  0  0  0
   58.3190   34.1820   45.5280 Br  0  0  0  0  0  0  0  0  0  0  0  0
   58.6866   27.9302   44.7790 H   0  0  0  0  0  0  0  0  0  0  0  0
   57.4844   27.2317   43.6417 H   0  0  0  0  0  0  0  0  0  0  0  0
   57.7987   29.0003   43.6417 H   0  0  0  0  0  0  0  0  0  0  0  0
   56.0648   27.3590   45.4284 H   0  0  0  0  0  0  0  0  0  0  0  0
   57.0828   28.5749   46.2734 H   0  0  0  0  0  0  0  0  0  0  0  0
   55.6670   30.0870   45.6290 H   0  0  0  0  0  0  0  0  0  0  0  0
   56.7000   29.3135   43.0110 H   0  0  0  0  0  0  0  0  0  0  0  0
   55.2995   30.4543   43.1283 H   0  0  0  0  0  0  0  0  0  0  0  0
   58.1172   30.9850   43.5318 H   0  0  0  0  0  0  0  0  0  0  0  0
   56.7137   32.1254   43.5600 H   0  0  0  0  0  0  0  0  0  0  0  0
   58.5641   29.2380   46.4797 H   0  0  0  0  0  0  0  0  0  0  0  0
   60.7169   29.3337   47.7181 H   0  0  0  0  0  0  0  0  0  0  0  0
   62.5912   30.5958   48.5945 H   0  0  0  0  0  0  0  0  0  0  0  0
   62.8006   34.8704   48.0006 H   0  0  0  0  0  0  0  0  0  0  0  0
   60.6426   34.8193   46.7552 H   0  0  0  0  0  0  0  0  0  0  0  0
  1  2  1  0
  2  3  1  0
  3  4  1  0
  4  5  1  0
  5  6  1  0
  6  7  1  0
  7  8  2  0
  8  9  1  0
  9 10  2  0
 10 11  1  0
 11 12  2  0
 12 13  1  0
 12 14  1  0
 14 15  2  0
 15 16  1  0
 16 17  2  0
 17 18  1  0
 17  7  1  0
 16 10  1  0
  1 19  1  0
  1 20  1  0
  1 21  1  0
  2 22  1  0
  2 23  1  0
  3 24  1  0
  4 25  1  0
  4 26  1  0
  5 27  1  0
  5 28  1  0
  8 29  1  0
  9 30  1  0
 11 31  1  0
 14 32  1  0
 15 33  1  0
M  END
>  <UniqueID>  (11) 
10

>  <SMILES>  (11) 
CCNCCOc1ccc2cc(Br)ccc2c1Br

>  <Energy>  (11) 
35.561111977344076

>  <Genealogy>  (11) 
CCNCCOc1ccc2cc(Br)ccc2c1Br (3D coordinates assigned)
CCNCCOc1ccc2cc(Br)ccc2c1Br (optimized conformer: 35.561111977344076 kcal/mol)

>  <smiles>  (11) 
CCNCCOc1ccc2cc(Br)ccc2c1Br

>  <score_type>  (11) 
oracle

>  <origin>  (11) 
adg

>  <m_score__min__energy>  (11) 
-7.6100000000000003

>  <m_primary>  (11) 
energy

$$$$
11:0
     RDKit          3D

 45 47  0  0  0  0  0  0  0  0999 V2000
   65.4590   32.7720   49.7730 C   0  0  0  0  0  0  0  0  0  0  0  0
   64.2260   31.9560   49.3810 C   0  0  0  0  0  0  0  0  0  0  0  0
   63.2900   32.7340   48.5380 N   0  0  0  0  0  0  0  0  0  0  0  0
   63.7220   32.7950   47.1230 C   0  0  0  0  0  0  0  0  0  0  0  0
   62.8770   33.8170   46.3730 C   0  0  0  0  0  0  0  0  0  0  0  0
   62.9210   34.0670   49.0780 C   0  0  0  0  0  0  0  0  0  0  0  0
   61.5370   34.1120   49.7720 C   0  0  0  0  0  0  0  0  0  0  0  0
   60.6940   32.9620   49.3990 N   0  0  0  0  0  0  0  0  0  0  0  0
   59.9390   33.2200   48.1930 C   0  0  0  0  0  0  0  0  0  0  0  0
   59.6200   34.5620   47.8390 C   0  0  0  0  0  0  0  0  0  0  0  0
   58.9120   34.8570   46.6580 C   0  0  0  0  0  0  0  0  0  0  0  0
   58.5270   33.8040   45.8300 C   0  0  0  0  0  0  0  0  0  0  0  0
   58.8320   32.5250   46.1690 C   0  0  0  0  0  0  0  0  0  0  0  0
   58.3840   31.6310   45.2470 C   0  0  0  0  0  0  0  0  0  0  0  0
   58.6100   30.2660   45.4270 C   0  0  0  0  0  0  0  0  0  0  0  0
   59.3080   29.8480   46.5780 C   0  0  0  0  0  0  0  0  0  0  0  0
   59.7670   30.7910   47.5270 C   0  0  0  0  0  0  0  0  0  0  0  0
   59.5280   32.1700   47.3230 C   0  0  0  0  0  0  0  0  0  0  0  0
   57.6820   32.3390   44.1310 C   0  0  0  0  0  0  0  0  0  0  0  0
   57.7810   33.8380   44.5330 C   0  0  0  0  0  0  0  0  0  0  0  0
   65.5329   32.8209   50.8694 H   0  0  0  0  0  0  0  0  0  0  0  0
   66.3611   32.2920   49.3657 H   0  0  0  0  0  0  0  0  0  0  0  0
   65.3697   33.7899   49.3657 H   0  0  0  0  0  0  0  0  0  0  0  0
   64.5520   31.0667   48.8217 H   0  0  0  0  0  0  0  0  0  0  0  0
   63.6977   31.6746   50.3039 H   0  0  0  0  0  0  0  0  0  0  0  0
   64.7806   33.0904   47.0761 H   0  0  0  0  0  0  0  0  0  0  0  0
   63.5943   31.8056   46.6596 H   0  0  0  0  0  0  0  0  0  0  0  0
   62.3483   34.4564   47.0952 H   0  0  0  0  0  0  0  0  0  0  0  0
   63.5285   34.4385   45.7411 H   0  0  0  0  0  0  0  0  0  0  0  0
   62.1441   33.2939   45.7411 H   0  0  0  0  0  0  0  0  0  0  0  0
   63.6844   34.3649   49.8119 H   0  0  0  0  0  0  0  0  0  0  0  0
   62.8650   34.7510   48.2183 H   0  0  0  0  0  0  0  0  0  0  0  0
   61.6859   34.1043   50.8618 H   0  0  0  0  0  0  0  0  0  0  0  0
   61.0237   35.0289   49.4467 H   0  0  0  0  0  0  0  0  0  0  0  0
   61.2980   32.1190   49.2610 H   0  0  0  0  0  0  0  0  0  0  0  0
   60.0500   32.7270   50.1910 H   0  0  0  0  0  0  0  0  0  0  0  0
   59.9325   35.3835   48.5004 H   0  0  0  0  0  0  0  0  0  0  0  0
   58.6679   35.8967   46.3945 H   0  0  0  0  0  0  0  0  0  0  0  0
   58.2521   29.5336   44.6884 H   0  0  0  0  0  0  0  0  0  0  0  0
   59.4978   28.7767   46.7400 H   0  0  0  0  0  0  0  0  0  0  0  0
   60.3090   30.4524   48.4223 H   0  0  0  0  0  0  0  0  0  0  0  0
   58.1857   32.1554   43.1705 H   0  0  0  0  0  0  0  0  0  0  0  0
   56.6446   31.9998   43.9938 H   0  0  0  0  0  0  0  0  0  0  0  0
   58.3350   34.4123   43.7758 H   0  0  0  0  0  0  0  0  0  0  0  0
   56.7981   34.3246   44.6170 H   0  0  0  0  0  0  0  0  0  0  0  0
  1  2  1  0
  2  3  1  0
  3  4  1  0
  4  5  1  0
  3  6  1  0
  6  7  1  0
  7  8  1  0
  8  9  1  0
  9 10  2  0
 10 11  1  0
 11 12  2  0
 12 13  1  0
 13 14  2  0
 14 15  1  0
 15 16  2  0
 16 17  1  0
 17 18  2  0
 14 19  1  0
 19 20  1  0
 18  9  1  0
 20 12  1  0
 18 13  1  0
  1 21  1  0
  1 22  1  0
  1 23  1  0
  2 24  1  0
  2 25  1  0
  4 26  1  0
  4 27  1  0
  5 28  1  0
  5 29  1  0
  5 30  1  0
  6 31  1  0
  6 32  1  0
  7 33  1  0
  7 34  1  0
  8 35  1  0
  8 36  1  0
 10 37  1  0
 11 38  1  0
 15 39  1  0
 16 40  1  0
 17 41  1  0
 19 42  1  0
 19 43  1  0
 20 44  1  0
 20 45  1  0
M  CHG  1   8   1
M  END
>  <UniqueID>  (12) 
11

>  <SMILES>  (12) 
CCN(CC)CC[NH2+]c1ccc2c3c(cccc13)CC2

>  <Energy>  (12) 
70.03151702334785

>  <Genealogy>  (12) 
CCN(CC)CC[NH2+]c1ccc2c3c(cccc13)CC2 (protonated)
CCN(CC)CC[NH2+]c1ccc2c3c(cccc13)CC2 (3D coordinates assigned)
CCN(CC)CC[NH2+]c1ccc2c3c(cccc13)CC2 (nonaromatic ring conformer: 70.03151702334785 kcal/mol)

>  <smiles>  (12) 
CCN(CC)CCNc1ccc2c3c(cccc13)CC2

>  <score_type>  (12) 
oracle

>  <origin>  (12) 
adg

>  <m_score__min__energy>  (12) 
-4.96

>  <m_primary>  (12) 
energy

$$$$
12:0
     RDKit          3D

 78 81  0  0  0  0  0  0  0  0999 V2000
   56.8610   24.9190   47.0000 C   0  0  0  0  0  0  0  0  0  0  0  0
   56.4700   25.9560   45.9530 C   0  0  0  0  0  0  0  0  0  0  0  0
   57.4940   27.0240   45.8850 N   0  0  0  0  0  0  0  0  0  0  0  0
   57.3920   27.7810   44.6160 C   0  0  0  0  0  0  0  0  0  0  0  0
   58.2160   27.1020   43.5260 C   0  0  0  0  0  0  0  0  0  0  0  0
   58.8560   26.4770   46.0780 C   0  0  0  0  0  0  0  0  0  0  0  0
   59.4250   26.9560   47.4190 C   0  0  0  0  0  0  0  0  0  0  0  0
   59.8580   28.4220   47.3450 C   0  0  0  0  0  0  0  0  0  0  0  0
   58.6870   29.2970   47.2620 N   0  0  0  0  0  0  0  0  0  0  0  0
   58.8230   30.7290   47.1980 C   0  0  0  0  0  0  0  0  0  0  0  0
   58.5220   31.4140   46.0060 C   0  0  0  0  0  0  0  0  0  0  0  0
   58.0860   30.7170   44.8580 C   0  0  0  0  0  0  0  0  0  0  0  0
   57.8590   31.3870   43.6590 C   0  0  0  0  0  0  0  0  0  0  0  0
   58.0750   32.7570   43.5770 C   0  0  0  0  0  0  0  0  0  0  0  0
   58.4900   33.4710   44.7000 C   0  0  0  0  0  0  0  0  0  0  0  0
   58.6850   32.8250   45.9480 C   0  0  0  0  0  0  0  0  0  0  0  0
   59.0440   33.5300   47.0830 N   0  0  0  0  0  0  0  0  0  0  0  0
   58.9310   35.0070   47.1000 C   0  0  0  0  0  0  0  0  0  0  0  0
   59.4670   32.8570   48.2150 C   0  0  0  0  0  0  0  0  0  0  0  0
   60.0750   33.5350   49.3030 C   0  0  0  0  0  0  0  0  0  0  0  0
   60.4230   32.8550   50.4830 C   0  0  0  0  0  0  0  0  0  0  0  0
   61.0140   33.5010   51.5790 O   0  0  0  0  0  0  0  0  0  0  0  0
   62.3980   33.8280   51.6820 C   0  0  0  0  0  0  0  0  0  0  0  0
   63.2760   32.6660   51.1660 C   0  0  0  0  0  0  0  0  0  0  0  0
   63.7620   32.7570   49.7460 N   0  0  0  0  0  0  0  0  0  0  0  0
   65.2500   32.7590   49.7250 C   0  0  0  0  0  0  0  0  0  0  0  0
   63.2590   31.5310   49.0180 C   0  0  0  0  0  0  0  0  0  0  0  0
   62.6660   31.7930   47.6180 C   0  0  0  0  0  0  0  0  0  0  0  0
   63.4930   32.8130   46.8500 C   0  0  0  0  0  0  0  0  0  0  0  0
   63.6000   34.1390   47.6160 C   0  0  0  0  0  0  0  0  0  0  0  0
   63.2450   34.0120   49.1150 C   0  0  0  0  0  0  0  0  0  0  0  0
   60.1740   31.4900   50.5830 C   0  0  0  0  0  0  0  0  0  0  0  0
   59.6190   30.7930   49.5150 C   0  0  0  0  0  0  0  0  0  0  0  0
   59.3070   31.4490   48.3060 C   0  0  0  0  0  0  0  0  0  0  0  0
   56.7038   25.3360   48.0057 H   0  0  0  0  0  0  0  0  0  0  0  0
   56.2403   24.0195   46.8749 H   0  0  0  0  0  0  0  0  0  0  0  0
   57.9211   24.6533   46.8749 H   0  0  0  0  0  0  0  0  0  0  0  0
   56.3881   25.4678   44.9707 H   0  0  0  0  0  0  0  0  0  0  0  0
   55.5038   26.4017   46.2320 H   0  0  0  0  0  0  0  0  0  0  0  0
   56.3386   27.8222   44.3018 H   0  0  0  0  0  0  0  0  0  0  0  0
   57.7783   28.7986   44.7747 H   0  0  0  0  0  0  0  0  0  0  0  0
   58.9858   26.4677   43.9898 H   0  0  0  0  0  0  0  0  0  0  0  0
   57.5570   26.4813   42.9012 H   0  0  0  0  0  0  0  0  0  0  0  0
   58.6993   27.8675   42.9012 H   0  0  0  0  0  0  0  0  0  0  0  0
   58.8120   25.3779   46.0721 H   0  0  0  0  0  0  0  0  0  0  0  0
   59.5061   26.8272   45.2627 H   0  0  0  0  0  0  0  0  0  0  0  0
   58.6529   26.8487   48.1951 H   0  0  0  0  0  0  0  0  0  0  0  0
   60.3066   26.3444   47.6615 H   0  0  0  0  0  0  0  0  0  0  0  0
   60.4362   28.6750   48.2459 H   0  0  0  0  0  0  0  0  0  0  0  0
   60.4756   28.5665   46.4463 H   0  0  0  0  0  0  0  0  0  0  0  0
   57.7850   28.8700   46.9540 H   0  0  0  0  0  0  0  0  0  0  0  0
   57.9236   29.6304   44.9118 H   0  0  0  0  0  0  0  0  0  0  0  0
   57.5086   30.8317   42.7765 H   0  0  0  0  0  0  0  0  0  0  0  0
   57.9179   33.2803   42.6223 H   0  0  0  0  0  0  0  0  0  0  0  0
   58.6693   34.5531   44.6172 H   0  0  0  0  0  0  0  0  0  0  0  0
   58.9039   35.3607   48.1412 H   0  0  0  0  0  0  0  0  0  0  0  0
   59.7981   35.4470   46.5857 H   0  0  0  0  0  0  0  0  0  0  0  0
   58.0070   35.3100   46.5857 H   0  0  0  0  0  0  0  0  0  0  0  0
   60.2779   34.6131   49.2216 H   0  0  0  0  0  0  0  0  0  0  0  0
   62.6016   34.7276   51.0826 H   0  0  0  0  0  0  0  0  0  0  0  0
   62.6396   34.0099   52.7396 H   0  0  0  0  0  0  0  0  0  0  0  0
   64.1609   32.6044   51.8164 H   0  0  0  0  0  0  0  0  0  0  0  0
   62.6221   31.7817   51.1883 H   0  0  0  0  0  0  0  0  0  0  0  0
   65.6313   32.7595   50.7568 H   0  0  0  0  0  0  0  0  0  0  0  0
   65.6105   31.8613   49.2013 H   0  0  0  0  0  0  0  0  0  0  0  0
   65.6081   33.6576   49.2013 H   0  0  0  0  0  0  0  0  0  0  0  0
   64.1017   30.8331   48.9050 H   0  0  0  0  0  0  0  0  0  0  0  0
   62.4351   31.1317   49.6277 H   0  0  0  0  0  0  0  0  0  0  0  0
   62.6477   30.8487   47.0541 H   0  0  0  0  0  0  0  0  0  0  0  0
   61.6485   32.1924   47.7409 H   0  0  0  0  0  0  0  0  0  0  0  0
   64.5036   32.4084   46.6922 H   0  0  0  0  0  0  0  0  0  0  0  0
   62.9958   33.0081   45.8884 H   0  0  0  0  0  0  0  0  0  0  0  0
   64.6330   34.5077   47.5323 H   0  0  0  0  0  0  0  0  0  0  0  0
   62.8735   34.8327   47.1677 H   0  0  0  0  0  0  0  0  0  0  0  0
   63.6743   34.8727   49.6488 H   0  0  0  0  0  0  0  0  0  0  0  0
   62.1477   33.9823   49.1866 H   0  0  0  0  0  0  0  0  0  0  0  0
   60.4180   30.9577   51.5142 H   0  0  0  0  0  0  0  0  0  0  0  0
   59.4207   29.7156   49.6146 H   0  0  0  0  0  0  0  0  0  0  0  0
  1  2  1  0
  2  3  1  0
  3  4  1  0
  4  5  1  0
  3  6  1  0
  6  7  1  0
  7  8  1  0
  8  9  1  0
  9 10  1  0
 10 11  2  0
 11 12  1  0
 12 13  2  0
 13 14  1  0
 14 15  2  0
 15 16  1  0
 16 17  2  0
 17 18  1  0
 17 19  1  0
 19 20  2  0
 20 21  1  0
 21 22  1  0
 22 23  1  0
 23 24  1  0
 24 25  1  0
 25 26  1  0
 25 27  1  0
 27 28  1  0
 28 29  1  0
 29 30  1  0
 30 31  1  0
 21 32  2  0
 32 33  1  0
 33 34  2  0
 34 10  1  0
 16 11  1  0
 34 19  1  0
 31 25  1  0
  1 35  1  0
  1 36  1  0
  1 37  1  0
  2 38  1  0
  2 39  1  0
  4 40  1  0
  4 41  1  0
  5 42  1  0
  5 43  1  0
  5 44  1  0
  6 45  1  0
  6 46  1  0
  7 47  1  0
  7 48  1  0
  8 49  1  0
  8 50  1  0
  9 51  1  0
 12 52  1  0
 13 53  1  0
 14 54  1  0
 15 55  1  0
 18 56  1  0
 18 57  1  0
 18 58  1  0
 20 59  1  0
 23 60  1  0
 23 61  1  0
 24 62  1  0
 24 63  1  0
 26 64  1  0
 26 65  1  0
 26 66  1  0
 27 67  1  0
 27 68  1  0
 28 69  1  0
 28 70  1  0
 29 71  1  0
 29 72  1  0
 30 73  1  0
 30 74  1  0
 31 75  1  0
 31 76  1  0
 32 77  1  0
 33 78  1  0
M  CHG  2  17   1  25   1
M  END
>  <UniqueID>  (13) 
12

>  <SMILES>  (13) 
CCN(CC)CCCNc1c2ccccc2[n+](C)c2cc(OCC[N+]3(C)CCCCC3)ccc12

>  <Energy>  (13) 
118.56140149625811

>  <Genealogy>  (13) 
CCN(CC)CCCNc1c2ccccc2[n+](C)c2cc(OCC[N+]3(C)CCCCC3)ccc12 (3D coordinates assigned)
CCN(CC)CCCNc1c2ccccc2[n+](C)c2cc(OCC[N+]3(C)CCCCC3)ccc12 (nonaromatic ring conformer: 118.56140149625811 kcal/mol)

>  <smiles>  (13) 
CCN(CC)CCCNc1c2ccccc2[n+](C)c2cc(OCC[N+]3(C)CCCCC3)ccc12

>  <score_type>  (13) 
oracle

>  <origin>  (13) 
adg

>  <m_score__min__energy>  (13) 
-5.6900000000000004

>  <m_primary>  (13) 
energy

$$$$
13:0
     RDKit          3D

 80 84  0  0  0  0  0  0  0  0999 V2000
   59.0210   34.5640   45.9840 C   0  0  0  0  0  0  0  0  0  0  0  0
   60.4730   34.2690   46.3450 C   0  0  0  0  0  0  0  0  0  0  0  0
   60.7030   34.5200   47.7830 N   0  0  0  0  0  0  0  0  0  0  0  0
   59.5910   34.0280   48.6300 C   0  0  0  0  0  0  0  0  0  0  0  0
   60.0470   33.7100   50.0530 C   0  0  0  0  0  0  0  0  0  0  0  0
   62.0690   34.1570   48.2410 C   0  0  0  0  0  0  0  0  0  0  0  0
   63.0830   33.7800   47.1300 C   0  0  0  0  0  0  0  0  0  0  0  0
   63.6020   32.4060   47.2680 N   0  0  0  0  0  0  0  0  0  0  0  0
   63.4060   31.9190   48.6190 C   0  0  0  0  0  0  0  0  0  0  0  0
   64.3400   32.2050   49.6610 C   0  0  0  0  0  0  0  0  0  0  0  0
   65.4250   33.0900   49.4560 C   0  0  0  0  0  0  0  0  0  0  0  0
   66.3180   33.3830   50.4830 C   0  0  0  0  0  0  0  0  0  0  0  0
   66.1480   32.8200   51.7400 C   0  0  0  0  0  0  0  0  0  0  0  0
   65.0870   31.9500   51.9830 C   0  0  0  0  0  0  0  0  0  0  0  0
   64.1700   31.6080   50.9580 C   0  0  0  0  0  0  0  0  0  0  0  0
   63.1210   30.7390   51.1980 N   0  0  0  0  0  0  0  0  0  0  0  0
   63.0070   29.9990   52.4700 C   0  0  0  0  0  0  0  0  0  0  0  0
   62.1620   30.5900   50.2330 C   0  0  0  0  0  0  0  0  0  0  0  0
   60.9940   29.9180   50.3740 N   0  0  0  0  0  0  0  0  0  0  0  0
   60.3630   30.0500   49.1950 C   0  0  0  0  0  0  0  0  0  0  0  0
   59.1020   29.5520   48.8780 C   0  0  0  0  0  0  0  0  0  0  0  0
   58.5800   29.8250   47.6060 C   0  0  0  0  0  0  0  0  0  0  0  0
   59.3210   30.5970   46.6750 C   0  0  0  0  0  0  0  0  0  0  0  0
   58.8350   30.9010   45.3950 O   0  0  0  0  0  0  0  0  0  0  0  0
   57.5700   30.4820   44.8900 C   0  0  0  0  0  0  0  0  0  0  0  0
   57.8030   29.4450   43.7710 C   0  0  0  0  0  0  0  0  0  0  0  0
   58.3150   28.1030   44.2080 N   0  0  0  0  0  0  0  0  0  0  0  0
   58.1370   27.1230   43.1010 C   0  0  0  0  0  0  0  0  0  0  0  0
   57.5610   27.6450   45.4160 C   0  0  0  0  0  0  0  0  0  0  0  0
   58.0930   26.3210   46.0080 C   0  0  0  0  0  0  0  0  0  0  0  0
   59.6240   26.2130   45.9840 C   0  0  0  0  0  0  0  0  0  0  0  0
   60.2740   27.5760   45.7990 C   0  0  0  0  0  0  0  0  0  0  0  0
   59.7910   28.2550   44.5010 C   0  0  0  0  0  0  0  0  0  0  0  0
   60.5890   31.0890   47.0310 C   0  0  0  0  0  0  0  0  0  0  0  0
   61.1030   30.7960   48.3000 C   0  0  0  0  0  0  0  0  0  0  0  0
   62.2770   31.1540   48.9720 C   0  0  0  0  0  0  0  0  0  0  0  0
   58.4313   34.6838   46.9048 H   0  0  0  0  0  0  0  0  0  0  0  0
   58.9710   35.4907   45.3934 H   0  0  0  0  0  0  0  0  0  0  0  0
   58.6134   33.7303   45.3934 H   0  0  0  0  0  0  0  0  0  0  0  0
   60.6965   33.2158   46.1198 H   0  0  0  0  0  0  0  0  0  0  0  0
   61.1297   34.9267   45.7566 H   0  0  0  0  0  0  0  0  0  0  0  0
   58.8095   34.8009   48.6728 H   0  0  0  0  0  0  0  0  0  0  0  0
   59.2104   33.0985   48.1815 H   0  0  0  0  0  0  0  0  0  0  0  0
   59.3641   34.1862   50.7719 H   0  0  0  0  0  0  0  0  0  0  0  0
   60.0389   32.6207   50.2058 H   0  0  0  0  0  0  0  0  0  0  0  0
   61.0664   34.0941   50.2058 H   0  0  0  0  0  0  0  0  0  0  0  0
   62.4783   35.0166   48.7920 H   0  0  0  0  0  0  0  0  0  0  0  0
   61.9453   33.2486   48.8489 H   0  0  0  0  0  0  0  0  0  0  0  0
   62.5837   33.8701   46.1540 H   0  0  0  0  0  0  0  0  0  0  0  0
   63.9384   34.4661   47.2175 H   0  0  0  0  0  0  0  0  0  0  0  0
   63.1500   31.7570   46.5950 H   0  0  0  0  0  0  0  0  0  0  0  0
   64.6140   32.3620   47.0160 H   0  0  0  0  0  0  0  0  0  0  0  0
   65.5652   33.5542   48.4686 H   0  0  0  0  0  0  0  0  0  0  0  0
   67.1619   34.0637   50.2974 H   0  0  0  0  0  0  0  0  0  0  0  0
   66.8540   33.0616   52.5482 H   0  0  0  0  0  0  0  0  0  0  0  0
   64.9590   31.5212   52.9879 H   0  0  0  0  0  0  0  0  0  0  0  0
   63.1148   30.6985   53.3121 H   0  0  0  0  0  0  0  0  0  0  0  0
   62.0230   29.5103   52.5229 H   0  0  0  0  0  0  0  0  0  0  0  0
   63.7983   29.2368   52.5229 H   0  0  0  0  0  0  0  0  0  0  0  0
   60.6090   29.4410   51.2180 H   0  0  0  0  0  0  0  0  0  0  0  0
   58.5300   28.9594   49.6071 H   0  0  0  0  0  0  0  0  0  0  0  0
   57.5887   29.4378   47.3279 H   0  0  0  0  0  0  0  0  0  0  0  0
   56.9805   30.0269   45.6996 H   0  0  0  0  0  0  0  0  0  0  0  0
   57.0205   31.3472   44.4908 H   0  0  0  0  0  0  0  0  0  0  0  0
   56.8445   29.2869   43.2549 H   0  0  0  0  0  0  0  0  0  0  0  0
   58.5943   29.8697   43.1357 H   0  0  0  0  0  0  0  0  0  0  0  0
   57.9554   26.1232   43.5221 H   0  0  0  0  0  0  0  0  0  0  0  0
   57.2784   27.4215   42.4816 H   0  0  0  0  0  0  0  0  0  0  0  0
   59.0457   27.1005   42.4816 H   0  0  0  0  0  0  0  0  0  0  0  0
   57.6326   28.4254   46.1879 H   0  0  0  0  0  0  0  0  0  0  0  0
   56.5227   27.4648   45.1007 H   0  0  0  0  0  0  0  0  0  0  0  0
   57.7546   26.2452   47.0519 H   0  0  0  0  0  0  0  0  0  0  0  0
   57.7005   25.5054   45.3829 H   0  0  0  0  0  0  0  0  0  0  0  0
   59.9671   25.7790   46.9348 H   0  0  0  0  0  0  0  0  0  0  0  0
   59.9126   25.5740   45.1364 H   0  0  0  0  0  0  0  0  0  0  0  0
   60.0155   28.2157   46.6557 H   0  0  0  0  0  0  0  0  0  0  0  0
   61.3630   27.4356   45.7332 H   0  0  0  0  0  0  0  0  0  0  0  0
   60.0148   29.3295   44.5749 H   0  0  0  0  0  0  0  0  0  0  0  0
   60.3199   27.7528   43.6776 H   0  0  0  0  0  0  0  0  0  0  0  0
   61.1700   31.6965   46.3215 H   0  0  0  0  0  0  0  0  0  0  0  0
  1  2  1  0
  2  3  1  0
  3  4  1  0
  4  5  1  0
  3  6  1  0
  6  7  1  0
  7  8  1  0
  8  9  1  0
  9 10  2  0
 10 11  1  0
 11 12  2  0
 12 13  1  0
 13 14  2  0
 14 15  1  0
 15 16  2  0
 16 17  1  0
 16 18  1  0
 18 19  1  0
 19 20  1  0
 20 21  2  0
 21 22  1  0
 22 23  2  0
 23 24  1  0
 24 25  1  0
 25 26  1  0
 26 27  1  0
 27 28  1  0
 27 29  1  0
 29 30  1  0
 30 31  1  0
 31 32  1  0
 32 33  1  0
 23 34  1  0
 34 35  2  0
 35 36  1  0
 36  9  1  0
 15 10  1  0
 36 18  2  0
 35 20  1  0
 33 27  1  0
  1 37  1  0
  1 38  1  0
  1 39  1  0
  2 40  1  0
  2 41  1  0
  4 42  1  0
  4 43  1  0
  5 44  1  0
  5 45  1  0
  5 46  1  0
  6 47  1  0
  6 48  1  0
  7 49  1  0
  7 50  1  0
  8 51  1  0
  8 52  1  0
 11 53  1  0
 12 54  1  0
 13 55  1  0
 14 56  1  0
 17 57  1  0
 17 58  1  0
 17 59  1  0
 19 60  1  0
 21 61  1  0
 22 62  1  0
 25 63  1  0
 25 64  1  0
 26 65  1  0
 26 66  1  0
 28 67  1  0
 28 68  1  0
 28 69  1  0
 29 70  1  0
 29 71  1  0
 30 72  1  0
 30 73  1  0
 31 74  1  0
 31 75  1  0
 32 76  1  0
 32 77  1  0
 33 78  1  0
 33 79  1  0
 34 80  1  0
M  CHG  3   8   1  16   1  27   1
M  END
>  <UniqueID>  (14) 
13

>  <SMILES>  (14) 
CCN(CC)CC[NH2+]c1c2ccccc2[n+](C)c2[nH]c3ccc(OCC[N+]4(C)CCCCC4)cc3c12

>  <Energy>  (14) 
160.87758706960847

>  <Genealogy>  (14) 
CCN(CC)CC[NH2+]c1c2ccccc2[n+](C)c2[nH]c3ccc(OCC[N+]4(C)CCCCC4)cc3c12 (protonated)
CCN(CC)CC[NH2+]c1c2ccccc2[n+](C)c2[nH]c3ccc(OCC[N+]4(C)CCCCC4)cc3c12 (3D coordinates assigned)
CCN(CC)CC[NH2+]c1c2ccccc2[n+](C)c2[nH]c3ccc(OCC[N+]4(C)CCCCC4)cc3c12 (nonaromatic ring conformer: 160.87758706960847 kcal/mol)

>  <smiles>  (14) 
CCN(CC)CCNc1c2ccccc2[n+](C)c2[nH]c3ccc(OCC[N+]4(C)CCCCC4)cc3c12

>  <score_type>  (14) 
oracle

>  <origin>  (14) 
adg

>  <m_score__min__energy>  (14) 
-4.5700000000000003

>  <m_primary>  (14) 
energy

$$$$
14:0
     RDKit          3D

 58 61  0  0  0  0  0  0  0  0999 V2000
   55.3070   23.3930   46.1850 C   0  0  0  0  0  0  0  0  0  0  0  0
   55.9860   24.3500   46.9910 O   0  0  0  0  0  0  0  0  0  0  0  0
   56.7930   25.3800   46.4850 C   0  0  0  0  0  0  0  0  0  0  0  0
   58.2140   25.2960   46.4750 C   0  0  0  0  0  0  0  0  0  0  0  0
   58.9920   26.3490   45.9570 C   0  0  0  0  0  0  0  0  0  0  0  0
   58.3220   27.4660   45.4530 C   0  0  0  0  0  0  0  0  0  0  0  0
   56.9610   27.5520   45.4690 C   0  0  0  0  0  0  0  0  0  0  0  0
   56.1620   26.5310   45.9770 C   0  0  0  0  0  0  0  0  0  0  0  0
   56.5560   28.7310   44.9650 N   0  0  0  0  0  0  0  0  0  0  0  0
   57.7220   29.3460   44.6420 C   0  0  0  0  0  0  0  0  0  0  0  0
   57.7510   30.7450   44.0910 C   0  0  0  0  0  0  0  0  0  0  0  0
   58.0190   31.7170   45.1720 N   0  0  0  0  0  0  0  0  0  0  0  0
   57.1370   32.9090   45.1210 C   0  0  0  0  0  0  0  0  0  0  0  0
   57.4510   33.9990   46.1610 C   0  0  0  0  0  0  0  0  0  0  0  0
   58.8930   34.0240   46.6910 C   0  0  0  0  0  0  0  0  0  0  0  0
   59.1540   33.0470   47.7720 N   0  0  0  0  0  0  0  0  0  0  0  0
   60.2080   33.5060   48.7010 C   0  0  0  0  0  0  0  0  0  0  0  0
   61.5860   33.2940   48.1060 C   0  0  0  0  0  0  0  0  0  0  0  0
   61.9310   34.0290   46.9550 C   0  0  0  0  0  0  0  0  0  0  0  0
   63.1740   33.8630   46.3480 C   0  0  0  0  0  0  0  0  0  0  0  0
   64.0940   32.9650   46.8770 C   0  0  0  0  0  0  0  0  0  0  0  0
   63.7770   32.2240   48.0150 C   0  0  0  0  0  0  0  0  0  0  0  0
   62.5220   32.3630   48.6450 C   0  0  0  0  0  0  0  0  0  0  0  0
   62.2250   31.5610   49.9000 C   0  0  0  0  0  0  0  0  0  0  0  0
   63.3910   31.0310   50.4170 F   0  0  0  0  0  0  0  0  0  0  0  0
   61.6480   32.3440   50.8860 F   0  0  0  0  0  0  0  0  0  0  0  0
   61.3480   30.5350   49.6000 F   0  0  0  0  0  0  0  0  0  0  0  0
   59.3300   31.6260   47.3610 C   0  0  0  0  0  0  0  0  0  0  0  0
   58.1900   31.0540   46.4910 C   0  0  0  0  0  0  0  0  0  0  0  0
   58.8240   28.5920   44.9150 N   0  0  0  0  0  0  0  0  0  0  0  0
   60.2310   28.9640   44.7640 C   0  0  0  0  0  0  0  0  0  0  0  0
   54.7923   22.6676   46.8323 H   0  0  0  0  0  0  0  0  0  0  0  0
   54.5695   23.9057   45.5500 H   0  0  0  0  0  0  0  0  0  0  0  0
   56.0345   22.8662   45.5500 H   0  0  0  0  0  0  0  0  0  0  0  0
   58.7092   24.3994   46.8760 H   0  0  0  0  0  0  0  0  0  0  0  0
   60.0906   26.2938   45.9495 H   0  0  0  0  0  0  0  0  0  0  0  0
   55.0657   26.6217   45.9812 H   0  0  0  0  0  0  0  0  0  0  0  0
   58.5432   30.8195   43.3315 H   0  0  0  0  0  0  0  0  0  0  0  0
   56.7738   30.9721   43.6399 H   0  0  0  0  0  0  0  0  0  0  0  0
   57.2270   33.3568   44.1203 H   0  0  0  0  0  0  0  0  0  0  0  0
   56.1231   32.5496   45.3508 H   0  0  0  0  0  0  0  0  0  0  0  0
   57.2446   34.9756   45.6988 H   0  0  0  0  0  0  0  0  0  0  0  0
   56.8175   33.7722   47.0312 H   0  0  0  0  0  0  0  0  0  0  0  0
   59.5728   33.8043   45.8546 H   0  0  0  0  0  0  0  0  0  0  0  0
   59.0575   35.0239   47.1190 H   0  0  0  0  0  0  0  0  0  0  0  0
   60.0655   34.5773   48.9058 H   0  0  0  0  0  0  0  0  0  0  0  0
   60.1341   32.9229   49.6308 H   0  0  0  0  0  0  0  0  0  0  0  0
   61.2101   34.7429   46.5301 H   0  0  0  0  0  0  0  0  0  0  0  0
   63.4278   34.4434   45.4487 H   0  0  0  0  0  0  0  0  0  0  0  0
   65.0753   32.8385   46.3963 H   0  0  0  0  0  0  0  0  0  0  0  0
   64.5158   31.5211   48.4275 H   0  0  0  0  0  0  0  0  0  0  0  0
   60.2669   31.5492   46.7898 H   0  0  0  0  0  0  0  0  0  0  0  0
   59.3355   31.0353   48.2889 H   0  0  0  0  0  0  0  0  0  0  0  0
   58.3967   29.9882   46.3139 H   0  0  0  0  0  0  0  0  0  0  0  0
   57.2579   31.2290   47.0483 H   0  0  0  0  0  0  0  0  0  0  0  0
   60.6871   29.0846   45.7577 H   0  0  0  0  0  0  0  0  0  0  0  0
   60.7614   28.1752   44.2104 H   0  0  0  0  0  0  0  0  0  0  0  0
   60.3023   29.9119   44.2104 H   0  0  0  0  0  0  0  0  0  0  0  0
  1  2  1  0
  2  3  1  0
  3  4  2  0
  4  5  1  0
  5  6  2  0
  6  7  1  0
  7  8  2  0
  7  9  1  0
  9 10  2  0
 10 11  1  0
 11 12  1  0
 12 13  1  0
 13 14  1  0
 14 15  1  0
 15 16  1  0
 16 17  1  0
 17 18  1  0
 18 19  2  0
 19 20  1  0
 20 21  2  0
 21 22  1  0
 22 23  2  0
 23 24  1  0
 24 25  1  0
 24 26  1  0
 24 27  1  0
 16 28  1  0
 28 29  1  0
 10 30  1  0
 30 31  1  0
  8  3  1  0
 29 12  1  0
 30  6  1  0
 23 18  1  0
  1 32  1  0
  1 33  1  0
  1 34  1  0
  4 35  1  0
  5 36  1  0
  8 37  1  0
 11 38  1  0
 11 39  1  0
 13 40  1  0
 13 41  1  0
 14 42  1  0
 14 43  1  0
 15 44  1  0
 15 45  1  0
 17 46  1  0
 17 47  1  0
 19 48  1  0
 20 49  1  0
 21 50  1  0
 22 51  1  0
 28 52  1  0
 28 53  1  0
 29 54  1  0
 29 55  1  0
 31 56  1  0
 31 57  1  0
 31 58  1  0
M  END
>  <UniqueID>  (15) 
14

>  <SMILES>  (15) 
COc1ccc2c(c1)nc(CN1CCCN(Cc3ccccc3C(F)(F)F)CC1)n2C

>  <Energy>  (15) 
123.40085148369874

>  <Genealogy>  (15) 
COc1ccc2c(c1)nc(CN1CCCN(Cc3ccccc3C(F)(F)F)CC1)n2C (3D coordinates assigned)
COc1ccc2c(c1)nc(CN1CCCN(Cc3ccccc3C(F)(F)F)CC1)n2C (nonaromatic ring conformer: 123.40085148369874 kcal/mol)

>  <smiles>  (15) 
COc1ccc2c(c1)nc(CN1CCCN(Cc3ccccc3C(F)(F)F)CC1)n2C

>  <score_type>  (15) 
oracle

>  <origin>  (15) 
adg

>  <m_score__min__energy>  (15) 
-5.3300000000000001

>  <m_primary>  (15) 
energy

$$$$
15:0
     RDKit          3D

 58 61  0  0  0  0  0  0  0  0999 V2000
   58.1090   33.6280   52.4060 C   0  0  0  0  0  0  0  0  0  0  0  0
   58.4010   32.4190   51.5670 C   0  0  0  0  0  0  0  0  0  0  0  0
   59.5180   32.4110   50.7960 N   0  0  0  0  0  0  0  0  0  0  0  0
   59.8520   31.3540   50.0110 C   0  0  0  0  0  0  0  0  0  0  0  0
   61.1310   31.4260   49.2140 C   0  0  0  0  0  0  0  0  0  0  0  0
   61.6920   32.7960   49.2240 N   0  0  0  0  0  0  0  0  0  0  0  0
   63.0850   32.8090   48.7180 C   0  0  0  0  0  0  0  0  0  0  0  0
   63.5370   34.1430   48.0660 C   0  0  0  0  0  0  0  0  0  0  0  0
   62.9810   34.4290   46.7910 O   0  0  0  0  0  0  0  0  0  0  0  0
   62.0660   33.4340   46.3760 C   0  0  0  0  0  0  0  0  0  0  0  0
   60.6620   33.6690   47.0340 C   0  0  1  0  0  0  0  0  0  0  0  0
   59.9680   34.9060   46.4240 C   0  0  0  0  0  0  0  0  0  0  0  0
   59.2130   34.3880   45.2080 C   0  0  0  0  0  0  0  0  0  0  0  0
   59.0080   32.9680   45.4510 N   0  0  0  0  0  0  0  0  0  0  0  0
   58.1720   32.1200   44.6290 C   0  0  0  0  0  0  0  0  0  0  0  0
   57.9960   32.3940   43.2560 C   0  0  0  0  0  0  0  0  0  0  0  0
   57.1860   31.5730   42.4660 C   0  0  0  0  0  0  0  0  0  0  0  0
   56.5420   30.4700   43.0300 C   0  0  0  0  0  0  0  0  0  0  0  0
   56.7070   30.1850   44.3870 C   0  0  0  0  0  0  0  0  0  0  0  0
   57.5160   31.0020   45.1820 C   0  0  0  0  0  0  0  0  0  0  0  0
   59.7070   32.5150   46.6450 C   0  0  0  0  0  0  0  0  0  0  0  0
   60.7570   33.7610   48.5890 C   0  0  0  0  0  0  0  0  0  0  0  0
   59.0080   30.2230   49.9940 C   0  0  0  0  0  0  0  0  0  0  0  0
   59.3390   29.0040   49.1730 C   0  0  0  0  0  0  0  0  0  0  0  0
   57.8890   30.2230   50.7760 N   0  0  0  0  0  0  0  0  0  0  0  0
   57.5580   31.2900   51.5600 C   0  0  0  0  0  0  0  0  0  0  0  0
   56.3120   31.2420   52.4040 C   0  0  0  0  0  0  0  0  0  0  0  0
   58.1738   33.3597   53.4708 H   0  0  0  0  0  0  0  0  0  0  0  0
   58.8426   34.4162   52.1812 H   0  0  0  0  0  0  0  0  0  0  0  0
   57.0965   33.9945   52.1812 H   0  0  0  0  0  0  0  0  0  0  0  0
   61.8658   30.7342   49.6516 H   0  0  0  0  0  0  0  0  0  0  0  0
   60.9087   31.1484   48.1731 H   0  0  0  0  0  0  0  0  0  0  0  0
   63.7565   32.5984   49.5634 H   0  0  0  0  0  0  0  0  0  0  0  0
   63.1290   32.0497   47.9234 H   0  0  0  0  0  0  0  0  0  0  0  0
   63.2595   34.9618   48.7462 H   0  0  0  0  0  0  0  0  0  0  0  0
   64.6203   34.0431   47.9031 H   0  0  0  0  0  0  0  0  0  0  0  0
   61.9633   33.4707   45.2814 H   0  0  0  0  0  0  0  0  0  0  0  0
   62.4450   32.4499   46.6889 H   0  0  0  0  0  0  0  0  0  0  0  0
   59.2708   35.3523   47.1484 H   0  0  0  0  0  0  0  0  0  0  0  0
   60.6918   35.6887   46.1530 H   0  0  0  0  0  0  0  0  0  0  0  0
   58.2467   34.9039   45.1074 H   0  0  0  0  0  0  0  0  0  0  0  0
   59.7705   34.5654   44.2765 H   0  0  0  0  0  0  0  0  0  0  0  0
   58.5003   33.2607   42.8036 H   0  0  0  0  0  0  0  0  0  0  0  0
   57.0556   31.7966   41.3969 H   0  0  0  0  0  0  0  0  0  0  0  0
   55.9051   29.8260   42.4058 H   0  0  0  0  0  0  0  0  0  0  0  0
   56.1995   29.3160   44.8312 H   0  0  0  0  0  0  0  0  0  0  0  0
   57.6418   30.7700   46.2499 H   0  0  0  0  0  0  0  0  0  0  0  0
   58.9915   32.3189   47.4572 H   0  0  0  0  0  0  0  0  0  0  0  0
   60.2545   31.5782   46.4642 H   0  0  0  0  0  0  0  0  0  0  0  0
   61.0874   34.7772   48.8502 H   0  0  0  0  0  0  0  0  0  0  0  0
   59.7559   33.5126   48.9712 H   0  0  0  0  0  0  0  0  0  0  0  0
   59.5677   28.1619   49.8427 H   0  0  0  0  0  0  0  0  0  0  0  0
   58.4788   28.7447   48.5384 H   0  0  0  0  0  0  0  0  0  0  0  0
   60.2123   29.2154   48.5384 H   0  0  0  0  0  0  0  0  0  0  0  0
   57.2700   29.3800   50.7780 H   0  0  0  0  0  0  0  0  0  0  0  0
   56.5895   31.2527   53.4684 H   0  0  0  0  0  0  0  0  0  0  0  0
   55.6836   32.1166   52.1801 H   0  0  0  0  0  0  0  0  0  0  0  0
   55.7527   30.3216   52.1801 H   0  0  0  0  0  0  0  0  0  0  0  0
  1  2  1  0
  2  3  2  0
  3  4  1  0
  4  5  1  0
  5  6  1  0
  6  7  1  0
  7  8  1  0
  8  9  1  0
  9 10  1  0
 11 10  1  6
 11 12  1  0
 12 13  1  0
 13 14  1  0
 14 15  1  0
 15 16  2  0
 16 17  1  0
 17 18  2  0
 18 19  1  0
 19 20  2  0
 14 21  1  0
 11 22  1  0
  4 23  2  0
 23 24  1  0
 23 25  1  0
 25 26  2  0
 26 27  1  0
 26  2  1  0
 22  6  1  0
 21 11  1  0
 20 15  1  0
  1 28  1  0
  1 29  1  0
  1 30  1  0
  5 31  1  0
  5 32  1  0
  7 33  1  0
  7 34  1  0
  8 35  1  0
  8 36  1  0
 10 37  1  0
 10 38  1  0
 12 39  1  0
 12 40  1  0
 13 41  1  0
 13 42  1  0
 16 43  1  0
 17 44  1  0
 18 45  1  0
 19 46  1  0
 20 47  1  0
 21 48  1  0
 21 49  1  0
 22 50  1  0
 22 51  1  0
 24 52  1  0
 24 53  1  0
 24 54  1  0
 25 55  1  0
 27 56  1  0
 27 57  1  0
 27 58  1  0
M  CHG  1  25   1
M  END
>  <UniqueID>  (16) 
15

>  <SMILES>  (16) 
Cc1nc(CN2CCOC[C@]3(CCN(c4ccccc4)C3)C2)c(C)[nH+]c1C

>  <Energy>  (16) 
86.4021591955004

>  <Genealogy>  (16) 
Cc1nc(CN2CCOCC3(CCN(c4ccccc4)C3)C2)c(C)[nH+]c1C (protonated)
Cc1nc(CN2CCOC[C@]3(CCN(c4ccccc4)C3)C2)c(C)[nH+]c1C (chirality)
Cc1nc(CN2CCOC[C@]3(CCN(c4ccccc4)C3)C2)c(C)[nH+]c1C (3D coordinates assigned)
Cc1nc(CN2CCOC[C@]3(CCN(c4ccccc4)C3)C2)c(C)[nH+]c1C (nonaromatic ring conformer: 86.4021591955004 kcal/mol)

>  <smiles>  (16) 
Cc1nc(C)c(CN2CCOCC3(CCN(c4ccccc4)C3)C2)nc1C

>  <score_type>  (16) 
oracle

>  <origin>  (16) 
adg

>  <m_score__min__energy>  (16) 
-5.3600000000000003

>  <m_primary>  (16) 
energy

$$$$
16:0
     RDKit          3D

 46 47  0  0  0  0  0  0  0  0999 V2000
   58.1450   27.2030   43.1050 C   0  0  0  0  0  0  0  0  0  0  0  0
   58.9320   27.8820   44.2250 C   0  0  0  0  0  0  0  0  0  0  0  0
   58.1990   29.0400   44.7920 N   0  0  0  0  0  0  0  0  0  0  0  0
   58.2890   29.0720   46.2700 C   0  0  0  0  0  0  0  0  0  0  0  0
   59.6810   29.5180   46.7040 C   0  0  0  0  0  0  0  0  0  0  0  0
   56.8010   29.1680   44.3110 C   0  0  0  0  0  0  0  0  0  0  0  0
   56.3540   30.6160   44.0460 C   0  0  0  0  0  0  0  0  0  0  0  0
   57.0420   31.4750   44.9320 O   0  0  0  0  0  0  0  0  0  0  0  0
   57.8550   32.3860   44.2150 C   0  0  0  0  0  0  0  0  0  0  0  0
   57.4450   33.8280   44.5260 C   0  0  0  0  0  0  0  0  0  0  0  0
   57.7260   34.1590   45.8880 O   0  0  0  0  0  0  0  0  0  0  0  0
   58.8160   33.6870   46.6370 C   0  0  0  0  0  0  0  0  0  0  0  0
   58.6610   32.9160   47.8060 C   0  0  0  0  0  0  0  0  0  0  0  0
   59.7810   32.4710   48.5150 C   0  0  0  0  0  0  0  0  0  0  0  0
   61.0710   32.7820   48.0660 C   0  0  0  0  0  0  0  0  0  0  0  0
   62.2010   32.3400   48.7710 C   0  0  0  0  0  0  0  0  0  0  0  0
   63.4830   32.6590   48.3120 C   0  0  0  0  0  0  0  0  0  0  0  0
   63.6450   33.4170   47.1490 C   0  0  0  0  0  0  0  0  0  0  0  0
   62.5270   33.8640   46.4390 C   0  0  0  0  0  0  0  0  0  0  0  0
   61.2350   33.5520   46.8890 C   0  0  0  0  0  0  0  0  0  0  0  0
   60.1060   33.9940   46.1850 C   0  0  0  0  0  0  0  0  0  0  0  0
   57.3806   26.5435   43.5417 H   0  0  0  0  0  0  0  0  0  0  0  0
   57.6572   27.9684   42.4835 H   0  0  0  0  0  0  0  0  0  0  0  0
   58.8306   26.6083   42.4835 H   0  0  0  0  0  0  0  0  0  0  0  0
   59.1147   27.1501   45.0256 H   0  0  0  0  0  0  0  0  0  0  0  0
   59.8779   28.2511   43.8019 H   0  0  0  0  0  0  0  0  0  0  0  0
   57.5423   29.7771   46.6642 H   0  0  0  0  0  0  0  0  0  0  0  0
   58.0971   28.0626   46.6629 H   0  0  0  0  0  0  0  0  0  0  0  0
   59.7346   29.5352   47.8026 H   0  0  0  0  0  0  0  0  0  0  0  0
   60.4303   28.8150   46.3113 H   0  0  0  0  0  0  0  0  0  0  0  0
   59.8823   30.5256   46.3113 H   0  0  0  0  0  0  0  0  0  0  0  0
   56.7057   28.6007   43.3734 H   0  0  0  0  0  0  0  0  0  0  0  0
   56.1549   28.7799   45.1122 H   0  0  0  0  0  0  0  0  0  0  0  0
   56.5892   30.8911   43.0073 H   0  0  0  0  0  0  0  0  0  0  0  0
   55.2693   30.7069   44.2046 H   0  0  0  0  0  0  0  0  0  0  0  0
   58.9061   32.2380   44.5035 H   0  0  0  0  0  0  0  0  0  0  0  0
   57.7290   32.2042   43.1375 H   0  0  0  0  0  0  0  0  0  0  0  0
   58.0028   34.5103   43.8677 H   0  0  0  0  0  0  0  0  0  0  0  0
   56.3626   33.9283   44.3575 H   0  0  0  0  0  0  0  0  0  0  0  0
   57.6520   32.6624   48.1633 H   0  0  0  0  0  0  0  0  0  0  0  0
   59.6486   31.8741   49.4294 H   0  0  0  0  0  0  0  0  0  0  0  0
   62.0783   31.7418   49.6859 H   0  0  0  0  0  0  0  0  0  0  0  0
   64.3665   32.3123   48.8680 H   0  0  0  0  0  0  0  0  0  0  0  0
   64.6558   33.6626   46.7912 H   0  0  0  0  0  0  0  0  0  0  0  0
   62.6603   34.4618   45.5253 H   0  0  0  0  0  0  0  0  0  0  0  0
   60.2344   34.5881   45.2682 H   0  0  0  0  0  0  0  0  0  0  0  0
  1  2  1  0
  2  3  1  0
  3  4  1  0
  4  5  1  0
  3  6  1  0
  6  7  1  0
  7  8  1  0
  8  9  1  0
  9 10  1  0
 10 11  1  0
 11 12  1  0
 12 13  2  0
 13 14  1  0
 14 15  2  0
 15 16  1  0
 16 17  2  0
 17 18  1  0
 18 19  2  0
 19 20  1  0
 20 21  2  0
 21 12  1  0
 20 15  1  0
  1 22  1  0
  1 23  1  0
  1 24  1  0
  2 25  1  0
  2 26  1  0
  4 27  1  0
  4 28  1  0
  5 29  1  0
  5 30  1  0
  5 31  1  0
  6 32  1  0
  6 33  1  0
  7 34  1  0
  7 35  1  0
  9 36  1  0
  9 37  1  0
 10 38  1  0
 10 39  1  0
 13 40  1  0
 14 41  1  0
 16 42  1  0
 17 43  1  0
 18 44  1  0
 19 45  1  0
 21 46  1  0
M  END
>  <UniqueID>  (17) 
16

>  <SMILES>  (17) 
CCN(CC)CCOCCOc1ccc2ccccc2c1

>  <Energy>  (17) 
49.45539936436014

>  <Genealogy>  (17) 
CCN(CC)CCOCCOc1ccc2ccccc2c1 (3D coordinates assigned)
CCN(CC)CCOCCOc1ccc2ccccc2c1 (optimized conformer: 49.45539936436014 kcal/mol)

>  <smiles>  (17) 
CCN(CC)CCOCCOc1ccc2ccccc2c1

>  <score_type>  (17) 
oracle

>  <origin>  (17) 
adg

>  <m_score__min__energy>  (17) 
-6.6299999999999999

>  <m_primary>  (17) 
energy

$$$$
17:0
     RDKit          3D

 61 64  0  0  0  0  0  0  0  0999 V2000
   60.0100   35.3580   45.9960 C   0  0  0  0  0  0  0  0  0  0  0  0
   59.4550   34.9830   47.3690 C   0  0  0  0  0  0  0  0  0  0  0  0
   59.2450   33.5320   47.4770 N   0  0  0  0  0  0  0  0  0  0  0  0
   59.5640   32.6750   48.4950 C   0  0  0  0  0  0  0  0  0  0  0  0
   60.2140   33.0550   49.8090 C   0  0  0  0  0  0  0  0  0  0  0  0
   61.6270   32.6160   49.9640 N   0  0  0  0  0  0  0  0  0  0  0  0
   62.0200   31.5060   49.0530 C   0  0  0  0  0  0  0  0  0  0  0  0
   62.5410   31.9650   47.6680 C   0  0  0  0  0  0  0  0  0  0  0  0
   62.7010   33.4270   47.5970 N   0  0  0  0  0  0  0  0  0  0  0  0
   63.3730   33.8120   46.3450 C   0  0  0  0  0  0  0  0  0  0  0  0
   63.4670   33.8820   48.7620 C   0  0  0  0  0  0  0  0  0  0  0  0
   62.6070   33.7380   50.0270 C   0  0  0  0  0  0  0  0  0  0  0  0
   59.1450   31.4010   48.2690 N   0  0  0  0  0  0  0  0  0  0  0  0
   58.5690   31.4720   47.0580 C   0  0  0  0  0  0  0  0  0  0  0  0
   57.9740   30.4340   46.3460 C   0  0  0  0  0  0  0  0  0  0  0  0
   57.3970   30.7390   45.0970 C   0  0  0  0  0  0  0  0  0  0  0  0
   56.6800   29.4500   44.1370 S   0  0  0  0  0  0  0  0  0  0  0  0
   56.7180   29.8160   42.6780 O   0  0  0  0  0  0  0  0  0  0  0  0
   55.2450   29.2690   44.5500 O   0  0  0  0  0  0  0  0  0  0  0  0
   57.5870   27.9240   44.4070 C   0  0  0  0  0  0  0  0  0  0  0  0
   57.3120   27.3820   45.8280 C   0  0  0  0  0  0  0  0  0  0  0  0
   58.4280   26.4400   46.2920 C   0  0  0  0  0  0  0  0  0  0  0  0
   59.7830   27.1680   46.3740 C   0  0  0  0  0  0  0  0  0  0  0  0
   59.9080   28.3500   45.3930 C   0  0  0  0  0  0  0  0  0  0  0  0
   59.0980   28.1120   44.1150 C   0  0  0  0  0  0  0  0  0  0  0  0
   57.4270   32.0690   44.6080 C   0  0  0  0  0  0  0  0  0  0  0  0
   58.0310   33.0930   45.3600 C   0  0  0  0  0  0  0  0  0  0  0  0
   58.6130   32.7470   46.5820 C   0  0  0  0  0  0  0  0  0  0  0  0
   60.9155   35.9698   46.1212 H   0  0  0  0  0  0  0  0  0  0  0  0
   60.2599   34.4429   45.4391 H   0  0  0  0  0  0  0  0  0  0  0  0
   59.2542   35.9313   45.4391 H   0  0  0  0  0  0  0  0  0  0  0  0
   60.1679   35.3014   48.1438 H   0  0  0  0  0  0  0  0  0  0  0  0
   58.4866   35.4870   47.5038 H   0  0  0  0  0  0  0  0  0  0  0  0
   60.1858   34.1510   49.8988 H   0  0  0  0  0  0  0  0  0  0  0  0
   59.6441   32.5365   50.5941 H   0  0  0  0  0  0  0  0  0  0  0  0
   61.6430   32.1880   50.9220 H   0  0  0  0  0  0  0  0  0  0  0  0
   62.8144   30.9242   49.5433 H   0  0  0  0  0  0  0  0  0  0  0  0
   61.1094   30.9181   48.8654 H   0  0  0  0  0  0  0  0  0  0  0  0
   63.5159   31.4913   47.4802 H   0  0  0  0  0  0  0  0  0  0  0  0
   61.8016   31.6664   46.9102 H   0  0  0  0  0  0  0  0  0  0  0  0
   64.3057   34.3463   46.5788 H   0  0  0  0  0  0  0  0  0  0  0  0
   63.6042   32.9094   45.7604 H   0  0  0  0  0  0  0  0  0  0  0  0
   62.7113   34.4680   45.7604 H   0  0  0  0  0  0  0  0  0  0  0  0
   64.3760   33.2711   48.8648 H   0  0  0  0  0  0  0  0  0  0  0  0
   63.7482   34.9369   48.6273 H   0  0  0  0  0  0  0  0  0  0  0  0
   63.2758   33.5666   50.8834 H   0  0  0  0  0  0  0  0  0  0  0  0
   62.0252   34.6663   50.1262 H   0  0  0  0  0  0  0  0  0  0  0  0
   57.9549   29.4092   46.7454 H   0  0  0  0  0  0  0  0  0  0  0  0
   57.2301   27.1644   43.6960 H   0  0  0  0  0  0  0  0  0  0  0  0
   57.2442   28.2285   46.5272 H   0  0  0  0  0  0  0  0  0  0  0  0
   56.3683   26.8172   45.8068 H   0  0  0  0  0  0  0  0  0  0  0  0
   58.1729   26.0463   47.2869 H   0  0  0  0  0  0  0  0  0  0  0  0
   58.5181   25.6243   45.5596 H   0  0  0  0  0  0  0  0  0  0  0  0
   59.9111   27.5503   47.3974 H   0  0  0  0  0  0  0  0  0  0  0  0
   60.5589   26.4378   46.1003 H   0  0  0  0  0  0  0  0  0  0  0  0
   59.5388   29.2622   45.8846 H   0  0  0  0  0  0  0  0  0  0  0  0
   60.9669   28.4543   45.1140 H   0  0  0  0  0  0  0  0  0  0  0  0
   59.2251   28.9777   43.4484 H   0  0  0  0  0  0  0  0  0  0  0  0
   59.4693   27.1886   43.6464 H   0  0  0  0  0  0  0  0  0  0  0  0
   56.9745   32.3023   43.6329 H   0  0  0  0  0  0  0  0  0  0  0  0
   58.0446   34.1316   44.9979 H   0  0  0  0  0  0  0  0  0  0  0  0
  1  2  1  0
  2  3  1  0
  3  4  1  0
  4  5  1  0
  5  6  1  0
  6  7  1  0
  7  8  1  0
  8  9  1  0
  9 10  1  0
  9 11  1  0
 11 12  1  0
  4 13  2  0
 13 14  1  0
 14 15  2  0
 15 16  1  0
 16 17  1  0
 17 18  2  0
 17 19  2  0
 17 20  1  0
 20 21  1  0
 21 22  1  0
 22 23  1  0
 23 24  1  0
 24 25  1  0
 16 26  2  0
 26 27  1  0
 27 28  2  0
 28  3  1  0
 12  6  1  0
 28 14  1  0
 25 20  1  0
  1 29  1  0
  1 30  1  0
  1 31  1  0
  2 32  1  0
  2 33  1  0
  5 34  1  0
  5 35  1  0
  6 36  1  0
  7 37  1  0
  7 38  1  0
  8 39  1  0
  8 40  1  0
 10 41  1  0
 10 42  1  0
 10 43  1  0
 11 44  1  0
 11 45  1  0
 12 46  1  0
 12 47  1  0
 15 48  1  0
 20 49  1  0
 21 50  1  0
 21 51  1  0
 22 52  1  0
 22 53  1  0
 23 54  1  0
 23 55  1  0
 24 56  1  0
 24 57  1  0
 25 58  1  0
 25 59  1  0
 26 60  1  0
 27 61  1  0
M  CHG  1   6   1
M  END
>  <UniqueID>  (18) 
17

>  <SMILES>  (18) 
CCn1c(C[NH+]2CCN(C)CC2)nc2cc(S(=O)(=O)C3CCCCC3)ccc21

>  <Energy>  (18) 
111.35035899673977

>  <Genealogy>  (18) 
CCn1c(C[NH+]2CCN(C)CC2)nc2cc(S(=O)(=O)C3CCCCC3)ccc21 (protonated)
CCn1c(C[NH+]2CCN(C)CC2)nc2cc(S(=O)(=O)C3CCCCC3)ccc21 (3D coordinates assigned)
CCn1c(C[NH+]2CCN(C)CC2)nc2cc(S(=O)(=O)C3CCCCC3)ccc21 (nonaromatic ring conformer: 111.35035899673977 kcal/mol)

>  <smiles>  (18) 
CCn1c(CN2CCN(C)CC2)nc2cc(S(=O)(=O)C3CCCCC3)ccc21

>  <score_type>  (18) 
oracle

>  <origin>  (18) 
adg

>  <m_score__min__energy>  (18) 
-8.1999999999999993

>  <m_primary>  (18) 
energy

$$$$
18:0
     RDKit          3D

 90 94  0  0  0  0  0  0  0  0999 V2000
   59.2350   33.4350   51.3390 C   0  0  0  0  0  0  0  0  0  0  0  0
   58.6680   32.3340   50.4360 C   0  0  0  0  0  0  0  0  0  0  0  0
   59.1730   30.9730   50.7260 N   0  0  0  0  0  0  0  0  0  0  0  0
   58.2690   30.1510   51.5660 C   0  0  0  0  0  0  0  0  0  0  0  0
   56.9240   30.8190   51.8990 C   0  0  0  0  0  0  0  0  0  0  0  0
   60.6100   30.8790   51.0710 C   0  0  0  0  0  0  0  0  0  0  0  0
   61.0950   29.4240   51.1510 C   0  0  0  0  0  0  0  0  0  0  0  0
   61.2300   28.8810   49.8520 O   0  0  0  0  0  0  0  0  0  0  0  0
   60.0870   28.1250   49.5190 C   0  0  0  0  0  0  0  0  0  0  0  0
   59.3030   28.8260   48.4060 C   0  0  0  0  0  0  0  0  0  0  0  0
   60.1810   29.6420   47.5650 N   0  0  0  0  0  0  0  0  0  0  0  0
   59.6770   30.6210   46.6410 C   0  0  0  0  0  0  0  0  0  0  0  0
   58.7920   30.1970   45.6320 C   0  0  0  0  0  0  0  0  0  0  0  0
   58.5730   28.8230   45.3940 C   0  0  0  0  0  0  0  0  0  0  0  0
   57.6550   28.3990   44.4380 C   0  0  0  0  0  0  0  0  0  0  0  0
   56.9210   29.3350   43.7180 C   0  0  0  0  0  0  0  0  0  0  0  0
   57.1250   30.6980   43.9290 C   0  0  0  0  0  0  0  0  0  0  0  0
   58.0920   31.1590   44.8600 C   0  0  0  0  0  0  0  0  0  0  0  0
   58.3190   32.5040   45.0600 N   0  0  0  0  0  0  0  0  0  0  0  0
   57.7750   33.4970   44.1030 C   0  0  0  0  0  0  0  0  0  0  0  0
   59.0790   32.9270   46.1310 C   0  0  0  0  0  0  0  0  0  0  0  0
   59.0090   34.2640   46.5840 C   0  0  0  0  0  0  0  0  0  0  0  0
   59.7920   34.7060   47.6370 C   0  0  0  0  0  0  0  0  0  0  0  0
   60.7550   33.8700   48.1980 C   0  0  0  0  0  0  0  0  0  0  0  0
   61.6250   34.3790   49.1700 C   0  0  0  0  0  0  0  0  0  0  0  0
   62.6940   33.6060   49.6460 C   0  0  0  0  0  0  0  0  0  0  0  0
   63.5760   34.0810   50.6290 O   0  0  0  0  0  0  0  0  0  0  0  0
   63.2810   34.1410   52.0190 C   0  0  0  0  0  0  0  0  0  0  0  0
   62.9140   32.3300   49.1160 C   0  0  0  0  0  0  0  0  0  0  0  0
   64.0500   31.6360   49.5640 O   0  0  0  0  0  0  0  0  0  0  0  0
   64.1500   30.8320   50.7370 C   0  0  0  0  0  0  0  0  0  0  0  0
   65.0850   31.4350   51.8150 C   0  0  0  0  0  0  0  0  0  0  0  0
   66.4920   31.8190   51.4210 N   0  0  0  0  0  0  0  0  0  0  0  0
   67.1300   30.5750   50.8980 C   0  0  0  0  0  0  0  0  0  0  0  0
   67.2570   32.2560   52.6250 C   0  0  0  0  0  0  0  0  0  0  0  0
   68.7100   32.6990   52.2890 C   0  0  0  0  0  0  0  0  0  0  0  0
   68.8930   33.1060   50.9420 O   0  0  0  0  0  0  0  0  0  0  0  0
   67.7650   33.8140   50.4840 C   0  0  0  0  0  0  0  0  0  0  0  0
   66.5490   32.8760   50.3500 C   0  0  0  0  0  0  0  0  0  0  0  0
   62.0070   31.7930   48.1820 C   0  0  0  0  0  0  0  0  0  0  0  0
   60.8720   32.5270   47.7600 C   0  0  0  0  0  0  0  0  0  0  0  0
   59.8990   32.0090   46.8460 C   0  0  0  0  0  0  0  0  0  0  0  0
   59.0909   33.1552   52.3930 H   0  0  0  0  0  0  0  0  0  0  0  0
   60.3090   33.5588   51.1360 H   0  0  0  0  0  0  0  0  0  0  0  0
   58.7120   34.3812   51.1360 H   0  0  0  0  0  0  0  0  0  0  0  0
   57.5742   32.3253   50.5523 H   0  0  0  0  0  0  0  0  0  0  0  0
   58.9933   32.5739   49.4130 H   0  0  0  0  0  0  0  0  0  0  0  0
   58.0631   29.2118   51.0316 H   0  0  0  0  0  0  0  0  0  0  0  0
   58.7870   29.9964   52.5240 H   0  0  0  0  0  0  0  0  0  0  0  0
   56.8045   30.8784   52.9909 H   0  0  0  0  0  0  0  0  0  0  0  0
   56.9024   31.8326   51.4721 H   0  0  0  0  0  0  0  0  0  0  0  0
   56.1033   30.2238   51.4721 H   0  0  0  0  0  0  0  0  0  0  0  0
   61.1939   31.4049   50.3013 H   0  0  0  0  0  0  0  0  0  0  0  0
   60.7493   31.3357   52.0620 H   0  0  0  0  0  0  0  0  0  0  0  0
   62.0694   29.3935   51.6604 H   0  0  0  0  0  0  0  0  0  0  0  0
   60.3583   28.8309   51.7127 H   0  0  0  0  0  0  0  0  0  0  0  0
   60.3974   27.1278   49.1738 H   0  0  0  0  0  0  0  0  0  0  0  0
   59.4457   28.0286   50.4075 H   0  0  0  0  0  0  0  0  0  0  0  0
   58.8134   28.0656   47.7798 H   0  0  0  0  0  0  0  0  0  0  0  0
   58.5579   29.4876   48.8719 H   0  0  0  0  0  0  0  0  0  0  0  0
   61.2060   29.4430   47.5690 H   0  0  0  0  0  0  0  0  0  0  0  0
   59.1364   28.0763   45.9728 H   0  0  0  0  0  0  0  0  0  0  0  0
   57.5102   27.3245   44.2521 H   0  0  0  0  0  0  0  0  0  0  0  0
   56.1775   28.9993   42.9801 H   0  0  0  0  0  0  0  0  0  0  0  0
   56.5265   31.4282   43.3645 H   0  0  0  0  0  0  0  0  0  0  0  0
   57.3188   34.3297   44.6584 H   0  0  0  0  0  0  0  0  0  0  0  0
   58.5890   33.8806   43.4703 H   0  0  0  0  0  0  0  0  0  0  0  0
   57.0136   33.0175   43.4703 H   0  0  0  0  0  0  0  0  0  0  0  0
   58.3202   34.9659   46.0912 H   0  0  0  0  0  0  0  0  0  0  0  0
   59.6529   35.7229   48.0328 H   0  0  0  0  0  0  0  0  0  0  0  0
   61.4686   35.3942   49.5637 H   0  0  0  0  0  0  0  0  0  0  0  0
   64.1982   33.9545   52.5969 H   0  0  0  0  0  0  0  0  0  0  0  0
   62.8873   35.1376   52.2676 H   0  0  0  0  0  0  0  0  0  0  0  0
   62.5293   33.3773   52.2676 H   0  0  0  0  0  0  0  0  0  0  0  0
   63.1450   30.7194   51.1698 H   0  0  0  0  0  0  0  0  0  0  0  0
   64.5815   29.8664   50.4345 H   0  0  0  0  0  0  0  0  0  0  0  0
   64.5960   32.3435   52.1965 H   0  0  0  0  0  0  0  0  0  0  0  0
   65.2232   30.6169   52.5372 H   0  0  0  0  0  0  0  0  0  0  0  0
   67.4525   29.9461   51.7409 H   0  0  0  0  0  0  0  0  0  0  0  0
   66.4046   30.0212   50.2839 H   0  0  0  0  0  0  0  0  0  0  0  0
   68.0030   30.8410   50.2839 H   0  0  0  0  0  0  0  0  0  0  0  0
   66.7296   33.1031   53.0879 H   0  0  0  0  0  0  0  0  0  0  0  0
   67.3229   31.3945   53.3058 H   0  0  0  0  0  0  0  0  0  0  0  0
   68.9746   33.5422   52.9440 H   0  0  0  0  0  0  0  0  0  0  0  0
   69.3544   31.8215   52.4464 H   0  0  0  0  0  0  0  0  0  0  0  0
   67.5262   34.6144   51.1997 H   0  0  0  0  0  0  0  0  0  0  0  0
   67.9928   34.2403   49.4959 H   0  0  0  0  0  0  0  0  0  0  0  0
   65.6326   33.4817   50.4079 H   0  0  0  0  0  0  0  0  0  0  0  0
   66.6422   32.3572   49.3845 H   0  0  0  0  0  0  0  0  0  0  0  0
   62.1832   30.7869   47.7736 H   0  0  0  0  0  0  0  0  0  0  0  0
  1  2  1  0
  2  3  1  0
  3  4  1  0
  4  5  1  0
  3  6  1  0
  6  7  1  0
  7  8  1  0
  8  9  1  0
  9 10  1  0
 10 11  1  0
 11 12  1  0
 12 13  2  0
 13 14  1  0
 14 15  2  0
 15 16  1  0
 16 17  2  0
 17 18  1  0
 18 19  2  0
 19 20  1  0
 19 21  1  0
 21 22  2  0
 22 23  1  0
 23 24  2  0
 24 25  1  0
 25 26  2  0
 26 27  1  0
 27 28  1  0
 26 29  1  0
 29 30  1  0
 30 31  1  0
 31 32  1  0
 32 33  1  0
 33 34  1  0
 33 35  1  0
 35 36  1  0
 36 37  1  0
 37 38  1  0
 38 39  1  0
 29 40  2  0
 40 41  1  0
 41 42  2  0
 42 12  1  0
 18 13  1  0
 42 21  1  0
 41 24  1  0
 39 33  1  0
  1 43  1  0
  1 44  1  0
  1 45  1  0
  2 46  1  0
  2 47  1  0
  4 48  1  0
  4 49  1  0
  5 50  1  0
  5 51  1  0
  5 52  1  0
  6 53  1  0
  6 54  1  0
  7 55  1  0
  7 56  1  0
  9 57  1  0
  9 58  1  0
 10 59  1  0
 10 60  1  0
 11 61  1  0
 14 62  1  0
 15 63  1  0
 16 64  1  0
 17 65  1  0
 20 66  1  0
 20 67  1  0
 20 68  1  0
 22 69  1  0
 23 70  1  0
 25 71  1  0
 28 72  1  0
 28 73  1  0
 28 74  1  0
 31 75  1  0
 31 76  1  0
 32 77  1  0
 32 78  1  0
 34 79  1  0
 34 80  1  0
 34 81  1  0
 35 82  1  0
 35 83  1  0
 36 84  1  0
 36 85  1  0
 38 86  1  0
 38 87  1  0
 39 88  1  0
 39 89  1  0
 40 90  1  0
M  CHG  2  19   1  33   1
M  END
>  <UniqueID>  (19) 
18

>  <SMILES>  (19) 
CCN(CC)CCOCCNc1c2ccccc2[n+](C)c2ccc3cc(OC)c(OCC[N+]4(C)CCOCC4)cc3c12

>  <Energy>  (19) 
160.11188237056606

>  <Genealogy>  (19) 
CCN(CC)CCOCCNc1c2ccccc2[n+](C)c2ccc3cc(OC)c(OCC[N+]4(C)CCOCC4)cc3c12 (3D coordinates assigned)
CCN(CC)CCOCCNc1c2ccccc2[n+](C)c2ccc3cc(OC)c(OCC[N+]4(C)CCOCC4)cc3c12 (nonaromatic ring conformer: 160.11188237056606 kcal/mol)

>  <smiles>  (19) 
CCN(CC)CCOCCNc1c2ccccc2[n+](C)c2ccc3cc(OC)c(OCC[N+]4(C)CCOCC4)cc3c12

>  <score_type>  (19) 
oracle

>  <origin>  (19) 
adg

>  <m_score__min__energy>  (19) 
-5.3799999999999999

>  <m_primary>  (19) 
energy

$$$$
19:0
     RDKit          3D

 33 34  0  0  0  0  0  0  0  0999 V2000
   55.1460   30.0860   45.6600 H   0  0  0  0  0  0  0  0  0  0  0  0
   55.3580   29.3260   45.0270 O   0  0  0  0  0  0  0  0  0  0  0  0
   56.5000   28.5810   45.2050 N   0  0  0  0  0  0  0  0  0  0  0  0
   57.6630   29.0870   44.9540 C   0  0  0  0  0  0  0  0  0  0  0  0
   58.4503   28.4393   44.5409 H   0  0  0  0  0  0  0  0  0  0  0  0
   57.9650   30.5180   45.2080 C   0  0  0  0  0  0  0  0  0  0  0  0
   58.5490   30.9550   46.3610 N   0  0  0  0  0  0  0  0  0  0  0  0
   58.9990   30.1500   47.5070 C   0  0  0  0  0  0  0  0  0  0  0  0
   59.0500   30.7922   48.3986 H   0  0  0  0  0  0  0  0  0  0  0  0
   58.2816   29.3302   47.6599 H   0  0  0  0  0  0  0  0  0  0  0  0
   60.3810   29.5430   47.2490 C   0  0  0  0  0  0  0  0  0  0  0  0
   60.5574   28.7333   47.9723 H   0  0  0  0  0  0  0  0  0  0  0  0
   60.4038   29.1568   46.2193 H   0  0  0  0  0  0  0  0  0  0  0  0
   61.4400   30.5490   47.3900 C   0  0  0  0  0  0  0  0  0  0  0  0
   62.2740   31.3440   47.5020 N   0  0  0  0  0  0  0  0  0  0  0  0
   58.7180   32.2800   46.1800 C   0  0  0  0  0  0  0  0  0  0  0  0
   59.3160   33.2150   47.0320 C   0  0  0  0  0  0  0  0  0  0  0  0
   59.7121   32.9169   48.0139 H   0  0  0  0  0  0  0  0  0  0  0  0
   59.3940   34.5480   46.5920 C   0  0  0  0  0  0  0  0  0  0  0  0
   59.8540   35.3100   47.2384 H   0  0  0  0  0  0  0  0  0  0  0  0
   58.8870   34.9160   45.3280 C   0  0  0  0  0  0  0  0  0  0  0  0
   58.9527   35.9628   44.9965 H   0  0  0  0  0  0  0  0  0  0  0  0
   58.2980   33.9530   44.4890 C   0  0  0  0  0  0  0  0  0  0  0  0
   57.9065   34.2267   43.4981 H   0  0  0  0  0  0  0  0  0  0  0  0
   58.2260   32.6360   44.9550 C   0  0  0  0  0  0  0  0  0  0  0  0
   57.7330   31.5450   44.3340 N   0  0  0  0  0  0  0  0  0  0  0  0
   57.1300   31.5080   42.9950 C   0  0  0  0  0  0  0  0  0  0  0  0
   56.1505   32.0077   43.0247 H   0  0  0  0  0  0  0  0  0  0  0  0
   57.0100   30.4589   42.6866 H   0  0  0  0  0  0  0  0  0  0  0  0
   58.0270   32.2200   41.9880 C   0  0  0  0  0  0  0  0  0  0  0  0
   58.7791   32.8170   42.5247 H   0  0  0  0  0  0  0  0  0  0  0  0
   58.5329   31.4748   41.3565 H   0  0  0  0  0  0  0  0  0  0  0  0
   57.4161   32.8818   41.3565 H   0  0  0  0  0  0  0  0  0  0  0  0
  1  2  1  0
  2  3  1  0
  3  4  2  0
  4  5  1  0
  4  6  1  0
  6  7  1  0
  7  8  1  0
  8  9  1  0
  8 10  1  0
  8 11  1  0
 11 12  1  0
 11 13  1  0
 11 14  1  0
 14 15  3  0
  7 16  1  0
 16 17  2  0
 17 18  1  0
 17 19  1  0
 19 20  1  0
 19 21  2  0
 21 22  1  0
 21 23  1  0
 23 24  1  0
 23 25  2  0
 25 26  1  0
 26 27  1  0
 27 28  1  0
 27 29  1  0
 27 30  1  0
 30 31  1  0
 30 32  1  0
 30 33  1  0
 26  6  2  0
 25 16  1  0
M  CHG  1  26   1
M  END
>  <UniqueID>  (20) 
19

>  <SMILES>  (20) 
CC[n+]1c(/C=N/O)n(CCC#N)c2ccccc21

>  <Energy>  (20) 
66.84037727991394

>  <Genealogy>  (20) 
CC[n+]1c(/C=N/O)n(CCC#N)c2ccccc21 (cis-trans isomerization)
CC[n+]1c(/C=N/O)n(CCC#N)c2ccccc21 (3D coordinates assigned)
CC[n+]1c(/C=N/O)n(CCC#N)c2ccccc21 (optimized conformer: 66.84037727991394 kcal/mol)

>  <smiles>  (20) 
CC[n+]1c(C=NO)n(CCC#N)c2ccccc21

>  <score_type>  (20) 
oracle

>  <origin>  (20) 
adg

>  <m_score__min__energy>  (20) 
-5.75

>  <m_primary>  (20) 
energy

$$$$
20:0
     RDKit          3D

 43 44  0  0  0  0  0  0  0  0999 V2000
   63.7290   33.0350   46.7940 C   0  0  0  0  0  0  0  0  0  0  0  0
   63.1300   33.1070   48.1950 C   0  0  0  0  0  0  0  0  0  0  0  0
   62.2790   34.2310   48.3060 O   0  0  0  0  0  0  0  0  0  0  0  0
   61.2720   34.0010   49.2720 C   0  0  0  0  0  0  0  0  0  0  0  0
   59.8810   34.2230   48.6440 C   0  0  0  0  0  0  0  0  0  0  0  0
   59.7730   33.8540   47.2090 N   0  0  0  0  0  0  0  0  0  0  0  0
   58.9510   32.6320   46.9730 C   0  0  0  0  0  0  0  0  0  0  0  0
   57.6800   32.9030   46.1440 C   0  0  0  0  0  0  0  0  0  0  0  0
   57.9640   33.5980   44.8620 N   0  0  0  0  0  0  0  0  0  0  0  0
   58.0870   32.6590   43.7290 C   0  0  0  0  0  0  0  0  0  0  0  0
   57.6930   31.2680   44.1520 C   0  0  0  0  0  0  0  0  0  0  0  0
   56.3530   30.8510   44.0910 C   0  0  0  0  0  0  0  0  0  0  0  0
   56.0010   29.5550   44.4770 C   0  0  0  0  0  0  0  0  0  0  0  0
   56.9810   28.6670   44.9270 C   0  0  0  0  0  0  0  0  0  0  0  0
   58.3180   29.0730   44.9920 C   0  0  0  0  0  0  0  0  0  0  0  0
   59.6580   27.8570   45.6040 Br  0  0  0  0  0  0  0  0  0  0  0  0
   58.6730   30.3700   44.6060 C   0  0  0  0  0  0  0  0  0  0  0  0
   59.1270   34.5150   44.9220 C   0  0  0  0  0  0  0  0  0  0  0  0
   59.3940   34.9990   46.3500 C   0  0  0  0  0  0  0  0  0  0  0  0
   64.8187   32.9040   46.8674 H   0  0  0  0  0  0  0  0  0  0  0  0
   63.2929   32.1828   46.2521 H   0  0  0  0  0  0  0  0  0  0  0  0
   63.5073   33.9663   46.2521 H   0  0  0  0  0  0  0  0  0  0  0  0
   62.5509   32.1923   48.3898 H   0  0  0  0  0  0  0  0  0  0  0  0
   63.9442   33.1999   48.9287 H   0  0  0  0  0  0  0  0  0  0  0  0
   61.3464   32.9660   49.6369 H   0  0  0  0  0  0  0  0  0  0  0  0
   61.4070   34.7014   50.1094 H   0  0  0  0  0  0  0  0  0  0  0  0
   59.1526   33.6207   49.2068 H   0  0  0  0  0  0  0  0  0  0  0  0
   59.6887   35.3047   48.6982 H   0  0  0  0  0  0  0  0  0  0  0  0
   60.7520   33.6040   46.9250 H   0  0  0  0  0  0  0  0  0  0  0  0
   59.5670   31.8950   46.4369 H   0  0  0  0  0  0  0  0  0  0  0  0
   58.6258   32.2630   47.9569 H   0  0  0  0  0  0  0  0  0  0  0  0
   57.1940   31.9415   45.9220 H   0  0  0  0  0  0  0  0  0  0  0  0
   57.0309   33.5614   46.7400 H   0  0  0  0  0  0  0  0  0  0  0  0
   57.4286   32.9891   42.9120 H   0  0  0  0  0  0  0  0  0  0  0  0
   59.1335   32.6450   43.3903 H   0  0  0  0  0  0  0  0  0  0  0  0
   55.5779   31.5472   43.7381 H   0  0  0  0  0  0  0  0  0  0  0  0
   54.9503   29.2334   44.4264 H   0  0  0  0  0  0  0  0  0  0  0  0
   56.7010   27.6475   45.2305 H   0  0  0  0  0  0  0  0  0  0  0  0
   59.7247   30.6881   44.6583 H   0  0  0  0  0  0  0  0  0  0  0  0
   60.0177   33.9856   44.5527 H   0  0  0  0  0  0  0  0  0  0  0  0
   58.9035   35.3933   44.2986 H   0  0  0  0  0  0  0  0  0  0  0  0
   60.2131   35.7331   46.3389 H   0  0  0  0  0  0  0  0  0  0  0  0
   58.4816   35.4650   46.7504 H   0  0  0  0  0  0  0  0  0  0  0  0
  1  2  1  0
  2  3  1  0
  3  4  1  0
  4  5  1  0
  5  6  1  0
  6  7  1  0
  7  8  1  0
  8  9  1  0
  9 10  1  0
 10 11  1  0
 11 12  2  0
 12 13  1  0
 13 14  2  0
 14 15  1  0
 15 16  1  0
 15 17  2  0
  9 18  1  0
 18 19  1  0
 19  6  1  0
 17 11  1  0
  1 20  1  0
  1 21  1  0
  1 22  1  0
  2 23  1  0
  2 24  1  0
  4 25  1  0
  4 26  1  0
  5 27  1  0
  5 28  1  0
  6 29  1  0
  7 30  1  0
  7 31  1  0
  8 32  1  0
  8 33  1  0
 10 34  1  0
 10 35  1  0
 12 36  1  0
 13 37  1  0
 14 38  1  0
 17 39  1  0
 18 40  1  0
 18 41  1  0
 19 42  1  0
 19 43  1  0
M  CHG  1   6   1
M  END
>  <UniqueID>  (21) 
20

>  <SMILES>  (21) 
CCOCC[NH+]1CCN(Cc2cccc(Br)c2)CC1

>  <Energy>  (21) 
56.653311065598466

>  <Genealogy>  (21) 
CCOCC[NH+]1CCN(Cc2cccc(Br)c2)CC1 (protonated)
CCOCC[NH+]1CCN(Cc2cccc(Br)c2)CC1 (3D coordinates assigned)
CCOCC[NH+]1CCN(Cc2cccc(Br)c2)CC1 (nonaromatic ring conformer: 56.653311065598466 kcal/mol)

>  <smiles>  (21) 
CCOCCN1CCN(Cc2cccc(Br)c2)CC1

>  <score_type>  (21) 
oracle

>  <origin>  (21) 
adg

>  <m_score__min__energy>  (21) 
-5.6100000000000003

>  <m_primary>  (21) 
energy

$$$$
21:0
     RDKit          3D

 40 40  0  0  0  0  0  0  0  0999 V2000
   56.2690   29.7050   42.6500 C   0  0  0  0  0  0  0  0  0  0  0  0
   55.1830   29.7090   43.7130 C   0  0  0  0  0  0  0  0  0  0  0  0
   55.6850   29.1040   44.9010 O   0  0  0  0  0  0  0  0  0  0  0  0
   57.0100   29.1870   45.3520 C   0  0  0  0  0  0  0  0  0  0  0  0
   57.7170   28.0300   45.7430 C   0  0  0  0  0  0  0  0  0  0  0  0
   59.0360   28.1190   46.1900 C   0  0  0  0  0  0  0  0  0  0  0  0
   59.6690   29.3570   46.2550 C   0  0  0  0  0  0  0  0  0  0  0  0
   58.9860   30.5110   45.8710 C   0  0  0  0  0  0  0  0  0  0  0  0
   57.6610   30.4480   45.4200 C   0  0  0  0  0  0  0  0  0  0  0  0
   57.0590   31.6650   45.0580 O   0  0  0  0  0  0  0  0  0  0  0  0
   57.6230   32.9670   45.2040 C   0  0  0  0  0  0  0  0  0  0  0  0
   57.3990   33.4630   46.6280 C   0  0  0  0  0  0  0  0  0  0  0  0
   58.6500   34.0690   47.1470 N   0  0  0  0  0  0  0  0  0  0  0  0
   59.6030   34.4580   46.0850 C   0  0  0  0  0  0  0  0  0  0  0  0
   60.9680   33.8120   46.3150 C   0  0  0  0  0  0  0  0  0  0  0  0
   59.2830   33.2600   48.2140 C   0  0  0  0  0  0  0  0  0  0  0  0
   59.8090   34.0950   49.3910 C   0  0  0  0  0  0  0  0  0  0  0  0
   57.2565   29.7014   43.1347 H   0  0  0  0  0  0  0  0  0  0  0  0
   56.1650   28.8072   42.0229 H   0  0  0  0  0  0  0  0  0  0  0  0
   56.1716   30.6035   42.0229 H   0  0  0  0  0  0  0  0  0  0  0  0
   54.8822   30.7452   43.9271 H   0  0  0  0  0  0  0  0  0  0  0  0
   54.3114   29.1437   43.3515 H   0  0  0  0  0  0  0  0  0  0  0  0
   57.2235   27.0481   45.6950 H   0  0  0  0  0  0  0  0  0  0  0  0
   59.5763   27.2095   46.4914 H   0  0  0  0  0  0  0  0  0  0  0  0
   60.7081   29.4253   46.6093 H   0  0  0  0  0  0  0  0  0  0  0  0
   59.4951   31.4847   45.9230 H   0  0  0  0  0  0  0  0  0  0  0  0
   58.7024   32.9240   44.9966 H   0  0  0  0  0  0  0  0  0  0  0  0
   57.1399   33.6565   44.4961 H   0  0  0  0  0  0  0  0  0  0  0  0
   56.5982   34.2172   46.6312 H   0  0  0  0  0  0  0  0  0  0  0  0
   57.1103   32.6165   47.2683 H   0  0  0  0  0  0  0  0  0  0  0  0
   59.2096   34.1319   45.1109 H   0  0  0  0  0  0  0  0  0  0  0  0
   59.7236   35.5512   46.1039 H   0  0  0  0  0  0  0  0  0  0  0  0
   61.1545   33.7237   47.3955 H   0  0  0  0  0  0  0  0  0  0  0  0
   60.9820   32.8117   45.8576 H   0  0  0  0  0  0  0  0  0  0  0  0
   61.7504   34.4354   45.8576 H   0  0  0  0  0  0  0  0  0  0  0  0
   58.5378   32.5482   48.5986 H   0  0  0  0  0  0  0  0  0  0  0  0
   60.1509   32.7560   47.7637 H   0  0  0  0  0  0  0  0  0  0  0  0
   59.5110   33.6219   50.3383 H   0  0  0  0  0  0  0  0  0  0  0  0
   60.9063   34.1518   49.3388 H   0  0  0  0  0  0  0  0  0  0  0  0
   59.3864   35.1093   49.3388 H   0  0  0  0  0  0  0  0  0  0  0  0
  1  2  1  0
  2  3  1  0
  3  4  1  0
  4  5  2  0
  5  6  1  0
  6  7  2  0
  7  8  1  0
  8  9  2  0
  9 10  1  0
 10 11  1  0
 11 12  1  0
 12 13  1  0
 13 14  1  0
 14 15  1  0
 13 16  1  0
 16 17  1  0
  9  4  1  0
  1 18  1  0
  1 19  1  0
  1 20  1  0
  2 21  1  0
  2 22  1  0
  5 23  1  0
  6 24  1  0
  7 25  1  0
  8 26  1  0
 11 27  1  0
 11 28  1  0
 12 29  1  0
 12 30  1  0
 14 31  1  0
 14 32  1  0
 15 33  1  0
 15 34  1  0
 15 35  1  0
 16 36  1  0
 16 37  1  0
 17 38  1  0
 17 39  1  0
 17 40  1  0
M  END
>  <UniqueID>  (22) 
21

>  <SMILES>  (22) 
CCOc1ccccc1OCCN(CC)CC

>  <Energy>  (22) 
35.18647576707554

>  <Genealogy>  (22) 
CCOc1ccccc1OCCN(CC)CC (3D coordinates assigned)
CCOc1ccccc1OCCN(CC)CC (optimized conformer: 35.18647576707554 kcal/mol)

>  <smiles>  (22) 
CCOc1ccccc1OCCN(CC)CC

>  <score_type>  (22) 
oracle

>  <origin>  (22) 
adg

>  <m_score__min__energy>  (22) 
-5.8600000000000003

>  <m_primary>  (22) 
energy

$$$$
22:0
     RDKit          3D

 54 56  0  0  0  0  0  0  0  0999 V2000
   63.3780   33.7400   46.7150 C   0  0  0  0  0  0  0  0  0  0  0  0
   62.6970   32.4430   47.1420 C   0  0  0  0  0  0  0  0  0  0  0  0
   61.5380   32.7310   48.0180 N   0  0  0  0  0  0  0  0  0  0  0  0
   61.7030   32.1070   49.3510 C   0  0  0  0  0  0  0  0  0  0  0  0
   63.1300   31.5940   49.5300 C   0  0  0  0  0  0  0  0  0  0  0  0
   61.2770   34.1910   48.1230 C   0  0  0  0  0  0  0  0  0  0  0  0
   59.7970   34.4860   47.8530 C   0  0  0  0  0  0  0  0  0  0  0  0
   58.9640   33.2790   47.9860 N   0  0  0  0  0  0  0  0  0  0  0  0
   58.5400   32.8130   46.6810 C   0  0  0  0  0  0  0  0  0  0  0  0
   58.0350   33.7490   45.7720 C   0  0  0  0  0  0  0  0  0  0  0  0
   57.6720   33.3740   44.4880 C   0  0  0  0  0  0  0  0  0  0  0  0
   57.7500   32.0350   44.0770 C   0  0  0  0  0  0  0  0  0  0  0  0
   57.5300   31.6980   42.7300 O   0  0  0  0  0  0  0  0  0  0  0  0
   58.1250   32.3490   41.6110 C   0  0  0  0  0  0  0  0  0  0  0  0
   58.1110   31.0270   45.0210 C   0  0  0  0  0  0  0  0  0  0  0  0
   58.5880   31.4390   46.3040 C   0  0  0  0  0  0  0  0  0  0  0  0
   59.1050   30.4620   47.1690 C   0  0  0  0  0  0  0  0  0  0  0  0
   59.2250   29.1400   46.7560 C   0  0  0  0  0  0  0  0  0  0  0  0
   59.8520   28.1980   47.5890 C   0  0  0  0  0  0  0  0  0  0  0  0
   60.0020   26.8770   47.1700 C   0  0  0  0  0  0  0  0  0  0  0  0
   59.5350   26.4880   45.9170 C   0  0  0  0  0  0  0  0  0  0  0  0
   58.8970   27.4110   45.0860 C   0  0  0  0  0  0  0  0  0  0  0  0
   58.7050   28.7530   45.5010 C   0  0  0  0  0  0  0  0  0  0  0  0
   58.0340   29.6740   44.7220 N   0  0  0  0  0  0  0  0  0  0  0  0
   57.1390   29.1870   43.6500 C   0  0  0  0  0  0  0  0  0  0  0  0
   63.6766   34.3086   47.6081 H   0  0  0  0  0  0  0  0  0  0  0  0
   64.2694   33.5057   46.1146 H   0  0  0  0  0  0  0  0  0  0  0  0
   62.6790   34.3407   46.1146 H   0  0  0  0  0  0  0  0  0  0  0  0
   62.3501   31.9046   46.2477 H   0  0  0  0  0  0  0  0  0  0  0  0
   63.4196   31.8276   47.6980 H   0  0  0  0  0  0  0  0  0  0  0  0
   61.4868   32.8537   50.1292 H   0  0  0  0  0  0  0  0  0  0  0  0
   61.0076   31.2588   49.4346 H   0  0  0  0  0  0  0  0  0  0  0  0
   63.3583   31.5119   50.6029 H   0  0  0  0  0  0  0  0  0  0  0  0
   63.2260   30.6051   49.0580 H   0  0  0  0  0  0  0  0  0  0  0  0
   63.8337   32.2954   49.0580 H   0  0  0  0  0  0  0  0  0  0  0  0
   61.5370   34.5346   49.1351 H   0  0  0  0  0  0  0  0  0  0  0  0
   61.8897   34.7192   47.3776 H   0  0  0  0  0  0  0  0  0  0  0  0
   59.4475   35.2405   48.5731 H   0  0  0  0  0  0  0  0  0  0  0  0
   59.7050   34.8519   46.8197 H   0  0  0  0  0  0  0  0  0  0  0  0
   59.5270   32.5340   48.4580 H   0  0  0  0  0  0  0  0  0  0  0  0
   58.1400   33.4480   48.6060 H   0  0  0  0  0  0  0  0  0  0  0  0
   57.9243   34.7988   46.0811 H   0  0  0  0  0  0  0  0  0  0  0  0
   57.3174   34.1380   43.7805 H   0  0  0  0  0  0  0  0  0  0  0  0
   58.8276   33.1178   41.9650 H   0  0  0  0  0  0  0  0  0  0  0  0
   58.6663   31.6100   41.0020 H   0  0  0  0  0  0  0  0  0  0  0  0
   57.3404   32.8219   41.0020 H   0  0  0  0  0  0  0  0  0  0  0  0
   59.4186   30.7454   48.1846 H   0  0  0  0  0  0  0  0  0  0  0  0
   60.2264   28.5046   48.5768 H   0  0  0  0  0  0  0  0  0  0  0  0
   60.4888   26.1425   47.8285 H   0  0  0  0  0  0  0  0  0  0  0  0
   59.6693   25.4493   45.5806 H   0  0  0  0  0  0  0  0  0  0  0  0
   58.5385   27.0926   44.0960 H   0  0  0  0  0  0  0  0  0  0  0  0
   56.2568   28.7070   44.0987 H   0  0  0  0  0  0  0  0  0  0  0  0
   56.8180   30.0348   43.0270 H   0  0  0  0  0  0  0  0  0  0  0  0
   57.6765   28.4570   43.0270 H   0  0  0  0  0  0  0  0  0  0  0  0
  1  2  1  0
  2  3  1  0
  3  4  1  0
  4  5  1  0
  3  6  1  0
  6  7  1  0
  7  8  1  0
  8  9  1  0
  9 10  2  0
 10 11  1  0
 11 12  2  0
 12 13  1  0
 13 14  1  0
 12 15  1  0
 15 16  2  0
 16 17  1  0
 17 18  2  0
 18 19  1  0
 19 20  2  0
 20 21  1  0
 21 22  2  0
 22 23  1  0
 23 24  2  0
 24 25  1  0
 16  9  1  0
 23 18  1  0
 24 15  1  0
  1 26  1  0
  1 27  1  0
  1 28  1  0
  2 29  1  0
  2 30  1  0
  4 31  1  0
  4 32  1  0
  5 33  1  0
  5 34  1  0
  5 35  1  0
  6 36  1  0
  6 37  1  0
  7 38  1  0
  7 39  1  0
  8 40  1  0
  8 41  1  0
 10 42  1  0
 11 43  1  0
 14 44  1  0
 14 45  1  0
 14 46  1  0
 17 47  1  0
 19 48  1  0
 20 49  1  0
 21 50  1  0
 22 51  1  0
 25 52  1  0
 25 53  1  0
 25 54  1  0
M  CHG  2   8   1  24   1
M  END
>  <UniqueID>  (23) 
22

>  <SMILES>  (23) 
CCN(CC)CC[NH2+]c1ccc(OC)c2c1cc1ccccc1[n+]2C

>  <Energy>  (23) 
80.7705369249762

>  <Genealogy>  (23) 
CCN(CC)CC[NH2+]c1ccc(OC)c2c1cc1ccccc1[n+]2C (protonated)
CCN(CC)CC[NH2+]c1ccc(OC)c2c1cc1ccccc1[n+]2C (3D coordinates assigned)
CCN(CC)CC[NH2+]c1ccc(OC)c2c1cc1ccccc1[n+]2C (optimized conformer: 80.7705369249762 kcal/mol)

>  <smiles>  (23) 
CCN(CC)CCNc1ccc(OC)c2c1cc1ccccc1[n+]2C

>  <score_type>  (23) 
oracle

>  <origin>  (23) 
adg

>  <m_score__min__energy>  (23) 
-3.8599999999999999

>  <m_primary>  (23) 
energy

$$$$
23:0
     RDKit          3D

 56 58  0  0  0  0  0  0  0  0999 V2000
   59.8120   28.2710   44.9160 C   0  0  0  0  0  0  0  0  0  0  0  0
   58.8010   28.0100   43.7930 C   0  0  0  0  0  0  0  0  0  0  0  0
   57.3960   27.9430   44.2700 N   0  0  0  0  0  0  0  0  0  0  0  0
   57.3810   27.6120   45.7200 C   0  0  0  0  0  0  0  0  0  0  0  0
   56.6290   26.3120   46.0370 C   0  0  0  0  0  0  0  0  0  0  0  0
   56.5500   29.4550   43.9580 S   0  0  0  0  0  0  0  0  0  0  0  0
   55.1530   29.4020   44.5100 O   0  0  0  0  0  0  0  0  0  0  0  0
   56.4260   29.6730   42.4760 O   0  0  0  0  0  0  0  0  0  0  0  0
   57.3840   30.8360   44.6770 C   0  0  0  0  0  0  0  0  0  0  0  0
   57.8930   30.7520   45.9800 C   0  0  0  0  0  0  0  0  0  0  0  0
   58.5470   31.8450   46.5530 C   0  0  0  0  0  0  0  0  0  0  0  0
   58.6840   33.0490   45.8420 C   0  0  0  0  0  0  0  0  0  0  0  0
   59.3650   34.2050   46.4730 C   0  0  0  0  0  0  0  0  0  0  0  0
   59.2740   35.3390   45.9340 O   0  0  0  0  0  0  0  0  0  0  0  0
   60.0980   34.0930   47.7010 N   0  0  0  0  0  0  0  0  0  0  0  0
   61.4340   33.5960   47.8700 C   0  0  0  0  0  0  0  0  0  0  0  0
   62.3560   33.8370   46.8410 C   0  0  0  0  0  0  0  0  0  0  0  0
   63.6820   33.4180   46.9630 C   0  0  0  0  0  0  0  0  0  0  0  0
   64.0960   32.7330   48.1060 C   0  0  0  0  0  0  0  0  0  0  0  0
   63.1820   32.4540   49.1230 C   0  0  0  0  0  0  0  0  0  0  0  0
   61.8410   32.8680   49.0170 C   0  0  0  0  0  0  0  0  0  0  0  0
   60.8950   32.4720   50.0300 N   0  0  0  0  0  0  0  0  0  0  0  0
   59.8670   31.4640   49.7600 C   0  0  0  0  0  0  0  0  0  0  0  0
   58.4870   32.1250   49.8470 C   0  0  0  0  0  0  0  0  0  0  0  0
   58.3250   32.7840   51.0930 O   0  0  0  0  0  0  0  0  0  0  0  0
   59.2620   33.8410   51.2110 C   0  0  0  0  0  0  0  0  0  0  0  0
   60.6970   33.3010   51.2220 C   0  0  0  0  0  0  0  0  0  0  0  0
   58.1920   33.1200   44.5260 C   0  0  0  0  0  0  0  0  0  0  0  0
   57.5370   32.0270   43.9540 C   0  0  0  0  0  0  0  0  0  0  0  0
   59.3183   28.1436   45.8907 H   0  0  0  0  0  0  0  0  0  0  0  0
   60.6460   27.5587   44.8314 H   0  0  0  0  0  0  0  0  0  0  0  0
   60.1969   29.2980   44.8314 H   0  0  0  0  0  0  0  0  0  0  0  0
   58.8809   28.8225   43.0558 H   0  0  0  0  0  0  0  0  0  0  0  0
   59.0440   27.0294   43.3578 H   0  0  0  0  0  0  0  0  0  0  0  0
   56.9060   27.1810   43.7430 H   0  0  0  0  0  0  0  0  0  0  0  0
   58.4202   27.5076   46.0653 H   0  0  0  0  0  0  0  0  0  0  0  0
   56.8536   28.4281   46.2356 H   0  0  0  0  0  0  0  0  0  0  0  0
   56.5566   26.1869   47.1275 H   0  0  0  0  0  0  0  0  0  0  0  0
   55.6183   26.3585   45.6054 H   0  0  0  0  0  0  0  0  0  0  0  0
   57.1732   25.4590   45.6054 H   0  0  0  0  0  0  0  0  0  0  0  0
   57.7769   29.8209   46.5541 H   0  0  0  0  0  0  0  0  0  0  0  0
   58.9584   31.7624   47.5698 H   0  0  0  0  0  0  0  0  0  0  0  0
   62.0314   34.3608   45.9298 H   0  0  0  0  0  0  0  0  0  0  0  0
   64.4010   33.6280   46.1575 H   0  0  0  0  0  0  0  0  0  0  0  0
   65.1436   32.4127   48.2055 H   0  0  0  0  0  0  0  0  0  0  0  0
   63.5131   31.9048   50.0168 H   0  0  0  0  0  0  0  0  0  0  0  0
   60.0139   31.0477   48.7525 H   0  0  0  0  0  0  0  0  0  0  0  0
   59.9383   30.6524   50.4991 H   0  0  0  0  0  0  0  0  0  0  0  0
   58.3863   32.8593   49.0342 H   0  0  0  0  0  0  0  0  0  0  0  0
   57.7152   31.3465   49.7553 H   0  0  0  0  0  0  0  0  0  0  0  0
   59.1414   34.5260   50.3588 H   0  0  0  0  0  0  0  0  0  0  0  0
   59.0781   34.3698   52.1579 H   0  0  0  0  0  0  0  0  0  0  0  0
   61.4085   34.1399   51.2121 H   0  0  0  0  0  0  0  0  0  0  0  0
   60.8653   32.7011   52.1285 H   0  0  0  0  0  0  0  0  0  0  0  0
   58.3241   34.0434   43.9430 H   0  0  0  0  0  0  0  0  0  0  0  0
   57.1393   32.1013   42.9311 H   0  0  0  0  0  0  0  0  0  0  0  0
  1  2  1  0
  2  3  1  0
  3  4  1  0
  4  5  1  0
  3  6  1  0
  6  7  2  0
  6  8  2  0
  6  9  1  0
  9 10  2  0
 10 11  1  0
 11 12  2  0
 12 13  1  0
 13 14  2  0
 13 15  1  0
 15 16  1  0
 16 17  2  0
 17 18  1  0
 18 19  2  0
 19 20  1  0
 20 21  2  0
 21 22  1  0
 22 23  1  0
 23 24  1  0
 24 25  1  0
 25 26  1  0
 26 27  1  0
 12 28  1  0
 28 29  2  0
 29  9  1  0
 21 16  1  0
 27 22  1  0
  1 30  1  0
  1 31  1  0
  1 32  1  0
  2 33  1  0
  2 34  1  0
  3 35  1  0
  4 36  1  0
  4 37  1  0
  5 38  1  0
  5 39  1  0
  5 40  1  0
 10 41  1  0
 11 42  1  0
 17 43  1  0
 18 44  1  0
 19 45  1  0
 20 46  1  0
 23 47  1  0
 23 48  1  0
 24 49  1  0
 24 50  1  0
 26 51  1  0
 26 52  1  0
 27 53  1  0
 27 54  1  0
 28 55  1  0
 29 56  1  0
M  CHG  2   3   1  15  -1
M  END
>  <UniqueID>  (24) 
23

>  <SMILES>  (24) 
CC[NH+](CC)S(=O)(=O)c1ccc(C(=O)[N-]c2ccccc2N2CCOCC2)cc1

>  <Energy>  (24) 
70.81436692180118

>  <Genealogy>  (24) 
CC[NH+](CC)S(=O)(=O)c1ccc(C(=O)[N-]c2ccccc2N2CCOCC2)cc1 (protonated)
CC[NH+](CC)S(=O)(=O)c1ccc(C(=O)[N-]c2ccccc2N2CCOCC2)cc1 (3D coordinates assigned)
CC[NH+](CC)S(=O)(=O)c1ccc(C(=O)[N-]c2ccccc2N2CCOCC2)cc1 (nonaromatic ring conformer: 70.81436692180118 kcal/mol)

>  <smiles>  (24) 
CCN(CC)S(=O)(=O)c1ccc(C(=O)Nc2ccccc2N2CCOCC2)cc1

>  <score_type>  (24) 
oracle

>  <origin>  (24) 
adg

>  <m_score__min__energy>  (24) 
-8.4600000000000009

>  <m_primary>  (24) 
energy

$$$$
24:0
     RDKit          3D

 23 24  0  0  0  0  0  0  0  0999 V2000
   56.0420   30.0530   44.8680 O   0  0  0  0  0  0  0  0  0  0  0  0
   57.2240   30.3400   44.5380 C   0  0  0  0  0  0  0  0  0  0  0  0
   58.0810   29.3330   43.9740 N   0  0  0  0  0  0  0  0  0  0  0  0
   57.8110   27.9220   44.0370 C   0  0  0  0  0  0  0  0  0  0  0  0
   58.0060   27.1320   42.8940 C   0  0  0  0  0  0  0  0  0  0  0  0
   57.7710   25.7540   42.9350 C   0  0  0  0  0  0  0  0  0  0  0  0
   57.3510   25.1510   44.1250 C   0  0  0  0  0  0  0  0  0  0  0  0
   57.0330   23.2680   44.1810 Br  0  0  0  0  0  0  0  0  0  0  0  0
   57.1740   25.9250   45.2750 C   0  0  0  0  0  0  0  0  0  0  0  0
   57.4090   27.3040   45.2360 C   0  0  0  0  0  0  0  0  0  0  0  0
   57.7020   31.7250   44.7000 C   0  0  0  0  0  0  0  0  0  0  0  0
   58.1300   32.5610   43.6750 C   0  0  0  0  0  0  0  0  0  0  0  0
   58.5180   33.8300   44.1200 C   0  0  0  0  0  0  0  0  0  0  0  0
   58.3940   34.0030   45.4920 C   0  0  0  0  0  0  0  0  0  0  0  0
   57.8020   32.5740   46.1500 S   0  0  0  0  0  0  0  0  0  0  0  0
   58.9010   29.6440   43.4070 H   0  0  0  0  0  0  0  0  0  0  0  0
   58.3463   27.6001   41.9585 H   0  0  0  0  0  0  0  0  0  0  0  0
   57.9165   25.1442   42.0311 H   0  0  0  0  0  0  0  0  0  0  0  0
   56.8494   25.4496   46.2123 H   0  0  0  0  0  0  0  0  0  0  0  0
   57.2790   27.9076   46.1464 H   0  0  0  0  0  0  0  0  0  0  0  0
   58.1607   32.2554   42.6188 H   0  0  0  0  0  0  0  0  0  0  0  0
   58.8868   34.6169   43.4456 H   0  0  0  0  0  0  0  0  0  0  0  0
   58.6406   34.9173   46.0517 H   0  0  0  0  0  0  0  0  0  0  0  0
  1  2  2  0
  2  3  1  0
  3  4  1  0
  4  5  2  0
  5  6  1  0
  6  7  2  0
  7  8  1  0
  7  9  1  0
  9 10  2  0
  2 11  1  0
 11 12  2  0
 12 13  1  0
 13 14  2  0
 14 15  1  0
 10  4  1  0
 15 11  1  0
  3 16  1  0
  5 17  1  0
  6 18  1  0
  9 19  1  0
 10 20  1  0
 12 21  1  0
 13 22  1  0
 14 23  1  0
M  END
>  <UniqueID>  (25) 
24

>  <SMILES>  (25) 
O=C(Nc1ccc(Br)cc1)c1cccs1

>  <Energy>  (25) 
52.47478467732219

>  <Genealogy>  (25) 
O=C(Nc1ccc(Br)cc1)c1cccs1 (3D coordinates assigned)
O=C(Nc1ccc(Br)cc1)c1cccs1 (optimized conformer: 52.47478467732219 kcal/mol)

>  <smiles>  (25) 
O=C(Nc1ccc(Br)cc1)c1cccs1

>  <score_type>  (25) 
oracle

>  <origin>  (25) 
adg

>  <m_score__min__energy>  (25) 
-6.6200000000000001

>  <m_primary>  (25) 
energy

$$$$
25:0
     RDKit          3D

 69 71  0  0  0  0  0  0  0  0999 V2000
   63.3950   33.8460   46.4200 C   0  0  0  0  0  0  0  0  0  0  0  0
   63.4590   32.7200   47.4650 C   0  0  0  0  0  0  0  0  0  0  0  0
   62.3270   32.6940   48.4240 N   0  0  0  0  0  0  0  0  0  0  0  0
   61.9490   33.9990   48.9940 C   0  0  0  0  0  0  0  0  0  0  0  0
   62.3420   31.5890   49.4080 C   0  0  0  0  0  0  0  0  0  0  0  0
   60.9520   31.2330   49.9580 C   0  0  0  0  0  0  0  0  0  0  0  0
   60.0680   30.5840   48.8800 C   0  0  0  0  0  0  0  0  0  0  0  0
   60.7010   30.6040   47.5470 N   0  0  0  0  0  0  0  0  0  0  0  0
   59.7160   30.5730   46.4700 C   0  0  0  0  0  0  0  0  0  0  0  0
   59.1500   31.7850   45.9820 C   0  0  0  0  0  0  0  0  0  0  0  0
   59.5600   33.0540   46.4680 C   0  0  0  0  0  0  0  0  0  0  0  0
   59.0620   34.2310   45.9180 C   0  0  0  0  0  0  0  0  0  0  0  0
   58.1540   34.1820   44.8730 C   0  0  0  0  0  0  0  0  0  0  0  0
   57.6990   32.9550   44.4040 C   0  0  0  0  0  0  0  0  0  0  0  0
   58.1450   31.7360   44.9770 C   0  0  0  0  0  0  0  0  0  0  0  0
   57.6240   30.5280   44.5720 N   0  0  0  0  0  0  0  0  0  0  0  0
   56.3460   30.4920   43.8240 C   0  0  0  0  0  0  0  0  0  0  0  0
   58.2620   29.3500   44.9040 C   0  0  0  0  0  0  0  0  0  0  0  0
   57.9090   28.1280   44.2730 C   0  0  0  0  0  0  0  0  0  0  0  0
   58.4810   26.9080   44.6600 C   0  0  0  0  0  0  0  0  0  0  0  0
   58.1250   25.6780   44.0820 O   0  0  0  0  0  0  0  0  0  0  0  0
   57.1940   24.7410   44.6270 C   0  0  0  0  0  0  0  0  0  0  0  0
   56.9780   23.5670   43.6440 C   0  0  0  0  0  0  0  0  0  0  0  0
   57.5070   22.2480   44.1040 N   0  0  0  0  0  0  0  0  0  0  0  0
   57.3770   21.2210   43.0430 C   0  0  0  0  0  0  0  0  0  0  0  0
   58.9240   22.3500   44.5290 C   0  0  0  0  0  0  0  0  0  0  0  0
   56.7010   21.8130   45.2710 C   0  0  0  0  0  0  0  0  0  0  0  0
   59.4440   26.9050   45.6580 C   0  0  0  0  0  0  0  0  0  0  0  0
   59.8540   28.0910   46.2560 C   0  0  0  0  0  0  0  0  0  0  0  0
   59.2930   29.3410   45.8850 C   0  0  0  0  0  0  0  0  0  0  0  0
   63.3397   34.8183   46.9315 H   0  0  0  0  0  0  0  0  0  0  0  0
   64.2964   33.8136   45.7904 H   0  0  0  0  0  0  0  0  0  0  0  0
   62.5030   33.7117   45.7904 H   0  0  0  0  0  0  0  0  0  0  0  0
   63.4768   31.7585   46.9309 H   0  0  0  0  0  0  0  0  0  0  0  0
   64.3650   32.9030   48.0613 H   0  0  0  0  0  0  0  0  0  0  0  0
   61.9666   33.9384   50.0922 H   0  0  0  0  0  0  0  0  0  0  0  0
   62.6618   34.7663   48.6577 H   0  0  0  0  0  0  0  0  0  0  0  0
   60.9364   34.2666   48.6577 H   0  0  0  0  0  0  0  0  0  0  0  0
   62.7621   30.6964   48.9215 H   0  0  0  0  0  0  0  0  0  0  0  0
   62.9487   31.9265   50.2613 H   0  0  0  0  0  0  0  0  0  0  0  0
   61.0686   30.5296   50.7956 H   0  0  0  0  0  0  0  0  0  0  0  0
   60.4646   32.1613   50.2907 H   0  0  0  0  0  0  0  0  0  0  0  0
   59.8746   29.5390   49.1637 H   0  0  0  0  0  0  0  0  0  0  0  0
   59.1352   31.1636   48.8173 H   0  0  0  0  0  0  0  0  0  0  0  0
   61.3000   31.4540   47.4640 H   0  0  0  0  0  0  0  0  0  0  0  0
   61.4110   29.8480   47.4850 H   0  0  0  0  0  0  0  0  0  0  0  0
   60.2843   33.1079   47.2941 H   0  0  0  0  0  0  0  0  0  0  0  0
   59.3903   35.2033   46.3141 H   0  0  0  0  0  0  0  0  0  0  0  0
   57.7929   35.1142   44.4142 H   0  0  0  0  0  0  0  0  0  0  0  0
   56.9793   32.9286   43.5726 H   0  0  0  0  0  0  0  0  0  0  0  0
   55.5061   30.4683   44.5340 H   0  0  0  0  0  0  0  0  0  0  0  0
   56.2661   31.3883   43.1913 H   0  0  0  0  0  0  0  0  0  0  0  0
   56.3167   29.5927   43.1913 H   0  0  0  0  0  0  0  0  0  0  0  0
   57.1681   28.1388   43.4600 H   0  0  0  0  0  0  0  0  0  0  0  0
   57.5860   24.3509   45.5779 H   0  0  0  0  0  0  0  0  0  0  0  0
   56.2327   25.2482   44.7960 H   0  0  0  0  0  0  0  0  0  0  0  0
   55.8965   23.4596   43.4743 H   0  0  0  0  0  0  0  0  0  0  0  0
   57.5418   23.8221   42.7346 H   0  0  0  0  0  0  0  0  0  0  0  0
   57.2516   20.2305   43.5048 H   0  0  0  0  0  0  0  0  0  0  0  0
   56.5004   21.4480   42.4184 H   0  0  0  0  0  0  0  0  0  0  0  0
   58.2825   21.2224   42.4184 H   0  0  0  0  0  0  0  0  0  0  0  0
   58.9779   22.3539   45.6277 H   0  0  0  0  0  0  0  0  0  0  0  0
   59.4871   21.4901   44.1373 H   0  0  0  0  0  0  0  0  0  0  0  0
   59.3581   23.2817   44.1373 H   0  0  0  0  0  0  0  0  0  0  0  0
   57.2197   22.0930   46.1997 H   0  0  0  0  0  0  0  0  0  0  0  0
   55.7162   22.3021   45.2393 H   0  0  0  0  0  0  0  0  0  0  0  0
   56.5694   20.7214   45.2393 H   0  0  0  0  0  0  0  0  0  0  0  0
   59.8890   25.9521   45.9804 H   0  0  0  0  0  0  0  0  0  0  0  0
   60.6307   28.0601   47.0343 H   0  0  0  0  0  0  0  0  0  0  0  0
  1  2  1  0
  2  3  1  0
  3  4  1  0
  3  5  1  0
  5  6  1  0
  6  7  1  0
  7  8  1  0
  8  9  1  0
  9 10  2  0
 10 11  1  0
 11 12  2  0
 12 13  1  0
 13 14  2  0
 14 15  1  0
 15 16  2  0
 16 17  1  0
 16 18  1  0
 18 19  2  0
 19 20  1  0
 20 21  1  0
 21 22  1  0
 22 23  1  0
 23 24  1  0
 24 25  1  0
 24 26  1  0
 24 27  1  0
 20 28  2  0
 28 29  1  0
 29 30  2  0
 30  9  1  0
 15 10  1  0
 30 18  1  0
  1 31  1  0
  1 32  1  0
  1 33  1  0
  2 34  1  0
  2 35  1  0
  4 36  1  0
  4 37  1  0
  4 38  1  0
  5 39  1  0
  5 40  1  0
  6 41  1  0
  6 42  1  0
  7 43  1  0
  7 44  1  0
  8 45  1  0
  8 46  1  0
 11 47  1  0
 12 48  1  0
 13 49  1  0
 14 50  1  0
 17 51  1  0
 17 52  1  0
 17 53  1  0
 19 54  1  0
 22 55  1  0
 22 56  1  0
 23 57  1  0
 23 58  1  0
 25 59  1  0
 25 60  1  0
 25 61  1  0
 26 62  1  0
 26 63  1  0
 26 64  1  0
 27 65  1  0
 27 66  1  0
 27 67  1  0
 28 68  1  0
 29 69  1  0
M  CHG  3   8   1  16   1  24   1
M  END
>  <UniqueID>  (26) 
25

>  <SMILES>  (26) 
CCN(C)CCC[NH2+]c1c2ccccc2[n+](C)c2cc(OCC[N+](C)(C)C)ccc12

>  <Energy>  (26) 
107.77711970848777

>  <Genealogy>  (26) 
CCN(C)CCC[NH2+]c1c2ccccc2[n+](C)c2cc(OCC[N+](C)(C)C)ccc12 (protonated)
CCN(C)CCC[NH2+]c1c2ccccc2[n+](C)c2cc(OCC[N+](C)(C)C)ccc12 (3D coordinates assigned)
CCN(C)CCC[NH2+]c1c2ccccc2[n+](C)c2cc(OCC[N+](C)(C)C)ccc12 (optimized conformer: 107.77711970848777 kcal/mol)

>  <smiles>  (26) 
CCN(C)CCCNc1c2ccccc2[n+](C)c2cc(OCC[N+](C)(C)C)ccc12

>  <score_type>  (26) 
oracle

>  <origin>  (26) 
adg

>  <m_score__min__energy>  (26) 
-2.9100000000000001

>  <m_primary>  (26) 
energy

$$$$
26:0
     RDKit          3D

 83 87  0  0  0  0  0  0  0  0999 V2000
   60.7770   27.0820   49.9910 C   0  0  0  0  0  0  0  0  0  0  0  0
   61.6220   26.8750   51.2550 C   0  0  0  0  0  0  0  0  0  0  0  0
   62.1040   28.1360   51.8660 N   0  0  0  0  0  0  0  0  0  0  0  0
   63.4950   28.1080   52.3670 C   0  0  0  0  0  0  0  0  0  0  0  0
   64.3680   29.1730   51.7040 C   0  0  0  0  0  0  0  0  0  0  0  0
   61.1550   28.6770   52.8690 C   0  0  0  0  0  0  0  0  0  0  0  0
   61.4970   30.1330   53.1930 C   0  0  0  0  0  0  0  0  0  0  0  0
   61.5350   30.9290   52.0040 O   0  0  0  0  0  0  0  0  0  0  0  0
   60.9410   30.6120   50.7690 C   0  0  0  0  0  0  0  0  0  0  0  0
   61.6630   30.5700   49.5600 C   0  0  0  0  0  0  0  0  0  0  0  0
   61.0070   30.3170   48.3530 C   0  0  0  0  0  0  0  0  0  0  0  0
   59.6260   30.0840   48.3260 C   0  0  0  0  0  0  0  0  0  0  0  0
   58.9280   29.8590   47.0370 C   0  0  0  0  0  0  0  0  0  0  0  0
   58.1950   30.8120   46.3140 C   0  0  0  0  0  0  0  0  0  0  0  0
   57.7230   30.3190   45.0920 C   0  0  0  0  0  0  0  0  0  0  0  0
   56.9780   31.0200   44.1470 C   0  0  0  0  0  0  0  0  0  0  0  0
   56.6220   30.3650   42.9590 C   0  0  0  0  0  0  0  0  0  0  0  0
   57.0140   29.0270   42.7500 C   0  0  0  0  0  0  0  0  0  0  0  0
   57.7430   28.3500   43.6970 N   0  0  0  0  0  0  0  0  0  0  0  0
   58.1470   26.9570   43.4760 C   0  0  0  0  0  0  0  0  0  0  0  0
   58.0740   28.9990   44.8530 C   0  0  0  0  0  0  0  0  0  0  0  0
   58.9690   28.4120   46.1520 S   0  0  0  0  0  0  0  0  0  0  0  0
   58.9090   30.0940   49.5330 C   0  0  0  0  0  0  0  0  0  0  0  0
   59.5620   30.3520   50.7540 C   0  0  0  0  0  0  0  0  0  0  0  0
   58.8700   30.3640   51.9790 O   0  0  0  0  0  0  0  0  0  0  0  0
   57.5920   30.9600   52.1800 C   0  0  0  0  0  0  0  0  0  0  0  0
   57.5600   32.3390   51.5110 C   0  0  0  0  0  0  0  0  0  0  0  0
   58.5040   33.3500   52.1860 C   0  0  0  0  0  0  0  0  0  0  0  0
   59.7900   33.6050   51.3910 C   0  0  0  0  0  0  0  0  0  0  0  0
   59.4910   34.3440   50.2070 O   0  0  0  0  0  0  0  0  0  0  0  0
   60.1070   34.1610   48.9580 C   0  0  0  0  0  0  0  0  0  0  0  0
   59.2860   34.2730   47.8280 C   0  0  0  0  0  0  0  0  0  0  0  0
   59.7680   33.9820   46.5490 C   0  0  0  0  0  0  0  0  0  0  0  0
   58.8830   34.1000   45.4660 O   0  0  0  0  0  0  0  0  0  0  0  0
   57.4650   34.1340   45.5830 C   0  0  0  0  0  0  0  0  0  0  0  0
   61.1000   33.5620   46.3940 C   0  0  0  0  0  0  0  0  0  0  0  0
   61.9530   33.4880   47.5020 C   0  0  0  0  0  0  0  0  0  0  0  0
   63.2820   33.0790   47.3460 C   0  0  0  0  0  0  0  0  0  0  0  0
   64.1400   33.0640   48.4460 C   0  0  0  0  0  0  0  0  0  0  0  0
   63.6700   33.4980   49.6830 C   0  0  0  0  0  0  0  0  0  0  0  0
   62.3730   33.8950   49.8290 N   0  0  0  0  0  0  0  0  0  0  0  0
   61.4800   33.8380   48.7910 C   0  0  0  0  0  0  0  0  0  0  0  0
   59.7453   27.3347   50.2770 H   0  0  0  0  0  0  0  0  0  0  0  0
   61.2037   27.9022   49.3950 H   0  0  0  0  0  0  0  0  0  0  0  0
   60.7763   26.1575   49.3950 H   0  0  0  0  0  0  0  0  0  0  0  0
   61.0102   26.3417   51.9975 H   0  0  0  0  0  0  0  0  0  0  0  0
   62.5128   26.3039   50.9545 H   0  0  0  0  0  0  0  0  0  0  0  0
   63.4843   28.2841   53.4528 H   0  0  0  0  0  0  0  0  0  0  0  0
   63.9214   27.1231   52.1259 H   0  0  0  0  0  0  0  0  0  0  0  0
   64.8626   29.7764   52.4794 H   0  0  0  0  0  0  0  0  0  0  0  0
   65.1294   28.6852   51.0777 H   0  0  0  0  0  0  0  0  0  0  0  0
   63.7402   29.8239   51.0777 H   0  0  0  0  0  0  0  0  0  0  0  0
   60.1328   28.6254   52.4660 H   0  0  0  0  0  0  0  0  0  0  0  0
   61.2280   28.0791   53.7894 H   0  0  0  0  0  0  0  0  0  0  0  0
   60.7336   30.5388   53.8731 H   0  0  0  0  0  0  0  0  0  0  0  0
   62.4898   30.1624   53.6657 H   0  0  0  0  0  0  0  0  0  0  0  0
   62.7502   30.7375   49.5665 H   0  0  0  0  0  0  0  0  0  0  0  0
   61.5805   30.3006   47.4145 H   0  0  0  0  0  0  0  0  0  0  0  0
   58.0110   31.8366   46.6693 H   0  0  0  0  0  0  0  0  0  0  0  0
   56.6761   32.0622   44.3279 H   0  0  0  0  0  0  0  0  0  0  0  0
   56.0380   30.8943   42.1917 H   0  0  0  0  0  0  0  0  0  0  0  0
   56.7323   28.5185   41.8162 H   0  0  0  0  0  0  0  0  0  0  0  0
   58.2915   26.4588   44.4460 H   0  0  0  0  0  0  0  0  0  0  0  0
   57.3636   26.4337   42.9081 H   0  0  0  0  0  0  0  0  0  0  0  0
   59.0888   26.9341   42.9081 H   0  0  0  0  0  0  0  0  0  0  0  0
   57.8266   29.8984   49.5250 H   0  0  0  0  0  0  0  0  0  0  0  0
   56.8150   30.3195   51.7371 H   0  0  0  0  0  0  0  0  0  0  0  0
   57.4049   31.0713   53.2583 H   0  0  0  0  0  0  0  0  0  0  0  0
   57.8597   32.2264   50.4586 H   0  0  0  0  0  0  0  0  0  0  0  0
   56.5356   32.7288   51.6034 H   0  0  0  0  0  0  0  0  0  0  0  0
   57.9692   34.3045   52.3000 H   0  0  0  0  0  0  0  0  0  0  0  0
   58.8001   32.9218   53.1550 H   0  0  0  0  0  0  0  0  0  0  0  0
   60.4943   34.1790   52.0111 H   0  0  0  0  0  0  0  0  0  0  0  0
   60.2404   32.6410   51.1120 H   0  0  0  0  0  0  0  0  0  0  0  0
   58.2417   34.5963   47.9501 H   0  0  0  0  0  0  0  0  0  0  0  0
   57.1849   34.1407   46.6467 H   0  0  0  0  0  0  0  0  0  0  0  0
   57.0786   35.0417   45.0964 H   0  0  0  0  0  0  0  0  0  0  0  0
   57.0355   33.2459   45.0964 H   0  0  0  0  0  0  0  0  0  0  0  0
   61.4748   33.2897   45.3963 H   0  0  0  0  0  0  0  0  0  0  0  0
   63.6501   32.7695   46.3567 H   0  0  0  0  0  0  0  0  0  0  0  0
   65.1768   32.7131   48.3374 H   0  0  0  0  0  0  0  0  0  0  0  0
   64.3490   33.5209   50.5481 H   0  0  0  0  0  0  0  0  0  0  0  0
   62.0940   34.2750   50.7560 H   0  0  0  0  0  0  0  0  0  0  0  0
  1  2  1  0
  2  3  1  0
  3  4  1  0
  4  5  1  0
  3  6  1  0
  6  7  1  0
  7  8  1  0
  8  9  1  0
  9 10  2  0
 10 11  1  0
 11 12  2  0
 12 13  1  0
 13 14  2  0
 14 15  1  0
 15 16  2  0
 16 17  1  0
 17 18  2  0
 18 19  1  0
 19 20  1  0
 19 21  2  0
 21 22  1  0
 12 23  1  0
 23 24  2  0
 24 25  1  0
 25 26  1  0
 26 27  1  0
 27 28  1  0
 28 29  1  0
 29 30  1  0
 30 31  1  0
 31 32  2  0
 32 33  1  0
 33 34  1  0
 34 35  1  0
 33 36  2  0
 36 37  1  0
 37 38  2  0
 38 39  1  0
 39 40  2  0
 40 41  1  0
 41 42  2  0
 24  9  1  0
 42 31  1  0
 22 13  1  0
 42 37  1  0
 21 15  1  0
  1 43  1  0
  1 44  1  0
  1 45  1  0
  2 46  1  0
  2 47  1  0
  4 48  1  0
  4 49  1  0
  5 50  1  0
  5 51  1  0
  5 52  1  0
  6 53  1  0
  6 54  1  0
  7 55  1  0
  7 56  1  0
 10 57  1  0
 11 58  1  0
 14 59  1  0
 16 60  1  0
 17 61  1  0
 18 62  1  0
 20 63  1  0
 20 64  1  0
 20 65  1  0
 23 66  1  0
 26 67  1  0
 26 68  1  0
 27 69  1  0
 27 70  1  0
 28 71  1  0
 28 72  1  0
 29 73  1  0
 29 74  1  0
 32 75  1  0
 35 76  1  0
 35 77  1  0
 35 78  1  0
 36 79  1  0
 38 80  1  0
 39 81  1  0
 40 82  1  0
 41 83  1  0
M  CHG  2  19   1  41   1
M  END
>  <UniqueID>  (27) 
26

>  <SMILES>  (27) 
CCN(CC)CCOc1ccc(-c2cc3ccc[n+](C)c3s2)cc1OCCCCOc1cc(OC)cc2ccc[nH+]c12

>  <Energy>  (27) 
131.34800095080786

>  <Genealogy>  (27) 
CCN(CC)CCOc1ccc(-c2cc3ccc[n+](C)c3s2)cc1OCCCCOc1cc(OC)cc2ccc[nH+]c12 (protonated)
CCN(CC)CCOc1ccc(-c2cc3ccc[n+](C)c3s2)cc1OCCCCOc1cc(OC)cc2ccc[nH+]c12 (3D coordinates assigned)
CCN(CC)CCOc1ccc(-c2cc3ccc[n+](C)c3s2)cc1OCCCCOc1cc(OC)cc2ccc[nH+]c12 (optimized conformer: 131.34800095080786 kcal/mol)

>  <smiles>  (27) 
CCN(CC)CCOc1ccc(-c2cc3ccc[n+](C)c3s2)cc1OCCCCOc1cc(OC)cc2cccnc12

>  <score_type>  (27) 
oracle

>  <origin>  (27) 
adg

>  <m_score__min__energy>  (27) 
-5.6799999999999997

>  <m_primary>  (27) 
energy

$$$$
27:0
     RDKit          3D

 38 40  0  0  0  0  0  0  0  0999 V2000
   53.9910   23.7640   44.7110 C   0  0  0  0  0  0  0  0  0  0  0  0
   55.4270   23.9590   44.9760 N   0  0  0  0  0  0  0  0  0  0  0  0
   55.8570   25.1070   45.6020 C   0  0  0  0  0  0  0  0  0  0  0  0
   55.0410   25.9920   45.9800 O   0  0  0  0  0  0  0  0  0  0  0  0
   57.2220   25.2740   45.8030 C   0  0  0  0  0  0  0  0  0  0  0  0
   58.0960   24.3310   45.3810 C   0  0  0  0  0  0  0  0  0  0  0  0
   59.3650   24.6930   45.6590 N   0  0  0  0  0  0  0  0  0  0  0  0
   59.2040   25.8950   46.2700 C   0  0  0  0  0  0  0  0  0  0  0  0
   60.5960   26.8490   46.8780 S   0  0  0  0  0  0  0  0  0  0  0  0
   60.7790   27.7800   45.3210 C   0  0  0  0  0  0  0  0  0  0  0  0
   59.9340   29.0240   45.3760 C   0  0  0  0  0  0  0  0  0  0  0  0
   60.3210   30.0800   46.2190 C   0  0  0  0  0  0  0  0  0  0  0  0
   59.5420   31.2360   46.3100 C   0  0  0  0  0  0  0  0  0  0  0  0
   58.3630   31.3470   45.5700 C   0  0  0  0  0  0  0  0  0  0  0  0
   57.3860   32.7980   45.6890 Cl  0  0  0  0  0  0  0  0  0  0  0  0
   57.9580   30.2970   44.7410 C   0  0  0  0  0  0  0  0  0  0  0  0
   58.7320   29.1340   44.6420 C   0  0  0  0  0  0  0  0  0  0  0  0
   58.1580   27.8360   43.6000 Cl  0  0  0  0  0  0  0  0  0  0  0  0
   57.9060   26.2840   46.3720 N   0  0  0  0  0  0  0  0  0  0  0  0
   57.3690   27.5040   46.9730 C   0  0  0  0  0  0  0  0  0  0  0  0
   57.6930   23.1930   44.7540 N   0  0  0  0  0  0  0  0  0  0  0  0
   58.6760   22.2170   44.2640 C   0  0  0  0  0  0  0  0  0  0  0  0
   56.3440   23.0240   44.5260 C   0  0  0  0  0  0  0  0  0  0  0  0
   55.9430   22.0070   43.8920 O   0  0  0  0  0  0  0  0  0  0  0  0
   53.4487   23.6904   45.6652 H   0  0  0  0  0  0  0  0  0  0  0  0
   53.6052   24.6180   44.1350 H   0  0  0  0  0  0  0  0  0  0  0  0
   53.8469   22.8380   44.1350 H   0  0  0  0  0  0  0  0  0  0  0  0
   61.8339   28.0595   45.1831 H   0  0  0  0  0  0  0  0  0  0  0  0
   60.4520   27.1525   44.4788 H   0  0  0  0  0  0  0  0  0  0  0  0
   61.2440   29.9956   46.8114 H   0  0  0  0  0  0  0  0  0  0  0  0
   59.8580   32.0606   46.9659 H   0  0  0  0  0  0  0  0  0  0  0  0
   57.0261   30.3846   44.1631 H   0  0  0  0  0  0  0  0  0  0  0  0
   57.4061   27.4198   48.0691 H   0  0  0  0  0  0  0  0  0  0  0  0
   57.9705   28.3668   46.6510 H   0  0  0  0  0  0  0  0  0  0  0  0
   56.3264   27.6432   46.6510 H   0  0  0  0  0  0  0  0  0  0  0  0
   59.1667   21.7298   45.1194 H   0  0  0  0  0  0  0  0  0  0  0  0
   58.1658   21.4579   43.6529 H   0  0  0  0  0  0  0  0  0  0  0  0
   59.4314   22.7326   43.6529 H   0  0  0  0  0  0  0  0  0  0  0  0
  1  2  1  0
  2  3  1  0
  3  4  2  0
  3  5  1  0
  5  6  2  0
  6  7  1  0
  7  8  2  0
  8  9  1  0
  9 10  1  0
 10 11  1  0
 11 12  2  0
 12 13  1  0
 13 14  2  0
 14 15  1  0
 14 16  1  0
 16 17  2  0
 17 18  1  0
  8 19  1  0
 19 20  1  0
  6 21  1  0
 21 22  1  0
 21 23  1  0
 23 24  2  0
 23  2  1  0
 19  5  1  0
 17 11  1  0
  1 25  1  0
  1 26  1  0
  1 27  1  0
 10 28  1  0
 10 29  1  0
 12 30  1  0
 13 31  1  0
 16 32  1  0
 20 33  1  0
 20 34  1  0
 20 35  1  0
 22 36  1  0
 22 37  1  0
 22 38  1  0
M  END
>  <UniqueID>  (28) 
27

>  <SMILES>  (28) 
Cn1c(=O)c2c(nc(SCc3ccc(Cl)cc3Cl)n2C)n(C)c1=O

>  <Energy>  (28) 
82.17751564832083

>  <Genealogy>  (28) 
Cn1c(=O)c2c(nc(SCc3ccc(Cl)cc3Cl)n2C)n(C)c1=O (3D coordinates assigned)
Cn1c(=O)c2c(nc(SCc3ccc(Cl)cc3Cl)n2C)n(C)c1=O (optimized conformer: 82.17751564832083 kcal/mol)

>  <smiles>  (28) 
Cn1c(=O)c2c(nc(SCc3ccc(Cl)cc3Cl)n2C)n(C)c1=O

>  <score_type>  (28) 
oracle

>  <origin>  (28) 
adg

>  <m_score__min__energy>  (28) 
-7.4800000000000004

>  <m_primary>  (28) 
energy

$$$$
28:0
     RDKit          3D

 57 60  0  0  0  0  0  0  0  0999 V2000
   58.8430   32.0600   50.6190 C   0  0  0  0  0  0  0  0  0  0  0  0
   60.2710   31.5410   50.8310 C   0  0  0  0  0  0  0  0  0  0  0  0
   60.8030   30.8270   49.6400 N   0  0  0  0  0  0  0  0  0  0  0  0
   62.1950   31.2700   49.3130 C   0  0  0  0  0  0  0  0  0  0  0  0
   62.3480   31.6380   47.8340 C   0  0  0  0  0  0  0  0  0  0  0  0
   60.7560   29.3620   49.8830 C   0  0  0  0  0  0  0  0  0  0  0  0
   60.6100   28.5630   48.5750 C   0  0  0  0  0  0  0  0  0  0  0  0
   59.2050   28.5020   48.1770 N   0  0  0  0  0  0  0  0  0  0  0  0
   58.7770   29.0390   46.9180 C   0  0  0  0  0  0  0  0  0  0  0  0
   58.4080   28.2220   45.8250 C   0  0  0  0  0  0  0  0  0  0  0  0
   58.3790   26.8200   45.9510 C   0  0  0  0  0  0  0  0  0  0  0  0
   58.0730   26.0160   44.8550 C   0  0  0  0  0  0  0  0  0  0  0  0
   57.7950   26.5930   43.6200 C   0  0  0  0  0  0  0  0  0  0  0  0
   57.7830   27.9810   43.4740 C   0  0  0  0  0  0  0  0  0  0  0  0
   58.0460   28.8320   44.5740 C   0  0  0  0  0  0  0  0  0  0  0  0
   57.9780   30.2160   44.4610 N   0  0  0  0  0  0  0  0  0  0  0  0
   57.4310   30.8670   43.2580 C   0  0  0  0  0  0  0  0  0  0  0  0
   58.4140   30.9690   45.5230 C   0  0  0  0  0  0  0  0  0  0  0  0
   58.6210   32.3410   45.6750 C   0  0  0  0  0  0  0  0  0  0  0  0
   59.0640   32.4910   46.9810 C   0  0  0  0  0  0  0  0  0  0  0  0
   59.1590   31.3260   47.5820 O   0  0  0  0  0  0  0  0  0  0  0  0
   58.7830   30.4100   46.7210 C   0  0  0  0  0  0  0  0  0  0  0  0
   59.4590   33.8020   47.5890 C   0  0  0  0  0  0  0  0  0  0  0  0
   58.9420   34.9790   46.7410 C   0  0  0  0  0  0  0  0  0  0  0  0
   59.1990   34.7440   45.2400 C   0  0  0  0  0  0  0  0  0  0  0  0
   58.4500   33.4990   44.7270 C   0  0  0  0  0  0  0  0  0  0  0  0
   58.3670   32.2330   51.5955 H   0  0  0  0  0  0  0  0  0  0  0  0
   58.8758   33.0037   50.0548 H   0  0  0  0  0  0  0  0  0  0  0  0
   58.2622   31.3154   50.0548 H   0  0  0  0  0  0  0  0  0  0  0  0
   60.9273   32.3958   51.0515 H   0  0  0  0  0  0  0  0  0  0  0  0
   60.2444   30.8240   51.6648 H   0  0  0  0  0  0  0  0  0  0  0  0
   60.1520   31.0330   48.8420 H   0  0  0  0  0  0  0  0  0  0  0  0
   62.4405   32.1504   49.9252 H   0  0  0  0  0  0  0  0  0  0  0  0
   62.8766   30.4336   49.5271 H   0  0  0  0  0  0  0  0  0  0  0  0
   62.7691   32.6507   47.7498 H   0  0  0  0  0  0  0  0  0  0  0  0
   63.0217   30.9190   47.3450 H   0  0  0  0  0  0  0  0  0  0  0  0
   61.3631   31.6086   47.3450 H   0  0  0  0  0  0  0  0  0  0  0  0
   61.6860   29.0554   50.3841 H   0  0  0  0  0  0  0  0  0  0  0  0
   59.8770   29.1503   50.5095 H   0  0  0  0  0  0  0  0  0  0  0  0
   61.1917   29.0549   47.7815 H   0  0  0  0  0  0  0  0  0  0  0  0
   60.9834   27.5407   48.7344 H   0  0  0  0  0  0  0  0  0  0  0  0
   58.5020   28.4870   48.9520 H   0  0  0  0  0  0  0  0  0  0  0  0
   58.5999   26.3553   46.9233 H   0  0  0  0  0  0  0  0  0  0  0  0
   58.0512   24.9219   44.9665 H   0  0  0  0  0  0  0  0  0  0  0  0
   57.5831   25.9508   42.7524 H   0  0  0  0  0  0  0  0  0  0  0  0
   57.5659   28.4202   42.4891 H   0  0  0  0  0  0  0  0  0  0  0  0
   56.7500   31.6774   43.5572 H   0  0  0  0  0  0  0  0  0  0  0  0
   58.2549   31.2826   42.6593 H   0  0  0  0  0  0  0  0  0  0  0  0
   56.8796   30.1271   42.6593 H   0  0  0  0  0  0  0  0  0  0  0  0
   59.0331   33.8726   48.6008 H   0  0  0  0  0  0  0  0  0  0  0  0
   60.5570   33.8539   47.6298 H   0  0  0  0  0  0  0  0  0  0  0  0
   57.8602   35.0913   46.9059 H   0  0  0  0  0  0  0  0  0  0  0  0
   59.4792   35.8890   47.0466 H   0  0  0  0  0  0  0  0  0  0  0  0
   58.8566   35.6245   44.6766 H   0  0  0  0  0  0  0  0  0  0  0  0
   60.2774   34.5818   45.0957 H   0  0  0  0  0  0  0  0  0  0  0  0
   57.3795   33.7348   44.6357 H   0  0  0  0  0  0  0  0  0  0  0  0
   58.8658   33.2168   43.7485 H   0  0  0  0  0  0  0  0  0  0  0  0
  1  2  1  0
  2  3  1  0
  3  4  1  0
  4  5  1  0
  3  6  1  0
  6  7  1  0
  7  8  1  0
  8  9  1  0
  9 10  2  0
 10 11  1  0
 11 12  2  0
 12 13  1  0
 13 14  2  0
 14 15  1  0
 15 16  2  0
 16 17  1  0
 16 18  1  0
 18 19  1  0
 19 20  2  0
 20 21  1  0
 21 22  1  0
 20 23  1  0
 23 24  1  0
 24 25  1  0
 25 26  1  0
 22  9  1  0
 15 10  1  0
 22 18  2  0
 26 19  1  0
  1 27  1  0
  1 28  1  0
  1 29  1  0
  2 30  1  0
  2 31  1  0
  3 32  1  0
  4 33  1  0
  4 34  1  0
  5 35  1  0
  5 36  1  0
  5 37  1  0
  6 38  1  0
  6 39  1  0
  7 40  1  0
  7 41  1  0
  8 42  1  0
 11 43  1  0
 12 44  1  0
 13 45  1  0
 14 46  1  0
 17 47  1  0
 17 48  1  0
 17 49  1  0
 23 50  1  0
 23 51  1  0
 24 52  1  0
 24 53  1  0
 25 54  1  0
 25 55  1  0
 26 56  1  0
 26 57  1  0
M  CHG  2   3   1  16   1
M  END
>  <UniqueID>  (29) 
28

>  <SMILES>  (29) 
CC[NH+](CC)CCNc1c2ccccc2[n+](C)c2c3c(oc12)CCCC3

>  <Energy>  (29) 
113.08953612464278

>  <Genealogy>  (29) 
CC[NH+](CC)CCNc1c2ccccc2[n+](C)c2c3c(oc12)CCCC3 (protonated)
CC[NH+](CC)CCNc1c2ccccc2[n+](C)c2c3c(oc12)CCCC3 (3D coordinates assigned)
CC[NH+](CC)CCNc1c2ccccc2[n+](C)c2c3c(oc12)CCCC3 (nonaromatic ring conformer: 113.08953612464278 kcal/mol)

>  <smiles>  (29) 
CCN(CC)CCNc1c2ccccc2[n+](C)c2c3c(oc12)CCCC3

>  <score_type>  (29) 
oracle

>  <origin>  (29) 
adg

>  <m_score__min__energy>  (29) 
-5.0599999999999996

>  <m_primary>  (29) 
energy

$$$$
29:0
     RDKit          3D

 32 33  0  0  1  0  0  0  0  0999 V2000
   57.9400   28.0040   44.4080 C   0  0  0  0  0  0  0  0  0  0  0  0
   56.7090   28.1040   45.2890 C   0  0  0  0  0  0  0  0  0  0  0  0
   55.9650   29.2740   44.9470 N   0  0  0  0  0  0  0  0  0  0  0  0
   56.1370   29.7240   43.5970 C   0  0  0  0  0  0  0  0  0  0  0  0
   56.9320   30.9990   43.6300 C   0  0  0  0  0  0  0  0  0  0  0  0
   56.8940   31.6960   44.8900 N   0  0  0  0  0  0  0  0  0  0  0  0
   57.8140   31.7670   45.7600 C   0  0  0  0  0  0  0  0  0  0  0  0
   58.0440   30.6990   46.5420 N   0  0  0  0  0  0  0  0  0  0  0  0
   59.0290   30.7820   47.4510 C   0  0  0  0  0  0  0  0  0  0  0  0
   59.7890   31.9110   47.5940 N   0  0  0  0  0  0  0  0  0  0  0  0
   59.5690   32.9900   46.8170 C   0  0  0  0  0  0  0  0  0  0  0  0
   60.2930   34.1580   46.9110 C   0  0  0  0  0  0  0  0  0  0  0  0
   60.0200   35.2520   46.0790 C   0  0  0  0  0  0  0  0  0  0  0  0
   59.0100   35.1850   45.1370 C   0  0  0  0  0  0  0  0  0  0  0  0
   58.2860   34.0140   45.0450 C   0  0  0  0  0  0  0  0  0  0  0  0
   58.5630   32.9440   45.8700 C   0  0  0  0  0  0  0  0  0  0  0  0
   58.8378   27.9311   45.0394 H   0  0  0  0  0  0  0  0  0  0  0  0
   57.8647   27.1090   43.7729 H   0  0  0  0  0  0  0  0  0  0  0  0
   58.0101   28.8994   43.7729 H   0  0  0  0  0  0  0  0  0  0  0  0
   56.0797   27.2142   45.1400 H   0  0  0  0  0  0  0  0  0  0  0  0
   57.0195   28.1652   46.3425 H   0  0  0  0  0  0  0  0  0  0  0  0
   55.9560   30.0400   45.6200 H   0  0  0  0  0  0  0  0  0  0  0  0
   56.6771   28.9623   43.0156 H   0  0  0  0  0  0  0  0  0  0  0  0
   55.1589   29.8958   43.1240 H   0  0  0  0  0  0  0  0  0  0  0  0
   57.9806   30.7556   43.4039 H   0  0  0  0  0  0  0  0  0  0  0  0
   56.4757   31.6706   42.8879 H   0  0  0  0  0  0  0  0  0  0  0  0
   57.4550   29.8580   46.4170 H   0  0  0  0  0  0  0  0  0  0  0  0
   59.2309   29.9169   48.0998 H   0  0  0  0  0  0  0  0  0  0  0  0
   61.1011   34.2334   47.6535 H   0  0  0  0  0  0  0  0  0  0  0  0
   60.6145   36.1724   46.1761 H   0  0  0  0  0  0  0  0  0  0  0  0
   58.7902   36.0398   44.4805 H   0  0  0  0  0  0  0  0  0  0  0  0
   57.4772   33.9328   44.3039 H   0  0  0  0  0  0  0  0  0  0  0  0
  1  2  1  0
  2  3  1  0
  3  4  1  0
  4  5  1  0
  5  6  1  0
  6  7  2  0
  7  8  1  0
  8  9  1  0
  9 10  2  0
 10 11  1  0
 11 12  2  0
 12 13  1  0
 13 14  2  0
 14 15  1  0
 15 16  2  0
 16  7  1  0
 16 11  1  0
  1 17  1  0
  1 18  1  0
  1 19  1  0
  2 20  1  0
  2 21  1  0
  3 22  1  0
  4 23  1  0
  4 24  1  0
  5 25  1  0
  5 26  1  0
  8 27  1  0
  9 28  1  0
 12 29  1  0
 13 30  1  0
 14 31  1  0
 15 32  1  0
M  END
>  <smiles>  (30) 
CCNCCN=c1[nH]cnc2ccccc12

>  <score_type>  (30) 
oracle

>  <origin>  (30) 
adg

>  <m_score__min__energy>  (30) 
-5.6500000000000004

>  <m_primary>  (30) 
energy

$$$$
30:0
     RDKit          3D

 56 59  0  0  0  0  0  0  0  0999 V2000
   61.0430   33.8490   50.0560 C   0  0  0  0  0  0  0  0  0  0  0  0
   61.8010   33.8100   48.7250 C   0  0  0  0  0  0  0  0  0  0  0  0
   62.9920   32.9250   48.7220 N   0  0  0  0  0  0  0  0  0  0  0  0
   63.7750   32.9520   47.4630 C   0  0  0  0  0  0  0  0  0  0  0  0
   63.2040   33.8720   46.3700 C   0  0  0  0  0  0  0  0  0  0  0  0
   62.7970   31.5830   49.3110 C   0  0  0  0  0  0  0  0  0  0  0  0
   61.4930   30.9360   48.8300 C   0  0  0  0  0  0  0  0  0  0  0  0
   61.2510   31.2600   47.4230 N   0  0  0  0  0  0  0  0  0  0  0  0
   60.0200   30.9050   46.7730 C   0  0  0  0  0  0  0  0  0  0  0  0
   59.5940   29.5660   46.7510 C   0  0  0  0  0  0  0  0  0  0  0  0
   58.4380   29.2110   46.0160 C   0  0  0  0  0  0  0  0  0  0  0  0
   57.8250   30.1620   45.2170 N   0  0  0  0  0  0  0  0  0  0  0  0
   56.9520   29.7540   44.0960 C   0  0  0  0  0  0  0  0  0  0  0  0
   58.0930   31.5020   45.4150 C   0  0  0  0  0  0  0  0  0  0  0  0
   57.2630   32.5170   44.8750 C   0  0  0  0  0  0  0  0  0  0  0  0
   57.5630   33.8660   45.0620 C   0  0  0  0  0  0  0  0  0  0  0  0
   58.6800   34.2380   45.8020 C   0  0  0  0  0  0  0  0  0  0  0  0
   59.4980   33.2640   46.3700 C   0  0  0  0  0  0  0  0  0  0  0  0
   59.2140   31.8940   46.1890 C   0  0  0  0  0  0  0  0  0  0  0  0
   57.9000   27.8110   46.1920 C   0  0  0  0  0  0  0  0  0  0  0  0
   56.8120   27.3720   45.4980 N   0  0  0  0  0  0  0  0  0  0  0  0
   56.2860   26.1310   45.6570 C   0  0  0  0  0  0  0  0  0  0  0  0
   56.8450   25.2510   46.5780 C   0  0  0  0  0  0  0  0  0  0  0  0
   57.9350   25.6670   47.3380 C   0  0  0  0  0  0  0  0  0  0  0  0
   58.4750   26.9460   47.1530 C   0  0  0  0  0  0  0  0  0  0  0  0
   59.5540   27.4360   48.0760 C   0  0  0  0  0  0  0  0  0  0  0  0
   60.4310   28.4760   47.3900 C   0  0  0  0  0  0  0  0  0  0  0  0
   61.7613   33.8120   50.8883 H   0  0  0  0  0  0  0  0  0  0  0  0
   60.4579   34.7784   50.1176 H   0  0  0  0  0  0  0  0  0  0  0  0
   60.3656   32.9845   50.1176 H   0  0  0  0  0  0  0  0  0  0  0  0
   61.1092   33.4580   47.9456 H   0  0  0  0  0  0  0  0  0  0  0  0
   62.1687   34.8308   48.5439 H   0  0  0  0  0  0  0  0  0  0  0  0
   64.7935   33.2931   47.7003 H   0  0  0  0  0  0  0  0  0  0  0  0
   63.7443   31.9304   47.0563 H   0  0  0  0  0  0  0  0  0  0  0  0
   62.6794   34.7173   46.8394 H   0  0  0  0  0  0  0  0  0  0  0  0
   64.0253   34.2519   45.7446 H   0  0  0  0  0  0  0  0  0  0  0  0
   62.4991   33.3046   45.7446 H   0  0  0  0  0  0  0  0  0  0  0  0
   63.6416   30.9405   49.0213 H   0  0  0  0  0  0  0  0  0  0  0  0
   62.7419   31.6933   50.4041 H   0  0  0  0  0  0  0  0  0  0  0  0
   61.5669   29.8443   48.9430 H   0  0  0  0  0  0  0  0  0  0  0  0
   60.6589   31.3230   49.4337 H   0  0  0  0  0  0  0  0  0  0  0  0
   61.9800   31.7780   46.8840 H   0  0  0  0  0  0  0  0  0  0  0  0
   56.0230   29.3198   44.4940 H   0  0  0  0  0  0  0  0  0  0  0  0
   56.7114   30.6330   43.4799 H   0  0  0  0  0  0  0  0  0  0  0  0
   57.4720   29.0056   43.4799 H   0  0  0  0  0  0  0  0  0  0  0  0
   56.3686   32.2359   44.2996 H   0  0  0  0  0  0  0  0  0  0  0  0
   56.9141   34.6381   44.6228 H   0  0  0  0  0  0  0  0  0  0  0  0
   58.9180   35.3032   45.9391 H   0  0  0  0  0  0  0  0  0  0  0  0
   60.3728   33.5656   46.9647 H   0  0  0  0  0  0  0  0  0  0  0  0
   55.4174   25.8210   45.0574 H   0  0  0  0  0  0  0  0  0  0  0  0
   56.4313   24.2396   46.7042 H   0  0  0  0  0  0  0  0  0  0  0  0
   58.3731   24.9894   48.0856 H   0  0  0  0  0  0  0  0  0  0  0  0
   59.0890   27.8878   48.9646 H   0  0  0  0  0  0  0  0  0  0  0  0
   60.1842   26.5811   48.3623 H   0  0  0  0  0  0  0  0  0  0  0  0
   61.1003   28.9290   48.1362 H   0  0  0  0  0  0  0  0  0  0  0  0
   61.0109   27.9754   46.6006 H   0  0  0  0  0  0  0  0  0  0  0  0
  1  2  1  0
  2  3  1  0
  3  4  1  0
  4  5  1  0
  3  6  1  0
  6  7  1  0
  7  8  1  0
  8  9  1  0
  9 10  2  0
 10 11  1  0
 11 12  2  0
 12 13  1  0
 12 14  1  0
 14 15  2  0
 15 16  1  0
 16 17  2  0
 17 18  1  0
 18 19  2  0
 11 20  1  0
 20 21  2  0
 21 22  1  0
 22 23  2  0
 23 24  1  0
 24 25  2  0
 25 26  1  0
 26 27  1  0
 19  9  1  0
 25 20  1  0
 27 10  1  0
 19 14  1  0
  1 28  1  0
  1 29  1  0
  1 30  1  0
  2 31  1  0
  2 32  1  0
  4 33  1  0
  4 34  1  0
  5 35  1  0
  5 36  1  0
  5 37  1  0
  6 38  1  0
  6 39  1  0
  7 40  1  0
  7 41  1  0
  8 42  1  0
 13 43  1  0
 13 44  1  0
 13 45  1  0
 15 46  1  0
 16 47  1  0
 17 48  1  0
 18 49  1  0
 22 50  1  0
 23 51  1  0
 24 52  1  0
 26 53  1  0
 26 54  1  0
 27 55  1  0
 27 56  1  0
M  CHG  1  12   1
M  END
>  <UniqueID>  (31) 
29

>  <SMILES>  (31) 
CCN(CC)CCNc1c2c([n+](C)c3ccccc13)-c1ncccc1CC2

>  <Energy>  (31) 
94.54052825804595

>  <Genealogy>  (31) 
CCN(CC)CCNc1c2c([n+](C)c3ccccc13)-c1ncccc1CC2 (3D coordinates assigned)
CCN(CC)CCNc1c2c([n+](C)c3ccccc13)-c1ncccc1CC2 (nonaromatic ring conformer: 94.54052825804595 kcal/mol)

>  <smiles>  (31) 
CCN(CC)CCNc1c2c([n+](C)c3ccccc13)-c1ncccc1CC2

>  <score_type>  (31) 
oracle

>  <origin>  (31) 
adg

>  <m_score__min__energy>  (31) 
-6.1200000000000001

>  <m_primary>  (31) 
energy

$$$$
31:0
     RDKit          3D

 49 48  0  0  0  0  0  0  0  0999 V2000
   59.2820   35.0250   45.5830 C   0  0  0  0  0  0  0  0  0  0  0  0
   58.5190   34.2520   46.1040 C   0  0  0  0  0  0  0  0  0  0  0  0
   57.5840   33.3080   46.7460 C   0  0  0  0  0  0  0  0  0  0  0  0
   57.9310   31.8840   46.4990 N   0  0  2  0  0  0  0  0  0  0  0  0
   58.7370   31.2920   47.6020 C   0  0  0  0  0  0  0  0  0  0  0  0
   60.0500   30.6530   47.1070 C   0  0  0  0  0  0  0  0  0  0  0  0
   61.2740   31.4860   47.5060 C   0  0  0  0  0  0  0  0  0  0  0  0
   61.3770   32.6480   46.7050 O   0  0  0  0  0  0  0  0  0  0  0  0
   61.8810   33.7320   47.4600 C   0  0  0  0  0  0  0  0  0  0  0  0
   63.4010   33.8020   47.3070 C   0  0  0  0  0  0  0  0  0  0  0  0
   64.1220   33.1070   48.4600 C   0  0  0  0  0  0  0  0  0  0  0  0
   58.6280   31.7310   45.1930 C   0  0  0  0  0  0  0  0  0  0  0  0
   57.6460   31.5990   44.0140 C   0  0  0  0  0  0  0  0  0  0  0  0
   56.3320   31.3940   44.5000 O   0  0  0  0  0  0  0  0  0  0  0  0
   55.8100   30.1730   44.0190 C   0  0  0  0  0  0  0  0  0  0  0  0
   56.6440   29.0130   44.5580 C   0  0  0  0  0  0  0  0  0  0  0  0
   57.0050   29.2560   45.9060 O   0  0  0  0  0  0  0  0  0  0  0  0
   57.8290   28.2270   46.4200 C   0  0  0  0  0  0  0  0  0  0  0  0
   58.8550   27.7910   45.3780 C   0  0  0  0  0  0  0  0  0  0  0  0
   59.9787   35.7309   45.1073 H   0  0  0  0  0  0  0  0  0  0  0  0
   57.5952   33.4878   47.8311 H   0  0  0  0  0  0  0  0  0  0  0  0
   56.5897   33.4835   46.3094 H   0  0  0  0  0  0  0  0  0  0  0  0
   57.0220   31.3650   46.4450 H   0  0  0  0  0  0  0  0  0  0  0  0
   58.9825   32.0858   48.3229 H   0  0  0  0  0  0  0  0  0  0  0  0
   58.1339   30.4951   48.0617 H   0  0  0  0  0  0  0  0  0  0  0  0
   60.1446   29.6485   47.5453 H   0  0  0  0  0  0  0  0  0  0  0  0
   60.0134   30.6031   46.0087 H   0  0  0  0  0  0  0  0  0  0  0  0
   61.1792   31.7830   48.5609 H   0  0  0  0  0  0  0  0  0  0  0  0
   62.1774   30.8761   47.3583 H   0  0  0  0  0  0  0  0  0  0  0  0
   61.4332   34.6694   47.0983 H   0  0  0  0  0  0  0  0  0  0  0  0
   61.6272   33.5874   48.5205 H   0  0  0  0  0  0  0  0  0  0  0  0
   63.6863   33.3139   46.3634 H   0  0  0  0  0  0  0  0  0  0  0  0
   63.6955   34.8618   47.3101 H   0  0  0  0  0  0  0  0  0  0  0  0
   63.7314   33.4835   49.4169 H   0  0  0  0  0  0  0  0  0  0  0  0
   63.9537   32.0218   48.3968 H   0  0  0  0  0  0  0  0  0  0  0  0
   65.2003   33.3151   48.3968 H   0  0  0  0  0  0  0  0  0  0  0  0
   59.2632   32.6135   45.0263 H   0  0  0  0  0  0  0  0  0  0  0  0
   59.2238   30.8074   45.2376 H   0  0  0  0  0  0  0  0  0  0  0  0
   57.6727   32.5197   43.4127 H   0  0  0  0  0  0  0  0  0  0  0  0
   57.9399   30.7398   43.3932 H   0  0  0  0  0  0  0  0  0  0  0  0
   54.7684   30.0623   44.3548 H   0  0  0  0  0  0  0  0  0  0  0  0
   55.8443   30.1683   42.9195 H   0  0  0  0  0  0  0  0  0  0  0  0
   56.0560   28.0851   44.5008 H   0  0  0  0  0  0  0  0  0  0  0  0
   57.5577   28.9160   43.9533 H   0  0  0  0  0  0  0  0  0  0  0  0
   58.3548   28.5966   47.3127 H   0  0  0  0  0  0  0  0  0  0  0  0
   57.1986   27.3640   46.6803 H   0  0  0  0  0  0  0  0  0  0  0  0
   59.7533   27.4093   45.8853 H   0  0  0  0  0  0  0  0  0  0  0  0
   58.4244   26.9981   44.7488 H   0  0  0  0  0  0  0  0  0  0  0  0
   59.1269   28.6513   44.7488 H   0  0  0  0  0  0  0  0  0  0  0  0
  1  2  3  0
  2  3  1  0
  3  4  1  0
  4  5  1  0
  5  6  1  0
  6  7  1  0
  7  8  1  0
  8  9  1  0
  9 10  1  0
 10 11  1  0
  4 12  1  0
 12 13  1  0
 13 14  1  0
 14 15  1  0
 15 16  1  0
 16 17  1  0
 17 18  1  0
 18 19  1  0
  1 20  1  0
  3 21  1  0
  3 22  1  0
  4 23  1  6
  5 24  1  0
  5 25  1  0
  6 26  1  0
  6 27  1  0
  7 28  1  0
  7 29  1  0
  9 30  1  0
  9 31  1  0
 10 32  1  0
 10 33  1  0
 11 34  1  0
 11 35  1  0
 11 36  1  0
 12 37  1  0
 12 38  1  0
 13 39  1  0
 13 40  1  0
 15 41  1  0
 15 42  1  0
 16 43  1  0
 16 44  1  0
 18 45  1  0
 18 46  1  0
 19 47  1  0
 19 48  1  0
 19 49  1  0
M  CHG  1   4   1
M  END
>  <UniqueID>  (32) 
30

>  <SMILES>  (32) 
C#CC[N@H+](CCCOCCC)CCOCCOCC

>  <Energy>  (32) 
41.40484599428898

>  <Genealogy>  (32) 
C#CC[NH+](CCCOCCC)CCOCCOCC (protonated)
C#CC[N@H+](CCCOCCC)CCOCCOCC (chirality)
C#CC[N@H+](CCCOCCC)CCOCCOCC (3D coordinates assigned)
C#CC[N@H+](CCCOCCC)CCOCCOCC (optimized conformer: 41.40484599428898 kcal/mol)

>  <smiles>  (32) 
C#CCN(CCCOCCC)CCOCCOCC

>  <score_type>  (32) 
oracle

>  <origin>  (32) 
adg

>  <m_score__min__energy>  (32) 
-2.3500000000000001

>  <m_primary>  (32) 
energy

$$$$
32:0
     RDKit          3D

 60 63  0  0  0  0  0  0  0  0999 V2000
   59.9800   33.8780   49.5280 C   0  0  0  0  0  0  0  0  0  0  0  0
   61.1300   34.3250   48.6240 C   0  0  0  0  0  0  0  0  0  0  0  0
   62.1560   33.2600   48.5420 N   0  0  0  0  0  0  0  0  0  0  0  0
   63.4100   33.7270   47.8930 C   0  0  0  0  0  0  0  0  0  0  0  0
   63.3170   33.8480   46.3640 C   0  0  0  0  0  0  0  0  0  0  0  0
   62.3610   32.5980   49.8540 C   0  0  0  0  0  0  0  0  0  0  0  0
   62.2160   31.0690   49.7790 C   0  0  0  0  0  0  0  0  0  0  0  0
   61.0040   30.6450   48.9270 C   0  0  0  0  0  0  0  0  0  0  0  0
   61.1840   30.9110   47.4850 N   0  0  0  0  0  0  0  0  0  0  0  0
   60.0280   30.5330   46.6780 C   0  0  0  0  0  0  0  0  0  0  0  0
   59.6680   29.1640   46.5320 C   0  0  0  0  0  0  0  0  0  0  0  0
   58.5270   28.8220   45.7650 C   0  0  0  0  0  0  0  0  0  0  0  0
   57.9450   29.7590   44.9420 N   0  0  0  0  0  0  0  0  0  0  0  0
   57.1450   29.3280   43.7740 C   0  0  0  0  0  0  0  0  0  0  0  0
   58.1860   31.1000   45.1490 C   0  0  0  0  0  0  0  0  0  0  0  0
   57.4010   32.0860   44.4980 C   0  0  0  0  0  0  0  0  0  0  0  0
   57.6320   33.4420   44.7040 C   0  0  0  0  0  0  0  0  0  0  0  0
   58.6390   33.8530   45.5620 C   0  0  0  0  0  0  0  0  0  0  0  0
   59.4220   32.9110   46.2220 C   0  0  0  0  0  0  0  0  0  0  0  0
   59.2210   31.5190   46.0320 C   0  0  0  0  0  0  0  0  0  0  0  0
   58.0250   27.4110   45.8500 C   0  0  0  0  0  0  0  0  0  0  0  0
   56.6570   27.0890   45.7700 C   0  0  0  0  0  0  0  0  0  0  0  0
   56.2410   25.7590   45.8760 C   0  0  0  0  0  0  0  0  0  0  0  0
   57.1900   24.7620   46.1100 C   0  0  0  0  0  0  0  0  0  0  0  0
   58.4990   25.0950   46.2690 N   0  0  0  0  0  0  0  0  0  0  0  0
   58.9280   26.3830   46.1660 C   0  0  0  0  0  0  0  0  0  0  0  0
   60.3580   26.7270   46.4380 C   0  0  0  0  0  0  0  0  0  0  0  0
   60.4220   28.0340   47.2370 C   0  0  0  0  0  0  0  0  0  0  0  0
   60.2756   33.9929   50.5813 H   0  0  0  0  0  0  0  0  0  0  0  0
   59.0933   34.4969   49.3264 H   0  0  0  0  0  0  0  0  0  0  0  0
   59.7441   32.8227   49.3264 H   0  0  0  0  0  0  0  0  0  0  0  0
   60.7409   34.5338   47.6165 H   0  0  0  0  0  0  0  0  0  0  0  0
   61.5865   35.2333   49.0444 H   0  0  0  0  0  0  0  0  0  0  0  0
   63.6639   34.7156   48.3031 H   0  0  0  0  0  0  0  0  0  0  0  0
   64.1786   32.9692   48.1053 H   0  0  0  0  0  0  0  0  0  0  0  0
   62.6659   34.6951   46.1021 H   0  0  0  0  0  0  0  0  0  0  0  0
   64.3214   34.0151   45.9476 H   0  0  0  0  0  0  0  0  0  0  0  0
   62.8971   32.9204   45.9476 H   0  0  0  0  0  0  0  0  0  0  0  0
   63.3722   32.8379   50.2145 H   0  0  0  0  0  0  0  0  0  0  0  0
   61.5847   32.9712   50.5382 H   0  0  0  0  0  0  0  0  0  0  0  0
   63.1287   30.6472   49.3328 H   0  0  0  0  0  0  0  0  0  0  0  0
   62.0616   30.6919   50.8007 H   0  0  0  0  0  0  0  0  0  0  0  0
   60.8396   29.5662   49.0655 H   0  0  0  0  0  0  0  0  0  0  0  0
   60.1432   31.2411   49.2641 H   0  0  0  0  0  0  0  0  0  0  0  0
   62.0270   30.3940   47.1500 H   0  0  0  0  0  0  0  0  0  0  0  0
   61.4740   31.9020   47.3470 H   0  0  0  0  0  0  0  0  0  0  0  0
   56.2262   28.8330   44.1214 H   0  0  0  0  0  0  0  0  0  0  0  0
   56.8811   30.2060   43.1662 H   0  0  0  0  0  0  0  0  0  0  0  0
   57.7331   28.6246   43.1662 H   0  0  0  0  0  0  0  0  0  0  0  0
   56.5951   31.7726   43.8181 H   0  0  0  0  0  0  0  0  0  0  0  0
   57.0140   34.1893   44.1848 H   0  0  0  0  0  0  0  0  0  0  0  0
   58.8199   34.9262   45.7218 H   0  0  0  0  0  0  0  0  0  0  0  0
   60.2135   33.2524   46.9054 H   0  0  0  0  0  0  0  0  0  0  0  0
   55.9134   27.8863   45.6237 H   0  0  0  0  0  0  0  0  0  0  0  0
   55.1765   25.5003   45.7761 H   0  0  0  0  0  0  0  0  0  0  0  0
   56.8793   23.7083   46.1657 H   0  0  0  0  0  0  0  0  0  0  0  0
   60.8264   25.9184   47.0183 H   0  0  0  0  0  0  0  0  0  0  0  0
   60.8946   26.8508   45.4858 H   0  0  0  0  0  0  0  0  0  0  0  0
   59.9729   27.8690   48.2275 H   0  0  0  0  0  0  0  0  0  0  0  0
   61.4776   28.3297   47.3281 H   0  0  0  0  0  0  0  0  0  0  0  0
  1  2  1  0
  2  3  1  0
  3  4  1  0
  4  5  1  0
  3  6  1  0
  6  7  1  0
  7  8  1  0
  8  9  1  0
  9 10  1  0
 10 11  2  0
 11 12  1  0
 12 13  2  0
 13 14  1  0
 13 15  1  0
 15 16  2  0
 16 17  1  0
 17 18  2  0
 18 19  1  0
 19 20  2  0
 12 21  1  0
 21 22  2  0
 22 23  1  0
 23 24  2  0
 24 25  1  0
 25 26  2  0
 26 27  1  0
 27 28  1  0
 20 10  1  0
 26 21  1  0
 28 11  1  0
 20 15  1  0
  1 29  1  0
  1 30  1  0
  1 31  1  0
  2 32  1  0
  2 33  1  0
  4 34  1  0
  4 35  1  0
  5 36  1  0
  5 37  1  0
  5 38  1  0
  6 39  1  0
  6 40  1  0
  7 41  1  0
  7 42  1  0
  8 43  1  0
  8 44  1  0
  9 45  1  0
  9 46  1  0
 14 47  1  0
 14 48  1  0
 14 49  1  0
 16 50  1  0
 17 51  1  0
 18 52  1  0
 19 53  1  0
 22 54  1  0
 23 55  1  0
 24 56  1  0
 27 57  1  0
 27 58  1  0
 28 59  1  0
 28 60  1  0
M  CHG  2   9   1  13   1
M  END
>  <UniqueID>  (33) 
31

>  <SMILES>  (33) 
CCN(CC)CCC[NH2+]c1c2c([n+](C)c3ccccc13)-c1cccnc1CC2

>  <Energy>  (33) 
95.25064976465535

>  <Genealogy>  (33) 
CCN(CC)CCC[NH2+]c1c2c([n+](C)c3ccccc13)-c1cccnc1CC2 (protonated)
CCN(CC)CCC[NH2+]c1c2c([n+](C)c3ccccc13)-c1cccnc1CC2 (3D coordinates assigned)
CCN(CC)CCC[NH2+]c1c2c([n+](C)c3ccccc13)-c1cccnc1CC2 (nonaromatic ring conformer: 95.25064976465535 kcal/mol)

>  <smiles>  (33) 
CCN(CC)CCCNc1c2c([n+](C)c3ccccc13)-c1cccnc1CC2

>  <score_type>  (33) 
oracle

>  <origin>  (33) 
adg

>  <m_score__min__energy>  (33) 
-4.75

>  <m_primary>  (33) 
energy

$$$$
33:0
     RDKit          3D

 40 42  0  0  0  0  0  0  0  0999 V2000
   56.3510   30.6230   44.3350 C   0  0  0  0  0  0  0  0  0  0  0  0
   57.3510   31.2160   45.2370 N   0  0  0  0  0  0  0  0  0  0  0  0
   58.6670   30.6020   44.9900 C   0  0  0  0  0  0  0  0  0  0  0  0
   57.4020   32.6850   45.0660 C   0  0  0  0  0  0  0  0  0  0  0  0
   57.9560   33.3700   46.3240 C   0  0  0  0  0  0  0  0  0  0  0  0
   58.3570   32.3830   47.3280 N   0  0  0  0  0  0  0  0  0  0  0  0
   59.3030   32.6740   48.3700 C   0  0  0  0  0  0  0  0  0  0  0  0
   60.6360   33.0550   48.0840 C   0  0  0  0  0  0  0  0  0  0  0  0
   61.0790   33.1890   46.7530 C   0  0  0  0  0  0  0  0  0  0  0  0
   62.3870   33.5780   46.4750 C   0  0  0  0  0  0  0  0  0  0  0  0
   63.2750   33.8450   47.5130 C   0  0  0  0  0  0  0  0  0  0  0  0
   62.8630   33.7360   48.8400 C   0  0  0  0  0  0  0  0  0  0  0  0
   61.5400   33.3470   49.1630 C   0  0  0  0  0  0  0  0  0  0  0  0
   61.1120   33.2580   50.4810 N   0  0  0  0  0  0  0  0  0  0  0  0
   62.0240   33.5520   51.6010 C   0  0  0  0  0  0  0  0  0  0  0  0
   59.8120   32.8930   50.7110 C   0  0  0  0  0  0  0  0  0  0  0  0
   59.1200   32.7260   51.8990 C   0  0  0  0  0  0  0  0  0  0  0  0
   57.8450   32.3370   51.5120 C   0  0  0  0  0  0  0  0  0  0  0  0
   57.7650   32.2720   50.1980 O   0  0  0  0  0  0  0  0  0  0  0  0
   58.9330   32.6060   49.7060 C   0  0  0  0  0  0  0  0  0  0  0  0
   55.5550   30.1510   44.9296 H   0  0  0  0  0  0  0  0  0  0  0  0
   55.9171   31.4099   43.7005 H   0  0  0  0  0  0  0  0  0  0  0  0
   56.8333   29.8648   43.7005 H   0  0  0  0  0  0  0  0  0  0  0  0
   59.1522   30.3756   45.9509 H   0  0  0  0  0  0  0  0  0  0  0  0
   58.5360   29.6720   44.4173 H   0  0  0  0  0  0  0  0  0  0  0  0
   59.2955   31.2998   44.4173 H   0  0  0  0  0  0  0  0  0  0  0  0
   58.0514   32.9247   44.2111 H   0  0  0  0  0  0  0  0  0  0  0  0
   56.3799   33.0516   44.8904 H   0  0  0  0  0  0  0  0  0  0  0  0
   58.8308   33.9766   46.0471 H   0  0  0  0  0  0  0  0  0  0  0  0
   57.1662   34.0040   46.7532 H   0  0  0  0  0  0  0  0  0  0  0  0
   58.0000   31.4060   47.2300 H   0  0  0  0  0  0  0  0  0  0  0  0
   60.3844   32.9842   45.9250 H   0  0  0  0  0  0  0  0  0  0  0  0
   62.7197   33.6746   45.4310 H   0  0  0  0  0  0  0  0  0  0  0  0
   64.3086   34.1440   47.2845 H   0  0  0  0  0  0  0  0  0  0  0  0
   63.5759   33.9553   49.6485 H   0  0  0  0  0  0  0  0  0  0  0  0
   61.5008   33.3833   52.5538 H   0  0  0  0  0  0  0  0  0  0  0  0
   62.9015   32.8912   51.5425 H   0  0  0  0  0  0  0  0  0  0  0  0
   62.3503   34.6009   51.5425 H   0  0  0  0  0  0  0  0  0  0  0  0
   59.4971   32.8698   52.9223 H   0  0  0  0  0  0  0  0  0  0  0  0
   57.0189   32.1146   52.2035 H   0  0  0  0  0  0  0  0  0  0  0  0
  1  2  1  0
  2  3  1  0
  2  4  1  0
  4  5  1  0
  5  6  1  0
  6  7  1  0
  7  8  2  0
  8  9  1  0
  9 10  2  0
 10 11  1  0
 11 12  2  0
 12 13  1  0
 13 14  2  0
 14 15  1  0
 14 16  1  0
 16 17  1  0
 17 18  2  0
 18 19  1  0
 19 20  1  0
 20  7  1  0
 13  8  1  0
 20 16  2  0
  1 21  1  0
  1 22  1  0
  1 23  1  0
  3 24  1  0
  3 25  1  0
  3 26  1  0
  4 27  1  0
  4 28  1  0
  5 29  1  0
  5 30  1  0
  6 31  1  0
  9 32  1  0
 10 33  1  0
 11 34  1  0
 12 35  1  0
 15 36  1  0
 15 37  1  0
 15 38  1  0
 17 39  1  0
 18 40  1  0
M  CHG  1  14   1
M  END
>  <UniqueID>  (34) 
32

>  <SMILES>  (34) 
CN(C)CCNc1c2ccccc2[n+](C)c2ccoc12

>  <Energy>  (34) 
86.10171776792546

>  <Genealogy>  (34) 
CN(C)CCNc1c2ccccc2[n+](C)c2ccoc12 (3D coordinates assigned)
CN(C)CCNc1c2ccccc2[n+](C)c2ccoc12 (optimized conformer: 86.10171776792546 kcal/mol)

>  <smiles>  (34) 
CN(C)CCNc1c2ccccc2[n+](C)c2ccoc12

>  <score_type>  (34) 
oracle

>  <origin>  (34) 
adg

>  <m_score__min__energy>  (34) 
-4.29

>  <m_primary>  (34) 
energy

$$$$
