0:0
     RDKit          3D

 51 57  0  0  0  0  0  0  0  0999 V2000
   56.4500   30.7400   52.0040 C   0  0  0  0  0  0  0  0  0  0  0  0
   57.3920   30.4770   50.9680 O   0  0  0  0  0  0  0  0  0  0  0  0
   58.4290   31.3480   50.6120 C   0  0  0  0  0  0  0  0  0  0  0  0
   59.0350   32.2550   51.5280 C   0  0  0  0  0  0  0  0  0  0  0  0
   59.9700   33.2220   51.0760 C   0  0  0  0  0  0  0  0  0  0  0  0
   60.4000   33.2140   49.7350 C   0  0  0  0  0  0  0  0  0  0  0  0
   59.9210   32.2050   48.9260 C   0  0  0  0  0  0  0  0  0  0  0  0
   58.8630   31.3930   49.2880 C   0  0  0  0  0  0  0  0  0  0  0  0
   58.1840   30.9420   48.1380 O   0  0  0  0  0  0  0  0  0  0  0  0
   58.6190   31.8950   47.1670 C   0  0  2  0  0  0  0  0  0  0  0  0
   58.3450   31.9760   45.7140 C   0  0  0  0  0  0  0  0  0  0  0  0
   58.7950   33.1960   45.1130 C   0  0  0  0  0  0  0  0  0  0  0  0
   58.5100   33.4360   43.7480 C   0  0  0  0  0  0  0  0  0  0  0  0
   57.7910   32.4850   42.9930 C   0  0  0  0  0  0  0  0  0  0  0  0
   57.3710   31.3140   43.6290 C   0  0  0  0  0  0  0  0  0  0  0  0
   56.6540   30.2390   43.1580 C   0  0  0  0  0  0  0  0  0  0  0  0
   56.5250   29.3930   44.2570 C   0  0  0  0  0  0  0  0  0  0  0  0
   57.1210   29.9160   45.3150 O   0  0  0  0  0  0  0  0  0  0  0  0
   57.6310   31.0660   44.9490 C   0  0  0  0  0  0  0  0  0  0  0  0
   59.6230   34.1900   45.9720 C   0  0  0  0  0  0  0  0  0  0  0  0
   60.6840   33.3570   46.7410 C   0  0  1  0  0  0  0  0  0  0  0  0
   61.7620   33.9070   47.7040 C   0  0  1  0  0  0  0  0  0  0  0  0
   61.1480   34.3540   49.0680 C   0  0  0  0  0  0  0  0  0  0  0  0
   62.7540   32.8190   48.0140 N   0  0  0  0  0  0  0  0  0  0  0  0
   64.1370   33.2980   47.8830 C   0  0  0  0  0  0  0  0  0  0  0  0
   62.5890   31.4890   47.3340 C   0  0  0  0  0  0  0  0  0  0  0  0
   61.1070   30.9790   47.2110 C   0  0  0  0  0  0  0  0  0  0  0  0
   60.1010   32.1270   47.4640 C   0  0  1  0  0  0  0  0  0  0  0  0
   56.9339   30.6049   52.9826 H   0  0  0  0  0  0  0  0  0  0  0  0
   56.0859   31.7741   51.9147 H   0  0  0  0  0  0  0  0  0  0  0  0
   55.6029   30.0440   51.9147 H   0  0  0  0  0  0  0  0  0  0  0  0
   58.7757   32.2054   52.5959 H   0  0  0  0  0  0  0  0  0  0  0  0
   60.3592   33.9783   51.7735 H   0  0  0  0  0  0  0  0  0  0  0  0
   57.8359   32.6474   47.3420 H   0  0  0  0  0  0  0  0  0  0  0  0
   58.8504   34.3680   43.2732 H   0  0  0  0  0  0  0  0  0  0  0  0
   57.5669   32.6612   41.9306 H   0  0  0  0  0  0  0  0  0  0  0  0
   56.2682   30.0822   42.1399 H   0  0  0  0  0  0  0  0  0  0  0  0
   56.0010   28.4259   44.2462 H   0  0  0  0  0  0  0  0  0  0  0  0
   60.1196   34.9263   45.3230 H   0  0  0  0  0  0  0  0  0  0  0  0
   58.9738   34.7374   46.6712 H   0  0  0  0  0  0  0  0  0  0  0  0
   61.2525   33.2103   45.8108 H   0  0  0  0  0  0  0  0  0  0  0  0
   62.2308   34.7690   47.2068 H   0  0  0  0  0  0  0  0  0  0  0  0
   61.9576   34.6892   49.7329 H   0  0  0  0  0  0  0  0  0  0  0  0
   60.4374   35.1719   48.8780 H   0  0  0  0  0  0  0  0  0  0  0  0
   64.5695   33.4478   48.8833 H   0  0  0  0  0  0  0  0  0  0  0  0
   64.7324   32.5537   47.3338 H   0  0  0  0  0  0  0  0  0  0  0  0
   64.1445   34.2511   47.3338 H   0  0  0  0  0  0  0  0  0  0  0  0
   63.0057   31.5716   46.3193 H   0  0  0  0  0  0  0  0  0  0  0  0
   63.1124   30.7563   47.9658 H   0  0  0  0  0  0  0  0  0  0  0  0
   60.9477   30.5780   46.1992 H   0  0  0  0  0  0  0  0  0  0  0  0
   60.9424   30.1968   47.9667 H   0  0  0  0  0  0  0  0  0  0  0  0
  1  2  1  0
  2  3  1  0
  3  4  2  0
  4  5  1  0
  5  6  2  0
  6  7  1  0
  7  8  2  0
  8  9  1  0
  9 10  1  0
 10 11  1  0
 11 12  2  0
 12 13  1  0
 13 14  2  0
 14 15  1  0
 15 16  1  0
 16 17  2  0
 17 18  1  0
 18 19  1  0
 12 20  1  0
 20 21  1  0
 21 22  1  0
 22 23  1  0
 22 24  1  0
 24 25  1  0
 24 26  1  0
 26 27  1  0
 28 27  1  1
  8  3  1  0
 28 10  1  0
 23  6  1  0
 28  7  1  0
 19 11  1  0
 28 21  1  0
 19 15  2  0
  1 29  1  0
  1 30  1  0
  1 31  1  0
  4 32  1  0
  5 33  1  0
 10 34  1  1
 13 35  1  0
 14 36  1  0
 16 37  1  0
 17 38  1  0
 20 39  1  0
 20 40  1  0
 21 41  1  6
 22 42  1  6
 23 43  1  0
 23 44  1  0
 25 45  1  0
 25 46  1  0
 25 47  1  0
 26 48  1  0
 26 49  1  0
 27 50  1  0
 27 51  1  0
M  END
>  <UniqueID>  (1) 
1

>  <SMILES>  (1) 
COc1ccc2c3c1O[C@@H]1c4c(ccc5ccoc45)C[C@H]4C(C2)N(C)CCC314

>  <Energy>  (1) 
209.79186318242893

>  <Genealogy>  (1) 
COc1ccc2c3c1O[C@@H]1c4c(ccc5ccoc45)C[C@H]4C(C2)N(C)CCC314 (chirality)
COc1ccc2c3c1O[C@@H]1c4c(ccc5ccoc45)C[C@H]4C(C2)N(C)CCC314 (3D coordinates assigned)
COc1ccc2c3c1O[C@@H]1c4c(ccc5ccoc45)C[C@H]4C(C2)N(C)CCC314 (nonaromatic ring conformer: 209.79186318242893 kcal/mol)

>  <smiles>  (1) 
COc1ccc2c3c1OC1c4c(ccc5ccoc45)CC4C(C2)N(C)CCC314

>  <score_type>  (1) 
oracle

>  <origin>  (1) 
adg

>  <m_score__min__energy>  (1) 
-9.6300000000000008

>  <m_primary>  (1) 
energy

$$$$
1:0
     RDKit          3D

 39 42  0  0  0  0  0  0  0  0999 V2000
   58.2540   24.5913   45.3146 H   0  0  0  0  0  0  0  0  0  0  0  0
   58.2490   25.6230   45.6960 C   0  0  0  0  0  0  0  0  0  0  0  0
   59.1240   25.9930   46.7210 C   0  0  0  0  0  0  0  0  0  0  0  0
   59.8108   25.2499   47.1523 H   0  0  0  0  0  0  0  0  0  0  0  0
   59.1270   27.3080   47.1990 C   0  0  0  0  0  0  0  0  0  0  0  0
   60.3390   27.8170   48.5830 Br  0  0  0  0  0  0  0  0  0  0  0  0
   58.2450   28.2500   46.6570 C   0  0  0  0  0  0  0  0  0  0  0  0
   58.2619   29.2880   47.0207 H   0  0  0  0  0  0  0  0  0  0  0  0
   57.3410   27.8780   45.6540 C   0  0  0  0  0  0  0  0  0  0  0  0
   56.4820   28.8780   45.0870 N   0  0  0  0  0  0  0  0  0  0  0  0
   56.8650   29.9320   44.4260 C   0  0  0  0  0  0  0  0  0  0  0  0
   57.4780   31.0370   44.9790 C   0  0  0  0  0  0  0  0  0  0  0  0
   57.8750   31.3380   46.2780 C   0  0  0  0  0  0  0  0  0  0  0  0
   57.7370   30.6174   47.0976 H   0  0  0  0  0  0  0  0  0  0  0  0
   58.4610   32.6010   46.5060 C   0  0  0  0  0  0  0  0  0  0  0  0
   58.8840   32.9640   47.7940 C   0  0  0  0  0  0  0  0  0  0  0  0
   58.7620   32.2602   48.6305 H   0  0  0  0  0  0  0  0  0  0  0  0
   59.4600   34.2180   48.0160 C   0  0  0  0  0  0  0  0  0  0  0  0
   59.7902   34.4965   49.0277 H   0  0  0  0  0  0  0  0  0  0  0  0
   59.6190   35.1200   46.9610 C   0  0  0  0  0  0  0  0  0  0  0  0
   60.0738   36.1043   47.1464 H   0  0  0  0  0  0  0  0  0  0  0  0
   59.2030   34.7780   45.6710 C   0  0  0  0  0  0  0  0  0  0  0  0
   59.3310   35.4939   44.8457 H   0  0  0  0  0  0  0  0  0  0  0  0
   58.6230   33.5250   45.4260 C   0  0  0  0  0  0  0  0  0  0  0  0
   58.2000   33.1770   44.1230 C   0  0  0  0  0  0  0  0  0  0  0  0
   58.3129   33.8778   43.2827 H   0  0  0  0  0  0  0  0  0  0  0  0
   57.6340   31.9140   43.9380 C   0  0  0  0  0  0  0  0  0  0  0  0
   57.1380   31.3650   42.8080 N   0  0  0  0  0  0  0  0  0  0  0  0
   57.0180   31.9910   41.4920 C   0  0  0  0  0  0  0  0  0  0  0  0
   56.1917   32.7169   41.5094 H   0  0  0  0  0  0  0  0  0  0  0  0
   56.8190   31.2116   40.7417 H   0  0  0  0  0  0  0  0  0  0  0  0
   58.3110   32.7100   41.1290 C   0  0  0  0  0  0  0  0  0  0  0  0
   58.8382   33.0032   42.0488 H   0  0  0  0  0  0  0  0  0  0  0  0
   58.9507   32.0381   40.5380 H   0  0  0  0  0  0  0  0  0  0  0  0
   58.0777   33.6080   40.5380 H   0  0  0  0  0  0  0  0  0  0  0  0
   56.6540   30.1620   43.1070 N   0  0  0  0  0  0  0  0  0  0  0  0
   56.1490   29.5500   42.4290 H   0  0  0  0  0  0  0  0  0  0  0  0
   57.3670   26.5640   45.1550 C   0  0  0  0  0  0  0  0  0  0  0  0
   56.6915   26.2750   44.3364 H   0  0  0  0  0  0  0  0  0  0  0  0
  1  2  1  0
  2  3  2  0
  3  4  1  0
  3  5  1  0
  5  6  1  0
  5  7  2  0
  7  8  1  0
  7  9  1  0
  9 10  1  0
 10 11  2  0
 11 12  1  0
 12 13  2  0
 13 14  1  0
 13 15  1  0
 15 16  2  0
 16 17  1  0
 16 18  1  0
 18 19  1  0
 18 20  2  0
 20 21  1  0
 20 22  1  0
 22 23  1  0
 22 24  2  0
 24 25  1  0
 25 26  1  0
 25 27  2  0
 27 28  1  0
 28 29  1  0
 29 30  1  0
 29 31  1  0
 29 32  1  0
 32 33  1  0
 32 34  1  0
 32 35  1  0
 28 36  1  0
 36 37  1  0
  9 38  2  0
 38 39  1  0
 38  2  1  0
 36 11  1  0
 27 12  1  0
 24 15  1  0
M  END
>  <UniqueID>  (2) 
2

>  <SMILES>  (2) 
CCn1[nH]/c(=N\c2cccc(Br)c2)c2cc3ccccc3cc21

>  <Energy>  (2) 
90.14192504978847

>  <Genealogy>  (2) 
CCn1[nH]/c(=N\c2cccc(Br)c2)c2cc3ccccc3cc21 (cis-trans isomerization)
CCn1[nH]/c(=N\c2cccc(Br)c2)c2cc3ccccc3cc21 (3D coordinates assigned)
CCn1[nH]/c(=N\c2cccc(Br)c2)c2cc3ccccc3cc21 (optimized conformer: 90.14192504978847 kcal/mol)

>  <smiles>  (2) 
CCn1[nH]c(=Nc2cccc(Br)c2)c2cc3ccccc3cc21

>  <score_type>  (2) 
oracle

>  <origin>  (2) 
adg

>  <m_score__min__energy>  (2) 
-8.5899999999999999

>  <m_primary>  (2) 
energy

$$$$
2:0
     RDKit          3D

 54 56  0  0  0  0  0  0  0  0999 V2000
   59.6806   29.3734   50.3697 H   0  0  0  0  0  0  0  0  0  0  0  0
   60.0210   29.4260   49.3250 C   0  0  0  0  0  0  0  0  0  0  0  0
   59.6340   28.4500   48.4890 C   0  0  0  0  0  0  0  0  0  0  0  0
   60.2560   26.7560   48.5250 S   0  0  0  0  0  0  0  0  0  0  0  0
   59.1770   26.3970   47.1370 C   0  0  0  0  0  0  0  0  0  0  0  0
   59.0700   25.2370   46.6640 O   0  0  0  0  0  0  0  0  0  0  0  0
   58.4300   27.4990   46.6250 N   0  0  0  0  0  0  0  0  0  0  0  0
   57.4070   27.4030   45.5780 C   0  0  0  0  0  0  0  0  0  0  0  0
   57.2553   26.3439   45.3224 H   0  0  0  0  0  0  0  0  0  0  0  0
   56.4778   27.8501   45.9610 H   0  0  0  0  0  0  0  0  0  0  0  0
   57.8240   28.1670   44.3130 C   0  0  0  0  0  0  0  0  0  0  0  0
   58.9141   28.3132   44.3315 H   0  0  0  0  0  0  0  0  0  0  0  0
   57.5126   27.5709   43.4425 H   0  0  0  0  0  0  0  0  0  0  0  0
   57.1580   29.5110   44.2110 C   0  0  0  0  0  0  0  0  0  0  0  0
   56.0900   29.7280   44.8440 O   0  0  0  0  0  0  0  0  0  0  0  0
   57.7130   30.5270   43.3650 N   0  0  0  0  0  0  0  0  0  0  0  0
   58.4200   30.2550   42.6450 H   0  0  0  0  0  0  0  0  0  0  0  0
   57.2870   31.9250   43.4380 C   0  0  0  0  0  0  0  0  0  0  0  0
   56.7882   32.1992   42.4967 H   0  0  0  0  0  0  0  0  0  0  0  0
   56.5957   32.0381   44.2861 H   0  0  0  0  0  0  0  0  0  0  0  0
   58.4990   32.8600   43.6600 C   0  0  0  0  0  0  0  0  0  0  0  0
   59.3843   32.3824   43.2148 H   0  0  0  0  0  0  0  0  0  0  0  0
   58.2370   33.8193   43.1899 H   0  0  0  0  0  0  0  0  0  0  0  0
   58.8050   33.1640   45.0780 N   0  0  0  0  0  0  0  0  0  0  0  0
   59.0900   34.5840   45.3540 C   0  0  0  0  0  0  0  0  0  0  0  0
   59.8745   34.9383   44.6692 H   0  0  0  0  0  0  0  0  0  0  0  0
   58.1729   35.1729   45.2054 H   0  0  0  0  0  0  0  0  0  0  0  0
   59.5700   34.7500   46.8120 C   0  0  0  0  0  0  0  0  0  0  0  0
   60.6305   35.0420   46.8038 H   0  0  0  0  0  0  0  0  0  0  0  0
   58.9438   35.5203   47.2858 H   0  0  0  0  0  0  0  0  0  0  0  0
   59.4320   33.5570   47.5650 O   0  0  0  0  0  0  0  0  0  0  0  0
   58.1070   33.0740   47.4580 C   0  0  0  0  0  0  0  0  0  0  0  0
   57.9809   32.2163   48.1351 H   0  0  0  0  0  0  0  0  0  0  0  0
   57.4151   33.8846   47.7304 H   0  0  0  0  0  0  0  0  0  0  0  0
   57.7970   32.6270   46.0140 C   0  0  0  0  0  0  0  0  0  0  0  0
   57.8071   31.5281   45.9653 H   0  0  0  0  0  0  0  0  0  0  0  0
   56.8065   33.0105   45.7281 H   0  0  0  0  0  0  0  0  0  0  0  0
   58.6940   28.6650   47.3910 C   0  0  0  0  0  0  0  0  0  0  0  0
   58.1510   29.7770   47.1420 O   0  0  0  0  0  0  0  0  0  0  0  0
   60.8750   30.5670   48.9330 C   0  0  0  0  0  0  0  0  0  0  0  0
   61.4580   30.5770   47.6590 C   0  0  0  0  0  0  0  0  0  0  0  0
   61.3038   29.7248   46.9807 H   0  0  0  0  0  0  0  0  0  0  0  0
   62.2350   31.6640   47.2440 C   0  0  0  0  0  0  0  0  0  0  0  0
   62.7044   31.6508   46.2493 H   0  0  0  0  0  0  0  0  0  0  0  0
   62.4200   32.7680   48.0840 C   0  0  0  0  0  0  0  0  0  0  0  0
   63.2000   33.8370   47.6180 O   0  0  0  0  0  0  0  0  0  0  0  0
   63.4210   34.1280   46.2430 C   0  0  0  0  0  0  0  0  0  0  0  0
   64.0842   35.0012   46.1550 H   0  0  0  0  0  0  0  0  0  0  0  0
   63.8901   33.2607   45.7555 H   0  0  0  0  0  0  0  0  0  0  0  0
   62.4596   34.3471   45.7555 H   0  0  0  0  0  0  0  0  0  0  0  0
   61.8150   32.7720   49.3550 C   0  0  0  0  0  0  0  0  0  0  0  0
   61.9508   33.6350   50.0235 H   0  0  0  0  0  0  0  0  0  0  0  0
   61.0430   31.6850   49.7710 C   0  0  0  0  0  0  0  0  0  0  0  0
   60.5629   31.7029   50.7606 H   0  0  0  0  0  0  0  0  0  0  0  0
  1  2  1  0
  2  3  2  0
  3  4  1  0
  4  5  1  0
  5  6  2  0
  5  7  1  0
  7  8  1  0
  8  9  1  0
  8 10  1  0
  8 11  1  0
 11 12  1  0
 11 13  1  0
 11 14  1  0
 14 15  2  0
 14 16  1  0
 16 17  1  0
 16 18  1  0
 18 19  1  0
 18 20  1  0
 18 21  1  0
 21 22  1  0
 21 23  1  0
 21 24  1  0
 24 25  1  0
 25 26  1  0
 25 27  1  0
 25 28  1  0
 28 29  1  0
 28 30  1  0
 28 31  1  0
 31 32  1  0
 32 33  1  0
 32 34  1  0
 32 35  1  0
 35 36  1  0
 35 37  1  0
  7 38  1  0
 38 39  2  0
  2 40  1  0
 40 41  2  0
 41 42  1  0
 41 43  1  0
 43 44  1  0
 43 45  2  0
 45 46  1  0
 46 47  1  0
 47 48  1  0
 47 49  1  0
 47 50  1  0
 45 51  1  0
 51 52  1  0
 51 53  2  0
 53 54  1  0
 38  3  1  0
 53 40  1  0
 35 24  1  0
M  END
>  <UniqueID>  (3) 
3

>  <SMILES>  (3) 
COc1ccc(/C=C2\SC(=O)N(CCC(=O)NCCN3CCOCC3)C2=O)cc1

>  <Energy>  (3) 
80.85816981418316

>  <Genealogy>  (3) 
COc1ccc(/C=C2\SC(=O)N(CCC(=O)NCCN3CCOCC3)C2=O)cc1 (cis-trans isomerization)
COc1ccc(/C=C2\SC(=O)N(CCC(=O)NCCN3CCOCC3)C2=O)cc1 (3D coordinates assigned)
COc1ccc(/C=C2\SC(=O)N(CCC(=O)NCCN3CCOCC3)C2=O)cc1 (nonaromatic ring conformer: 80.85816981418316 kcal/mol)

>  <smiles>  (3) 
COc1ccc(C=C2SC(=O)N(CCC(=O)NCCN3CCOCC3)C2=O)cc1

>  <score_type>  (3) 
oracle

>  <origin>  (3) 
adg

>  <m_score__min__energy>  (3) 
-7.7400000000000002

>  <m_primary>  (3) 
energy

$$$$
3:0
     RDKit          3D

 52 55  0  0  0  0  0  0  0  0999 V2000
   56.0160   31.1590   52.3700 C   0  0  0  0  0  0  0  0  0  0  0  0
   56.8810   30.1020   51.9730 O   0  0  0  0  0  0  0  0  0  0  0  0
   58.0450   30.2720   51.2100 C   0  0  0  0  0  0  0  0  0  0  0  0
   58.1900   31.3210   50.2810 C   0  0  0  0  0  0  0  0  0  0  0  0
   59.3720   31.4520   49.5470 C   0  0  0  0  0  0  0  0  0  0  0  0
   60.4300   30.5490   49.7370 C   0  0  0  0  0  0  0  0  0  0  0  0
   61.6890   30.6840   48.9250 C   0  0  0  0  0  0  0  0  0  0  0  0
   61.3930   30.4460   47.5160 N   0  0  0  0  0  0  0  0  0  0  0  0
   60.6670   29.2920   47.0630 C   0  0  0  0  0  0  0  0  0  0  0  0
   60.4390   28.3290   47.8480 O   0  0  0  0  0  0  0  0  0  0  0  0
   60.1400   29.2380   45.6580 C   0  0  0  0  0  0  0  0  0  0  0  0
   58.6070   29.1390   45.6230 C   0  0  0  0  0  0  0  0  0  0  0  0
   57.9440   30.4750   45.4260 C   0  0  0  0  0  0  0  0  0  0  0  0
   56.7260   30.6470   44.8620 N   0  0  0  0  0  0  0  0  0  0  0  0
   56.4680   31.9550   44.8570 N   0  0  0  0  0  0  0  0  0  0  0  0
   57.5370   32.5500   45.4200 C   0  0  0  0  0  0  0  0  0  0  0  0
   57.7370   33.9020   45.6520 C   0  0  0  0  0  0  0  0  0  0  0  0
   58.9350   34.2700   46.2870 C   0  0  0  0  0  0  0  0  0  0  0  0
   59.8790   33.2770   46.6580 C   0  0  0  0  0  0  0  0  0  0  0  0
   61.1090   33.6200   47.3260 N   0  0  0  0  0  0  0  0  0  0  0  0
   62.4350   33.4560   46.7520 C   0  0  0  0  0  0  0  0  0  0  0  0
   63.3980   34.0730   47.7590 C   0  0  0  0  0  0  0  0  0  0  0  0
   62.6140   34.2150   49.0620 C   0  0  0  0  0  0  0  0  0  0  0  0
   61.1450   34.1760   48.6690 C   0  0  0  0  0  0  0  0  0  0  0  0
   59.6040   31.9690   46.3800 N   0  0  0  0  0  0  0  0  0  0  0  0
   58.4590   31.6610   45.7770 N   0  0  0  0  0  0  0  0  0  0  0  0
   60.2770   29.4900   50.6460 C   0  0  0  0  0  0  0  0  0  0  0  0
   59.0950   29.3600   51.3830 C   0  0  0  0  0  0  0  0  0  0  0  0
   55.9763   31.2075   53.4682 H   0  0  0  0  0  0  0  0  0  0  0  0
   56.3964   32.1123   51.9744 H   0  0  0  0  0  0  0  0  0  0  0  0
   55.0063   30.9747   51.9744 H   0  0  0  0  0  0  0  0  0  0  0  0
   57.3702   32.0393   50.1328 H   0  0  0  0  0  0  0  0  0  0  0  0
   59.4740   32.2676   48.8160 H   0  0  0  0  0  0  0  0  0  0  0  0
   62.0958   31.6987   49.0469 H   0  0  0  0  0  0  0  0  0  0  0  0
   62.4273   29.9461   49.2720 H   0  0  0  0  0  0  0  0  0  0  0  0
   61.5650   31.2280   46.8440 H   0  0  0  0  0  0  0  0  0  0  0  0
   60.4494   30.1504   45.1271 H   0  0  0  0  0  0  0  0  0  0  0  0
   60.5502   28.3389   45.1750 H   0  0  0  0  0  0  0  0  0  0  0  0
   58.3158   28.4760   44.7950 H   0  0  0  0  0  0  0  0  0  0  0  0
   58.2770   28.7441   46.5952 H   0  0  0  0  0  0  0  0  0  0  0  0
   56.9912   34.6530   45.3524 H   0  0  0  0  0  0  0  0  0  0  0  0
   59.1418   35.3298   46.4971 H   0  0  0  0  0  0  0  0  0  0  0  0
   62.6616   32.3893   46.6081 H   0  0  0  0  0  0  0  0  0  0  0  0
   62.5137   33.9379   45.7663 H   0  0  0  0  0  0  0  0  0  0  0  0
   64.2683   33.4167   47.9066 H   0  0  0  0  0  0  0  0  0  0  0  0
   63.7767   35.0449   47.4097 H   0  0  0  0  0  0  0  0  0  0  0  0
   62.8502   33.3845   49.7435 H   0  0  0  0  0  0  0  0  0  0  0  0
   62.8677   35.1476   49.5872 H   0  0  0  0  0  0  0  0  0  0  0  0
   60.5795   33.5372   49.3634 H   0  0  0  0  0  0  0  0  0  0  0  0
   60.6894   35.1766   48.7054 H   0  0  0  0  0  0  0  0  0  0  0  0
   61.0891   28.7601   50.7791 H   0  0  0  0  0  0  0  0  0  0  0  0
   58.9889   28.5358   52.1037 H   0  0  0  0  0  0  0  0  0  0  0  0
  1  2  1  0
  2  3  1  0
  3  4  2  0
  4  5  1  0
  5  6  2  0
  6  7  1  0
  7  8  1  0
  8  9  1  0
  9 10  2  0
  9 11  1  0
 11 12  1  0
 12 13  1  0
 13 14  2  0
 14 15  1  0
 15 16  2  0
 16 17  1  0
 17 18  2  0
 18 19  1  0
 19 20  1  0
 20 21  1  0
 21 22  1  0
 22 23  1  0
 23 24  1  0
 19 25  2  0
 25 26  1  0
  6 27  1  0
 27 28  2  0
 28  3  1  0
 26 13  1  0
 26 16  1  0
 24 20  1  0
  1 29  1  0
  1 30  1  0
  1 31  1  0
  4 32  1  0
  5 33  1  0
  7 34  1  0
  7 35  1  0
  8 36  1  0
 11 37  1  0
 11 38  1  0
 12 39  1  0
 12 40  1  0
 17 41  1  0
 18 42  1  0
 21 43  1  0
 21 44  1  0
 22 45  1  0
 22 46  1  0
 23 47  1  0
 23 48  1  0
 24 49  1  0
 24 50  1  0
 27 51  1  0
 28 52  1  0
M  END
>  <UniqueID>  (4) 
4

>  <SMILES>  (4) 
COc1ccc(CNC(=O)CCc2nnc3ccc(N4CCCC4)nn23)cc1

>  <Energy>  (4) 
85.67702751278524

>  <Genealogy>  (4) 
COc1ccc(CNC(=O)CCc2nnc3ccc(N4CCCC4)nn23)cc1 (3D coordinates assigned)
COc1ccc(CNC(=O)CCc2nnc3ccc(N4CCCC4)nn23)cc1 (nonaromatic ring conformer: 85.67702751278524 kcal/mol)

>  <smiles>  (4) 
COc1ccc(CNC(=O)CCc2nnc3ccc(N4CCCC4)nn23)cc1

>  <score_type>  (4) 
oracle

>  <origin>  (4) 
adg

>  <m_score__min__energy>  (4) 
-7.5899999999999999

>  <m_primary>  (4) 
energy

$$$$
4:0
     RDKit          3D

 60 62  0  0  0  0  0  0  0  0999 V2000
   60.8110   33.8400   50.1140 C   0  0  0  0  0  0  0  0  0  0  0  0
   61.7370   33.5100   48.9760 C   0  0  0  0  0  0  0  0  0  0  0  0
   62.9290   32.8230   49.2670 C   0  0  0  0  0  0  0  0  0  0  0  0
   63.8140   32.4680   48.2490 C   0  0  0  0  0  0  0  0  0  0  0  0
   63.5200   32.7890   46.9270 C   0  0  0  0  0  0  0  0  0  0  0  0
   62.3530   33.4880   46.6190 C   0  0  0  0  0  0  0  0  0  0  0  0
   61.4660   33.8980   47.6360 C   0  0  0  0  0  0  0  0  0  0  0  0
   60.2100   34.6530   47.2390 C   0  0  0  0  0  0  0  0  0  0  0  0
   59.3130   33.8440   46.3680 N   0  0  0  0  0  0  0  0  0  0  0  0
   58.8580   34.6930   45.2330 C   0  0  0  0  0  0  0  0  0  0  0  0
   57.5580   34.1960   44.5710 C   0  0  0  0  0  0  0  0  0  0  0  0
   57.4050   32.7380   44.6830 N   0  0  0  0  0  0  0  0  0  0  0  0
   58.3830   32.0100   43.8470 C   0  0  0  0  0  0  0  0  0  0  0  0
   58.3490   30.5370   44.1610 C   0  0  0  0  0  0  0  0  0  0  0  0
   59.2750   30.0370   45.0200 N   0  0  0  0  0  0  0  0  0  0  0  0
   59.3000   28.7270   45.3780 C   0  0  0  0  0  0  0  0  0  0  0  0
   60.3560   28.2590   46.3360 C   0  0  0  0  0  0  0  0  0  0  0  0
   58.3270   27.8560   44.8510 C   0  0  0  0  0  0  0  0  0  0  0  0
   58.3030   26.3970   45.2220 C   0  0  0  0  0  0  0  0  0  0  0  0
   57.3970   28.3500   43.9830 N   0  0  0  0  0  0  0  0  0  0  0  0
   57.3820   29.6650   43.6170 C   0  0  0  0  0  0  0  0  0  0  0  0
   56.3190   30.1610   42.6700 C   0  0  0  0  0  0  0  0  0  0  0  0
   57.3990   32.2880   46.0960 C   0  0  0  0  0  0  0  0  0  0  0  0
   58.1410   33.2480   47.0720 C   0  0  1  0  0  0  0  0  0  0  0  0
   58.5260   32.4900   48.3720 C   0  0  0  0  0  0  0  0  0  0  0  0
   59.1770   31.1250   48.1140 C   0  0  0  0  0  0  0  0  0  0  0  0
   60.1810   31.2640   47.1480 O   0  0  0  0  0  0  0  0  0  0  0  0
   61.3245   33.6570   51.0694 H   0  0  0  0  0  0  0  0  0  0  0  0
   60.5171   34.8982   50.0525 H   0  0  0  0  0  0  0  0  0  0  0  0
   59.9141   33.2062   50.0525 H   0  0  0  0  0  0  0  0  0  0  0  0
   63.1661   32.5627   50.3091 H   0  0  0  0  0  0  0  0  0  0  0  0
   64.7447   31.9341   48.4911 H   0  0  0  0  0  0  0  0  0  0  0  0
   64.2094   32.4908   46.1234 H   0  0  0  0  0  0  0  0  0  0  0  0
   62.1215   33.7225   45.5695 H   0  0  0  0  0  0  0  0  0  0  0  0
   59.6611   34.9299   48.1511 H   0  0  0  0  0  0  0  0  0  0  0  0
   60.5188   35.5417   46.6691 H   0  0  0  0  0  0  0  0  0  0  0  0
   58.6889   35.7131   45.6082 H   0  0  0  0  0  0  0  0  0  0  0  0
   59.6453   34.6536   44.4658 H   0  0  0  0  0  0  0  0  0  0  0  0
   56.7016   34.6816   45.0616 H   0  0  0  0  0  0  0  0  0  0  0  0
   57.6020   34.4517   43.5020 H   0  0  0  0  0  0  0  0  0  0  0  0
   58.1354   32.1601   42.7858 H   0  0  0  0  0  0  0  0  0  0  0  0
   59.3908   32.3967   44.0585 H   0  0  0  0  0  0  0  0  0  0  0  0
   60.0087   28.4129   47.3683 H   0  0  0  0  0  0  0  0  0  0  0  0
   60.5528   27.1894   46.1709 H   0  0  0  0  0  0  0  0  0  0  0  0
   61.2806   28.8316   46.1709 H   0  0  0  0  0  0  0  0  0  0  0  0
   58.3014   26.2972   46.3175 H   0  0  0  0  0  0  0  0  0  0  0  0
   57.3970   25.9287   44.8098 H   0  0  0  0  0  0  0  0  0  0  0  0
   59.1931   25.8992   44.8098 H   0  0  0  0  0  0  0  0  0  0  0  0
   56.6750   27.7040   43.5900 H   0  0  0  0  0  0  0  0  0  0  0  0
   55.4701   30.5571   43.2466 H   0  0  0  0  0  0  0  0  0  0  0  0
   56.7354   30.9578   42.0362 H   0  0  0  0  0  0  0  0  0  0  0  0
   55.9759   29.3300   42.0362 H   0  0  0  0  0  0  0  0  0  0  0  0
   56.3534   32.2002   46.4261 H   0  0  0  0  0  0  0  0  0  0  0  0
   57.9359   31.3284   46.1256 H   0  0  0  0  0  0  0  0  0  0  0  0
   57.4861   34.0765   47.3798 H   0  0  0  0  0  0  0  0  0  0  0  0
   59.2334   33.1113   48.9409 H   0  0  0  0  0  0  0  0  0  0  0  0
   57.5943   32.3047   48.9267 H   0  0  0  0  0  0  0  0  0  0  0  0
   59.6165   30.7455   49.0482 H   0  0  0  0  0  0  0  0  0  0  0  0
   58.4160   30.4170   47.7539 H   0  0  0  0  0  0  0  0  0  0  0  0
   59.7490   31.6840   46.3600 H   0  0  0  0  0  0  0  0  0  0  0  0
  1  2  1  0
  2  3  2  0
  3  4  1  0
  4  5  2  0
  5  6  1  0
  6  7  2  0
  7  8  1  0
  8  9  1  0
  9 10  1  0
 10 11  1  0
 11 12  1  0
 12 13  1  0
 13 14  1  0
 14 15  2  0
 15 16  1  0
 16 17  1  0
 16 18  2  0
 18 19  1  0
 18 20  1  0
 20 21  2  0
 21 22  1  0
 12 23  1  0
 23 24  1  0
 24 25  1  0
 25 26  1  0
 26 27  1  0
  7  2  1  0
 24  9  1  0
 21 14  1  0
  1 28  1  0
  1 29  1  0
  1 30  1  0
  3 31  1  0
  4 32  1  0
  5 33  1  0
  6 34  1  0
  8 35  1  0
  8 36  1  0
 10 37  1  0
 10 38  1  0
 11 39  1  0
 11 40  1  0
 13 41  1  0
 13 42  1  0
 17 43  1  0
 17 44  1  0
 17 45  1  0
 19 46  1  0
 19 47  1  0
 19 48  1  0
 20 49  1  0
 22 50  1  0
 22 51  1  0
 22 52  1  0
 23 53  1  0
 23 54  1  0
 24 55  1  1
 25 56  1  0
 25 57  1  0
 26 58  1  0
 26 59  1  0
 27 60  1  0
M  CHG  1  20   1
M  END
>  <UniqueID>  (5) 
5

>  <SMILES>  (5) 
Cc1ccccc1CN1CCN(Cc2nc(C)c(C)[nH+]c2C)C[C@H]1CCO

>  <Energy>  (5) 
75.59564270204129

>  <Genealogy>  (5) 
Cc1ccccc1CN1CCN(Cc2nc(C)c(C)[nH+]c2C)CC1CCO (protonated)
Cc1ccccc1CN1CCN(Cc2nc(C)c(C)[nH+]c2C)C[C@H]1CCO (chirality)
Cc1ccccc1CN1CCN(Cc2nc(C)c(C)[nH+]c2C)C[C@H]1CCO (3D coordinates assigned)
Cc1ccccc1CN1CCN(Cc2nc(C)c(C)[nH+]c2C)C[C@H]1CCO (nonaromatic ring conformer: 75.59564270204129 kcal/mol)

>  <smiles>  (5) 
Cc1ccccc1CN1CCN(Cc2nc(C)c(C)nc2C)CC1CCO

>  <score_type>  (5) 
oracle

>  <origin>  (5) 
adg

>  <m_score__min__energy>  (5) 
-7.2300000000000004

>  <m_primary>  (5) 
energy

$$$$
5:0
     RDKit          3D

 34 35  0  0  0  0  0  0  0  0999 V2000
   64.5030   33.1300   48.9760 C   0  0  0  0  0  0  0  0  0  0  0  0
   63.1020   33.2040   48.4490 C   0  0  0  0  0  0  0  0  0  0  0  0
   62.0120   32.9560   49.2980 C   0  0  0  0  0  0  0  0  0  0  0  0
   60.7070   32.9910   48.7980 C   0  0  0  0  0  0  0  0  0  0  0  0
   60.4780   33.2620   47.4430 C   0  0  0  0  0  0  0  0  0  0  0  0
   58.8250   33.3320   46.8370 S   0  0  0  0  0  0  0  0  0  0  0  0
   58.5890   34.6910   46.2420 O   0  0  0  0  0  0  0  0  0  0  0  0
   57.8390   33.1050   47.9490 O   0  0  0  0  0  0  0  0  0  0  0  0
   58.5950   32.1200   45.6170 N   0  0  0  0  0  0  0  0  0  0  0  0
   58.8330   30.7220   45.8580 C   0  0  0  0  0  0  0  0  0  0  0  0
   59.9440   30.3190   46.6220 C   0  0  0  0  0  0  0  0  0  0  0  0
   60.1840   28.9680   46.8730 C   0  0  0  0  0  0  0  0  0  0  0  0
   59.3160   27.9980   46.3720 C   0  0  0  0  0  0  0  0  0  0  0  0
   59.6200   26.3000   46.6920 Cl  0  0  0  0  0  0  0  0  0  0  0  0
   58.2040   28.3800   45.6180 C   0  0  0  0  0  0  0  0  0  0  0  0
   57.9520   29.7360   45.3510 C   0  0  0  0  0  0  0  0  0  0  0  0
   56.5570   30.1670   44.3530 S   0  0  0  0  0  0  0  0  0  0  0  0
   55.1540   29.3330   44.9240 N   0  0  0  0  0  0  0  0  0  0  0  0
   56.8250   29.7930   42.9230 O   0  0  0  0  0  0  0  0  0  0  0  0
   56.2970   31.6450   44.4300 O   0  0  0  0  0  0  0  0  0  0  0  0
   61.5650   33.4880   46.5880 C   0  0  0  0  0  0  0  0  0  0  0  0
   62.8710   33.4530   47.0870 C   0  0  0  0  0  0  0  0  0  0  0  0
   64.4816   33.1311   50.0758 H   0  0  0  0  0  0  0  0  0  0  0  0
   64.9805   32.2054   48.6195 H   0  0  0  0  0  0  0  0  0  0  0  0
   65.0752   33.9992   48.6195 H   0  0  0  0  0  0  0  0  0  0  0  0
   62.1854   32.7332   50.3611 H   0  0  0  0  0  0  0  0  0  0  0  0
   59.8570   32.8051   49.4710 H   0  0  0  0  0  0  0  0  0  0  0  0
   58.3670   32.4570   44.6560 H   0  0  0  0  0  0  0  0  0  0  0  0
   60.6307   31.0777   47.0257 H   0  0  0  0  0  0  0  0  0  0  0  0
   61.0595   28.6671   47.4672 H   0  0  0  0  0  0  0  0  0  0  0  0
   57.5191   27.6118   45.2296 H   0  0  0  0  0  0  0  0  0  0  0  0
   55.4850   28.5950   45.5850 H   0  0  0  0  0  0  0  0  0  0  0  0
   61.3906   33.6935   45.5215 H   0  0  0  0  0  0  0  0  0  0  0  0
   63.7209   33.6213   46.4092 H   0  0  0  0  0  0  0  0  0  0  0  0
  1  2  1  0
  2  3  2  0
  3  4  1  0
  4  5  2  0
  5  6  1  0
  6  7  2  0
  6  8  2  0
  6  9  1  0
  9 10  1  0
 10 11  2  0
 11 12  1  0
 12 13  2  0
 13 14  1  0
 13 15  1  0
 15 16  2  0
 16 17  1  0
 17 18  1  0
 17 19  2  0
 17 20  2  0
  5 21  1  0
 21 22  2  0
 22  2  1  0
 16 10  1  0
  1 23  1  0
  1 24  1  0
  1 25  1  0
  3 26  1  0
  4 27  1  0
  9 28  1  0
 11 29  1  0
 12 30  1  0
 15 31  1  0
 18 32  1  0
 21 33  1  0
 22 34  1  0
M  CHG  1  18  -1
M  END
>  <UniqueID>  (6) 
6

>  <SMILES>  (6) 
Cc1ccc(S(=O)(=O)Nc2ccc(Cl)cc2S([NH-])(=O)=O)cc1

>  <Energy>  (6) 
38.0443468677828

>  <Genealogy>  (6) 
Cc1ccc(S(=O)(=O)Nc2ccc(Cl)cc2S([NH-])(=O)=O)cc1 (protonated)
Cc1ccc(S(=O)(=O)Nc2ccc(Cl)cc2S([NH-])(=O)=O)cc1 (3D coordinates assigned)
Cc1ccc(S(=O)(=O)Nc2ccc(Cl)cc2S([NH-])(=O)=O)cc1 (optimized conformer: 38.0443468677828 kcal/mol)

>  <smiles>  (6) 
Cc1ccc(S(=O)(=O)Nc2ccc(Cl)cc2S(N)(=O)=O)cc1

>  <score_type>  (6) 
oracle

>  <origin>  (6) 
adg

>  <m_score__min__energy>  (6) 
-11.98

>  <m_primary>  (6) 
energy

$$$$
6:0
     RDKit          3D

 28 29  0  0  0  0  0  0  0  0999 V2000
   56.6350   29.9610   42.8020 C   0  0  0  0  0  0  0  0  0  0  0  0
   55.3530   29.7400   43.5970 C   0  0  0  0  0  0  0  0  0  0  0  0
   55.6680   29.2510   44.9480 N   0  0  0  0  0  0  0  0  0  0  0  0
   56.9990   28.6260   45.0300 C   0  0  0  0  0  0  0  0  0  0  0  0
   57.7940   29.1110   46.2510 C   0  0  0  0  0  0  0  0  0  0  0  0
   58.1160   30.5250   46.1040 N   0  0  0  0  0  0  0  0  0  0  0  0
   59.2370   31.0730   46.5710 N   0  0  0  0  0  0  0  0  0  0  0  0
   59.1730   32.3560   46.1830 C   0  0  0  0  0  0  0  0  0  0  0  0
   60.0850   33.3820   46.4030 C   0  0  0  0  0  0  0  0  0  0  0  0
   59.7710   34.6490   45.8710 C   0  0  0  0  0  0  0  0  0  0  0  0
   58.5720   34.8460   45.1450 C   0  0  0  0  0  0  0  0  0  0  0  0
   57.6750   33.7790   44.9430 C   0  0  0  0  0  0  0  0  0  0  0  0
   58.0200   32.5450   45.4850 C   0  0  0  0  0  0  0  0  0  0  0  0
   57.3530   31.3830   45.4290 N   0  0  0  0  0  0  0  0  0  0  0  0
   57.4762   30.1060   43.4957 H   0  0  0  0  0  0  0  0  0  0  0  0
   56.8294   29.0831   42.1683 H   0  0  0  0  0  0  0  0  0  0  0  0
   56.5243   30.8533   42.1683 H   0  0  0  0  0  0  0  0  0  0  0  0
   54.8052   30.6908   43.6738 H   0  0  0  0  0  0  0  0  0  0  0  0
   54.7361   28.9903   43.0799 H   0  0  0  0  0  0  0  0  0  0  0  0
   55.6110   30.0490   45.6240 H   0  0  0  0  0  0  0  0  0  0  0  0
   56.8744   27.5353   45.0990 H   0  0  0  0  0  0  0  0  0  0  0  0
   57.5608   28.9088   44.1275 H   0  0  0  0  0  0  0  0  0  0  0  0
   57.1909   28.9669   47.1596 H   0  0  0  0  0  0  0  0  0  0  0  0
   58.7269   28.5334   46.3283 H   0  0  0  0  0  0  0  0  0  0  0  0
   61.0130   33.2121   46.9687 H   0  0  0  0  0  0  0  0  0  0  0  0
   60.4629   35.4909   46.0212 H   0  0  0  0  0  0  0  0  0  0  0  0
   58.3390   35.8400   44.7354 H   0  0  0  0  0  0  0  0  0  0  0  0
   56.7401   33.9158   44.3798 H   0  0  0  0  0  0  0  0  0  0  0  0
  1  2  1  0
  2  3  1  0
  3  4  1  0
  4  5  1  0
  5  6  1  0
  6  7  1  0
  7  8  2  0
  8  9  1  0
  9 10  2  0
 10 11  1  0
 11 12  2  0
 12 13  1  0
 13 14  2  0
 14  6  1  0
 13  8  1  0
  1 15  1  0
  1 16  1  0
  1 17  1  0
  2 18  1  0
  2 19  1  0
  3 20  1  0
  4 21  1  0
  4 22  1  0
  5 23  1  0
  5 24  1  0
  9 25  1  0
 10 26  1  0
 11 27  1  0
 12 28  1  0
M  END
>  <UniqueID>  (7) 
7

>  <SMILES>  (7) 
CCNCCn1nc2ccccc2n1

>  <Energy>  (7) 
66.23633411707671

>  <Genealogy>  (7) 
CCNCCn1nc2ccccc2n1 (3D coordinates assigned)
CCNCCn1nc2ccccc2n1 (optimized conformer: 66.23633411707671 kcal/mol)

>  <smiles>  (7) 
CCNCCn1nc2ccccc2n1

>  <score_type>  (7) 
oracle

>  <origin>  (7) 
adg

>  <m_score__min__energy>  (7) 
-6.5199999999999996

>  <m_primary>  (7) 
energy

$$$$
7:0
     RDKit          3D

 37 39  0  0  1  0  0  0  0  0999 V2000
   57.0520   34.1900   45.2470 C   0  0  0  0  0  0  0  0  0  0  0  0
   58.1220   33.3540   45.8760 C   0  0  0  0  0  0  0  0  0  0  0  0
   60.3100   29.8080   47.5010 C   0  0  0  0  0  0  0  0  0  0  0  0
   59.0660   29.9980   46.9160 C   0  0  0  0  0  0  0  0  0  0  0  0
   61.3630   33.8490   47.2190 N   0  0  0  0  0  0  0  0  0  0  0  0
   62.5630   33.8240   46.4010 C   0  0  0  0  0  0  0  0  0  0  0  0
   63.6800   33.1350   47.1930 C   0  0  0  0  0  0  0  0  0  0  0  0
   63.1820   32.0740   48.0110 N   0  0  0  0  0  0  0  0  0  0  0  0
   60.1370   31.9360   47.0310 N   0  0  0  0  0  0  0  0  0  0  0  0
   60.9050   31.0110   47.5420 N   0  0  0  0  0  0  0  0  0  0  0  0
   59.2970   33.9930   46.2770 C   0  0  0  0  0  0  0  0  0  0  0  0
   60.2910   33.2590   46.8540 C   0  0  0  0  0  0  0  0  0  0  0  0
   58.1610   29.0470   46.6920 C   0  0  0  0  0  0  0  0  0  0  0  0
   57.9320   28.6630   45.3040 C   0  0  0  0  0  0  0  0  0  0  0  0
   58.6390   27.7620   44.6010 N   0  0  0  0  0  0  0  0  0  0  0  0
   58.0800   27.7210   43.3610 C   0  0  0  0  0  0  0  0  0  0  0  0
   58.5020   26.9670   42.4250 O   0  0  0  0  0  0  0  0  0  0  0  0
   57.0430   28.5890   43.3080 N   0  0  0  0  0  0  0  0  0  0  0  0
   56.9270   29.1900   44.5040 C   0  0  0  0  0  0  0  0  0  0  0  0
   55.9830   30.1460   44.8530 O   0  0  0  0  0  0  0  0  0  0  0  0
   58.9830   31.3350   46.6310 C   0  0  0  0  0  0  0  0  0  0  0  0
   57.9780   32.0240   46.0590 N   0  0  0  0  0  0  0  0  0  0  0  0
   56.4463   34.6632   46.0339 H   0  0  0  0  0  0  0  0  0  0  0  0
   57.5145   34.9684   44.6224 H   0  0  0  0  0  0  0  0  0  0  0  0
   56.4086   33.5529   44.6224 H   0  0  0  0  0  0  0  0  0  0  0  0
   60.7277   28.8563   47.8613 H   0  0  0  0  0  0  0  0  0  0  0  0
   62.3677   33.2658   45.4735 H   0  0  0  0  0  0  0  0  0  0  0  0
   62.8633   34.8502   46.1426 H   0  0  0  0  0  0  0  0  0  0  0  0
   64.4145   32.7228   46.4854 H   0  0  0  0  0  0  0  0  0  0  0  0
   64.1400   33.8850   47.8532 H   0  0  0  0  0  0  0  0  0  0  0  0
   63.0970   31.1650   47.5030 H   0  0  0  0  0  0  0  0  0  0  0  0
   62.3270   32.4020   48.4730 H   0  0  0  0  0  0  0  0  0  0  0  0
   59.4195   35.0761   46.1292 H   0  0  0  0  0  0  0  0  0  0  0  0
   57.6106   28.5721   47.5175 H   0  0  0  0  0  0  0  0  0  0  0  0
   59.4680   27.1930   44.9420 H   0  0  0  0  0  0  0  0  0  0  0  0
   56.4580   28.7380   42.4640 H   0  0  0  0  0  0  0  0  0  0  0  0
   56.2480   31.0390   45.2450 H   0  0  0  0  0  0  0  0  0  0  0  0
  1  2  1  0
  2  3  2  0
  3  4  1  0
  4  5  2  0
  5  6  1  0
  6  7  1  0
  7  8  1  0
  4  9  1  0
  9 10  1  0
 10 11  2  0
 11 12  1  0
 12 13  2  0
 13 14  1  0
 14 15  1  0
 15 16  1  0
 16 17  2  0
 16 18  1  0
 18 19  1  0
 19 20  1  0
 12 21  1  0
 21 22  2  0
 22  2  1  0
 21  9  1  0
 19 14  2  0
  1 23  1  0
  1 24  1  0
  1 25  1  0
  3 26  1  0
  6 27  1  0
  6 28  1  0
  7 29  1  0
  7 30  1  0
  8 31  1  0
  8 32  1  0
 11 33  1  0
 13 34  1  0
 15 35  1  0
 18 36  1  0
 20 37  1  0
M  END
>  <smiles>  (8) 
Cc1cc(=NCCN)n2ncc(=Cc3[nH]c(=O)[nH]c3O)c2n1

>  <score_type>  (8) 
oracle

>  <origin>  (8) 
adg

>  <m_score__min__energy>  (8) 
-7.8799999999999999

>  <m_primary>  (8) 
energy

$$$$
8:0
     RDKit          3D

 40 41  0  0  0  0  0  0  0  0999 V2000
   61.2740   30.7430   48.3650 C   0  0  0  0  0  0  0  0  0  0  0  0
   60.4240   29.9030   47.4580 C   0  0  0  0  0  0  0  0  0  0  0  0
   59.2370   29.3280   47.9350 C   0  0  0  0  0  0  0  0  0  0  0  0
   58.4250   28.5760   47.0800 C   0  0  0  0  0  0  0  0  0  0  0  0
   58.7850   28.3980   45.7360 C   0  0  0  0  0  0  0  0  0  0  0  0
   57.8950   27.6010   44.8190 C   0  0  0  0  0  0  0  0  0  0  0  0
   58.0630   28.0520   43.4190 N   0  0  0  0  0  0  0  0  0  0  0  0
   58.1040   26.8940   42.5080 C   0  0  0  0  0  0  0  0  0  0  0  0
   56.9710   28.9640   43.0230 C   0  0  0  0  0  0  0  0  0  0  0  0
   56.9960   30.2040   43.8670 C   0  0  0  0  0  0  0  0  0  0  0  0
   55.9880   30.4880   44.5690 O   0  0  0  0  0  0  0  0  0  0  0  0
   58.1300   31.0860   43.8240 N   0  0  0  0  0  0  0  0  0  0  0  0
   58.3030   32.2170   44.6940 C   0  0  0  0  0  0  0  0  0  0  0  0
   58.2070   32.0900   46.0930 C   0  0  0  0  0  0  0  0  0  0  0  0
   58.4030   33.2020   46.9170 C   0  0  0  0  0  0  0  0  0  0  0  0
   58.7090   34.4460   46.3560 C   0  0  0  0  0  0  0  0  0  0  0  0
   58.9000   35.5230   47.1580 F   0  0  0  0  0  0  0  0  0  0  0  0
   58.8270   34.5760   44.9700 C   0  0  0  0  0  0  0  0  0  0  0  0
   58.6330   33.4650   44.1420 C   0  0  0  0  0  0  0  0  0  0  0  0
   59.9620   28.9920   45.2540 C   0  0  0  0  0  0  0  0  0  0  0  0
   60.7730   29.7440   46.1090 C   0  0  0  0  0  0  0  0  0  0  0  0
   61.0358   30.5076   49.4128 H   0  0  0  0  0  0  0  0  0  0  0  0
   62.3360   30.5298   48.1736 H   0  0  0  0  0  0  0  0  0  0  0  0
   61.0734   31.8075   48.1736 H   0  0  0  0  0  0  0  0  0  0  0  0
   58.9436   29.4691   48.9857 H   0  0  0  0  0  0  0  0  0  0  0  0
   57.4994   28.1218   47.4634 H   0  0  0  0  0  0  0  0  0  0  0  0
   58.1604   26.5360   44.8913 H   0  0  0  0  0  0  0  0  0  0  0  0
   56.8473   27.7499   45.1193 H   0  0  0  0  0  0  0  0  0  0  0  0
   58.1369   25.9654   43.0967 H   0  0  0  0  0  0  0  0  0  0  0  0
   57.2053   26.8944   41.8737 H   0  0  0  0  0  0  0  0  0  0  0  0
   59.0004   26.9580   41.8737 H   0  0  0  0  0  0  0  0  0  0  0  0
   57.0958   29.2420   41.9660 H   0  0  0  0  0  0  0  0  0  0  0  0
   56.0079   28.4526   43.1672 H   0  0  0  0  0  0  0  0  0  0  0  0
   58.8200   30.9570   43.0480 H   0  0  0  0  0  0  0  0  0  0  0  0
   57.9768   31.1114   46.5395 H   0  0  0  0  0  0  0  0  0  0  0  0
   58.3164   33.0984   48.0087 H   0  0  0  0  0  0  0  0  0  0  0  0
   59.0728   35.5533   44.5290 H   0  0  0  0  0  0  0  0  0  0  0  0
   58.7396   33.5699   43.0522 H   0  0  0  0  0  0  0  0  0  0  0  0
   60.2473   28.8652   44.1992 H   0  0  0  0  0  0  0  0  0  0  0  0
   61.6894   30.2133   45.7218 H   0  0  0  0  0  0  0  0  0  0  0  0
  1  2  1  0
  2  3  2  0
  3  4  1  0
  4  5  2  0
  5  6  1  0
  6  7  1  0
  7  8  1  0
  7  9  1  0
  9 10  1  0
 10 11  2  0
 10 12  1  0
 12 13  1  0
 13 14  2  0
 14 15  1  0
 15 16  2  0
 16 17  1  0
 16 18  1  0
 18 19  2  0
  5 20  1  0
 20 21  2  0
 21  2  1  0
 19 13  1  0
  1 22  1  0
  1 23  1  0
  1 24  1  0
  3 25  1  0
  4 26  1  0
  6 27  1  0
  6 28  1  0
  8 29  1  0
  8 30  1  0
  8 31  1  0
  9 32  1  0
  9 33  1  0
 12 34  1  0
 14 35  1  0
 15 36  1  0
 18 37  1  0
 19 38  1  0
 20 39  1  0
 21 40  1  0
M  END
>  <UniqueID>  (9) 
8

>  <SMILES>  (9) 
Cc1ccc(CN(C)CC(=O)Nc2ccc(F)cc2)cc1

>  <Energy>  (9) 
42.286992789603396

>  <Genealogy>  (9) 
Cc1ccc(CN(C)CC(=O)Nc2ccc(F)cc2)cc1 (3D coordinates assigned)
Cc1ccc(CN(C)CC(=O)Nc2ccc(F)cc2)cc1 (optimized conformer: 42.286992789603396 kcal/mol)

>  <smiles>  (9) 
Cc1ccc(CN(C)CC(=O)Nc2ccc(F)cc2)cc1

>  <score_type>  (9) 
oracle

>  <origin>  (9) 
adg

>  <m_score__min__energy>  (9) 
-6.7400000000000002

>  <m_primary>  (9) 
energy

$$$$
9:0
     RDKit          3D

 41 43  0  0  0  0  0  0  0  0999 V2000
   57.1010   31.0540   43.8400 C   0  0  0  0  0  0  0  0  0  0  0  0
   58.0120   31.2450   44.9780 N   0  0  0  0  0  0  0  0  0  0  0  0
   58.5330   32.4870   45.3050 C   0  0  0  0  0  0  0  0  0  0  0  0
   58.2210   33.6400   44.5470 C   0  0  0  0  0  0  0  0  0  0  0  0
   58.7730   34.8800   44.8710 C   0  0  0  0  0  0  0  0  0  0  0  0
   59.6500   35.0020   45.9460 C   0  0  0  0  0  0  0  0  0  0  0  0
   59.9780   33.8890   46.7170 C   0  0  0  0  0  0  0  0  0  0  0  0
   59.4200   32.6290   46.4290 C   0  0  0  0  0  0  0  0  0  0  0  0
   59.7430   31.4910   47.2100 C   0  0  0  0  0  0  0  0  0  0  0  0
   60.5810   31.5590   48.3710 N   0  0  0  0  0  0  0  0  0  0  0  0
   61.9230   30.9760   48.3380 C   0  0  0  0  0  0  0  0  0  0  0  0
   62.7610   31.4970   47.1470 C   0  0  0  0  0  0  0  0  0  0  0  0
   63.6970   32.6080   47.4560 N   0  0  0  0  0  0  0  0  0  0  0  0
   63.3950   33.8420   46.7110 C   0  0  0  0  0  0  0  0  0  0  0  0
   63.8110   32.8800   48.9010 C   0  0  0  0  0  0  0  0  0  0  0  0
   59.2050   30.2740   46.8140 C   0  0  0  0  0  0  0  0  0  0  0  0
   59.3260   29.0110   47.3490 C   0  0  0  0  0  0  0  0  0  0  0  0
   58.5380   28.2080   46.5330 C   0  0  0  0  0  0  0  0  0  0  0  0
   57.9780   28.9300   45.5810 O   0  0  0  0  0  0  0  0  0  0  0  0
   58.3690   30.1720   45.7420 C   0  0  0  0  0  0  0  0  0  0  0  0
   56.0881   30.8416   44.2128 H   0  0  0  0  0  0  0  0  0  0  0  0
   57.0823   31.9678   43.2279 H   0  0  0  0  0  0  0  0  0  0  0  0
   57.4509   30.2097   43.2279 H   0  0  0  0  0  0  0  0  0  0  0  0
   57.5346   33.5580   43.6914 H   0  0  0  0  0  0  0  0  0  0  0  0
   58.5138   35.7666   44.2736 H   0  0  0  0  0  0  0  0  0  0  0  0
   60.0861   35.9825   46.1876 H   0  0  0  0  0  0  0  0  0  0  0  0
   60.6790   33.9956   47.5580 H   0  0  0  0  0  0  0  0  0  0  0  0
   60.3840   32.3260   49.0520 H   0  0  0  0  0  0  0  0  0  0  0  0
   62.4422   31.2304   49.2738 H   0  0  0  0  0  0  0  0  0  0  0  0
   61.8140   29.8876   48.2218 H   0  0  0  0  0  0  0  0  0  0  0  0
   63.3521   30.6558   46.7559 H   0  0  0  0  0  0  0  0  0  0  0  0
   62.0371   31.9060   46.4268 H   0  0  0  0  0  0  0  0  0  0  0  0
   64.6430   32.2910   47.1360 H   0  0  0  0  0  0  0  0  0  0  0  0
   63.1951   34.6588   47.4201 H   0  0  0  0  0  0  0  0  0  0  0  0
   64.2546   34.1079   46.0782 H   0  0  0  0  0  0  0  0  0  0  0  0
   62.5098   33.6809   46.0782 H   0  0  0  0  0  0  0  0  0  0  0  0
   63.4466   32.0105   49.4677 H   0  0  0  0  0  0  0  0  0  0  0  0
   64.8641   33.0690   49.1566 H   0  0  0  0  0  0  0  0  0  0  0  0
   63.2074   33.7634   49.1566 H   0  0  0  0  0  0  0  0  0  0  0  0
   59.9149   28.7057   48.2265 H   0  0  0  0  0  0  0  0  0  0  0  0
   58.4006   27.1243   46.6624 H   0  0  0  0  0  0  0  0  0  0  0  0
  1  2  1  0
  2  3  2  0
  3  4  1  0
  4  5  2  0
  5  6  1  0
  6  7  2  0
  7  8  1  0
  8  9  2  0
  9 10  1  0
 10 11  1  0
 11 12  1  0
 12 13  1  0
 13 14  1  0
 13 15  1  0
  9 16  1  0
 16 17  1  0
 17 18  2  0
 18 19  1  0
 19 20  1  0
 20  2  1  0
  8  3  1  0
 20 16  2  0
  1 21  1  0
  1 22  1  0
  1 23  1  0
  4 24  1  0
  5 25  1  0
  6 26  1  0
  7 27  1  0
 10 28  1  0
 11 29  1  0
 11 30  1  0
 12 31  1  0
 12 32  1  0
 13 33  1  0
 14 34  1  0
 14 35  1  0
 14 36  1  0
 15 37  1  0
 15 38  1  0
 15 39  1  0
 17 40  1  0
 18 41  1  0
M  CHG  2   2   1  13   1
M  END
>  <UniqueID>  (10) 
9

>  <SMILES>  (10) 
C[n+]1c2ccccc2c(NCC[NH+](C)C)c2ccoc21

>  <Energy>  (10) 
92.22399951033249

>  <Genealogy>  (10) 
C[n+]1c2ccccc2c(NCC[NH+](C)C)c2ccoc21 (protonated)
C[n+]1c2ccccc2c(NCC[NH+](C)C)c2ccoc21 (3D coordinates assigned)
C[n+]1c2ccccc2c(NCC[NH+](C)C)c2ccoc21 (optimized conformer: 92.22399951033249 kcal/mol)

>  <smiles>  (10) 
CN(C)CCNc1c2ccccc2[n+](C)c2occc12

>  <score_type>  (10) 
oracle

>  <origin>  (10) 
adg

>  <m_score__min__energy>  (10) 
-3.5499999999999998

>  <m_primary>  (10) 
energy

$$$$
10:0
     RDKit          3D

 53 55  0  0  0  0  0  0  0  0999 V2000
   58.6971   32.1795   48.9034 H   0  0  0  0  0  0  0  0  0  0  0  0
   59.2280   32.0160   47.9540 C   0  0  0  0  0  0  0  0  0  0  0  0
   59.8230   30.8180   47.7680 C   0  0  0  0  0  0  0  0  0  0  0  0
   61.0640   30.4880   48.5150 C   0  0  0  0  0  0  0  0  0  0  0  0
   61.1130   29.4280   49.1960 O   0  0  0  0  0  0  0  0  0  0  0  0
   62.2160   31.3500   48.4760 N   0  0  0  0  0  0  0  0  0  0  0  0
   62.7460   31.8340   47.1970 C   0  0  0  0  0  0  0  0  0  0  0  0
   63.6154   31.2232   46.9122 H   0  0  0  0  0  0  0  0  0  0  0  0
   61.9570   31.7543   46.4347 H   0  0  0  0  0  0  0  0  0  0  0  0
   63.1790   33.3090   47.3090 C   0  0  0  0  0  0  0  0  0  0  0  0
   63.9796   33.4900   46.5767 H   0  0  0  0  0  0  0  0  0  0  0  0
   62.2820   33.9168   47.1192 H   0  0  0  0  0  0  0  0  0  0  0  0
   63.6810   33.6970   48.6540 N   0  0  0  0  0  0  0  0  0  0  0  0
   62.7120   34.5280   49.3860 C   0  0  0  0  0  0  0  0  0  0  0  0
   62.8622   34.3992   50.4681 H   0  0  0  0  0  0  0  0  0  0  0  0
   62.8594   35.5848   49.1186 H   0  0  0  0  0  0  0  0  0  0  0  0
   61.6901   34.2212   49.1186 H   0  0  0  0  0  0  0  0  0  0  0  0
   64.1440   32.5490   49.4610 C   0  0  0  0  0  0  0  0  0  0  0  0
   64.9766   32.0577   48.9363 H   0  0  0  0  0  0  0  0  0  0  0  0
   64.4639   32.9282   50.4428 H   0  0  0  0  0  0  0  0  0  0  0  0
   63.0230   31.5210   49.6880 C   0  0  0  0  0  0  0  0  0  0  0  0
   63.4710   30.5543   49.9617 H   0  0  0  0  0  0  0  0  0  0  0  0
   62.3709   31.8850   50.4957 H   0  0  0  0  0  0  0  0  0  0  0  0
   59.3040   29.8350   46.7870 C   0  0  0  0  0  0  0  0  0  0  0  0
   60.0980   28.7590   46.3700 C   0  0  0  0  0  0  0  0  0  0  0  0
   61.1206   28.6498   46.7603 H   0  0  0  0  0  0  0  0  0  0  0  0
   59.5980   27.8250   45.4620 C   0  0  0  0  0  0  0  0  0  0  0  0
   60.2303   26.9847   45.1393 H   0  0  0  0  0  0  0  0  0  0  0  0
   58.2910   27.9500   44.9560 C   0  0  0  0  0  0  0  0  0  0  0  0
   57.7520   27.0270   44.0450 O   0  0  0  0  0  0  0  0  0  0  0  0
   58.1190   26.9420   42.6720 C   0  0  0  0  0  0  0  0  0  0  0  0
   59.1879   26.6944   42.5928 H   0  0  0  0  0  0  0  0  0  0  0  0
   57.5237   26.1580   42.1812 H   0  0  0  0  0  0  0  0  0  0  0  0
   57.9290   27.9079   42.1812 H   0  0  0  0  0  0  0  0  0  0  0  0
   57.4880   29.0250   45.3680 C   0  0  0  0  0  0  0  0  0  0  0  0
   56.1840   29.1210   44.8560 O   0  0  0  0  0  0  0  0  0  0  0  0
   55.8490   29.7360   43.6170 C   0  0  0  0  0  0  0  0  0  0  0  0
   55.3308   30.6873   43.8081 H   0  0  0  0  0  0  0  0  0  0  0  0
   56.7674   29.9276   43.0426 H   0  0  0  0  0  0  0  0  0  0  0  0
   55.1899   29.0684   43.0426 H   0  0  0  0  0  0  0  0  0  0  0  0
   58.0040   29.9690   46.2780 C   0  0  0  0  0  0  0  0  0  0  0  0
   57.3811   30.8194   46.5923 H   0  0  0  0  0  0  0  0  0  0  0  0
   59.2380   33.1250   46.9740 C   0  0  0  0  0  0  0  0  0  0  0  0
   59.9880   34.2760   47.2580 C   0  0  0  0  0  0  0  0  0  0  0  0
   60.5604   34.3393   48.1952 H   0  0  0  0  0  0  0  0  0  0  0  0
   60.0110   35.3440   46.3540 C   0  0  0  0  0  0  0  0  0  0  0  0
   60.6135   36.2375   46.5746 H   0  0  0  0  0  0  0  0  0  0  0  0
   59.2700   35.2770   45.1720 C   0  0  0  0  0  0  0  0  0  0  0  0
   59.2954   36.1138   44.4585 H   0  0  0  0  0  0  0  0  0  0  0  0
   58.4960   34.1460   44.8960 C   0  0  0  0  0  0  0  0  0  0  0  0
   57.9065   34.0970   43.9686 H   0  0  0  0  0  0  0  0  0  0  0  0
   58.4700   33.0780   45.7960 C   0  0  0  0  0  0  0  0  0  0  0  0
   57.8468   32.1970   45.5830 H   0  0  0  0  0  0  0  0  0  0  0  0
  1  2  1  0
  2  3  2  0
  3  4  1  0
  4  5  2  0
  4  6  1  0
  6  7  1  0
  7  8  1  0
  7  9  1  0
  7 10  1  0
 10 11  1  0
 10 12  1  0
 10 13  1  0
 13 14  1  0
 14 15  1  0
 14 16  1  0
 14 17  1  0
 13 18  1  0
 18 19  1  0
 18 20  1  0
 18 21  1  0
 21 22  1  0
 21 23  1  0
  3 24  1  0
 24 25  2  0
 25 26  1  0
 25 27  1  0
 27 28  1  0
 27 29  2  0
 29 30  1  0
 30 31  1  0
 31 32  1  0
 31 33  1  0
 31 34  1  0
 29 35  1  0
 35 36  1  0
 36 37  1  0
 37 38  1  0
 37 39  1  0
 37 40  1  0
 35 41  2  0
 41 42  1  0
  2 43  1  0
 43 44  2  0
 44 45  1  0
 44 46  1  0
 46 47  1  0
 46 48  2  0
 48 49  1  0
 48 50  1  0
 50 51  1  0
 50 52  2  0
 52 53  1  0
 21  6  1  0
 41 24  1  0
 52 43  1  0
M  END
>  <UniqueID>  (11) 
10

>  <SMILES>  (11) 
COc1ccc(/C(=C\c2ccccc2)C(=O)N2CCN(C)CC2)cc1OC

>  <Energy>  (11) 
75.33573985714736

>  <Genealogy>  (11) 
COc1ccc(/C(=C\c2ccccc2)C(=O)N2CCN(C)CC2)cc1OC (cis-trans isomerization)
COc1ccc(/C(=C\c2ccccc2)C(=O)N2CCN(C)CC2)cc1OC (3D coordinates assigned)
COc1ccc(/C(=C\c2ccccc2)C(=O)N2CCN(C)CC2)cc1OC (nonaromatic ring conformer: 75.33573985714736 kcal/mol)

>  <smiles>  (11) 
COc1ccc(C(=Cc2ccccc2)C(=O)N2CCN(C)CC2)cc1OC

>  <score_type>  (11) 
oracle

>  <origin>  (11) 
adg

>  <m_score__min__energy>  (11) 
-7.9299999999999997

>  <m_primary>  (11) 
energy

$$$$
11:0
     RDKit          3D

 40 42  0  0  0  0  0  0  0  0999 V2000
   60.0200   30.0020   48.1970 C   0  0  0  0  0  0  0  0  0  0  0  0
   58.8840   30.9110   48.6650 C   0  0  0  0  0  0  0  0  0  0  0  0
   59.0320   32.2780   48.1080 N   0  0  0  0  0  0  0  0  0  0  0  0
   59.4610   33.3170   48.9210 C   0  0  0  0  0  0  0  0  0  0  0  0
   59.7310   33.1730   50.4170 C   0  0  0  0  0  0  0  0  0  0  0  0
   61.0630   33.6800   50.7980 N   0  0  0  0  0  0  0  0  0  0  0  0
   62.1180   32.6730   50.6080 C   0  0  0  0  0  0  0  0  0  0  0  0
   62.6790   32.7590   49.2210 C   0  0  0  0  0  0  0  0  0  0  0  0
   62.9280   31.6840   48.3790 C   0  0  0  0  0  0  0  0  0  0  0  0
   63.3790   32.0740   47.1120 C   0  0  0  0  0  0  0  0  0  0  0  0
   63.4700   33.4510   46.9510 C   0  0  0  0  0  0  0  0  0  0  0  0
   62.9870   34.1850   48.3850 S   0  0  0  0  0  0  0  0  0  0  0  0
   59.6620   34.5950   48.3830 C   0  0  0  0  0  0  0  0  0  0  0  0
   59.4270   34.8440   47.0430 C   0  0  0  0  0  0  0  0  0  0  0  0
   59.6380   36.0020   46.5870 O   0  0  0  0  0  0  0  0  0  0  0  0
   58.9460   33.8210   46.2210 C   0  0  0  0  0  0  0  0  0  0  0  0
   58.6680   34.0690   44.8620 C   0  0  0  0  0  0  0  0  0  0  0  0
   58.1500   33.0650   44.0500 C   0  0  0  0  0  0  0  0  0  0  0  0
   57.8930   31.8070   44.5810 C   0  0  0  0  0  0  0  0  0  0  0  0
   58.1660   31.5370   45.9220 C   0  0  0  0  0  0  0  0  0  0  0  0
   58.7220   32.5290   46.7760 C   0  0  0  0  0  0  0  0  0  0  0  0
   60.5405   29.5855   49.0720 H   0  0  0  0  0  0  0  0  0  0  0  0
   59.6074   29.1819   47.5911 H   0  0  0  0  0  0  0  0  0  0  0  0
   60.7297   30.5844   47.5911 H   0  0  0  0  0  0  0  0  0  0  0  0
   57.9248   30.4886   48.3312 H   0  0  0  0  0  0  0  0  0  0  0  0
   58.9163   30.9748   49.7627 H   0  0  0  0  0  0  0  0  0  0  0  0
   58.9662   33.7378   50.9702 H   0  0  0  0  0  0  0  0  0  0  0  0
   59.6963   32.1014   50.6631 H   0  0  0  0  0  0  0  0  0  0  0  0
   61.0320   33.9460   51.8100 H   0  0  0  0  0  0  0  0  0  0  0  0
   61.2890   34.5400   50.2450 H   0  0  0  0  0  0  0  0  0  0  0  0
   62.9232   32.8499   51.3362 H   0  0  0  0  0  0  0  0  0  0  0  0
   61.6867   31.6721   50.7569 H   0  0  0  0  0  0  0  0  0  0  0  0
   62.7858   30.6345   48.6762 H   0  0  0  0  0  0  0  0  0  0  0  0
   63.6371   31.3573   46.3185 H   0  0  0  0  0  0  0  0  0  0  0  0
   63.8014   33.9722   46.0408 H   0  0  0  0  0  0  0  0  0  0  0  0
   60.0109   35.4100   49.0342 H   0  0  0  0  0  0  0  0  0  0  0  0
   58.8624   35.0657   44.4392 H   0  0  0  0  0  0  0  0  0  0  0  0
   57.9441   33.2670   42.9885 H   0  0  0  0  0  0  0  0  0  0  0  0
   57.4715   31.0189   43.9397 H   0  0  0  0  0  0  0  0  0  0  0  0
   57.9471   30.5378   46.3266 H   0  0  0  0  0  0  0  0  0  0  0  0
  1  2  1  0
  2  3  1  0
  3  4  1  0
  4  5  1  0
  5  6  1  0
  6  7  1  0
  7  8  1  0
  8  9  2  0
  9 10  1  0
 10 11  2  0
 11 12  1  0
  4 13  2  0
 13 14  1  0
 14 15  2  0
 14 16  1  0
 16 17  2  0
 17 18  1  0
 18 19  2  0
 19 20  1  0
 20 21  2  0
 21  3  1  0
 12  8  1  0
 21 16  1  0
  1 22  1  0
  1 23  1  0
  1 24  1  0
  2 25  1  0
  2 26  1  0
  5 27  1  0
  5 28  1  0
  6 29  1  0
  6 30  1  0
  7 31  1  0
  7 32  1  0
  9 33  1  0
 10 34  1  0
 11 35  1  0
 13 36  1  0
 17 37  1  0
 18 38  1  0
 19 39  1  0
 20 40  1  0
M  CHG  1   6   1
M  END
>  <UniqueID>  (12) 
11

>  <SMILES>  (12) 
CCn1c(C[NH2+]Cc2cccs2)cc(=O)c2ccccc21

>  <Energy>  (12) 
80.27059234859595

>  <Genealogy>  (12) 
CCn1c(C[NH2+]Cc2cccs2)cc(=O)c2ccccc21 (protonated)
CCn1c(C[NH2+]Cc2cccs2)cc(=O)c2ccccc21 (3D coordinates assigned)
CCn1c(C[NH2+]Cc2cccs2)cc(=O)c2ccccc21 (optimized conformer: 80.27059234859595 kcal/mol)

>  <smiles>  (12) 
CCn1c(CNCc2cccs2)cc(=O)c2ccccc21

>  <score_type>  (12) 
oracle

>  <origin>  (12) 
adg

>  <m_score__min__energy>  (12) 
-5.6600000000000001

>  <m_primary>  (12) 
energy

$$$$
12:0
     RDKit          3D

 44 47  0  0  1  0  0  0  0  0999 V2000
   63.8800   33.2180   47.6750 C   0  0  0  0  0  0  0  0  0  0  0  0
   62.5410   33.4810   47.2300 O   0  0  0  0  0  0  0  0  0  0  0  0
   61.5160   33.1290   48.1230 C   0  0  0  0  0  0  0  0  0  0  0  0
   61.0190   34.0400   49.0510 C   0  0  0  0  0  0  0  0  0  0  0  0
   60.0150   33.7270   49.9400 C   0  0  0  0  0  0  0  0  0  0  0  0
   59.4760   32.4460   49.9070 C   0  0  0  0  0  0  0  0  0  0  0  0
   58.0770   31.9590   51.1230 Br  0  0  0  0  0  0  0  0  0  0  0  0
   59.9620   31.5380   48.9900 C   0  0  0  0  0  0  0  0  0  0  0  0
   60.9720   31.8410   48.0910 C   0  0  0  0  0  0  0  0  0  0  0  0
   61.4530   30.8240   47.1140 C   0  0  0  0  0  0  0  0  0  0  0  0
   61.0560   29.5250   47.4040 O   0  0  0  0  0  0  0  0  0  0  0  0
   59.9510   28.8540   46.9380 C   0  0  0  0  0  0  0  0  0  0  0  0
   59.3460   27.9650   47.8270 C   0  0  0  0  0  0  0  0  0  0  0  0
   58.2270   27.2300   47.4820 C   0  0  0  0  0  0  0  0  0  0  0  0
   57.7170   27.3850   46.2480 N   0  0  0  0  0  0  0  0  0  0  0  0
   58.2770   28.2450   45.3440 C   0  0  0  0  0  0  0  0  0  0  0  0
   57.7010   28.3830   43.9840 C   0  0  0  0  0  0  0  0  0  0  0  0
   56.5650   29.7310   43.9860 S   0  0  0  0  0  0  0  0  0  0  0  0
   55.1600   29.3370   44.8630 O   0  0  0  0  0  0  0  0  0  0  0  0
   57.2910   31.1840   44.6500 C   0  0  0  0  0  0  0  0  0  0  0  0
   57.8770   32.1160   43.9090 N   0  0  0  0  0  0  0  0  0  0  0  0
   58.3540   33.1140   44.7280 C   0  0  0  0  0  0  0  0  0  0  0  0
   59.0380   34.3070   44.4660 C   0  0  0  0  0  0  0  0  0  0  0  0
   59.2670   34.9960   46.1220 S   0  0  0  0  0  0  0  0  0  0  0  0
   58.4640   33.6890   46.9820 C   0  0  0  0  0  0  0  0  0  0  0  0
   58.0590   32.7870   45.9530 C   0  0  0  0  0  0  0  0  0  0  0  0
   57.3980   31.5880   45.9200 N   0  0  0  0  0  0  0  0  0  0  0  0
   59.4070   28.9930   45.6840 C   0  0  0  0  0  0  0  0  0  0  0  0
   63.9066   33.2128   48.7747 H   0  0  0  0  0  0  0  0  0  0  0  0
   64.2067   32.2385   47.2957 H   0  0  0  0  0  0  0  0  0  0  0  0
   64.5529   34.0011   47.2957 H   0  0  0  0  0  0  0  0  0  0  0  0
   61.4466   35.0532   49.0751 H   0  0  0  0  0  0  0  0  0  0  0  0
   59.6479   34.4735   50.6597 H   0  0  0  0  0  0  0  0  0  0  0  0
   59.5282   30.5273   48.9713 H   0  0  0  0  0  0  0  0  0  0  0  0
   61.0647   31.0898   46.1197 H   0  0  0  0  0  0  0  0  0  0  0  0
   62.5520   30.8367   47.1590 H   0  0  0  0  0  0  0  0  0  0  0  0
   59.7726   27.8452   48.8338 H   0  0  0  0  0  0  0  0  0  0  0  0
   57.7655   26.5356   48.1995 H   0  0  0  0  0  0  0  0  0  0  0  0
   58.5053   28.5777   43.2593 H   0  0  0  0  0  0  0  0  0  0  0  0
   57.1818   27.4555   43.7008 H   0  0  0  0  0  0  0  0  0  0  0  0
   59.3558   34.7207   43.4976 H   0  0  0  0  0  0  0  0  0  0  0  0
   58.3091   33.5894   48.0665 H   0  0  0  0  0  0  0  0  0  0  0  0
   57.0220   31.0360   46.7180 H   0  0  0  0  0  0  0  0  0  0  0  0
   59.8559   29.6851   44.9563 H   0  0  0  0  0  0  0  0  0  0  0  0
  1  2  1  0
  2  3  1  0
  3  4  2  0
  4  5  1  0
  5  6  2  0
  6  7  1  0
  6  8  1  0
  8  9  2  0
  9 10  1  0
 10 11  1  0
 11 12  1  0
 12 13  2  0
 13 14  1  0
 14 15  2  0
 15 16  1  0
 16 17  1  0
 17 18  1  0
 18 19  1  1
 18 20  1  0
 20 21  2  0
 21 22  1  0
 22 23  2  0
 23 24  1  0
 24 25  1  0
 25 26  2  0
 26 27  1  0
 16 28  2  0
  9  3  1  0
 28 12  1  0
 27 20  1  0
 26 22  1  0
  1 29  1  0
  1 30  1  0
  1 31  1  0
  4 32  1  0
  5 33  1  0
  8 34  1  0
 10 35  1  0
 10 36  1  0
 13 37  1  0
 14 38  1  0
 17 39  1  0
 17 40  1  0
 23 41  1  0
 25 42  1  0
 27 43  1  0
 28 44  1  0
M  CHG  2  18   1  19  -1
M  END
>  <smiles>  (13) 
COc1ccc(Br)cc1COc1ccnc(C[S+]([O-])c2nc3cscc3[nH]2)c1

>  <score_type>  (13) 
oracle

>  <origin>  (13) 
adg

>  <m_score__min__energy>  (13) 
-9.7799999999999994

>  <m_primary>  (13) 
energy

$$$$
13:0
     RDKit          3D

 67 69  0  0  0  0  0  0  0  0999 V2000
   60.7020   27.2180   46.0880 C   0  0  0  0  0  0  0  0  0  0  0  0
   59.3320   27.7280   45.7330 C   0  0  0  0  0  0  0  0  0  0  0  0
   59.1880   28.9830   45.1170 C   0  0  0  0  0  0  0  0  0  0  0  0
   57.9180   29.4690   44.7650 C   0  0  0  0  0  0  0  0  0  0  0  0
   57.7840   30.7890   44.1070 C   0  0  0  0  0  0  0  0  0  0  0  0
   57.1680   30.8740   43.0090 O   0  0  0  0  0  0  0  0  0  0  0  0
   58.3600   31.9690   44.6950 N   0  0  0  0  0  0  0  0  0  0  0  0
   58.1420   33.3100   44.1560 C   0  0  0  0  0  0  0  0  0  0  0  0
   59.3030   34.2440   44.5170 C   0  0  0  0  0  0  0  0  0  0  0  0
   59.1680   34.8110   45.9380 C   0  0  0  0  0  0  0  0  0  0  0  0
   59.7620   33.8690   46.9940 C   0  0  0  0  0  0  0  0  0  0  0  0
   58.8540   32.7350   47.2910 N   0  0  0  0  0  0  0  0  0  0  0  0
   57.4520   33.1950   47.3310 C   0  0  0  0  0  0  0  0  0  0  0  0
   59.2010   32.0910   48.5780 C   0  0  0  0  0  0  0  0  0  0  0  0
   59.5730   30.6100   48.4020 C   0  0  0  0  0  0  0  0  0  0  0  0
   61.1330   30.1480   49.2440 S   0  0  0  0  0  0  0  0  0  0  0  0
   62.0590   31.5920   48.7140 C   0  0  0  0  0  0  0  0  0  0  0  0
   62.6380   31.6190   47.4390 C   0  0  0  0  0  0  0  0  0  0  0  0
   63.3500   32.7470   47.0150 C   0  0  0  0  0  0  0  0  0  0  0  0
   63.4810   33.8500   47.8640 C   0  0  0  0  0  0  0  0  0  0  0  0
   62.9000   33.8280   49.1370 C   0  0  0  0  0  0  0  0  0  0  0  0
   62.1840   32.7020   49.5610 C   0  0  0  0  0  0  0  0  0  0  0  0
   56.7890   28.6740   45.0220 C   0  0  0  0  0  0  0  0  0  0  0  0
   56.9260   27.4220   45.6210 C   0  0  0  0  0  0  0  0  0  0  0  0
   58.1980   26.9330   45.9750 C   0  0  0  0  0  0  0  0  0  0  0  0
   58.3730   25.6660   46.5640 O   0  0  0  0  0  0  0  0  0  0  0  0
   57.3490   24.6840   46.7350 C   0  0  0  0  0  0  0  0  0  0  0  0
   57.2330   23.8170   45.5090 C   0  0  0  0  0  0  0  0  0  0  0  0
   58.0830   22.7120   45.3300 C   0  0  0  0  0  0  0  0  0  0  0  0
   57.9680   21.9130   44.1890 C   0  0  0  0  0  0  0  0  0  0  0  0
   57.0110   22.2150   43.2150 C   0  0  0  0  0  0  0  0  0  0  0  0
   56.1720   23.3200   43.3790 C   0  0  0  0  0  0  0  0  0  0  0  0
   56.2830   24.1220   44.5190 C   0  0  0  0  0  0  0  0  0  0  0  0
   60.8066   27.1791   47.1823 H   0  0  0  0  0  0  0  0  0  0  0  0
   60.8373   26.2093   45.6706 H   0  0  0  0  0  0  0  0  0  0  0  0
   61.4639   27.8927   45.6706 H   0  0  0  0  0  0  0  0  0  0  0  0
   60.0801   29.5917   44.9081 H   0  0  0  0  0  0  0  0  0  0  0  0
   59.0650   31.8670   45.4580 H   0  0  0  0  0  0  0  0  0  0  0  0
   58.0576   33.2480   43.0610 H   0  0  0  0  0  0  0  0  0  0  0  0
   57.2174   33.7163   44.5920 H   0  0  0  0  0  0  0  0  0  0  0  0
   60.2456   33.6813   44.4477 H   0  0  0  0  0  0  0  0  0  0  0  0
   59.2898   35.0887   43.8126 H   0  0  0  0  0  0  0  0  0  0  0  0
   59.6946   35.7755   45.9866 H   0  0  0  0  0  0  0  0  0  0  0  0
   58.0962   34.9303   46.1548 H   0  0  0  0  0  0  0  0  0  0  0  0
   60.7175   33.4721   46.6204 H   0  0  0  0  0  0  0  0  0  0  0  0
   59.9086   34.4425   47.9211 H   0  0  0  0  0  0  0  0  0  0  0  0
   57.1304   33.3005   48.3776 H   0  0  0  0  0  0  0  0  0  0  0  0
   57.3704   34.1670   46.8226 H   0  0  0  0  0  0  0  0  0  0  0  0
   56.8104   32.4603   46.8226 H   0  0  0  0  0  0  0  0  0  0  0  0
   60.0570   32.6215   49.0206 H   0  0  0  0  0  0  0  0  0  0  0  0
   58.3178   32.1429   49.2316 H   0  0  0  0  0  0  0  0  0  0  0  0
   58.7592   29.9946   48.8131 H   0  0  0  0  0  0  0  0  0  0  0  0
   59.7210   30.4376   47.3257 H   0  0  0  0  0  0  0  0  0  0  0  0
   62.5330   30.7523   46.7698 H   0  0  0  0  0  0  0  0  0  0  0  0
   63.8063   32.7656   46.0143 H   0  0  0  0  0  0  0  0  0  0  0  0
   64.0413   34.7361   47.5311 H   0  0  0  0  0  0  0  0  0  0  0  0
   63.0059   34.6957   49.8047 H   0  0  0  0  0  0  0  0  0  0  0  0
   61.7198   32.6884   50.5582 H   0  0  0  0  0  0  0  0  0  0  0  0
   55.7890   29.0417   44.7487 H   0  0  0  0  0  0  0  0  0  0  0  0
   56.0327   26.8113   45.8186 H   0  0  0  0  0  0  0  0  0  0  0  0
   57.5950   24.0528   47.6017 H   0  0  0  0  0  0  0  0  0  0  0  0
   56.3899   25.1976   46.8970 H   0  0  0  0  0  0  0  0  0  0  0  0
   58.8415   22.4752   46.0907 H   0  0  0  0  0  0  0  0  0  0  0  0
   58.6312   21.0454   44.0569 H   0  0  0  0  0  0  0  0  0  0  0  0
   56.9188   21.5825   42.3197 H   0  0  0  0  0  0  0  0  0  0  0  0
   55.4228   23.5595   42.6100 H   0  0  0  0  0  0  0  0  0  0  0  0
   55.6246   24.9946   44.6415 H   0  0  0  0  0  0  0  0  0  0  0  0
  1  2  1  0
  2  3  2  0
  3  4  1  0
  4  5  1  0
  5  6  2  0
  5  7  1  0
  7  8  1  0
  8  9  1  0
  9 10  1  0
 10 11  1  0
 11 12  1  0
 12 13  1  0
 12 14  1  0
 14 15  1  0
 15 16  1  0
 16 17  1  0
 17 18  2  0
 18 19  1  0
 19 20  2  0
 20 21  1  0
 21 22  2  0
  4 23  2  0
 23 24  1  0
 24 25  2  0
 25 26  1  0
 26 27  1  0
 27 28  1  0
 28 29  2  0
 29 30  1  0
 30 31  2  0
 31 32  1  0
 32 33  2  0
 25  2  1  0
 33 28  1  0
 22 17  1  0
  1 34  1  0
  1 35  1  0
  1 36  1  0
  3 37  1  0
  7 38  1  0
  8 39  1  0
  8 40  1  0
  9 41  1  0
  9 42  1  0
 10 43  1  0
 10 44  1  0
 11 45  1  0
 11 46  1  0
 13 47  1  0
 13 48  1  0
 13 49  1  0
 14 50  1  0
 14 51  1  0
 15 52  1  0
 15 53  1  0
 18 54  1  0
 19 55  1  0
 20 56  1  0
 21 57  1  0
 22 58  1  0
 23 59  1  0
 24 60  1  0
 27 61  1  0
 27 62  1  0
 29 63  1  0
 30 64  1  0
 31 65  1  0
 32 66  1  0
 33 67  1  0
M  END
>  <UniqueID>  (14) 
12

>  <SMILES>  (14) 
Cc1cc(C(=O)NCCCCN(C)CCSc2ccccc2)ccc1OCc1ccccc1

>  <Energy>  (14) 
60.16039578991691

>  <Genealogy>  (14) 
Cc1cc(C(=O)NCCCCN(C)CCSc2ccccc2)ccc1OCc1ccccc1 (3D coordinates assigned)
Cc1cc(C(=O)NCCCCN(C)CCSc2ccccc2)ccc1OCc1ccccc1 (optimized conformer: 60.16039578991691 kcal/mol)

>  <smiles>  (14) 
Cc1cc(C(=O)NCCCCN(C)CCSc2ccccc2)ccc1OCc1ccccc1

>  <score_type>  (14) 
oracle

>  <origin>  (14) 
adg

>  <m_score__min__energy>  (14) 
-9.4499999999999993

>  <m_primary>  (14) 
energy

$$$$
14:0
     RDKit          3D

 53 57  0  0  0  0  0  0  0  0999 V2000
   56.6200   29.6640   42.9980 C   0  0  0  0  0  0  0  0  0  0  0  0
   56.2550   30.4910   44.0980 O   0  0  0  0  0  0  0  0  0  0  0  0
   57.1610   31.2540   44.8500 C   0  0  0  0  0  0  0  0  0  0  0  0
   57.4010   32.6170   44.5860 C   0  0  0  0  0  0  0  0  0  0  0  0
   58.3050   33.3400   45.3710 C   0  0  0  0  0  0  0  0  0  0  0  0
   58.9910   32.7100   46.4170 C   0  0  0  0  0  0  0  0  0  0  0  0
   58.7710   31.3440   46.6650 C   0  0  0  0  0  0  0  0  0  0  0  0
   57.8500   30.6280   45.8950 C   0  0  0  0  0  0  0  0  0  0  0  0
   59.7570   30.5040   47.9110 S   0  0  0  0  0  0  0  0  0  0  0  0
   59.5530   31.8140   49.1250 C   0  0  0  0  0  0  0  0  0  0  0  0
   59.3260   31.4970   50.4680 C   0  0  0  0  0  0  0  0  0  0  0  0
   59.2890   32.5140   51.4280 C   0  0  0  0  0  0  0  0  0  0  0  0
   59.0060   32.0790   53.2650 Br  0  0  0  0  0  0  0  0  0  0  0  0
   59.4690   33.8470   51.0440 C   0  0  0  0  0  0  0  0  0  0  0  0
   59.6740   34.1690   49.6970 C   0  0  0  0  0  0  0  0  0  0  0  0
   59.7130   33.1550   48.7300 C   0  0  0  0  0  0  0  0  0  0  0  0
   59.8030   33.4760   47.3280 N   0  0  0  0  0  0  0  0  0  0  0  0
   60.9610   34.2250   46.8230 C   0  0  0  0  0  0  0  0  0  0  0  0
   62.2080   33.6360   47.3980 C   0  0  0  0  0  0  0  0  0  0  0  0
   62.6930   32.3640   47.1200 C   0  0  0  0  0  0  0  0  0  0  0  0
   63.6830   31.9410   48.0130 C   0  0  0  0  0  0  0  0  0  0  0  0
   63.9460   32.8630   49.0220 C   0  0  0  0  0  0  0  0  0  0  0  0
   64.8990   32.6680   50.1730 C   0  0  0  0  0  0  0  0  0  0  0  0
   64.2610   32.2790   51.4560 N   0  0  0  0  0  0  0  0  0  0  0  0
   63.5060   33.3490   52.1220 C   0  0  0  0  0  0  0  0  0  0  0  0
   62.5450   32.6640   53.0840 C   0  0  0  0  0  0  0  0  0  0  0  0
   62.4470   31.2200   52.6050 C   0  0  0  0  0  0  0  0  0  0  0  0
   63.3380   31.1400   51.3720 C   0  0  0  0  0  0  0  0  0  0  0  0
   62.9840   34.2210   48.7700 S   0  0  0  0  0  0  0  0  0  0  0  0
   57.0375   28.7180   43.3732 H   0  0  0  0  0  0  0  0  0  0  0  0
   55.7306   29.4549   42.3855 H   0  0  0  0  0  0  0  0  0  0  0  0
   57.3739   30.1802   42.3855 H   0  0  0  0  0  0  0  0  0  0  0  0
   56.8748   33.1150   43.7583 H   0  0  0  0  0  0  0  0  0  0  0  0
   58.4778   34.4069   45.1662 H   0  0  0  0  0  0  0  0  0  0  0  0
   57.6655   29.5655   46.1118 H   0  0  0  0  0  0  0  0  0  0  0  0
   59.1768   30.4496   50.7691 H   0  0  0  0  0  0  0  0  0  0  0  0
   59.4494   34.6439   51.8020 H   0  0  0  0  0  0  0  0  0  0  0  0
   59.8046   35.2192   49.3971 H   0  0  0  0  0  0  0  0  0  0  0  0
   60.9935   34.1585   45.7255 H   0  0  0  0  0  0  0  0  0  0  0  0
   60.8782   35.2815   47.1177 H   0  0  0  0  0  0  0  0  0  0  0  0
   62.3339   31.7503   46.2807 H   0  0  0  0  0  0  0  0  0  0  0  0
   64.2023   30.9752   47.9264 H   0  0  0  0  0  0  0  0  0  0  0  0
   65.6139   31.8798   49.8945 H   0  0  0  0  0  0  0  0  0  0  0  0
   65.3731   33.6449   50.3488 H   0  0  0  0  0  0  0  0  0  0  0  0
   65.0370   32.0010   52.1050 H   0  0  0  0  0  0  0  0  0  0  0  0
   64.1901   34.0100   52.6743 H   0  0  0  0  0  0  0  0  0  0  0  0
   62.9646   33.9684   51.3918 H   0  0  0  0  0  0  0  0  0  0  0  0
   62.9371   32.7023   54.1110 H   0  0  0  0  0  0  0  0  0  0  0  0
   61.5615   33.1566   53.0972 H   0  0  0  0  0  0  0  0  0  0  0  0
   62.8056   30.5312   53.3840 H   0  0  0  0  0  0  0  0  0  0  0  0
   61.4092   30.9343   52.3783 H   0  0  0  0  0  0  0  0  0  0  0  0
   63.8995   30.1941   51.3686 H   0  0  0  0  0  0  0  0  0  0  0  0
   62.7442   31.1740   50.4467 H   0  0  0  0  0  0  0  0  0  0  0  0
  1  2  1  0
  2  3  1  0
  3  4  2  0
  4  5  1  0
  5  6  2  0
  6  7  1  0
  7  8  2  0
  7  9  1  0
  9 10  1  0
 10 11  2  0
 11 12  1  0
 12 13  1  0
 12 14  2  0
 14 15  1  0
 15 16  2  0
 16 17  1  0
 17 18  1  0
 18 19  1  0
 19 20  2  0
 20 21  1  0
 21 22  2  0
 22 23  1  0
 23 24  1  0
 24 25  1  0
 25 26  1  0
 26 27  1  0
 27 28  1  0
 22 29  1  0
  8  3  1  0
 16 10  1  0
 29 19  1  0
 17  6  1  0
 28 24  1  0
  1 30  1  0
  1 31  1  0
  1 32  1  0
  4 33  1  0
  5 34  1  0
  8 35  1  0
 11 36  1  0
 14 37  1  0
 15 38  1  0
 18 39  1  0
 18 40  1  0
 20 41  1  0
 21 42  1  0
 23 43  1  0
 23 44  1  0
 24 45  1  0
 25 46  1  0
 25 47  1  0
 26 48  1  0
 26 49  1  0
 27 50  1  0
 27 51  1  0
 28 52  1  0
 28 53  1  0
M  CHG  1  24   1
M  END
>  <UniqueID>  (15) 
13

>  <SMILES>  (15) 
COc1ccc2c(c1)Sc1cc(Br)ccc1N2Cc1ccc(C[NH+]2CCCC2)s1

>  <Energy>  (15) 
102.67650040496505

>  <Genealogy>  (15) 
COc1ccc2c(c1)Sc1cc(Br)ccc1N2Cc1ccc(C[NH+]2CCCC2)s1 (protonated)
COc1ccc2c(c1)Sc1cc(Br)ccc1N2Cc1ccc(C[NH+]2CCCC2)s1 (3D coordinates assigned)
COc1ccc2c(c1)Sc1cc(Br)ccc1N2Cc1ccc(C[NH+]2CCCC2)s1 (nonaromatic ring conformer: 102.67650040496505 kcal/mol)

>  <smiles>  (15) 
COc1ccc2c(c1)Sc1cc(Br)ccc1N2Cc1ccc(CN2CCCC2)s1

>  <score_type>  (15) 
oracle

>  <origin>  (15) 
adg

>  <m_score__min__energy>  (15) 
-7.5899999999999999

>  <m_primary>  (15) 
energy

$$$$
15:0
     RDKit          3D

 33 33  0  0  0  0  0  0  0  0999 V2000
   59.8280   29.6840   45.7160 C   0  0  0  0  0  0  0  0  0  0  0  0
   59.3410   28.5180   44.8580 C   0  0  0  0  0  0  0  0  0  0  0  0
   57.8110   28.5040   44.6620 C   0  0  0  0  0  0  0  0  0  0  0  0
   57.3740   28.7570   43.2750 N   0  0  0  0  0  0  0  0  0  0  0  0
   56.6370   30.0250   43.1360 C   0  0  0  0  0  0  0  0  0  0  0  0
   57.5020   31.2110   43.5900 C   0  0  0  0  0  0  0  0  0  0  0  0
   56.9600   31.8780   44.8640 C   0  0  0  0  0  0  0  0  0  0  0  0
   57.8950   32.9400   45.3860 C   0  0  0  0  0  0  0  0  0  0  0  0
   58.2040   32.9960   46.7550 C   0  0  0  0  0  0  0  0  0  0  0  0
   59.0490   33.9970   47.2460 C   0  0  0  0  0  0  0  0  0  0  0  0
   59.5850   34.9510   46.3750 C   0  0  0  0  0  0  0  0  0  0  0  0
   59.2760   34.9040   45.0130 C   0  0  0  0  0  0  0  0  0  0  0  0
   58.4340   33.9050   44.5190 C   0  0  0  0  0  0  0  0  0  0  0  0
   59.7204   29.4263   46.7800 H   0  0  0  0  0  0  0  0  0  0  0  0
   60.8859   29.8866   45.4930 H   0  0  0  0  0  0  0  0  0  0  0  0
   59.2284   30.5788   45.4930 H   0  0  0  0  0  0  0  0  0  0  0  0
   59.8192   28.5877   43.8699 H   0  0  0  0  0  0  0  0  0  0  0  0
   59.6113   27.5905   45.3839 H   0  0  0  0  0  0  0  0  0  0  0  0
   57.4336   27.5170   44.9675 H   0  0  0  0  0  0  0  0  0  0  0  0
   57.4075   29.3242   45.2740 H   0  0  0  0  0  0  0  0  0  0  0  0
   58.1940   28.7440   42.6270 H   0  0  0  0  0  0  0  0  0  0  0  0
   56.7420   27.9690   43.0000 H   0  0  0  0  0  0  0  0  0  0  0  0
   56.3568   30.1656   42.0816 H   0  0  0  0  0  0  0  0  0  0  0  0
   55.7380   29.9816   43.7684 H   0  0  0  0  0  0  0  0  0  0  0  0
   58.5219   30.8492   43.7873 H   0  0  0  0  0  0  0  0  0  0  0  0
   57.4890   31.9623   42.7867 H   0  0  0  0  0  0  0  0  0  0  0  0
   55.9882   32.3406   44.6370 H   0  0  0  0  0  0  0  0  0  0  0  0
   56.8599   31.1026   45.6378 H   0  0  0  0  0  0  0  0  0  0  0  0
   57.7801   32.2502   47.4435 H   0  0  0  0  0  0  0  0  0  0  0  0
   59.2921   34.0338   48.3182 H   0  0  0  0  0  0  0  0  0  0  0  0
   60.2493   35.7378   46.7618 H   0  0  0  0  0  0  0  0  0  0  0  0
   59.6967   35.6553   44.3285 H   0  0  0  0  0  0  0  0  0  0  0  0
   58.1919   33.8738   43.4464 H   0  0  0  0  0  0  0  0  0  0  0  0
  1  2  1  0
  2  3  1  0
  3  4  1  0
  4  5  1  0
  5  6  1  0
  6  7  1  0
  7  8  1  0
  8  9  2  0
  9 10  1  0
 10 11  2  0
 11 12  1  0
 12 13  2  0
 13  8  1  0
  1 14  1  0
  1 15  1  0
  1 16  1  0
  2 17  1  0
  2 18  1  0
  3 19  1  0
  3 20  1  0
  4 21  1  0
  4 22  1  0
  5 23  1  0
  5 24  1  0
  6 25  1  0
  6 26  1  0
  7 27  1  0
  7 28  1  0
  9 29  1  0
 10 30  1  0
 11 31  1  0
 12 32  1  0
 13 33  1  0
M  CHG  1   4   1
M  END
>  <UniqueID>  (16) 
14

>  <SMILES>  (16) 
CCC[NH2+]CCCc1ccccc1

>  <Energy>  (16) 
23.232523381272173

>  <Genealogy>  (16) 
CCC[NH2+]CCCc1ccccc1 (protonated)
CCC[NH2+]CCCc1ccccc1 (3D coordinates assigned)
CCC[NH2+]CCCc1ccccc1 (optimized conformer: 23.232523381272173 kcal/mol)

>  <smiles>  (16) 
CCCNCCCc1ccccc1

>  <score_type>  (16) 
oracle

>  <origin>  (16) 
adg

>  <m_score__min__energy>  (16) 
-4.1299999999999999

>  <m_primary>  (16) 
energy

$$$$
16:0
     RDKit          3D

 46 49  0  0  0  0  0  0  0  0999 V2000
   59.2180   34.9030   45.6310 C   0  0  0  0  0  0  0  0  0  0  0  0
   60.5620   34.9650   46.0960 O   0  0  0  0  0  0  0  0  0  0  0  0
   61.2970   33.8590   46.5480 C   0  0  0  0  0  0  0  0  0  0  0  0
   62.6930   33.8990   46.7060 C   0  0  0  0  0  0  0  0  0  0  0  0
   63.3720   32.7860   47.2020 C   0  0  0  0  0  0  0  0  0  0  0  0
   62.6740   31.6170   47.5110 C   0  0  0  0  0  0  0  0  0  0  0  0
   61.2870   31.5210   47.2790 C   0  0  0  0  0  0  0  0  0  0  0  0
   60.5310   30.2600   47.7100 C   0  0  2  0  0  0  0  0  0  0  0  0
   59.5770   29.6600   46.6910 C   0  0  0  0  0  0  0  0  0  0  0  0
   58.9650   30.4410   45.6870 C   0  0  0  0  0  0  0  0  0  0  0  0
   58.0890   29.8580   44.7680 C   0  0  0  0  0  0  0  0  0  0  0  0
   57.3000   30.9240   43.3930 Br  0  0  0  0  0  0  0  0  0  0  0  0
   57.7870   28.4990   44.8560 C   0  0  0  0  0  0  0  0  0  0  0  0
   58.3290   27.7290   45.8850 C   0  0  0  0  0  0  0  0  0  0  0  0
   59.1860   28.3060   46.8320 C   0  0  0  0  0  0  0  0  0  0  0  0
   59.6580   27.4800   47.9090 N   0  0  0  0  0  0  0  0  0  0  0  0
   60.0380   27.9050   49.2270 C   0  0  0  0  0  0  0  0  0  0  0  0
   60.7190   27.1220   49.9380 O   0  0  0  0  0  0  0  0  0  0  0  0
   59.5650   29.2090   49.8300 C   0  0  0  0  0  0  0  0  0  0  0  0
   59.7820   30.3970   48.9770 N   0  0  0  0  0  0  0  0  0  0  0  0
   58.8890   31.5190   49.1790 C   0  0  0  0  0  0  0  0  0  0  0  0
   58.1700   31.9280   48.2270 O   0  0  0  0  0  0  0  0  0  0  0  0
   58.7940   32.2070   50.4870 C   0  0  0  0  0  0  0  0  0  0  0  0
   59.7550   33.1610   50.8580 C   0  0  0  0  0  0  0  0  0  0  0  0
   59.6700   33.7970   52.0980 C   0  0  0  0  0  0  0  0  0  0  0  0
   58.6290   33.4640   52.9670 C   0  0  0  0  0  0  0  0  0  0  0  0
   57.7150   32.5260   52.6060 N   0  0  0  0  0  0  0  0  0  0  0  0
   57.7740   31.8950   51.4020 C   0  0  0  0  0  0  0  0  0  0  0  0
   60.6060   32.6830   46.8580 C   0  0  0  0  0  0  0  0  0  0  0  0
   58.5334   34.8714   46.4914 H   0  0  0  0  0  0  0  0  0  0  0  0
   58.9996   35.7920   45.0211 H   0  0  0  0  0  0  0  0  0  0  0  0
   59.0824   33.9976   45.0211 H   0  0  0  0  0  0  0  0  0  0  0  0
   63.2506   34.8087   46.4383 H   0  0  0  0  0  0  0  0  0  0  0  0
   64.4611   32.8295   47.3502 H   0  0  0  0  0  0  0  0  0  0  0  0
   63.2133   30.7601   47.9409 H   0  0  0  0  0  0  0  0  0  0  0  0
   61.3792   29.5710   47.8355 H   0  0  0  0  0  0  0  0  0  0  0  0
   59.1797   31.5182   45.6277 H   0  0  0  0  0  0  0  0  0  0  0  0
   57.1213   28.0345   44.1137 H   0  0  0  0  0  0  0  0  0  0  0  0
   58.0816   26.6594   45.9538 H   0  0  0  0  0  0  0  0  0  0  0  0
   58.4868   29.1230   50.0304 H   0  0  0  0  0  0  0  0  0  0  0  0
   60.1623   29.3659   50.7403 H   0  0  0  0  0  0  0  0  0  0  0  0
   60.5770   33.4080   50.1700 H   0  0  0  0  0  0  0  0  0  0  0  0
   60.4153   34.5525   52.3873 H   0  0  0  0  0  0  0  0  0  0  0  0
   58.5489   33.9616   53.9447 H   0  0  0  0  0  0  0  0  0  0  0  0
   57.0198   31.1371   51.1436 H   0  0  0  0  0  0  0  0  0  0  0  0
   59.5095   32.6636   46.7719 H   0  0  0  0  0  0  0  0  0  0  0  0
  1  2  1  0
  2  3  1  0
  3  4  2  0
  4  5  1  0
  5  6  2  0
  6  7  1  0
  7  8  1  0
  8  9  1  0
  9 10  2  0
 10 11  1  0
 11 12  1  0
 11 13  2  0
 13 14  1  0
 14 15  2  0
 15 16  1  0
 16 17  1  0
 17 18  2  0
 17 19  1  0
 19 20  1  0
 20 21  1  0
 21 22  2  0
 21 23  1  0
 23 24  2  0
 24 25  1  0
 25 26  2  0
 26 27  1  0
 27 28  2  0
  7 29  2  0
 29  3  1  0
 20  8  1  0
 28 23  1  0
 15  9  1  0
  1 30  1  0
  1 31  1  0
  1 32  1  0
  4 33  1  0
  5 34  1  0
  6 35  1  0
  8 36  1  1
 10 37  1  0
 13 38  1  0
 14 39  1  0
 19 40  1  0
 19 41  1  0
 24 42  1  0
 25 43  1  0
 26 44  1  0
 28 45  1  0
 29 46  1  0
M  CHG  1  16  -1
M  END
>  <UniqueID>  (17) 
15

>  <SMILES>  (17) 
COc1cccc([C@@H]2c3cc(Br)ccc3[N-]C(=O)CN2C(=O)c2cccnc2)c1

>  <Energy>  (17) 
75.21650459806332

>  <Genealogy>  (17) 
COc1cccc(C2c3cc(Br)ccc3[N-]C(=O)CN2C(=O)c2cccnc2)c1 (protonated)
COc1cccc([C@@H]2c3cc(Br)ccc3[N-]C(=O)CN2C(=O)c2cccnc2)c1 (chirality)
COc1cccc([C@@H]2c3cc(Br)ccc3[N-]C(=O)CN2C(=O)c2cccnc2)c1 (3D coordinates assigned)
COc1cccc([C@@H]2c3cc(Br)ccc3[N-]C(=O)CN2C(=O)c2cccnc2)c1 (nonaromatic ring conformer: 75.21650459806332 kcal/mol)

>  <smiles>  (17) 
COc1cccc(C2c3cc(Br)ccc3NC(=O)CN2C(=O)c2cccnc2)c1

>  <score_type>  (17) 
oracle

>  <origin>  (17) 
adg

>  <m_score__min__energy>  (17) 
-7.6100000000000003

>  <m_primary>  (17) 
energy

$$$$
17:0
     RDKit          3D

 55 58  0  0  0  0  0  0  0  0999 V2000
   57.8230   22.1100   45.6140 C   0  0  0  0  0  0  0  0  0  0  0  0
   57.8440   23.0740   46.6610 O   0  0  0  0  0  0  0  0  0  0  0  0
   57.8770   24.4610   46.4590 C   0  0  0  0  0  0  0  0  0  0  0  0
   59.1240   25.0930   46.3840 C   0  0  0  0  0  0  0  0  0  0  0  0
   59.2110   26.4720   46.1810 C   0  0  0  0  0  0  0  0  0  0  0  0
   58.0460   27.2420   46.0570 C   0  0  0  0  0  0  0  0  0  0  0  0
   58.1360   28.6620   45.8440 N   0  0  0  0  0  0  0  0  0  0  0  0
   58.4530   29.5000   46.8840 C   0  0  0  0  0  0  0  0  0  0  0  0
   58.8240   28.8760   48.5340 S   0  0  0  0  0  0  0  0  0  0  0  0
   59.0940   30.5250   49.2800 C   0  0  0  0  0  0  0  0  0  0  0  0
   60.5340   30.9490   49.1810 C   0  0  0  0  0  0  0  0  0  0  0  0
   61.4100   30.0420   49.1550 O   0  0  0  0  0  0  0  0  0  0  0  0
   60.9390   32.3360   49.0700 N   0  0  0  0  0  0  0  0  0  0  0  0
   62.3490   32.6100   48.7100 C   0  0  0  0  0  0  0  0  0  0  0  0
   62.5870   32.8570   47.2080 C   0  0  0  0  0  0  0  0  0  0  0  0
   61.3850   33.4720   46.4550 C   0  0  0  0  0  0  0  0  0  0  0  0
   60.6590   34.6230   47.1730 C   0  0  0  0  0  0  0  0  0  0  0  0
   59.5320   34.1690   48.1150 C   0  0  0  0  0  0  0  0  0  0  0  0
   60.0090   33.4400   49.3820 C   0  0  0  0  0  0  0  0  0  0  0  0
   58.5250   30.8400   46.6840 N   0  0  0  0  0  0  0  0  0  0  0  0
   58.3040   31.3900   45.4670 C   0  0  0  0  0  0  0  0  0  0  0  0
   58.3990   32.7760   45.2970 C   0  0  0  0  0  0  0  0  0  0  0  0
   58.1750   33.3440   44.0400 C   0  0  0  0  0  0  0  0  0  0  0  0
   57.8560   32.5280   42.9490 C   0  0  0  0  0  0  0  0  0  0  0  0
   57.7630   31.1430   43.1110 C   0  0  0  0  0  0  0  0  0  0  0  0
   57.9880   30.5620   44.3740 C   0  0  0  0  0  0  0  0  0  0  0  0
   57.9060   29.1760   44.5920 C   0  0  0  0  0  0  0  0  0  0  0  0
   57.6110   28.4060   43.6350 O   0  0  0  0  0  0  0  0  0  0  0  0
   56.7940   26.6150   46.1260 C   0  0  0  0  0  0  0  0  0  0  0  0
   56.7070   25.2340   46.3280 C   0  0  0  0  0  0  0  0  0  0  0  0
   57.8010   21.0990   46.0468 H   0  0  0  0  0  0  0  0  0  0  0  0
   56.9280   22.2626   44.9930 H   0  0  0  0  0  0  0  0  0  0  0  0
   58.7238   22.2235   44.9930 H   0  0  0  0  0  0  0  0  0  0  0  0
   60.0436   24.4980   46.4859 H   0  0  0  0  0  0  0  0  0  0  0  0
   60.1970   26.9557   46.1182 H   0  0  0  0  0  0  0  0  0  0  0  0
   58.4682   31.2613   48.7544 H   0  0  0  0  0  0  0  0  0  0  0  0
   58.8245   30.4689   50.3450 H   0  0  0  0  0  0  0  0  0  0  0  0
   62.6774   33.5033   49.2616 H   0  0  0  0  0  0  0  0  0  0  0  0
   62.9208   31.7081   48.9738 H   0  0  0  0  0  0  0  0  0  0  0  0
   63.4422   33.5411   47.1048 H   0  0  0  0  0  0  0  0  0  0  0  0
   62.7645   31.8702   46.7556 H   0  0  0  0  0  0  0  0  0  0  0  0
   61.7513   33.8542   45.4907 H   0  0  0  0  0  0  0  0  0  0  0  0
   60.6447   32.6633   46.3656 H   0  0  0  0  0  0  0  0  0  0  0  0
   61.3991   35.1813   47.7650 H   0  0  0  0  0  0  0  0  0  0  0  0
   60.1881   35.2359   46.3903 H   0  0  0  0  0  0  0  0  0  0  0  0
   58.9648   35.0591   48.4248 H   0  0  0  0  0  0  0  0  0  0  0  0
   58.9265   33.4455   47.5494 H   0  0  0  0  0  0  0  0  0  0  0  0
   60.5214   34.1618   50.0350 H   0  0  0  0  0  0  0  0  0  0  0  0
   59.1265   33.0099   49.8782 H   0  0  0  0  0  0  0  0  0  0  0  0
   58.6502   33.4188   46.1536 H   0  0  0  0  0  0  0  0  0  0  0  0
   58.2495   34.4335   43.9081 H   0  0  0  0  0  0  0  0  0  0  0  0
   57.6779   32.9779   41.9611 H   0  0  0  0  0  0  0  0  0  0  0  0
   57.5135   30.5053   42.2501 H   0  0  0  0  0  0  0  0  0  0  0  0
   55.8761   27.2119   46.0208 H   0  0  0  0  0  0  0  0  0  0  0  0
   55.7210   24.7496   46.3848 H   0  0  0  0  0  0  0  0  0  0  0  0
  1  2  1  0
  2  3  1  0
  3  4  2  0
  4  5  1  0
  5  6  2  0
  6  7  1  0
  7  8  1  0
  8  9  1  0
  9 10  1  0
 10 11  1  0
 11 12  2  0
 11 13  1  0
 13 14  1  0
 14 15  1  0
 15 16  1  0
 16 17  1  0
 17 18  1  0
 18 19  1  0
  8 20  2  0
 20 21  1  0
 21 22  2  0
 22 23  1  0
 23 24  2  0
 24 25  1  0
 25 26  2  0
 26 27  1  0
 27 28  2  0
  6 29  1  0
 29 30  2  0
 30  3  1  0
 27  7  1  0
 19 13  1  0
 26 21  1  0
  1 31  1  0
  1 32  1  0
  1 33  1  0
  4 34  1  0
  5 35  1  0
 10 36  1  0
 10 37  1  0
 14 38  1  0
 14 39  1  0
 15 40  1  0
 15 41  1  0
 16 42  1  0
 16 43  1  0
 17 44  1  0
 17 45  1  0
 18 46  1  0
 18 47  1  0
 19 48  1  0
 19 49  1  0
 22 50  1  0
 23 51  1  0
 24 52  1  0
 25 53  1  0
 29 54  1  0
 30 55  1  0
M  END
>  <UniqueID>  (18) 
16

>  <SMILES>  (18) 
COc1ccc(-n2c(SCC(=O)N3CCCCCC3)nc3ccccc3c2=O)cc1

>  <Energy>  (18) 
72.72974269063438

>  <Genealogy>  (18) 
COc1ccc(-n2c(SCC(=O)N3CCCCCC3)nc3ccccc3c2=O)cc1 (3D coordinates assigned)
COc1ccc(-n2c(SCC(=O)N3CCCCCC3)nc3ccccc3c2=O)cc1 (nonaromatic ring conformer: 72.72974269063438 kcal/mol)

>  <smiles>  (18) 
COc1ccc(-n2c(SCC(=O)N3CCCCCC3)nc3ccccc3c2=O)cc1

>  <score_type>  (18) 
oracle

>  <origin>  (18) 
adg

>  <m_score__min__energy>  (18) 
-6.2999999999999998

>  <m_primary>  (18) 
energy

$$$$
18:0
     RDKit          3D

 54 56  0  0  0  0  0  0  0  0999 V2000
   57.4490   33.8149   43.0891 H   0  0  0  0  0  0  0  0  0  0  0  0
   57.9760   33.1110   43.7500 C   0  0  0  0  0  0  0  0  0  0  0  0
   58.1370   31.8500   43.3240 C   0  0  0  0  0  0  0  0  0  0  0  0
   58.7422   31.6597   42.4254 H   0  0  0  0  0  0  0  0  0  0  0  0
   57.5200   30.7090   44.0340 C   0  0  0  0  0  0  0  0  0  0  0  0
   56.1590   30.4640   43.8070 C   0  0  0  0  0  0  0  0  0  0  0  0
   55.5821   31.1320   43.1505 H   0  0  0  0  0  0  0  0  0  0  0  0
   55.5360   29.3740   44.4130 C   0  0  0  0  0  0  0  0  0  0  0  0
   54.4709   29.1764   44.2220 H   0  0  0  0  0  0  0  0  0  0  0  0
   56.2370   28.5560   45.2370 N   0  0  0  0  0  0  0  0  0  0  0  0
   57.5510   28.7700   45.5120 C   0  0  0  0  0  0  0  0  0  0  0  0
   58.2210   27.9100   46.3890 C   0  0  0  0  0  0  0  0  0  0  0  0
   57.6907   27.0512   46.8263 H   0  0  0  0  0  0  0  0  0  0  0  0
   59.5600   28.1380   46.7110 C   0  0  0  0  0  0  0  0  0  0  0  0
   60.0854   27.4535   47.3932 H   0  0  0  0  0  0  0  0  0  0  0  0
   60.2330   29.2340   46.1680 C   0  0  0  0  0  0  0  0  0  0  0  0
   61.2845   29.4170   46.4342 H   0  0  0  0  0  0  0  0  0  0  0  0
   59.5780   30.1000   45.2880 C   0  0  0  0  0  0  0  0  0  0  0  0
   60.1139   30.9667   44.8736 H   0  0  0  0  0  0  0  0  0  0  0  0
   58.2330   29.8690   44.9280 C   0  0  0  0  0  0  0  0  0  0  0  0
   58.4640   33.6170   45.0570 C   0  0  0  0  0  0  0  0  0  0  0  0
   59.4340   34.6320   45.1690 C   0  0  0  0  0  0  0  0  0  0  0  0
   59.8575   35.0846   44.2603 H   0  0  0  0  0  0  0  0  0  0  0  0
   59.8630   35.0690   46.4260 C   0  0  0  0  0  0  0  0  0  0  0  0
   60.6211   35.8627   46.4988 H   0  0  0  0  0  0  0  0  0  0  0  0
   59.3330   34.5020   47.5960 C   0  0  0  0  0  0  0  0  0  0  0  0
   59.8000   34.9320   48.8900 N   0  0  0  0  0  0  0  0  0  0  0  0
   60.7600   35.3380   48.7960 H   0  0  0  0  0  0  0  0  0  0  0  0
   59.1710   35.6840   49.2590 H   0  0  0  0  0  0  0  0  0  0  0  0
   59.8150   33.7990   49.8260 C   0  0  0  0  0  0  0  0  0  0  0  0
   59.0083   33.1015   49.5565 H   0  0  0  0  0  0  0  0  0  0  0  0
   59.6699   34.1893   50.8441 H   0  0  0  0  0  0  0  0  0  0  0  0
   61.1700   33.0450   49.7810 C   0  0  0  0  0  0  0  0  0  0  0  0
   60.9826   32.0202   49.4279 H   0  0  0  0  0  0  0  0  0  0  0  0
   61.5826   33.0769   50.8002 H   0  0  0  0  0  0  0  0  0  0  0  0
   62.1840   33.6650   48.8920 N   0  0  0  0  0  0  0  0  0  0  0  0
   62.3460   32.9680   47.5960 C   0  0  0  0  0  0  0  0  0  0  0  0
   61.3514   32.7344   47.1883 H   0  0  0  0  0  0  0  0  0  0  0  0
   62.9231   32.0473   47.7672 H   0  0  0  0  0  0  0  0  0  0  0  0
   63.1050   33.8320   46.5910 C   0  0  0  0  0  0  0  0  0  0  0  0
   63.7376   34.5521   47.1306 H   0  0  0  0  0  0  0  0  0  0  0  0
   63.7368   33.1903   45.9593 H   0  0  0  0  0  0  0  0  0  0  0  0
   62.3873   34.3758   45.9593 H   0  0  0  0  0  0  0  0  0  0  0  0
   63.4800   33.8770   49.5760 C   0  0  0  0  0  0  0  0  0  0  0  0
   64.0035   34.7246   49.1096 H   0  0  0  0  0  0  0  0  0  0  0  0
   63.2960   34.0910   50.6392 H   0  0  0  0  0  0  0  0  0  0  0  0
   64.3430   32.6250   49.4600 C   0  0  0  0  0  0  0  0  0  0  0  0
   64.5953   32.2590   50.4662 H   0  0  0  0  0  0  0  0  0  0  0  0
   63.7886   31.8467   48.9151 H   0  0  0  0  0  0  0  0  0  0  0  0
   65.2676   32.8662   48.9151 H   0  0  0  0  0  0  0  0  0  0  0  0
   58.3880   33.4690   47.4870 C   0  0  0  0  0  0  0  0  0  0  0  0
   57.9836   33.0000   48.3961 H   0  0  0  0  0  0  0  0  0  0  0  0
   57.9580   33.0330   46.2300 C   0  0  0  0  0  0  0  0  0  0  0  0
   57.2158   32.2243   46.1590 H   0  0  0  0  0  0  0  0  0  0  0  0
  1  2  1  0
  2  3  2  0
  3  4  1  0
  3  5  1  0
  5  6  2  0
  6  7  1  0
  6  8  1  0
  8  9  1  0
  8 10  2  0
 10 11  1  0
 11 12  2  0
 12 13  1  0
 12 14  1  0
 14 15  1  0
 14 16  2  0
 16 17  1  0
 16 18  1  0
 18 19  1  0
 18 20  2  0
  2 21  1  0
 21 22  2  0
 22 23  1  0
 22 24  1  0
 24 25  1  0
 24 26  2  0
 26 27  1  0
 27 28  1  0
 27 29  1  0
 27 30  1  0
 30 31  1  0
 30 32  1  0
 30 33  1  0
 33 34  1  0
 33 35  1  0
 33 36  1  0
 36 37  1  0
 37 38  1  0
 37 39  1  0
 37 40  1  0
 40 41  1  0
 40 42  1  0
 40 43  1  0
 36 44  1  0
 44 45  1  0
 44 46  1  0
 44 47  1  0
 47 48  1  0
 47 49  1  0
 47 50  1  0
 26 51  1  0
 51 52  1  0
 51 53  2  0
 53 54  1  0
 20  5  1  0
 53 21  1  0
 20 11  1  0
M  CHG  1  27   1
M  END
>  <UniqueID>  (19) 
17

>  <SMILES>  (19) 
CCN(CC)CC[NH2+]c1ccc(/C=C/c2ccnc3ccccc23)cc1

>  <Energy>  (19) 
71.66913035673505

>  <Genealogy>  (19) 
CCN(CC)CC[NH2+]c1ccc(C=Cc2ccnc3ccccc23)cc1 (protonated)
CCN(CC)CC[NH2+]c1ccc(/C=C/c2ccnc3ccccc23)cc1 (cis-trans isomerization)
CCN(CC)CC[NH2+]c1ccc(/C=C/c2ccnc3ccccc23)cc1 (3D coordinates assigned)
CCN(CC)CC[NH2+]c1ccc(/C=C/c2ccnc3ccccc23)cc1 (optimized conformer: 71.66913035673505 kcal/mol)

>  <smiles>  (19) 
CCN(CC)CCNc1ccc(C=Cc2ccnc3ccccc23)cc1

>  <score_type>  (19) 
oracle

>  <origin>  (19) 
adg

>  <m_score__min__energy>  (19) 
-6.8700000000000001

>  <m_primary>  (19) 
energy

$$$$
19:0
     RDKit          3D

 54 57  0  0  0  0  0  0  0  0999 V2000
   58.2430   33.0880   43.6290 C   0  0  0  0  0  0  0  0  0  0  0  0
   57.4110   34.0420   44.4840 C   0  0  0  0  0  0  0  0  0  0  0  0
   58.0090   34.2220   45.8240 N   0  0  0  0  0  0  0  0  0  0  0  0
   59.4430   34.6000   45.8180 C   0  0  0  0  0  0  0  0  0  0  0  0
   60.0120   34.9570   47.2000 C   0  0  0  0  0  0  0  0  0  0  0  0
   57.6280   33.2170   46.8460 C   0  0  0  0  0  0  0  0  0  0  0  0
   58.2470   31.8530   46.6370 C   0  0  0  0  0  0  0  0  0  0  0  0
   59.3300   31.2680   47.2980 C   0  0  0  0  0  0  0  0  0  0  0  0
   60.2370   31.9010   48.2710 C   0  0  0  0  0  0  0  0  0  0  0  0
   59.7420   32.4670   49.4580 C   0  0  0  0  0  0  0  0  0  0  0  0
   60.6150   33.0780   50.3630 C   0  0  0  0  0  0  0  0  0  0  0  0
   61.9820   33.1450   50.0820 C   0  0  0  0  0  0  0  0  0  0  0  0
   62.4770   32.6120   48.8890 C   0  0  0  0  0  0  0  0  0  0  0  0
   61.6070   32.0000   47.9820 C   0  0  0  0  0  0  0  0  0  0  0  0
   59.4710   29.9740   46.9100 N   0  0  0  0  0  0  0  0  0  0  0  0
   58.4920   29.8050   45.9990 C   0  0  0  0  0  0  0  0  0  0  0  0
   58.1810   28.6290   45.3100 C   0  0  0  0  0  0  0  0  0  0  0  0
   58.9290   27.4130   45.4900 N   0  0  0  0  0  0  0  0  0  0  0  0
   58.3400   26.1140   45.1500 C   0  0  0  0  0  0  0  0  0  0  0  0
   58.9460   25.0290   46.0450 C   0  0  0  0  0  0  0  0  0  0  0  0
   60.3600   25.0620   45.9840 O   0  0  0  0  0  0  0  0  0  0  0  0
   60.8360   26.2790   46.5310 C   0  0  0  0  0  0  0  0  0  0  0  0
   60.3800   27.4730   45.6840 C   0  0  0  0  0  0  0  0  0  0  0  0
   57.0830   28.6780   44.4300 C   0  0  0  0  0  0  0  0  0  0  0  0
   56.3580   29.8740   44.2790 C   0  0  0  0  0  0  0  0  0  0  0  0
   56.7150   30.9780   44.9920 N   0  0  0  0  0  0  0  0  0  0  0  0
   57.7560   30.9090   45.8180 N   0  0  0  0  0  0  0  0  0  0  0  0
   58.8242   32.4215   44.2832 H   0  0  0  0  0  0  0  0  0  0  0  0
   57.5751   32.4874   42.9941 H   0  0  0  0  0  0  0  0  0  0  0  0
   58.9288   33.6681   42.9941 H   0  0  0  0  0  0  0  0  0  0  0  0
   57.3569   35.0190   43.9815 H   0  0  0  0  0  0  0  0  0  0  0  0
   56.4062   33.6117   44.6070 H   0  0  0  0  0  0  0  0  0  0  0  0
   60.0200   33.7538   45.4167 H   0  0  0  0  0  0  0  0  0  0  0  0
   59.5256   35.5070   45.2011 H   0  0  0  0  0  0  0  0  0  0  0  0
   59.3577   34.5465   47.9831 H   0  0  0  0  0  0  0  0  0  0  0  0
   61.0202   34.5293   47.3031 H   0  0  0  0  0  0  0  0  0  0  0  0
   60.0655   36.0509   47.3031 H   0  0  0  0  0  0  0  0  0  0  0  0
   57.9427   33.5911   47.8314 H   0  0  0  0  0  0  0  0  0  0  0  0
   56.5388   33.0846   46.7676 H   0  0  0  0  0  0  0  0  0  0  0  0
   58.6644   32.4292   49.6758 H   0  0  0  0  0  0  0  0  0  0  0  0
   60.2250   33.5067   51.2979 H   0  0  0  0  0  0  0  0  0  0  0  0
   62.6686   33.6174   50.8000 H   0  0  0  0  0  0  0  0  0  0  0  0
   63.5518   32.6740   48.6634 H   0  0  0  0  0  0  0  0  0  0  0  0
   61.9979   31.5941   47.0373 H   0  0  0  0  0  0  0  0  0  0  0  0
   57.2518   26.1526   45.3061 H   0  0  0  0  0  0  0  0  0  0  0  0
   58.5510   25.8802   44.0961 H   0  0  0  0  0  0  0  0  0  0  0  0
   58.6254   25.1971   47.0837 H   0  0  0  0  0  0  0  0  0  0  0  0
   58.5997   24.0461   45.6930 H   0  0  0  0  0  0  0  0  0  0  0  0
   60.4454   26.3920   47.5531 H   0  0  0  0  0  0  0  0  0  0  0  0
   61.9357   26.2541   46.5414 H   0  0  0  0  0  0  0  0  0  0  0  0
   60.6419   28.4087   46.1995 H   0  0  0  0  0  0  0  0  0  0  0  0
   60.8809   27.4389   44.7053 H   0  0  0  0  0  0  0  0  0  0  0  0
   56.7925   27.7823   43.8614 H   0  0  0  0  0  0  0  0  0  0  0  0
   55.5045   29.9174   43.5864 H   0  0  0  0  0  0  0  0  0  0  0  0
  1  2  1  0
  2  3  1  0
  3  4  1  0
  4  5  1  0
  3  6  1  0
  6  7  1  0
  7  8  2  0
  8  9  1  0
  9 10  2  0
 10 11  1  0
 11 12  2  0
 12 13  1  0
 13 14  2  0
  8 15  1  0
 15 16  2  0
 16 17  1  0
 17 18  1  0
 18 19  1  0
 19 20  1  0
 20 21  1  0
 21 22  1  0
 22 23  1  0
 17 24  2  0
 24 25  1  0
 25 26  2  0
 26 27  1  0
 27  7  1  0
 14  9  1  0
 27 16  1  0
 23 18  1  0
  1 28  1  0
  1 29  1  0
  1 30  1  0
  2 31  1  0
  2 32  1  0
  4 33  1  0
  4 34  1  0
  5 35  1  0
  5 36  1  0
  5 37  1  0
  6 38  1  0
  6 39  1  0
 10 40  1  0
 11 41  1  0
 12 42  1  0
 13 43  1  0
 14 44  1  0
 19 45  1  0
 19 46  1  0
 20 47  1  0
 20 48  1  0
 22 49  1  0
 22 50  1  0
 23 51  1  0
 23 52  1  0
 24 53  1  0
 25 54  1  0
M  END
>  <UniqueID>  (20) 
18

>  <SMILES>  (20) 
CCN(CC)Cc1c(-c2ccccc2)nc2c(N3CCOCC3)ccnn12

>  <Energy>  (20) 
107.51873638793333

>  <Genealogy>  (20) 
CCN(CC)Cc1c(-c2ccccc2)nc2c(N3CCOCC3)ccnn12 (3D coordinates assigned)
CCN(CC)Cc1c(-c2ccccc2)nc2c(N3CCOCC3)ccnn12 (nonaromatic ring conformer: 107.51873638793333 kcal/mol)

>  <smiles>  (20) 
CCN(CC)Cc1c(-c2ccccc2)nc2c(N3CCOCC3)ccnn12

>  <score_type>  (20) 
oracle

>  <origin>  (20) 
adg

>  <m_score__min__energy>  (20) 
-7.7199999999999998

>  <m_primary>  (20) 
energy

$$$$
20:0
     RDKit          3D

 59 62  0  0  0  0  0  0  0  0999 V2000
   59.6710   34.9830   46.5990 C   0  0  0  0  0  0  0  0  0  0  0  0
   59.3240   34.5810   45.2770 O   0  0  0  0  0  0  0  0  0  0  0  0
   58.6700   33.3810   44.9610 C   0  0  0  0  0  0  0  0  0  0  0  0
   58.4260   32.4650   45.9910 C   0  0  0  0  0  0  0  0  0  0  0  0
   57.7750   31.2570   45.7280 C   0  0  0  0  0  0  0  0  0  0  0  0
   57.3640   30.9470   44.4250 C   0  0  0  0  0  0  0  0  0  0  0  0
   56.5160   29.4360   44.1070 S   0  0  0  0  0  0  0  0  0  0  0  0
   55.1280   29.7190   43.6000 O   0  0  0  0  0  0  0  0  0  0  0  0
   57.2580   28.6680   43.0500 O   0  0  0  0  0  0  0  0  0  0  0  0
   56.4260   28.4760   45.5520 N   0  0  0  0  0  0  0  0  0  0  0  0
   57.3960   27.3860   45.4830 C   0  0  0  0  0  0  0  0  0  0  0  0
   58.0900   27.2340   46.8380 C   0  0  0  0  0  0  0  0  0  0  0  0
   58.9490   28.4200   47.2050 C   0  0  0  0  0  0  0  0  0  0  0  0
   58.7790   29.1740   48.3260 N   0  0  0  0  0  0  0  0  0  0  0  0
   59.7360   30.1120   48.2450 C   0  0  0  0  0  0  0  0  0  0  0  0
   60.0190   31.1280   49.1540 C   0  0  0  0  0  0  0  0  0  0  0  0
   61.0920   31.9960   48.8580 C   0  0  0  0  0  0  0  0  0  0  0  0
   61.4910   33.3100   49.9660 S   0  0  0  0  0  0  0  0  0  0  0  0
   60.8910   34.5880   49.4490 O   0  0  0  0  0  0  0  0  0  0  0  0
   60.8850   33.0240   51.3120 O   0  0  0  0  0  0  0  0  0  0  0  0
   63.2160   33.5110   50.1400 N   0  0  0  0  0  0  0  0  0  0  0  0
   63.5300   34.2100   51.3980 C   0  0  0  0  0  0  0  0  0  0  0  0
   65.0480   34.1800   51.6730 C   0  0  0  0  0  0  0  0  0  0  0  0
   65.7650   33.7490   50.5330 O   0  0  0  0  0  0  0  0  0  0  0  0
   65.4210   32.4080   50.2280 C   0  0  0  0  0  0  0  0  0  0  0  0
   63.8950   32.2090   50.0990 C   0  0  0  0  0  0  0  0  0  0  0  0
   61.8460   31.8090   47.6730 C   0  0  0  0  0  0  0  0  0  0  0  0
   61.5320   30.7700   46.7780 C   0  0  0  0  0  0  0  0  0  0  0  0
   60.4570   29.9390   47.1000 C   0  0  0  0  0  0  0  0  0  0  0  0
   59.9580   28.8880   46.4200 N   0  0  0  0  0  0  0  0  0  0  0  0
   60.4620   28.3160   45.1720 C   0  0  0  0  0  0  0  0  0  0  0  0
   57.6010   31.8610   43.3900 C   0  0  0  0  0  0  0  0  0  0  0  0
   58.2510   33.0710   43.6530 C   0  0  0  0  0  0  0  0  0  0  0  0
   59.1315   34.3580   47.3258 H   0  0  0  0  0  0  0  0  0  0  0  0
   60.7546   34.8638   46.7460 H   0  0  0  0  0  0  0  0  0  0  0  0
   59.3948   36.0376   46.7460 H   0  0  0  0  0  0  0  0  0  0  0  0
   58.7495   32.6982   47.0162 H   0  0  0  0  0  0  0  0  0  0  0  0
   57.5846   30.5472   46.5465 H   0  0  0  0  0  0  0  0  0  0  0  0
   56.8777   26.4495   45.2295 H   0  0  0  0  0  0  0  0  0  0  0  0
   58.1459   27.6110   44.7103 H   0  0  0  0  0  0  0  0  0  0  0  0
   57.3194   27.1078   47.6128 H   0  0  0  0  0  0  0  0  0  0  0  0
   58.7540   26.3599   46.7679 H   0  0  0  0  0  0  0  0  0  0  0  0
   58.0790   29.0580   49.0910 H   0  0  0  0  0  0  0  0  0  0  0  0
   59.4260   31.2502   50.0724 H   0  0  0  0  0  0  0  0  0  0  0  0
   63.1970   35.2557   51.3231 H   0  0  0  0  0  0  0  0  0  0  0  0
   63.0103   33.7028   52.2242 H   0  0  0  0  0  0  0  0  0  0  0  0
   65.3833   35.1913   51.9468 H   0  0  0  0  0  0  0  0  0  0  0  0
   65.2398   33.4729   52.4935 H   0  0  0  0  0  0  0  0  0  0  0  0
   65.8958   32.1288   49.2758 H   0  0  0  0  0  0  0  0  0  0  0  0
   65.7743   31.7738   51.0544 H   0  0  0  0  0  0  0  0  0  0  0  0
   63.6715   31.7110   49.1440 H   0  0  0  0  0  0  0  0  0  0  0  0
   63.5387   31.5882   50.9343 H   0  0  0  0  0  0  0  0  0  0  0  0
   62.6859   32.4835   47.4505 H   0  0  0  0  0  0  0  0  0  0  0  0
   62.1131   30.6175   45.8566 H   0  0  0  0  0  0  0  0  0  0  0  0
   61.1735   27.5086   45.3997 H   0  0  0  0  0  0  0  0  0  0  0  0
   59.6219   27.9108   44.5888 H   0  0  0  0  0  0  0  0  0  0  0  0
   60.9697   29.0984   44.5888 H   0  0  0  0  0  0  0  0  0  0  0  0
   57.2745   31.6259   42.3662 H   0  0  0  0  0  0  0  0  0  0  0  0
   58.4356   33.7831   42.8351 H   0  0  0  0  0  0  0  0  0  0  0  0
  1  2  1  0
  2  3  1  0
  3  4  2  0
  4  5  1  0
  5  6  2  0
  6  7  1  0
  7  8  2  0
  7  9  2  0
  7 10  1  0
 10 11  1  0
 11 12  1  0
 12 13  1  0
 13 14  2  0
 14 15  1  0
 15 16  2  0
 16 17  1  0
 17 18  1  0
 18 19  2  0
 18 20  2  0
 18 21  1  0
 21 22  1  0
 22 23  1  0
 23 24  1  0
 24 25  1  0
 25 26  1  0
 17 27  2  0
 27 28  1  0
 28 29  2  0
 29 30  1  0
 30 31  1  0
  6 32  1  0
 32 33  2  0
 33  3  1  0
 30 13  1  0
 29 15  1  0
 26 21  1  0
  1 34  1  0
  1 35  1  0
  1 36  1  0
  4 37  1  0
  5 38  1  0
 11 39  1  0
 11 40  1  0
 12 41  1  0
 12 42  1  0
 14 43  1  0
 16 44  1  0
 22 45  1  0
 22 46  1  0
 23 47  1  0
 23 48  1  0
 25 49  1  0
 25 50  1  0
 26 51  1  0
 26 52  1  0
 27 53  1  0
 28 54  1  0
 31 55  1  0
 31 56  1  0
 31 57  1  0
 32 58  1  0
 33 59  1  0
M  CHG  2  10  -1  14   1
M  END
>  <UniqueID>  (21) 
19

>  <SMILES>  (21) 
COc1ccc(S(=O)(=O)[N-]CCc2[nH+]c3cc(S(=O)(=O)N4CCOCC4)ccc3n2C)cc1

>  <Energy>  (21) 
103.25220978567098

>  <Genealogy>  (21) 
COc1ccc(S(=O)(=O)[N-]CCc2[nH+]c3cc(S(=O)(=O)N4CCOCC4)ccc3n2C)cc1 (protonated)
COc1ccc(S(=O)(=O)[N-]CCc2[nH+]c3cc(S(=O)(=O)N4CCOCC4)ccc3n2C)cc1 (3D coordinates assigned)
COc1ccc(S(=O)(=O)[N-]CCc2[nH+]c3cc(S(=O)(=O)N4CCOCC4)ccc3n2C)cc1 (nonaromatic ring conformer: 103.25220978567098 kcal/mol)

>  <smiles>  (21) 
COc1ccc(S(=O)(=O)NCCc2nc3cc(S(=O)(=O)N4CCOCC4)ccc3n2C)cc1

>  <score_type>  (21) 
oracle

>  <origin>  (21) 
adg

>  <m_score__min__energy>  (21) 
-9.0099999999999998

>  <m_primary>  (21) 
energy

$$$$
21:0
     RDKit          3D

 44 46  0  0  0  0  0  0  0  0999 V2000
   59.5850   35.0520   46.1100 C   0  0  0  0  0  0  0  0  0  0  0  0
   58.9630   34.4800   44.8380 C   0  0  0  0  0  0  0  0  0  0  0  0
   57.7310   33.6750   45.1520 C   0  0  0  0  0  0  0  0  0  0  0  0
   56.6670   34.2760   45.4690 O   0  0  0  0  0  0  0  0  0  0  0  0
   57.6950   32.2510   45.0090 N   0  0  0  0  0  0  0  0  0  0  0  0
   58.2680   31.2640   45.8770 C   0  0  0  0  0  0  0  0  0  0  0  0
   58.5020   31.5120   47.2390 C   0  0  0  0  0  0  0  0  0  0  0  0
   59.0560   30.5200   48.0490 C   0  0  0  0  0  0  0  0  0  0  0  0
   59.3290   29.2470   47.5310 C   0  0  0  0  0  0  0  0  0  0  0  0
   59.0200   28.9710   46.1860 C   0  0  0  0  0  0  0  0  0  0  0  0
   58.5180   29.9870   45.3620 C   0  0  0  0  0  0  0  0  0  0  0  0
   59.2700   27.5980   45.6220 C   0  0  0  0  0  0  0  0  0  0  0  0
   59.1540   26.5540   46.6550 N   0  0  0  0  0  0  0  0  0  0  0  0
   57.7610   26.3500   47.1130 C   0  0  0  0  0  0  0  0  0  0  0  0
   57.1080   25.2750   46.2840 C   0  0  0  0  0  0  0  0  0  0  0  0
   57.7990   24.0870   45.9930 C   0  0  0  0  0  0  0  0  0  0  0  0
   57.2170   23.1080   45.1810 C   0  0  0  0  0  0  0  0  0  0  0  0
   55.9430   23.3070   44.6520 C   0  0  0  0  0  0  0  0  0  0  0  0
   55.3860   22.3570   43.8630 F   0  0  0  0  0  0  0  0  0  0  0  0
   55.2410   24.4840   44.9350 C   0  0  0  0  0  0  0  0  0  0  0  0
   55.8160   25.4720   45.7470 C   0  0  0  0  0  0  0  0  0  0  0  0
   55.1090   26.6510   46.0190 O   0  0  0  0  0  0  0  0  0  0  0  0
   60.0940   26.8080   47.7670 C   0  0  0  0  0  0  0  0  0  0  0  0
   59.8770   28.1830   48.4480 C   0  0  0  0  0  0  0  0  0  0  0  0
   59.0985   34.6046   46.9893 H   0  0  0  0  0  0  0  0  0  0  0  0
   60.6602   34.8206   46.1285 H   0  0  0  0  0  0  0  0  0  0  0  0
   59.4443   36.1428   46.1285 H   0  0  0  0  0  0  0  0  0  0  0  0
   58.6897   35.3084   44.1678 H   0  0  0  0  0  0  0  0  0  0  0  0
   59.6986   33.8193   44.3560 H   0  0  0  0  0  0  0  0  0  0  0  0
   58.2477   32.4919   47.6691 H   0  0  0  0  0  0  0  0  0  0  0  0
   59.2804   30.7392   49.1033 H   0  0  0  0  0  0  0  0  0  0  0  0
   58.3186   29.7789   44.3004 H   0  0  0  0  0  0  0  0  0  0  0  0
   58.5334   27.3987   44.8298 H   0  0  0  0  0  0  0  0  0  0  0  0
   60.2949   27.5729   45.2234 H   0  0  0  0  0  0  0  0  0  0  0  0
   57.7642   26.0457   48.1701 H   0  0  0  0  0  0  0  0  0  0  0  0
   57.1989   27.2889   47.0014 H   0  0  0  0  0  0  0  0  0  0  0  0
   58.8053   23.9255   46.4068 H   0  0  0  0  0  0  0  0  0  0  0  0
   57.7652   22.1804   44.9598 H   0  0  0  0  0  0  0  0  0  0  0  0
   54.2340   24.6347   44.5188 H   0  0  0  0  0  0  0  0  0  0  0  0
   54.3960   26.6980   46.7450 H   0  0  0  0  0  0  0  0  0  0  0  0
   59.9631   26.0192   48.5224 H   0  0  0  0  0  0  0  0  0  0  0  0
   61.1090   26.8099   47.3430 H   0  0  0  0  0  0  0  0  0  0  0  0
   59.1709   28.0480   49.2806 H   0  0  0  0  0  0  0  0  0  0  0  0
   60.8662   28.5309   48.7804 H   0  0  0  0  0  0  0  0  0  0  0  0
  1  2  1  0
  2  3  1  0
  3  4  2  0
  3  5  1  0
  5  6  1  0
  6  7  2  0
  7  8  1  0
  8  9  2  0
  9 10  1  0
 10 11  2  0
 10 12  1  0
 12 13  1  0
 13 14  1  0
 14 15  1  0
 15 16  2  0
 16 17  1  0
 17 18  2  0
 18 19  1  0
 18 20  1  0
 20 21  2  0
 21 22  1  0
 13 23  1  0
 23 24  1  0
 11  6  1  0
 21 15  1  0
 24  9  1  0
  1 25  1  0
  1 26  1  0
  1 27  1  0
  2 28  1  0
  2 29  1  0
  7 30  1  0
  8 31  1  0
 11 32  1  0
 12 33  1  0
 12 34  1  0
 14 35  1  0
 14 36  1  0
 16 37  1  0
 17 38  1  0
 20 39  1  0
 22 40  1  0
 23 41  1  0
 23 42  1  0
 24 43  1  0
 24 44  1  0
M  CHG  1   5  -1
M  END
>  <UniqueID>  (22) 
20

>  <SMILES>  (22) 
CCC(=O)[N-]c1ccc2c(c1)CN(Cc1ccc(F)cc1O)CC2

>  <Energy>  (22) 
55.17202460160447

>  <Genealogy>  (22) 
CCC(=O)[N-]c1ccc2c(c1)CN(Cc1ccc(F)cc1O)CC2 (protonated)
CCC(=O)[N-]c1ccc2c(c1)CN(Cc1ccc(F)cc1O)CC2 (3D coordinates assigned)
CCC(=O)[N-]c1ccc2c(c1)CN(Cc1ccc(F)cc1O)CC2 (nonaromatic ring conformer: 55.17202460160447 kcal/mol)

>  <smiles>  (22) 
CCC(=O)Nc1ccc2c(c1)CN(Cc1ccc(F)cc1O)CC2

>  <score_type>  (22) 
oracle

>  <origin>  (22) 
adg

>  <m_score__min__energy>  (22) 
-9.25

>  <m_primary>  (22) 
energy

$$$$
22:0
     RDKit          3D

 49 52  0  0  0  0  0  0  0  0999 V2000
   54.7340   25.1520   45.6150 C   0  0  0  0  0  0  0  0  0  0  0  0
   55.1950   26.4440   45.9950 O   0  0  0  0  0  0  0  0  0  0  0  0
   56.5430   26.8290   46.0140 C   0  0  0  0  0  0  0  0  0  0  0  0
   56.9930   27.7260   45.0380 C   0  0  0  0  0  0  0  0  0  0  0  0
   58.3270   28.1420   45.0150 C   0  0  0  0  0  0  0  0  0  0  0  0
   59.2330   27.6640   45.9720 C   0  0  0  0  0  0  0  0  0  0  0  0
   60.6640   28.1350   45.9570 C   0  0  0  0  0  0  0  0  0  0  0  0
   60.9270   28.9570   47.0780 O   0  0  0  0  0  0  0  0  0  0  0  0
   60.4030   30.2640   46.8970 C   0  0  2  0  0  0  0  0  0  0  0  0
   61.4870   31.2910   47.2880 C   0  0  0  0  0  0  0  0  0  0  0  0
   61.3540   31.7530   48.7480 C   0  0  0  0  0  0  0  0  0  0  0  0
   60.0140   32.3200   49.0640 N   0  0  0  0  0  0  0  0  0  0  0  0
   60.0260   33.7720   49.3090 C   0  0  0  0  0  0  0  0  0  0  0  0
   60.2610   34.5490   48.0150 C   0  0  0  0  0  0  0  0  0  0  0  0
   59.3170   34.1020   46.9340 C   0  0  0  0  0  0  0  0  0  0  0  0
   59.1020   34.9480   45.8340 C   0  0  0  0  0  0  0  0  0  0  0  0
   58.2190   34.5770   44.8200 C   0  0  0  0  0  0  0  0  0  0  0  0
   57.5350   33.3660   44.9000 C   0  0  0  0  0  0  0  0  0  0  0  0
   57.7520   32.5070   45.9800 C   0  0  0  0  0  0  0  0  0  0  0  0
   58.6800   32.8380   46.9880 C   0  0  0  0  0  0  0  0  0  0  0  0
   58.8990   31.8940   48.1750 C   0  0  1  0  0  0  0  0  0  0  0  0
   59.1210   30.4280   47.7430 C   0  0  0  0  0  0  0  0  0  0  0  0
   58.7870   26.7670   46.9550 C   0  0  0  0  0  0  0  0  0  0  0  0
   57.4530   26.3500   46.9770 C   0  0  0  0  0  0  0  0  0  0  0  0
   54.5222   24.5584   46.5166 H   0  0  0  0  0  0  0  0  0  0  0  0
   53.8159   25.2514   45.0174 H   0  0  0  0  0  0  0  0  0  0  0  0
   55.5077   24.6477   45.0174 H   0  0  0  0  0  0  0  0  0  0  0  0
   56.2902   28.1069   44.2823 H   0  0  0  0  0  0  0  0  0  0  0  0
   58.6675   28.8475   44.2427 H   0  0  0  0  0  0  0  0  0  0  0  0
   61.3327   27.2620   45.9835 H   0  0  0  0  0  0  0  0  0  0  0  0
   60.8371   28.7177   45.0402 H   0  0  0  0  0  0  0  0  0  0  0  0
   60.1295   30.4329   45.8450 H   0  0  0  0  0  0  0  0  0  0  0  0
   62.4764   30.8301   47.1516 H   0  0  0  0  0  0  0  0  0  0  0  0
   61.3623   32.1735   46.6433 H   0  0  0  0  0  0  0  0  0  0  0  0
   61.5321   30.8894   49.4056 H   0  0  0  0  0  0  0  0  0  0  0  0
   62.0929   32.5524   48.9065 H   0  0  0  0  0  0  0  0  0  0  0  0
   59.0578   34.0717   49.7366 H   0  0  0  0  0  0  0  0  0  0  0  0
   60.8456   34.0007   50.0061 H   0  0  0  0  0  0  0  0  0  0  0  0
   60.1054   35.6209   48.2067 H   0  0  0  0  0  0  0  0  0  0  0  0
   61.2910   34.3611   47.6778 H   0  0  0  0  0  0  0  0  0  0  0  0
   59.6332   35.9092   45.7716 H   0  0  0  0  0  0  0  0  0  0  0  0
   58.0627   35.2408   43.9569 H   0  0  0  0  0  0  0  0  0  0  0  0
   56.8221   33.0855   44.1106 H   0  0  0  0  0  0  0  0  0  0  0  0
   57.1926   31.5620   46.0445 H   0  0  0  0  0  0  0  0  0  0  0  0
   57.9610   31.9527   48.7466 H   0  0  0  0  0  0  0  0  0  0  0  0
   59.2063   29.8012   48.6429 H   0  0  0  0  0  0  0  0  0  0  0  0
   58.2639   30.1213   47.1256 H   0  0  0  0  0  0  0  0  0  0  0  0
   59.4907   26.3903   47.7119 H   0  0  0  0  0  0  0  0  0  0  0  0
   57.1123   25.6449   47.7495 H   0  0  0  0  0  0  0  0  0  0  0  0
  1  2  1  0
  2  3  1  0
  3  4  2  0
  4  5  1  0
  5  6  2  0
  6  7  1  0
  7  8  1  0
  8  9  1  0
  9 10  1  0
 10 11  1  0
 11 12  1  0
 12 13  1  0
 13 14  1  0
 14 15  1  0
 15 16  2  0
 16 17  1  0
 17 18  2  0
 18 19  1  0
 19 20  2  0
 20 21  1  0
 21 22  1  0
  6 23  1  0
 23 24  2  0
 24  3  1  0
 22  9  1  0
 21 12  1  0
 20 15  1  0
  1 25  1  0
  1 26  1  0
  1 27  1  0
  4 28  1  0
  5 29  1  0
  7 30  1  0
  7 31  1  0
  9 32  1  6
 10 33  1  0
 10 34  1  0
 11 35  1  0
 11 36  1  0
 13 37  1  0
 13 38  1  0
 14 39  1  0
 14 40  1  0
 16 41  1  0
 17 42  1  0
 18 43  1  0
 19 44  1  0
 21 45  1  1
 22 46  1  0
 22 47  1  0
 23 48  1  0
 24 49  1  0
M  END
>  <UniqueID>  (23) 
21

>  <SMILES>  (23) 
COc1ccc(CO[C@@H]2CCN3CCc4ccccc4[C@H]3C2)cc1

>  <Energy>  (23) 
68.51389622678279

>  <Genealogy>  (23) 
COc1ccc(CO[C@@H]2CCN3CCc4ccccc4[C@H]3C2)cc1 (chirality)
COc1ccc(CO[C@@H]2CCN3CCc4ccccc4[C@H]3C2)cc1 (3D coordinates assigned)
COc1ccc(CO[C@@H]2CCN3CCc4ccccc4[C@H]3C2)cc1 (nonaromatic ring conformer: 68.51389622678279 kcal/mol)

>  <smiles>  (23) 
COc1ccc(COC2CCN3CCc4ccccc4C3C2)cc1

>  <score_type>  (23) 
oracle

>  <origin>  (23) 
adg

>  <m_score__min__energy>  (23) 
-8.7100000000000009

>  <m_primary>  (23) 
energy

$$$$
23:0
     RDKit          3D

 41 42  0  0  0  0  0  0  0  0999 V2000
   55.4210   29.7290   43.6330 C   0  0  0  0  0  0  0  0  0  0  0  0
   56.0930   29.6920   44.8880 O   0  0  0  0  0  0  0  0  0  0  0  0
   57.3440   29.0920   45.1050 C   0  0  0  0  0  0  0  0  0  0  0  0
   57.4660   27.7310   45.4490 C   0  0  0  0  0  0  0  0  0  0  0  0
   58.7250   27.1650   45.6620 C   0  0  0  0  0  0  0  0  0  0  0  0
   59.8740   27.9450   45.5350 C   0  0  0  0  0  0  0  0  0  0  0  0
   59.7700   29.2930   45.1950 C   0  0  0  0  0  0  0  0  0  0  0  0
   58.5100   29.8780   44.9760 C   0  0  0  0  0  0  0  0  0  0  0  0
   58.4170   31.3520   44.6460 C   0  0  0  0  0  0  0  0  0  0  0  0
   57.5430   32.0780   45.5860 N   0  0  0  0  0  0  0  0  0  0  0  0
   57.2470   33.4640   45.1580 C   0  0  0  0  0  0  0  0  0  0  0  0
   58.4290   34.4280   45.3920 C   0  0  0  0  0  0  0  0  0  0  0  0
   58.8760   34.4800   46.8550 C   0  0  0  0  0  0  0  0  0  0  0  0
   59.3640   33.2040   47.2620 O   0  0  0  0  0  0  0  0  0  0  0  0
   60.7150   32.8270   47.2390 C   0  0  0  0  0  0  0  0  0  0  0  0
   61.6670   33.7680   46.8330 C   0  0  0  0  0  0  0  0  0  0  0  0
   63.0210   33.4270   46.7980 C   0  0  0  0  0  0  0  0  0  0  0  0
   63.4100   32.1390   47.1690 C   0  0  0  0  0  0  0  0  0  0  0  0
   62.4770   31.2320   47.5620 N   0  0  0  0  0  0  0  0  0  0  0  0
   61.1520   31.5400   47.6040 C   0  0  0  0  0  0  0  0  0  0  0  0
   54.3354   29.7888   43.8000 H   0  0  0  0  0  0  0  0  0  0  0  0
   55.7536   30.6102   43.0648 H   0  0  0  0  0  0  0  0  0  0  0  0
   55.6549   28.8166   43.0648 H   0  0  0  0  0  0  0  0  0  0  0  0
   56.5636   27.1101   45.5505 H   0  0  0  0  0  0  0  0  0  0  0  0
   58.8104   26.1017   45.9305 H   0  0  0  0  0  0  0  0  0  0  0  0
   60.8639   27.4959   45.7034 H   0  0  0  0  0  0  0  0  0  0  0  0
   60.6799   29.9034   45.0973 H   0  0  0  0  0  0  0  0  0  0  0  0
   59.4254   31.7893   44.6897 H   0  0  0  0  0  0  0  0  0  0  0  0
   57.9836   31.4465   43.6394 H   0  0  0  0  0  0  0  0  0  0  0  0
   57.9550   32.0470   46.5460 H   0  0  0  0  0  0  0  0  0  0  0  0
   56.6370   31.5530   45.6320 H   0  0  0  0  0  0  0  0  0  0  0  0
   57.0069   33.4565   44.0846 H   0  0  0  0  0  0  0  0  0  0  0  0
   56.4017   33.8238   45.7630 H   0  0  0  0  0  0  0  0  0  0  0  0
   59.2788   34.0968   44.7771 H   0  0  0  0  0  0  0  0  0  0  0  0
   58.0911   35.4374   45.1145 H   0  0  0  0  0  0  0  0  0  0  0  0
   59.6753   35.2276   46.9652 H   0  0  0  0  0  0  0  0  0  0  0  0
   58.0174   34.7556   47.4850 H   0  0  0  0  0  0  0  0  0  0  0  0
   61.3484   34.7794   46.5405 H   0  0  0  0  0  0  0  0  0  0  0  0
   63.7724   34.1654   46.4815 H   0  0  0  0  0  0  0  0  0  0  0  0
   64.4731   31.8575   47.1433 H   0  0  0  0  0  0  0  0  0  0  0  0
   60.4217   30.7820   47.9236 H   0  0  0  0  0  0  0  0  0  0  0  0
  1  2  1  0
  2  3  1  0
  3  4  2  0
  4  5  1  0
  5  6  2  0
  6  7  1  0
  7  8  2  0
  8  9  1  0
  9 10  1  0
 10 11  1  0
 11 12  1  0
 12 13  1  0
 13 14  1  0
 14 15  1  0
 15 16  2  0
 16 17  1  0
 17 18  2  0
 18 19  1  0
 19 20  2  0
  8  3  1  0
 20 15  1  0
  1 21  1  0
  1 22  1  0
  1 23  1  0
  4 24  1  0
  5 25  1  0
  6 26  1  0
  7 27  1  0
  9 28  1  0
  9 29  1  0
 10 30  1  0
 10 31  1  0
 11 32  1  0
 11 33  1  0
 12 34  1  0
 12 35  1  0
 13 36  1  0
 13 37  1  0
 16 38  1  0
 17 39  1  0
 18 40  1  0
 20 41  1  0
M  CHG  1  10   1
M  END
>  <UniqueID>  (24) 
22

>  <SMILES>  (24) 
COc1ccccc1C[NH2+]CCCOc1cccnc1

>  <Energy>  (24) 
40.072311830933984

>  <Genealogy>  (24) 
COc1ccccc1C[NH2+]CCCOc1cccnc1 (protonated)
COc1ccccc1C[NH2+]CCCOc1cccnc1 (3D coordinates assigned)
COc1ccccc1C[NH2+]CCCOc1cccnc1 (optimized conformer: 40.072311830933984 kcal/mol)

>  <smiles>  (24) 
COc1ccccc1CNCCCOc1cccnc1

>  <score_type>  (24) 
oracle

>  <origin>  (24) 
adg

>  <m_score__min__energy>  (24) 
-4.0300000000000002

>  <m_primary>  (24) 
energy

$$$$
24:0
     RDKit          3D

 42 44  0  0  1  0  0  0  0  0999 V2000
   56.5220   26.3460   46.0070 C   0  0  0  0  0  0  0  0  0  0  0  0
   55.8960   27.5720   45.6130 O   0  0  0  0  0  0  0  0  0  0  0  0
   56.6430   28.6710   45.2100 C   0  0  0  0  0  0  0  0  0  0  0  0
   56.3240   29.4060   44.0700 C   0  0  0  0  0  0  0  0  0  0  0  0
   57.1030   30.4870   43.7190 C   0  0  0  0  0  0  0  0  0  0  0  0
   58.2080   30.8760   44.4700 C   0  0  0  0  0  0  0  0  0  0  0  0
   58.4890   30.1220   45.5910 C   0  0  0  0  0  0  0  0  0  0  0  0
   59.6410   30.5050   46.3990 C   0  0  0  0  0  0  0  0  0  0  0  0
   60.2990   29.7530   47.3130 N   0  0  0  0  0  0  0  0  0  0  0  0
   61.2920   30.4620   47.8340 N   0  0  0  0  0  0  0  0  0  0  0  0
   61.2520   31.6640   47.2390 C   0  0  0  0  0  0  0  0  0  0  0  0
   62.0330   32.6790   47.4350 N   0  0  0  0  0  0  0  0  0  0  0  0
   61.5310   34.0500   47.2530 C   0  0  0  0  0  0  0  0  0  0  0  0
   60.2380   34.2010   47.9880 C   0  0  0  0  0  0  0  0  0  0  0  0
   59.1490   34.5060   47.1170 N   0  0  0  0  0  0  0  0  0  0  0  0
   59.6450   34.9250   45.8430 C   0  0  0  0  0  0  0  0  0  0  0  0
   58.8740   34.2380   44.7380 C   0  0  0  0  0  0  0  0  0  0  0  0
   57.5230   34.5520   44.9780 O   0  0  0  0  0  0  0  0  0  0  0  0
   57.1240   33.6920   45.9940 C   0  0  0  0  0  0  0  0  0  0  0  0
   58.1190   33.5180   47.0900 C   0  0  0  0  0  0  0  0  0  0  0  0
   60.2610   31.6610   46.3910 O   0  0  0  0  0  0  0  0  0  0  0  0
   57.7340   29.0320   45.9770 C   0  0  0  0  0  0  0  0  0  0  0  0
   56.5525   26.2862   47.1049 H   0  0  0  0  0  0  0  0  0  0  0  0
   55.9473   25.4965   45.6094 H   0  0  0  0  0  0  0  0  0  0  0  0
   57.5471   26.3134   45.6094 H   0  0  0  0  0  0  0  0  0  0  0  0
   55.4565   29.1253   43.4547 H   0  0  0  0  0  0  0  0  0  0  0  0
   56.8433   31.0604   42.8169 H   0  0  0  0  0  0  0  0  0  0  0  0
   58.8258   31.7402   44.1847 H   0  0  0  0  0  0  0  0  0  0  0  0
   61.9800   30.1640   48.5610 H   0  0  0  0  0  0  0  0  0  0  0  0
   62.2655   34.7665   47.6494 H   0  0  0  0  0  0  0  0  0  0  0  0
   61.3730   34.2469   46.1824 H   0  0  0  0  0  0  0  0  0  0  0  0
   60.0178   33.2595   48.5124 H   0  0  0  0  0  0  0  0  0  0  0  0
   60.3486   35.0386   48.6924 H   0  0  0  0  0  0  0  0  0  0  0  0
   59.5277   36.0145   45.7465 H   0  0  0  0  0  0  0  0  0  0  0  0
   60.7087   34.6565   45.7628 H   0  0  0  0  0  0  0  0  0  0  0  0
   59.1891   34.6174   43.7547 H   0  0  0  0  0  0  0  0  0  0  0  0
   59.0478   33.1518   44.7303 H   0  0  0  0  0  0  0  0  0  0  0  0
   56.1964   34.0877   46.4332 H   0  0  0  0  0  0  0  0  0  0  0  0
   56.9961   32.7025   45.5308 H   0  0  0  0  0  0  0  0  0  0  0  0
   57.5828   33.5544   48.0498 H   0  0  0  0  0  0  0  0  0  0  0  0
   58.6158   32.5530   46.9111 H   0  0  0  0  0  0  0  0  0  0  0  0
   57.9967   28.4609   46.8797 H   0  0  0  0  0  0  0  0  0  0  0  0
  1  2  1  0
  2  3  1  0
  3  4  2  0
  4  5  1  0
  5  6  2  0
  6  7  1  0
  7  8  1  0
  8  9  2  0
  9 10  1  0
 10 11  1  0
 11 12  2  0
 12 13  1  0
 13 14  1  0
 14 15  1  0
 15 16  1  0
 16 17  1  0
 17 18  1  0
 18 19  1  0
 19 20  1  0
 11 21  1  0
  7 22  2  0
 22  3  1  0
 21  8  1  0
 20 15  1  0
  1 23  1  0
  1 24  1  0
  1 25  1  0
  4 26  1  0
  5 27  1  0
  6 28  1  0
 10 29  1  0
 13 30  1  0
 13 31  1  0
 14 32  1  0
 14 33  1  0
 16 34  1  0
 16 35  1  0
 17 36  1  0
 17 37  1  0
 19 38  1  0
 19 39  1  0
 20 40  1  0
 20 41  1  0
 22 42  1  0
M  END
>  <smiles>  (25) 
COc1cccc(-c2n[nH]c(=NCCN3CCOCC3)o2)c1

>  <score_type>  (25) 
oracle

>  <origin>  (25) 
adg

>  <m_score__min__energy>  (25) 
-7.1799999999999997

>  <m_primary>  (25) 
energy

$$$$
26:0
     RDKit          3D

 32 34  0  0  0  0  0  0  0  0999 V2000
   63.8160   33.4360   50.1280 C   0  0  0  0  0  0  0  0  0  0  0  0
   64.5300   32.9230   49.0440 C   0  0  0  0  0  0  0  0  0  0  0  0
   63.9660   32.8990   47.8040 N   0  0  0  0  0  0  0  0  0  0  0  0
   62.7050   33.3630   47.5870 C   0  0  0  0  0  0  0  0  0  0  0  0
   61.9470   33.8760   48.6510 C   0  0  0  0  0  0  0  0  0  0  0  0
   60.5530   34.4020   48.4250 C   0  0  0  0  0  0  0  0  0  0  0  0
   60.2410   34.4450   46.9960 N   0  0  0  0  0  0  0  0  0  0  0  0
   59.2490   33.6230   46.3510 C   0  0  0  0  0  0  0  0  0  0  0  0
   58.0950   34.1760   45.7600 C   0  0  0  0  0  0  0  0  0  0  0  0
   57.1520   33.3540   45.1380 C   0  0  0  0  0  0  0  0  0  0  0  0
   57.3410   31.9710   45.1000 C   0  0  0  0  0  0  0  0  0  0  0  0
   56.4220   31.1710   44.4940 N   0  0  0  0  0  0  0  0  0  0  0  0
   56.5760   29.8200   44.4410 C   0  0  0  0  0  0  0  0  0  0  0  0
   57.6980   29.2180   45.0160 C   0  0  0  0  0  0  0  0  0  0  0  0
   58.6580   30.0130   45.6460 C   0  0  0  0  0  0  0  0  0  0  0  0
   58.4880   31.4020   45.6940 C   0  0  0  0  0  0  0  0  0  0  0  0
   59.4330   32.2310   46.3180 C   0  0  0  0  0  0  0  0  0  0  0  0
   62.5220   33.9170   49.9290 C   0  0  0  0  0  0  0  0  0  0  0  0
   64.2695   33.4607   51.1298 H   0  0  0  0  0  0  0  0  0  0  0  0
   65.5497   32.5375   49.1910 H   0  0  0  0  0  0  0  0  0  0  0  0
   64.5150   32.5170   47.0020 H   0  0  0  0  0  0  0  0  0  0  0  0
   62.2782   33.3358   46.5735 H   0  0  0  0  0  0  0  0  0  0  0  0
   59.8322   33.7438   48.9322 H   0  0  0  0  0  0  0  0  0  0  0  0
   60.4902   35.4223   48.8312 H   0  0  0  0  0  0  0  0  0  0  0  0
   60.7490   35.1560   46.4220 H   0  0  0  0  0  0  0  0  0  0  0  0
   57.9356   35.2640   45.7888 H   0  0  0  0  0  0  0  0  0  0  0  0
   56.2575   33.7978   44.6766 H   0  0  0  0  0  0  0  0  0  0  0  0
   55.8151   29.2002   43.9441 H   0  0  0  0  0  0  0  0  0  0  0  0
   57.8243   28.1261   44.9728 H   0  0  0  0  0  0  0  0  0  0  0  0
   59.5447   29.5495   46.1030 H   0  0  0  0  0  0  0  0  0  0  0  0
   60.3247   31.7871   46.7848 H   0  0  0  0  0  0  0  0  0  0  0  0
   61.9524   34.3287   50.7752 H   0  0  0  0  0  0  0  0  0  0  0  0
  1  2  2  0
  2  3  1  0
  3  4  2  0
  4  5  1  0
  5  6  1  0
  6  7  1  0
  7  8  1  0
  8  9  2  0
  9 10  1  0
 10 11  2  0
 11 12  1  0
 12 13  2  0
 13 14  1  0
 14 15  2  0
 15 16  1  0
 16 17  2  0
  5 18  2  0
 18  1  1  0
 17  8  1  0
 16 11  1  0
  1 19  1  0
  2 20  1  0
  3 21  1  0
  4 22  1  0
  6 23  1  0
  6 24  1  0
  7 25  1  0
  9 26  1  0
 10 27  1  0
 13 28  1  0
 14 29  1  0
 15 30  1  0
 17 31  1  0
 18 32  1  0
M  CHG  1   3   1
M  END
>  <UniqueID>  (26) 
23

>  <SMILES>  (26) 
c1c[nH+]cc(CNc2ccc3ncccc3c2)c1

>  <Energy>  (26) 
37.169402987269486

>  <Genealogy>  (26) 
c1c[nH+]cc(CNc2ccc3ncccc3c2)c1 (protonated)
c1c[nH+]cc(CNc2ccc3ncccc3c2)c1 (3D coordinates assigned)
c1c[nH+]cc(CNc2ccc3ncccc3c2)c1 (optimized conformer: 37.169402987269486 kcal/mol)

>  <smiles>  (26) 
c1cncc(CNc2ccc3ncccc3c2)c1

>  <score_type>  (26) 
oracle

>  <origin>  (26) 
adg

>  <m_score__min__energy>  (26) 
-5.7699999999999996

>  <m_primary>  (26) 
energy

$$$$
27:0
     RDKit          3D

 49 52  0  0  0  0  0  0  0  0999 V2000
   63.7680   33.0740   48.0150 C   0  0  0  0  0  0  0  0  0  0  0  0
   63.5740   33.0940   49.3950 C   0  0  0  0  0  0  0  0  0  0  0  0
   62.4370   32.5030   49.9490 C   0  0  0  0  0  0  0  0  0  0  0  0
   61.4910   31.8630   49.1300 C   0  0  0  0  0  0  0  0  0  0  0  0
   60.2480   31.4090   49.6990 N   0  0  0  0  0  0  0  0  0  0  0  0
   59.0640   32.2710   49.6530 C   0  0  0  0  0  0  0  0  0  0  0  0
   58.0870   31.8470   50.7550 C   0  0  0  0  0  0  0  0  0  0  0  0
   57.7840   30.4680   50.6520 O   0  0  0  0  0  0  0  0  0  0  0  0
   58.9550   29.7050   50.8840 C   0  0  0  0  0  0  0  0  0  0  0  0
   59.9970   29.9670   49.7910 C   0  0  0  0  0  0  0  0  0  0  0  0
   61.7260   31.7820   47.7370 C   0  0  0  0  0  0  0  0  0  0  0  0
   60.5910   30.8820   46.6540 S   0  0  0  0  0  0  0  0  0  0  0  0
   59.5690   32.3010   46.2220 C   0  0  0  0  0  0  0  0  0  0  0  0
   59.9310   33.5550   46.7390 C   0  0  0  0  0  0  0  0  0  0  0  0
   59.1840   34.6920   46.4340 C   0  0  0  0  0  0  0  0  0  0  0  0
   58.0550   34.5860   45.6220 C   0  0  0  0  0  0  0  0  0  0  0  0
   57.6680   33.3410   45.1210 C   0  0  0  0  0  0  0  0  0  0  0  0
   58.4150   32.1900   45.4150 C   0  0  0  0  0  0  0  0  0  0  0  0
   57.9440   30.9160   44.9480 N   0  0  0  0  0  0  0  0  0  0  0  0
   57.1790   30.8810   43.6930 C   0  0  0  0  0  0  0  0  0  0  0  0
   56.3910   29.5820   43.5510 C   0  0  0  0  0  0  0  0  0  0  0  0
   55.8690   29.2050   44.8050 O   0  0  0  0  0  0  0  0  0  0  0  0
   56.9200   28.7130   45.6100 C   0  0  0  0  0  0  0  0  0  0  0  0
   58.0120   29.7740   45.8740 C   0  0  0  0  0  0  0  0  0  0  0  0
   62.8420   32.4370   47.1890 C   0  0  0  0  0  0  0  0  0  0  0  0
   64.6518   33.5608   47.5770 H   0  0  0  0  0  0  0  0  0  0  0  0
   64.3169   33.5756   50.0478 H   0  0  0  0  0  0  0  0  0  0  0  0
   62.2800   32.5386   51.0372 H   0  0  0  0  0  0  0  0  0  0  0  0
   59.3646   33.3173   49.8108 H   0  0  0  0  0  0  0  0  0  0  0  0
   58.5766   32.1763   48.6714 H   0  0  0  0  0  0  0  0  0  0  0  0
   58.5424   32.0443   51.7367 H   0  0  0  0  0  0  0  0  0  0  0  0
   57.1564   32.4228   50.6432 H   0  0  0  0  0  0  0  0  0  0  0  0
   59.3787   29.9816   51.8607 H   0  0  0  0  0  0  0  0  0  0  0  0
   58.6900   28.6375   50.8717 H   0  0  0  0  0  0  0  0  0  0  0  0
   60.9327   29.4461   50.0424 H   0  0  0  0  0  0  0  0  0  0  0  0
   59.6217   29.5951   48.8262 H   0  0  0  0  0  0  0  0  0  0  0  0
   60.8126   33.6413   47.3911 H   0  0  0  0  0  0  0  0  0  0  0  0
   59.4848   35.6718   46.8334 H   0  0  0  0  0  0  0  0  0  0  0  0
   57.4688   35.4837   45.3759 H   0  0  0  0  0  0  0  0  0  0  0  0
   56.7700   33.2620   44.4906 H   0  0  0  0  0  0  0  0  0  0  0  0
   56.4769   31.7277   43.6793 H   0  0  0  0  0  0  0  0  0  0  0  0
   57.8892   30.9457   42.8555 H   0  0  0  0  0  0  0  0  0  0  0  0
   55.5646   29.7312   42.8405 H   0  0  0  0  0  0  0  0  0  0  0  0
   57.0576   28.7895   43.1801 H   0  0  0  0  0  0  0  0  0  0  0  0
   56.5029   28.3889   46.5749 H   0  0  0  0  0  0  0  0  0  0  0  0
   57.3902   27.8776   45.0706 H   0  0  0  0  0  0  0  0  0  0  0  0
   57.8945   30.1490   46.9014 H   0  0  0  0  0  0  0  0  0  0  0  0
   58.9863   29.2864   45.7221 H   0  0  0  0  0  0  0  0  0  0  0  0
   62.9866   32.4475   46.0986 H   0  0  0  0  0  0  0  0  0  0  0  0
  1  2  2  0
  2  3  1  0
  3  4  2  0
  4  5  1  0
  5  6  1  0
  6  7  1  0
  7  8  1  0
  8  9  1  0
  9 10  1  0
  4 11  1  0
 11 12  1  0
 12 13  1  0
 13 14  2  0
 14 15  1  0
 15 16  2  0
 16 17  1  0
 17 18  2  0
 18 19  1  0
 19 20  1  0
 20 21  1  0
 21 22  1  0
 22 23  1  0
 23 24  1  0
 11 25  2  0
 25  1  1  0
 10  5  1  0
 18 13  1  0
 24 19  1  0
  1 26  1  0
  2 27  1  0
  3 28  1  0
  6 29  1  0
  6 30  1  0
  7 31  1  0
  7 32  1  0
  9 33  1  0
  9 34  1  0
 10 35  1  0
 10 36  1  0
 14 37  1  0
 15 38  1  0
 16 39  1  0
 17 40  1  0
 20 41  1  0
 20 42  1  0
 21 43  1  0
 21 44  1  0
 23 45  1  0
 23 46  1  0
 24 47  1  0
 24 48  1  0
 25 49  1  0
M  END
>  <UniqueID>  (27) 
24

>  <SMILES>  (27) 
c1ccc(N2CCOCC2)c(Sc2ccccc2N2CCOCC2)c1

>  <Energy>  (27) 
66.52795086363652

>  <Genealogy>  (27) 
c1ccc(N2CCOCC2)c(Sc2ccccc2N2CCOCC2)c1 (3D coordinates assigned)
c1ccc(N2CCOCC2)c(Sc2ccccc2N2CCOCC2)c1 (nonaromatic ring conformer: 66.52795086363652 kcal/mol)

>  <smiles>  (27) 
c1ccc(N2CCOCC2)c(Sc2ccccc2N2CCOCC2)c1

>  <score_type>  (27) 
oracle

>  <origin>  (27) 
adg

>  <m_score__min__energy>  (27) 
-8.1699999999999999

>  <m_primary>  (27) 
energy

$$$$
28:0
     RDKit          3D

 29 29  0  0  0  0  0  0  0  0999 V2000
   59.2740   34.8200   45.1320 C   0  0  0  0  0  0  0  0  0  0  0  0
   58.5220   33.5390   44.7510 C   0  0  0  0  0  0  0  0  0  0  0  0
   58.2450   32.5920   45.8680 N   0  0  0  0  0  0  0  0  0  0  0  0
   57.7910   33.2100   47.1450 C   0  0  0  0  0  0  0  0  0  0  0  0
   58.8760   33.4150   48.2120 C   0  0  0  0  0  0  0  0  0  0  0  0
   59.1990   31.4530   46.0040 C   0  0  0  0  0  0  0  0  0  0  0  0
   58.9510   30.2580   45.0640 C   0  0  0  0  0  0  0  0  0  0  0  0
   57.4810   30.0040   44.9290 C   0  0  0  0  0  0  0  0  0  0  0  0
   56.8410   28.8100   45.1590 C   0  0  0  0  0  0  0  0  0  0  0  0
   55.5370   28.9550   44.8710 N   0  0  0  0  0  0  0  0  0  0  0  0
   55.4290   30.2370   44.4630 C   0  0  0  0  0  0  0  0  0  0  0  0
   56.5980   30.9110   44.4760 N   0  0  0  0  0  0  0  0  0  0  0  0
   59.3234   34.9041   46.2277 H   0  0  0  0  0  0  0  0  0  0  0  0
   60.2936   34.7827   44.7208 H   0  0  0  0  0  0  0  0  0  0  0  0
   58.7445   35.6921   44.7208 H   0  0  0  0  0  0  0  0  0  0  0  0
   57.5577   33.8323   44.3104 H   0  0  0  0  0  0  0  0  0  0  0  0
   59.1847   32.9986   44.0590 H   0  0  0  0  0  0  0  0  0  0  0  0
   57.3730   32.1090   45.5360 H   0  0  0  0  0  0  0  0  0  0  0  0
   57.3598   34.1941   46.9090 H   0  0  0  0  0  0  0  0  0  0  0  0
   57.0735   32.4997   47.5817 H   0  0  0  0  0  0  0  0  0  0  0  0
   58.4270   33.3302   49.2126 H   0  0  0  0  0  0  0  0  0  0  0  0
   59.6559   32.6483   48.0939 H   0  0  0  0  0  0  0  0  0  0  0  0
   59.3224   34.4134   48.0939 H   0  0  0  0  0  0  0  0  0  0  0  0
   60.2114   31.8346   45.8056 H   0  0  0  0  0  0  0  0  0  0  0  0
   59.0602   31.0658   47.0242 H   0  0  0  0  0  0  0  0  0  0  0  0
   59.3740   30.4808   44.0733 H   0  0  0  0  0  0  0  0  0  0  0  0
   59.4332   29.3634   45.4850 H   0  0  0  0  0  0  0  0  0  0  0  0
   57.3182   27.8869   45.5198 H   0  0  0  0  0  0  0  0  0  0  0  0
   54.4770   30.6901   44.1492 H   0  0  0  0  0  0  0  0  0  0  0  0
  1  2  1  0
  2  3  1  0
  3  4  1  0
  4  5  1  0
  3  6  1  0
  6  7  1  0
  7  8  1  0
  8  9  2  0
  9 10  1  0
 10 11  1  0
 11 12  2  0
 12  8  1  0
  1 13  1  0
  1 14  1  0
  1 15  1  0
  2 16  1  0
  2 17  1  0
  3 18  1  0
  4 19  1  0
  4 20  1  0
  5 21  1  0
  5 22  1  0
  5 23  1  0
  6 24  1  0
  6 25  1  0
  7 26  1  0
  7 27  1  0
  9 28  1  0
 11 29  1  0
M  CHG  2   3   1  10  -1
M  END
>  <UniqueID>  (28) 
25

>  <SMILES>  (28) 
CC[NH+](CC)CCc1c[n-]cn1

>  <Energy>  (28) 
65.88887190646929

>  <Genealogy>  (28) 
CC[NH+](CC)CCc1c[n-]cn1 (protonated)
CC[NH+](CC)CCc1c[n-]cn1 (3D coordinates assigned)
CC[NH+](CC)CCc1c[n-]cn1 (optimized conformer: 65.88887190646929 kcal/mol)

>  <smiles>  (28) 
CCN(CC)CCc1c[nH]cn1

>  <score_type>  (28) 
oracle

>  <origin>  (28) 
adg

>  <m_score__min__energy>  (28) 
-4.3600000000000003

>  <m_primary>  (28) 
energy

$$$$
29:0
     RDKit          3D

 40 41  0  0  0  0  0  0  0  0999 V2000
   57.4940   24.9360   45.4880 C   0  0  0  0  0  0  0  0  0  0  0  0
   57.5170   26.4470   45.7560 C   0  0  2  0  0  0  0  0  0  0  0  0
   58.2390   26.8050   47.0740 C   0  0  0  0  0  0  0  0  0  0  0  0
   59.1940   27.9690   46.9480 C   0  0  0  0  0  0  0  0  0  0  0  0
   59.4110   28.8330   48.0340 C   0  0  0  0  0  0  0  0  0  0  0  0
   60.2830   29.9180   47.9090 C   0  0  0  0  0  0  0  0  0  0  0  0
   60.9460   30.1490   46.7000 C   0  0  0  0  0  0  0  0  0  0  0  0
   60.7380   29.2940   45.6150 C   0  0  0  0  0  0  0  0  0  0  0  0
   59.8670   28.2070   45.7360 C   0  0  0  0  0  0  0  0  0  0  0  0
   56.1350   27.0420   45.6990 C   0  0  0  0  0  0  0  0  0  0  0  0
   55.1350   26.3770   46.0870 O   0  0  0  0  0  0  0  0  0  0  0  0
   55.9710   28.3890   45.2460 N   0  0  0  0  0  0  0  0  0  0  0  0
   56.9930   29.1260   44.5090 C   0  0  0  0  0  0  0  0  0  0  0  0
   56.4810   30.5060   44.0760 C   0  0  0  0  0  0  0  0  0  0  0  0
   57.2960   31.6140   44.6910 C   0  0  0  0  0  0  0  0  0  0  0  0
   57.6160   32.7590   43.9420 C   0  0  0  0  0  0  0  0  0  0  0  0
   58.4030   33.7710   44.5020 C   0  0  0  0  0  0  0  0  0  0  0  0
   58.8810   33.6440   45.8100 C   0  0  0  0  0  0  0  0  0  0  0  0
   59.8690   34.9130   46.5110 Cl  0  0  0  0  0  0  0  0  0  0  0  0
   58.5730   32.5030   46.5580 C   0  0  0  0  0  0  0  0  0  0  0  0
   57.7880   31.4890   46.0010 C   0  0  0  0  0  0  0  0  0  0  0  0
   57.4857   24.3939   46.4451 H   0  0  0  0  0  0  0  0  0  0  0  0
   56.5918   24.6792   44.9134 H   0  0  0  0  0  0  0  0  0  0  0  0
   58.3879   24.6519   44.9134 H   0  0  0  0  0  0  0  0  0  0  0  0
   58.1062   26.8997   44.9449 H   0  0  0  0  0  0  0  0  0  0  0  0
   57.4794   27.0594   47.8278 H   0  0  0  0  0  0  0  0  0  0  0  0
   58.8380   25.9279   47.3602 H   0  0  0  0  0  0  0  0  0  0  0  0
   58.8921   28.6548   48.9874 H   0  0  0  0  0  0  0  0  0  0  0  0
   60.4479   30.5912   48.7631 H   0  0  0  0  0  0  0  0  0  0  0  0
   61.6314   31.0039   46.6031 H   0  0  0  0  0  0  0  0  0  0  0  0
   61.2602   29.4762   44.6641 H   0  0  0  0  0  0  0  0  0  0  0  0
   59.7074   27.5351   44.8798 H   0  0  0  0  0  0  0  0  0  0  0  0
   57.8751   29.2569   45.1531 H   0  0  0  0  0  0  0  0  0  0  0  0
   57.2520   28.5527   43.6067 H   0  0  0  0  0  0  0  0  0  0  0  0
   56.5424   30.5826   42.9804 H   0  0  0  0  0  0  0  0  0  0  0  0
   55.4408   30.6115   44.4177 H   0  0  0  0  0  0  0  0  0  0  0  0
   57.2461   32.8600   42.9110 H   0  0  0  0  0  0  0  0  0  0  0  0
   58.6461   34.6675   43.9128 H   0  0  0  0  0  0  0  0  0  0  0  0
   58.9492   32.4032   47.5868 H   0  0  0  0  0  0  0  0  0  0  0  0
   57.5547   30.5901   46.5906 H   0  0  0  0  0  0  0  0  0  0  0  0
  1  2  1  0
  2  3  1  0
  3  4  1  0
  4  5  2  0
  5  6  1  0
  6  7  2  0
  7  8  1  0
  8  9  2  0
  2 10  1  0
 10 11  2  0
 10 12  1  0
 12 13  1  0
 13 14  1  0
 14 15  1  0
 15 16  2  0
 16 17  1  0
 17 18  2  0
 18 19  1  0
 18 20  1  0
 20 21  2  0
  9  4  1  0
 21 15  1  0
  1 22  1  0
  1 23  1  0
  1 24  1  0
  2 25  1  6
  3 26  1  0
  3 27  1  0
  5 28  1  0
  6 29  1  0
  7 30  1  0
  8 31  1  0
  9 32  1  0
 13 33  1  0
 13 34  1  0
 14 35  1  0
 14 36  1  0
 16 37  1  0
 17 38  1  0
 20 39  1  0
 21 40  1  0
M  CHG  1  12  -1
M  END
>  <UniqueID>  (29) 
26

>  <SMILES>  (29) 
C[C@H](Cc1ccccc1)C(=O)[N-]CCc1ccc(Cl)cc1

>  <Energy>  (29) 
31.45269047413209

>  <Genealogy>  (29) 
CC(Cc1ccccc1)C(=O)[N-]CCc1ccc(Cl)cc1 (protonated)
C[C@H](Cc1ccccc1)C(=O)[N-]CCc1ccc(Cl)cc1 (chirality)
C[C@H](Cc1ccccc1)C(=O)[N-]CCc1ccc(Cl)cc1 (3D coordinates assigned)
C[C@H](Cc1ccccc1)C(=O)[N-]CCc1ccc(Cl)cc1 (optimized conformer: 31.45269047413209 kcal/mol)

>  <smiles>  (29) 
CC(Cc1ccccc1)C(=O)NCCc1ccc(Cl)cc1

>  <score_type>  (29) 
oracle

>  <origin>  (29) 
adg

>  <m_score__min__energy>  (29) 
-9.5999999999999996

>  <m_primary>  (29) 
energy

$$$$
30:0
     RDKit          3D

 41 44  0  0  0  0  0  0  0  0999 V2000
   61.2980   30.8690   47.6390 C   0  0  0  0  0  0  0  0  0  0  0  0
   60.1460   31.1200   46.7210 C   0  0  0  0  0  0  0  0  0  0  0  0
   59.3140   30.1630   46.2500 N   0  0  0  0  0  0  0  0  0  0  0  0
   58.3600   30.7340   45.5220 N   0  0  0  0  0  0  0  0  0  0  0  0
   57.2930   30.0070   44.8940 C   0  0  0  0  0  0  0  0  0  0  0  0
   56.2630   30.6320   44.5230 O   0  0  0  0  0  0  0  0  0  0  0  0
   57.3570   28.5380   44.7150 C   0  0  0  0  0  0  0  0  0  0  0  0
   57.0210   27.6800   45.7760 C   0  0  0  0  0  0  0  0  0  0  0  0
   57.0840   26.2940   45.6130 C   0  0  0  0  0  0  0  0  0  0  0  0
   57.4910   25.7350   44.3900 C   0  0  0  0  0  0  0  0  0  0  0  0
   57.5530   24.2610   44.2140 C   0  0  0  0  0  0  0  0  0  0  0  0
   58.5150   23.4990   44.9040 C   0  0  0  0  0  0  0  0  0  0  0  0
   58.5730   22.1110   44.7370 C   0  0  0  0  0  0  0  0  0  0  0  0
   57.6720   21.4710   43.8830 C   0  0  0  0  0  0  0  0  0  0  0  0
   56.7120   22.2160   43.1940 C   0  0  0  0  0  0  0  0  0  0  0  0
   56.6510   23.6030   43.3570 C   0  0  0  0  0  0  0  0  0  0  0  0
   57.8400   26.5950   43.3340 C   0  0  0  0  0  0  0  0  0  0  0  0
   57.7790   27.9810   43.4970 C   0  0  0  0  0  0  0  0  0  0  0  0
   58.5540   32.0710   45.5520 C   0  0  0  0  0  0  0  0  0  0  0  0
   57.7630   33.0940   45.0200 C   0  0  0  0  0  0  0  0  0  0  0  0
   58.1750   34.4220   45.2420 C   0  0  0  0  0  0  0  0  0  0  0  0
   59.3370   34.6990   45.9960 C   0  0  0  0  0  0  0  0  0  0  0  0
   60.0990   33.6500   46.5420 C   0  0  0  0  0  0  0  0  0  0  0  0
   59.6730   32.3460   46.2970 C   0  0  0  0  0  0  0  0  0  0  0  0
   60.9581   30.9430   48.6826 H   0  0  0  0  0  0  0  0  0  0  0  0
   61.7007   29.8620   47.4551 H   0  0  0  0  0  0  0  0  0  0  0  0
   62.0832   31.6171   47.4551 H   0  0  0  0  0  0  0  0  0  0  0  0
   59.3950   29.1360   46.4260 H   0  0  0  0  0  0  0  0  0  0  0  0
   56.7062   28.1027   46.7415 H   0  0  0  0  0  0  0  0  0  0  0  0
   56.8124   25.6341   46.4501 H   0  0  0  0  0  0  0  0  0  0  0  0
   59.2258   23.9982   45.5789 H   0  0  0  0  0  0  0  0  0  0  0  0
   59.3288   21.5234   45.2787 H   0  0  0  0  0  0  0  0  0  0  0  0
   57.7184   20.3797   43.7529 H   0  0  0  0  0  0  0  0  0  0  0  0
   56.0029   21.7104   42.5221 H   0  0  0  0  0  0  0  0  0  0  0  0
   55.8928   24.1842   42.8117 H   0  0  0  0  0  0  0  0  0  0  0  0
   58.1639   26.1729   42.3712 H   0  0  0  0  0  0  0  0  0  0  0  0
   58.0638   28.6413   42.6646 H   0  0  0  0  0  0  0  0  0  0  0  0
   56.8507   32.8692   44.4480 H   0  0  0  0  0  0  0  0  0  0  0  0
   57.5862   35.2519   44.8242 H   0  0  0  0  0  0  0  0  0  0  0  0
   59.6481   35.7417   46.1573 H   0  0  0  0  0  0  0  0  0  0  0  0
   60.9992   33.8520   47.1411 H   0  0  0  0  0  0  0  0  0  0  0  0
  1  2  1  0
  2  3  2  0
  3  4  1  0
  4  5  1  0
  5  6  2  0
  5  7  1  0
  7  8  2  0
  8  9  1  0
  9 10  2  0
 10 11  1  0
 11 12  2  0
 12 13  1  0
 13 14  2  0
 14 15  1  0
 15 16  2  0
 10 17  1  0
 17 18  2  0
  4 19  1  0
 19 20  2  0
 20 21  1  0
 21 22  2  0
 22 23  1  0
 23 24  2  0
 24  2  1  0
 18  7  1  0
 24 19  1  0
 16 11  1  0
  1 25  1  0
  1 26  1  0
  1 27  1  0
  3 28  1  0
  8 29  1  0
  9 30  1  0
 12 31  1  0
 13 32  1  0
 14 33  1  0
 15 34  1  0
 16 35  1  0
 17 36  1  0
 18 37  1  0
 20 38  1  0
 21 39  1  0
 22 40  1  0
 23 41  1  0
M  CHG  1   3   1
M  END
>  <UniqueID>  (30) 
27

>  <SMILES>  (30) 
Cc1[nH+]n(C(=O)c2ccc(-c3ccccc3)cc2)c2ccccc12

>  <Energy>  (30) 
95.62568674871346

>  <Genealogy>  (30) 
Cc1[nH+]n(C(=O)c2ccc(-c3ccccc3)cc2)c2ccccc12 (protonated)
Cc1[nH+]n(C(=O)c2ccc(-c3ccccc3)cc2)c2ccccc12 (3D coordinates assigned)
Cc1[nH+]n(C(=O)c2ccc(-c3ccccc3)cc2)c2ccccc12 (optimized conformer: 95.62568674871346 kcal/mol)

>  <smiles>  (30) 
Cc1nn(C(=O)c2ccc(-c3ccccc3)cc2)c2ccccc12

>  <score_type>  (30) 
oracle

>  <origin>  (30) 
adg

>  <m_score__min__energy>  (30) 
-7.4100000000000001

>  <m_primary>  (30) 
energy

$$$$
31:0
     RDKit          3D

 40 42  0  0  0  0  0  0  0  0999 V2000
   57.2420   33.3610   46.3080 C   0  0  0  0  0  0  0  0  0  0  0  0
   57.3680   32.4340   45.1470 C   0  0  0  0  0  0  0  0  0  0  0  0
   57.8370   32.7740   43.8930 C   0  0  0  0  0  0  0  0  0  0  0  0
   57.7560   31.6220   43.1390 C   0  0  0  0  0  0  0  0  0  0  0  0
   57.2440   30.6570   43.9850 C   0  0  0  0  0  0  0  0  0  0  0  0
   56.9400   29.2420   43.6130 C   0  0  0  0  0  0  0  0  0  0  0  0
   56.6860   28.4650   44.8350 N   0  0  0  0  0  0  0  0  0  0  0  0
   57.8640   27.8280   45.4820 C   0  0  0  0  0  0  0  0  0  0  0  0
   57.5420   26.3220   45.5830 C   0  0  0  0  0  0  0  0  0  0  0  0
   58.5060   25.3420   45.2460 C   0  0  0  0  0  0  0  0  0  0  0  0
   58.1910   23.9810   45.2800 C   0  0  0  0  0  0  0  0  0  0  0  0
   56.9000   23.5680   45.6040 C   0  0  0  0  0  0  0  0  0  0  0  0
   55.9130   24.5160   45.8670 C   0  0  0  0  0  0  0  0  0  0  0  0
   56.2180   25.8810   45.8340 C   0  0  0  0  0  0  0  0  0  0  0  0
   55.2040   26.7650   46.0130 F   0  0  0  0  0  0  0  0  0  0  0  0
   59.1800   28.1010   44.7100 C   0  0  0  0  0  0  0  0  0  0  0  0
   59.8330   29.3230   45.3390 C   0  0  0  0  0  0  0  0  0  0  0  0
   59.3140   29.4030   46.7660 C   0  0  0  0  0  0  0  0  0  0  0  0
   58.1420   28.4280   46.8840 C   0  0  0  0  0  0  0  0  0  0  0  0
   57.0150   31.1700   45.1710 O   0  0  0  0  0  0  0  0  0  0  0  0
   57.3198   32.7888   47.2442 H   0  0  0  0  0  0  0  0  0  0  0  0
   58.0466   34.1100   46.2682 H   0  0  0  0  0  0  0  0  0  0  0  0
   56.2667   33.8681   46.2682 H   0  0  0  0  0  0  0  0  0  0  0  0
   58.1998   33.7590   43.5641 H   0  0  0  0  0  0  0  0  0  0  0  0
   58.0400   31.4974   42.0836 H   0  0  0  0  0  0  0  0  0  0  0  0
   56.0496   29.2144   42.9677 H   0  0  0  0  0  0  0  0  0  0  0  0
   57.7947   28.8104   43.0715 H   0  0  0  0  0  0  0  0  0  0  0  0
   55.9930   27.7160   44.5910 H   0  0  0  0  0  0  0  0  0  0  0  0
   59.5185   25.6565   44.9529 H   0  0  0  0  0  0  0  0  0  0  0  0
   58.9644   23.2333   45.0503 H   0  0  0  0  0  0  0  0  0  0  0  0
   56.6605   22.4955   45.6521 H   0  0  0  0  0  0  0  0  0  0  0  0
   54.8891   24.1895   46.1017 H   0  0  0  0  0  0  0  0  0  0  0  0
   59.8505   27.2328   44.7916 H   0  0  0  0  0  0  0  0  0  0  0  0
   58.9748   28.2766   43.6437 H   0  0  0  0  0  0  0  0  0  0  0  0
   60.9274   29.2118   45.3383 H   0  0  0  0  0  0  0  0  0  0  0  0
   59.5922   30.2369   44.7762 H   0  0  0  0  0  0  0  0  0  0  0  0
   60.1096   29.1211   47.4714 H   0  0  0  0  0  0  0  0  0  0  0  0
   58.9914   30.4273   47.0041 H   0  0  0  0  0  0  0  0  0  0  0  0
   58.3975   27.6231   47.5889 H   0  0  0  0  0  0  0  0  0  0  0  0
   57.2491   28.9523   47.2554 H   0  0  0  0  0  0  0  0  0  0  0  0
  1  2  1  0
  2  3  2  0
  3  4  1  0
  4  5  2  0
  5  6  1  0
  6  7  1  0
  7  8  1  0
  8  9  1  0
  9 10  2  0
 10 11  1  0
 11 12  2  0
 12 13  1  0
 13 14  2  0
 14 15  1  0
  8 16  1  0
 16 17  1  0
 17 18  1  0
 18 19  1  0
  5 20  1  0
 20  2  1  0
 19  8  1  0
 14  9  1  0
  1 21  1  0
  1 22  1  0
  1 23  1  0
  3 24  1  0
  4 25  1  0
  6 26  1  0
  6 27  1  0
  7 28  1  0
 10 29  1  0
 11 30  1  0
 12 31  1  0
 13 32  1  0
 16 33  1  0
 16 34  1  0
 17 35  1  0
 17 36  1  0
 18 37  1  0
 18 38  1  0
 19 39  1  0
 19 40  1  0
M  END
>  <UniqueID>  (31) 
28

>  <SMILES>  (31) 
Cc1ccc(CNC2(c3ccccc3F)CCCC2)o1

>  <Energy>  (31) 
78.11709248435385

>  <Genealogy>  (31) 
Cc1ccc(CNC2(c3ccccc3F)CCCC2)o1 (3D coordinates assigned)
Cc1ccc(CNC2(c3ccccc3F)CCCC2)o1 (nonaromatic ring conformer: 78.11709248435385 kcal/mol)

>  <smiles>  (31) 
Cc1ccc(CNC2(c3ccccc3F)CCCC2)o1

>  <score_type>  (31) 
oracle

>  <origin>  (31) 
adg

>  <m_score__min__energy>  (31) 
-7.6100000000000003

>  <m_primary>  (31) 
energy

$$$$
32:0
     RDKit          3D

 39 41  0  0  1  0  0  0  0  0999 V2000
   57.3890   32.3410   40.8640 C   0  0  0  0  0  0  0  0  0  0  0  0
   58.1300   32.4750   42.0500 N   0  0  0  0  0  0  0  0  0  0  0  0
   57.9150   32.0530   43.1960 C   0  0  0  0  0  0  0  0  0  0  0  0
   57.2720   30.8150   43.3110 C   0  0  0  0  0  0  0  0  0  0  0  0
   56.9950   30.2780   44.5500 C   0  0  0  0  0  0  0  0  0  0  0  0
   56.3130   28.9630   44.6600 C   0  0  0  0  0  0  0  0  0  0  0  0
   57.2440   27.8590   44.7850 N   0  0  0  0  0  0  0  0  0  0  0  0
   57.0180   27.0890   45.9700 C   0  0  0  0  0  0  0  0  0  0  0  0
   58.3410   27.0450   46.7200 C   0  0  0  0  0  0  0  0  0  0  0  0
   58.9270   28.3860   46.2820 C   0  0  0  0  0  0  0  0  0  0  0  0
   58.5740   28.3870   44.8100 C   0  0  0  0  0  0  0  0  0  0  0  0
   57.3760   31.0090   45.6100 N   0  0  0  0  0  0  0  0  0  0  0  0
   57.9900   32.1940   45.4660 C   0  0  0  0  0  0  0  0  0  0  0  0
   58.3250   32.8390   46.6580 C   0  0  0  0  0  0  0  0  0  0  0  0
   58.9550   34.0520   46.5060 C   0  0  0  0  0  0  0  0  0  0  0  0
   59.3310   34.7760   47.7460 C   0  0  0  0  0  0  0  0  0  0  0  0
   59.2530   34.6270   45.3200 C   0  0  0  0  0  0  0  0  0  0  0  0
   58.8890   33.9290   44.1450 C   0  0  0  0  0  0  0  0  0  0  0  0
   58.2800   32.7550   44.2690 N   0  0  0  0  0  0  0  0  0  0  0  0
   56.3341   32.1502   41.1103 H   0  0  0  0  0  0  0  0  0  0  0  0
   57.4666   33.2677   40.2765 H   0  0  0  0  0  0  0  0  0  0  0  0
   57.7862   31.5001   40.2765 H   0  0  0  0  0  0  0  0  0  0  0  0
   56.9846   30.2647   42.4029 H   0  0  0  0  0  0  0  0  0  0  0  0
   55.6625   28.9770   45.5469 H   0  0  0  0  0  0  0  0  0  0  0  0
   55.7370   28.8090   43.7356 H   0  0  0  0  0  0  0  0  0  0  0  0
   56.2456   27.5663   46.5910 H   0  0  0  0  0  0  0  0  0  0  0  0
   56.6684   26.0756   45.7234 H   0  0  0  0  0  0  0  0  0  0  0  0
   58.1934   26.9983   47.8091 H   0  0  0  0  0  0  0  0  0  0  0  0
   58.9701   26.1682   46.5066 H   0  0  0  0  0  0  0  0  0  0  0  0
   58.4540   29.2261   46.8116 H   0  0  0  0  0  0  0  0  0  0  0  0
   60.0006   28.5024   46.4914 H   0  0  0  0  0  0  0  0  0  0  0  0
   58.5997   29.4075   44.4002 H   0  0  0  0  0  0  0  0  0  0  0  0
   59.2785   27.8025   44.2001 H   0  0  0  0  0  0  0  0  0  0  0  0
   58.1016   32.4089   47.6455 H   0  0  0  0  0  0  0  0  0  0  0  0
   59.0246   34.1860   48.6223 H   0  0  0  0  0  0  0  0  0  0  0  0
   60.4206   34.9254   47.7673 H   0  0  0  0  0  0  0  0  0  0  0  0
   58.8265   35.7532   47.7673 H   0  0  0  0  0  0  0  0  0  0  0  0
   59.7600   35.6019   45.2703 H   0  0  0  0  0  0  0  0  0  0  0  0
   59.1052   34.3486   43.1514 H   0  0  0  0  0  0  0  0  0  0  0  0
  1  2  1  0
  2  3  2  0
  3  4  1  0
  4  5  2  0
  5  6  1  0
  6  7  1  0
  7  8  1  0
  8  9  1  0
  9 10  1  0
 10 11  1  0
  5 12  1  0
 12 13  2  0
 13 14  1  0
 14 15  2  0
 15 16  1  0
 15 17  1  0
 17 18  2  0
 18 19  1  0
 19  3  1  0
 11  7  1  0
 19 13  1  0
  1 20  1  0
  1 21  1  0
  1 22  1  0
  4 23  1  0
  6 24  1  0
  6 25  1  0
  8 26  1  0
  8 27  1  0
  9 28  1  0
  9 29  1  0
 10 30  1  0
 10 31  1  0
 11 32  1  0
 11 33  1  0
 14 34  1  0
 16 35  1  0
 16 36  1  0
 16 37  1  0
 17 38  1  0
 18 39  1  0
M  END
>  <smiles>  (32) 
CN=c1cc(CN2CCCC2)nc2cc(C)ccn12

>  <score_type>  (32) 
oracle

>  <origin>  (32) 
adg

>  <m_score__min__energy>  (32) 
-7

>  <m_primary>  (32) 
energy

$$$$
33:0
     RDKit          3D

 47 49  0  0  0  0  0  0  0  0999 V2000
   63.1990   33.6860   46.7700 C   0  0  0  0  0  0  0  0  0  0  0  0
   62.4090   32.4460   47.1740 C   0  0  0  0  0  0  0  0  0  0  0  0
   61.0170   32.5480   46.7190 N   0  0  0  0  0  0  0  0  0  0  0  0
   60.5160   33.7670   46.0740 C   0  0  0  0  0  0  0  0  0  0  0  0
   59.4420   34.4270   46.9330 C   0  0  0  0  0  0  0  0  0  0  0  0
   60.1990   31.3710   46.7130 C   0  0  0  0  0  0  0  0  0  0  0  0
   60.4940   30.3020   47.5630 C   0  0  0  0  0  0  0  0  0  0  0  0
   59.6890   29.1530   47.5540 C   0  0  0  0  0  0  0  0  0  0  0  0
   60.0310   28.0140   48.4790 C   0  0  0  0  0  0  0  0  0  0  0  0
   58.5810   29.0970   46.6720 C   0  0  0  0  0  0  0  0  0  0  0  0
   57.7220   27.9790   46.6040 C   0  0  0  0  0  0  0  0  0  0  0  0
   56.6410   27.9610   45.7040 C   0  0  0  0  0  0  0  0  0  0  0  0
   55.7380   26.8490   45.6250 N   0  0  0  0  0  0  0  0  0  0  0  0
   56.0060   25.5040   46.0430 C   0  0  0  0  0  0  0  0  0  0  0  0
   56.0710   25.2280   47.2710 O   0  0  0  0  0  0  0  0  0  0  0  0
   56.3080   24.4520   45.0410 C   0  0  0  0  0  0  0  0  0  0  0  0
   55.2930   24.0510   44.1520 C   0  0  0  0  0  0  0  0  0  0  0  0
   55.5260   23.0510   43.2060 C   0  0  0  0  0  0  0  0  0  0  0  0
   56.7780   22.4410   43.1260 C   0  0  0  0  0  0  0  0  0  0  0  0
   57.8020   22.8350   43.9890 C   0  0  0  0  0  0  0  0  0  0  0  0
   57.5820   23.8380   44.9440 C   0  0  0  0  0  0  0  0  0  0  0  0
   58.9560   24.3290   45.9310 Cl  0  0  0  0  0  0  0  0  0  0  0  0
   56.3940   29.0810   44.9030 C   0  0  0  0  0  0  0  0  0  0  0  0
   57.2330   30.1940   44.9610 C   0  0  0  0  0  0  0  0  0  0  0  0
   58.3240   30.2080   45.8340 C   0  0  0  0  0  0  0  0  0  0  0  0
   59.1320   31.3000   45.8780 N   0  0  0  0  0  0  0  0  0  0  0  0
   63.5366   34.2159   47.6729 H   0  0  0  0  0  0  0  0  0  0  0  0
   64.0726   33.3857   46.1728 H   0  0  0  0  0  0  0  0  0  0  0  0
   62.5577   34.3509   46.1728 H   0  0  0  0  0  0  0  0  0  0  0  0
   62.8733   31.5580   46.7202 H   0  0  0  0  0  0  0  0  0  0  0  0
   62.4179   32.3622   48.2708 H   0  0  0  0  0  0  0  0  0  0  0  0
   61.3498   34.4707   45.9341 H   0  0  0  0  0  0  0  0  0  0  0  0
   60.0769   33.4987   45.1018 H   0  0  0  0  0  0  0  0  0  0  0  0
   59.6814   34.2799   47.9965 H   0  0  0  0  0  0  0  0  0  0  0  0
   59.4053   35.5037   46.7110 H   0  0  0  0  0  0  0  0  0  0  0  0
   58.4648   33.9733   46.7110 H   0  0  0  0  0  0  0  0  0  0  0  0
   61.3587   30.3614   48.2403 H   0  0  0  0  0  0  0  0  0  0  0  0
   59.9311   28.3466   49.5227 H   0  0  0  0  0  0  0  0  0  0  0  0
   59.3456   27.1736   48.2948 H   0  0  0  0  0  0  0  0  0  0  0  0
   61.0660   27.6902   48.2948 H   0  0  0  0  0  0  0  0  0  0  0  0
   57.8994   27.1144   47.2604 H   0  0  0  0  0  0  0  0  0  0  0  0
   54.3046   24.5311   44.2032 H   0  0  0  0  0  0  0  0  0  0  0  0
   54.7208   22.7436   42.5225 H   0  0  0  0  0  0  0  0  0  0  0  0
   56.9582   21.6499   42.3832 H   0  0  0  0  0  0  0  0  0  0  0  0
   58.7893   22.3549   43.9194 H   0  0  0  0  0  0  0  0  0  0  0  0
   55.5306   29.0841   44.2214 H   0  0  0  0  0  0  0  0  0  0  0  0
   57.0350   31.0637   44.3172 H   0  0  0  0  0  0  0  0  0  0  0  0
  1  2  1  0
  2  3  1  0
  3  4  1  0
  4  5  1  0
  3  6  1  0
  6  7  2  0
  7  8  1  0
  8  9  1  0
  8 10  2  0
 10 11  1  0
 11 12  2  0
 12 13  1  0
 13 14  1  0
 14 15  2  0
 14 16  1  0
 16 17  2  0
 17 18  1  0
 18 19  2  0
 19 20  1  0
 20 21  2  0
 21 22  1  0
 12 23  1  0
 23 24  2  0
 24 25  1  0
 25 26  2  0
 26  6  1  0
 25 10  1  0
 21 16  1  0
  1 27  1  0
  1 28  1  0
  1 29  1  0
  2 30  1  0
  2 31  1  0
  4 32  1  0
  4 33  1  0
  5 34  1  0
  5 35  1  0
  5 36  1  0
  7 37  1  0
  9 38  1  0
  9 39  1  0
  9 40  1  0
 11 41  1  0
 17 42  1  0
 18 43  1  0
 19 44  1  0
 20 45  1  0
 23 46  1  0
 24 47  1  0
M  CHG  1  13  -1
M  END
>  <UniqueID>  (33) 
29

>  <SMILES>  (33) 
CCN(CC)c1cc(C)c2cc([N-]C(=O)c3ccccc3Cl)ccc2n1

>  <Energy>  (33) 
60.59393499977316

>  <Genealogy>  (33) 
CCN(CC)c1cc(C)c2cc([N-]C(=O)c3ccccc3Cl)ccc2n1 (protonated)
CCN(CC)c1cc(C)c2cc([N-]C(=O)c3ccccc3Cl)ccc2n1 (3D coordinates assigned)
CCN(CC)c1cc(C)c2cc([N-]C(=O)c3ccccc3Cl)ccc2n1 (optimized conformer: 60.59393499977316 kcal/mol)

>  <smiles>  (33) 
CCN(CC)c1cc(C)c2cc(NC(=O)c3ccccc3Cl)ccc2n1

>  <score_type>  (33) 
oracle

>  <origin>  (33) 
adg

>  <m_score__min__energy>  (33) 
-9.8699999999999992

>  <m_primary>  (33) 
energy

$$$$
34:0
     RDKit          3D

 34 36  0  0  0  0  0  0  0  0999 V2000
   62.6990   31.6800   47.5090 C   0  0  0  0  0  0  0  0  0  0  0  0
   61.5490   31.1320   46.9020 O   0  0  0  0  0  0  0  0  0  0  0  0
   60.3810   31.6340   47.5240 C   0  0  0  0  0  0  0  0  0  0  0  0
   59.1800   31.4950   46.6070 C   0  0  0  0  0  0  0  0  0  0  0  0
   58.6770   32.6370   45.9560 C   0  0  0  0  0  0  0  0  0  0  0  0
   59.2500   33.8550   46.1340 F   0  0  0  0  0  0  0  0  0  0  0  0
   57.5700   32.5290   45.1170 C   0  0  0  0  0  0  0  0  0  0  0  0
   56.9690   31.3290   44.9280 N   0  0  0  0  0  0  0  0  0  0  0  0
   57.4100   30.1970   45.5380 C   0  0  0  0  0  0  0  0  0  0  0  0
   56.7460   28.9860   45.3070 C   0  0  0  0  0  0  0  0  0  0  0  0
   55.6840   28.9600   44.4600 F   0  0  0  0  0  0  0  0  0  0  0  0
   57.1880   27.8020   45.9230 C   0  0  0  0  0  0  0  0  0  0  0  0
   56.4940   26.5610   45.6930 N   0  0  0  0  0  0  0  0  0  0  0  0
   55.2110   26.3750   45.9670 N   0  0  0  0  0  0  0  0  0  0  0  0
   54.8970   25.1080   45.6220 C   0  0  0  0  0  0  0  0  0  0  0  0
   53.5520   24.4970   45.8340 C   0  0  0  0  0  0  0  0  0  0  0  0
   56.0120   24.4540   45.1280 C   0  0  0  0  0  0  0  0  0  0  0  0
   56.9940   25.4160   45.1820 C   0  0  0  0  0  0  0  0  0  0  0  0
   58.1790   25.2630   44.7860 O   0  0  0  0  0  0  0  0  0  0  0  0
   58.2920   27.8540   46.7880 C   0  0  0  0  0  0  0  0  0  0  0  0
   58.9580   29.0580   47.0240 C   0  0  0  0  0  0  0  0  0  0  0  0
   58.5330   30.2480   46.4020 C   0  0  0  0  0  0  0  0  0  0  0  0
   62.5951   31.6305   48.6030 H   0  0  0  0  0  0  0  0  0  0  0  0
   63.5855   31.1076   47.1986 H   0  0  0  0  0  0  0  0  0  0  0  0
   62.8128   32.7291   47.1986 H   0  0  0  0  0  0  0  0  0  0  0  0
   60.1948   31.0702   48.4500 H   0  0  0  0  0  0  0  0  0  0  0  0
   60.5316   32.7002   47.7486 H   0  0  0  0  0  0  0  0  0  0  0  0
   57.1818   33.4221   44.6054 H   0  0  0  0  0  0  0  0  0  0  0  0
   53.3557   24.4078   46.9127 H   0  0  0  0  0  0  0  0  0  0  0  0
   52.7830   25.1341   45.3728 H   0  0  0  0  0  0  0  0  0  0  0  0
   53.5260   23.4987   45.3728 H   0  0  0  0  0  0  0  0  0  0  0  0
   56.0935   23.4148   44.7766 H   0  0  0  0  0  0  0  0  0  0  0  0
   58.6365   26.9355   47.2857 H   0  0  0  0  0  0  0  0  0  0  0  0
   59.8235   29.0775   47.7026 H   0  0  0  0  0  0  0  0  0  0  0  0
  1  2  1  0
  2  3  1  0
  3  4  1  0
  4  5  2  0
  5  6  1  0
  5  7  1  0
  7  8  2  0
  8  9  1  0
  9 10  2  0
 10 11  1  0
 10 12  1  0
 12 13  1  0
 13 14  1  0
 14 15  1  0
 15 16  1  0
 15 17  2  0
 17 18  1  0
 18 19  2  0
 12 20  2  0
 20 21  1  0
 21 22  2  0
 22  4  1  0
 22  9  1  0
 18 13  1  0
  1 23  1  0
  1 24  1  0
  1 25  1  0
  3 26  1  0
  3 27  1  0
  7 28  1  0
 16 29  1  0
 16 30  1  0
 16 31  1  0
 17 32  1  0
 20 33  1  0
 21 34  1  0
M  CHG  1  14  -1
M  END
>  <UniqueID>  (34) 
30

>  <SMILES>  (34) 
COCc1c(F)cnc2c(F)c(-n3[n-]c(C)cc3=O)ccc12

>  <Energy>  (34) 
79.68241191016786

>  <Genealogy>  (34) 
COCc1c(F)cnc2c(F)c(-n3[n-]c(C)cc3=O)ccc12 (protonated)
COCc1c(F)cnc2c(F)c(-n3[n-]c(C)cc3=O)ccc12 (3D coordinates assigned)
COCc1c(F)cnc2c(F)c(-n3[n-]c(C)cc3=O)ccc12 (optimized conformer: 79.68241191016786 kcal/mol)

>  <smiles>  (34) 
COCc1c(F)cnc2c(F)c(-n3[nH]c(C)cc3=O)ccc12

>  <score_type>  (34) 
oracle

>  <origin>  (34) 
adg

>  <m_score__min__energy>  (34) 
-8.4299999999999997

>  <m_primary>  (34) 
energy

$$$$
35:0
     RDKit          3D

 59 63  0  0  0  0  0  0  0  0999 V2000
   56.5700   25.0630   45.3700 C   0  0  0  0  0  0  0  0  0  0  0  0
   57.6320   25.4090   43.9330 S   0  0  0  0  0  0  0  0  0  0  0  0
   58.4990   26.7520   44.7450 C   0  0  0  0  0  0  0  0  0  0  0  0
   58.7050   27.9720   44.0620 C   0  0  0  0  0  0  0  0  0  0  0  0
   59.3660   29.0410   44.6910 C   0  0  0  0  0  0  0  0  0  0  0  0
   59.8050   28.8520   45.9990 C   0  0  0  0  0  0  0  0  0  0  0  0
   60.4310   29.7040   46.8800 C   0  0  0  0  0  0  0  0  0  0  0  0
   60.8350   31.0300   46.7470 C   0  0  0  0  0  0  0  0  0  0  0  0
   61.4140   31.6630   47.8680 C   0  0  0  0  0  0  0  0  0  0  0  0
   61.8460   33.1060   47.7810 C   0  0  0  0  0  0  0  0  0  0  0  0
   61.2420   33.8190   46.5590 C   0  0  0  0  0  0  0  0  0  0  0  0
   60.1190   34.7180   46.9200 N   0  0  0  0  0  0  0  0  0  0  0  0
   59.0100   33.9860   47.5850 C   0  0  0  0  0  0  0  0  0  0  0  0
   57.8520   33.5910   46.6410 C   0  0  0  0  0  0  0  0  0  0  0  0
   58.2850   33.5490   45.2400 N   0  0  0  0  0  0  0  0  0  0  0  0
   57.7650   32.5420   44.3520 C   0  0  0  0  0  0  0  0  0  0  0  0
   57.9760   32.6350   42.9650 C   0  0  0  0  0  0  0  0  0  0  0  0
   57.4670   31.6550   42.1070 C   0  0  0  0  0  0  0  0  0  0  0  0
   56.7400   30.5800   42.6250 C   0  0  0  0  0  0  0  0  0  0  0  0
   56.5220   30.4820   44.0010 C   0  0  0  0  0  0  0  0  0  0  0  0
   57.0330   31.4570   44.8640 C   0  0  0  0  0  0  0  0  0  0  0  0
   59.0220   34.6880   44.6810 C   0  0  0  0  0  0  0  0  0  0  0  0
   59.6280   35.5470   45.7990 C   0  0  0  0  0  0  0  0  0  0  0  0
   61.5740   30.9400   49.0790 C   0  0  0  0  0  0  0  0  0  0  0  0
   61.1600   29.6010   49.1800 C   0  0  0  0  0  0  0  0  0  0  0  0
   60.5900   29.0000   48.0560 C   0  0  0  0  0  0  0  0  0  0  0  0
   60.1080   27.7370   47.9370 N   0  0  0  0  0  0  0  0  0  0  0  0
   60.0260   26.7200   48.9870 C   0  0  0  0  0  0  0  0  0  0  0  0
   59.6120   27.6650   46.6770 C   0  0  0  0  0  0  0  0  0  0  0  0
   58.9520   26.5910   46.0690 C   0  0  0  0  0  0  0  0  0  0  0  0
   57.1346   25.2469   46.2960 H   0  0  0  0  0  0  0  0  0  0  0  0
   55.6885   25.7204   45.3413 H   0  0  0  0  0  0  0  0  0  0  0  0
   56.2450   24.0125   45.3413 H   0  0  0  0  0  0  0  0  0  0  0  0
   58.3448   28.0859   43.0289 H   0  0  0  0  0  0  0  0  0  0  0  0
   59.5310   29.9945   44.1679 H   0  0  0  0  0  0  0  0  0  0  0  0
   60.7067   31.5683   45.7963 H   0  0  0  0  0  0  0  0  0  0  0  0
   61.5215   33.6288   48.6928 H   0  0  0  0  0  0  0  0  0  0  0  0
   62.9409   33.1258   47.6774 H   0  0  0  0  0  0  0  0  0  0  0  0
   62.0291   34.4156   46.0747 H   0  0  0  0  0  0  0  0  0  0  0  0
   60.8458   33.0457   45.8845 H   0  0  0  0  0  0  0  0  0  0  0  0
   59.4211   33.0673   48.0289 H   0  0  0  0  0  0  0  0  0  0  0  0
   58.5858   34.6705   48.3344 H   0  0  0  0  0  0  0  0  0  0  0  0
   57.4803   32.5967   46.9293 H   0  0  0  0  0  0  0  0  0  0  0  0
   57.0605   34.3493   46.7329 H   0  0  0  0  0  0  0  0  0  0  0  0
   58.5439   33.4822   42.5530 H   0  0  0  0  0  0  0  0  0  0  0  0
   57.6391   31.7305   41.0232 H   0  0  0  0  0  0  0  0  0  0  0  0
   56.3392   29.8106   41.9487 H   0  0  0  0  0  0  0  0  0  0  0  0
   55.9473   29.6364   44.4069 H   0  0  0  0  0  0  0  0  0  0  0  0
   56.8613   31.3742   45.9474 H   0  0  0  0  0  0  0  0  0  0  0  0
   59.8303   34.3129   44.0361 H   0  0  0  0  0  0  0  0  0  0  0  0
   58.3242   35.3080   44.0991 H   0  0  0  0  0  0  0  0  0  0  0  0
   60.4688   36.1253   45.3883 H   0  0  0  0  0  0  0  0  0  0  0  0
   58.8420   36.2134   46.1838 H   0  0  0  0  0  0  0  0  0  0  0  0
   62.0282   31.4346   49.9502 H   0  0  0  0  0  0  0  0  0  0  0  0
   61.2817   29.0414   50.1192 H   0  0  0  0  0  0  0  0  0  0  0  0
   60.0652   27.2067   49.9727 H   0  0  0  0  0  0  0  0  0  0  0  0
   59.0803   26.1668   48.8886 H   0  0  0  0  0  0  0  0  0  0  0  0
   60.8708   26.0224   48.8886 H   0  0  0  0  0  0  0  0  0  0  0  0
   58.7914   25.6470   46.6103 H   0  0  0  0  0  0  0  0  0  0  0  0
  1  2  1  0
  2  3  1  0
  3  4  2  0
  4  5  1  0
  5  6  2  0
  6  7  1  0
  7  8  2  0
  8  9  1  0
  9 10  1  0
 10 11  1  0
 11 12  1  0
 12 13  1  0
 13 14  1  0
 14 15  1  0
 15 16  1  0
 16 17  2  0
 17 18  1  0
 18 19  2  0
 19 20  1  0
 20 21  2  0
 15 22  1  0
 22 23  1  0
  9 24  2  0
 24 25  1  0
 25 26  2  0
 26 27  1  0
 27 28  1  0
 27 29  1  0
 29 30  2  0
 30  3  1  0
 29  6  1  0
 26  7  1  0
 23 12  1  0
 21 16  1  0
  1 31  1  0
  1 32  1  0
  1 33  1  0
  4 34  1  0
  5 35  1  0
  8 36  1  0
 10 37  1  0
 10 38  1  0
 11 39  1  0
 11 40  1  0
 13 41  1  0
 13 42  1  0
 14 43  1  0
 14 44  1  0
 17 45  1  0
 18 46  1  0
 19 47  1  0
 20 48  1  0
 21 49  1  0
 22 50  1  0
 22 51  1  0
 23 52  1  0
 23 53  1  0
 24 54  1  0
 25 55  1  0
 28 56  1  0
 28 57  1  0
 28 58  1  0
 30 59  1  0
M  END
>  <UniqueID>  (35) 
31

>  <SMILES>  (35) 
CSc1ccc2c3cc(CCN4CCN(c5ccccc5)CC4)ccc3n(C)c2c1

>  <Energy>  (35) 
113.10405944994766

>  <Genealogy>  (35) 
CSc1ccc2c3cc(CCN4CCN(c5ccccc5)CC4)ccc3n(C)c2c1 (3D coordinates assigned)
CSc1ccc2c3cc(CCN4CCN(c5ccccc5)CC4)ccc3n(C)c2c1 (nonaromatic ring conformer: 113.10405944994766 kcal/mol)

>  <smiles>  (35) 
CSc1ccc2c3cc(CCN4CCN(c5ccccc5)CC4)ccc3n(C)c2c1

>  <score_type>  (35) 
oracle

>  <origin>  (35) 
adg

>  <m_score__min__energy>  (35) 
-9.2300000000000004

>  <m_primary>  (35) 
energy

$$$$
36:0
     RDKit          3D

 44 49  0  0  0  0  0  0  0  0999 V2000
   60.0000   34.2120   49.3600 Br  0  0  0  0  0  0  0  0  0  0  0  0
   61.4110   33.2420   48.4970 C   0  0  0  0  0  0  0  0  0  0  0  0
   62.5710   33.9670   48.1960 C   0  0  0  0  0  0  0  0  0  0  0  0
   63.6300   33.3640   47.5180 C   0  0  0  0  0  0  0  0  0  0  0  0
   63.5350   32.0330   47.1220 C   0  0  0  0  0  0  0  0  0  0  0  0
   62.3870   31.2960   47.4150 C   0  0  0  0  0  0  0  0  0  0  0  0
   61.3170   31.8730   48.1290 C   0  0  0  0  0  0  0  0  0  0  0  0
   60.0870   31.0100   48.4010 C   0  0  2  0  0  0  0  0  0  0  0  0
   60.4700   29.8820   49.3130 C   0  0  0  0  0  0  0  0  0  0  0  0
   61.0420   29.9900   50.5350 N   0  0  0  0  0  0  0  0  0  0  0  0
   61.2050   28.7200   50.9630 C   0  0  0  0  0  0  0  0  0  0  0  0
   61.7610   28.2970   52.1690 C   0  0  0  0  0  0  0  0  0  0  0  0
   61.8330   26.9100   52.4090 C   0  0  0  0  0  0  0  0  0  0  0  0
   61.3550   25.9880   51.4500 C   0  0  0  0  0  0  0  0  0  0  0  0
   60.7990   26.4410   50.2390 C   0  0  0  0  0  0  0  0  0  0  0  0
   60.7420   27.8170   50.0320 C   0  0  0  0  0  0  0  0  0  0  0  0
   60.2720   28.5670   48.9860 C   0  0  0  0  0  0  0  0  0  0  0  0
   59.6980   28.1570   47.7930 O   0  0  0  0  0  0  0  0  0  0  0  0
   59.2600   29.1120   46.8640 C   0  0  0  0  0  0  0  0  0  0  0  0
   58.6920   28.6540   45.6770 C   0  0  0  0  0  0  0  0  0  0  0  0
   58.2260   29.5480   44.7220 C   0  0  0  0  0  0  0  0  0  0  0  0
   58.2840   30.9250   44.9530 C   0  0  0  0  0  0  0  0  0  0  0  0
   57.7720   31.8100   43.9910 C   0  0  0  0  0  0  0  0  0  0  0  0
   57.7860   33.1850   44.2190 C   0  0  0  0  0  0  0  0  0  0  0  0
   58.2980   33.6880   45.4140 C   0  0  0  0  0  0  0  0  0  0  0  0
   58.8150   32.8210   46.3800 C   0  0  0  0  0  0  0  0  0  0  0  0
   58.8420   31.4260   46.1610 C   0  0  0  0  0  0  0  0  0  0  0  0
   59.3900   30.5150   47.1140 C   0  0  0  0  0  0  0  0  0  0  0  0
   62.6474   35.0222   48.4973 H   0  0  0  0  0  0  0  0  0  0  0  0
   64.5404   33.9402   47.2962 H   0  0  0  0  0  0  0  0  0  0  0  0
   64.3662   31.5614   46.5772 H   0  0  0  0  0  0  0  0  0  0  0  0
   62.3158   30.2494   47.0840 H   0  0  0  0  0  0  0  0  0  0  0  0
   59.3331   31.6370   48.8996 H   0  0  0  0  0  0  0  0  0  0  0  0
   61.3050   30.8680   51.0370 H   0  0  0  0  0  0  0  0  0  0  0  0
   62.1314   29.0217   52.9090 H   0  0  0  0  0  0  0  0  0  0  0  0
   62.2651   26.5416   53.3511 H   0  0  0  0  0  0  0  0  0  0  0  0
   61.4181   24.9085   51.6517 H   0  0  0  0  0  0  0  0  0  0  0  0
   60.4235   25.7345   49.4841 H   0  0  0  0  0  0  0  0  0  0  0  0
   58.6118   27.5722   45.4943 H   0  0  0  0  0  0  0  0  0  0  0  0
   57.8084   29.1697   43.7773 H   0  0  0  0  0  0  0  0  0  0  0  0
   57.3572   31.4159   43.0515 H   0  0  0  0  0  0  0  0  0  0  0  0
   57.3931   33.8731   43.4560 H   0  0  0  0  0  0  0  0  0  0  0  0
   58.2950   34.7726   45.5973 H   0  0  0  0  0  0  0  0  0  0  0  0
   59.2060   33.2302   47.3232 H   0  0  0  0  0  0  0  0  0  0  0  0
  1  2  1  0
  2  3  2  0
  3  4  1  0
  4  5  2  0
  5  6  1  0
  6  7  2  0
  7  8  1  0
  8  9  1  0
  9 10  1  0
 10 11  1  0
 11 12  2  0
 12 13  1  0
 13 14  2  0
 14 15  1  0
 15 16  2  0
 16 17  1  0
 17 18  1  0
 18 19  1  0
 19 20  2  0
 20 21  1  0
 21 22  2  0
 22 23  1  0
 23 24  2  0
 24 25  1  0
 25 26  2  0
 26 27  1  0
 27 28  2  0
  7  2  1  0
 28  8  1  0
 17  9  2  0
 28 19  1  0
 16 11  1  0
 27 22  1  0
  3 29  1  0
  4 30  1  0
  5 31  1  0
  6 32  1  0
  8 33  1  1
 10 34  1  0
 12 35  1  0
 13 36  1  0
 14 37  1  0
 15 38  1  0
 20 39  1  0
 21 40  1  0
 23 41  1  0
 24 42  1  0
 25 43  1  0
 26 44  1  0
M  END
>  <UniqueID>  (36) 
32

>  <SMILES>  (36) 
Brc1ccccc1[C@@H]1c2[nH]c3ccccc3c2Oc2ccc3ccccc3c21

>  <Energy>  (36) 
101.63673938183287

>  <Genealogy>  (36) 
Brc1ccccc1[C@@H]1c2[nH]c3ccccc3c2Oc2ccc3ccccc3c21 (chirality)
Brc1ccccc1[C@@H]1c2[nH]c3ccccc3c2Oc2ccc3ccccc3c21 (3D coordinates assigned)
Brc1ccccc1[C@@H]1c2[nH]c3ccccc3c2Oc2ccc3ccccc3c21 (nonaromatic ring conformer: 101.63673938183287 kcal/mol)

>  <smiles>  (36) 
Brc1ccccc1C1c2[nH]c3ccccc3c2Oc2ccc3ccccc3c21

>  <score_type>  (36) 
oracle

>  <origin>  (36) 
adg

>  <m_score__min__energy>  (36) 
-8.6300000000000008

>  <m_primary>  (36) 
energy

$$$$
37:0
     RDKit          3D

 30 31  0  0  0  0  0  0  0  0999 V2000
   56.3150   33.6770   45.5980 F   0  0  0  0  0  0  0  0  0  0  0  0
   57.6340   33.7220   45.9090 C   0  0  0  0  0  0  0  0  0  0  0  0
   58.5610   34.1700   44.9630 C   0  0  0  0  0  0  0  0  0  0  0  0
   59.9220   34.2160   45.2810 C   0  0  0  0  0  0  0  0  0  0  0  0
   60.3660   33.8150   46.5540 C   0  0  0  0  0  0  0  0  0  0  0  0
   61.8360   33.8450   46.8860 C   0  0  0  0  0  0  0  0  0  0  0  0
   62.3900   32.4370   47.1360 C   0  0  0  0  0  0  0  0  0  0  0  0
   63.7780   32.4770   47.6010 N   0  0  0  0  0  0  0  0  0  0  0  0
   64.1360   32.9120   48.9200 C   0  0  0  0  0  0  0  0  0  0  0  0
   63.2830   33.2850   49.8110 N   0  0  0  0  0  0  0  0  0  0  0  0
   63.9700   33.6630   51.0380 C   0  0  0  0  0  0  0  0  0  0  0  0
   65.4640   33.4470   50.7330 C   0  0  0  0  0  0  0  0  0  0  0  0
   65.4760   32.9680   49.3630 N   0  0  0  0  0  0  0  0  0  0  0  0
   59.4280   33.3630   47.4980 C   0  0  0  0  0  0  0  0  0  0  0  0
   58.0680   33.3190   47.1760 C   0  0  0  0  0  0  0  0  0  0  0  0
   58.2191   34.4869   43.9667 H   0  0  0  0  0  0  0  0  0  0  0  0
   60.6480   34.5671   44.5329 H   0  0  0  0  0  0  0  0  0  0  0  0
   62.3820   34.2989   46.0459 H   0  0  0  0  0  0  0  0  0  0  0  0
   61.9678   34.4336   47.8059 H   0  0  0  0  0  0  0  0  0  0  0  0
   61.7723   31.9409   47.8991 H   0  0  0  0  0  0  0  0  0  0  0  0
   62.3619   31.8832   46.1860 H   0  0  0  0  0  0  0  0  0  0  0  0
   64.5510   32.1760   46.9660 H   0  0  0  0  0  0  0  0  0  0  0  0
   62.2470   33.3140   49.6840 H   0  0  0  0  0  0  0  0  0  0  0  0
   63.7729   34.7169   51.2839 H   0  0  0  0  0  0  0  0  0  0  0  0
   63.6324   33.0724   51.9025 H   0  0  0  0  0  0  0  0  0  0  0  0
   66.0219   34.3908   50.8223 H   0  0  0  0  0  0  0  0  0  0  0  0
   65.9419   32.7446   51.4317 H   0  0  0  0  0  0  0  0  0  0  0  0
   66.3220   32.7130   48.8060 H   0  0  0  0  0  0  0  0  0  0  0  0
   59.7653   33.0424   48.4947 H   0  0  0  0  0  0  0  0  0  0  0  0
   57.3385   32.9669   47.9202 H   0  0  0  0  0  0  0  0  0  0  0  0
  1  2  1  0
  2  3  2  0
  3  4  1  0
  4  5  2  0
  5  6  1  0
  6  7  1  0
  7  8  1  0
  8  9  1  0
  9 10  2  0
 10 11  1  0
 11 12  1  0
 12 13  1  0
  5 14  1  0
 14 15  2  0
 15  2  1  0
 13  9  1  0
  3 16  1  0
  4 17  1  0
  6 18  1  0
  6 19  1  0
  7 20  1  0
  7 21  1  0
  8 22  1  0
 10 23  1  0
 11 24  1  0
 11 25  1  0
 12 26  1  0
 12 27  1  0
 13 28  1  0
 14 29  1  0
 15 30  1  0
M  CHG  1  10   1
M  END
>  <UniqueID>  (37) 
33

>  <SMILES>  (37) 
Fc1ccc(CCNC2=[NH+]CCN2)cc1

>  <Energy>  (37) 
35.921738045022806

>  <Genealogy>  (37) 
Fc1ccc(CCNC2=[NH+]CCN2)cc1 (protonated)
Fc1ccc(CCNC2=[NH+]CCN2)cc1 (3D coordinates assigned)
Fc1ccc(CCNC2=[NH+]CCN2)cc1 (nonaromatic ring conformer: 35.921738045022806 kcal/mol)

>  <smiles>  (37) 
Fc1ccc(CCNC2=NCCN2)cc1

>  <score_type>  (37) 
oracle

>  <origin>  (37) 
adg

>  <m_score__min__energy>  (37) 
-4.2199999999999998

>  <m_primary>  (37) 
energy

$$$$
38:0
     RDKit          3D

 49 52  0  0  0  0  0  0  0  0999 V2000
   59.2515   26.0777   47.3106 H   0  0  0  0  0  0  0  0  0  0  0  0
   59.1910   27.1630   47.1420 C   0  0  0  0  0  0  0  0  0  0  0  0
   59.6650   28.0490   48.1140 C   0  0  0  0  0  0  0  0  0  0  0  0
   60.3970   27.5180   49.3120 C   0  0  0  0  0  0  0  0  0  0  0  0
   59.9058   27.8743   50.2295 H   0  0  0  0  0  0  0  0  0  0  0  0
   60.3834   26.4183   49.2922 H   0  0  0  0  0  0  0  0  0  0  0  0
   61.4382   27.8723   49.2922 H   0  0  0  0  0  0  0  0  0  0  0  0
   59.5350   29.4330   47.9160 C   0  0  0  0  0  0  0  0  0  0  0  0
   59.9799   30.1230   48.6481 H   0  0  0  0  0  0  0  0  0  0  0  0
   58.8470   29.9630   46.8000 C   0  0  0  0  0  0  0  0  0  0  0  0
   58.5890   31.3860   46.6730 C   0  0  0  0  0  0  0  0  0  0  0  0
   58.3840   32.1760   47.6980 N   0  0  0  0  0  0  0  0  0  0  0  0
   59.2180   32.5980   48.8290 C   0  0  0  0  0  0  0  0  0  0  0  0
   58.6103   33.2040   49.5171 H   0  0  0  0  0  0  0  0  0  0  0  0
   59.5977   31.6996   49.3376 H   0  0  0  0  0  0  0  0  0  0  0  0
   60.4200   33.4340   48.3500 C   0  0  0  0  0  0  0  0  0  0  0  0
   60.0511   34.4204   48.0323 H   0  0  0  0  0  0  0  0  0  0  0  0
   61.1216   33.4971   49.1948 H   0  0  0  0  0  0  0  0  0  0  0  0
   61.1610   32.8280   47.2210 N   0  0  0  0  0  0  0  0  0  0  0  0
   61.9170   33.7860   46.3870 C   0  0  0  0  0  0  0  0  0  0  0  0
   61.9015   33.4316   45.3458 H   0  0  0  0  0  0  0  0  0  0  0  0
   61.4331   34.7678   46.4957 H   0  0  0  0  0  0  0  0  0  0  0  0
   63.3900   33.9470   46.8300 C   0  0  0  0  0  0  0  0  0  0  0  0
   64.0372   33.7884   45.9548 H   0  0  0  0  0  0  0  0  0  0  0  0
   63.4966   34.9598   47.2458 H   0  0  0  0  0  0  0  0  0  0  0  0
   63.7720   33.0360   47.8420 O   0  0  0  0  0  0  0  0  0  0  0  0
   63.4020   31.7300   47.4660 C   0  0  0  0  0  0  0  0  0  0  0  0
   63.7394   31.5385   46.4367 H   0  0  0  0  0  0  0  0  0  0  0  0
   63.8711   31.0110   48.1537 H   0  0  0  0  0  0  0  0  0  0  0  0
   61.8760   31.5720   47.5380 C   0  0  0  0  0  0  0  0  0  0  0  0
   61.5670   30.7990   46.8190 H   0  0  0  0  0  0  0  0  0  0  0  0
   61.6172   31.2912   48.5696 H   0  0  0  0  0  0  0  0  0  0  0  0
   58.3740   31.9750   45.3950 C   0  0  0  0  0  0  0  0  0  0  0  0
   58.1160   31.2750   44.2480 C   0  0  0  0  0  0  0  0  0  0  0  0
   58.0520   29.6070   44.2440 S   0  0  0  0  0  0  0  0  0  0  0  0
   58.5120   29.0320   45.7680 C   0  0  0  0  0  0  0  0  0  0  0  0
   58.6430   27.6540   45.9620 C   0  0  0  0  0  0  0  0  0  0  0  0
   58.3117   26.9560   45.1791 H   0  0  0  0  0  0  0  0  0  0  0  0
   57.8360   32.1980   43.2680 C   0  0  0  0  0  0  0  0  0  0  0  0
   57.3900   31.9190   41.8710 C   0  0  0  0  0  0  0  0  0  0  0  0
   56.4576   31.3357   41.8933 H   0  0  0  0  0  0  0  0  0  0  0  0
   57.2155   32.8693   41.3451 H   0  0  0  0  0  0  0  0  0  0  0  0
   58.1682   31.3464   41.3451 H   0  0  0  0  0  0  0  0  0  0  0  0
   57.9070   33.4290   43.8120 N   0  0  0  0  0  0  0  0  0  0  0  0
   58.2390   33.2950   45.0920 N   0  0  0  0  0  0  0  0  0  0  0  0
   58.4040   34.4450   45.9780 C   0  0  0  0  0  0  0  0  0  0  0  0
   58.3561   34.1111   47.0250 H   0  0  0  0  0  0  0  0  0  0  0  0
   59.3791   34.9173   45.7880 H   0  0  0  0  0  0  0  0  0  0  0  0
   57.6010   35.1724   45.7880 H   0  0  0  0  0  0  0  0  0  0  0  0
  1  2  1  0
  2  3  2  0
  3  4  1  0
  4  5  1  0
  4  6  1  0
  4  7  1  0
  3  8  1  0
  8  9  1  0
  8 10  2  0
 10 11  1  0
 11 12  2  0
 12 13  1  0
 13 14  1  0
 13 15  1  0
 13 16  1  0
 16 17  1  0
 16 18  1  0
 16 19  1  0
 19 20  1  0
 20 21  1  0
 20 22  1  0
 20 23  1  0
 23 24  1  0
 23 25  1  0
 23 26  1  0
 26 27  1  0
 27 28  1  0
 27 29  1  0
 27 30  1  0
 30 31  1  0
 30 32  1  0
 11 33  1  0
 33 34  2  0
 34 35  1  0
 35 36  1  0
 36 37  2  0
 37 38  1  0
 34 39  1  0
 39 40  1  0
 40 41  1  0
 40 42  1  0
 40 43  1  0
 39 44  2  0
 44 45  1  0
 45 46  1  0
 46 47  1  0
 46 48  1  0
 46 49  1  0
 37  2  1  0
 36 10  1  0
 30 19  1  0
 45 33  1  0
M  END
>  <UniqueID>  (38) 
34

>  <SMILES>  (38) 
Cc1ccc2sc3c(C)nn(C)c3/c(=N/CCN3CCOCC3)c2c1

>  <Energy>  (38) 
128.66008872384992

>  <Genealogy>  (38) 
Cc1ccc2sc3c(C)nn(C)c3/c(=N/CCN3CCOCC3)c2c1 (cis-trans isomerization)
Cc1ccc2sc3c(C)nn(C)c3/c(=N/CCN3CCOCC3)c2c1 (3D coordinates assigned)
Cc1ccc2sc3c(C)nn(C)c3/c(=N/CCN3CCOCC3)c2c1 (nonaromatic ring conformer: 128.66008872384992 kcal/mol)

>  <smiles>  (38) 
Cc1ccc2sc3c(C)nn(C)c3c(=NCCN3CCOCC3)c2c1

>  <score_type>  (38) 
oracle

>  <origin>  (38) 
adg

>  <m_score__min__energy>  (38) 
-8.0600000000000005

>  <m_primary>  (38) 
energy

$$$$
39:0
     RDKit          3D

 63 67  0  0  0  0  0  0  0  0999 V2000
   65.4870   33.6010   51.1960 C   0  0  0  0  0  0  0  0  0  0  0  0
   65.4210   32.6930   49.9670 C   0  0  0  0  0  0  0  0  0  0  0  0
   64.1210   32.8130   49.2720 N   0  0  0  0  0  0  0  0  0  0  0  0
   63.3060   31.5840   49.4450 C   0  0  0  0  0  0  0  0  0  0  0  0
   61.8070   31.7960   49.1390 C   0  0  0  0  0  0  0  0  0  0  0  0
   61.5760   33.0360   48.3940 N   0  0  0  0  0  0  0  0  0  0  0  0
   60.6970   33.0290   47.2560 C   0  0  0  0  0  0  0  0  0  0  0  0
   60.8430   32.1410   46.3760 O   0  0  0  0  0  0  0  0  0  0  0  0
   59.5610   34.0230   47.1410 C   0  0  0  0  0  0  0  0  0  0  0  0
   59.5750   34.7460   45.7710 C   0  0  0  0  0  0  0  0  0  0  0  0
   59.0460   33.8640   44.6230 C   0  0  0  0  0  0  0  0  0  0  0  0
   57.9020   33.0420   45.0510 N   0  0  0  0  0  0  0  0  0  0  0  0
   57.6350   31.7790   44.4080 C   0  0  0  0  0  0  0  0  0  0  0  0
   56.9380   31.7330   43.2310 N   0  0  0  0  0  0  0  0  0  0  0  0
   56.6470   30.5460   42.6090 C   0  0  0  0  0  0  0  0  0  0  0  0
   57.0530   29.3610   43.1540 N   0  0  0  0  0  0  0  0  0  0  0  0
   57.7460   29.4020   44.3190 C   0  0  0  0  0  0  0  0  0  0  0  0
   58.0460   30.5600   44.9520 C   0  0  0  0  0  0  0  0  0  0  0  0
   58.7630   30.3150   46.0640 N   0  0  0  0  0  0  0  0  0  0  0  0
   58.8650   28.9560   46.0700 C   0  0  0  0  0  0  0  0  0  0  0  0
   58.2570   28.3700   45.0020 N   0  0  0  0  0  0  0  0  0  0  0  0
   58.1970   26.9500   44.6550 C   0  0  0  0  0  0  0  0  0  0  0  0
   57.3700   26.1610   45.6790 C   0  0  0  0  0  0  0  0  0  0  0  0
   57.7670   26.4050   47.1490 C   0  0  0  0  0  0  0  0  0  0  0  0
   59.2610   26.7300   47.3360 C   0  0  0  0  0  0  0  0  0  0  0  0
   59.6080   28.2260   47.1620 C   0  0  0  0  0  0  0  0  0  0  0  0
   57.2120   33.3910   46.2960 C   0  0  0  0  0  0  0  0  0  0  0  0
   58.2020   33.3350   47.4620 C   0  0  0  0  0  0  0  0  0  0  0  0
   62.2100   34.2850   48.8350 C   0  0  0  0  0  0  0  0  0  0  0  0
   63.3920   33.9960   49.7640 C   0  0  0  0  0  0  0  0  0  0  0  0
   65.4424   32.9875   52.1079 H   0  0  0  0  0  0  0  0  0  0  0  0
   66.4288   34.1691   51.1820 H   0  0  0  0  0  0  0  0  0  0  0  0
   64.6372   34.2994   51.1820 H   0  0  0  0  0  0  0  0  0  0  0  0
   66.2253   32.9745   49.2713 H   0  0  0  0  0  0  0  0  0  0  0  0
   65.5381   31.6516   50.3013 H   0  0  0  0  0  0  0  0  0  0  0  0
   63.6944   30.8094   48.7674 H   0  0  0  0  0  0  0  0  0  0  0  0
   63.3838   31.2879   50.5015 H   0  0  0  0  0  0  0  0  0  0  0  0
   61.4418   30.9478   48.5414 H   0  0  0  0  0  0  0  0  0  0  0  0
   61.2683   31.8653   50.0956 H   0  0  0  0  0  0  0  0  0  0  0  0
   59.7029   34.8126   47.8936 H   0  0  0  0  0  0  0  0  0  0  0  0
   58.9452   35.6451   45.8420 H   0  0  0  0  0  0  0  0  0  0  0  0
   60.6209   34.9966   45.5402 H   0  0  0  0  0  0  0  0  0  0  0  0
   58.7286   34.5120   43.7927 H   0  0  0  0  0  0  0  0  0  0  0  0
   59.8552   33.1885   44.3085 H   0  0  0  0  0  0  0  0  0  0  0  0
   56.0828   30.5481   41.6647 H   0  0  0  0  0  0  0  0  0  0  0  0
   57.7353   26.8428   43.6623 H   0  0  0  0  0  0  0  0  0  0  0  0
   59.2214   26.5492   44.6527 H   0  0  0  0  0  0  0  0  0  0  0  0
   56.3137   26.4429   45.5575 H   0  0  0  0  0  0  0  0  0  0  0  0
   57.5580   25.0960   45.4778 H   0  0  0  0  0  0  0  0  0  0  0  0
   57.1762   27.2494   47.5337 H   0  0  0  0  0  0  0  0  0  0  0  0
   57.5676   25.4724   47.6971 H   0  0  0  0  0  0  0  0  0  0  0  0
   59.5572   26.4223   48.3497 H   0  0  0  0  0  0  0  0  0  0  0  0
   59.8049   26.1848   46.5506 H   0  0  0  0  0  0  0  0  0  0  0  0
   59.3921   28.7342   48.1134 H   0  0  0  0  0  0  0  0  0  0  0  0
   60.6675   28.2518   46.8674 H   0  0  0  0  0  0  0  0  0  0  0  0
   56.7995   34.4074   46.2139 H   0  0  0  0  0  0  0  0  0  0  0  0
   56.3949   32.6766   46.4746 H   0  0  0  0  0  0  0  0  0  0  0  0
   57.7505   33.8388   48.3294 H   0  0  0  0  0  0  0  0  0  0  0  0
   58.4106   32.2743   47.6652 H   0  0  0  0  0  0  0  0  0  0  0  0
   62.5700   34.8372   47.9544 H   0  0  0  0  0  0  0  0  0  0  0  0
   61.4676   34.8825   49.3844 H   0  0  0  0  0  0  0  0  0  0  0  0
   64.0678   34.8638   49.7795 H   0  0  0  0  0  0  0  0  0  0  0  0
   63.0220   33.8036   50.7819 H   0  0  0  0  0  0  0  0  0  0  0  0
  1  2  1  0
  2  3  1  0
  3  4  1  0
  4  5  1  0
  5  6  1  0
  6  7  1  0
  7  8  2  0
  7  9  1  0
  9 10  1  0
 10 11  1  0
 11 12  1  0
 12 13  1  0
 13 14  2  0
 14 15  1  0
 15 16  2  0
 16 17  1  0
 17 18  2  0
 18 19  1  0
 19 20  2  0
 20 21  1  0
 21 22  1  0
 22 23  1  0
 23 24  1  0
 24 25  1  0
 25 26  1  0
 12 27  1  0
 27 28  1  0
  6 29  1  0
 29 30  1  0
 30  3  1  0
 28  9  1  0
 18 13  1  0
 26 20  1  0
 21 17  1  0
  1 31  1  0
  1 32  1  0
  1 33  1  0
  2 34  1  0
  2 35  1  0
  4 36  1  0
  4 37  1  0
  5 38  1  0
  5 39  1  0
  9 40  1  0
 10 41  1  0
 10 42  1  0
 11 43  1  0
 11 44  1  0
 15 45  1  0
 22 46  1  0
 22 47  1  0
 23 48  1  0
 23 49  1  0
 24 50  1  0
 24 51  1  0
 25 52  1  0
 25 53  1  0
 26 54  1  0
 26 55  1  0
 27 56  1  0
 27 57  1  0
 28 58  1  0
 28 59  1  0
 29 60  1  0
 29 61  1  0
 30 62  1  0
 30 63  1  0
M  END
>  <UniqueID>  (39) 
35

>  <SMILES>  (39) 
CCN1CCN(C(=O)C2CCN(c3ncnc4c3nc3n4CCCCC3)CC2)CC1

>  <Energy>  (39) 
124.89830288080616

>  <Genealogy>  (39) 
CCN1CCN(C(=O)C2CCN(c3ncnc4c3nc3n4CCCCC3)CC2)CC1 (3D coordinates assigned)
CCN1CCN(C(=O)C2CCN(c3ncnc4c3nc3n4CCCCC3)CC2)CC1 (nonaromatic ring conformer: 124.89830288080616 kcal/mol)

>  <smiles>  (39) 
CCN1CCN(C(=O)C2CCN(c3ncnc4c3nc3n4CCCCC3)CC2)CC1

>  <score_type>  (39) 
oracle

>  <origin>  (39) 
adg

>  <m_score__min__energy>  (39) 
-6.9100000000000001

>  <m_primary>  (39) 
energy

$$$$
40:0
     RDKit          3D

 50 51  0  0  0  0  0  0  0  0999 V2000
   56.9550   30.8780   42.5920 C   0  0  0  0  0  0  0  0  0  0  0  0
   58.1440   31.7760   42.9240 C   0  0  0  0  0  0  0  0  0  0  0  0
   58.0410   32.3240   44.3280 C   0  0  0  0  0  0  0  0  0  0  0  0
   57.6640   33.6690   44.5050 C   0  0  0  0  0  0  0  0  0  0  0  0
   57.5540   34.2130   45.7860 C   0  0  0  0  0  0  0  0  0  0  0  0
   57.8220   33.4250   46.9060 C   0  0  0  0  0  0  0  0  0  0  0  0
   58.1990   32.0910   46.7480 C   0  0  0  0  0  0  0  0  0  0  0  0
   58.3100   31.5300   45.4660 C   0  0  0  0  0  0  0  0  0  0  0  0
   58.7100   30.1570   45.3400 N   0  0  0  0  0  0  0  0  0  0  0  0
   60.1160   29.7870   45.5210 C   0  0  0  0  0  0  0  0  0  0  0  0
   60.5740   30.1250   46.9090 C   0  0  0  0  0  0  0  0  0  0  0  0
   61.7600   30.5180   47.0850 O   0  0  0  0  0  0  0  0  0  0  0  0
   59.6870   29.9550   48.0250 N   0  0  0  0  0  0  0  0  0  0  0  0
   60.0730   30.2600   49.4030 C   0  0  0  0  0  0  0  0  0  0  0  0
   59.6620   31.6850   49.7710 C   0  0  0  0  0  0  0  0  0  0  0  0
   61.0720   32.5960   50.4950 S   0  0  0  0  0  0  0  0  0  0  0  0
   61.8090   33.0060   48.9120 C   0  0  0  0  0  0  0  0  0  0  0  0
   63.1800   32.8110   48.7140 C   0  0  0  0  0  0  0  0  0  0  0  0
   63.7660   33.1350   47.4860 C   0  0  0  0  0  0  0  0  0  0  0  0
   62.9810   33.6520   46.4510 C   0  0  0  0  0  0  0  0  0  0  0  0
   61.6100   33.8500   46.6470 C   0  0  0  0  0  0  0  0  0  0  0  0
   61.0240   33.5280   47.8780 C   0  0  0  0  0  0  0  0  0  0  0  0
   57.4910   28.9220   45.3860 S   0  0  0  0  0  0  0  0  0  0  0  0
   57.7660   27.7480   44.0790 C   0  0  0  0  0  0  0  0  0  0  0  0
   56.1300   29.5360   45.2140 O   0  0  0  0  0  0  0  0  0  0  0  0
   57.5410   28.2200   46.7140 O   0  0  0  0  0  0  0  0  0  0  0  0
   56.4894   30.5264   43.5245 H   0  0  0  0  0  0  0  0  0  0  0  0
   56.2181   31.4470   42.0061 H   0  0  0  0  0  0  0  0  0  0  0  0
   57.3007   30.0136   42.0061 H   0  0  0  0  0  0  0  0  0  0  0  0
   59.0712   31.1910   42.8345 H   0  0  0  0  0  0  0  0  0  0  0  0
   58.1486   32.6213   42.2202 H   0  0  0  0  0  0  0  0  0  0  0  0
   57.4543   34.2966   43.6263 H   0  0  0  0  0  0  0  0  0  0  0  0
   57.2557   35.2642   45.9126 H   0  0  0  0  0  0  0  0  0  0  0  0
   57.7360   33.8560   47.9144 H   0  0  0  0  0  0  0  0  0  0  0  0
   58.4107   31.4746   47.6341 H   0  0  0  0  0  0  0  0  0  0  0  0
   60.2298   28.7055   45.3556 H   0  0  0  0  0  0  0  0  0  0  0  0
   60.7272   30.3477   44.7984 H   0  0  0  0  0  0  0  0  0  0  0  0
   58.7190   29.6080   47.8460 H   0  0  0  0  0  0  0  0  0  0  0  0
   59.5758   29.5528   50.0832 H   0  0  0  0  0  0  0  0  0  0  0  0
   61.1655   30.1699   49.4947 H   0  0  0  0  0  0  0  0  0  0  0  0
   59.3207   32.2079   48.8654 H   0  0  0  0  0  0  0  0  0  0  0  0
   58.8512   31.6393   50.5130 H   0  0  0  0  0  0  0  0  0  0  0  0
   63.7988   32.4018   49.5262 H   0  0  0  0  0  0  0  0  0  0  0  0
   64.8449   32.9830   47.3345 H   0  0  0  0  0  0  0  0  0  0  0  0
   63.4408   33.9028   45.4837 H   0  0  0  0  0  0  0  0  0  0  0  0
   60.9919   34.2587   45.8341 H   0  0  0  0  0  0  0  0  0  0  0  0
   59.9463   33.6856   48.0318 H   0  0  0  0  0  0  0  0  0  0  0  0
   57.9965   26.7638   44.5127 H   0  0  0  0  0  0  0  0  0  0  0  0
   56.8613   27.6722   43.4579 H   0  0  0  0  0  0  0  0  0  0  0  0
   58.6103   28.0818   43.4579 H   0  0  0  0  0  0  0  0  0  0  0  0
  1  2  1  0
  2  3  1  0
  3  4  2  0
  4  5  1  0
  5  6  2  0
  6  7  1  0
  7  8  2  0
  8  9  1  0
  9 10  1  0
 10 11  1  0
 11 12  2  0
 11 13  1  0
 13 14  1  0
 14 15  1  0
 15 16  1  0
 16 17  1  0
 17 18  2  0
 18 19  1  0
 19 20  2  0
 20 21  1  0
 21 22  2  0
  9 23  1  0
 23 24  1  0
 23 25  2  0
 23 26  2  0
  8  3  1  0
 22 17  1  0
  1 27  1  0
  1 28  1  0
  1 29  1  0
  2 30  1  0
  2 31  1  0
  4 32  1  0
  5 33  1  0
  6 34  1  0
  7 35  1  0
 10 36  1  0
 10 37  1  0
 13 38  1  0
 14 39  1  0
 14 40  1  0
 15 41  1  0
 15 42  1  0
 18 43  1  0
 19 44  1  0
 20 45  1  0
 21 46  1  0
 22 47  1  0
 24 48  1  0
 24 49  1  0
 24 50  1  0
M  END
>  <UniqueID>  (40) 
36

>  <SMILES>  (40) 
CCc1ccccc1N(CC(=O)NCCSc1ccccc1)S(C)(=O)=O

>  <Energy>  (40) 
37.42484490523771

>  <Genealogy>  (40) 
CCc1ccccc1N(CC(=O)NCCSc1ccccc1)S(C)(=O)=O (3D coordinates assigned)
CCc1ccccc1N(CC(=O)NCCSc1ccccc1)S(C)(=O)=O (optimized conformer: 37.42484490523771 kcal/mol)

>  <smiles>  (40) 
CCc1ccccc1N(CC(=O)NCCSc1ccccc1)S(C)(=O)=O

>  <score_type>  (40) 
oracle

>  <origin>  (40) 
adg

>  <m_score__min__energy>  (40) 
-8.3699999999999992

>  <m_primary>  (40) 
energy

$$$$
41:0
     RDKit          3D

 48 51  0  0  0  0  0  0  0  0999 V2000
   58.0500   30.6630   43.7870 C   0  0  0  0  0  0  0  0  0  0  0  0
   58.4050   30.3110   45.2120 C   0  0  0  0  0  0  0  0  0  0  0  0
   58.1570   29.0180   45.7440 C   0  0  0  0  0  0  0  0  0  0  0  0
   57.3180   28.1000   45.0720 C   0  0  0  0  0  0  0  0  0  0  0  0
   57.0690   26.8360   45.6010 C   0  0  0  0  0  0  0  0  0  0  0  0
   57.6280   26.4650   46.8170 C   0  0  0  0  0  0  0  0  0  0  0  0
   58.4450   27.3520   47.5140 C   0  0  0  0  0  0  0  0  0  0  0  0
   58.7410   28.6360   46.9960 C   0  0  0  0  0  0  0  0  0  0  0  0
   59.5910   29.5420   47.7010 C   0  0  0  0  0  0  0  0  0  0  0  0
   60.4440   29.0330   48.8400 C   0  0  0  0  0  0  0  0  0  0  0  0
   59.6170   30.8960   47.2650 C   0  0  0  0  0  0  0  0  0  0  0  0
   59.0210   31.2520   46.0570 C   0  0  0  0  0  0  0  0  0  0  0  0
   59.1550   32.6310   45.9420 C   0  0  0  0  0  0  0  0  0  0  0  0
   58.6470   33.5560   45.0170 C   0  0  0  0  0  0  0  0  0  0  0  0
   58.9050   34.9190   45.2230 C   0  0  0  0  0  0  0  0  0  0  0  0
   59.6250   35.3450   46.3530 C   0  0  0  0  0  0  0  0  0  0  0  0
   60.0820   34.4110   47.2950 C   0  0  0  0  0  0  0  0  0  0  0  0
   59.8340   33.0490   47.0650 C   0  0  0  0  0  0  0  0  0  0  0  0
   60.1310   32.0090   47.8860 N   0  0  0  0  0  0  0  0  0  0  0  0
   60.7360   32.1680   49.2190 C   0  0  0  0  0  0  0  0  0  0  0  0
   62.2660   32.3270   49.1430 C   0  0  0  0  0  0  0  0  0  0  0  0
   62.7040   32.6650   47.7690 N   0  0  0  0  0  0  0  0  0  0  0  0
   63.6010   33.8330   47.7580 C   0  0  0  0  0  0  0  0  0  0  0  0
   63.3700   31.5220   47.1250 C   0  0  0  0  0  0  0  0  0  0  0  0
   57.2689   31.4375   43.7843 H   0  0  0  0  0  0  0  0  0  0  0  0
   58.9436   31.0417   43.2693 H   0  0  0  0  0  0  0  0  0  0  0  0
   57.6789   29.7662   43.2693 H   0  0  0  0  0  0  0  0  0  0  0  0
   56.8548   28.3884   44.1169 H   0  0  0  0  0  0  0  0  0  0  0  0
   56.4276   26.1293   45.0540 H   0  0  0  0  0  0  0  0  0  0  0  0
   57.4247   25.4665   47.2314 H   0  0  0  0  0  0  0  0  0  0  0  0
   58.8675   27.0497   48.4836 H   0  0  0  0  0  0  0  0  0  0  0  0
   59.9798   29.3100   49.7980 H   0  0  0  0  0  0  0  0  0  0  0  0
   60.5263   27.9380   48.7755 H   0  0  0  0  0  0  0  0  0  0  0  0
   61.4468   29.4805   48.7755 H   0  0  0  0  0  0  0  0  0  0  0  0
   58.0597   33.2196   44.1499 H   0  0  0  0  0  0  0  0  0  0  0  0
   58.5416   35.6598   44.4956 H   0  0  0  0  0  0  0  0  0  0  0  0
   59.8310   36.4156   46.4992 H   0  0  0  0  0  0  0  0  0  0  0  0
   60.6232   34.7393   48.1946 H   0  0  0  0  0  0  0  0  0  0  0  0
   60.3095   33.0615   49.6983 H   0  0  0  0  0  0  0  0  0  0  0  0
   60.5172   31.2611   49.8018 H   0  0  0  0  0  0  0  0  0  0  0  0
   62.5772   33.1309   49.8263 H   0  0  0  0  0  0  0  0  0  0  0  0
   62.7292   31.3715   49.4301 H   0  0  0  0  0  0  0  0  0  0  0  0
   63.8290   34.1299   48.7923 H   0  0  0  0  0  0  0  0  0  0  0  0
   64.5343   33.5737   47.2367 H   0  0  0  0  0  0  0  0  0  0  0  0
   63.1096   34.6678   47.2367 H   0  0  0  0  0  0  0  0  0  0  0  0
   63.7645   30.8449   47.8970 H   0  0  0  0  0  0  0  0  0  0  0  0
   62.6457   30.9811   46.4983 H   0  0  0  0  0  0  0  0  0  0  0  0
   64.1977   31.8854   46.4983 H   0  0  0  0  0  0  0  0  0  0  0  0
  1  2  1  0
  2  3  2  0
  3  4  1  0
  4  5  2  0
  5  6  1  0
  6  7  2  0
  7  8  1  0
  8  9  2  0
  9 10  1  0
  9 11  1  0
 11 12  2  0
 12 13  1  0
 13 14  2  0
 14 15  1  0
 15 16  2  0
 16 17  1  0
 17 18  2  0
 18 19  1  0
 19 20  1  0
 20 21  1  0
 21 22  1  0
 22 23  1  0
 22 24  1  0
 12  2  1  0
 18 13  1  0
  8  3  1  0
 19 11  1  0
  1 25  1  0
  1 26  1  0
  1 27  1  0
  4 28  1  0
  5 29  1  0
  6 30  1  0
  7 31  1  0
 10 32  1  0
 10 33  1  0
 10 34  1  0
 14 35  1  0
 15 36  1  0
 16 37  1  0
 17 38  1  0
 20 39  1  0
 20 40  1  0
 21 41  1  0
 21 42  1  0
 23 43  1  0
 23 44  1  0
 23 45  1  0
 24 46  1  0
 24 47  1  0
 24 48  1  0
M  END
>  <UniqueID>  (41) 
37

>  <SMILES>  (41) 
Cc1c2ccccc2c(C)c2c1c1ccccc1n2CCN(C)C

>  <Energy>  (41) 
115.91670964809735

>  <Genealogy>  (41) 
Cc1c2ccccc2c(C)c2c1c1ccccc1n2CCN(C)C (3D coordinates assigned)
Cc1c2ccccc2c(C)c2c1c1ccccc1n2CCN(C)C (optimized conformer: 115.91670964809735 kcal/mol)

>  <smiles>  (41) 
Cc1c2ccccc2c(C)c2c1c1ccccc1n2CCN(C)C

>  <score_type>  (41) 
oracle

>  <origin>  (41) 
adg

>  <m_score__min__energy>  (41) 
-8.0700000000000003

>  <m_primary>  (41) 
energy

$$$$
42:0
     RDKit          3D

 43 45  0  0  0  0  0  0  0  0999 V2000
   59.9940   30.0610   48.9270 C   0  0  0  0  0  0  0  0  0  0  0  0
   58.8430   31.0430   49.1410 C   0  0  0  0  0  0  0  0  0  0  0  0
   59.0380   32.2740   48.3340 N   0  0  0  0  0  0  0  0  0  0  0  0
   59.4670   33.4410   48.9490 C   0  0  0  0  0  0  0  0  0  0  0  0
   59.7790   33.5370   50.4380 C   0  0  0  0  0  0  0  0  0  0  0  0
   61.1950   33.8680   50.6890 N   0  0  0  0  0  0  0  0  0  0  0  0
   62.0750   32.7010   50.5140 C   0  0  0  0  0  0  0  0  0  0  0  0
   62.6080   32.6560   49.1150 C   0  0  0  0  0  0  0  0  0  0  0  0
   63.0680   31.5290   48.4610 C   0  0  0  0  0  0  0  0  0  0  0  0
   63.4250   31.9500   47.1970 C   0  0  0  0  0  0  0  0  0  0  0  0
   63.1500   33.3040   47.1620 C   0  0  0  0  0  0  0  0  0  0  0  0
   63.3920   34.2110   46.0040 C   0  0  0  0  0  0  0  0  0  0  0  0
   62.6660   33.6980   48.3170 O   0  0  0  0  0  0  0  0  0  0  0  0
   59.6590   34.6070   48.1950 C   0  0  0  0  0  0  0  0  0  0  0  0
   59.4210   34.6150   46.8320 C   0  0  0  0  0  0  0  0  0  0  0  0
   59.6170   35.6780   46.1810 O   0  0  0  0  0  0  0  0  0  0  0  0
   58.9610   33.4550   46.2010 C   0  0  0  0  0  0  0  0  0  0  0  0
   58.6950   33.4550   44.8170 C   0  0  0  0  0  0  0  0  0  0  0  0
   58.2120   32.3090   44.1870 C   0  0  0  0  0  0  0  0  0  0  0  0
   57.8820   32.3260   42.4640 Cl  0  0  0  0  0  0  0  0  0  0  0  0
   57.9820   31.1560   44.9300 C   0  0  0  0  0  0  0  0  0  0  0  0
   58.2410   31.1330   46.3000 C   0  0  0  0  0  0  0  0  0  0  0  0
   58.7520   32.2760   46.9730 C   0  0  0  0  0  0  0  0  0  0  0  0
   60.3807   29.7311   49.9025 H   0  0  0  0  0  0  0  0  0  0  0  0
   59.6320   29.1892   48.3622 H   0  0  0  0  0  0  0  0  0  0  0  0
   60.7979   30.5558   48.3622 H   0  0  0  0  0  0  0  0  0  0  0  0
   57.8997   30.5625   48.8422 H   0  0  0  0  0  0  0  0  0  0  0  0
   58.8129   31.3219   50.2046 H   0  0  0  0  0  0  0  0  0  0  0  0
   59.1476   34.3202   50.8828 H   0  0  0  0  0  0  0  0  0  0  0  0
   59.5757   32.5551   50.8903 H   0  0  0  0  0  0  0  0  0  0  0  0
   61.4800   34.6100   50.0070 H   0  0  0  0  0  0  0  0  0  0  0  0
   61.3170   34.2460   51.6570 H   0  0  0  0  0  0  0  0  0  0  0  0
   62.9154   32.7713   51.2203 H   0  0  0  0  0  0  0  0  0  0  0  0
   61.4966   31.7852   50.7058 H   0  0  0  0  0  0  0  0  0  0  0  0
   63.1355   30.5080   48.8647 H   0  0  0  0  0  0  0  0  0  0  0  0
   63.8420   31.3357   46.3854 H   0  0  0  0  0  0  0  0  0  0  0  0
   63.6592   35.2125   46.3723 H   0  0  0  0  0  0  0  0  0  0  0  0
   64.2155   33.8134   45.3926 H   0  0  0  0  0  0  0  0  0  0  0  0
   62.4799   34.2764   45.3926 H   0  0  0  0  0  0  0  0  0  0  0  0
   60.0027   35.5259   48.6925 H   0  0  0  0  0  0  0  0  0  0  0  0
   58.8701   34.3677   44.2284 H   0  0  0  0  0  0  0  0  0  0  0  0
   57.5927   30.2552   44.4330 H   0  0  0  0  0  0  0  0  0  0  0  0
   58.0462   30.2130   46.8707 H   0  0  0  0  0  0  0  0  0  0  0  0
  1  2  1  0
  2  3  1  0
  3  4  1  0
  4  5  1  0
  5  6  1  0
  6  7  1  0
  7  8  1  0
  8  9  2  0
  9 10  1  0
 10 11  2  0
 11 12  1  0
 11 13  1  0
  4 14  2  0
 14 15  1  0
 15 16  2  0
 15 17  1  0
 17 18  2  0
 18 19  1  0
 19 20  1  0
 19 21  2  0
 21 22  1  0
 22 23  2  0
 23  3  1  0
 13  8  1  0
 23 17  1  0
  1 24  1  0
  1 25  1  0
  1 26  1  0
  2 27  1  0
  2 28  1  0
  5 29  1  0
  5 30  1  0
  6 31  1  0
  6 32  1  0
  7 33  1  0
  7 34  1  0
  9 35  1  0
 10 36  1  0
 12 37  1  0
 12 38  1  0
 12 39  1  0
 14 40  1  0
 18 41  1  0
 21 42  1  0
 22 43  1  0
M  CHG  1   6   1
M  END
>  <UniqueID>  (42) 
38

>  <SMILES>  (42) 
CCn1c(C[NH2+]Cc2ccc(C)o2)cc(=O)c2cc(Cl)ccc21

>  <Energy>  (42) 
81.0037066868808

>  <Genealogy>  (42) 
CCn1c(C[NH2+]Cc2ccc(C)o2)cc(=O)c2cc(Cl)ccc21 (protonated)
CCn1c(C[NH2+]Cc2ccc(C)o2)cc(=O)c2cc(Cl)ccc21 (3D coordinates assigned)
CCn1c(C[NH2+]Cc2ccc(C)o2)cc(=O)c2cc(Cl)ccc21 (optimized conformer: 81.0037066868808 kcal/mol)

>  <smiles>  (42) 
CCn1c(CNCc2ccc(C)o2)cc(=O)c2cc(Cl)ccc21

>  <score_type>  (42) 
oracle

>  <origin>  (42) 
adg

>  <m_score__min__energy>  (42) 
-5.7000000000000002

>  <m_primary>  (42) 
energy

$$$$
43:0
     RDKit          3D

 53 57  0  0  0  0  0  0  0  0999 V2000
   62.7930   27.8890   53.7310 C   0  0  0  0  0  0  0  0  0  0  0  0
   61.4330   27.7670   53.3280 O   0  0  0  0  0  0  0  0  0  0  0  0
   60.9550   28.0680   52.0430 C   0  0  0  0  0  0  0  0  0  0  0  0
   60.1890   29.2190   51.7800 C   0  0  0  0  0  0  0  0  0  0  0  0
   59.7320   29.4850   50.4880 C   0  0  0  0  0  0  0  0  0  0  0  0
   60.0390   28.6140   49.4350 C   0  0  0  0  0  0  0  0  0  0  0  0
   59.5510   28.8890   48.0660 C   0  0  0  0  0  0  0  0  0  0  0  0
   59.4060   30.2160   47.6160 C   0  0  0  0  0  0  0  0  0  0  0  0
   58.9160   30.4800   46.3160 C   0  0  0  0  0  0  0  0  0  0  0  0
   58.7580   31.8780   45.8510 C   0  0  0  0  0  0  0  0  0  0  0  0
   59.5260   32.8820   46.4660 C   0  0  0  0  0  0  0  0  0  0  0  0
   59.3500   34.2240   46.1230 C   0  0  0  0  0  0  0  0  0  0  0  0
   58.3990   34.5810   45.1680 C   0  0  0  0  0  0  0  0  0  0  0  0
   57.6350   33.5970   44.5400 C   0  0  0  0  0  0  0  0  0  0  0  0
   57.8090   32.2380   44.8560 C   0  0  0  0  0  0  0  0  0  0  0  0
   57.0520   31.2490   44.1350 N   0  0  0  0  0  0  0  0  0  0  0  0
   56.1580   30.5910   44.7060 O   0  0  0  0  0  0  0  0  0  0  0  0
   57.4270   30.8890   42.8610 O   0  0  0  0  0  0  0  0  0  0  0  0
   58.5580   29.4410   45.4990 N   0  0  0  0  0  0  0  0  0  0  0  0
   58.7010   28.1640   45.9340 C   0  0  0  0  0  0  0  0  0  0  0  0
   59.1890   27.8590   47.1870 C   0  0  0  0  0  0  0  0  0  0  0  0
   59.1500   26.3720   47.4260 C   0  0  0  0  0  0  0  0  0  0  0  0
   58.5700   25.8930   46.1260 C   0  0  0  0  0  0  0  0  0  0  0  0
   58.2880   24.5780   45.7500 C   0  0  0  0  0  0  0  0  0  0  0  0
   57.7420   24.3460   44.4760 C   0  0  0  0  0  0  0  0  0  0  0  0
   57.4850   25.4220   43.6040 C   0  0  0  0  0  0  0  0  0  0  0  0
   57.7720   26.7390   43.9970 C   0  0  0  0  0  0  0  0  0  0  0  0
   58.3160   26.9420   45.2650 C   0  0  0  0  0  0  0  0  0  0  0  0
   60.7900   27.4580   49.6950 C   0  0  0  0  0  0  0  0  0  0  0  0
   61.2550   27.1820   50.9950 C   0  0  0  0  0  0  0  0  0  0  0  0
   62.0170   26.0390   51.2870 O   0  0  0  0  0  0  0  0  0  0  0  0
   61.5770   24.9660   52.1140 C   0  0  0  0  0  0  0  0  0  0  0  0
   62.8509   27.8942   54.8295 H   0  0  0  0  0  0  0  0  0  0  0  0
   63.3697   27.0390   53.3375 H   0  0  0  0  0  0  0  0  0  0  0  0
   63.2092   28.8281   53.3375 H   0  0  0  0  0  0  0  0  0  0  0  0
   59.9487   29.9139   52.5982 H   0  0  0  0  0  0  0  0  0  0  0  0
   59.1274   30.3837   50.2959 H   0  0  0  0  0  0  0  0  0  0  0  0
   59.6753   31.0512   48.2793 H   0  0  0  0  0  0  0  0  0  0  0  0
   60.2732   32.6076   47.2252 H   0  0  0  0  0  0  0  0  0  0  0  0
   59.9619   34.9998   46.6064 H   0  0  0  0  0  0  0  0  0  0  0  0
   58.2509   35.6399   44.9094 H   0  0  0  0  0  0  0  0  0  0  0  0
   56.8869   33.8881   43.7880 H   0  0  0  0  0  0  0  0  0  0  0  0
   58.1550   29.6260   44.5520 H   0  0  0  0  0  0  0  0  0  0  0  0
   60.1569   25.9627   47.5953 H   0  0  0  0  0  0  0  0  0  0  0  0
   58.5814   26.0688   48.3175 H   0  0  0  0  0  0  0  0  0  0  0  0
   58.4889   23.7420   46.4361 H   0  0  0  0  0  0  0  0  0  0  0  0
   57.5140   23.3180   44.1579 H   0  0  0  0  0  0  0  0  0  0  0  0
   57.0569   25.2293   42.6092 H   0  0  0  0  0  0  0  0  0  0  0  0
   57.5735   27.5863   43.3242 H   0  0  0  0  0  0  0  0  0  0  0  0
   61.0178   26.7605   48.8754 H   0  0  0  0  0  0  0  0  0  0  0  0
   61.6922   25.2469   53.1713 H   0  0  0  0  0  0  0  0  0  0  0  0
   60.5185   24.7520   51.9047 H   0  0  0  0  0  0  0  0  0  0  0  0
   62.1805   24.0705   51.9047 H   0  0  0  0  0  0  0  0  0  0  0  0
  1  2  1  0
  2  3  1  0
  3  4  2  0
  4  5  1  0
  5  6  2  0
  6  7  1  0
  7  8  2  0
  8  9  1  0
  9 10  1  0
 10 11  2  0
 11 12  1  0
 12 13  2  0
 13 14  1  0
 14 15  2  0
 15 16  1  0
 16 17  2  0
 16 18  1  0
  9 19  2  0
 19 20  1  0
 20 21  2  0
 21 22  1  0
 22 23  1  0
 23 24  2  0
 24 25  1  0
 25 26  2  0
 26 27  1  0
 27 28  2  0
  6 29  1  0
 29 30  2  0
 30 31  1  0
 31 32  1  0
 30  3  1  0
 21  7  1  0
 28 23  1  0
 15 10  1  0
 28 20  1  0
  1 33  1  0
  1 34  1  0
  1 35  1  0
  4 36  1  0
  5 37  1  0
  8 38  1  0
 11 39  1  0
 12 40  1  0
 13 41  1  0
 14 42  1  0
 19 43  1  0
 22 44  1  0
 22 45  1  0
 24 46  1  0
 25 47  1  0
 26 48  1  0
 27 49  1  0
 29 50  1  0
 32 51  1  0
 32 52  1  0
 32 53  1  0
M  CHG  3  16   1  18  -1  19   1
M  END
>  <UniqueID>  (43) 
39

>  <SMILES>  (43) 
COc1ccc(-c2cc(-c3ccccc3[N+](=O)[O-])[nH+]c3c2Cc2ccccc2-3)cc1OC

>  <Energy>  (43) 
97.73610835169421

>  <Genealogy>  (43) 
COc1ccc(-c2cc(-c3ccccc3[N+](=O)[O-])[nH+]c3c2Cc2ccccc2-3)cc1OC (protonated)
COc1ccc(-c2cc(-c3ccccc3[N+](=O)[O-])[nH+]c3c2Cc2ccccc2-3)cc1OC (3D coordinates assigned)
COc1ccc(-c2cc(-c3ccccc3[N+](=O)[O-])[nH+]c3c2Cc2ccccc2-3)cc1OC (nonaromatic ring conformer: 97.73610835169421 kcal/mol)

>  <smiles>  (43) 
COc1ccc(-c2cc(-c3ccccc3[N+](=O)[O-])nc3c2Cc2ccccc2-3)cc1OC

>  <score_type>  (43) 
oracle

>  <origin>  (43) 
adg

>  <m_score__min__energy>  (43) 
-7.1900000000000004

>  <m_primary>  (43) 
energy

$$$$
44:0
     RDKit          3D

 45 48  0  0  0  0  0  0  0  0999 V2000
   60.1330   33.4900   50.9490 C   0  0  0  0  0  0  0  0  0  0  0  0
   60.2770   34.0710   49.6580 O   0  0  0  0  0  0  0  0  0  0  0  0
   61.3740   33.8590   48.8060 C   0  0  0  0  0  0  0  0  0  0  0  0
   62.6800   33.6850   49.3050 C   0  0  0  0  0  0  0  0  0  0  0  0
   63.7450   33.4530   48.4310 C   0  0  0  0  0  0  0  0  0  0  0  0
   63.5220   33.3930   47.0560 C   0  0  0  0  0  0  0  0  0  0  0  0
   62.2340   33.5680   46.5490 C   0  0  0  0  0  0  0  0  0  0  0  0
   61.1550   33.8060   47.4140 C   0  0  0  0  0  0  0  0  0  0  0  0
   59.8370   33.9940   46.8700 N   0  0  0  0  0  0  0  0  0  0  0  0
   59.4900   35.2350   46.1730 C   0  0  0  0  0  0  0  0  0  0  0  0
   58.6680   34.9460   44.9010 C   0  0  0  0  0  0  0  0  0  0  0  0
   57.8290   33.7200   44.9770 N   0  0  0  0  0  0  0  0  0  0  0  0
   58.3980   32.5980   44.2000 C   0  0  0  0  0  0  0  0  0  0  0  0
   57.7450   31.3130   44.5980 C   0  0  0  0  0  0  0  0  0  0  0  0
   56.4230   31.0740   44.5080 N   0  0  0  0  0  0  0  0  0  0  0  0
   56.2380   29.8420   44.9560 N   0  0  0  0  0  0  0  0  0  0  0  0
   57.4550   29.3800   45.3000 C   0  0  0  0  0  0  0  0  0  0  0  0
   57.7080   28.0440   45.8480 C   0  0  0  0  0  0  0  0  0  0  0  0
   58.9220   27.5760   46.3340 C   0  0  0  0  0  0  0  0  0  0  0  0
   58.8570   26.2540   46.7920 C   0  0  0  0  0  0  0  0  0  0  0  0
   57.5980   25.6820   46.6660 C   0  0  0  0  0  0  0  0  0  0  0  0
   56.5640   26.8210   45.9860 S   0  0  0  0  0  0  0  0  0  0  0  0
   58.3860   30.2780   45.0830 O   0  0  0  0  0  0  0  0  0  0  0  0
   57.5150   33.3240   46.3650 C   0  0  0  0  0  0  0  0  0  0  0  0
   58.7920   33.0070   47.1570 C   0  0  0  0  0  0  0  0  0  0  0  0
   60.3222   34.2535   51.7179 H   0  0  0  0  0  0  0  0  0  0  0  0
   59.1110   33.0997   51.0635 H   0  0  0  0  0  0  0  0  0  0  0  0
   60.8545   32.6676   51.0635 H   0  0  0  0  0  0  0  0  0  0  0  0
   62.8622   33.7321   50.3888 H   0  0  0  0  0  0  0  0  0  0  0  0
   64.7616   33.3174   48.8285 H   0  0  0  0  0  0  0  0  0  0  0  0
   64.3621   33.2076   46.3705 H   0  0  0  0  0  0  0  0  0  0  0  0
   62.0631   33.5191   45.4635 H   0  0  0  0  0  0  0  0  0  0  0  0
   58.8977   35.8718   46.8466 H   0  0  0  0  0  0  0  0  0  0  0  0
   60.4206   35.7429   45.8797 H   0  0  0  0  0  0  0  0  0  0  0  0
   58.0061   35.8050   44.7166 H   0  0  0  0  0  0  0  0  0  0  0  0
   59.3924   34.7809   44.0898 H   0  0  0  0  0  0  0  0  0  0  0  0
   58.2284   32.7753   43.1277 H   0  0  0  0  0  0  0  0  0  0  0  0
   59.4771   32.5309   44.4026 H   0  0  0  0  0  0  0  0  0  0  0  0
   59.8401   28.1814   46.3569 H   0  0  0  0  0  0  0  0  0  0  0  0
   59.7217   25.7193   47.2119 H   0  0  0  0  0  0  0  0  0  0  0  0
   57.3236   24.6583   46.9607 H   0  0  0  0  0  0  0  0  0  0  0  0
   56.9811   34.1482   46.8607 H   0  0  0  0  0  0  0  0  0  0  0  0
   56.8911   32.4186   46.3351 H   0  0  0  0  0  0  0  0  0  0  0  0
   58.5637   33.0251   48.2329 H   0  0  0  0  0  0  0  0  0  0  0  0
   59.1543   32.0115   46.8609 H   0  0  0  0  0  0  0  0  0  0  0  0
  1  2  1  0
  2  3  1  0
  3  4  2  0
  4  5  1  0
  5  6  2  0
  6  7  1  0
  7  8  2  0
  8  9  1  0
  9 10  1  0
 10 11  1  0
 11 12  1  0
 12 13  1  0
 13 14  1  0
 14 15  2  0
 15 16  1  0
 16 17  2  0
 17 18  1  0
 18 19  2  0
 19 20  1  0
 20 21  2  0
 21 22  1  0
 17 23  1  0
 12 24  1  0
 24 25  1  0
  8  3  1  0
 25  9  1  0
 23 14  1  0
 22 18  1  0
  1 26  1  0
  1 27  1  0
  1 28  1  0
  4 29  1  0
  5 30  1  0
  6 31  1  0
  7 32  1  0
 10 33  1  0
 10 34  1  0
 11 35  1  0
 11 36  1  0
 13 37  1  0
 13 38  1  0
 19 39  1  0
 20 40  1  0
 21 41  1  0
 24 42  1  0
 24 43  1  0
 25 44  1  0
 25 45  1  0
M  END
>  <UniqueID>  (44) 
40

>  <SMILES>  (44) 
COc1ccccc1N1CCN(Cc2nnc(-c3cccs3)o2)CC1

>  <Energy>  (44) 
119.08276910822642

>  <Genealogy>  (44) 
COc1ccccc1N1CCN(Cc2nnc(-c3cccs3)o2)CC1 (3D coordinates assigned)
COc1ccccc1N1CCN(Cc2nnc(-c3cccs3)o2)CC1 (nonaromatic ring conformer: 119.08276910822642 kcal/mol)

>  <smiles>  (44) 
COc1ccccc1N1CCN(Cc2nnc(-c3cccs3)o2)CC1

>  <score_type>  (44) 
oracle

>  <origin>  (44) 
adg

>  <m_score__min__energy>  (44) 
-8.5800000000000001

>  <m_primary>  (44) 
energy

$$$$
