0:0
     RDKit          3D

 70 73  0  0  0  0  0  0  0  0999 V2000
   56.4490   29.5710   52.7780 C   0  0  0  0  0  0  0  0  0  0  0  0
   57.7230   29.7990   51.9800 C   0  0  0  0  0  0  0  0  0  0  0  0
   57.6200   31.0200   51.2800 O   0  0  0  0  0  0  0  0  0  0  0  0
   57.0200   32.0160   52.0920 C   0  0  0  0  0  0  0  0  0  0  0  0
   58.0960   32.9460   52.6450 C   0  0  0  0  0  0  0  0  0  0  0  0
   59.3090   32.7170   51.9580 O   0  0  0  0  0  0  0  0  0  0  0  0
   59.6320   33.8140   51.1270 C   0  0  0  0  0  0  0  0  0  0  0  0
   59.3000   33.4770   49.6520 C   0  0  0  0  0  0  0  0  0  0  0  0
   58.6200   32.1750   49.4070 N   0  0  0  0  0  0  0  0  0  0  0  0
   58.9650   31.4810   48.1710 C   0  0  0  0  0  0  0  0  0  0  0  0
   58.5470   32.0290   46.9270 C   0  0  0  0  0  0  0  0  0  0  0  0
   57.9780   33.3260   46.8450 C   0  0  0  0  0  0  0  0  0  0  0  0
   57.5250   33.8410   45.6330 C   0  0  0  0  0  0  0  0  0  0  0  0
   57.6130   33.0790   44.4800 C   0  0  0  0  0  0  0  0  0  0  0  0
   58.1800   31.8090   44.5230 C   0  0  0  0  0  0  0  0  0  0  0  0
   58.6900   31.2710   45.7340 C   0  0  0  0  0  0  0  0  0  0  0  0
   59.2730   30.0230   45.7710 N   0  0  0  0  0  0  0  0  0  0  0  0
   59.6570   29.3500   44.5070 C   0  0  0  0  0  0  0  0  0  0  0  0
   59.5390   29.4140   46.9800 C   0  0  0  0  0  0  0  0  0  0  0  0
   59.7930   28.0220   47.0460 C   0  0  0  0  0  0  0  0  0  0  0  0
   60.1550   27.4120   48.2380 C   0  0  0  0  0  0  0  0  0  0  0  0
   60.3290   28.1730   49.3790 C   0  0  0  0  0  0  0  0  0  0  0  0
   60.0640   29.5490   49.3710 C   0  0  0  0  0  0  0  0  0  0  0  0
   60.5100   30.3140   50.5010 N   0  0  0  0  0  0  0  0  0  0  0  0
   61.9220   30.4690   50.8490 C   0  0  0  0  0  0  0  0  0  0  0  0
   62.3970   31.9130   50.6340 C   0  0  0  0  0  0  0  0  0  0  0  0
   62.1210   32.3690   49.2550 N   0  0  0  0  0  0  0  0  0  0  0  0
   62.7390   31.5200   48.2210 C   0  0  0  0  0  0  0  0  0  0  0  0
   63.2810   32.4330   47.1240 C   0  0  0  0  0  0  0  0  0  0  0  0
   62.8940   33.8350   47.5390 C   0  0  0  0  0  0  0  0  0  0  0  0
   62.6340   33.7210   49.0240 C   0  0  0  0  0  0  0  0  0  0  0  0
   59.5390   30.1700   48.1900 C   0  0  0  0  0  0  0  0  0  0  0  0
   56.6776   29.6119   53.8532 H   0  0  0  0  0  0  0  0  0  0  0  0
   55.7157   30.3522   52.5291 H   0  0  0  0  0  0  0  0  0  0  0  0
   56.0321   28.5840   52.5291 H   0  0  0  0  0  0  0  0  0  0  0  0
   58.5835   29.8386   52.6641 H   0  0  0  0  0  0  0  0  0  0  0  0
   57.8642   28.9744   51.2658 H   0  0  0  0  0  0  0  0  0  0  0  0
   56.3076   32.5986   51.4895 H   0  0  0  0  0  0  0  0  0  0  0  0
   56.4904   31.5345   52.9273 H   0  0  0  0  0  0  0  0  0  0  0  0
   57.7856   33.9918   52.5040 H   0  0  0  0  0  0  0  0  0  0  0  0
   58.2373   32.7492   53.7180 H   0  0  0  0  0  0  0  0  0  0  0  0
   59.0486   34.6924   51.4402 H   0  0  0  0  0  0  0  0  0  0  0  0
   60.7071   34.0294   51.2150 H   0  0  0  0  0  0  0  0  0  0  0  0
   58.6471   34.2735   49.2656 H   0  0  0  0  0  0  0  0  0  0  0  0
   60.2726   33.3987   49.1442 H   0  0  0  0  0  0  0  0  0  0  0  0
   58.7430   31.5500   50.2310 H   0  0  0  0  0  0  0  0  0  0  0  0
   57.5860   32.3210   49.4360 H   0  0  0  0  0  0  0  0  0  0  0  0
   57.8930   33.9365   47.7561 H   0  0  0  0  0  0  0  0  0  0  0  0
   57.0971   34.8535   45.5915 H   0  0  0  0  0  0  0  0  0  0  0  0
   57.2338   33.4786   43.5279 H   0  0  0  0  0  0  0  0  0  0  0  0
   58.2341   31.2106   43.6016 H   0  0  0  0  0  0  0  0  0  0  0  0
   60.1902   28.4156   44.7364 H   0  0  0  0  0  0  0  0  0  0  0  0
   58.7528   29.1224   43.9234 H   0  0  0  0  0  0  0  0  0  0  0  0
   60.3130   30.0126   43.9234 H   0  0  0  0  0  0  0  0  0  0  0  0
   59.7014   27.4131   46.1345 H   0  0  0  0  0  0  0  0  0  0  0  0
   60.3036   26.3227   48.2754 H   0  0  0  0  0  0  0  0  0  0  0  0
   60.6797   27.6926   50.3043 H   0  0  0  0  0  0  0  0  0  0  0  0
   59.7940   30.8120   51.0660 H   0  0  0  0  0  0  0  0  0  0  0  0
   62.0615   30.2001   51.9065 H   0  0  0  0  0  0  0  0  0  0  0  0
   62.5135   29.8094   50.1970 H   0  0  0  0  0  0  0  0  0  0  0  0
   61.8721   32.5720   51.3412 H   0  0  0  0  0  0  0  0  0  0  0  0
   63.4836   31.9499   50.8012 H   0  0  0  0  0  0  0  0  0  0  0  0
   63.5608   30.9352   48.6600 H   0  0  0  0  0  0  0  0  0  0  0  0
   61.9972   30.8219   47.8058 H   0  0  0  0  0  0  0  0  0  0  0  0
   64.3748   32.3411   47.0526 H   0  0  0  0  0  0  0  0  0  0  0  0
   62.8729   32.1719   46.1364 H   0  0  0  0  0  0  0  0  0  0  0  0
   63.7130   34.5416   47.3390 H   0  0  0  0  0  0  0  0  0  0  0  0
   62.0222   34.2138   46.9854 H   0  0  0  0  0  0  0  0  0  0  0  0
   63.5672   33.8742   49.5858 H   0  0  0  0  0  0  0  0  0  0  0  0
   61.9145   34.4818   49.3609 H   0  0  0  0  0  0  0  0  0  0  0  0
  1  2  1  0
  2  3  1  0
  3  4  1  0
  4  5  1  0
  5  6  1  0
  6  7  1  0
  7  8  1  0
  8  9  1  0
  9 10  1  0
 10 11  2  0
 11 12  1  0
 12 13  2  0
 13 14  1  0
 14 15  2  0
 15 16  1  0
 16 17  2  0
 17 18  1  0
 17 19  1  0
 19 20  2  0
 20 21  1  0
 21 22  2  0
 22 23  1  0
 23 24  1  0
 24 25  1  0
 25 26  1  0
 26 27  1  0
 27 28  1  0
 28 29  1  0
 29 30  1  0
 30 31  1  0
 23 32  2  0
 32 10  1  0
 16 11  1  0
 32 19  1  0
 31 27  1  0
  1 33  1  0
  1 34  1  0
  1 35  1  0
  2 36  1  0
  2 37  1  0
  4 38  1  0
  4 39  1  0
  5 40  1  0
  5 41  1  0
  7 42  1  0
  7 43  1  0
  8 44  1  0
  8 45  1  0
  9 46  1  0
  9 47  1  0
 12 48  1  0
 13 49  1  0
 14 50  1  0
 15 51  1  0
 18 52  1  0
 18 53  1  0
 18 54  1  0
 20 55  1  0
 21 56  1  0
 22 57  1  0
 24 58  1  0
 25 59  1  0
 25 60  1  0
 26 61  1  0
 26 62  1  0
 28 63  1  0
 28 64  1  0
 29 65  1  0
 29 66  1  0
 30 67  1  0
 30 68  1  0
 31 69  1  0
 31 70  1  0
M  CHG  2   9   1  17   1
M  END
>  <UniqueID>  (1) 
1

>  <SMILES>  (1) 
CCOCCOCC[NH2+]c1c2ccccc2[n+](C)c2cccc(NCCN3CCCC3)c12

>  <Energy>  (1) 
116.22809708407792

>  <Genealogy>  (1) 
CCOCCOCC[NH2+]c1c2ccccc2[n+](C)c2cccc(NCCN3CCCC3)c12 (protonated)
CCOCCOCC[NH2+]c1c2ccccc2[n+](C)c2cccc(NCCN3CCCC3)c12 (3D coordinates assigned)
CCOCCOCC[NH2+]c1c2ccccc2[n+](C)c2cccc(NCCN3CCCC3)c12 (nonaromatic ring conformer: 116.22809708407792 kcal/mol)

>  <smiles>  (1) 
CCOCCOCCNc1c2ccccc2[n+](C)c2cccc(NCCN3CCCC3)c12

>  <score_type>  (1) 
oracle

>  <origin>  (1) 
adg

>  <m_score__min__energy>  (1) 
-4.8200000000000003

>  <m_primary>  (1) 
energy

$$$$
1:0
     RDKit          3D

 52 54  0  0  0  0  0  0  0  0999 V2000
   60.2620   29.8160   46.0310 C   0  0  0  0  0  0  0  0  0  0  0  0
   59.0560   29.8160   46.9640 C   0  0  0  0  0  0  0  0  0  0  0  0
   58.4130   31.0900   46.9600 O   0  0  0  0  0  0  0  0  0  0  0  0
   58.8610   32.2410   47.6350 C   0  0  0  0  0  0  0  0  0  0  0  0
   59.1480   32.2380   49.0160 C   0  0  0  0  0  0  0  0  0  0  0  0
   59.5790   33.4050   49.6510 C   0  0  0  0  0  0  0  0  0  0  0  0
   59.7230   34.5870   48.9260 C   0  0  0  0  0  0  0  0  0  0  0  0
   59.4400   34.6070   47.5600 C   0  0  0  0  0  0  0  0  0  0  0  0
   59.0150   33.4380   46.9030 C   0  0  0  0  0  0  0  0  0  0  0  0
   58.6900   33.4920   45.4300 C   0  0  0  0  0  0  0  0  0  0  0  0
   57.2030   33.2460   45.1610 C   0  0  0  0  0  0  0  0  0  0  0  0
   56.9680   31.8200   44.8740 N   0  0  0  0  0  0  0  0  0  0  0  0
   57.3810   31.4470   43.5140 C   0  0  0  0  0  0  0  0  0  0  0  0
   56.5940   30.2210   43.0370 C   0  0  0  0  0  0  0  0  0  0  0  0
   55.6540   29.6960   44.1290 C   0  0  0  0  0  0  0  0  0  0  0  0
   56.4250   29.2330   45.2810 N   0  0  0  0  0  0  0  0  0  0  0  0
   56.6940   27.8420   45.5180 C   0  0  0  0  0  0  0  0  0  0  0  0
   58.0130   27.3700   45.5010 C   0  0  0  0  0  0  0  0  0  0  0  0
   58.2710   26.0170   45.7430 C   0  0  0  0  0  0  0  0  0  0  0  0
   59.4600   25.5980   45.7230 O   0  0  0  0  0  0  0  0  0  0  0  0
   57.2010   25.1430   46.0060 C   0  0  0  0  0  0  0  0  0  0  0  0
   57.3900   23.7740   46.2610 C   0  0  0  0  0  0  0  0  0  0  0  0
   56.2860   22.9570   46.5200 C   0  0  0  0  0  0  0  0  0  0  0  0
   55.0050   23.5130   46.5220 C   0  0  0  0  0  0  0  0  0  0  0  0
   54.8350   24.8390   46.2740 N   0  0  0  0  0  0  0  0  0  0  0  0
   55.8880   25.6590   46.0170 C   0  0  0  0  0  0  0  0  0  0  0  0
   55.6730   26.9780   45.7740 N   0  0  0  0  0  0  0  0  0  0  0  0
   60.5520   28.7789   45.8066 H   0  0  0  0  0  0  0  0  0  0  0  0
   60.0024   30.3345   45.0963 H   0  0  0  0  0  0  0  0  0  0  0  0
   61.1016   30.3345   46.5170 H   0  0  0  0  0  0  0  0  0  0  0  0
   58.3410   29.0500   46.6294 H   0  0  0  0  0  0  0  0  0  0  0  0
   59.4003   29.5977   47.9857 H   0  0  0  0  0  0  0  0  0  0  0  0
   59.0317   31.3109   49.5965 H   0  0  0  0  0  0  0  0  0  0  0  0
   59.8057   33.3914   50.7273 H   0  0  0  0  0  0  0  0  0  0  0  0
   60.0599   35.5042   49.4312 H   0  0  0  0  0  0  0  0  0  0  0  0
   59.5499   35.5431   46.9929 H   0  0  0  0  0  0  0  0  0  0  0  0
   58.9613   34.4852   45.0427 H   0  0  0  0  0  0  0  0  0  0  0  0
   59.2620   32.6986   44.9267 H   0  0  0  0  0  0  0  0  0  0  0  0
   56.6200   33.5395   46.0464 H   0  0  0  0  0  0  0  0  0  0  0  0
   56.8914   33.8437   44.2917 H   0  0  0  0  0  0  0  0  0  0  0  0
   57.5280   31.2540   45.5550 H   0  0  0  0  0  0  0  0  0  0  0  0
   57.1893   32.2890   42.8327 H   0  0  0  0  0  0  0  0  0  0  0  0
   58.4538   31.2039   43.5196 H   0  0  0  0  0  0  0  0  0  0  0  0
   55.9975   30.4999   42.1559 H   0  0  0  0  0  0  0  0  0  0  0  0
   57.3120   29.4256   42.7884 H   0  0  0  0  0  0  0  0  0  0  0  0
   54.9781   30.5041   44.4455 H   0  0  0  0  0  0  0  0  0  0  0  0
   55.0715   28.8543   43.7261 H   0  0  0  0  0  0  0  0  0  0  0  0
   56.7530   29.9430   45.9750 H   0  0  0  0  0  0  0  0  0  0  0  0
   58.8436   28.0619   45.2978 H   0  0  0  0  0  0  0  0  0  0  0  0
   58.4036   23.3468   46.2568 H   0  0  0  0  0  0  0  0  0  0  0  0
   56.4251   21.8844   46.7207 H   0  0  0  0  0  0  0  0  0  0  0  0
   54.1311   22.8765   46.7248 H   0  0  0  0  0  0  0  0  0  0  0  0
  1  2  1  0
  2  3  1  0
  3  4  1  0
  4  5  2  0
  5  6  1  0
  6  7  2  0
  7  8  1  0
  8  9  2  0
  9 10  1  0
 10 11  1  0
 11 12  1  0
 12 13  1  0
 13 14  1  0
 14 15  1  0
 15 16  1  0
 16 17  1  0
 17 18  2  0
 18 19  1  0
 19 20  2  0
 19 21  1  0
 21 22  2  0
 22 23  1  0
 23 24  2  0
 24 25  1  0
 25 26  2  0
 26 27  1  0
  9  4  1  0
 27 17  1  0
 26 21  1  0
  1 28  1  0
  1 29  1  0
  1 30  1  0
  2 31  1  0
  2 32  1  0
  5 33  1  0
  6 34  1  0
  7 35  1  0
  8 36  1  0
 10 37  1  0
 10 38  1  0
 11 39  1  0
 11 40  1  0
 12 41  1  0
 13 42  1  0
 13 43  1  0
 14 44  1  0
 14 45  1  0
 15 46  1  0
 15 47  1  0
 16 48  1  0
 18 49  1  0
 22 50  1  0
 23 51  1  0
 24 52  1  0
M  CHG  1  27  -1
M  END
>  <UniqueID>  (2) 
2

>  <SMILES>  (2) 
CCOc1ccccc1CCNCCCNc1cc(=O)c2cccnc2[n-]1

>  <Energy>  (2) 
48.21265104796319

>  <Genealogy>  (2) 
CCOc1ccccc1CCNCCCNc1cc(=O)c2cccnc2[n-]1 (protonated)
CCOc1ccccc1CCNCCCNc1cc(=O)c2cccnc2[n-]1 (3D coordinates assigned)
CCOc1ccccc1CCNCCCNc1cc(=O)c2cccnc2[n-]1 (optimized conformer: 48.21265104796319 kcal/mol)

>  <smiles>  (2) 
CCOc1ccccc1CCNCCCNc1cc(=O)c2cccnc2[nH]1

>  <score_type>  (2) 
oracle

>  <origin>  (2) 
adg

>  <m_score__min__energy>  (2) 
-9.4700000000000006

>  <m_primary>  (2) 
energy

$$$$
2:0
     RDKit          3D

 56 59  0  0  0  0  0  0  0  0999 V2000
   62.4780   33.4280   48.8980 C   0  0  0  0  0  0  0  0  0  0  0  0
   62.4630   31.9750   48.6840 N   0  0  0  0  0  0  0  0  0  0  0  0
   63.1070   31.6130   47.4120 C   0  0  0  0  0  0  0  0  0  0  0  0
   62.9830   31.2120   49.8430 C   0  0  0  0  0  0  0  0  0  0  0  0
   61.9080   30.5390   50.7240 C   0  0  0  0  0  0  0  0  0  0  0  0
   61.1750   29.5010   49.9820 N   0  0  0  0  0  0  0  0  0  0  0  0
   59.7210   29.6030   50.2120 C   0  0  0  0  0  0  0  0  0  0  0  0
   59.0440   30.3690   49.0670 C   0  0  0  0  0  0  0  0  0  0  0  0
   59.9910   31.1070   48.2030 N   0  0  0  0  0  0  0  0  0  0  0  0
   59.4740   31.3390   46.8680 C   0  0  0  0  0  0  0  0  0  0  0  0
   59.3590   32.6690   46.3500 C   0  0  0  0  0  0  0  0  0  0  0  0
   59.7410   33.7970   47.1180 C   0  0  0  0  0  0  0  0  0  0  0  0
   59.6930   35.0830   46.5870 C   0  0  0  0  0  0  0  0  0  0  0  0
   59.2760   35.2830   45.2790 C   0  0  0  0  0  0  0  0  0  0  0  0
   58.8740   34.2030   44.4990 C   0  0  0  0  0  0  0  0  0  0  0  0
   58.8680   32.8830   45.0180 C   0  0  0  0  0  0  0  0  0  0  0  0
   58.4250   31.8190   44.2570 N   0  0  0  0  0  0  0  0  0  0  0  0
   57.7860   32.0260   42.9410 C   0  0  0  0  0  0  0  0  0  0  0  0
   58.5980   30.5500   44.7360 C   0  0  0  0  0  0  0  0  0  0  0  0
   58.3520   29.4140   44.0430 N   0  0  0  0  0  0  0  0  0  0  0  0
   58.6470   28.4100   44.8810 C   0  0  0  0  0  0  0  0  0  0  0  0
   58.5470   27.0520   44.5860 C   0  0  0  0  0  0  0  0  0  0  0  0
   58.8920   26.1300   45.5810 C   0  0  0  0  0  0  0  0  0  0  0  0
   59.3210   26.5780   46.8420 C   0  0  0  0  0  0  0  0  0  0  0  0
   59.4200   27.9520   47.1190 C   0  0  0  0  0  0  0  0  0  0  0  0
   59.0840   28.8750   46.1090 C   0  0  0  0  0  0  0  0  0  0  0  0
   59.0830   30.2800   46.0110 C   0  0  0  0  0  0  0  0  0  0  0  0
   62.4802   33.6396   49.9774 H   0  0  0  0  0  0  0  0  0  0  0  0
   63.3806   33.8570   48.4384 H   0  0  0  0  0  0  0  0  0  0  0  0
   61.5844   33.8756   48.4384 H   0  0  0  0  0  0  0  0  0  0  0  0
   64.0493   31.0833   47.6158 H   0  0  0  0  0  0  0  0  0  0  0  0
   62.4365   30.9596   46.8345 H   0  0  0  0  0  0  0  0  0  0  0  0
   63.3167   32.5254   46.8345 H   0  0  0  0  0  0  0  0  0  0  0  0
   63.6506   30.4257   49.4607 H   0  0  0  0  0  0  0  0  0  0  0  0
   63.4904   31.9448   50.4876 H   0  0  0  0  0  0  0  0  0  0  0  0
   62.3969   30.0779   51.5949 H   0  0  0  0  0  0  0  0  0  0  0  0
   61.1894   31.3093   51.0406 H   0  0  0  0  0  0  0  0  0  0  0  0
   61.4940   28.5710   50.3400 H   0  0  0  0  0  0  0  0  0  0  0  0
   59.2930   28.5915   50.2727 H   0  0  0  0  0  0  0  0  0  0  0  0
   59.5486   30.1469   51.1525 H   0  0  0  0  0  0  0  0  0  0  0  0
   58.4951   29.6478   48.4437 H   0  0  0  0  0  0  0  0  0  0  0  0
   58.3809   31.1158   49.5280 H   0  0  0  0  0  0  0  0  0  0  0  0
   60.3110   31.9790   48.6550 H   0  0  0  0  0  0  0  0  0  0  0  0
   60.8790   30.5610   48.1280 H   0  0  0  0  0  0  0  0  0  0  0  0
   60.0821   33.6537   48.1539 H   0  0  0  0  0  0  0  0  0  0  0  0
   59.9866   35.9433   47.2065 H   0  0  0  0  0  0  0  0  0  0  0  0
   59.2631   36.2988   44.8571 H   0  0  0  0  0  0  0  0  0  0  0  0
   58.5550   34.3762   43.4606 H   0  0  0  0  0  0  0  0  0  0  0  0
   56.7487   32.3620   43.0859 H   0  0  0  0  0  0  0  0  0  0  0  0
   58.3436   32.7895   42.3787 H   0  0  0  0  0  0  0  0  0  0  0  0
   57.7900   31.0806   42.3787 H   0  0  0  0  0  0  0  0  0  0  0  0
   58.0420   29.3020   43.0540 H   0  0  0  0  0  0  0  0  0  0  0  0
   58.2057   26.7132   43.5967 H   0  0  0  0  0  0  0  0  0  0  0  0
   58.8271   25.0514   45.3753 H   0  0  0  0  0  0  0  0  0  0  0  0
   59.5820   25.8456   47.6201 H   0  0  0  0  0  0  0  0  0  0  0  0
   59.7540   28.3009   48.1073 H   0  0  0  0  0  0  0  0  0  0  0  0
  1  2  1  0
  2  3  1  0
  2  4  1  0
  4  5  1  0
  5  6  1  0
  6  7  1  0
  7  8  1  0
  8  9  1  0
  9 10  1  0
 10 11  2  0
 11 12  1  0
 12 13  2  0
 13 14  1  0
 14 15  2  0
 15 16  1  0
 16 17  2  0
 17 18  1  0
 17 19  1  0
 19 20  1  0
 20 21  1  0
 21 22  2  0
 22 23  1  0
 23 24  2  0
 24 25  1  0
 25 26  2  0
 26 27  1  0
 27 10  1  0
 16 11  1  0
 27 19  2  0
 26 21  1  0
  1 28  1  0
  1 29  1  0
  1 30  1  0
  3 31  1  0
  3 32  1  0
  3 33  1  0
  4 34  1  0
  4 35  1  0
  5 36  1  0
  5 37  1  0
  6 38  1  0
  7 39  1  0
  7 40  1  0
  8 41  1  0
  8 42  1  0
  9 43  1  0
  9 44  1  0
 12 45  1  0
 13 46  1  0
 14 47  1  0
 15 48  1  0
 18 49  1  0
 18 50  1  0
 18 51  1  0
 20 52  1  0
 22 53  1  0
 23 54  1  0
 24 55  1  0
 25 56  1  0
M  CHG  2   9   1  17   1
M  END
>  <UniqueID>  (3) 
3

>  <SMILES>  (3) 
CN(C)CCNCC[NH2+]c1c2ccccc2[n+](C)c2[nH]c3ccccc3c12

>  <Energy>  (3) 
120.30264936104288

>  <Genealogy>  (3) 
CN(C)CCNCC[NH2+]c1c2ccccc2[n+](C)c2[nH]c3ccccc3c12 (protonated)
CN(C)CCNCC[NH2+]c1c2ccccc2[n+](C)c2[nH]c3ccccc3c12 (3D coordinates assigned)
CN(C)CCNCC[NH2+]c1c2ccccc2[n+](C)c2[nH]c3ccccc3c12 (optimized conformer: 120.30264936104288 kcal/mol)

>  <smiles>  (3) 
CN(C)CCNCCNc1c2ccccc2[n+](C)c2[nH]c3ccccc3c12

>  <score_type>  (3) 
oracle

>  <origin>  (3) 
adg

>  <m_score__min__energy>  (3) 
-4.5300000000000002

>  <m_primary>  (3) 
energy

$$$$
3:0
     RDKit          3D

 70 72  0  0  0  0  0  0  0  0999 V2000
   62.4830   33.8240   46.9780 C   0  0  0  0  0  0  0  0  0  0  0  0
   62.3780   32.4630   47.6630 C   0  0  0  0  0  0  0  0  0  0  0  0
   61.7450   32.6080   48.9930 N   0  0  0  0  0  0  0  0  0  0  0  0
   62.7270   32.4820   50.0980 C   0  0  0  0  0  0  0  0  0  0  0  0
   64.1800   32.3340   49.6310 C   0  0  0  0  0  0  0  0  0  0  0  0
   60.9030   33.8270   49.0630 C   0  0  0  0  0  0  0  0  0  0  0  0
   59.7140   33.6560   50.0140 C   0  0  0  0  0  0  0  0  0  0  0  0
   59.0000   32.4880   49.6690 O   0  0  0  0  0  0  0  0  0  0  0  0
   58.0710   32.1800   50.6880 C   0  0  0  0  0  0  0  0  0  0  0  0
   58.5030   30.8960   51.3870 C   0  0  0  0  0  0  0  0  0  0  0  0
   59.1080   30.0410   50.4490 O   0  0  0  0  0  0  0  0  0  0  0  0
   60.4500   30.2400   50.5540 N   0  0  0  0  0  0  0  0  0  0  0  0
   61.1370   29.3720   49.5920 C   0  0  0  0  0  0  0  0  0  0  0  0
   60.7760   29.7230   48.1330 C   0  0  0  0  0  0  0  0  0  0  0  0
   59.6530   30.6760   48.0380 N   0  0  0  0  0  0  0  0  0  0  0  0
   58.9850   30.6210   46.7430 C   0  0  0  0  0  0  0  0  0  0  0  0
   58.6340   29.3770   46.1530 C   0  0  0  0  0  0  0  0  0  0  0  0
   58.0410   29.3550   44.8740 C   0  0  0  0  0  0  0  0  0  0  0  0
   57.6010   30.5150   44.2830 N   0  0  0  0  0  0  0  0  0  0  0  0
   56.6640   30.4390   43.1430 C   0  0  0  0  0  0  0  0  0  0  0  0
   58.0220   31.7350   44.7690 C   0  0  0  0  0  0  0  0  0  0  0  0
   57.8190   32.9290   44.0300 C   0  0  0  0  0  0  0  0  0  0  0  0
   58.2290   34.1640   44.5250 C   0  0  0  0  0  0  0  0  0  0  0  0
   58.8660   34.2440   45.7540 C   0  0  0  0  0  0  0  0  0  0  0  0
   59.2680   35.4490   46.2280 F   0  0  0  0  0  0  0  0  0  0  0  0
   59.1150   33.0890   46.4890 C   0  0  0  0  0  0  0  0  0  0  0  0
   58.7120   31.8140   46.0140 C   0  0  0  0  0  0  0  0  0  0  0  0
   58.0310   28.0180   44.1500 C   0  0  0  0  0  0  0  0  0  0  0  0
   57.4180   26.9140   45.0190 C   0  0  0  0  0  0  0  0  0  0  0  0
   57.7780   27.0360   46.5150 C   0  0  0  0  0  0  0  0  0  0  0  0
   58.9200   28.0250   46.7940 C   0  0  0  0  0  0  0  0  0  0  0  0
   62.5440   34.6145   47.7405 H   0  0  0  0  0  0  0  0  0  0  0  0
   63.3858   33.8498   46.3501 H   0  0  0  0  0  0  0  0  0  0  0  0
   61.5948   33.9880   46.3501 H   0  0  0  0  0  0  0  0  0  0  0  0
   61.7688   31.7897   47.0421 H   0  0  0  0  0  0  0  0  0  0  0  0
   63.3879   32.0459   47.7896 H   0  0  0  0  0  0  0  0  0  0  0  0
   62.6564   33.3816   50.7271 H   0  0  0  0  0  0  0  0  0  0  0  0
   62.4740   31.5609   50.6435 H   0  0  0  0  0  0  0  0  0  0  0  0
   64.8417   32.2666   50.5072 H   0  0  0  0  0  0  0  0  0  0  0  0
   64.2793   31.4211   49.0254 H   0  0  0  0  0  0  0  0  0  0  0  0
   64.4613   33.2081   49.0254 H   0  0  0  0  0  0  0  0  0  0  0  0
   61.5217   34.6649   49.4167 H   0  0  0  0  0  0  0  0  0  0  0  0
   60.5046   34.0202   48.0560 H   0  0  0  0  0  0  0  0  0  0  0  0
   60.0805   33.5699   51.0476 H   0  0  0  0  0  0  0  0  0  0  0  0
   59.0502   34.5293   49.9320 H   0  0  0  0  0  0  0  0  0  0  0  0
   58.0381   33.0029   51.4172 H   0  0  0  0  0  0  0  0  0  0  0  0
   57.0716   32.0441   50.2490 H   0  0  0  0  0  0  0  0  0  0  0  0
   59.2219   31.1350   52.1845 H   0  0  0  0  0  0  0  0  0  0  0  0
   57.6247   30.4006   51.8266 H   0  0  0  0  0  0  0  0  0  0  0  0
   60.6350   31.2360   50.2940 H   0  0  0  0  0  0  0  0  0  0  0  0
   62.2231   29.4842   49.7256 H   0  0  0  0  0  0  0  0  0  0  0  0
   60.8167   28.3367   49.7807 H   0  0  0  0  0  0  0  0  0  0  0  0
   61.6578   30.1688   47.6497 H   0  0  0  0  0  0  0  0  0  0  0  0
   60.4658   28.7929   47.6343 H   0  0  0  0  0  0  0  0  0  0  0  0
   58.9620   30.4690   48.7930 H   0  0  0  0  0  0  0  0  0  0  0  0
   59.9810   31.6320   48.2880 H   0  0  0  0  0  0  0  0  0  0  0  0
   55.6340   30.3555   43.5199 H   0  0  0  0  0  0  0  0  0  0  0  0
   56.7576   31.3477   42.5302 H   0  0  0  0  0  0  0  0  0  0  0  0
   56.9029   29.5573   42.5302 H   0  0  0  0  0  0  0  0  0  0  0  0
   57.3282   32.8780   43.0469 H   0  0  0  0  0  0  0  0  0  0  0  0
   58.0473   35.0778   43.9402 H   0  0  0  0  0  0  0  0  0  0  0  0
   59.6337   33.1657   47.4560 H   0  0  0  0  0  0  0  0  0  0  0  0
   57.4408   28.1156   43.2269 H   0  0  0  0  0  0  0  0  0  0  0  0
   59.0708   27.7408   43.9220 H   0  0  0  0  0  0  0  0  0  0  0  0
   56.3235   26.9601   44.9195 H   0  0  0  0  0  0  0  0  0  0  0  0
   57.8295   25.9575   44.6644 H   0  0  0  0  0  0  0  0  0  0  0  0
   56.8847   27.3731   47.0613 H   0  0  0  0  0  0  0  0  0  0  0  0
   58.1215   26.0448   46.8460 H   0  0  0  0  0  0  0  0  0  0  0  0
   59.0256   28.1565   47.8810 H   0  0  0  0  0  0  0  0  0  0  0  0
   59.8488   27.6210   46.3649 H   0  0  0  0  0  0  0  0  0  0  0  0
  1  2  1  0
  2  3  1  0
  3  4  1  0
  4  5  1  0
  3  6  1  0
  6  7  1  0
  7  8  1  0
  8  9  1  0
  9 10  1  0
 10 11  1  0
 11 12  1  0
 12 13  1  0
 13 14  1  0
 14 15  1  0
 15 16  1  0
 16 17  2  0
 17 18  1  0
 18 19  2  0
 19 20  1  0
 19 21  1  0
 21 22  2  0
 22 23  1  0
 23 24  2  0
 24 25  1  0
 24 26  1  0
 26 27  2  0
 18 28  1  0
 28 29  1  0
 29 30  1  0
 30 31  1  0
 27 16  1  0
 31 17  1  0
 27 21  1  0
  1 32  1  0
  1 33  1  0
  1 34  1  0
  2 35  1  0
  2 36  1  0
  4 37  1  0
  4 38  1  0
  5 39  1  0
  5 40  1  0
  5 41  1  0
  6 42  1  0
  6 43  1  0
  7 44  1  0
  7 45  1  0
  9 46  1  0
  9 47  1  0
 10 48  1  0
 10 49  1  0
 12 50  1  0
 13 51  1  0
 13 52  1  0
 14 53  1  0
 14 54  1  0
 15 55  1  0
 15 56  1  0
 20 57  1  0
 20 58  1  0
 20 59  1  0
 22 60  1  0
 23 61  1  0
 26 62  1  0
 28 63  1  0
 28 64  1  0
 29 65  1  0
 29 66  1  0
 30 67  1  0
 30 68  1  0
 31 69  1  0
 31 70  1  0
M  CHG  2  15   1  19   1
M  END
>  <UniqueID>  (4) 
4

>  <SMILES>  (4) 
CCN(CC)CCOCCONCC[NH2+]c1c2c([n+](C)c3ccc(F)cc13)CCCC2

>  <Energy>  (4) 
94.74117184564605

>  <Genealogy>  (4) 
CCN(CC)CCOCCONCC[NH2+]c1c2c([n+](C)c3ccc(F)cc13)CCCC2 (protonated)
CCN(CC)CCOCCONCC[NH2+]c1c2c([n+](C)c3ccc(F)cc13)CCCC2 (3D coordinates assigned)
CCN(CC)CCOCCONCC[NH2+]c1c2c([n+](C)c3ccc(F)cc13)CCCC2 (nonaromatic ring conformer: 94.74117184564605 kcal/mol)

>  <smiles>  (4) 
CCN(CC)CCOCCONCCNc1c2c([n+](C)c3ccc(F)cc13)CCCC2

>  <score_type>  (4) 
oracle

>  <origin>  (4) 
adg

>  <m_score__min__energy>  (4) 
-3.23

>  <m_primary>  (4) 
energy

$$$$
4:0
     RDKit          3D

 40 40  0  0  0  0  0  0  0  0999 V2000
   56.9068   30.9912   42.8714 H   0  0  0  0  0  0  0  0  0  0  0  0
   56.4770   30.6650   43.8300 C   0  0  0  0  0  0  0  0  0  0  0  0
   56.6640   31.3750   44.8950 N   0  0  0  0  0  0  0  0  0  0  0  0
   57.7720   32.1840   45.0100 O   0  0  0  0  0  0  0  0  0  0  0  0
   57.6220   33.5810   45.2110 C   0  0  0  0  0  0  0  0  0  0  0  0
   56.8800   33.7589   46.0033 H   0  0  0  0  0  0  0  0  0  0  0  0
   57.2825   34.0495   44.2754 H   0  0  0  0  0  0  0  0  0  0  0  0
   58.9550   34.1850   45.6220 C   0  0  0  0  0  0  0  0  0  0  0  0
   59.0211   34.2150   46.7196 H   0  0  0  0  0  0  0  0  0  0  0  0
   59.7749   33.5705   45.2219 H   0  0  0  0  0  0  0  0  0  0  0  0
   59.0336   35.2066   45.2219 H   0  0  0  0  0  0  0  0  0  0  0  0
   55.6810   29.4060   43.8970 C   0  0  0  0  0  0  0  0  0  0  0  0
   54.6240   29.6280   43.6887 H   0  0  0  0  0  0  0  0  0  0  0  0
   56.0574   28.6917   43.1500 H   0  0  0  0  0  0  0  0  0  0  0  0
   55.8040   28.8290   45.2300 N   0  0  0  0  0  0  0  0  0  0  0  0
   56.2720   27.5270   45.6230 C   0  0  0  0  0  0  0  0  0  0  0  0
   55.3980   26.7040   46.0090 O   0  0  0  0  0  0  0  0  0  0  0  0
   57.7250   27.0390   45.5000 C   0  0  0  0  0  0  0  0  0  0  0  0
   58.6720   28.1450   46.0190 C   0  0  0  0  0  0  0  0  0  0  0  0
   59.4580   27.8960   47.1620 C   0  0  0  0  0  0  0  0  0  0  0  0
   59.3970   26.9169   47.6597 H   0  0  0  0  0  0  0  0  0  0  0  0
   60.3110   28.8730   47.6700 C   0  0  0  0  0  0  0  0  0  0  0  0
   60.9302   28.6618   48.5543 H   0  0  0  0  0  0  0  0  0  0  0  0
   60.3750   30.1230   47.0490 C   0  0  0  0  0  0  0  0  0  0  0  0
   61.3170   31.1710   47.5620 C   0  0  0  0  0  0  0  0  0  0  0  0
   61.3102   31.1634   48.6620 H   0  0  0  0  0  0  0  0  0  0  0  0
   62.3339   30.9588   47.2002 H   0  0  0  0  0  0  0  0  0  0  0  0
   60.9979   32.1596   47.2002 H   0  0  0  0  0  0  0  0  0  0  0  0
   59.6230   30.3610   45.9370 N   0  0  0  0  0  0  0  0  0  0  0  0
   59.6840   31.2880   45.4600 H   0  0  0  0  0  0  0  0  0  0  0  0
   58.7820   29.4230   45.4230 C   0  0  0  0  0  0  0  0  0  0  0  0
   58.1805   29.6614   44.5334 H   0  0  0  0  0  0  0  0  0  0  0  0
   58.1420   26.7460   44.0380 C   0  0  0  0  0  0  0  0  0  0  0  0
   59.0420   26.1136   44.0331 H   0  0  0  0  0  0  0  0  0  0  0  0
   57.3238   26.2232   43.5211 H   0  0  0  0  0  0  0  0  0  0  0  0
   58.3565   27.6930   43.5211 H   0  0  0  0  0  0  0  0  0  0  0  0
   57.8410   25.7310   46.3150 C   0  0  0  0  0  0  0  0  0  0  0  0
   57.8202   25.9654   47.3895 H   0  0  0  0  0  0  0  0  0  0  0  0
   56.9980   25.0690   46.0678 H   0  0  0  0  0  0  0  0  0  0  0  0
   58.7873   25.2276   46.0678 H   0  0  0  0  0  0  0  0  0  0  0  0
  1  2  1  0
  2  3  2  0
  3  4  1  0
  4  5  1  0
  5  6  1  0
  5  7  1  0
  5  8  1  0
  8  9  1  0
  8 10  1  0
  8 11  1  0
  2 12  1  0
 12 13  1  0
 12 14  1  0
 12 15  1  0
 15 16  1  0
 16 17  2  0
 16 18  1  0
 18 19  1  0
 19 20  2  0
 20 21  1  0
 20 22  1  0
 22 23  1  0
 22 24  2  0
 24 25  1  0
 25 26  1  0
 25 27  1  0
 25 28  1  0
 24 29  1  0
 29 30  1  0
 29 31  2  0
 31 32  1  0
 18 33  1  0
 33 34  1  0
 33 35  1  0
 33 36  1  0
 18 37  1  0
 37 38  1  0
 37 39  1  0
 37 40  1  0
 31 19  1  0
M  CHG  2  15  -1  29   1
M  END
>  <UniqueID>  (5) 
5

>  <SMILES>  (5) 
CCO/N=C/C[N-]C(=O)C(C)(C)c1ccc(C)[nH+]c1

>  <Energy>  (5) 
35.67560900440539

>  <Genealogy>  (5) 
CCON=CC[N-]C(=O)C(C)(C)c1ccc(C)[nH+]c1 (protonated)
CCO/N=C/C[N-]C(=O)C(C)(C)c1ccc(C)[nH+]c1 (cis-trans isomerization)
CCO/N=C/C[N-]C(=O)C(C)(C)c1ccc(C)[nH+]c1 (3D coordinates assigned)
CCO/N=C/C[N-]C(=O)C(C)(C)c1ccc(C)[nH+]c1 (optimized conformer: 35.67560900440539 kcal/mol)

>  <smiles>  (5) 
CCON=CCNC(=O)C(C)(C)c1ccc(C)nc1

>  <score_type>  (5) 
oracle

>  <origin>  (5) 
adg

>  <m_score__min__energy>  (5) 
-7.25

>  <m_primary>  (5) 
energy

$$$$
5:0
     RDKit          3D

 69 71  0  0  0  0  0  0  0  0999 V2000
   59.6840   33.4370   50.4810 C   0  0  0  0  0  0  0  0  0  0  0  0
   58.8730   32.2710   49.9230 C   0  0  0  0  0  0  0  0  0  0  0  0
   59.7270   31.0690   49.7780 N   0  0  0  0  0  0  0  0  0  0  0  0
   58.9110   29.9110   49.3600 C   0  0  0  0  0  0  0  0  0  0  0  0
   60.4430   30.7900   51.0470 C   0  0  0  0  0  0  0  0  0  0  0  0
   61.8860   30.3180   50.8150 C   0  0  0  0  0  0  0  0  0  0  0  0
   62.5530   31.2280   49.9650 O   0  0  0  0  0  0  0  0  0  0  0  0
   63.7760   31.6190   50.5510 C   0  0  0  0  0  0  0  0  0  0  0  0
   64.1960   32.9880   50.0040 C   0  0  0  0  0  0  0  0  0  0  0  0
   63.0000   33.9000   49.6950 C   0  0  0  0  0  0  0  0  0  0  0  0
   62.5370   33.7550   48.3040 N   0  0  0  0  0  0  0  0  0  0  0  0
   63.3980   32.8740   47.4920 C   0  0  0  0  0  0  0  0  0  0  0  0
   62.6720   31.5690   47.1310 C   0  0  0  0  0  0  0  0  0  0  0  0
   61.3350   31.4420   47.7540 N   0  0  0  0  0  0  0  0  0  0  0  0
   60.2610   31.4360   46.7670 C   0  0  0  0  0  0  0  0  0  0  0  0
   59.5540   32.6230   46.4310 C   0  0  0  0  0  0  0  0  0  0  0  0
   58.4730   32.5590   45.5230 C   0  0  0  0  0  0  0  0  0  0  0  0
   58.0210   31.3470   45.0530 N   0  0  0  0  0  0  0  0  0  0  0  0
   56.7040   31.2610   44.3860 C   0  0  0  0  0  0  0  0  0  0  0  0
   58.7870   30.2140   45.2200 C   0  0  0  0  0  0  0  0  0  0  0  0
   58.4910   29.0160   44.5190 C   0  0  0  0  0  0  0  0  0  0  0  0
   59.2310   27.8560   44.7280 C   0  0  0  0  0  0  0  0  0  0  0  0
   60.2870   27.8580   45.6250 C   0  0  0  0  0  0  0  0  0  0  0  0
   60.6280   29.0260   46.3030 C   0  0  0  0  0  0  0  0  0  0  0  0
   59.9050   30.2290   46.1020 C   0  0  0  0  0  0  0  0  0  0  0  0
   57.8060   33.8700   45.1280 C   0  0  0  0  0  0  0  0  0  0  0  0
   58.8570   34.9590   44.9080 C   0  0  0  0  0  0  0  0  0  0  0  0
   59.7930   35.1450   46.1160 C   0  0  0  0  0  0  0  0  0  0  0  0
   59.7870   33.9680   47.1090 C   0  0  0  0  0  0  0  0  0  0  0  0
   59.6623   33.4058   51.5803 H   0  0  0  0  0  0  0  0  0  0  0  0
   60.7245   33.3600   50.1324 H   0  0  0  0  0  0  0  0  0  0  0  0
   59.2498   34.3857   50.1324 H   0  0  0  0  0  0  0  0  0  0  0  0
   58.0435   32.0454   50.6094 H   0  0  0  0  0  0  0  0  0  0  0  0
   58.4807   32.5508   48.9342 H   0  0  0  0  0  0  0  0  0  0  0  0
   58.5394   29.3836   50.2509 H   0  0  0  0  0  0  0  0  0  0  0  0
   58.0588   30.2608   48.7589 H   0  0  0  0  0  0  0  0  0  0  0  0
   59.5271   29.2261   48.7589 H   0  0  0  0  0  0  0  0  0  0  0  0
   60.4651   31.7100   51.6495 H   0  0  0  0  0  0  0  0  0  0  0  0
   59.9053   29.9816   51.5641 H   0  0  0  0  0  0  0  0  0  0  0  0
   62.4129   30.2646   51.7791 H   0  0  0  0  0  0  0  0  0  0  0  0
   61.8732   29.3232   50.3458 H   0  0  0  0  0  0  0  0  0  0  0  0
   63.6547   31.6828   51.6424 H   0  0  0  0  0  0  0  0  0  0  0  0
   64.5503   30.8763   50.3084 H   0  0  0  0  0  0  0  0  0  0  0  0
   64.8322   33.4845   50.7514 H   0  0  0  0  0  0  0  0  0  0  0  0
   64.7327   32.8157   49.0594 H   0  0  0  0  0  0  0  0  0  0  0  0
   62.1729   33.6421   50.3728 H   0  0  0  0  0  0  0  0  0  0  0  0
   63.3229   34.9418   49.8375 H   0  0  0  0  0  0  0  0  0  0  0  0
   62.5750   34.7120   47.8820 H   0  0  0  0  0  0  0  0  0  0  0  0
   63.6761   33.3982   46.5658 H   0  0  0  0  0  0  0  0  0  0  0  0
   64.2938   32.6239   48.0793 H   0  0  0  0  0  0  0  0  0  0  0  0
   62.5516   31.5290   46.0383 H   0  0  0  0  0  0  0  0  0  0  0  0
   63.2865   30.7414   47.5151 H   0  0  0  0  0  0  0  0  0  0  0  0
   61.2000   32.1520   48.5030 H   0  0  0  0  0  0  0  0  0  0  0  0
   61.2970   30.5500   48.2960 H   0  0  0  0  0  0  0  0  0  0  0  0
   55.9107   31.2092   45.1462 H   0  0  0  0  0  0  0  0  0  0  0  0
   56.5523   32.1512   43.7578 H   0  0  0  0  0  0  0  0  0  0  0  0
   56.6694   30.3587   43.7578 H   0  0  0  0  0  0  0  0  0  0  0  0
   57.6612   29.0041   43.7970 H   0  0  0  0  0  0  0  0  0  0  0  0
   58.9772   26.9364   44.1804 H   0  0  0  0  0  0  0  0  0  0  0  0
   60.8577   26.9345   45.8022 H   0  0  0  0  0  0  0  0  0  0  0  0
   61.4732   29.0149   47.0069 H   0  0  0  0  0  0  0  0  0  0  0  0
   57.2380   33.7216   44.1978 H   0  0  0  0  0  0  0  0  0  0  0  0
   57.1310   34.1845   45.9376 H   0  0  0  0  0  0  0  0  0  0  0  0
   59.4648   34.6877   44.0322 H   0  0  0  0  0  0  0  0  0  0  0  0
   58.3210   35.9078   44.7581 H   0  0  0  0  0  0  0  0  0  0  0  0
   60.8189   35.2737   45.7404 H   0  0  0  0  0  0  0  0  0  0  0  0
   59.4261   36.0238   46.6666 H   0  0  0  0  0  0  0  0  0  0  0  0
   60.7585   33.9381   47.6241 H   0  0  0  0  0  0  0  0  0  0  0  0
   58.9568   34.1324   47.8117 H   0  0  0  0  0  0  0  0  0  0  0  0
  1  2  1  0
  2  3  1  0
  3  4  1  0
  3  5  1  0
  5  6  1  0
  6  7  1  0
  7  8  1  0
  8  9  1  0
  9 10  1  0
 10 11  1  0
 11 12  1  0
 12 13  1  0
 13 14  1  0
 14 15  1  0
 15 16  2  0
 16 17  1  0
 17 18  2  0
 18 19  1  0
 18 20  1  0
 20 21  2  0
 21 22  1  0
 22 23  2  0
 23 24  1  0
 24 25  2  0
 17 26  1  0
 26 27  1  0
 27 28  1  0
 28 29  1  0
 25 15  1  0
 29 16  1  0
 25 20  1  0
  1 30  1  0
  1 31  1  0
  1 32  1  0
  2 33  1  0
  2 34  1  0
  4 35  1  0
  4 36  1  0
  4 37  1  0
  5 38  1  0
  5 39  1  0
  6 40  1  0
  6 41  1  0
  8 42  1  0
  8 43  1  0
  9 44  1  0
  9 45  1  0
 10 46  1  0
 10 47  1  0
 11 48  1  0
 12 49  1  0
 12 50  1  0
 13 51  1  0
 13 52  1  0
 14 53  1  0
 14 54  1  0
 19 55  1  0
 19 56  1  0
 19 57  1  0
 21 58  1  0
 22 59  1  0
 23 60  1  0
 24 61  1  0
 26 62  1  0
 26 63  1  0
 27 64  1  0
 27 65  1  0
 28 66  1  0
 28 67  1  0
 29 68  1  0
 29 69  1  0
M  CHG  2  14   1  18   1
M  END
>  <UniqueID>  (6) 
6

>  <SMILES>  (6) 
CCN(C)CCOCCCNCC[NH2+]c1c2c([n+](C)c3ccccc13)CCCC2

>  <Energy>  (6) 
94.76160816210754

>  <Genealogy>  (6) 
CCN(C)CCOCCCNCC[NH2+]c1c2c([n+](C)c3ccccc13)CCCC2 (protonated)
CCN(C)CCOCCCNCC[NH2+]c1c2c([n+](C)c3ccccc13)CCCC2 (3D coordinates assigned)
CCN(C)CCOCCCNCC[NH2+]c1c2c([n+](C)c3ccccc13)CCCC2 (nonaromatic ring conformer: 94.76160816210754 kcal/mol)

>  <smiles>  (6) 
CCN(C)CCOCCCNCCNc1c2c([n+](C)c3ccccc13)CCCC2

>  <score_type>  (6) 
oracle

>  <origin>  (6) 
adg

>  <m_score__min__energy>  (6) 
-3.6000000000000001

>  <m_primary>  (6) 
energy

$$$$
6:0
     RDKit          3D

 31 34  0  0  0  0  0  0  0  0999 V2000
   57.1980   33.3070   44.7680 O   0  0  0  0  0  0  0  0  0  0  0  0
   57.8680   32.3570   45.2540 C   0  0  0  0  0  0  0  0  0  0  0  0
   59.1670   32.5900   45.9450 C   0  0  0  0  0  0  0  0  0  0  0  0
   59.7000   33.8860   46.0470 C   0  0  0  0  0  0  0  0  0  0  0  0
   60.9150   34.1000   46.7010 C   0  0  0  0  0  0  0  0  0  0  0  0
   61.6120   33.0280   47.2600 C   0  0  0  0  0  0  0  0  0  0  0  0
   61.0980   31.7320   47.1700 C   0  0  0  0  0  0  0  0  0  0  0  0
   59.8790   31.4930   46.5150 C   0  0  0  0  0  0  0  0  0  0  0  0
   59.3250   30.1120   46.4220 C   0  0  0  0  0  0  0  0  0  0  0  0
   59.8830   29.1470   47.0090 O   0  0  0  0  0  0  0  0  0  0  0  0
   58.0780   29.9240   45.6670 C   0  0  0  0  0  0  0  0  0  0  0  0
   57.3820   30.9790   45.1550 C   0  0  0  0  0  0  0  0  0  0  0  0
   56.2180   30.5610   44.6260 N   0  0  0  0  0  0  0  0  0  0  0  0
   56.1870   29.2680   44.7950 O   0  0  0  0  0  0  0  0  0  0  0  0
   57.2720   28.8290   45.4040 C   0  0  0  0  0  0  0  0  0  0  0  0
   57.5160   27.4090   45.7170 C   0  0  0  0  0  0  0  0  0  0  0  0
   58.6690   26.7520   45.2590 C   0  0  0  0  0  0  0  0  0  0  0  0
   58.8700   25.3990   45.5430 C   0  0  0  0  0  0  0  0  0  0  0  0
   57.9150   24.6820   46.2710 C   0  0  0  0  0  0  0  0  0  0  0  0
   58.1300   23.3350   46.5490 O   0  0  0  0  0  0  0  0  0  0  0  0
   56.7500   25.3260   46.7100 C   0  0  0  0  0  0  0  0  0  0  0  0
   56.5480   26.6810   46.4260 C   0  0  0  0  0  0  0  0  0  0  0  0
   59.1572   34.7367   45.6093 H   0  0  0  0  0  0  0  0  0  0  0  0
   61.3246   35.1181   46.7759 H   0  0  0  0  0  0  0  0  0  0  0  0
   62.5690   33.2039   47.7730 H   0  0  0  0  0  0  0  0  0  0  0  0
   61.6522   30.8927   47.6154 H   0  0  0  0  0  0  0  0  0  0  0  0
   59.4180   27.3054   44.6735 H   0  0  0  0  0  0  0  0  0  0  0  0
   59.7831   24.8955   45.1926 H   0  0  0  0  0  0  0  0  0  0  0  0
   58.1500   22.9870   47.5000 H   0  0  0  0  0  0  0  0  0  0  0  0
   55.9935   24.7653   47.2786 H   0  0  0  0  0  0  0  0  0  0  0  0
   55.6256   27.1784   46.7602 H   0  0  0  0  0  0  0  0  0  0  0  0
  1  2  2  0
  2  3  1  0
  3  4  2  0
  4  5  1  0
  5  6  2  0
  6  7  1  0
  7  8  2  0
  8  9  1  0
  9 10  2  0
  9 11  1  0
 11 12  1  0
 12 13  2  0
 13 14  1  0
 14 15  1  0
 15 16  1  0
 16 17  2  0
 17 18  1  0
 18 19  2  0
 19 20  1  0
 19 21  1  0
 21 22  2  0
 12  2  1  0
 22 16  1  0
  8  3  1  0
 15 11  2  0
  4 23  1  0
  5 24  1  0
  6 25  1  0
  7 26  1  0
 17 27  1  0
 18 28  1  0
 20 29  1  0
 21 30  1  0
 22 31  1  0
M  END
>  <UniqueID>  (7) 
7

>  <SMILES>  (7) 
O=C1c2ccccc2C(=O)c2c1noc2-c1ccc(O)cc1

>  <Energy>  (7) 
78.5551636964974

>  <Genealogy>  (7) 
O=C1c2ccccc2C(=O)c2c1noc2-c1ccc(O)cc1 (3D coordinates assigned)
O=C1c2ccccc2C(=O)c2c1noc2-c1ccc(O)cc1 (nonaromatic ring conformer: 78.5551636964974 kcal/mol)

>  <smiles>  (7) 
O=C1c2ccccc2C(=O)c2c1noc2-c1ccc(O)cc1

>  <score_type>  (7) 
oracle

>  <origin>  (7) 
adg

>  <m_score__min__energy>  (7) 
-7.9500000000000002

>  <m_primary>  (7) 
energy

$$$$
7:0
     RDKit          3D

 40 42  0  0  0  0  0  0  0  0999 V2000
   59.5630   31.5230   46.8980 C   0  0  0  0  0  0  0  0  0  0  0  0
   59.5280   32.9050   46.4250 N   0  0  0  0  0  0  0  0  0  0  0  0
   58.5440   33.5070   45.7200 C   0  0  0  0  0  0  0  0  0  0  0  0
   57.0120   32.7190   45.2110 S   0  0  0  0  0  0  0  0  0  0  0  0
   57.6810   32.0970   43.6250 C   0  0  0  0  0  0  0  0  0  0  0  0
   57.0240   30.7780   43.2090 C   0  0  0  0  0  0  0  0  0  0  0  0
   56.8350   29.8600   44.3900 C   0  0  0  0  0  0  0  0  0  0  0  0
   55.6730   29.7130   44.8560 O   0  0  0  0  0  0  0  0  0  0  0  0
   57.9390   29.1790   45.0150 N   0  0  0  0  0  0  0  0  0  0  0  0
   59.2950   29.1380   44.4910 C   0  0  0  0  0  0  0  0  0  0  0  0
   60.0530   28.1640   45.3840 C   0  0  0  0  0  0  0  0  0  0  0  0
   59.2030   28.0030   46.6420 C   0  0  0  0  0  0  0  0  0  0  0  0
   57.7940   28.4250   46.2470 C   0  0  0  0  0  0  0  0  0  0  0  0
   58.8450   34.7880   45.4330 N   0  0  0  0  0  0  0  0  0  0  0  0
   60.0340   35.0140   45.9680 N   0  0  0  0  0  0  0  0  0  0  0  0
   60.4450   33.8880   46.5820 C   0  0  0  0  0  0  0  0  0  0  0  0
   61.7320   33.7980   47.3020 C   0  0  0  0  0  0  0  0  0  0  0  0
   62.9660   33.4370   46.7890 C   0  0  0  0  0  0  0  0  0  0  0  0
   63.8400   33.4790   47.8530 C   0  0  0  0  0  0  0  0  0  0  0  0
   63.0930   33.8560   48.9490 C   0  0  0  0  0  0  0  0  0  0  0  0
   61.8440   34.0340   48.5900 O   0  0  0  0  0  0  0  0  0  0  0  0
   59.5633   31.5118   47.9979 H   0  0  0  0  0  0  0  0  0  0  0  0
   58.6782   30.9856   46.5261 H   0  0  0  0  0  0  0  0  0  0  0  0
   60.4739   31.0311   46.5261 H   0  0  0  0  0  0  0  0  0  0  0  0
   57.4983   32.8482   42.8424 H   0  0  0  0  0  0  0  0  0  0  0  0
   58.7581   31.9162   43.7557 H   0  0  0  0  0  0  0  0  0  0  0  0
   56.0421   30.9928   42.7621 H   0  0  0  0  0  0  0  0  0  0  0  0
   57.6824   30.2774   42.4838 H   0  0  0  0  0  0  0  0  0  0  0  0
   59.2933   28.7822   43.4501 H   0  0  0  0  0  0  0  0  0  0  0  0
   59.7603   30.1347   44.4907 H   0  0  0  0  0  0  0  0  0  0  0  0
   60.1743   27.1952   44.8774 H   0  0  0  0  0  0  0  0  0  0  0  0
   61.0611   28.5344   45.6219 H   0  0  0  0  0  0  0  0  0  0  0  0
   59.2094   26.9553   46.9772 H   0  0  0  0  0  0  0  0  0  0  0  0
   59.5900   28.6111   47.4729 H   0  0  0  0  0  0  0  0  0  0  0  0
   57.1609   27.5406   46.0828 H   0  0  0  0  0  0  0  0  0  0  0  0
   57.3144   29.0243   47.0350 H   0  0  0  0  0  0  0  0  0  0  0  0
   60.5380   35.9270   45.9220 H   0  0  0  0  0  0  0  0  0  0  0  0
   63.2002   33.1716   45.7475 H   0  0  0  0  0  0  0  0  0  0  0  0
   64.9171   33.2566   47.8324 H   0  0  0  0  0  0  0  0  0  0  0  0
   63.4846   33.9874   49.9685 H   0  0  0  0  0  0  0  0  0  0  0  0
  1  2  1  0
  2  3  1  0
  3  4  1  0
  4  5  1  0
  5  6  1  0
  6  7  1  0
  7  8  2  0
  7  9  1  0
  9 10  1  0
 10 11  1  0
 11 12  1  0
 12 13  1  0
  3 14  2  0
 14 15  1  0
 15 16  2  0
 16 17  1  0
 17 18  2  0
 18 19  1  0
 19 20  2  0
 20 21  1  0
 16  2  1  0
 21 17  1  0
 13  9  1  0
  1 22  1  0
  1 23  1  0
  1 24  1  0
  5 25  1  0
  5 26  1  0
  6 27  1  0
  6 28  1  0
 10 29  1  0
 10 30  1  0
 11 31  1  0
 11 32  1  0
 12 33  1  0
 12 34  1  0
 13 35  1  0
 13 36  1  0
 15 37  1  0
 18 38  1  0
 19 39  1  0
 20 40  1  0
M  CHG  1  15   1
M  END
>  <UniqueID>  (8) 
8

>  <SMILES>  (8) 
Cn1c(SCCC(=O)N2CCCC2)n[nH+]c1-c1ccco1

>  <Energy>  (8) 
96.68360480226481

>  <Genealogy>  (8) 
Cn1c(SCCC(=O)N2CCCC2)n[nH+]c1-c1ccco1 (protonated)
Cn1c(SCCC(=O)N2CCCC2)n[nH+]c1-c1ccco1 (3D coordinates assigned)
Cn1c(SCCC(=O)N2CCCC2)n[nH+]c1-c1ccco1 (nonaromatic ring conformer: 96.68360480226481 kcal/mol)

>  <smiles>  (8) 
Cn1c(SCCC(=O)N2CCCC2)nnc1-c1ccco1

>  <score_type>  (8) 
oracle

>  <origin>  (8) 
adg

>  <m_score__min__energy>  (8) 
-6.6699999999999999

>  <m_primary>  (8) 
energy

$$$$
8:0
     RDKit          3D

 44 45  0  0  0  0  0  0  0  0999 V2000
   63.2440   33.9170   46.3230 C   0  0  0  0  0  0  0  0  0  0  0  0
   63.9860   33.3380   47.5220 C   0  0  0  0  0  0  0  0  0  0  0  0
   63.6660   31.9690   47.6830 O   0  0  0  0  0  0  0  0  0  0  0  0
   63.2430   31.7110   49.0060 C   0  0  0  0  0  0  0  0  0  0  0  0
   61.7240   31.6070   49.0350 C   0  0  0  0  0  0  0  0  0  0  0  0
   61.1730   32.6420   48.2470 O   0  0  0  0  0  0  0  0  0  0  0  0
   61.0920   33.8420   48.9920 C   0  0  0  0  0  0  0  0  0  0  0  0
   59.8030   34.5900   48.6490 C   0  0  0  0  0  0  0  0  0  0  0  0
   59.4970   34.4470   47.2250 N   0  0  0  0  0  0  0  0  0  0  0  0
   59.6870   35.3910   46.2720 C   0  0  0  0  0  0  0  0  0  0  0  0
   59.2240   34.9410   45.0400 C   0  0  0  0  0  0  0  0  0  0  0  0
   58.7270   33.6770   45.2780 C   0  0  0  0  0  0  0  0  0  0  0  0
   58.1210   32.7690   44.4120 C   0  0  0  0  0  0  0  0  0  0  0  0
   57.6820   31.5400   44.9450 C   0  0  0  0  0  0  0  0  0  0  0  0
   56.8840   30.3560   43.9120 S   0  0  0  0  0  0  0  0  0  0  0  0
   55.5510   29.9780   44.4950 O   0  0  0  0  0  0  0  0  0  0  0  0
   56.6540   30.9650   42.5570 O   0  0  0  0  0  0  0  0  0  0  0  0
   57.8710   28.9370   43.7410 N   0  0  0  0  0  0  0  0  0  0  0  0
   59.0790   29.0740   44.5510 C   0  0  0  0  0  0  0  0  0  0  0  0
   57.8530   31.2640   46.3230 C   0  0  0  0  0  0  0  0  0  0  0  0
   58.4680   32.2020   47.1710 C   0  0  0  0  0  0  0  0  0  0  0  0
   58.9000   33.4060   46.6100 C   0  0  0  0  0  0  0  0  0  0  0  0
   62.4224   34.5581   46.6749 H   0  0  0  0  0  0  0  0  0  0  0  0
   63.9396   34.5134   45.7144 H   0  0  0  0  0  0  0  0  0  0  0  0
   62.8346   33.0973   45.7144 H   0  0  0  0  0  0  0  0  0  0  0  0
   65.0695   33.4411   47.3627 H   0  0  0  0  0  0  0  0  0  0  0  0
   63.6847   33.8849   48.4276 H   0  0  0  0  0  0  0  0  0  0  0  0
   63.6832   30.7653   49.3551 H   0  0  0  0  0  0  0  0  0  0  0  0
   63.5700   32.5291   49.6646 H   0  0  0  0  0  0  0  0  0  0  0  0
   61.4141   30.6320   48.6309 H   0  0  0  0  0  0  0  0  0  0  0  0
   61.3666   31.7008   50.0711 H   0  0  0  0  0  0  0  0  0  0  0  0
   61.0994   33.6042   50.0660 H   0  0  0  0  0  0  0  0  0  0  0  0
   61.9538   34.4785   48.7425 H   0  0  0  0  0  0  0  0  0  0  0  0
   58.9742   34.1756   49.2418 H   0  0  0  0  0  0  0  0  0  0  0  0
   59.9355   35.6570   48.8814 H   0  0  0  0  0  0  0  0  0  0  0  0
   60.1438   36.3761   46.4480 H   0  0  0  0  0  0  0  0  0  0  0  0
   59.2490   35.4787   44.0807 H   0  0  0  0  0  0  0  0  0  0  0  0
   57.9892   33.0039   43.3455 H   0  0  0  0  0  0  0  0  0  0  0  0
   58.1640   28.8850   42.7370 H   0  0  0  0  0  0  0  0  0  0  0  0
   58.8108   29.0436   45.6174 H   0  0  0  0  0  0  0  0  0  0  0  0
   59.7691   28.2484   44.3228 H   0  0  0  0  0  0  0  0  0  0  0  0
   59.5667   30.0332   44.3228 H   0  0  0  0  0  0  0  0  0  0  0  0
   57.5013   30.3063   46.7343 H   0  0  0  0  0  0  0  0  0  0  0  0
   58.6046   31.9941   48.2425 H   0  0  0  0  0  0  0  0  0  0  0  0
  1  2  1  0
  2  3  1  0
  3  4  1  0
  4  5  1  0
  5  6  1  0
  6  7  1  0
  7  8  1  0
  8  9  1  0
  9 10  1  0
 10 11  2  0
 11 12  1  0
 12 13  2  0
 13 14  1  0
 14 15  1  0
 15 16  2  0
 15 17  2  0
 15 18  1  0
 18 19  1  0
 14 20  2  0
 20 21  1  0
 21 22  2  0
 22  9  1  0
 22 12  1  0
  1 23  1  0
  1 24  1  0
  1 25  1  0
  2 26  1  0
  2 27  1  0
  4 28  1  0
  4 29  1  0
  5 30  1  0
  5 31  1  0
  7 32  1  0
  7 33  1  0
  8 34  1  0
  8 35  1  0
 10 36  1  0
 11 37  1  0
 13 38  1  0
 18 39  1  0
 19 40  1  0
 19 41  1  0
 19 42  1  0
 20 43  1  0
 21 44  1  0
M  END
>  <UniqueID>  (9) 
9

>  <SMILES>  (9) 
CCOCCOCCn1ccc2cc(S(=O)(=O)NC)ccc21

>  <Energy>  (9) 
69.91796937902055

>  <Genealogy>  (9) 
CCOCCOCCn1ccc2cc(S(=O)(=O)NC)ccc21 (3D coordinates assigned)
CCOCCOCCn1ccc2cc(S(=O)(=O)NC)ccc21 (optimized conformer: 69.91796937902055 kcal/mol)

>  <smiles>  (9) 
CCOCCOCCn1ccc2cc(S(=O)(=O)NC)ccc21

>  <score_type>  (9) 
oracle

>  <origin>  (9) 
adg

>  <m_score__min__energy>  (9) 
-7.2699999999999996

>  <m_primary>  (9) 
energy

$$$$
9:0
     RDKit          3D

 67 70  0  0  0  0  0  0  0  0999 V2000
   58.3620   19.5610   47.1430 C   0  0  0  0  0  0  0  0  0  0  0  0
   57.1960   20.3640   46.5760 C   0  0  0  0  0  0  0  0  0  0  0  0
   56.9850   21.5560   47.3310 O   0  0  0  0  0  0  0  0  0  0  0  0
   57.0890   22.8670   46.8390 C   0  0  0  0  0  0  0  0  0  0  0  0
   57.7340   23.1780   45.6280 C   0  0  0  0  0  0  0  0  0  0  0  0
   57.8070   24.5020   45.1860 C   0  0  0  0  0  0  0  0  0  0  0  0
   57.2500   25.5410   45.9490 C   0  0  0  0  0  0  0  0  0  0  0  0
   57.3390   26.9450   45.4920 C   0  0  0  0  0  0  0  0  0  0  0  0
   56.2900   27.6340   45.3590 O   0  0  0  0  0  0  0  0  0  0  0  0
   58.5900   27.5090   45.2110 O   0  0  0  0  0  0  0  0  0  0  0  0
   59.4320   28.1160   46.1980 C   0  0  2  0  0  0  0  0  0  0  0  0
   59.5840   27.1470   47.3770 C   0  0  0  0  0  0  0  0  0  0  0  0
   60.7380   27.5540   48.2910 C   0  0  0  0  0  0  0  0  0  0  0  0
   60.2510   28.5060   49.3430 C   0  0  0  0  0  0  0  0  0  0  0  0
   60.3590   28.1290   50.6900 C   0  0  0  0  0  0  0  0  0  0  0  0
   59.9360   28.9830   51.7160 C   0  0  0  0  0  0  0  0  0  0  0  0
   60.0590   28.6320   53.0700 O   0  0  0  0  0  0  0  0  0  0  0  0
   59.5630   27.4280   53.6470 C   0  0  0  0  0  0  0  0  0  0  0  0
   59.3790   30.2260   51.4040 C   0  0  0  0  0  0  0  0  0  0  0  0
   59.0280   31.0550   52.4860 O   0  0  0  0  0  0  0  0  0  0  0  0
   57.7090   31.4370   52.8630 C   0  0  0  0  0  0  0  0  0  0  0  0
   59.2000   30.5900   50.0460 C   0  0  0  0  0  0  0  0  0  0  0  0
   58.5410   31.7810   49.7290 O   0  0  0  0  0  0  0  0  0  0  0  0
   59.1190   33.0520   50.0030 C   0  0  0  0  0  0  0  0  0  0  0  0
   59.6770   29.7500   49.0050 C   0  0  0  0  0  0  0  0  0  0  0  0
   59.5920   30.2420   47.5910 C   0  0  0  0  0  0  0  0  0  0  0  0
   60.1670   31.4900   47.3440 C   0  0  0  0  0  0  0  0  0  0  0  0
   59.8010   32.4130   46.3740 C   0  0  0  0  0  0  0  0  0  0  0  0
   58.5960   32.4620   45.6730 C   0  0  0  0  0  0  0  0  0  0  0  0
   58.2270   34.0410   44.8780 S   0  0  0  0  0  0  0  0  0  0  0  0
   59.3920   34.9790   45.9150 C   0  0  0  0  0  0  0  0  0  0  0  0
   57.6750   31.4140   45.5060 C   0  0  0  0  0  0  0  0  0  0  0  0
   56.5910   31.6790   44.9170 O   0  0  0  0  0  0  0  0  0  0  0  0
   57.8960   30.0710   45.8170 C   0  0  0  0  0  0  0  0  0  0  0  0
   58.9200   29.5050   46.5940 C   0  0  0  0  0  0  0  0  0  0  0  0
   56.6120   25.2280   47.1630 C   0  0  0  0  0  0  0  0  0  0  0  0
   56.5330   23.9020   47.5980 C   0  0  0  0  0  0  0  0  0  0  0  0
   58.3248   19.5866   48.2421 H   0  0  0  0  0  0  0  0  0  0  0  0
   58.2917   18.5189   46.7979 H   0  0  0  0  0  0  0  0  0  0  0  0
   59.3105   19.9983   46.7979 H   0  0  0  0  0  0  0  0  0  0  0  0
   57.4173   20.6328   45.5326 H   0  0  0  0  0  0  0  0  0  0  0  0
   56.2860   19.7483   46.6290 H   0  0  0  0  0  0  0  0  0  0  0  0
   58.1834   22.3747   45.0256 H   0  0  0  0  0  0  0  0  0  0  0  0
   58.3049   24.7320   44.2325 H   0  0  0  0  0  0  0  0  0  0  0  0
   60.4355   28.2979   45.7857 H   0  0  0  0  0  0  0  0  0  0  0  0
   58.6509   27.1436   47.9594 H   0  0  0  0  0  0  0  0  0  0  0  0
   59.7986   26.1457   46.9753 H   0  0  0  0  0  0  0  0  0  0  0  0
   61.1522   26.6574   48.7753 H   0  0  0  0  0  0  0  0  0  0  0  0
   61.5160   28.0481   47.6905 H   0  0  0  0  0  0  0  0  0  0  0  0
   60.7829   27.1464   50.9444 H   0  0  0  0  0  0  0  0  0  0  0  0
   59.5953   27.5065   54.7437 H   0  0  0  0  0  0  0  0  0  0  0  0
   58.5249   27.2659   53.3215 H   0  0  0  0  0  0  0  0  0  0  0  0
   60.1857   26.5817   53.3215 H   0  0  0  0  0  0  0  0  0  0  0  0
   57.6331   31.4590   53.9602 H   0  0  0  0  0  0  0  0  0  0  0  0
   57.4874   32.4362   52.4600 H   0  0  0  0  0  0  0  0  0  0  0  0
   56.9877   30.7109   52.4600 H   0  0  0  0  0  0  0  0  0  0  0  0
   59.1853   33.1977   51.0913 H   0  0  0  0  0  0  0  0  0  0  0  0
   60.1269   33.0986   49.5648 H   0  0  0  0  0  0  0  0  0  0  0  0
   58.4917   33.8422   49.5648 H   0  0  0  0  0  0  0  0  0  0  0  0
   61.0078   31.7750   47.9935 H   0  0  0  0  0  0  0  0  0  0  0  0
   60.5412   33.1898   46.1319 H   0  0  0  0  0  0  0  0  0  0  0  0
   59.1664   34.7974   46.9762 H   0  0  0  0  0  0  0  0  0  0  0  0
   60.4201   34.6537   45.6978 H   0  0  0  0  0  0  0  0  0  0  0  0
   59.2936   36.0528   45.6978 H   0  0  0  0  0  0  0  0  0  0  0  0
   57.1698   29.3598   45.3965 H   0  0  0  0  0  0  0  0  0  0  0  0
   56.1729   26.0310   47.7732 H   0  0  0  0  0  0  0  0  0  0  0  0
   56.0282   23.6700   48.5474 H   0  0  0  0  0  0  0  0  0  0  0  0
  1  2  1  0
  2  3  1  0
  3  4  1  0
  4  5  2  0
  5  6  1  0
  6  7  2  0
  7  8  1  0
  8  9  2  0
  8 10  1  0
 10 11  1  0
 11 12  1  0
 12 13  1  0
 13 14  1  0
 14 15  2  0
 15 16  1  0
 16 17  1  0
 17 18  1  0
 16 19  2  0
 19 20  1  0
 20 21  1  0
 19 22  1  0
 22 23  1  0
 23 24  1  0
 22 25  2  0
 25 26  1  0
 26 27  2  0
 27 28  1  0
 28 29  2  0
 29 30  1  0
 30 31  1  0
 29 32  1  0
 32 33  2  0
 32 34  1  0
 34 35  2  0
  7 36  1  0
 36 37  2  0
 37  4  1  0
 35 11  1  0
 25 14  1  0
 35 26  1  0
  1 38  1  0
  1 39  1  0
  1 40  1  0
  2 41  1  0
  2 42  1  0
  5 43  1  0
  6 44  1  0
 11 45  1  6
 12 46  1  0
 12 47  1  0
 13 48  1  0
 13 49  1  0
 15 50  1  0
 18 51  1  0
 18 52  1  0
 18 53  1  0
 21 54  1  0
 21 55  1  0
 21 56  1  0
 24 57  1  0
 24 58  1  0
 24 59  1  0
 27 60  1  0
 28 61  1  0
 31 62  1  0
 31 63  1  0
 31 64  1  0
 34 65  1  0
 36 66  1  0
 37 67  1  0
M  END
>  <UniqueID>  (10) 
10

>  <SMILES>  (10) 
CCOc1ccc(C(=O)O[C@@H]2CCc3cc(OC)c(OC)c(OC)c3-c3ccc(SC)c(=O)cc32)cc1

>  <Energy>  (10) 
129.43398629424547

>  <Genealogy>  (10) 
CCOc1ccc(C(=O)O[C@@H]2CCc3cc(OC)c(OC)c(OC)c3-c3ccc(SC)c(=O)cc32)cc1 (chirality)
CCOc1ccc(C(=O)O[C@@H]2CCc3cc(OC)c(OC)c(OC)c3-c3ccc(SC)c(=O)cc32)cc1 (3D coordinates assigned)
CCOc1ccc(C(=O)O[C@@H]2CCc3cc(OC)c(OC)c(OC)c3-c3ccc(SC)c(=O)cc32)cc1 (nonaromatic ring conformer: 129.43398629424547 kcal/mol)

>  <smiles>  (10) 
CCOc1ccc(C(=O)OC2CCc3cc(OC)c(OC)c(OC)c3-c3ccc(SC)c(=O)cc32)cc1

>  <score_type>  (10) 
oracle

>  <origin>  (10) 
adg

>  <m_score__min__energy>  (10) 
-5.9000000000000004

>  <m_primary>  (10) 
energy

$$$$
10:0
     RDKit          3D

 44 46  0  0  0  0  0  0  0  0999 V2000
   56.6270   30.2720   43.3410 C   0  0  0  0  0  0  0  0  0  0  0  0
   56.4540   30.9740   44.5670 O   0  0  0  0  0  0  0  0  0  0  0  0
   57.3920   31.8610   45.1180 C   0  0  0  0  0  0  0  0  0  0  0  0
   57.3310   33.2480   44.8760 C   0  0  0  0  0  0  0  0  0  0  0  0
   58.3020   34.1030   45.4020 C   0  0  0  0  0  0  0  0  0  0  0  0
   59.3620   33.5880   46.1590 C   0  0  0  0  0  0  0  0  0  0  0  0
   60.3860   34.5120   46.7500 C   0  0  0  0  0  0  0  0  0  0  0  0
   59.4160   32.2130   46.4210 C   0  0  0  0  0  0  0  0  0  0  0  0
   58.4320   31.3500   45.9190 C   0  0  0  0  0  0  0  0  0  0  0  0
   58.5110   29.9510   46.2330 N   0  0  0  0  0  0  0  0  0  0  0  0
   59.4560   29.0570   45.5650 C   0  0  0  0  0  0  0  0  0  0  0  0
   59.0180   27.6270   45.7250 C   0  0  0  0  0  0  0  0  0  0  0  0
   58.4820   26.8470   44.7220 C   0  0  0  0  0  0  0  0  0  0  0  0
   58.3210   25.5970   45.3040 C   0  0  0  0  0  0  0  0  0  0  0  0
   57.7920   24.3720   44.6570 C   0  0  0  0  0  0  0  0  0  0  0  0
   56.7300   24.4660   43.7380 C   0  0  0  0  0  0  0  0  0  0  0  0
   56.2210   23.3200   43.1200 C   0  0  0  0  0  0  0  0  0  0  0  0
   56.7660   22.0670   43.4100 C   0  0  0  0  0  0  0  0  0  0  0  0
   56.2720   20.9570   42.8100 F   0  0  0  0  0  0  0  0  0  0  0  0
   57.8210   21.9590   44.3200 C   0  0  0  0  0  0  0  0  0  0  0  0
   58.3330   23.1020   44.9400 C   0  0  0  0  0  0  0  0  0  0  0  0
   58.7470   25.6400   46.5840 N   0  0  0  0  0  0  0  0  0  0  0  0
   59.1640   26.8710   46.8330 N   0  0  0  0  0  0  0  0  0  0  0  0
   59.7350   27.2780   48.1120 C   0  0  0  0  0  0  0  0  0  0  0  0
   56.8853   29.2238   43.5520 H   0  0  0  0  0  0  0  0  0  0  0  0
   55.6926   30.3099   42.7618 H   0  0  0  0  0  0  0  0  0  0  0  0
   57.4367   30.7397   42.7618 H   0  0  0  0  0  0  0  0  0  0  0  0
   56.5122   33.6604   44.2681 H   0  0  0  0  0  0  0  0  0  0  0  0
   58.2340   35.1859   45.2210 H   0  0  0  0  0  0  0  0  0  0  0  0
   60.3330   34.4641   47.8477 H   0  0  0  0  0  0  0  0  0  0  0  0
   61.3895   34.2078   46.4178 H   0  0  0  0  0  0  0  0  0  0  0  0
   60.1862   35.5414   46.4178 H   0  0  0  0  0  0  0  0  0  0  0  0
   60.2391   31.8063   47.0269 H   0  0  0  0  0  0  0  0  0  0  0  0
   57.6870   29.5080   46.6990 H   0  0  0  0  0  0  0  0  0  0  0  0
   59.4982   29.3067   44.4946 H   0  0  0  0  0  0  0  0  0  0  0  0
   60.4504   29.1813   46.0185 H   0  0  0  0  0  0  0  0  0  0  0  0
   58.2372   27.1476   43.6926 H   0  0  0  0  0  0  0  0  0  0  0  0
   56.2968   25.4497   43.5041 H   0  0  0  0  0  0  0  0  0  0  0  0
   55.3901   23.4051   42.4043 H   0  0  0  0  0  0  0  0  0  0  0  0
   58.2494   20.9720   44.5488 H   0  0  0  0  0  0  0  0  0  0  0  0
   59.1645   23.0096   45.6542 H   0  0  0  0  0  0  0  0  0  0  0  0
   59.1380   26.8525   48.9321 H   0  0  0  0  0  0  0  0  0  0  0  0
   60.7701   26.9129   48.1842 H   0  0  0  0  0  0  0  0  0  0  0  0
   59.7275   28.3756   48.1842 H   0  0  0  0  0  0  0  0  0  0  0  0
  1  2  1  0
  2  3  1  0
  3  4  2  0
  4  5  1  0
  5  6  2  0
  6  7  1  0
  6  8  1  0
  8  9  2  0
  9 10  1  0
 10 11  1  0
 11 12  1  0
 12 13  2  0
 13 14  1  0
 14 15  1  0
 15 16  2  0
 16 17  1  0
 17 18  2  0
 18 19  1  0
 18 20  1  0
 20 21  2  0
 14 22  2  0
 22 23  1  0
 23 24  1  0
  9  3  1  0
 23 12  1  0
 21 15  1  0
  1 25  1  0
  1 26  1  0
  1 27  1  0
  4 28  1  0
  5 29  1  0
  7 30  1  0
  7 31  1  0
  7 32  1  0
  8 33  1  0
 10 34  1  0
 11 35  1  0
 11 36  1  0
 13 37  1  0
 16 38  1  0
 17 39  1  0
 20 40  1  0
 21 41  1  0
 24 42  1  0
 24 43  1  0
 24 44  1  0
M  END
>  <UniqueID>  (11) 
11

>  <SMILES>  (11) 
COc1ccc(C)cc1NCc1cc(-c2ccc(F)cc2)nn1C

>  <Energy>  (11) 
76.80379081361818

>  <Genealogy>  (11) 
COc1ccc(C)cc1NCc1cc(-c2ccc(F)cc2)nn1C (3D coordinates assigned)
COc1ccc(C)cc1NCc1cc(-c2ccc(F)cc2)nn1C (optimized conformer: 76.80379081361818 kcal/mol)

>  <smiles>  (11) 
COc1ccc(C)cc1NCc1cc(-c2ccc(F)cc2)nn1C

>  <score_type>  (11) 
oracle

>  <origin>  (11) 
adg

>  <m_score__min__energy>  (11) 
-8.2899999999999991

>  <m_primary>  (11) 
energy

$$$$
11:0
     RDKit          3D

 49 51  0  0  0  0  0  0  0  0999 V2000
   51.0560   23.8080   44.2440 C   0  0  0  0  0  0  0  0  0  0  0  0
   51.4650   22.5740   44.8250 O   0  0  0  0  0  0  0  0  0  0  0  0
   51.9370   22.4250   46.1410 C   0  0  0  0  0  0  0  0  0  0  0  0
   51.0780   22.1260   47.2210 C   0  0  0  0  0  0  0  0  0  0  0  0
   51.5940   21.9840   48.5110 C   0  0  0  0  0  0  0  0  0  0  0  0
   52.9630   22.1350   48.7390 C   0  0  0  0  0  0  0  0  0  0  0  0
   53.8250   22.4200   47.6760 C   0  0  0  0  0  0  0  0  0  0  0  0
   53.3190   22.5710   46.3670 C   0  0  0  0  0  0  0  0  0  0  0  0
   54.1460   22.8460   45.2640 O   0  0  0  0  0  0  0  0  0  0  0  0
   54.7710   24.0980   44.9810 C   0  0  0  0  0  0  0  0  0  0  0  0
   54.0270   25.2730   45.6230 C   0  0  0  0  0  0  0  0  0  0  0  0
   54.9610   26.3360   45.9820 N   0  0  0  0  0  0  0  0  0  0  0  0
   56.2350   26.0890   46.5810 C   0  0  0  0  0  0  0  0  0  0  0  0
   56.4470   25.0110   47.2010 O   0  0  0  0  0  0  0  0  0  0  0  0
   57.3320   27.0930   46.4450 C   0  0  0  0  0  0  0  0  0  0  0  0
   57.5960   27.4760   44.6790 S   0  0  0  0  0  0  0  0  0  0  0  0
   57.3820   29.2460   44.8740 C   0  0  0  0  0  0  0  0  0  0  0  0
   56.2310   29.8860   44.5860 N   0  0  0  0  0  0  0  0  0  0  0  0
   56.4360   31.1690   44.8320 N   0  0  0  0  0  0  0  0  0  0  0  0
   57.7120   31.3000   45.2480 C   0  0  0  0  0  0  0  0  0  0  0  0
   58.3080   32.6060   45.5940 C   0  0  0  0  0  0  0  0  0  0  0  0
   58.5120   32.9400   46.9430 C   0  0  0  0  0  0  0  0  0  0  0  0
   59.0380   34.1910   47.2880 C   0  0  0  0  0  0  0  0  0  0  0  0
   59.3540   35.1190   46.2940 C   0  0  0  0  0  0  0  0  0  0  0  0
   59.1430   34.8000   44.9510 C   0  0  0  0  0  0  0  0  0  0  0  0
   58.6160   33.5520   44.6010 C   0  0  0  0  0  0  0  0  0  0  0  0
   58.3320   30.0990   45.3010 N   0  0  0  0  0  0  0  0  0  0  0  0
   59.7170   29.7870   45.6630 C   0  0  0  0  0  0  0  0  0  0  0  0
   50.8176   24.5274   45.0412 H   0  0  0  0  0  0  0  0  0  0  0  0
   51.8698   24.2075   43.6210 H   0  0  0  0  0  0  0  0  0  0  0  0
   50.1647   23.6424   43.6210 H   0  0  0  0  0  0  0  0  0  0  0  0
   49.9989   22.0045   47.0458 H   0  0  0  0  0  0  0  0  0  0  0  0
   50.9203   21.7527   49.3492 H   0  0  0  0  0  0  0  0  0  0  0  0
   53.3644   22.0295   49.7577 H   0  0  0  0  0  0  0  0  0  0  0  0
   54.9041   22.5272   47.8608 H   0  0  0  0  0  0  0  0  0  0  0  0
   55.8003   24.0760   45.3684 H   0  0  0  0  0  0  0  0  0  0  0  0
   54.7573   24.2441   43.8908 H   0  0  0  0  0  0  0  0  0  0  0  0
   53.2879   25.6664   44.9096 H   0  0  0  0  0  0  0  0  0  0  0  0
   53.5237   24.9193   46.5349 H   0  0  0  0  0  0  0  0  0  0  0  0
   57.0554   28.0125   46.9817 H   0  0  0  0  0  0  0  0  0  0  0  0
   58.2586   26.6820   46.8723 H   0  0  0  0  0  0  0  0  0  0  0  0
   58.2576   32.2162   47.7313 H   0  0  0  0  0  0  0  0  0  0  0  0
   59.2028   34.4435   48.3459 H   0  0  0  0  0  0  0  0  0  0  0  0
   59.7687   36.1002   46.5684 H   0  0  0  0  0  0  0  0  0  0  0  0
   59.3914   35.5308   44.1672 H   0  0  0  0  0  0  0  0  0  0  0  0
   58.4417   33.3097   43.5423 H   0  0  0  0  0  0  0  0  0  0  0  0
   59.8136   29.7652   46.7585 H   0  0  0  0  0  0  0  0  0  0  0  0
   59.9912   28.8046   45.2511 H   0  0  0  0  0  0  0  0  0  0  0  0
   60.3860   30.5570   45.2511 H   0  0  0  0  0  0  0  0  0  0  0  0
  1  2  1  0
  2  3  1  0
  3  4  2  0
  4  5  1  0
  5  6  2  0
  6  7  1  0
  7  8  2  0
  8  9  1  0
  9 10  1  0
 10 11  1  0
 11 12  1  0
 12 13  1  0
 13 14  2  0
 13 15  1  0
 15 16  1  0
 16 17  1  0
 17 18  2  0
 18 19  1  0
 19 20  2  0
 20 21  1  0
 21 22  2  0
 22 23  1  0
 23 24  2  0
 24 25  1  0
 25 26  2  0
 20 27  1  0
 27 28  1  0
  8  3  1  0
 27 17  1  0
 26 21  1  0
  1 29  1  0
  1 30  1  0
  1 31  1  0
  4 32  1  0
  5 33  1  0
  6 34  1  0
  7 35  1  0
 10 36  1  0
 10 37  1  0
 11 38  1  0
 11 39  1  0
 15 40  1  0
 15 41  1  0
 22 42  1  0
 23 43  1  0
 24 44  1  0
 25 45  1  0
 26 46  1  0
 28 47  1  0
 28 48  1  0
 28 49  1  0
M  CHG  1  12  -1
M  END
>  <UniqueID>  (12) 
12

>  <SMILES>  (12) 
COc1ccccc1OCC[N-]C(=O)CSc1nnc(-c2ccccc2)n1C

>  <Energy>  (12) 
78.59228136517457

>  <Genealogy>  (12) 
COc1ccccc1OCC[N-]C(=O)CSc1nnc(-c2ccccc2)n1C (protonated)
COc1ccccc1OCC[N-]C(=O)CSc1nnc(-c2ccccc2)n1C (3D coordinates assigned)
COc1ccccc1OCC[N-]C(=O)CSc1nnc(-c2ccccc2)n1C (optimized conformer: 78.59228136517457 kcal/mol)

>  <smiles>  (12) 
COc1ccccc1OCCNC(=O)CSc1nnc(-c2ccccc2)n1C

>  <score_type>  (12) 
oracle

>  <origin>  (12) 
adg

>  <m_score__min__energy>  (12) 
-10.68

>  <m_primary>  (12) 
energy

$$$$
12:0
     RDKit          3D

 36 38  0  0  0  0  0  0  0  0999 V2000
   56.9420   34.4230   44.8870 C   0  0  0  0  0  0  0  0  0  0  0  0
   57.7570   33.3640   45.4820 N   0  0  0  0  0  0  0  0  0  0  0  0
   57.7920   32.0540   45.1280 C   0  0  0  0  0  0  0  0  0  0  0  0
   57.0240   31.4020   44.1570 C   0  0  0  0  0  0  0  0  0  0  0  0
   57.2430   30.0280   43.9530 C   0  0  0  0  0  0  0  0  0  0  0  0
   58.2160   29.3350   44.7050 C   0  0  0  0  0  0  0  0  0  0  0  0
   58.9850   30.0090   45.6700 C   0  0  0  0  0  0  0  0  0  0  0  0
   58.7460   31.3690   45.8550 C   0  0  0  0  0  0  0  0  0  0  0  0
   59.3420   32.2960   46.6820 C   0  0  0  0  0  0  0  0  0  0  0  0
   60.3790   32.1740   47.6030 C   0  0  0  0  0  0  0  0  0  0  0  0
   60.8030   33.3290   48.2940 C   0  0  0  0  0  0  0  0  0  0  0  0
   61.8800   33.2070   49.2450 N   0  0  0  0  0  0  0  0  0  0  0  0
   63.2070   33.8120   49.1150 C   0  0  0  0  0  0  0  0  0  0  0  0
   63.7110   33.7230   47.6670 C   0  0  0  0  0  0  0  0  0  0  0  0
   63.9740   32.3410   47.2650 N   0  0  0  0  0  0  0  0  0  0  0  0
   60.1740   34.5760   48.0150 C   0  0  0  0  0  0  0  0  0  0  0  0
   59.1310   34.6670   47.0750 C   0  0  0  0  0  0  0  0  0  0  0  0
   58.7250   33.5010   46.4230 C   0  0  0  0  0  0  0  0  0  0  0  0
   56.4804   35.0228   45.6853 H   0  0  0  0  0  0  0  0  0  0  0  0
   57.5781   35.0691   44.2641 H   0  0  0  0  0  0  0  0  0  0  0  0
   56.1546   33.9735   44.2641 H   0  0  0  0  0  0  0  0  0  0  0  0
   56.2708   31.9483   43.5703 H   0  0  0  0  0  0  0  0  0  0  0  0
   56.6503   29.4879   43.2000 H   0  0  0  0  0  0  0  0  0  0  0  0
   58.3738   28.2598   44.5348 H   0  0  0  0  0  0  0  0  0  0  0  0
   59.7492   29.4806   46.2588 H   0  0  0  0  0  0  0  0  0  0  0  0
   60.8565   31.2004   47.7876 H   0  0  0  0  0  0  0  0  0  0  0  0
   61.7150   32.6320   50.1030 H   0  0  0  0  0  0  0  0  0  0  0  0
   63.1513   34.8695   49.4125 H   0  0  0  0  0  0  0  0  0  0  0  0
   63.9070   33.2662   49.7647 H   0  0  0  0  0  0  0  0  0  0  0  0
   62.9486   34.1490   46.9982 H   0  0  0  0  0  0  0  0  0  0  0  0
   64.6552   34.2833   47.5996 H   0  0  0  0  0  0  0  0  0  0  0  0
   63.0740   31.8420   47.0810 H   0  0  0  0  0  0  0  0  0  0  0  0
   64.5400   32.3470   46.3850 H   0  0  0  0  0  0  0  0  0  0  0  0
   64.5170   31.8430   48.0070 H   0  0  0  0  0  0  0  0  0  0  0  0
   60.5086   35.4815   48.5423 H   0  0  0  0  0  0  0  0  0  0  0  0
   58.6481   35.6315   46.8594 H   0  0  0  0  0  0  0  0  0  0  0  0
  1  2  1  0
  2  3  1  0
  3  4  2  0
  4  5  1  0
  5  6  2  0
  6  7  1  0
  7  8  2  0
  8  9  1  0
  9 10  2  0
 10 11  1  0
 11 12  1  0
 12 13  1  0
 13 14  1  0
 14 15  1  0
 11 16  2  0
 16 17  1  0
 17 18  2  0
 18  2  1  0
  8  3  1  0
 18  9  1  0
  1 19  1  0
  1 20  1  0
  1 21  1  0
  4 22  1  0
  5 23  1  0
  6 24  1  0
  7 25  1  0
 10 26  1  0
 12 27  1  0
 13 28  1  0
 13 29  1  0
 14 30  1  0
 14 31  1  0
 15 32  1  0
 15 33  1  0
 15 34  1  0
 16 35  1  0
 17 36  1  0
M  CHG  1  15   1
M  END
>  <UniqueID>  (13) 
13

>  <SMILES>  (13) 
Cn1c2ccccc2c2cc(NCC[NH3+])ccc21

>  <Energy>  (13) 
78.03504611941045

>  <Genealogy>  (13) 
Cn1c2ccccc2c2cc(NCC[NH3+])ccc21 (protonated)
Cn1c2ccccc2c2cc(NCC[NH3+])ccc21 (3D coordinates assigned)
Cn1c2ccccc2c2cc(NCC[NH3+])ccc21 (optimized conformer: 78.03504611941045 kcal/mol)

>  <smiles>  (13) 
Cn1c2ccccc2c2cc(NCCN)ccc21

>  <score_type>  (13) 
oracle

>  <origin>  (13) 
adg

>  <m_score__min__energy>  (13) 
-5.4199999999999999

>  <m_primary>  (13) 
energy

$$$$
13:0
     RDKit          3D

 64 66  0  0  0  0  0  0  0  0999 V2000
   63.6810   31.3330   50.2300 C   0  0  0  0  0  0  0  0  0  0  0  0
   62.6830   31.2270   49.0820 C   0  0  0  0  0  0  0  0  0  0  0  0
   62.5740   32.5230   48.3760 N   0  0  0  0  0  0  0  0  0  0  0  0
   63.1800   32.4820   47.0240 C   0  0  0  0  0  0  0  0  0  0  0  0
   63.3200   33.8550   46.3510 C   0  0  0  0  0  0  0  0  0  0  0  0
   63.0480   33.6520   49.2120 C   0  0  0  0  0  0  0  0  0  0  0  0
   61.9390   34.1800   50.1430 C   0  0  0  0  0  0  0  0  0  0  0  0
   60.6520   34.2460   49.4380 N   0  0  0  0  0  0  0  0  0  0  0  0
   59.5610   33.7930   50.3110 C   0  0  0  0  0  0  0  0  0  0  0  0
   59.8040   32.3580   50.7970 C   0  0  0  0  0  0  0  0  0  0  0  0
   59.3320   31.3010   49.7820 C   0  0  0  0  0  0  0  0  0  0  0  0
   59.7510   31.5880   48.4030 N   0  0  0  0  0  0  0  0  0  0  0  0
   59.3220   30.8440   47.2490 C   0  0  0  0  0  0  0  0  0  0  0  0
   59.4430   29.4430   47.2540 C   0  0  0  0  0  0  0  0  0  0  0  0
   59.9540   28.7690   48.3860 C   0  0  0  0  0  0  0  0  0  0  0  0
   60.1380   27.3890   48.3690 C   0  0  0  0  0  0  0  0  0  0  0  0
   59.8300   26.6610   47.2280 C   0  0  0  0  0  0  0  0  0  0  0  0
   59.3030   27.3020   46.1080 C   0  0  0  0  0  0  0  0  0  0  0  0
   59.0590   28.7000   46.1100 C   0  0  0  0  0  0  0  0  0  0  0  0
   58.4800   29.3390   45.0320 N   0  0  0  0  0  0  0  0  0  0  0  0
   57.8200   28.5430   43.9710 C   0  0  0  0  0  0  0  0  0  0  0  0
   58.4850   30.7210   44.9580 C   0  0  0  0  0  0  0  0  0  0  0  0
   58.1470   31.3890   43.7550 C   0  0  0  0  0  0  0  0  0  0  0  0
   58.0830   32.7740   43.6930 C   0  0  0  0  0  0  0  0  0  0  0  0
   58.3590   33.5380   44.8160 C   0  0  0  0  0  0  0  0  0  0  0  0
   58.7470   32.9290   46.0220 C   0  0  0  0  0  0  0  0  0  0  0  0
   59.0230   33.7150   47.1530 O   0  0  0  0  0  0  0  0  0  0  0  0
   59.2680   35.1180   47.1400 C   0  0  0  0  0  0  0  0  0  0  0  0
   58.8500   31.5070   46.0900 C   0  0  0  0  0  0  0  0  0  0  0  0
   63.1446   31.2760   51.1886 H   0  0  0  0  0  0  0  0  0  0  0  0
   64.4041   30.5066   50.1648 H   0  0  0  0  0  0  0  0  0  0  0  0
   64.2143   32.2928   50.1648 H   0  0  0  0  0  0  0  0  0  0  0  0
   63.0234   30.4560   48.3751 H   0  0  0  0  0  0  0  0  0  0  0  0
   61.6972   30.9564   49.4882 H   0  0  0  0  0  0  0  0  0  0  0  0
   64.1822   32.0366   47.1093 H   0  0  0  0  0  0  0  0  0  0  0  0
   62.5008   31.8902   46.3928 H   0  0  0  0  0  0  0  0  0  0  0  0
   63.3995   34.6351   47.1225 H   0  0  0  0  0  0  0  0  0  0  0  0
   64.2239   33.8657   45.7242 H   0  0  0  0  0  0  0  0  0  0  0  0
   62.4369   34.0479   45.7242 H   0  0  0  0  0  0  0  0  0  0  0  0
   63.8948   33.3100   49.8252 H   0  0  0  0  0  0  0  0  0  0  0  0
   63.3501   34.4703   48.5419 H   0  0  0  0  0  0  0  0  0  0  0  0
   61.8425   33.5060   51.0070 H   0  0  0  0  0  0  0  0  0  0  0  0
   62.2108   35.1928   50.4752 H   0  0  0  0  0  0  0  0  0  0  0  0
   60.6970   33.5890   48.6250 H   0  0  0  0  0  0  0  0  0  0  0  0
   59.4964   34.4615   51.1821 H   0  0  0  0  0  0  0  0  0  0  0  0
   58.6223   33.8142   49.7379 H   0  0  0  0  0  0  0  0  0  0  0  0
   60.8817   32.2228   50.9710 H   0  0  0  0  0  0  0  0  0  0  0  0
   59.2229   32.2161   51.7202 H   0  0  0  0  0  0  0  0  0  0  0  0
   59.7463   30.3254   50.0764 H   0  0  0  0  0  0  0  0  0  0  0  0
   58.2321   31.3067   49.7950 H   0  0  0  0  0  0  0  0  0  0  0  0
   60.4310   32.3670   48.2530 H   0  0  0  0  0  0  0  0  0  0  0  0
   60.2092   29.3408   49.2904 H   0  0  0  0  0  0  0  0  0  0  0  0
   60.5277   26.8754   49.2603 H   0  0  0  0  0  0  0  0  0  0  0  0
   60.0023   25.5748   47.2076 H   0  0  0  0  0  0  0  0  0  0  0  0
   59.0723   26.7142   45.2073 H   0  0  0  0  0  0  0  0  0  0  0  0
   57.1826   27.7743   44.4322 H   0  0  0  0  0  0  0  0  0  0  0  0
   57.2023   29.2051   43.3465 H   0  0  0  0  0  0  0  0  0  0  0  0
   58.5851   28.0586   43.3465 H   0  0  0  0  0  0  0  0  0  0  0  0
   57.9311   30.7983   42.8525 H   0  0  0  0  0  0  0  0  0  0  0  0
   57.8119   33.2677   42.7481 H   0  0  0  0  0  0  0  0  0  0  0  0
   58.2734   34.6334   44.7629 H   0  0  0  0  0  0  0  0  0  0  0  0
   59.3327   35.4885   48.1737 H   0  0  0  0  0  0  0  0  0  0  0  0
   60.2150   35.3200   46.6181 H   0  0  0  0  0  0  0  0  0  0  0  0
   58.4455   35.6290   46.6181 H   0  0  0  0  0  0  0  0  0  0  0  0
  1  2  1  0
  2  3  1  0
  3  4  1  0
  4  5  1  0
  3  6  1  0
  6  7  1  0
  7  8  1  0
  8  9  1  0
  9 10  1  0
 10 11  1  0
 11 12  1  0
 12 13  1  0
 13 14  2  0
 14 15  1  0
 15 16  2  0
 16 17  1  0
 17 18  2  0
 18 19  1  0
 19 20  2  0
 20 21  1  0
 20 22  1  0
 22 23  2  0
 23 24  1  0
 24 25  2  0
 25 26  1  0
 26 27  1  0
 27 28  1  0
 26 29  2  0
 29 13  1  0
 19 14  1  0
 29 22  1  0
  1 30  1  0
  1 31  1  0
  1 32  1  0
  2 33  1  0
  2 34  1  0
  4 35  1  0
  4 36  1  0
  5 37  1  0
  5 38  1  0
  5 39  1  0
  6 40  1  0
  6 41  1  0
  7 42  1  0
  7 43  1  0
  8 44  1  0
  9 45  1  0
  9 46  1  0
 10 47  1  0
 10 48  1  0
 11 49  1  0
 11 50  1  0
 12 51  1  0
 15 52  1  0
 16 53  1  0
 17 54  1  0
 18 55  1  0
 21 56  1  0
 21 57  1  0
 21 58  1  0
 23 59  1  0
 24 60  1  0
 25 61  1  0
 28 62  1  0
 28 63  1  0
 28 64  1  0
M  CHG  1  20   1
M  END
>  <UniqueID>  (14) 
14

>  <SMILES>  (14) 
CCN(CC)CCNCCCNc1c2ccccc2[n+](C)c2cccc(OC)c12

>  <Energy>  (14) 
94.68999940987497

>  <Genealogy>  (14) 
CCN(CC)CCNCCCNc1c2ccccc2[n+](C)c2cccc(OC)c12 (3D coordinates assigned)
CCN(CC)CCNCCCNc1c2ccccc2[n+](C)c2cccc(OC)c12 (optimized conformer: 94.68999940987497 kcal/mol)

>  <smiles>  (14) 
CCN(CC)CCNCCCNc1c2ccccc2[n+](C)c2cccc(OC)c12

>  <score_type>  (14) 
oracle

>  <origin>  (14) 
adg

>  <m_score__min__energy>  (14) 
-5.1100000000000003

>  <m_primary>  (14) 
energy

$$$$
14:0
     RDKit          3D

 50 52  0  0  0  0  0  0  0  0999 V2000
   57.3930   31.4470   43.2870 C   0  0  0  0  0  0  0  0  0  0  0  0
   56.2860   30.7880   44.1030 C   0  0  0  0  0  0  0  0  0  0  0  0
   56.8550   29.7750   45.0010 N   0  0  0  0  0  0  0  0  0  0  0  0
   58.3180   29.6790   44.8590 C   0  0  0  0  0  0  0  0  0  0  0  0
   58.8220   28.3180   45.3530 C   0  0  0  0  0  0  0  0  0  0  0  0
   58.4680   28.0580   47.1290 S   0  0  0  0  0  0  0  0  0  0  0  0
   59.5330   29.4020   47.7720 C   0  0  0  0  0  0  0  0  0  0  0  0
   59.2060   29.6550   49.2440 C   0  0  0  0  0  0  0  0  0  0  0  0
   59.4140   31.0610   49.5880 N   0  0  0  0  0  0  0  0  0  0  0  0
   60.3080   31.8970   48.8340 C   0  0  0  0  0  0  0  0  0  0  0  0
   61.6640   31.9860   49.1970 C   0  0  0  0  0  0  0  0  0  0  0  0
   62.1470   31.3310   50.3510 C   0  0  0  0  0  0  0  0  0  0  0  0
   63.4860   31.4400   50.7200 C   0  0  0  0  0  0  0  0  0  0  0  0
   64.3570   32.2140   49.9630 C   0  0  0  0  0  0  0  0  0  0  0  0
   63.9020   32.8630   48.8130 C   0  0  0  0  0  0  0  0  0  0  0  0
   62.5560   32.7340   48.3840 C   0  0  0  0  0  0  0  0  0  0  0  0
   62.1070   33.3110   47.2100 N   0  0  0  0  0  0  0  0  0  0  0  0
   63.0760   33.8120   46.2110 C   0  0  0  0  0  0  0  0  0  0  0  0
   60.7500   33.3900   46.9550 C   0  0  0  0  0  0  0  0  0  0  0  0
   60.2330   34.2070   45.9190 C   0  0  0  0  0  0  0  0  0  0  0  0
   58.8640   34.2600   45.6600 C   0  0  0  0  0  0  0  0  0  0  0  0
   57.9750   33.5220   46.4330 C   0  0  0  0  0  0  0  0  0  0  0  0
   56.6420   33.5940   46.1870 F   0  0  0  0  0  0  0  0  0  0  0  0
   58.4490   32.7380   47.4820 C   0  0  0  0  0  0  0  0  0  0  0  0
   59.8310   32.6610   47.7580 C   0  0  0  0  0  0  0  0  0  0  0  0
   58.1360   31.8893   43.9669 H   0  0  0  0  0  0  0  0  0  0  0  0
   57.8802   30.6918   42.6527 H   0  0  0  0  0  0  0  0  0  0  0  0
   56.9613   32.2353   42.6527 H   0  0  0  0  0  0  0  0  0  0  0  0
   55.7690   31.5538   44.6998 H   0  0  0  0  0  0  0  0  0  0  0  0
   55.5745   30.3030   43.4185 H   0  0  0  0  0  0  0  0  0  0  0  0
   56.6470   30.0710   45.9850 H   0  0  0  0  0  0  0  0  0  0  0  0
   58.5867   29.8007   43.7993 H   0  0  0  0  0  0  0  0  0  0  0  0
   58.7848   30.4700   45.4643 H   0  0  0  0  0  0  0  0  0  0  0  0
   58.3280   27.5247   44.7728 H   0  0  0  0  0  0  0  0  0  0  0  0
   59.9132   28.2906   45.2170 H   0  0  0  0  0  0  0  0  0  0  0  0
   60.5892   29.1098   47.6765 H   0  0  0  0  0  0  0  0  0  0  0  0
   59.3516   30.3203   47.1942 H   0  0  0  0  0  0  0  0  0  0  0  0
   58.1549   29.3898   49.4307 H   0  0  0  0  0  0  0  0  0  0  0  0
   59.8726   29.0379   49.8643 H   0  0  0  0  0  0  0  0  0  0  0  0
   58.9690   31.4460   50.4520 H   0  0  0  0  0  0  0  0  0  0  0  0
   61.4599   30.7293   50.9641 H   0  0  0  0  0  0  0  0  0  0  0  0
   63.8543   30.9124   51.6122 H   0  0  0  0  0  0  0  0  0  0  0  0
   65.4082   32.3159   50.2704 H   0  0  0  0  0  0  0  0  0  0  0  0
   64.5985   33.4841   48.2306 H   0  0  0  0  0  0  0  0  0  0  0  0
   63.9384   34.2579   46.7282 H   0  0  0  0  0  0  0  0  0  0  0  0
   63.4176   32.9775   45.5809 H   0  0  0  0  0  0  0  0  0  0  0  0
   62.5926   34.5732   45.5809 H   0  0  0  0  0  0  0  0  0  0  0  0
   60.9228   34.8091   45.3093 H   0  0  0  0  0  0  0  0  0  0  0  0
   58.4857   34.8886   44.8404 H   0  0  0  0  0  0  0  0  0  0  0  0
   57.7382   32.1724   48.1024 H   0  0  0  0  0  0  0  0  0  0  0  0
  1  2  1  0
  2  3  1  0
  3  4  1  0
  4  5  1  0
  5  6  1  0
  6  7  1  0
  7  8  1  0
  8  9  1  0
  9 10  1  0
 10 11  2  0
 11 12  1  0
 12 13  2  0
 13 14  1  0
 14 15  2  0
 15 16  1  0
 16 17  2  0
 17 18  1  0
 17 19  1  0
 19 20  2  0
 20 21  1  0
 21 22  2  0
 22 23  1  0
 22 24  1  0
 24 25  2  0
 25 10  1  0
 16 11  1  0
 25 19  1  0
  1 26  1  0
  1 27  1  0
  1 28  1  0
  2 29  1  0
  2 30  1  0
  3 31  1  0
  4 32  1  0
  4 33  1  0
  5 34  1  0
  5 35  1  0
  7 36  1  0
  7 37  1  0
  8 38  1  0
  8 39  1  0
  9 40  1  0
 12 41  1  0
 13 42  1  0
 14 43  1  0
 15 44  1  0
 18 45  1  0
 18 46  1  0
 18 47  1  0
 20 48  1  0
 21 49  1  0
 24 50  1  0
M  CHG  1  17   1
M  END
>  <UniqueID>  (15) 
15

>  <SMILES>  (15) 
CCNCCSCCNc1c2ccccc2[n+](C)c2ccc(F)cc12

>  <Energy>  (15) 
69.37815387212653

>  <Genealogy>  (15) 
CCNCCSCCNc1c2ccccc2[n+](C)c2ccc(F)cc12 (3D coordinates assigned)
CCNCCSCCNc1c2ccccc2[n+](C)c2ccc(F)cc12 (optimized conformer: 69.37815387212653 kcal/mol)

>  <smiles>  (15) 
CCNCCSCCNc1c2ccccc2[n+](C)c2ccc(F)cc12

>  <score_type>  (15) 
oracle

>  <origin>  (15) 
adg

>  <m_score__min__energy>  (15) 
-5.96

>  <m_primary>  (15) 
energy

$$$$
15:0
     RDKit          3D

 39 41  0  0  0  0  0  0  0  0999 V2000
   57.3840   31.4910   42.4710 C   0  0  0  0  0  0  0  0  0  0  0  0
   57.0280   30.4860   43.5620 C   0  0  0  0  0  0  0  0  0  0  0  0
   56.8690   31.1400   44.8210 O   0  0  0  0  0  0  0  0  0  0  0  0
   57.6470   32.2120   45.3020 C   0  0  0  0  0  0  0  0  0  0  0  0
   57.3710   33.5420   44.9460 C   0  0  0  0  0  0  0  0  0  0  0  0
   58.1550   34.5800   45.4370 C   0  0  0  0  0  0  0  0  0  0  0  0
   59.2240   34.3190   46.2910 C   0  0  0  0  0  0  0  0  0  0  0  0
   59.5360   32.9940   46.6800 C   0  0  0  0  0  0  0  0  0  0  0  0
   58.7280   31.9400   46.1710 C   0  0  0  0  0  0  0  0  0  0  0  0
   59.0170   30.6180   46.5410 C   0  0  0  0  0  0  0  0  0  0  0  0
   60.0500   30.3400   47.3720 N   0  0  0  0  0  0  0  0  0  0  0  0
   60.8490   31.3160   47.8830 C   0  0  0  0  0  0  0  0  0  0  0  0
   61.9030   30.9630   48.7380 C   0  0  0  0  0  0  0  0  0  0  0  0
   62.7480   31.9410   49.2840 C   0  0  0  0  0  0  0  0  0  0  0  0
   63.8100   31.6150   50.1420 O   0  0  0  0  0  0  0  0  0  0  0  0
   65.1710   31.9670   49.9180 C   0  0  0  0  0  0  0  0  0  0  0  0
   62.5380   33.2880   48.9710 C   0  0  0  0  0  0  0  0  0  0  0  0
   63.4030   34.2390   49.5370 O   0  0  0  0  0  0  0  0  0  0  0  0
   63.4380   34.5870   50.9170 C   0  0  0  0  0  0  0  0  0  0  0  0
   61.4810   33.6520   48.1130 C   0  0  0  0  0  0  0  0  0  0  0  0
   60.6200   32.6770   47.5550 C   0  0  0  0  0  0  0  0  0  0  0  0
   57.7172   32.4317   42.9336 H   0  0  0  0  0  0  0  0  0  0  0  0
   58.1923   31.0831   41.8463 H   0  0  0  0  0  0  0  0  0  0  0  0
   56.4991   31.6829   41.8463 H   0  0  0  0  0  0  0  0  0  0  0  0
   56.0869   29.9827   43.2956 H   0  0  0  0  0  0  0  0  0  0  0  0
   57.8437   29.7528   43.6459 H   0  0  0  0  0  0  0  0  0  0  0  0
   56.5288   33.7642   44.2741 H   0  0  0  0  0  0  0  0  0  0  0  0
   57.9289   35.6171   45.1483 H   0  0  0  0  0  0  0  0  0  0  0  0
   59.8337   35.1533   46.6681 H   0  0  0  0  0  0  0  0  0  0  0  0
   58.3971   29.7970   46.1515 H   0  0  0  0  0  0  0  0  0  0  0  0
   60.2230   29.3380   47.6170 H   0  0  0  0  0  0  0  0  0  0  0  0
   62.0697   29.9039   48.9842 H   0  0  0  0  0  0  0  0  0  0  0  0
   65.6796   32.0985   50.8845 H   0  0  0  0  0  0  0  0  0  0  0  0
   65.6675   31.1677   49.3482 H   0  0  0  0  0  0  0  0  0  0  0  0
   65.2177   32.9068   49.3482 H   0  0  0  0  0  0  0  0  0  0  0  0
   63.3464   33.6764   51.5272 H   0  0  0  0  0  0  0  0  0  0  0  0
   64.3910   35.0869   51.1450 H   0  0  0  0  0  0  0  0  0  0  0  0
   62.6037   35.2666   51.1450 H   0  0  0  0  0  0  0  0  0  0  0  0
   61.3221   34.7136   47.8725 H   0  0  0  0  0  0  0  0  0  0  0  0
  1  2  1  0
  2  3  1  0
  3  4  1  0
  4  5  2  0
  5  6  1  0
  6  7  2  0
  7  8  1  0
  8  9  2  0
  9 10  1  0
 10 11  2  0
 11 12  1  0
 12 13  2  0
 13 14  1  0
 14 15  1  0
 15 16  1  0
 14 17  2  0
 17 18  1  0
 18 19  1  0
 17 20  1  0
 20 21  2  0
  9  4  1  0
 21 12  1  0
 21  8  1  0
  1 22  1  0
  1 23  1  0
  1 24  1  0
  2 25  1  0
  2 26  1  0
  5 27  1  0
  6 28  1  0
  7 29  1  0
 10 30  1  0
 11 31  1  0
 13 32  1  0
 16 33  1  0
 16 34  1  0
 16 35  1  0
 19 36  1  0
 19 37  1  0
 19 38  1  0
 20 39  1  0
M  CHG  1  11   1
M  END
>  <UniqueID>  (16) 
16

>  <SMILES>  (16) 
CCOc1cccc2c1c[nH+]c1cc(OC)c(OC)cc12

>  <Energy>  (16) 
50.68162105060155

>  <Genealogy>  (16) 
CCOc1cccc2c1c[nH+]c1cc(OC)c(OC)cc12 (protonated)
CCOc1cccc2c1c[nH+]c1cc(OC)c(OC)cc12 (3D coordinates assigned)
CCOc1cccc2c1c[nH+]c1cc(OC)c(OC)cc12 (optimized conformer: 50.68162105060155 kcal/mol)

>  <smiles>  (16) 
CCOc1cccc2c1cnc1cc(OC)c(OC)cc12

>  <score_type>  (16) 
oracle

>  <origin>  (16) 
adg

>  <m_score__min__energy>  (16) 
-4.7999999999999998

>  <m_primary>  (16) 
energy

$$$$
16:0
     RDKit          3D

 55 56  0  0  0  0  0  0  0  0999 V2000
   60.8000   28.9800   45.1930 C   0  0  0  0  0  0  0  0  0  0  0  0
   60.5050   29.8580   46.4030 C   0  0  0  0  0  0  0  0  0  0  0  0
   59.0550   30.0550   46.5400 N   0  0  0  0  0  0  0  0  0  0  0  0
   58.3050   28.9560   45.9150 C   0  0  0  0  0  0  0  0  0  0  0  0
   57.3150   29.4980   44.8880 C   0  0  0  0  0  0  0  0  0  0  0  0
   56.9760   30.8220   45.2390 O   0  0  0  0  0  0  0  0  0  0  0  0
   57.0430   31.6520   44.0990 C   0  0  0  0  0  0  0  0  0  0  0  0
   58.4930   32.0960   43.8740 C   0  0  0  0  0  0  0  0  0  0  0  0
   59.0170   32.8030   44.9850 O   0  0  0  0  0  0  0  0  0  0  0  0
   58.2360   33.9360   45.3200 C   0  0  0  0  0  0  0  0  0  0  0  0
   57.6320   33.8330   46.7320 C   0  0  0  0  0  0  0  0  0  0  0  0
   58.0930   32.6300   47.4310 N   0  0  0  0  0  0  0  0  0  0  0  0
   58.8280   32.6540   48.6730 C   0  0  0  0  0  0  0  0  0  0  0  0
   58.1750   32.3410   49.8800 C   0  0  0  0  0  0  0  0  0  0  0  0
   58.8410   32.3990   51.1060 C   0  0  0  0  0  0  0  0  0  0  0  0
   58.1240   32.0720   52.2670 O   0  0  0  0  0  0  0  0  0  0  0  0
   56.7720   31.6270   52.2790 C   0  0  0  0  0  0  0  0  0  0  0  0
   60.1900   32.7850   51.1400 C   0  0  0  0  0  0  0  0  0  0  0  0
   60.8670   33.0910   49.9540 C   0  0  0  0  0  0  0  0  0  0  0  0
   62.2180   33.4580   49.9880 C   0  0  0  0  0  0  0  0  0  0  0  0
   62.9010   33.7110   48.8030 C   0  0  0  0  0  0  0  0  0  0  0  0
   62.2350   33.5820   47.5800 C   0  0  0  0  0  0  0  0  0  0  0  0
   62.9630   33.8590   46.2980 C   0  0  0  0  0  0  0  0  0  0  0  0
   60.9100   33.2570   47.5570 N   0  0  0  0  0  0  0  0  0  0  0  0
   60.2010   33.0150   48.7060 C   0  0  0  0  0  0  0  0  0  0  0  0
   61.1333   27.9881   45.5322 H   0  0  0  0  0  0  0  0  0  0  0  0
   59.8885   28.8730   44.5867 H   0  0  0  0  0  0  0  0  0  0  0  0
   61.5912   29.4451   44.5867 H   0  0  0  0  0  0  0  0  0  0  0  0
   60.8937   29.3712   47.3096 H   0  0  0  0  0  0  0  0  0  0  0  0
   60.9908   30.8355   46.2667 H   0  0  0  0  0  0  0  0  0  0  0  0
   58.8090   30.9370   46.0300 H   0  0  0  0  0  0  0  0  0  0  0  0
   59.0099   28.2762   45.4140 H   0  0  0  0  0  0  0  0  0  0  0  0
   57.7475   28.4178   46.6957 H   0  0  0  0  0  0  0  0  0  0  0  0
   57.7751   29.4865   43.8889 H   0  0  0  0  0  0  0  0  0  0  0  0
   56.4108   28.8717   44.8733 H   0  0  0  0  0  0  0  0  0  0  0  0
   56.6894   31.0951   43.2188 H   0  0  0  0  0  0  0  0  0  0  0  0
   56.4083   32.5372   44.2524 H   0  0  0  0  0  0  0  0  0  0  0  0
   59.1127   31.2045   43.6976 H   0  0  0  0  0  0  0  0  0  0  0  0
   58.5073   32.7728   43.0069 H   0  0  0  0  0  0  0  0  0  0  0  0
   58.8732   34.8314   45.2724 H   0  0  0  0  0  0  0  0  0  0  0  0
   57.4047   33.9956   44.6021 H   0  0  0  0  0  0  0  0  0  0  0  0
   57.9291   34.7188   47.3126 H   0  0  0  0  0  0  0  0  0  0  0  0
   56.5379   33.7754   46.6342 H   0  0  0  0  0  0  0  0  0  0  0  0
   57.8990   31.7130   46.9710 H   0  0  0  0  0  0  0  0  0  0  0  0
   57.1161   32.0440   49.8570 H   0  0  0  0  0  0  0  0  0  0  0  0
   56.4320   31.5151   53.3191 H   0  0  0  0  0  0  0  0  0  0  0  0
   56.1388   32.3641   51.7636 H   0  0  0  0  0  0  0  0  0  0  0  0
   56.7004   30.6579   51.7636 H   0  0  0  0  0  0  0  0  0  0  0  0
   60.7175   32.8473   52.1032 H   0  0  0  0  0  0  0  0  0  0  0  0
   62.7394   33.5463   50.9525 H   0  0  0  0  0  0  0  0  0  0  0  0
   63.9591   34.0109   48.8277 H   0  0  0  0  0  0  0  0  0  0  0  0
   63.9693   34.2419   46.5232 H   0  0  0  0  0  0  0  0  0  0  0  0
   63.0462   32.9297   45.7154 H   0  0  0  0  0  0  0  0  0  0  0  0
   62.4074   34.6085   45.7154 H   0  0  0  0  0  0  0  0  0  0  0  0
   60.4530   33.1760   46.6240 H   0  0  0  0  0  0  0  0  0  0  0  0
  1  2  1  0
  2  3  1  0
  3  4  1  0
  4  5  1  0
  5  6  1  0
  6  7  1  0
  7  8  1  0
  8  9  1  0
  9 10  1  0
 10 11  1  0
 11 12  1  0
 12 13  1  0
 13 14  2  0
 14 15  1  0
 15 16  1  0
 16 17  1  0
 15 18  2  0
 18 19  1  0
 19 20  2  0
 20 21  1  0
 21 22  2  0
 22 23  1  0
 22 24  1  0
 24 25  2  0
 25 13  1  0
 25 19  1  0
  1 26  1  0
  1 27  1  0
  1 28  1  0
  2 29  1  0
  2 30  1  0
  3 31  1  0
  4 32  1  0
  4 33  1  0
  5 34  1  0
  5 35  1  0
  7 36  1  0
  7 37  1  0
  8 38  1  0
  8 39  1  0
 10 40  1  0
 10 41  1  0
 11 42  1  0
 11 43  1  0
 12 44  1  0
 14 45  1  0
 17 46  1  0
 17 47  1  0
 17 48  1  0
 18 49  1  0
 20 50  1  0
 21 51  1  0
 23 52  1  0
 23 53  1  0
 23 54  1  0
 24 55  1  0
M  CHG  1  24   1
M  END
>  <UniqueID>  (17) 
17

>  <SMILES>  (17) 
CCNCCOCCOCCNc1cc(OC)cc2ccc(C)[nH+]c12

>  <Energy>  (17) 
53.020201865968964

>  <Genealogy>  (17) 
CCNCCOCCOCCNc1cc(OC)cc2ccc(C)[nH+]c12 (protonated)
CCNCCOCCOCCNc1cc(OC)cc2ccc(C)[nH+]c12 (3D coordinates assigned)
CCNCCOCCOCCNc1cc(OC)cc2ccc(C)[nH+]c12 (optimized conformer: 53.020201865968964 kcal/mol)

>  <smiles>  (17) 
CCNCCOCCOCCNc1cc(OC)cc2ccc(C)nc12

>  <score_type>  (17) 
oracle

>  <origin>  (17) 
adg

>  <m_score__min__energy>  (17) 
-3.8599999999999999

>  <m_primary>  (17) 
energy

$$$$
17:0
     RDKit          3D

 60 62  0  0  0  0  0  0  0  0999 V2000
   63.3740   33.8400   46.3970 C   0  0  0  0  0  0  0  0  0  0  0  0
   63.4510   32.5590   47.2240 C   0  0  0  0  0  0  0  0  0  0  0  0
   63.8960   32.8550   48.6690 C   0  0  0  0  0  0  0  0  0  0  0  0
   62.8170   32.6290   49.6650 N   0  0  2  0  0  0  0  0  0  0  0  0
   62.2380   33.9230   50.1200 C   0  0  0  0  0  0  0  0  0  0  0  0
   60.8150   33.7720   50.6690 C   0  0  0  0  0  0  0  0  0  0  0  0
   63.2270   31.7750   50.8170 C   0  0  0  0  0  0  0  0  0  0  0  0
   62.7220   30.3200   50.7800 C   0  0  0  0  0  0  0  0  0  0  0  0
   61.8270   30.1410   49.7060 O   0  0  0  0  0  0  0  0  0  0  0  0
   60.5240   29.9100   50.1950 C   0  0  0  0  0  0  0  0  0  0  0  0
   59.5170   30.1220   49.0650 C   0  0  0  0  0  0  0  0  0  0  0  0
   60.1950   30.4200   47.8010 N   0  0  0  0  0  0  0  0  0  0  0  0
   59.5050   31.0160   46.6880 C   0  0  0  0  0  0  0  0  0  0  0  0
   58.8070   30.2050   45.7780 C   0  0  0  0  0  0  0  0  0  0  0  0
   58.7030   28.8130   45.9840 C   0  0  0  0  0  0  0  0  0  0  0  0
   57.9960   28.0120   45.0900 C   0  0  0  0  0  0  0  0  0  0  0  0
   57.3690   28.5840   43.9900 C   0  0  0  0  0  0  0  0  0  0  0  0
   57.4650   29.9560   43.7620 C   0  0  0  0  0  0  0  0  0  0  0  0
   58.2140   30.7920   44.6290 C   0  0  0  0  0  0  0  0  0  0  0  0
   58.3750   32.1430   44.3800 N   0  0  0  0  0  0  0  0  0  0  0  0
   58.0340   32.6940   43.0480 C   0  0  0  0  0  0  0  0  0  0  0  0
   58.8910   32.9700   45.3600 C   0  0  0  0  0  0  0  0  0  0  0  0
   58.8290   34.3830   45.2540 C   0  0  0  0  0  0  0  0  0  0  0  0
   59.3830   35.2040   46.2350 C   0  0  0  0  0  0  0  0  0  0  0  0
   59.9900   34.6450   47.3530 C   0  0  0  0  0  0  0  0  0  0  0  0
   60.0340   33.2620   47.5050 C   0  0  0  0  0  0  0  0  0  0  0  0
   59.4900   32.4110   46.5210 C   0  0  0  0  0  0  0  0  0  0  0  0
   63.3218   34.7084   47.0701 H   0  0  0  0  0  0  0  0  0  0  0  0
   64.2689   33.9212   45.7625 H   0  0  0  0  0  0  0  0  0  0  0  0
   62.4758   33.8134   45.7625 H   0  0  0  0  0  0  0  0  0  0  0  0
   62.4587   32.0847   47.2441 H   0  0  0  0  0  0  0  0  0  0  0  0
   64.1914   31.8897   46.7616 H   0  0  0  0  0  0  0  0  0  0  0  0
   64.7443   32.1997   48.9160 H   0  0  0  0  0  0  0  0  0  0  0  0
   64.1720   33.9187   48.7176 H   0  0  0  0  0  0  0  0  0  0  0  0
   62.0550   32.0950   49.1790 H   0  0  0  0  0  0  0  0  0  0  0  0
   62.8792   34.3365   50.9124 H   0  0  0  0  0  0  0  0  0  0  0  0
   62.1891   34.5910   49.2474 H   0  0  0  0  0  0  0  0  0  0  0  0
   60.8440   33.7751   51.7686 H   0  0  0  0  0  0  0  0  0  0  0  0
   60.1951   34.6094   50.3162 H   0  0  0  0  0  0  0  0  0  0  0  0
   60.3846   32.8231   50.3162 H   0  0  0  0  0  0  0  0  0  0  0  0
   64.3264   31.7510   50.8461 H   0  0  0  0  0  0  0  0  0  0  0  0
   62.7683   32.2301   51.7072 H   0  0  0  0  0  0  0  0  0  0  0  0
   63.5787   29.6414   50.6556 H   0  0  0  0  0  0  0  0  0  0  0  0
   62.1998   30.0980   51.7223 H   0  0  0  0  0  0  0  0  0  0  0  0
   60.4482   28.8773   50.5661 H   0  0  0  0  0  0  0  0  0  0  0  0
   60.3090   30.6087   51.0169 H   0  0  0  0  0  0  0  0  0  0  0  0
   58.9163   29.2085   48.9434 H   0  0  0  0  0  0  0  0  0  0  0  0
   58.8749   30.9762   49.3260 H   0  0  0  0  0  0  0  0  0  0  0  0
   61.2210   30.2420   47.7220 H   0  0  0  0  0  0  0  0  0  0  0  0
   59.1855   28.3552   46.8602 H   0  0  0  0  0  0  0  0  0  0  0  0
   57.9341   26.9262   45.2551 H   0  0  0  0  0  0  0  0  0  0  0  0
   56.7948   27.9521   43.2965 H   0  0  0  0  0  0  0  0  0  0  0  0
   56.9513   30.3975   42.8953 H   0  0  0  0  0  0  0  0  0  0  0  0
   57.4588   33.6234   43.1720 H   0  0  0  0  0  0  0  0  0  0  0  0
   58.9587   32.9065   42.4914 H   0  0  0  0  0  0  0  0  0  0  0  0
   57.4313   31.9612   42.4914 H   0  0  0  0  0  0  0  0  0  0  0  0
   58.3354   34.8387   44.3830 H   0  0  0  0  0  0  0  0  0  0  0  0
   59.3395   36.2975   46.1237 H   0  0  0  0  0  0  0  0  0  0  0  0
   60.4363   35.2962   48.1189 H   0  0  0  0  0  0  0  0  0  0  0  0
   60.4984   32.8281   48.4028 H   0  0  0  0  0  0  0  0  0  0  0  0
  1  2  1  0
  2  3  1  0
  3  4  1  0
  4  5  1  0
  5  6  1  0
  4  7  1  0
  7  8  1  0
  8  9  1  0
  9 10  1  0
 10 11  1  0
 11 12  1  0
 12 13  1  0
 13 14  2  0
 14 15  1  0
 15 16  2  0
 16 17  1  0
 17 18  2  0
 18 19  1  0
 19 20  2  0
 20 21  1  0
 20 22  1  0
 22 23  2  0
 23 24  1  0
 24 25  2  0
 25 26  1  0
 26 27  2  0
 27 13  1  0
 19 14  1  0
 27 22  1  0
  1 28  1  0
  1 29  1  0
  1 30  1  0
  2 31  1  0
  2 32  1  0
  3 33  1  0
  3 34  1  0
  4 35  1  6
  5 36  1  0
  5 37  1  0
  6 38  1  0
  6 39  1  0
  6 40  1  0
  7 41  1  0
  7 42  1  0
  8 43  1  0
  8 44  1  0
 10 45  1  0
 10 46  1  0
 11 47  1  0
 11 48  1  0
 12 49  1  0
 15 50  1  0
 16 51  1  0
 17 52  1  0
 18 53  1  0
 21 54  1  0
 21 55  1  0
 21 56  1  0
 23 57  1  0
 24 58  1  0
 25 59  1  0
 26 60  1  0
M  CHG  2   4   1  20   1
M  END
>  <UniqueID>  (18) 
18

>  <SMILES>  (18) 
CCC[N@H+](CC)CCOCCNc1c2ccccc2[n+](C)c2ccccc12

>  <Energy>  (18) 
80.4605162575239

>  <Genealogy>  (18) 
CCC[NH+](CC)CCOCCNc1c2ccccc2[n+](C)c2ccccc12 (protonated)
CCC[N@H+](CC)CCOCCNc1c2ccccc2[n+](C)c2ccccc12 (chirality)
CCC[N@H+](CC)CCOCCNc1c2ccccc2[n+](C)c2ccccc12 (3D coordinates assigned)
CCC[N@H+](CC)CCOCCNc1c2ccccc2[n+](C)c2ccccc12 (optimized conformer: 80.4605162575239 kcal/mol)

>  <smiles>  (18) 
CCCN(CC)CCOCCNc1c2ccccc2[n+](C)c2ccccc12

>  <score_type>  (18) 
oracle

>  <origin>  (18) 
adg

>  <m_score__min__energy>  (18) 
-4.1399999999999997

>  <m_primary>  (18) 
energy

$$$$
18:0
     RDKit          3D

 43 46  0  0  0  0  0  0  0  0999 V2000
   57.0270   31.2220   42.6440 C   0  0  0  0  0  0  0  0  0  0  0  0
   57.6760   31.6880   43.8630 N   0  0  0  0  0  0  0  0  0  0  0  0
   57.7250   32.9490   44.2630 N   0  0  0  0  0  0  0  0  0  0  0  0
   58.3200   32.9620   45.4760 C   0  0  0  0  0  0  0  0  0  0  0  0
   58.4970   34.2110   46.2920 C   0  0  0  0  0  0  0  0  0  0  0  0
   59.8400   34.8760   45.9790 C   0  0  0  0  0  0  0  0  0  0  0  0
   60.8120   34.5660   47.0230 N   0  0  0  0  0  0  0  0  0  0  0  0
   60.5300   34.3790   48.4120 C   0  0  0  0  0  0  0  0  0  0  0  0
   59.4580   34.7310   48.9720 O   0  0  0  0  0  0  0  0  0  0  0  0
   61.6430   33.6960   49.0620 C   0  0  0  0  0  0  0  0  0  0  0  0
   61.8240   33.3090   50.3890 C   0  0  0  0  0  0  0  0  0  0  0  0
   63.0140   32.6380   50.7230 C   0  0  0  0  0  0  0  0  0  0  0  0
   63.9870   32.3690   49.7360 C   0  0  0  0  0  0  0  0  0  0  0  0
   63.7780   32.7670   48.4020 C   0  0  0  0  0  0  0  0  0  0  0  0
   62.5920   33.4340   48.0980 C   0  0  0  0  0  0  0  0  0  0  0  0
   62.0870   33.9470   46.8300 C   0  0  0  0  0  0  0  0  0  0  0  0
   62.6630   33.8430   45.7140 O   0  0  0  0  0  0  0  0  0  0  0  0
   58.6520   31.7050   45.8660 N   0  0  0  0  0  0  0  0  0  0  0  0
   59.2620   31.2640   47.0920 C   0  0  0  0  0  0  0  0  0  0  0  0
   60.4780   30.5630   47.0640 C   0  0  0  0  0  0  0  0  0  0  0  0
   61.0740   30.1370   48.2540 C   0  0  0  0  0  0  0  0  0  0  0  0
   60.4630   30.4110   49.4810 C   0  0  0  0  0  0  0  0  0  0  0  0
   59.2580   31.1180   49.5180 C   0  0  0  0  0  0  0  0  0  0  0  0
   58.6700   31.3930   50.7090 F   0  0  0  0  0  0  0  0  0  0  0  0
   58.6610   31.5480   48.3290 C   0  0  0  0  0  0  0  0  0  0  0  0
   58.2200   30.9410   44.8400 C   0  0  0  0  0  0  0  0  0  0  0  0
   58.3150   29.6840   44.8000 O   0  0  0  0  0  0  0  0  0  0  0  0
   56.1592   30.5989   42.9058 H   0  0  0  0  0  0  0  0  0  0  0  0
   56.6922   32.0873   42.0531 H   0  0  0  0  0  0  0  0  0  0  0  0
   57.7399   30.6282   42.0531 H   0  0  0  0  0  0  0  0  0  0  0  0
   57.3400   33.7660   43.7390 H   0  0  0  0  0  0  0  0  0  0  0  0
   57.6832   34.9133   46.0585 H   0  0  0  0  0  0  0  0  0  0  0  0
   58.4752   33.9427   47.3586 H   0  0  0  0  0  0  0  0  0  0  0  0
   60.2131   34.5042   45.0133 H   0  0  0  0  0  0  0  0  0  0  0  0
   59.6985   35.9659   45.9328 H   0  0  0  0  0  0  0  0  0  0  0  0
   61.0599   33.5218   51.1511 H   0  0  0  0  0  0  0  0  0  0  0  0
   63.1881   32.3202   51.7616 H   0  0  0  0  0  0  0  0  0  0  0  0
   64.9143   31.8451   50.0111 H   0  0  0  0  0  0  0  0  0  0  0  0
   64.5269   32.5583   47.6238 H   0  0  0  0  0  0  0  0  0  0  0  0
   60.9639   30.3481   46.1008 H   0  0  0  0  0  0  0  0  0  0  0  0
   62.0252   29.5853   48.2251 H   0  0  0  0  0  0  0  0  0  0  0  0
   60.9303   30.0704   50.4168 H   0  0  0  0  0  0  0  0  0  0  0  0
   57.7166   32.1111   48.3627 H   0  0  0  0  0  0  0  0  0  0  0  0
  1  2  1  0
  2  3  1  0
  3  4  2  0
  4  5  1  0
  5  6  1  0
  6  7  1  0
  7  8  1  0
  8  9  2  0
  8 10  1  0
 10 11  2  0
 11 12  1  0
 12 13  2  0
 13 14  1  0
 14 15  2  0
 15 16  1  0
 16 17  2  0
  4 18  1  0
 18 19  1  0
 19 20  2  0
 20 21  1  0
 21 22  2  0
 22 23  1  0
 23 24  1  0
 23 25  2  0
 18 26  1  0
 26 27  2  0
 26  2  1  0
 16  7  1  0
 25 19  1  0
 15 10  1  0
  1 28  1  0
  1 29  1  0
  1 30  1  0
  3 31  1  0
  5 32  1  0
  5 33  1  0
  6 34  1  0
  6 35  1  0
 11 36  1  0
 12 37  1  0
 13 38  1  0
 14 39  1  0
 20 40  1  0
 21 41  1  0
 22 42  1  0
 25 43  1  0
M  CHG  1   3   1
M  END
>  <UniqueID>  (19) 
19

>  <SMILES>  (19) 
Cn1[nH+]c(CCN2C(=O)c3ccccc3C2=O)n(-c2cccc(F)c2)c1=O

>  <Energy>  (19) 
118.3880974368692

>  <Genealogy>  (19) 
Cn1[nH+]c(CCN2C(=O)c3ccccc3C2=O)n(-c2cccc(F)c2)c1=O (protonated)
Cn1[nH+]c(CCN2C(=O)c3ccccc3C2=O)n(-c2cccc(F)c2)c1=O (3D coordinates assigned)
Cn1[nH+]c(CCN2C(=O)c3ccccc3C2=O)n(-c2cccc(F)c2)c1=O (nonaromatic ring conformer: 118.3880974368692 kcal/mol)

>  <smiles>  (19) 
Cn1nc(CCN2C(=O)c3ccccc3C2=O)n(-c2cccc(F)c2)c1=O

>  <score_type>  (19) 
oracle

>  <origin>  (19) 
adg

>  <m_score__min__energy>  (19) 
-6.5899999999999999

>  <m_primary>  (19) 
energy

$$$$
19:0
     RDKit          3D

 44 45  0  0  0  0  0  0  0  0999 V2000
   56.6400   30.4630   42.7600 C   0  0  0  0  0  0  0  0  0  0  0  0
   55.5660   30.0760   43.7710 C   0  0  0  0  0  0  0  0  0  0  0  0
   56.1590   29.5100   44.9240 O   0  0  0  0  0  0  0  0  0  0  0  0
   57.3940   28.9040   44.6000 C   0  0  0  0  0  0  0  0  0  0  0  0
   57.8850   28.0970   45.7980 C   0  0  0  0  0  0  0  0  0  0  0  0
   58.1470   28.9520   46.8950 O   0  0  0  0  0  0  0  0  0  0  0  0
   58.8260   30.1250   46.4840 C   0  0  0  0  0  0  0  0  0  0  0  0
   58.5590   31.2670   47.4700 C   0  0  0  0  0  0  0  0  0  0  0  0
   58.7410   32.5700   46.8140 N   0  0  0  0  0  0  0  0  0  0  0  0
   57.9420   32.9600   45.7020 C   0  0  0  0  0  0  0  0  0  0  0  0
   57.0020   32.2400   45.2690 O   0  0  0  0  0  0  0  0  0  0  0  0
   58.2910   34.2380   45.0550 C   0  0  0  0  0  0  0  0  0  0  0  0
   59.5900   34.9980   46.0730 S   0  0  0  0  0  0  0  0  0  0  0  0
   59.8550   33.4850   47.0990 C   0  0  0  0  0  0  0  0  0  0  0  0
   59.8350   33.9120   48.5900 C   0  0  0  0  0  0  0  0  0  0  0  0
   61.1490   34.5900   48.9960 C   0  0  0  0  0  0  0  0  0  0  0  0
   62.3800   33.6860   48.7760 C   0  0  0  0  0  0  0  0  0  0  0  0
   62.1020   32.4670   47.8790 C   0  0  0  0  0  0  0  0  0  0  0  0
   61.2130   32.8340   46.6830 C   0  0  0  0  0  0  0  0  0  0  0  0
   57.5451   30.7891   43.2933 H   0  0  0  0  0  0  0  0  0  0  0  0
   56.8793   29.5945   42.1287 H   0  0  0  0  0  0  0  0  0  0  0  0
   56.2703   31.2845   42.1287 H   0  0  0  0  0  0  0  0  0  0  0  0
   54.9978   30.9730   44.0582 H   0  0  0  0  0  0  0  0  0  0  0  0
   54.8940   29.3350   43.3135 H   0  0  0  0  0  0  0  0  0  0  0  0
   57.2610   28.2363   43.7360 H   0  0  0  0  0  0  0  0  0  0  0  0
   58.1323   29.6798   44.3487 H   0  0  0  0  0  0  0  0  0  0  0  0
   57.1136   27.3668   46.0838 H   0  0  0  0  0  0  0  0  0  0  0  0
   58.8139   27.5769   45.5213 H   0  0  0  0  0  0  0  0  0  0  0  0
   59.9068   29.9240   46.4455 H   0  0  0  0  0  0  0  0  0  0  0  0
   58.4618   30.4191   45.4886 H   0  0  0  0  0  0  0  0  0  0  0  0
   57.5264   31.1902   47.8411 H   0  0  0  0  0  0  0  0  0  0  0  0
   59.2704   31.1880   48.3053 H   0  0  0  0  0  0  0  0  0  0  0  0
   58.6641   34.0580   44.0360 H   0  0  0  0  0  0  0  0  0  0  0  0
   57.4128   34.8957   44.9768 H   0  0  0  0  0  0  0  0  0  0  0  0
   59.0050   34.6160   48.7495 H   0  0  0  0  0  0  0  0  0  0  0  0
   59.7062   33.0101   49.2065 H   0  0  0  0  0  0  0  0  0  0  0  0
   61.2726   35.5043   48.3971 H   0  0  0  0  0  0  0  0  0  0  0  0
   61.0889   34.8124   50.0716 H   0  0  0  0  0  0  0  0  0  0  0  0
   63.1730   34.2876   48.3078 H   0  0  0  0  0  0  0  0  0  0  0  0
   62.6734   33.2980   49.7626 H   0  0  0  0  0  0  0  0  0  0  0  0
   63.0588   32.0740   47.5048 H   0  0  0  0  0  0  0  0  0  0  0  0
   61.5741   31.7119   48.4800 H   0  0  0  0  0  0  0  0  0  0  0  0
   61.7603   33.5447   46.0463 H   0  0  0  0  0  0  0  0  0  0  0  0
   60.9774   31.8992   46.1533 H   0  0  0  0  0  0  0  0  0  0  0  0
  1  2  1  0
  2  3  1  0
  3  4  1  0
  4  5  1  0
  5  6  1  0
  6  7  1  0
  7  8  1  0
  8  9  1  0
  9 10  1  0
 10 11  2  0
 10 12  1  0
 12 13  1  0
 13 14  1  0
 14 15  1  0
 15 16  1  0
 16 17  1  0
 17 18  1  0
 18 19  1  0
 14  9  1  0
 19 14  1  0
  1 20  1  0
  1 21  1  0
  1 22  1  0
  2 23  1  0
  2 24  1  0
  4 25  1  0
  4 26  1  0
  5 27  1  0
  5 28  1  0
  7 29  1  0
  7 30  1  0
  8 31  1  0
  8 32  1  0
 12 33  1  0
 12 34  1  0
 15 35  1  0
 15 36  1  0
 16 37  1  0
 16 38  1  0
 17 39  1  0
 17 40  1  0
 18 41  1  0
 18 42  1  0
 19 43  1  0
 19 44  1  0
M  END
>  <UniqueID>  (20) 
20

>  <SMILES>  (20) 
CCOCCOCCN1C(=O)CSC12CCCCC2

>  <Energy>  (20) 
41.222849805478056

>  <Genealogy>  (20) 
CCOCCOCCN1C(=O)CSC12CCCCC2 (3D coordinates assigned)
CCOCCOCCN1C(=O)CSC12CCCCC2 (nonaromatic ring conformer: 41.222849805478056 kcal/mol)

>  <smiles>  (20) 
CCOCCOCCN1C(=O)CSC12CCCCC2

>  <score_type>  (20) 
oracle

>  <origin>  (20) 
adg

>  <m_score__min__energy>  (20) 
-6.5

>  <m_primary>  (20) 
energy

$$$$
20:0
     RDKit          3D

 59 61  0  0  0  0  0  0  0  0999 V2000
   53.2040   30.2050   51.1320 C   0  0  0  0  0  0  0  0  0  0  0  0
   54.2860   30.5190   52.1680 C   0  0  0  0  0  0  0  0  0  0  0  0
   55.0940   29.3240   52.5170 N   0  0  2  0  0  0  0  0  0  0  0  0
   54.2570   28.2350   53.0610 C   0  0  0  0  0  0  0  0  0  0  0  0
   56.2370   29.6500   53.4110 C   0  0  0  0  0  0  0  0  0  0  0  0
   57.5070   30.1810   52.7060 C   0  0  0  0  0  0  0  0  0  0  0  0
   57.3750   30.0870   51.2410 N   0  0  0  0  0  0  0  0  0  0  0  0
   58.6680   30.1450   50.5460 C   0  0  0  0  0  0  0  0  0  0  0  0
   58.6950   31.2970   49.5400 C   0  0  0  0  0  0  0  0  0  0  0  0
   59.5330   30.9520   48.3940 N   0  0  0  0  0  0  0  0  0  0  0  0
   59.0570   31.1360   47.0500 C   0  0  0  0  0  0  0  0  0  0  0  0
   58.6650   30.0280   46.2830 C   0  0  0  0  0  0  0  0  0  0  0  0
   58.2650   30.2070   44.9470 C   0  0  0  0  0  0  0  0  0  0  0  0
   58.1110   31.4760   44.4280 N   0  0  0  0  0  0  0  0  0  0  0  0
   57.4250   31.6570   43.1320 C   0  0  0  0  0  0  0  0  0  0  0  0
   58.5820   32.5710   45.1300 C   0  0  0  0  0  0  0  0  0  0  0  0
   58.6550   33.8610   44.5410 C   0  0  0  0  0  0  0  0  0  0  0  0
   59.0990   34.9610   45.2720 C   0  0  0  0  0  0  0  0  0  0  0  0
   59.4890   34.8100   46.5980 C   0  0  0  0  0  0  0  0  0  0  0  0
   59.4610   33.5520   47.1950 C   0  0  0  0  0  0  0  0  0  0  0  0
   59.0320   32.4200   46.4700 C   0  0  0  0  0  0  0  0  0  0  0  0
   57.9860   28.9510   44.1370 C   0  0  0  0  0  0  0  0  0  0  0  0
   59.0130   27.8530   44.4560 C   0  0  0  0  0  0  0  0  0  0  0  0
   59.2110   27.5950   45.9650 C   0  0  0  0  0  0  0  0  0  0  0  0
   58.5480   28.6400   46.8720 C   0  0  0  0  0  0  0  0  0  0  0  0
   52.2706   29.9341   51.6472 H   0  0  0  0  0  0  0  0  0  0  0  0
   53.0316   31.0902   50.5021 H   0  0  0  0  0  0  0  0  0  0  0  0
   53.5322   29.3650   50.5021 H   0  0  0  0  0  0  0  0  0  0  0  0
   54.9543   31.2910   51.7589 H   0  0  0  0  0  0  0  0  0  0  0  0
   53.7851   30.8662   53.0837 H   0  0  0  0  0  0  0  0  0  0  0  0
   55.5300   28.9600   51.6350 H   0  0  0  0  0  0  0  0  0  0  0  0
   54.2820   28.2675   54.1602 H   0  0  0  0  0  0  0  0  0  0  0  0
   53.2208   28.3606   52.7139 H   0  0  0  0  0  0  0  0  0  0  0  0
   54.6450   27.2660   52.7139 H   0  0  0  0  0  0  0  0  0  0  0  0
   55.9005   30.4166   54.1245 H   0  0  0  0  0  0  0  0  0  0  0  0
   56.5298   28.7006   53.8831 H   0  0  0  0  0  0  0  0  0  0  0  0
   57.6611   31.2334   52.9867 H   0  0  0  0  0  0  0  0  0  0  0  0
   58.3651   29.5691   53.0210 H   0  0  0  0  0  0  0  0  0  0  0  0
   56.8060   30.9030   50.9130 H   0  0  0  0  0  0  0  0  0  0  0  0
   59.4683   30.2939   51.2858 H   0  0  0  0  0  0  0  0  0  0  0  0
   58.8181   29.2002   50.0030 H   0  0  0  0  0  0  0  0  0  0  0  0
   57.6710   31.4991   49.1926 H   0  0  0  0  0  0  0  0  0  0  0  0
   59.1105   32.1897   50.0304 H   0  0  0  0  0  0  0  0  0  0  0  0
   60.3540   30.3250   48.5540 H   0  0  0  0  0  0  0  0  0  0  0  0
   56.3752   31.9340   43.3084 H   0  0  0  0  0  0  0  0  0  0  0  0
   57.9237   32.4543   42.5614 H   0  0  0  0  0  0  0  0  0  0  0  0
   57.4654   30.7175   42.5614 H   0  0  0  0  0  0  0  0  0  0  0  0
   58.3562   33.9941   43.4907 H   0  0  0  0  0  0  0  0  0  0  0  0
   59.1411   35.9528   44.7981 H   0  0  0  0  0  0  0  0  0  0  0  0
   59.8201   35.6852   47.1763 H   0  0  0  0  0  0  0  0  0  0  0  0
   59.7766   33.4397   48.2427 H   0  0  0  0  0  0  0  0  0  0  0  0
   56.9782   28.5828   44.3792 H   0  0  0  0  0  0  0  0  0  0  0  0
   58.0578   29.1993   43.0678 H   0  0  0  0  0  0  0  0  0  0  0  0
   58.6752   26.9171   43.9869 H   0  0  0  0  0  0  0  0  0  0  0  0
   59.9804   28.1996   44.0637 H   0  0  0  0  0  0  0  0  0  0  0  0
   58.7858   26.6094   46.2056 H   0  0  0  0  0  0  0  0  0  0  0  0
   60.2928   27.6496   46.1566 H   0  0  0  0  0  0  0  0  0  0  0  0
   57.4836   28.3889   46.9903 H   0  0  0  0  0  0  0  0  0  0  0  0
   59.0591   28.6306   47.8460 H   0  0  0  0  0  0  0  0  0  0  0  0
  1  2  1  0
  2  3  1  0
  3  4  1  0
  3  5  1  0
  5  6  1  0
  6  7  1  0
  7  8  1  0
  8  9  1  0
  9 10  1  0
 10 11  1  0
 11 12  2  0
 12 13  1  0
 13 14  2  0
 14 15  1  0
 14 16  1  0
 16 17  2  0
 17 18  1  0
 18 19  2  0
 19 20  1  0
 20 21  2  0
 13 22  1  0
 22 23  1  0
 23 24  1  0
 24 25  1  0
 21 11  1  0
 25 12  1  0
 21 16  1  0
  1 26  1  0
  1 27  1  0
  1 28  1  0
  2 29  1  0
  2 30  1  0
  3 31  1  6
  4 32  1  0
  4 33  1  0
  4 34  1  0
  5 35  1  0
  5 36  1  0
  6 37  1  0
  6 38  1  0
  7 39  1  0
  8 40  1  0
  8 41  1  0
  9 42  1  0
  9 43  1  0
 10 44  1  0
 15 45  1  0
 15 46  1  0
 15 47  1  0
 17 48  1  0
 18 49  1  0
 19 50  1  0
 20 51  1  0
 22 52  1  0
 22 53  1  0
 23 54  1  0
 23 55  1  0
 24 56  1  0
 24 57  1  0
 25 58  1  0
 25 59  1  0
M  CHG  2   3   1  14   1
M  END
>  <UniqueID>  (21) 
21

>  <SMILES>  (21) 
CC[N@H+](C)CCNCCNc1c2c([n+](C)c3ccccc13)CCCC2

>  <Energy>  (21) 
85.7836752806694

>  <Genealogy>  (21) 
CC[NH+](C)CCNCCNc1c2c([n+](C)c3ccccc13)CCCC2 (protonated)
CC[N@H+](C)CCNCCNc1c2c([n+](C)c3ccccc13)CCCC2 (chirality)
CC[N@H+](C)CCNCCNc1c2c([n+](C)c3ccccc13)CCCC2 (3D coordinates assigned)
CC[N@H+](C)CCNCCNc1c2c([n+](C)c3ccccc13)CCCC2 (nonaromatic ring conformer: 85.7836752806694 kcal/mol)

>  <smiles>  (21) 
CCN(C)CCNCCNc1c2c([n+](C)c3ccccc13)CCCC2

>  <score_type>  (21) 
oracle

>  <origin>  (21) 
adg

>  <m_score__min__energy>  (21) 
-4.4800000000000004

>  <m_primary>  (21) 
energy

$$$$
21:0
     RDKit          3D

 60 64  0  0  0  0  0  0  0  0999 V2000
   56.7200   26.6780   46.0620 C   0  0  0  0  0  0  0  0  0  0  0  0
   58.1080   26.2350   46.1900 N   0  0  0  0  0  0  0  0  0  0  0  0
   59.1220   26.8590   46.8230 C   0  0  0  0  0  0  0  0  0  0  0  0
   58.9930   28.4170   47.7080 S   0  0  0  0  0  0  0  0  0  0  0  0
   60.1370   29.3400   46.6150 C   0  0  0  0  0  0  0  0  0  0  0  0
   59.5070   29.6760   45.2560 C   0  0  0  0  0  0  0  0  0  0  0  0
   57.9870   29.9240   45.3050 C   0  0  0  0  0  0  0  0  0  0  0  0
   57.6360   31.3530   45.4580 N   0  0  0  0  0  0  0  0  0  0  0  0
   58.0230   32.1150   44.2410 C   0  0  0  0  0  0  0  0  0  0  0  0
   57.8980   33.6550   44.4510 C   0  0  1  0  0  0  0  0  0  0  0  0
   56.9920   33.9080   45.6480 C   0  0  0  0  0  0  0  0  0  0  0  0
   57.9350   33.5020   46.7750 C   0  0  1  0  0  0  0  0  0  0  0  0
   58.2000   31.9560   46.6950 C   0  0  0  0  0  0  0  0  0  0  0  0
   59.1890   34.3380   46.4300 C   0  0  1  0  0  0  0  0  0  0  0  0
   60.4800   33.9810   47.1640 C   0  0  0  0  0  0  0  0  0  0  0  0
   60.5660   34.0940   48.5670 C   0  0  0  0  0  0  0  0  0  0  0  0
   61.7680   33.8360   49.2310 C   0  0  0  0  0  0  0  0  0  0  0  0
   62.9100   33.4960   48.5080 C   0  0  0  0  0  0  0  0  0  0  0  0
   62.8590   33.4350   47.1150 C   0  0  0  0  0  0  0  0  0  0  0  0
   63.9740   33.1250   46.4100 F   0  0  0  0  0  0  0  0  0  0  0  0
   61.6600   33.6970   46.4450 C   0  0  0  0  0  0  0  0  0  0  0  0
   59.2490   34.2620   44.8890 C   0  0  0  0  0  0  0  0  0  0  0  0
   60.2710   26.1680   46.7180 N   0  0  0  0  0  0  0  0  0  0  0  0
   60.0070   25.0850   46.0020 N   0  0  0  0  0  0  0  0  0  0  0  0
   58.6960   25.1240   45.6900 C   0  0  0  0  0  0  0  0  0  0  0  0
   58.0430   24.0970   44.8530 C   0  0  0  0  0  0  0  0  0  0  0  0
   58.3330   22.7390   45.0690 C   0  0  0  0  0  0  0  0  0  0  0  0
   57.7170   21.7520   44.2940 C   0  0  0  0  0  0  0  0  0  0  0  0
   56.7960   22.1110   43.3070 C   0  0  0  0  0  0  0  0  0  0  0  0
   56.4850   23.4590   43.0990 C   0  0  0  0  0  0  0  0  0  0  0  0
   57.0990   24.4480   43.8710 C   0  0  0  0  0  0  0  0  0  0  0  0
   56.2856   26.8167   47.0630 H   0  0  0  0  0  0  0  0  0  0  0  0
   56.6883   27.6309   45.5134 H   0  0  0  0  0  0  0  0  0  0  0  0
   56.1422   25.9196   45.5134 H   0  0  0  0  0  0  0  0  0  0  0  0
   60.4217   30.2782   47.1137 H   0  0  0  0  0  0  0  0  0  0  0  0
   61.0120   28.6998   46.4292 H   0  0  0  0  0  0  0  0  0  0  0  0
   59.9916   30.5835   44.8667 H   0  0  0  0  0  0  0  0  0  0  0  0
   59.6621   28.7981   44.6115 H   0  0  0  0  0  0  0  0  0  0  0  0
   57.5415   29.5524   44.3704 H   0  0  0  0  0  0  0  0  0  0  0  0
   57.5969   29.3946   46.1868 H   0  0  0  0  0  0  0  0  0  0  0  0
   59.0663   31.8747   43.9884 H   0  0  0  0  0  0  0  0  0  0  0  0
   57.3400   31.8266   43.4284 H   0  0  0  0  0  0  0  0  0  0  0  0
   57.5349   34.0875   43.5070 H   0  0  0  0  0  0  0  0  0  0  0  0
   56.6969   34.9651   45.7219 H   0  0  0  0  0  0  0  0  0  0  0  0
   56.0320   33.3713   45.6275 H   0  0  0  0  0  0  0  0  0  0  0  0
   57.5705   33.6809   47.7973 H   0  0  0  0  0  0  0  0  0  0  0  0
   59.2859   31.7814   46.7110 H   0  0  0  0  0  0  0  0  0  0  0  0
   57.7060   31.4835   47.5568 H   0  0  0  0  0  0  0  0  0  0  0  0
   59.0975   35.3703   46.7989 H   0  0  0  0  0  0  0  0  0  0  0  0
   59.6774   34.3884   49.1447 H   0  0  0  0  0  0  0  0  0  0  0  0
   61.8131   33.9014   50.3281 H   0  0  0  0  0  0  0  0  0  0  0  0
   63.8502   33.2760   49.0349 H   0  0  0  0  0  0  0  0  0  0  0  0
   61.6366   33.6815   45.3454 H   0  0  0  0  0  0  0  0  0  0  0  0
   59.3760   35.2667   44.4595 H   0  0  0  0  0  0  0  0  0  0  0  0
   60.0992   33.6553   44.5439 H   0  0  0  0  0  0  0  0  0  0  0  0
   59.0491   22.4509   45.8527 H   0  0  0  0  0  0  0  0  0  0  0  0
   57.9577   20.6918   44.4615 H   0  0  0  0  0  0  0  0  0  0  0  0
   56.3156   21.3343   42.6938 H   0  0  0  0  0  0  0  0  0  0  0  0
   55.7552   23.7408   42.3257 H   0  0  0  0  0  0  0  0  0  0  0  0
   56.8433   25.5057   43.7104 H   0  0  0  0  0  0  0  0  0  0  0  0
  1  2  1  0
  2  3  1  0
  3  4  1  0
  4  5  1  0
  5  6  1  0
  6  7  1  0
  7  8  1  0
  8  9  1  0
  9 10  1  0
 10 11  1  0
 11 12  1  0
 12 13  1  0
 12 14  1  0
 14 15  1  0
 15 16  2  0
 16 17  1  0
 17 18  2  0
 18 19  1  0
 19 20  1  0
 19 21  2  0
 14 22  1  0
  3 23  2  0
 23 24  1  0
 24 25  2  0
 25 26  1  0
 26 27  2  0
 27 28  1  0
 28 29  2  0
 29 30  1  0
 30 31  2  0
 25  2  1  0
 31 26  1  0
 13  8  1  0
 21 15  1  0
 22 10  1  0
  1 32  1  0
  1 33  1  0
  1 34  1  0
  5 35  1  0
  5 36  1  0
  6 37  1  0
  6 38  1  0
  7 39  1  0
  7 40  1  0
  9 41  1  0
  9 42  1  0
 10 43  1  6
 11 44  1  0
 11 45  1  0
 12 46  1  1
 13 47  1  0
 13 48  1  0
 14 49  1  6
 16 50  1  0
 17 51  1  0
 18 52  1  0
 21 53  1  0
 22 54  1  0
 22 55  1  0
 27 56  1  0
 28 57  1  0
 29 58  1  0
 30 59  1  0
 31 60  1  0
M  END
>  <UniqueID>  (22) 
22

>  <SMILES>  (22) 
Cn1c(SCCCN2C[C@@H]3CC(c4cccc(F)c4)[C@@H](C3)C2)nnc1-c1ccccc1

>  <Energy>  (22) 
123.52558349155983

>  <Genealogy>  (22) 
Cn1c(SCCCN2C[C@@H]3CC(c4cccc(F)c4)[C@@H](C3)C2)nnc1-c1ccccc1 (chirality)
Cn1c(SCCCN2C[C@@H]3CC(c4cccc(F)c4)[C@@H](C3)C2)nnc1-c1ccccc1 (3D coordinates assigned)
Cn1c(SCCCN2C[C@@H]3CC(c4cccc(F)c4)[C@@H](C3)C2)nnc1-c1ccccc1 (nonaromatic ring conformer: 123.52558349155983 kcal/mol)

>  <smiles>  (22) 
Cn1c(SCCCN2CC3CC(C2)C(c2cccc(F)c2)C3)nnc1-c1ccccc1

>  <score_type>  (22) 
oracle

>  <origin>  (22) 
adg

>  <m_score__min__energy>  (22) 
-10.789999999999999

>  <m_primary>  (22) 
energy

$$$$
22:0
     RDKit          3D

 63 67  0  0  0  0  0  0  0  0999 V2000
   67.9590   33.1940   50.8830 C   0  0  0  0  0  0  0  0  0  0  0  0
   67.1560   32.0180   51.4210 C   0  0  0  0  0  0  0  0  0  0  0  0
   65.8060   31.9540   50.7640 C   0  0  0  0  0  0  0  0  0  0  0  0
   65.3980   32.7700   49.7260 C   0  0  0  0  0  0  0  0  0  0  0  0
   64.1190   32.3610   49.3860 C   0  0  0  0  0  0  0  0  0  0  0  0
   63.2810   32.9810   48.3360 C   0  0  0  0  0  0  0  0  0  0  0  0
   63.6430   33.0240   47.0390 N   0  0  0  0  0  0  0  0  0  0  0  0
   62.6860   33.6320   46.3580 N   0  0  0  0  0  0  0  0  0  0  0  0
   61.7320   33.9480   47.2530 C   0  0  0  0  0  0  0  0  0  0  0  0
   60.2070   34.7820   46.8000 S   0  0  0  0  0  0  0  0  0  0  0  0
   59.2440   33.2470   46.5450 C   0  0  0  0  0  0  0  0  0  0  0  0
   58.4330   33.3410   45.2540 C   0  0  0  0  0  0  0  0  0  0  0  0
   57.3660   32.2430   45.1870 C   0  0  0  0  0  0  0  0  0  0  0  0
   57.8320   31.1490   44.3030 N   0  0  0  0  0  0  0  0  0  0  0  0
   56.8890   30.8330   43.1970 C   0  0  0  0  0  0  0  0  0  0  0  0
   56.6590   29.3320   43.4320 C   0  0  1  0  0  0  0  0  0  0  0  0
   58.0830   28.8970   43.7500 C   0  0  0  0  0  0  0  0  0  0  0  0
   57.8260   29.8150   44.9370 C   0  0  1  0  0  0  0  0  0  0  0  0
   58.6780   29.6260   46.1720 C   0  0  0  0  0  0  0  0  0  0  0  0
   59.9500   30.2180   46.2450 C   0  0  0  0  0  0  0  0  0  0  0  0
   60.7160   30.1070   47.4080 C   0  0  0  0  0  0  0  0  0  0  0  0
   60.2140   29.4110   48.5140 C   0  0  0  0  0  0  0  0  0  0  0  0
   61.0020   29.2990   49.7150 C   0  0  0  0  0  0  0  0  0  0  0  0
   61.6350   29.2090   50.6800 N   0  0  0  0  0  0  0  0  0  0  0  0
   58.9430   28.8290   48.4540 C   0  0  0  0  0  0  0  0  0  0  0  0
   58.1760   28.9400   47.2910 C   0  0  0  0  0  0  0  0  0  0  0  0
   56.3660   29.3550   44.9210 C   0  0  0  0  0  0  0  0  0  0  0  0
   62.0640   33.5520   48.5030 N   0  0  0  0  0  0  0  0  0  0  0  0
   61.2930   33.7380   49.7300 C   0  0  0  0  0  0  0  0  0  0  0  0
   63.7980   31.3160   50.2370 C   0  0  0  0  0  0  0  0  0  0  0  0
   64.8360   31.0620   51.0570 N   0  0  0  0  0  0  0  0  0  0  0  0
   64.8600   30.0510   52.1120 C   0  0  0  0  0  0  0  0  0  0  0  0
   68.3591   33.7800   51.7236 H   0  0  0  0  0  0  0  0  0  0  0  0
   68.7908   32.8194   50.2683 H   0  0  0  0  0  0  0  0  0  0  0  0
   67.3074   33.8324   50.2683 H   0  0  0  0  0  0  0  0  0  0  0  0
   67.7015   31.0847   51.2177 H   0  0  0  0  0  0  0  0  0  0  0  0
   67.0171   32.1496   52.5042 H   0  0  0  0  0  0  0  0  0  0  0  0
   65.9748   33.5834   49.2616 H   0  0  0  0  0  0  0  0  0  0  0  0
   64.5260   32.6630   46.6160 H   0  0  0  0  0  0  0  0  0  0  0  0
   59.9334   32.3923   46.4796 H   0  0  0  0  0  0  0  0  0  0  0  0
   58.5556   33.1105   47.3920 H   0  0  0  0  0  0  0  0  0  0  0  0
   57.9398   34.3233   45.2111 H   0  0  0  0  0  0  0  0  0  0  0  0
   59.1180   33.2126   44.4029 H   0  0  0  0  0  0  0  0  0  0  0  0
   57.1858   31.8458   46.1968 H   0  0  0  0  0  0  0  0  0  0  0  0
   56.4331   32.6648   44.7848 H   0  0  0  0  0  0  0  0  0  0  0  0
   55.9535   31.4046   43.2873 H   0  0  0  0  0  0  0  0  0  0  0  0
   57.2643   31.0839   42.1939 H   0  0  0  0  0  0  0  0  0  0  0  0
   56.0217   28.8273   42.6910 H   0  0  0  0  0  0  0  0  0  0  0  0
   58.8596   29.2240   43.0429 H   0  0  0  0  0  0  0  0  0  0  0  0
   58.4325   27.8559   43.8132 H   0  0  0  0  0  0  0  0  0  0  0  0
   60.3453   30.7724   45.3810 H   0  0  0  0  0  0  0  0  0  0  0  0
   61.7142   30.5668   47.4547 H   0  0  0  0  0  0  0  0  0  0  0  0
   58.5470   28.2834   49.3232 H   0  0  0  0  0  0  0  0  0  0  0  0
   57.1740   28.4880   47.2513 H   0  0  0  0  0  0  0  0  0  0  0  0
   55.6212   30.0910   45.2581 H   0  0  0  0  0  0  0  0  0  0  0  0
   55.9540   28.5178   45.5036 H   0  0  0  0  0  0  0  0  0  0  0  0
   61.9462   33.5804   50.6009 H   0  0  0  0  0  0  0  0  0  0  0  0
   60.8868   34.7599   49.7564 H   0  0  0  0  0  0  0  0  0  0  0  0
   60.4655   33.0137   49.7564 H   0  0  0  0  0  0  0  0  0  0  0  0
   62.8401   30.7753   50.2423 H   0  0  0  0  0  0  0  0  0  0  0  0
   64.8483   30.5458   53.0944 H   0  0  0  0  0  0  0  0  0  0  0  0
   63.9770   29.4018   52.0179 H   0  0  0  0  0  0  0  0  0  0  0  0
   65.7728   29.4444   52.0179 H   0  0  0  0  0  0  0  0  0  0  0  0
  1  2  1  0
  2  3  1  0
  3  4  2  0
  4  5  1  0
  5  6  1  0
  6  7  2  0
  7  8  1  0
  8  9  2  0
  9 10  1  0
 10 11  1  0
 11 12  1  0
 12 13  1  0
 13 14  1  0
 14 15  1  0
 15 16  1  0
 16 17  1  0
 17 18  1  0
 18 19  1  1
 19 20  2  0
 20 21  1  0
 21 22  2  0
 22 23  1  0
 23 24  3  0
 22 25  1  0
 25 26  2  0
 18 27  1  0
  9 28  1  0
 28 29  1  0
  5 30  2  0
 30 31  1  0
 31 32  1  0
 31  3  1  0
 28  6  1  0
 18 14  1  0
 26 19  1  0
 27 16  1  0
  1 33  1  0
  1 34  1  0
  1 35  1  0
  2 36  1  0
  2 37  1  0
  4 38  1  0
  7 39  1  0
 11 40  1  0
 11 41  1  0
 12 42  1  0
 12 43  1  0
 13 44  1  0
 13 45  1  0
 15 46  1  0
 15 47  1  0
 16 48  1  6
 17 49  1  0
 17 50  1  0
 20 51  1  0
 21 52  1  0
 25 53  1  0
 26 54  1  0
 27 55  1  0
 27 56  1  0
 29 57  1  0
 29 58  1  0
 29 59  1  0
 30 60  1  0
 32 61  1  0
 32 62  1  0
 32 63  1  0
M  CHG  1   7   1
M  END
>  <UniqueID>  (23) 
23

>  <SMILES>  (23) 
CCc1cc(-c2[nH+]nc(SCCCN3CC4CC3(c3ccc(C#N)cc3)C4)n2C)cn1C

>  <Energy>  (23) 
248.82792703438898

>  <Genealogy>  (23) 
CCc1cc(-c2[nH+]nc(SCCCN3CC4CC3(c3ccc(C#N)cc3)C4)n2C)cn1C (protonated)
CCc1cc(-c2[nH+]nc(SCCCN3CC4CC3(c3ccc(C#N)cc3)C4)n2C)cn1C (3D coordinates assigned)
CCc1cc(-c2[nH+]nc(SCCCN3CC4CC3(c3ccc(C#N)cc3)C4)n2C)cn1C (nonaromatic ring conformer: 248.82792703438898 kcal/mol)

>  <smiles>  (23) 
CCc1cc(-c2nnc(SCCCN3CC4CC3(c3ccc(C#N)cc3)C4)n2C)cn1C

>  <score_type>  (23) 
oracle

>  <origin>  (23) 
adg

>  <m_score__min__energy>  (23) 
-8.2400000000000002

>  <m_primary>  (23) 
energy

$$$$
23:0
     RDKit          3D

 56 58  0  0  0  0  0  0  0  0999 V2000
   57.0110   34.2150   45.6080 C   0  0  0  0  0  0  0  0  0  0  0  0
   58.3340   34.5390   44.9010 C   0  0  0  0  0  0  0  0  0  0  0  0
   59.4060   34.9020   45.9400 C   0  0  0  0  0  0  0  0  0  0  0  0
   58.7690   33.3520   44.0170 C   0  0  0  0  0  0  0  0  0  0  0  0
   57.6010   32.6680   43.4440 N   0  0  0  0  0  0  0  0  0  0  0  0
   57.8870   31.2410   43.2460 C   0  0  0  0  0  0  0  0  0  0  0  0
   56.7810   30.3920   43.8740 C   0  0  0  0  0  0  0  0  0  0  0  0
   57.0760   30.1100   45.2420 O   0  0  0  0  0  0  0  0  0  0  0  0
   58.2410   30.5000   45.9250 C   0  0  0  0  0  0  0  0  0  0  0  0
   59.4810   29.8580   45.7490 C   0  0  0  0  0  0  0  0  0  0  0  0
   60.6060   30.2900   46.4550 C   0  0  0  0  0  0  0  0  0  0  0  0
   60.5190   31.3730   47.3480 C   0  0  0  0  0  0  0  0  0  0  0  0
   61.7160   31.8330   48.0990 C   0  0  0  0  0  0  0  0  0  0  0  0
   62.6540   32.6830   47.4980 C   0  0  0  0  0  0  0  0  0  0  0  0
   63.7810   33.1160   48.2020 C   0  0  0  0  0  0  0  0  0  0  0  0
   64.0100   32.7080   49.5370 C   0  0  0  0  0  0  0  0  0  0  0  0
   65.1880   33.1580   50.2760 N   0  0  0  0  0  0  0  0  0  0  0  0
   66.5270   32.6870   49.8600 C   0  0  0  0  0  0  0  0  0  0  0  0
   67.6600   33.1750   50.7680 C   0  0  0  0  0  0  0  0  0  0  0  0
   67.4330   34.4980   51.1920 O   0  0  0  0  0  0  0  0  0  0  0  0
   66.3350   34.5000   52.0720 C   0  0  0  0  0  0  0  0  0  0  0  0
   65.0360   34.1870   51.3260 C   0  0  0  0  0  0  0  0  0  0  0  0
   63.0510   31.8570   50.1330 C   0  0  0  0  0  0  0  0  0  0  0  0
   61.9260   31.4260   49.4250 C   0  0  0  0  0  0  0  0  0  0  0  0
   59.2800   32.0140   47.5160 C   0  0  0  0  0  0  0  0  0  0  0  0
   58.1550   31.5810   46.8100 C   0  0  0  0  0  0  0  0  0  0  0  0
   57.1590   34.2512   46.6974 H   0  0  0  0  0  0  0  0  0  0  0  0
   56.2492   34.9531   45.3167 H   0  0  0  0  0  0  0  0  0  0  0  0
   56.6765   33.2084   45.3167 H   0  0  0  0  0  0  0  0  0  0  0  0
   58.1965   35.4089   44.2420 H   0  0  0  0  0  0  0  0  0  0  0  0
   58.9975   34.7637   46.9519 H   0  0  0  0  0  0  0  0  0  0  0  0
   60.2820   34.2504   45.8060 H   0  0  0  0  0  0  0  0  0  0  0  0
   59.7059   35.9518   45.8060 H   0  0  0  0  0  0  0  0  0  0  0  0
   59.4042   33.7253   43.2001 H   0  0  0  0  0  0  0  0  0  0  0  0
   59.3248   32.6356   44.6398 H   0  0  0  0  0  0  0  0  0  0  0  0
   57.4200   33.0810   42.4990 H   0  0  0  0  0  0  0  0  0  0  0  0
   57.9426   31.0271   42.1684 H   0  0  0  0  0  0  0  0  0  0  0  0
   58.8459   30.9957   43.7259 H   0  0  0  0  0  0  0  0  0  0  0  0
   55.8286   30.9392   43.8155 H   0  0  0  0  0  0  0  0  0  0  0  0
   56.7098   29.4417   43.3246 H   0  0  0  0  0  0  0  0  0  0  0  0
   59.5646   29.0114   45.0516 H   0  0  0  0  0  0  0  0  0  0  0  0
   61.5691   29.7784   46.3112 H   0  0  0  0  0  0  0  0  0  0  0  0
   62.5015   33.0133   46.4599 H   0  0  0  0  0  0  0  0  0  0  0  0
   64.5020   33.7852   47.7098 H   0  0  0  0  0  0  0  0  0  0  0  0
   66.5259   31.5870   49.8665 H   0  0  0  0  0  0  0  0  0  0  0  0
   66.7167   33.1002   48.8583 H   0  0  0  0  0  0  0  0  0  0  0  0
   67.7215   32.5203   51.6498 H   0  0  0  0  0  0  0  0  0  0  0  0
   68.6014   33.1460   50.1998 H   0  0  0  0  0  0  0  0  0  0  0  0
   66.4957   33.7391   52.8500 H   0  0  0  0  0  0  0  0  0  0  0  0
   66.2486   35.4993   52.5236 H   0  0  0  0  0  0  0  0  0  0  0  0
   64.2933   33.8319   52.0556 H   0  0  0  0  0  0  0  0  0  0  0  0
   64.7213   35.1142   50.8248 H   0  0  0  0  0  0  0  0  0  0  0  0
   63.1931   31.5282   51.1730 H   0  0  0  0  0  0  0  0  0  0  0  0
   61.1978   30.7609   49.9123 H   0  0  0  0  0  0  0  0  0  0  0  0
   59.1951   32.8639   48.2092 H   0  0  0  0  0  0  0  0  0  0  0  0
   57.1924   32.0944   46.9509 H   0  0  0  0  0  0  0  0  0  0  0  0
  1  2  1  0
  2  3  1  0
  2  4  1  0
  4  5  1  0
  5  6  1  0
  6  7  1  0
  7  8  1  0
  8  9  1  0
  9 10  2  0
 10 11  1  0
 11 12  2  0
 12 13  1  0
 13 14  2  0
 14 15  1  0
 15 16  2  0
 16 17  1  0
 17 18  1  0
 18 19  1  0
 19 20  1  0
 20 21  1  0
 21 22  1  0
 16 23  1  0
 23 24  2  0
 12 25  1  0
 25 26  2  0
 26  9  1  0
 24 13  1  0
 22 17  1  0
  1 27  1  0
  1 28  1  0
  1 29  1  0
  2 30  1  0
  3 31  1  0
  3 32  1  0
  3 33  1  0
  4 34  1  0
  4 35  1  0
  5 36  1  0
  6 37  1  0
  6 38  1  0
  7 39  1  0
  7 40  1  0
 10 41  1  0
 11 42  1  0
 14 43  1  0
 15 44  1  0
 18 45  1  0
 18 46  1  0
 19 47  1  0
 19 48  1  0
 21 49  1  0
 21 50  1  0
 22 51  1  0
 22 52  1  0
 23 53  1  0
 24 54  1  0
 25 55  1  0
 26 56  1  0
M  END
>  <UniqueID>  (24) 
24

>  <SMILES>  (24) 
CC(C)CNCCOc1ccc(-c2ccc(N3CCOCC3)cc2)cc1

>  <Energy>  (24) 
61.93148685060285

>  <Genealogy>  (24) 
CC(C)CNCCOc1ccc(-c2ccc(N3CCOCC3)cc2)cc1 (3D coordinates assigned)
CC(C)CNCCOc1ccc(-c2ccc(N3CCOCC3)cc2)cc1 (nonaromatic ring conformer: 61.93148685060285 kcal/mol)

>  <smiles>  (24) 
CC(C)CNCCOc1ccc(-c2ccc(N3CCOCC3)cc2)cc1

>  <score_type>  (24) 
oracle

>  <origin>  (24) 
adg

>  <m_score__min__energy>  (24) 
-7.7699999999999996

>  <m_primary>  (24) 
energy

$$$$
