0:0
     RDKit          3D

 25 27  0  0  0  0  0  0  0  0999 V2000
   57.8620   32.3450   41.5410 C   0  0  0  0  0  0  0  0  0  0  0  0
   58.1420   32.0160   43.0060 C   0  0  0  0  0  0  0  0  0  0  0  0
   57.0000   31.2190   43.6530 C   0  0  0  0  0  0  0  0  0  0  0  0
   57.5090   30.0430   44.3780 N   0  0  0  0  0  0  0  0  0  0  0  0
   58.8740   29.8460   44.4740 C   0  0  0  0  0  0  0  0  0  0  0  0
   59.3890   28.7570   45.1230 N   0  0  0  0  0  0  0  0  0  0  0  0
   58.5350   27.8990   45.7260 C   0  0  0  0  0  0  0  0  0  0  0  0
   58.8540   26.6790   46.2400 N   0  0  0  0  0  0  0  0  0  0  0  0
   57.6140   26.2110   46.5430 C   0  0  0  0  0  0  0  0  0  0  0  0
   57.2220   24.9280   46.5870 N   0  0  0  0  0  0  0  0  0  0  0  0
   55.8940   25.0650   46.2860 C   0  0  0  0  0  0  0  0  0  0  0  0
   55.5300   26.3440   45.9860 N   0  0  0  0  0  0  0  0  0  0  0  0
   56.6280   27.0230   46.2370 N   0  0  0  0  0  0  0  0  0  0  0  0
   57.1850   28.0910   45.6730 C   0  0  0  0  0  0  0  0  0  0  0  0
   56.6400   29.1480   44.9640 C   0  0  0  0  0  0  0  0  0  0  0  0
   55.3890   29.2800   44.8660 O   0  0  0  0  0  0  0  0  0  0  0  0
   57.1501   33.1815   41.4827 H   0  0  0  0  0  0  0  0  0  0  0  0
   58.8011   32.6273   41.0426 H   0  0  0  0  0  0  0  0  0  0  0  0
   57.4332   31.4631   41.0426 H   0  0  0  0  0  0  0  0  0  0  0  0
   59.0657   31.4216   43.0647 H   0  0  0  0  0  0  0  0  0  0  0  0
   58.2403   32.9662   43.5514 H   0  0  0  0  0  0  0  0  0  0  0  0
   56.4642   31.8704   44.3591 H   0  0  0  0  0  0  0  0  0  0  0  0
   56.3269   30.8698   42.8562 H   0  0  0  0  0  0  0  0  0  0  0  0
   59.5585   30.5780   44.0204 H   0  0  0  0  0  0  0  0  0  0  0  0
   55.1869   24.2224   46.2861 H   0  0  0  0  0  0  0  0  0  0  0  0
  1  2  1  0
  2  3  1  0
  3  4  1  0
  4  5  1  0
  5  6  2  0
  6  7  1  0
  7  8  1  0
  8  9  1  0
  9 10  2  0
 10 11  1  0
 11 12  2  0
 12 13  1  0
 13 14  1  0
 14 15  1  0
 15 16  2  0
 15  4  1  0
 14  7  2  0
 13  9  1  0
  1 17  1  0
  1 18  1  0
  1 19  1  0
  2 20  1  0
  2 21  1  0
  3 22  1  0
  3 23  1  0
  5 24  1  0
 11 25  1  0
M  CHG  1   8  -1
M  END
>  <UniqueID>  (1) 
1

>  <SMILES>  (1) 
CCCn1cnc2[n-]c3ncnn3c2c1=O

>  <Energy>  (1) 
129.72509404556982

>  <Genealogy>  (1) 
CCCn1cnc2[n-]c3ncnn3c2c1=O (protonated)
CCCn1cnc2[n-]c3ncnn3c2c1=O (3D coordinates assigned)
CCCn1cnc2[n-]c3ncnn3c2c1=O (optimized conformer: 129.72509404556982 kcal/mol)

>  <smiles>  (1) 
CCCn1cnc2[nH]c3ncnn3c2c1=O

>  <score_type>  (1) 
oracle

>  <origin>  (1) 
adg

>  <m_score__min__energy>  (1) 
-7.3200000000000003

>  <m_primary>  (1) 
energy

$$$$
1:0
     RDKit          3D

 55 58  0  0  0  0  0  0  0  0999 V2000
   58.8040   32.4410   47.7430 C   0  0  0  0  0  0  0  0  0  0  0  0
   59.0110   33.5440   48.7730 C   0  0  0  0  0  0  0  0  0  0  0  0
   59.9500   34.5560   48.2330 N   0  0  0  0  0  0  0  0  0  0  0  0
   59.4580   35.2490   47.0200 C   0  0  0  0  0  0  0  0  0  0  0  0
   59.6950   34.4070   45.7590 C   0  0  0  0  0  0  0  0  0  0  0  0
   58.1900   34.1580   44.8330 Cl  0  0  0  0  0  0  0  0  0  0  0  0
   61.3280   34.0380   48.0760 C   0  0  0  0  0  0  0  0  0  0  0  0
   61.9850   33.6160   49.4060 C   0  0  0  0  0  0  0  0  0  0  0  0
   62.3890   32.2480   49.3470 O   0  0  0  0  0  0  0  0  0  0  0  0
   61.7550   31.2400   48.6010 C   0  0  0  0  0  0  0  0  0  0  0  0
   61.8240   31.1750   47.1950 C   0  0  0  0  0  0  0  0  0  0  0  0
   61.1690   30.1490   46.5050 C   0  0  0  0  0  0  0  0  0  0  0  0
   60.4160   29.1980   47.2000 C   0  0  0  0  0  0  0  0  0  0  0  0
   59.8030   28.1210   46.4790 N   0  0  0  0  0  0  0  0  0  0  0  0
   58.6050   28.0220   45.9550 C   0  0  0  0  0  0  0  0  0  0  0  0
   57.8660   26.8450   46.2350 C   0  0  0  0  0  0  0  0  0  0  0  0
   58.4420   25.7400   46.9010 C   0  0  0  0  0  0  0  0  0  0  0  0
   57.6730   24.6140   47.2060 C   0  0  0  0  0  0  0  0  0  0  0  0
   56.3190   24.5750   46.8660 C   0  0  0  0  0  0  0  0  0  0  0  0
   55.7310   25.6600   46.2180 C   0  0  0  0  0  0  0  0  0  0  0  0
   56.4930   26.7900   45.9000 C   0  0  0  0  0  0  0  0  0  0  0  0
   55.9010   27.8380   45.2780 N   0  0  0  0  0  0  0  0  0  0  0  0
   56.5920   28.9420   44.9040 C   0  0  0  0  0  0  0  0  0  0  0  0
   55.9240   29.9500   44.2000 C   0  0  0  0  0  0  0  0  0  0  0  0
   56.6310   31.0360   43.6860 C   0  0  0  0  0  0  0  0  0  0  0  0
   58.0140   31.0970   43.8380 C   0  0  0  0  0  0  0  0  0  0  0  0
   58.6910   30.1030   44.5490 C   0  0  0  0  0  0  0  0  0  0  0  0
   57.9830   29.0460   45.1720 C   0  0  0  0  0  0  0  0  0  0  0  0
   60.3740   29.2410   48.6030 C   0  0  0  0  0  0  0  0  0  0  0  0
   61.0270   30.2660   49.2940 C   0  0  0  0  0  0  0  0  0  0  0  0
   58.6248   31.4863   48.2591 H   0  0  0  0  0  0  0  0  0  0  0  0
   57.9361   32.6858   47.1130 H   0  0  0  0  0  0  0  0  0  0  0  0
   59.7016   32.3544   47.1130 H   0  0  0  0  0  0  0  0  0  0  0  0
   58.0460   34.0221   48.9969 H   0  0  0  0  0  0  0  0  0  0  0  0
   59.4289   33.1113   49.6939 H   0  0  0  0  0  0  0  0  0  0  0  0
   58.3795   35.4365   47.1276 H   0  0  0  0  0  0  0  0  0  0  0  0
   60.0099   36.1945   46.9137 H   0  0  0  0  0  0  0  0  0  0  0  0
   60.4253   34.9233   45.1186 H   0  0  0  0  0  0  0  0  0  0  0  0
   60.0696   33.4214   46.0725 H   0  0  0  0  0  0  0  0  0  0  0  0
   61.2966   33.1626   47.4106 H   0  0  0  0  0  0  0  0  0  0  0  0
   61.9349   34.8568   47.6623 H   0  0  0  0  0  0  0  0  0  0  0  0
   62.8667   34.2471   49.5915 H   0  0  0  0  0  0  0  0  0  0  0  0
   61.2556   33.7389   50.2202 H   0  0  0  0  0  0  0  0  0  0  0  0
   62.3945   31.9331   46.6383 H   0  0  0  0  0  0  0  0  0  0  0  0
   61.2470   30.0903   45.4093 H   0  0  0  0  0  0  0  0  0  0  0  0
   59.5052   25.7664   47.1819 H   0  0  0  0  0  0  0  0  0  0  0  0
   58.1354   23.7557   47.7154 H   0  0  0  0  0  0  0  0  0  0  0  0
   55.7163   23.6877   47.1097 H   0  0  0  0  0  0  0  0  0  0  0  0
   54.6633   25.6279   45.9554 H   0  0  0  0  0  0  0  0  0  0  0  0
   54.8360   29.8852   44.0515 H   0  0  0  0  0  0  0  0  0  0  0  0
   56.0978   31.8427   43.1617 H   0  0  0  0  0  0  0  0  0  0  0  0
   58.5765   31.9325   43.3958 H   0  0  0  0  0  0  0  0  0  0  0  0
   59.7876   30.1417   44.6260 H   0  0  0  0  0  0  0  0  0  0  0  0
   59.8261   28.4664   49.1596 H   0  0  0  0  0  0  0  0  0  0  0  0
   60.9681   30.3073   50.3916 H   0  0  0  0  0  0  0  0  0  0  0  0
  1  2  1  0
  2  3  1  0
  3  4  1  0
  4  5  1  0
  5  6  1  0
  3  7  1  0
  7  8  1  0
  8  9  1  0
  9 10  1  0
 10 11  2  0
 11 12  1  0
 12 13  2  0
 13 14  1  0
 14 15  2  3
 15 16  1  0
 16 17  2  0
 17 18  1  0
 18 19  2  0
 19 20  1  0
 20 21  2  0
 21 22  1  0
 22 23  1  0
 23 24  2  0
 24 25  1  0
 25 26  2  0
 26 27  1  0
 27 28  2  0
 13 29  1  0
 29 30  2  0
 30 10  1  0
 28 15  1  0
 21 16  1  0
 28 23  1  0
  1 31  1  0
  1 32  1  0
  1 33  1  0
  2 34  1  0
  2 35  1  0
  4 36  1  0
  4 37  1  0
  5 38  1  0
  5 39  1  0
  7 40  1  0
  7 41  1  0
  8 42  1  0
  8 43  1  0
 11 44  1  0
 12 45  1  0
 17 46  1  0
 18 47  1  0
 19 48  1  0
 20 49  1  0
 24 50  1  0
 25 51  1  0
 26 52  1  0
 27 53  1  0
 29 54  1  0
 30 55  1  0
M  CHG  1  22  -1
M  END
>  <UniqueID>  (2) 
2

>  <SMILES>  (2) 
CCN(CCCl)CCOc1ccc(N=c2c3ccccc3[n-]c3ccccc23)cc1

>  <Energy>  (2) 
89.71156521983767

>  <Genealogy>  (2) 
CCN(CCCl)CCOc1ccc(N=c2c3ccccc3[n-]c3ccccc23)cc1 (protonated)
CCN(CCCl)CCOc1ccc(N=c2c3ccccc3[n-]c3ccccc23)cc1 (3D coordinates assigned)
CCN(CCCl)CCOc1ccc(N=c2c3ccccc3[n-]c3ccccc23)cc1 (optimized conformer: 89.71156521983767 kcal/mol)

>  <smiles>  (2) 
CCN(CCCl)CCOc1ccc(N=c2c3ccccc3[nH]c3ccccc23)cc1

>  <score_type>  (2) 
oracle

>  <origin>  (2) 
adg

>  <m_score__min__energy>  (2) 
-9.4100000000000001

>  <m_primary>  (2) 
energy

$$$$
2:0
     RDKit          3D

 31 32  0  0  0  0  0  0  0  0999 V2000
   57.3520   25.1670   43.5500 C   0  0  0  0  0  0  0  0  0  0  0  0
   57.6660   26.5970   43.7220 N   0  0  0  0  0  0  0  0  0  0  0  0
   58.5090   27.0870   42.6160 C   0  0  0  0  0  0  0  0  0  0  0  0
   58.2300   26.9130   45.0590 C   0  0  0  0  0  0  0  0  0  0  0  0
   57.2730   27.6440   46.0280 C   0  0  0  0  0  0  0  0  0  0  0  0
   56.3100   28.4730   45.3130 N   0  0  0  0  0  0  0  0  0  0  0  0
   56.6710   29.4600   44.3410 C   0  0  0  0  0  0  0  0  0  0  0  0
   56.4790   29.2440   43.1150 O   0  0  0  0  0  0  0  0  0  0  0  0
   57.2690   30.7280   44.7800 C   0  0  0  0  0  0  0  0  0  0  0  0
   57.3750   31.8830   43.9890 C   0  0  0  0  0  0  0  0  0  0  0  0
   57.9800   32.7820   44.8290 C   0  0  0  0  0  0  0  0  0  0  0  0
   58.5100   34.3680   44.8310 S   0  0  0  0  0  0  0  0  0  0  0  0
   59.0560   34.2730   46.4520 C   0  0  0  0  0  0  0  0  0  0  0  0
   58.8130   32.9930   46.9730 C   0  0  0  0  0  0  0  0  0  0  0  0
   58.2050   32.1980   46.0100 C   0  0  0  0  0  0  0  0  0  0  0  0
   57.7810   30.9280   46.0260 N   0  0  0  0  0  0  0  0  0  0  0  0
   57.2479   24.6931   44.5372 H   0  0  0  0  0  0  0  0  0  0  0  0
   56.4096   25.0630   42.9922 H   0  0  0  0  0  0  0  0  0  0  0  0
   58.1641   24.6778   42.9922 H   0  0  0  0  0  0  0  0  0  0  0  0
   56.7560   27.1140   43.6580 H   0  0  0  0  0  0  0  0  0  0  0  0
   59.3912   27.5998   43.0268 H   0  0  0  0  0  0  0  0  0  0  0  0
   58.8337   26.2369   41.9980 H   0  0  0  0  0  0  0  0  0  0  0  0
   57.9310   27.7899   41.9980 H   0  0  0  0  0  0  0  0  0  0  0  0
   58.5333   25.9670   45.5313 H   0  0  0  0  0  0  0  0  0  0  0  0
   59.0652   27.6058   44.8788 H   0  0  0  0  0  0  0  0  0  0  0  0
   56.7275   26.8959   46.6220 H   0  0  0  0  0  0  0  0  0  0  0  0
   57.8751   28.2989   46.6750 H   0  0  0  0  0  0  0  0  0  0  0  0
   57.0513   32.0308   42.9481 H   0  0  0  0  0  0  0  0  0  0  0  0
   59.5294   35.0975   47.0053 H   0  0  0  0  0  0  0  0  0  0  0  0
   59.0664   32.6675   47.9927 H   0  0  0  0  0  0  0  0  0  0  0  0
   57.8300   30.2510   46.8200 H   0  0  0  0  0  0  0  0  0  0  0  0
  1  2  1  0
  2  3  1  0
  2  4  1  0
  4  5  1  0
  5  6  1  0
  6  7  1  0
  7  8  2  0
  7  9  1  0
  9 10  2  0
 10 11  1  0
 11 12  1  0
 12 13  1  0
 13 14  2  0
 14 15  1  0
 15 16  1  0
 16  9  1  0
 15 11  2  0
  1 17  1  0
  1 18  1  0
  1 19  1  0
  2 20  1  0
  3 21  1  0
  3 22  1  0
  3 23  1  0
  4 24  1  0
  4 25  1  0
  5 26  1  0
  5 27  1  0
 10 28  1  0
 13 29  1  0
 14 30  1  0
 16 31  1  0
M  CHG  2   2   1   6  -1
M  END
>  <UniqueID>  (3) 
3

>  <SMILES>  (3) 
C[NH+](C)CC[N-]C(=O)c1cc2sccc2[nH]1

>  <Energy>  (3) 
103.97784017913962

>  <Genealogy>  (3) 
C[NH+](C)CC[N-]C(=O)c1cc2sccc2[nH]1 (protonated)
C[NH+](C)CC[N-]C(=O)c1cc2sccc2[nH]1 (3D coordinates assigned)
C[NH+](C)CC[N-]C(=O)c1cc2sccc2[nH]1 (optimized conformer: 103.97784017913962 kcal/mol)

>  <smiles>  (3) 
CN(C)CCNC(=O)c1cc2sccc2[nH]1

>  <score_type>  (3) 
oracle

>  <origin>  (3) 
adg

>  <m_score__min__energy>  (3) 
-5.5199999999999996

>  <m_primary>  (3) 
energy

$$$$
3:0
     RDKit          3D

 30 31  0  0  0  0  0  0  0  0999 V2000
   58.4470   27.1000   43.0060 C   0  0  0  0  0  0  0  0  0  0  0  0
   57.7700   26.4520   44.1830 C   0  0  0  0  0  0  0  0  0  0  0  0
   57.5970   25.0570   44.1970 C   0  0  0  0  0  0  0  0  0  0  0  0
   56.9710   24.4310   45.2760 C   0  0  0  0  0  0  0  0  0  0  0  0
   56.5010   25.1900   46.3480 C   0  0  0  0  0  0  0  0  0  0  0  0
   56.6560   26.5770   46.3450 C   0  0  0  0  0  0  0  0  0  0  0  0
   57.2970   27.2240   45.2720 C   0  0  0  0  0  0  0  0  0  0  0  0
   57.4160   28.6590   45.2610 N   0  0  0  0  0  0  0  0  0  0  0  0
   56.3560   29.5360   44.8480 C   0  0  0  0  0  0  0  0  0  0  0  0
   55.1650   29.1250   44.8300 O   0  0  0  0  0  0  0  0  0  0  0  0
   56.6170   30.9110   44.5440 N   0  0  0  0  0  0  0  0  0  0  0  0
   57.4720   31.7890   45.2900 C   0  0  0  0  0  0  0  0  0  0  0  0
   58.3230   31.2430   46.2600 C   0  0  0  0  0  0  0  0  0  0  0  0
   59.1500   32.0730   47.0230 C   0  0  0  0  0  0  0  0  0  0  0  0
   59.1210   33.4590   46.8320 C   0  0  0  0  0  0  0  0  0  0  0  0
   60.2490   34.5920   47.8750 Br  0  0  0  0  0  0  0  0  0  0  0  0
   58.2550   34.0140   45.8840 C   0  0  0  0  0  0  0  0  0  0  0  0
   57.4270   33.1860   45.1210 C   0  0  0  0  0  0  0  0  0  0  0  0
   59.1981   27.8189   43.3651 H   0  0  0  0  0  0  0  0  0  0  0  0
   58.9400   26.3286   42.3962 H   0  0  0  0  0  0  0  0  0  0  0  0
   57.6979   27.6263   42.3962 H   0  0  0  0  0  0  0  0  0  0  0  0
   57.9579   24.4540   43.3508 H   0  0  0  0  0  0  0  0  0  0  0  0
   56.8481   23.3379   45.2811 H   0  0  0  0  0  0  0  0  0  0  0  0
   56.0074   24.6945   47.1970 H   0  0  0  0  0  0  0  0  0  0  0  0
   56.2737   27.1699   47.1890 H   0  0  0  0  0  0  0  0  0  0  0  0
   58.2910   29.0950   45.6280 H   0  0  0  0  0  0  0  0  0  0  0  0
   58.3406   30.1552   46.4222 H   0  0  0  0  0  0  0  0  0  0  0  0
   59.8242   31.6360   47.7743 H   0  0  0  0  0  0  0  0  0  0  0  0
   58.2256   35.1040   45.7388 H   0  0  0  0  0  0  0  0  0  0  0  0
   56.7378   33.6273   44.3859 H   0  0  0  0  0  0  0  0  0  0  0  0
  1  2  1  0
  2  3  2  0
  3  4  1  0
  4  5  2  0
  5  6  1  0
  6  7  2  0
  7  8  1  0
  8  9  1  0
  9 10  2  0
  9 11  1  0
 11 12  1  0
 12 13  2  0
 13 14  1  0
 14 15  2  0
 15 16  1  0
 15 17  1  0
 17 18  2  0
  7  2  1  0
 18 12  1  0
  1 19  1  0
  1 20  1  0
  1 21  1  0
  3 22  1  0
  4 23  1  0
  5 24  1  0
  6 25  1  0
  8 26  1  0
 13 27  1  0
 14 28  1  0
 17 29  1  0
 18 30  1  0
M  CHG  1  11  -1
M  END
>  <UniqueID>  (4) 
4

>  <SMILES>  (4) 
Cc1ccccc1NC(=O)[N-]c1ccc(Br)cc1

>  <Energy>  (4) 
37.926793232639895

>  <Genealogy>  (4) 
Cc1ccccc1NC(=O)[N-]c1ccc(Br)cc1 (protonated)
Cc1ccccc1NC(=O)[N-]c1ccc(Br)cc1 (3D coordinates assigned)
Cc1ccccc1NC(=O)[N-]c1ccc(Br)cc1 (optimized conformer: 37.926793232639895 kcal/mol)

>  <smiles>  (4) 
Cc1ccccc1NC(=O)Nc1ccc(Br)cc1

>  <score_type>  (4) 
oracle

>  <origin>  (4) 
adg

>  <m_score__min__energy>  (4) 
-8.7100000000000009

>  <m_primary>  (4) 
energy

$$$$
4:0
     RDKit          3D

 50 54  0  0  0  0  0  0  0  0999 V2000
   60.8220   30.5170   46.6590 C   0  0  0  0  0  0  0  0  0  0  0  0
   59.4310   30.2410   46.2430 N   0  0  0  0  0  0  0  0  0  0  0  0
   58.6480   31.2410   45.7010 C   0  0  0  0  0  0  0  0  0  0  0  0
   59.1260   32.6750   45.5850 C   0  0  0  0  0  0  0  0  0  0  0  0
   59.6000   33.1830   46.8750 N   0  0  0  0  0  0  0  0  0  0  0  0
   58.9070   33.2430   48.0400 C   0  0  0  0  0  0  0  0  0  0  0  0
   57.6850   32.9510   48.1360 O   0  0  0  0  0  0  0  0  0  0  0  0
   59.6730   33.6150   49.0970 N   0  0  0  0  0  0  0  0  0  0  0  0
   59.2870   33.6290   50.5100 C   0  0  0  0  0  0  0  0  0  0  0  0
   58.7870   32.2690   50.9220 C   0  0  0  0  0  0  0  0  0  0  0  0
   59.3870   31.1030   50.4180 C   0  0  0  0  0  0  0  0  0  0  0  0
   58.8900   29.8450   50.7710 C   0  0  0  0  0  0  0  0  0  0  0  0
   57.7890   29.7410   51.6270 C   0  0  0  0  0  0  0  0  0  0  0  0
   57.1860   30.8960   52.1310 C   0  0  0  0  0  0  0  0  0  0  0  0
   57.6800   32.1560   51.7810 C   0  0  0  0  0  0  0  0  0  0  0  0
   60.9060   33.7680   48.5700 C   0  0  0  0  0  0  0  0  0  0  0  0
   62.1030   34.0830   49.2170 C   0  0  0  0  0  0  0  0  0  0  0  0
   63.2760   34.1200   48.4420 C   0  0  0  0  0  0  0  0  0  0  0  0
   63.2320   33.8350   47.0590 C   0  0  0  0  0  0  0  0  0  0  0  0
   62.0120   33.5160   46.4350 C   0  0  0  0  0  0  0  0  0  0  0  0
   60.8620   33.5030   47.2260 C   0  0  0  0  0  0  0  0  0  0  0  0
   57.4070   30.9480   45.2290 N   0  0  0  0  0  0  0  0  0  0  0  0
   56.8720   29.7130   45.3110 C   0  0  0  0  0  0  0  0  0  0  0  0
   55.7180   29.5110   44.8430 O   0  0  0  0  0  0  0  0  0  0  0  0
   57.5930   28.6870   45.9270 C   0  0  0  0  0  0  0  0  0  0  0  0
   57.0500   27.3970   46.0710 C   0  0  0  0  0  0  0  0  0  0  0  0
   57.7740   26.3960   46.7150 C   0  0  0  0  0  0  0  0  0  0  0  0
   59.0400   26.6700   47.2260 C   0  0  0  0  0  0  0  0  0  0  0  0
   59.5970   27.9420   47.0850 C   0  0  0  0  0  0  0  0  0  0  0  0
   58.8940   28.9770   46.4160 C   0  0  0  0  0  0  0  0  0  0  0  0
   60.8808   30.5287   47.7574 H   0  0  0  0  0  0  0  0  0  0  0  0
   61.4851   29.7329   46.2646 H   0  0  0  0  0  0  0  0  0  0  0  0
   61.1355   31.4949   46.2646 H   0  0  0  0  0  0  0  0  0  0  0  0
   59.9495   32.7207   44.8572 H   0  0  0  0  0  0  0  0  0  0  0  0
   58.2811   33.2975   45.2554 H   0  0  0  0  0  0  0  0  0  0  0  0
   60.1599   33.8972   51.1233 H   0  0  0  0  0  0  0  0  0  0  0  0
   58.4856   34.3679   50.6576 H   0  0  0  0  0  0  0  0  0  0  0  0
   60.2518   31.1803   49.7426 H   0  0  0  0  0  0  0  0  0  0  0  0
   59.3656   28.9356   50.3749 H   0  0  0  0  0  0  0  0  0  0  0  0
   57.3981   28.7506   51.9032 H   0  0  0  0  0  0  0  0  0  0  0  0
   56.3205   30.8138   52.8048 H   0  0  0  0  0  0  0  0  0  0  0  0
   57.2007   33.0625   52.1792 H   0  0  0  0  0  0  0  0  0  0  0  0
   62.1275   34.2950   50.2961 H   0  0  0  0  0  0  0  0  0  0  0  0
   64.2356   34.3729   48.9166 H   0  0  0  0  0  0  0  0  0  0  0  0
   64.1580   33.8627   46.4659 H   0  0  0  0  0  0  0  0  0  0  0  0
   61.9660   33.2848   45.3606 H   0  0  0  0  0  0  0  0  0  0  0  0
   56.0483   27.1776   45.6729 H   0  0  0  0  0  0  0  0  0  0  0  0
   57.3452   25.3884   46.8199 H   0  0  0  0  0  0  0  0  0  0  0  0
   59.6040   25.8800   47.7434 H   0  0  0  0  0  0  0  0  0  0  0  0
   60.5958   28.1450   47.4987 H   0  0  0  0  0  0  0  0  0  0  0  0
  1  2  1  0
  2  3  1  0
  3  4  1  0
  4  5  1  0
  5  6  1  0
  6  7  2  0
  6  8  1  0
  8  9  1  0
  9 10  1  0
 10 11  2  0
 11 12  1  0
 12 13  2  0
 13 14  1  0
 14 15  2  0
  8 16  1  0
 16 17  2  0
 17 18  1  0
 18 19  2  0
 19 20  1  0
 20 21  2  0
  3 22  2  0
 22 23  1  0
 23 24  2  0
 23 25  1  0
 25 26  2  0
 26 27  1  0
 27 28  2  0
 28 29  1  0
 29 30  2  0
 30  2  1  0
 21  5  1  0
 30 25  1  0
 15 10  1  0
 21 16  1  0
  1 31  1  0
  1 32  1  0
  1 33  1  0
  4 34  1  0
  4 35  1  0
  9 36  1  0
  9 37  1  0
 11 38  1  0
 12 39  1  0
 13 40  1  0
 14 41  1  0
 15 42  1  0
 17 43  1  0
 18 44  1  0
 19 45  1  0
 20 46  1  0
 26 47  1  0
 27 48  1  0
 28 49  1  0
 29 50  1  0
M  END
>  <UniqueID>  (5) 
5

>  <SMILES>  (5) 
Cn1c(Cn2c(=O)n(Cc3ccccc3)c3ccccc32)nc(=O)c2ccccc21

>  <Energy>  (5) 
108.58948526227924

>  <Genealogy>  (5) 
Cn1c(Cn2c(=O)n(Cc3ccccc3)c3ccccc32)nc(=O)c2ccccc21 (3D coordinates assigned)
Cn1c(Cn2c(=O)n(Cc3ccccc3)c3ccccc32)nc(=O)c2ccccc21 (optimized conformer: 108.58948526227924 kcal/mol)

>  <smiles>  (5) 
Cn1c(Cn2c(=O)n(Cc3ccccc3)c3ccccc32)nc(=O)c2ccccc21

>  <score_type>  (5) 
oracle

>  <origin>  (5) 
adg

>  <m_score__min__energy>  (5) 
-8.9600000000000009

>  <m_primary>  (5) 
energy

$$$$
5:0
     RDKit          3D

 25 26  0  0  0  0  0  0  0  0999 V2000
   58.1300   27.0830   42.8520 C   0  0  0  0  0  0  0  0  0  0  0  0
   58.6620   27.3580   44.2530 C   0  0  0  0  0  0  0  0  0  0  0  0
   57.3400   27.9750   45.3530 S   0  0  0  0  0  0  0  0  0  0  0  0
   58.0850   29.5900   45.6220 C   0  0  0  0  0  0  0  0  0  0  0  0
   59.2650   29.6740   46.2490 C   0  0  0  0  0  0  0  0  0  0  0  0
   59.9140   30.9760   46.4840 C   0  0  0  0  0  0  0  0  0  0  0  0
   61.0210   31.0150   47.0850 O   0  0  0  0  0  0  0  0  0  0  0  0
   59.2640   32.2200   46.0140 C   0  0  0  0  0  0  0  0  0  0  0  0
   59.8570   33.4770   46.2260 C   0  0  0  0  0  0  0  0  0  0  0  0
   59.2260   34.6380   45.7730 C   0  0  0  0  0  0  0  0  0  0  0  0
   58.0020   34.5570   45.1060 C   0  0  0  0  0  0  0  0  0  0  0  0
   57.4030   33.3130   44.8890 C   0  0  0  0  0  0  0  0  0  0  0  0
   58.0270   32.1370   45.3390 C   0  0  0  0  0  0  0  0  0  0  0  0
   57.4090   30.8080   45.1200 C   0  0  0  0  0  0  0  0  0  0  0  0
   56.3100   30.7080   44.5120 O   0  0  0  0  0  0  0  0  0  0  0  0
   57.1548   26.5789   42.9225 H   0  0  0  0  0  0  0  0  0  0  0  0
   58.0131   28.0336   42.3110 H   0  0  0  0  0  0  0  0  0  0  0  0
   58.8380   26.4379   42.3110 H   0  0  0  0  0  0  0  0  0  0  0  0
   59.0706   26.4261   44.6709 H   0  0  0  0  0  0  0  0  0  0  0  0
   59.4445   28.1279   44.1833 H   0  0  0  0  0  0  0  0  0  0  0  0
   59.7591   28.7542   46.5951 H   0  0  0  0  0  0  0  0  0  0  0  0
   60.8214   33.5465   46.7505 H   0  0  0  0  0  0  0  0  0  0  0  0
   59.6946   35.6187   45.9422 H   0  0  0  0  0  0  0  0  0  0  0  0
   57.5084   35.4736   44.7508 H   0  0  0  0  0  0  0  0  0  0  0  0
   56.4385   33.2542   44.3634 H   0  0  0  0  0  0  0  0  0  0  0  0
  1  2  1  0
  2  3  1  0
  3  4  1  0
  4  5  2  0
  5  6  1  0
  6  7  2  0
  6  8  1  0
  8  9  2  0
  9 10  1  0
 10 11  2  0
 11 12  1  0
 12 13  2  0
 13 14  1  0
 14 15  2  0
 14  4  1  0
 13  8  1  0
  1 16  1  0
  1 17  1  0
  1 18  1  0
  2 19  1  0
  2 20  1  0
  5 21  1  0
  9 22  1  0
 10 23  1  0
 11 24  1  0
 12 25  1  0
M  END
>  <UniqueID>  (6) 
6

>  <SMILES>  (6) 
CCSC1=CC(=O)c2ccccc2C1=O

>  <Energy>  (6) 
20.41146151051059

>  <Genealogy>  (6) 
CCSC1=CC(=O)c2ccccc2C1=O (3D coordinates assigned)
CCSC1=CC(=O)c2ccccc2C1=O (nonaromatic ring conformer: 20.41146151051059 kcal/mol)

>  <smiles>  (6) 
CCSC1=CC(=O)c2ccccc2C1=O

>  <score_type>  (6) 
oracle

>  <origin>  (6) 
adg

>  <m_score__min__energy>  (6) 
-6.5300000000000002

>  <m_primary>  (6) 
energy

$$$$
6:0
     RDKit          3D

 27 28  0  0  0  0  0  0  0  0999 V2000
   57.7570   32.3500   41.5810 C   0  0  0  0  0  0  0  0  0  0  0  0
   58.1670   31.8300   42.8410 O   0  0  0  0  0  0  0  0  0  0  0  0
   58.2060   32.5680   44.0340 C   0  0  0  0  0  0  0  0  0  0  0  0
   58.8420   33.8230   44.1110 C   0  0  0  0  0  0  0  0  0  0  0  0
   58.8190   34.5550   45.3000 C   0  0  0  0  0  0  0  0  0  0  0  0
   58.1590   34.0510   46.4210 C   0  0  0  0  0  0  0  0  0  0  0  0
   57.5320   32.8050   46.3600 C   0  0  0  0  0  0  0  0  0  0  0  0
   57.5700   32.0480   45.1840 C   0  0  0  0  0  0  0  0  0  0  0  0
   56.9300   30.8010   45.1750 O   0  0  0  0  0  0  0  0  0  0  0  0
   57.5830   29.5650   45.0570 C   0  0  0  0  0  0  0  0  0  0  0  0
   57.7690   28.7890   46.2070 C   0  0  0  0  0  0  0  0  0  0  0  0
   58.4180   27.5580   46.1070 C   0  0  0  0  0  0  0  0  0  0  0  0
   58.8850   27.1190   44.8680 C   0  0  0  0  0  0  0  0  0  0  0  0
   58.7000   27.9240   43.7430 C   0  0  0  0  0  0  0  0  0  0  0  0
   58.0650   29.1240   43.8570 N   0  0  0  0  0  0  0  0  0  0  0  0
   57.0830   33.2048   41.7389 H   0  0  0  0  0  0  0  0  0  0  0  0
   58.6409   32.6796   41.0152 H   0  0  0  0  0  0  0  0  0  0  0  0
   57.2303   31.5674   41.0152 H   0  0  0  0  0  0  0  0  0  0  0  0
   59.3597   34.2286   43.2292 H   0  0  0  0  0  0  0  0  0  0  0  0
   59.3226   35.5315   45.3528 H   0  0  0  0  0  0  0  0  0  0  0  0
   58.1326   34.6351   47.3527 H   0  0  0  0  0  0  0  0  0  0  0  0
   57.0042   32.4156   47.2431 H   0  0  0  0  0  0  0  0  0  0  0  0
   57.4064   29.1469   47.1819 H   0  0  0  0  0  0  0  0  0  0  0  0
   58.5610   26.9355   47.0025 H   0  0  0  0  0  0  0  0  0  0  0  0
   59.3940   26.1480   44.7785 H   0  0  0  0  0  0  0  0  0  0  0  0
   59.0677   27.5888   42.7620 H   0  0  0  0  0  0  0  0  0  0  0  0
   57.9680   29.7140   43.0000 H   0  0  0  0  0  0  0  0  0  0  0  0
  1  2  1  0
  2  3  1  0
  3  4  2  0
  4  5  1  0
  5  6  2  0
  6  7  1  0
  7  8  2  0
  8  9  1  0
  9 10  1  0
 10 11  2  0
 11 12  1  0
 12 13  2  0
 13 14  1  0
 14 15  2  0
  8  3  1  0
 15 10  1  0
  1 16  1  0
  1 17  1  0
  1 18  1  0
  4 19  1  0
  5 20  1  0
  6 21  1  0
  7 22  1  0
 11 23  1  0
 12 24  1  0
 13 25  1  0
 14 26  1  0
 15 27  1  0
M  CHG  1  15   1
M  END
>  <UniqueID>  (7) 
7

>  <SMILES>  (7) 
COc1ccccc1Oc1cccc[nH+]1

>  <Energy>  (7) 
33.813265970109256

>  <Genealogy>  (7) 
COc1ccccc1Oc1cccc[nH+]1 (protonated)
COc1ccccc1Oc1cccc[nH+]1 (3D coordinates assigned)
COc1ccccc1Oc1cccc[nH+]1 (optimized conformer: 33.813265970109256 kcal/mol)

>  <smiles>  (7) 
COc1ccccc1Oc1ccccn1

>  <score_type>  (7) 
oracle

>  <origin>  (7) 
adg

>  <m_score__min__energy>  (7) 
-3.8700000000000001

>  <m_primary>  (7) 
energy

$$$$
7:0
     RDKit          3D

 49 51  0  0  0  0  0  0  0  0999 V2000
   61.1430   33.7160   47.2670 C   0  0  0  0  0  0  0  0  0  0  0  0
   60.5540   34.6050   46.1740 C   0  0  0  0  0  0  0  0  0  0  0  0
   59.0800   34.6700   46.2990 N   0  0  0  0  0  0  0  0  0  0  0  0
   58.5650   33.8530   47.4340 C   0  0  0  0  0  0  0  0  0  0  0  0
   57.7580   32.6080   47.0120 C   0  0  0  0  0  0  0  0  0  0  0  0
   58.2910   32.0410   45.7730 N   0  0  0  0  0  0  0  0  0  0  0  0
   58.2800   30.6210   45.5840 C   0  0  0  0  0  0  0  0  0  0  0  0
   59.2670   29.8380   46.1960 C   0  0  0  0  0  0  0  0  0  0  0  0
   59.2740   28.4520   46.0280 C   0  0  0  0  0  0  0  0  0  0  0  0
   58.2860   27.8250   45.2580 C   0  0  0  0  0  0  0  0  0  0  0  0
   58.3250   26.3970   45.0880 N   0  0  0  0  0  0  0  0  0  0  0  0
   57.1660   25.5520   45.1710 C   0  0  0  0  0  0  0  0  0  0  0  0
   56.1440   25.9520   45.7940 O   0  0  0  0  0  0  0  0  0  0  0  0
   57.1710   24.1920   44.5780 C   0  0  0  0  0  0  0  0  0  0  0  0
   56.2700   23.8650   43.5460 C   0  0  0  0  0  0  0  0  0  0  0  0
   56.2750   22.5860   42.9800 C   0  0  0  0  0  0  0  0  0  0  0  0
   57.1800   21.6240   43.4300 C   0  0  0  0  0  0  0  0  0  0  0  0
   58.0860   21.9380   44.4450 C   0  0  0  0  0  0  0  0  0  0  0  0
   58.0860   23.2160   45.0160 C   0  0  0  0  0  0  0  0  0  0  0  0
   57.3080   28.6110   44.6230 C   0  0  0  0  0  0  0  0  0  0  0  0
   57.2980   30.0070   44.7790 C   0  0  0  0  0  0  0  0  0  0  0  0
   56.2310   30.8310   44.1120 C   0  0  0  0  0  0  0  0  0  0  0  0
   58.5500   32.9090   44.6230 C   0  0  0  0  0  0  0  0  0  0  0  0
   58.4030   34.3850   45.0170 C   0  0  0  0  0  0  0  0  0  0  0  0
   60.8744   34.1214   48.2537 H   0  0  0  0  0  0  0  0  0  0  0  0
   60.7407   32.6971   47.1673 H   0  0  0  0  0  0  0  0  0  0  0  0
   62.2381   33.6892   47.1673 H   0  0  0  0  0  0  0  0  0  0  0  0
   60.9706   35.6187   46.2678 H   0  0  0  0  0  0  0  0  0  0  0  0
   60.8101   34.1800   45.1923 H   0  0  0  0  0  0  0  0  0  0  0  0
   59.4241   33.5184   48.0340 H   0  0  0  0  0  0  0  0  0  0  0  0
   57.8734   34.4984   47.9953 H   0  0  0  0  0  0  0  0  0  0  0  0
   57.8167   31.8524   47.8093 H   0  0  0  0  0  0  0  0  0  0  0  0
   56.7123   32.9050   46.8435 H   0  0  0  0  0  0  0  0  0  0  0  0
   60.0412   30.3179   46.8127 H   0  0  0  0  0  0  0  0  0  0  0  0
   60.0609   27.8482   46.5036 H   0  0  0  0  0  0  0  0  0  0  0  0
   59.2630   25.9400   45.0160 H   0  0  0  0  0  0  0  0  0  0  0  0
   55.5577   24.6205   43.1828 H   0  0  0  0  0  0  0  0  0  0  0  0
   55.5639   22.3379   42.1783 H   0  0  0  0  0  0  0  0  0  0  0  0
   57.1797   20.6180   42.9850 H   0  0  0  0  0  0  0  0  0  0  0  0
   58.8011   21.1796   44.7965 H   0  0  0  0  0  0  0  0  0  0  0  0
   58.8054   23.4591   45.8118 H   0  0  0  0  0  0  0  0  0  0  0  0
   56.5429   28.1277   43.9977 H   0  0  0  0  0  0  0  0  0  0  0  0
   55.6069   31.3130   44.8789 H   0  0  0  0  0  0  0  0  0  0  0  0
   56.7018   31.6022   43.4846 H   0  0  0  0  0  0  0  0  0  0  0  0
   55.6039   30.1805   43.4846 H   0  0  0  0  0  0  0  0  0  0  0  0
   59.5730   32.7319   44.2594 H   0  0  0  0  0  0  0  0  0  0  0  0
   57.8203   32.6783   43.8328 H   0  0  0  0  0  0  0  0  0  0  0  0
   58.8480   35.0117   44.2301 H   0  0  0  0  0  0  0  0  0  0  0  0
   57.3321   34.6075   45.1337 H   0  0  0  0  0  0  0  0  0  0  0  0
  1  2  1  0
  2  3  1  0
  3  4  1  0
  4  5  1  0
  5  6  1  0
  6  7  1  0
  7  8  2  0
  8  9  1  0
  9 10  2  0
 10 11  1  0
 11 12  1  0
 12 13  2  0
 12 14  1  0
 14 15  2  0
 15 16  1  0
 16 17  2  0
 17 18  1  0
 18 19  2  0
 10 20  1  0
 20 21  2  0
 21 22  1  0
  6 23  1  0
 23 24  1  0
 24  3  1  0
 21  7  1  0
 19 14  1  0
  1 25  1  0
  1 26  1  0
  1 27  1  0
  2 28  1  0
  2 29  1  0
  4 30  1  0
  4 31  1  0
  5 32  1  0
  5 33  1  0
  8 34  1  0
  9 35  1  0
 11 36  1  0
 15 37  1  0
 16 38  1  0
 17 39  1  0
 18 40  1  0
 19 41  1  0
 20 42  1  0
 22 43  1  0
 22 44  1  0
 22 45  1  0
 23 46  1  0
 23 47  1  0
 24 48  1  0
 24 49  1  0
M  END
>  <UniqueID>  (8) 
8

>  <SMILES>  (8) 
CCN1CCN(c2ccc(NC(=O)c3ccccc3)cc2C)CC1

>  <Energy>  (8) 
66.18161977986622

>  <Genealogy>  (8) 
CCN1CCN(c2ccc(NC(=O)c3ccccc3)cc2C)CC1 (3D coordinates assigned)
CCN1CCN(c2ccc(NC(=O)c3ccccc3)cc2C)CC1 (nonaromatic ring conformer: 66.18161977986622 kcal/mol)

>  <smiles>  (8) 
CCN1CCN(c2ccc(NC(=O)c3ccccc3)cc2C)CC1

>  <score_type>  (8) 
oracle

>  <origin>  (8) 
adg

>  <m_score__min__energy>  (8) 
-7.8399999999999999

>  <m_primary>  (8) 
energy

$$$$
8:0
     RDKit          3D

 42 44  0  0  0  0  0  0  0  0999 V2000
   57.7730   27.7890   43.1240 C   0  0  0  0  0  0  0  0  0  0  0  0
   56.9180   29.0470   42.9920 C   0  0  0  0  0  0  0  0  0  0  0  0
   56.6420   29.6750   44.3290 C   0  0  0  0  0  0  0  0  0  0  0  0
   55.5260   29.4740   44.8810 O   0  0  0  0  0  0  0  0  0  0  0  0
   57.6350   30.4840   44.9920 N   0  0  0  0  0  0  0  0  0  0  0  0
   57.7510   31.8940   44.5660 C   0  0  0  0  0  0  0  0  0  0  0  0
   58.4890   32.7620   45.5570 C   0  0  0  0  0  0  0  0  0  0  0  0
   58.3060   34.1550   45.5300 C   0  0  0  0  0  0  0  0  0  0  0  0
   59.0360   34.9760   46.3990 C   0  0  0  0  0  0  0  0  0  0  0  0
   59.9720   34.4160   47.2730 C   0  0  0  0  0  0  0  0  0  0  0  0
   60.1670   33.0330   47.2980 C   0  0  0  0  0  0  0  0  0  0  0  0
   59.4140   32.2000   46.4540 C   0  0  0  0  0  0  0  0  0  0  0  0
   59.6270   30.7190   46.4580 C   0  0  0  0  0  0  0  0  0  0  0  0
   58.2940   29.9920   46.2220 C   0  0  2  0  0  0  0  0  0  0  0  0
   58.5560   28.5070   46.1620 C   0  0  0  0  0  0  0  0  0  0  0  0
   59.7880   27.8910   45.9450 C   0  0  0  0  0  0  0  0  0  0  0  0
   59.7460   26.5330   45.9780 N   0  0  0  0  0  0  0  0  0  0  0  0
   58.5060   26.0550   46.2310 C   0  0  0  0  0  0  0  0  0  0  0  0
   58.1560   24.5990   46.2480 C   0  0  0  0  0  0  0  0  0  0  0  0
   57.6390   24.1580   44.8860 C   0  0  0  0  0  0  0  0  0  0  0  0
   57.3950   27.3100   46.4070 S   0  0  0  0  0  0  0  0  0  0  0  0
   57.9279   27.5610   44.1889 H   0  0  0  0  0  0  0  0  0  0  0  0
   57.2607   26.9449   42.6391 H   0  0  0  0  0  0  0  0  0  0  0  0
   58.7464   27.9547   42.6391 H   0  0  0  0  0  0  0  0  0  0  0  0
   57.4488   29.7739   42.3596 H   0  0  0  0  0  0  0  0  0  0  0  0
   55.9556   28.7615   42.5423 H   0  0  0  0  0  0  0  0  0  0  0  0
   58.2889   31.9252   43.6070 H   0  0  0  0  0  0  0  0  0  0  0  0
   56.7292   32.2929   44.4833 H   0  0  0  0  0  0  0  0  0  0  0  0
   57.5886   34.6012   44.8256 H   0  0  0  0  0  0  0  0  0  0  0  0
   58.8723   36.0637   46.3936 H   0  0  0  0  0  0  0  0  0  0  0  0
   60.5559   35.0652   47.9421 H   0  0  0  0  0  0  0  0  0  0  0  0
   60.9113   32.5956   47.9796 H   0  0  0  0  0  0  0  0  0  0  0  0
   60.3337   30.4511   45.6588 H   0  0  0  0  0  0  0  0  0  0  0  0
   60.0334   30.4168   47.4345 H   0  0  0  0  0  0  0  0  0  0  0  0
   57.6038   30.1986   47.0532 H   0  0  0  0  0  0  0  0  0  0  0  0
   60.7143   28.4557   45.7628 H   0  0  0  0  0  0  0  0  0  0  0  0
   60.5800   25.9280   45.8150 H   0  0  0  0  0  0  0  0  0  0  0  0
   59.0526   24.0143   46.5013 H   0  0  0  0  0  0  0  0  0  0  0  0
   57.3690   24.4315   46.9981 H   0  0  0  0  0  0  0  0  0  0  0  0
   56.8084   23.4495   45.0209 H   0  0  0  0  0  0  0  0  0  0  0  0
   57.2846   25.0362   44.3264 H   0  0  0  0  0  0  0  0  0  0  0  0
   58.4503   23.6696   44.3264 H   0  0  0  0  0  0  0  0  0  0  0  0
  1  2  1  0
  2  3  1  0
  3  4  2  0
  3  5  1  0
  5  6  1  0
  6  7  1  0
  7  8  2  0
  8  9  1  0
  9 10  2  0
 10 11  1  0
 11 12  2  0
 12 13  1  0
 13 14  1  0
 14 15  1  0
 15 16  2  0
 16 17  1  0
 17 18  2  0
 18 19  1  0
 19 20  1  0
 18 21  1  0
 14  5  1  0
 21 15  1  0
 12  7  1  0
  1 22  1  0
  1 23  1  0
  1 24  1  0
  2 25  1  0
  2 26  1  0
  6 27  1  0
  6 28  1  0
  8 29  1  0
  9 30  1  0
 10 31  1  0
 11 32  1  0
 13 33  1  0
 13 34  1  0
 14 35  1  1
 16 36  1  0
 17 37  1  0
 19 38  1  0
 19 39  1  0
 20 40  1  0
 20 41  1  0
 20 42  1  0
M  CHG  1  17   1
M  END
>  <UniqueID>  (9) 
9

>  <SMILES>  (9) 
CCC(=O)N1Cc2ccccc2C[C@@H]1c1c[nH+]c(CC)s1

>  <Energy>  (9) 
70.40301008812943

>  <Genealogy>  (9) 
CCC(=O)N1Cc2ccccc2CC1c1c[nH+]c(CC)s1 (protonated)
CCC(=O)N1Cc2ccccc2C[C@@H]1c1c[nH+]c(CC)s1 (chirality)
CCC(=O)N1Cc2ccccc2C[C@@H]1c1c[nH+]c(CC)s1 (3D coordinates assigned)
CCC(=O)N1Cc2ccccc2C[C@@H]1c1c[nH+]c(CC)s1 (nonaromatic ring conformer: 70.40301008812943 kcal/mol)

>  <smiles>  (9) 
CCC(=O)N1Cc2ccccc2CC1c1cnc(CC)s1

>  <score_type>  (9) 
oracle

>  <origin>  (9) 
adg

>  <m_score__min__energy>  (9) 
-6.2300000000000004

>  <m_primary>  (9) 
energy

$$$$
9:0
     RDKit          3D

 74 78  0  0  0  0  0  0  0  0999 V2000
   58.2120   29.7330   50.9580 C   0  0  0  0  0  0  0  0  0  0  0  0
   59.2360   30.8030   50.5270 C   0  0  0  0  0  0  0  0  0  0  0  0
   58.5760   32.1870   50.5230 C   0  0  0  0  0  0  0  0  0  0  0  0
   59.9630   30.4770   49.1790 C   0  0  1  0  0  0  0  0  0  0  0  0
   61.0360   29.3360   49.3960 C   0  0  0  0  0  0  0  0  0  0  0  0
   60.6890   27.9990   48.7470 C   0  0  0  0  0  0  0  0  0  0  0  0
   60.0720   27.9560   47.5540 C   0  0  0  0  0  0  0  0  0  0  0  0
   59.8500   26.6960   46.8190 C   0  0  0  0  0  0  0  0  0  0  0  0
   60.8590   25.9970   46.5330 O   0  0  0  0  0  0  0  0  0  0  0  0
   58.5470   26.3030   46.3350 N   0  0  0  0  0  0  0  0  0  0  0  0
   58.5000   25.2920   45.2600 C   0  0  0  0  0  0  0  0  0  0  0  0
   57.0720   24.9650   44.8080 C   0  0  0  0  0  0  0  0  0  0  0  0
   56.1830   24.9660   45.9020 O   0  0  0  0  0  0  0  0  0  0  0  0
   56.0330   26.2940   46.3560 C   0  0  0  0  0  0  0  0  0  0  0  0
   57.3280   26.8100   46.9990 C   0  0  0  0  0  0  0  0  0  0  0  0
   59.7250   29.2780   46.9400 C   0  0  1  0  0  0  0  0  0  0  0  0
   58.8190   29.3300   45.6900 C   0  0  0  0  0  0  0  0  0  0  0  0
   58.2250   30.6810   45.8760 C   0  0  0  0  0  0  0  0  0  0  0  0
   58.3990   31.1560   47.1290 C   0  0  0  0  0  0  0  0  0  0  0  0
   58.3870   32.5390   47.0710 C   0  0  0  0  0  0  0  0  0  0  0  0
   58.1590   32.8300   45.7240 C   0  0  0  0  0  0  0  0  0  0  0  0
   57.9860   34.1890   45.1800 C   0  0  0  0  0  0  0  0  0  0  0  0
   56.8410   34.6120   44.8670 O   0  0  0  0  0  0  0  0  0  0  0  0
   59.1030   35.0850   45.1610 N   0  0  0  0  0  0  0  0  0  0  0  0
   59.9550   35.2270   46.3400 C   0  0  0  0  0  0  0  0  0  0  0  0
   61.1140   34.2180   46.2520 C   0  0  0  0  0  0  0  0  0  0  0  0
   61.0890   33.2870   47.4030 N   0  0  0  0  0  0  0  0  0  0  0  0
   61.4220   33.9510   48.6830 C   0  0  0  0  0  0  0  0  0  0  0  0
   62.9450   34.1740   48.8590 C   0  0  0  0  0  0  0  0  0  0  0  0
   63.6720   33.8000   47.7050 O   0  0  0  0  0  0  0  0  0  0  0  0
   63.4610   32.4290   47.4360 C   0  0  0  0  0  0  0  0  0  0  0  0
   61.9630   32.1110   47.1870 C   0  0  0  0  0  0  0  0  0  0  0  0
   58.1010   31.6850   44.9890 N   0  0  0  0  0  0  0  0  0  0  0  0
   57.9880   31.5430   43.5390 C   0  0  0  0  0  0  0  0  0  0  0  0
   58.9980   30.1170   48.0090 C   0  0  2  0  0  0  0  0  0  0  0  0
   58.1689   29.6880   52.0562 H   0  0  0  0  0  0  0  0  0  0  0  0
   57.2195   29.9949   50.5626 H   0  0  0  0  0  0  0  0  0  0  0  0
   58.5173   28.7530   50.5626 H   0  0  0  0  0  0  0  0  0  0  0  0
   60.0427   30.8021   51.2748 H   0  0  0  0  0  0  0  0  0  0  0  0
   58.4170   32.5204   51.5591 H   0  0  0  0  0  0  0  0  0  0  0  0
   59.2294   32.9033   50.0035 H   0  0  0  0  0  0  0  0  0  0  0  0
   57.6081   32.1301   50.0035 H   0  0  0  0  0  0  0  0  0  0  0  0
   60.4674   31.4046   48.8706 H   0  0  0  0  0  0  0  0  0  0  0  0
   61.9925   29.6817   48.9770 H   0  0  0  0  0  0  0  0  0  0  0  0
   61.0778   29.1524   50.4798 H   0  0  0  0  0  0  0  0  0  0  0  0
   60.9465   27.0612   49.2609 H   0  0  0  0  0  0  0  0  0  0  0  0
   59.0629   25.6733   44.3952 H   0  0  0  0  0  0  0  0  0  0  0  0
   58.9391   24.3659   45.6595 H   0  0  0  0  0  0  0  0  0  0  0  0
   56.7443   25.7193   44.0775 H   0  0  0  0  0  0  0  0  0  0  0  0
   57.0688   23.9627   44.3548 H   0  0  0  0  0  0  0  0  0  0  0  0
   55.7747   26.9381   45.5025 H   0  0  0  0  0  0  0  0  0  0  0  0
   55.2353   26.3155   47.1132 H   0  0  0  0  0  0  0  0  0  0  0  0
   57.3316   27.9087   46.9458 H   0  0  0  0  0  0  0  0  0  0  0  0
   57.3455   26.4478   48.0375 H   0  0  0  0  0  0  0  0  0  0  0  0
   60.7041   29.6384   46.5916 H   0  0  0  0  0  0  0  0  0  0  0  0
   59.4000   29.2615   44.7585 H   0  0  0  0  0  0  0  0  0  0  0  0
   58.0943   28.5072   45.6014 H   0  0  0  0  0  0  0  0  0  0  0  0
   58.5258   33.2492   47.8995 H   0  0  0  0  0  0  0  0  0  0  0  0
   60.3595   36.2491   46.3806 H   0  0  0  0  0  0  0  0  0  0  0  0
   59.3647   35.0332   47.2478 H   0  0  0  0  0  0  0  0  0  0  0  0
   61.0204   33.6416   45.3198 H   0  0  0  0  0  0  0  0  0  0  0  0
   62.0648   34.7710   46.2663 H   0  0  0  0  0  0  0  0  0  0  0  0
   60.9167   34.9276   48.7154 H   0  0  0  0  0  0  0  0  0  0  0  0
   61.0849   33.2931   49.4976 H   0  0  0  0  0  0  0  0  0  0  0  0
   63.1266   35.2395   49.0634 H   0  0  0  0  0  0  0  0  0  0  0  0
   63.2862   33.5449   49.6943 H   0  0  0  0  0  0  0  0  0  0  0  0
   64.0371   32.1495   46.5416 H   0  0  0  0  0  0  0  0  0  0  0  0
   63.7893   31.8551   48.3152 H   0  0  0  0  0  0  0  0  0  0  0  0
   61.8431   31.7686   46.1485 H   0  0  0  0  0  0  0  0  0  0  0  0
   61.6624   31.3351   47.9065 H   0  0  0  0  0  0  0  0  0  0  0  0
   57.3189   30.7022   43.3040 H   0  0  0  0  0  0  0  0  0  0  0  0
   57.5773   32.4692   43.1108 H   0  0  0  0  0  0  0  0  0  0  0  0
   58.9828   31.3507   43.1108 H   0  0  0  0  0  0  0  0  0  0  0  0
   58.2035   29.6724   48.6263 H   0  0  0  0  0  0  0  0  0  0  0  0
  1  2  1  0
  2  3  1  0
  2  4  1  0
  4  5  1  0
  5  6  1  0
  6  7  2  0
  7  8  1  0
  8  9  2  0
  8 10  1  0
 10 11  1  0
 11 12  1  0
 12 13  1  0
 13 14  1  0
 14 15  1  0
  7 16  1  0
 16 17  1  0
 17 18  1  0
 18 19  2  0
 19 20  1  0
 20 21  2  0
 21 22  1  0
 22 23  2  0
 22 24  1  0
 24 25  1  0
 25 26  1  0
 26 27  1  0
 27 28  1  0
 28 29  1  0
 29 30  1  0
 30 31  1  0
 31 32  1  0
 21 33  1  0
 33 34  1  0
 19 35  1  0
 35  4  1  0
 15 10  1  0
 35 16  1  0
 33 18  1  0
 32 27  1  0
  1 36  1  0
  1 37  1  0
  1 38  1  0
  2 39  1  0
  3 40  1  0
  3 41  1  0
  3 42  1  0
  4 43  1  6
  5 44  1  0
  5 45  1  0
  6 46  1  0
 11 47  1  0
 11 48  1  0
 12 49  1  0
 12 50  1  0
 14 51  1  0
 14 52  1  0
 15 53  1  0
 15 54  1  0
 16 55  1  6
 17 56  1  0
 17 57  1  0
 20 58  1  0
 25 59  1  0
 25 60  1  0
 26 61  1  0
 26 62  1  0
 28 63  1  0
 28 64  1  0
 29 65  1  0
 29 66  1  0
 31 67  1  0
 31 68  1  0
 32 69  1  0
 32 70  1  0
 34 71  1  0
 34 72  1  0
 34 73  1  0
 35 74  1  1
M  CHG  1  24  -1
M  END
>  <UniqueID>  (10) 
10

>  <SMILES>  (10) 
CC(C)[C@H]1CC=C(C(=O)N2CCOCC2)[C@H]2Cc3c(cc(C(=O)[N-]CCN4CCOCC4)n3C)C12

>  <Energy>  (10) 
170.9127293741861

>  <Genealogy>  (10) 
CC(C)C1CC=C(C(=O)N2CCOCC2)C2Cc3c(cc(C(=O)[N-]CCN4CCOCC4)n3C)C21 (protonated)
CC(C)[C@H]1CC=C(C(=O)N2CCOCC2)[C@H]2Cc3c(cc(C(=O)[N-]CCN4CCOCC4)n3C)C12 (chirality)
CC(C)[C@H]1CC=C(C(=O)N2CCOCC2)[C@H]2Cc3c(cc(C(=O)[N-]CCN4CCOCC4)n3C)C12 (3D coordinates assigned)
CC(C)[C@H]1CC=C(C(=O)N2CCOCC2)[C@H]2Cc3c(cc(C(=O)[N-]CCN4CCOCC4)n3C)C12 (nonaromatic ring conformer: 170.9127293741861 kcal/mol)

>  <smiles>  (10) 
CC(C)C1CC=C(C(=O)N2CCOCC2)C2Cc3c(cc(C(=O)NCCN4CCOCC4)n3C)C21

>  <score_type>  (10) 
oracle

>  <origin>  (10) 
adg

>  <m_score__min__energy>  (10) 
-10.859999999999999

>  <m_primary>  (10) 
energy

$$$$
10:0
     RDKit          3D

 39 39  0  0  0  0  0  0  0  0999 V2000
   58.7457   25.4830   46.6449 H   0  0  0  0  0  0  0  0  0  0  0  0
   58.5870   26.5660   46.5360 C   0  0  0  0  0  0  0  0  0  0  0  0
   57.3690   26.9980   46.1580 C   0  0  0  0  0  0  0  0  0  0  0  0
   57.1290   28.4060   46.0620 N   0  0  0  0  0  0  0  0  0  0  0  0
   56.5350   29.0620   44.9370 C   0  0  0  0  0  0  0  0  0  0  0  0
   55.2790   29.1000   44.8460 O   0  0  0  0  0  0  0  0  0  0  0  0
   57.3680   29.8170   43.9380 C   0  0  0  0  0  0  0  0  0  0  0  0
   58.2607   29.2256   43.6862 H   0  0  0  0  0  0  0  0  0  0  0  0
   56.7724   29.9954   43.0306 H   0  0  0  0  0  0  0  0  0  0  0  0
   57.7930   31.1400   44.5210 C   0  0  0  0  0  0  0  0  0  0  0  0
   57.8820   32.2820   43.7080 C   0  0  0  0  0  0  0  0  0  0  0  0
   57.5985   32.2220   42.6468 H   0  0  0  0  0  0  0  0  0  0  0  0
   58.3290   33.4940   44.2410 C   0  0  0  0  0  0  0  0  0  0  0  0
   58.3999   34.3836   43.5979 H   0  0  0  0  0  0  0  0  0  0  0  0
   58.6860   33.5780   45.5890 C   0  0  0  0  0  0  0  0  0  0  0  0
   59.0361   34.5332   46.0073 H   0  0  0  0  0  0  0  0  0  0  0  0
   58.5980   32.4480   46.4050 C   0  0  0  0  0  0  0  0  0  0  0  0
   58.8768   32.5145   47.4670 H   0  0  0  0  0  0  0  0  0  0  0  0
   58.1560   31.2320   45.8740 C   0  0  0  0  0  0  0  0  0  0  0  0
   58.0925   30.3436   46.5195 H   0  0  0  0  0  0  0  0  0  0  0  0
   56.2780   26.0970   45.7370 C   0  0  0  0  0  0  0  0  0  0  0  0
   55.0770   26.3320   46.0470 O   0  0  0  0  0  0  0  0  0  0  0  0
   56.6020   24.9590   44.9950 O   0  0  0  0  0  0  0  0  0  0  0  0
   57.7710   24.8690   44.1890 C   0  0  0  0  0  0  0  0  0  0  0  0
   57.7829   23.9011   43.6665 H   0  0  0  0  0  0  0  0  0  0  0  0
   58.6639   24.9517   44.8262 H   0  0  0  0  0  0  0  0  0  0  0  0
   57.7690   25.9960   43.1690 C   0  0  0  0  0  0  0  0  0  0  0  0
   57.7673   26.9638   43.6919 H   0  0  0  0  0  0  0  0  0  0  0  0
   58.6673   25.9215   42.5385 H   0  0  0  0  0  0  0  0  0  0  0  0
   56.8710   25.9183   42.5385 H   0  0  0  0  0  0  0  0  0  0  0  0
   59.6880   27.4450   46.8040 N   0  0  0  0  0  0  0  0  0  0  0  0
   59.7490   28.1400   48.0920 C   0  0  0  0  0  0  0  0  0  0  0  0
   59.6845   27.4056   48.9084 H   0  0  0  0  0  0  0  0  0  0  0  0
   60.6988   28.6896   48.1674 H   0  0  0  0  0  0  0  0  0  0  0  0
   58.9094   28.8467   48.1674 H   0  0  0  0  0  0  0  0  0  0  0  0
   60.3480   28.0710   45.6620 C   0  0  0  0  0  0  0  0  0  0  0  0
   61.1023   28.7865   46.0214 H   0  0  0  0  0  0  0  0  0  0  0  0
   60.8375   27.2974   45.0521 H   0  0  0  0  0  0  0  0  0  0  0  0
   59.6014   28.6007   45.0521 H   0  0  0  0  0  0  0  0  0  0  0  0
  1  2  1  0
  2  3  2  0
  3  4  1  0
  4  5  1  0
  5  6  2  0
  5  7  1  0
  7  8  1  0
  7  9  1  0
  7 10  1  0
 10 11  2  0
 11 12  1  0
 11 13  1  0
 13 14  1  0
 13 15  2  0
 15 16  1  0
 15 17  1  0
 17 18  1  0
 17 19  2  0
 19 20  1  0
  3 21  1  0
 21 22  2  0
 21 23  1  0
 23 24  1  0
 24 25  1  0
 24 26  1  0
 24 27  1  0
 27 28  1  0
 27 29  1  0
 27 30  1  0
  2 31  1  0
 31 32  1  0
 32 33  1  0
 32 34  1  0
 32 35  1  0
 31 36  1  0
 36 37  1  0
 36 38  1  0
 36 39  1  0
 19 10  1  0
M  CHG  1   4  -1
M  END
>  <UniqueID>  (11) 
11

>  <SMILES>  (11) 
CCOC(=O)/C(=C\N(C)C)[N-]C(=O)Cc1ccccc1

>  <Energy>  (11) 
38.10386507865064

>  <Genealogy>  (11) 
CCOC(=O)C(=CN(C)C)[N-]C(=O)Cc1ccccc1 (protonated)
CCOC(=O)/C(=C\N(C)C)[N-]C(=O)Cc1ccccc1 (cis-trans isomerization)
CCOC(=O)/C(=C\N(C)C)[N-]C(=O)Cc1ccccc1 (3D coordinates assigned)
CCOC(=O)/C(=C\N(C)C)[N-]C(=O)Cc1ccccc1 (optimized conformer: 38.10386507865064 kcal/mol)

>  <smiles>  (11) 
CCOC(=O)C(=CN(C)C)NC(=O)Cc1ccccc1

>  <score_type>  (11) 
oracle

>  <origin>  (11) 
adg

>  <m_score__min__energy>  (11) 
-8.7799999999999994

>  <m_primary>  (11) 
energy

$$$$
11:0
     RDKit          3D

 33 35  0  0  0  0  0  0  0  0999 V2000
   58.9550   22.3390   44.8020 C   0  0  0  0  0  0  0  0  0  0  0  0
   58.6840   23.0860   45.9850 O   0  0  0  0  0  0  0  0  0  0  0  0
   58.4720   24.4730   46.0160 C   0  0  0  0  0  0  0  0  0  0  0  0
   57.1610   24.9430   45.9310 C   0  0  0  0  0  0  0  0  0  0  0  0
   56.8720   26.3160   45.9680 C   0  0  0  0  0  0  0  0  0  0  0  0
   55.4930   26.7100   45.9950 N   0  0  0  0  0  0  0  0  0  0  0  0
   57.9430   27.2560   46.0340 C   0  0  0  0  0  0  0  0  0  0  0  0
   57.7750   28.6600   45.9540 C   0  0  0  0  0  0  0  0  0  0  0  0
   56.6480   29.1640   45.7020 O   0  0  0  0  0  0  0  0  0  0  0  0
   58.8920   29.5070   46.0920 C   0  0  0  0  0  0  0  0  0  0  0  0
   58.7700   30.9840   46.0660 C   0  0  0  0  0  0  0  0  0  0  0  0
   57.6220   31.6590   45.8140 N   0  0  0  0  0  0  0  0  0  0  0  0
   57.7830   33.0100   45.8750 C   0  0  0  0  0  0  0  0  0  0  0  0
   56.6630   33.9590   45.5880 C   0  0  0  0  0  0  0  0  0  0  0  0
   59.0760   33.4350   46.1650 C   0  0  0  0  0  0  0  0  0  0  0  0
   60.0270   32.0640   46.3760 S   0  0  0  0  0  0  0  0  0  0  0  0
   60.1550   28.9200   46.2300 C   0  0  0  0  0  0  0  0  0  0  0  0
   60.2950   27.6020   46.2390 O   0  0  0  0  0  0  0  0  0  0  0  0
   59.2690   26.7660   46.1410 C   0  0  0  0  0  0  0  0  0  0  0  0
   59.5240   25.3930   46.1360 C   0  0  0  0  0  0  0  0  0  0  0  0
   59.3183   21.3375   45.0759 H   0  0  0  0  0  0  0  0  0  0  0  0
   58.0336   22.2451   44.2085 H   0  0  0  0  0  0  0  0  0  0  0  0
   59.7222   22.8578   44.2085 H   0  0  0  0  0  0  0  0  0  0  0  0
   56.3361   24.2219   45.8329 H   0  0  0  0  0  0  0  0  0  0  0  0
   55.1460   27.5270   45.4480 H   0  0  0  0  0  0  0  0  0  0  0  0
   54.8590   26.3460   46.7410 H   0  0  0  0  0  0  0  0  0  0  0  0
   56.7030   31.2030   45.6240 H   0  0  0  0  0  0  0  0  0  0  0  0
   56.2366   34.3203   46.5355 H   0  0  0  0  0  0  0  0  0  0  0  0
   57.0450   34.8126   45.0087 H   0  0  0  0  0  0  0  0  0  0  0  0
   55.8837   33.4421   45.0087 H   0  0  0  0  0  0  0  0  0  0  0  0
   59.4147   34.4787   46.2422 H   0  0  0  0  0  0  0  0  0  0  0  0
   61.0431   29.5609   46.3323 H   0  0  0  0  0  0  0  0  0  0  0  0
   60.5584   25.0300   46.2269 H   0  0  0  0  0  0  0  0  0  0  0  0
  1  2  1  0
  2  3  1  0
  3  4  2  0
  4  5  1  0
  5  6  1  0
  5  7  2  0
  7  8  1  0
  8  9  2  0
  8 10  1  0
 10 11  1  0
 11 12  2  0
 12 13  1  0
 13 14  1  0
 13 15  2  0
 15 16  1  0
 10 17  2  0
 17 18  1  0
 18 19  1  0
 19 20  2  0
 20  3  1  0
 19  7  1  0
 16 11  1  0
  1 21  1  0
  1 22  1  0
  1 23  1  0
  4 24  1  0
  6 25  1  0
  6 26  1  0
 12 27  1  0
 14 28  1  0
 14 29  1  0
 14 30  1  0
 15 31  1  0
 17 32  1  0
 20 33  1  0
M  CHG  1  12   1
M  END
>  <UniqueID>  (12) 
12

>  <SMILES>  (12) 
COc1cc(N)c2c(=O)c(-c3[nH+]c(C)cs3)coc2c1

>  <Energy>  (12) 
78.30867983078655

>  <Genealogy>  (12) 
COc1cc(N)c2c(=O)c(-c3[nH+]c(C)cs3)coc2c1 (protonated)
COc1cc(N)c2c(=O)c(-c3[nH+]c(C)cs3)coc2c1 (3D coordinates assigned)
COc1cc(N)c2c(=O)c(-c3[nH+]c(C)cs3)coc2c1 (optimized conformer: 78.30867983078655 kcal/mol)

>  <smiles>  (12) 
COc1cc(N)c2c(=O)c(-c3nc(C)cs3)coc2c1

>  <score_type>  (12) 
oracle

>  <origin>  (12) 
adg

>  <m_score__min__energy>  (12) 
-5.5499999999999998

>  <m_primary>  (12) 
energy

$$$$
12:0
     RDKit          3D

 55 59  0  0  0  0  0  0  0  0999 V2000
   58.3630   29.0690   46.7240 C   0  0  0  0  0  0  0  0  0  0  0  0
   57.5030   30.1060   46.2640 O   0  0  0  0  0  0  0  0  0  0  0  0
   57.3440   30.4700   44.9180 C   0  0  0  0  0  0  0  0  0  0  0  0
   56.5850   29.6920   44.0210 C   0  0  0  0  0  0  0  0  0  0  0  0
   56.4260   30.0950   42.6930 C   0  0  0  0  0  0  0  0  0  0  0  0
   57.0200   31.2750   42.2440 C   0  0  0  0  0  0  0  0  0  0  0  0
   57.7770   32.0540   43.1210 C   0  0  0  0  0  0  0  0  0  0  0  0
   57.9500   31.6580   44.4570 C   0  0  0  0  0  0  0  0  0  0  0  0
   58.7400   32.4690   45.3430 N   0  0  0  0  0  0  0  0  0  0  0  0
   58.4330   33.8960   45.5130 C   0  0  0  0  0  0  0  0  0  0  0  0
   58.5120   34.2820   46.9960 C   0  0  0  0  0  0  0  0  0  0  0  0
   59.6790   33.6770   47.6560 N   0  0  0  0  0  0  0  0  0  0  0  0
   59.8610   33.8740   49.0710 C   0  0  0  0  0  0  0  0  0  0  0  0
   59.4450   34.9350   49.6110 O   0  0  0  0  0  0  0  0  0  0  0  0
   60.4440   32.8100   49.9200 C   0  0  0  0  0  0  0  0  0  0  0  0
   61.8400   32.7150   49.9850 C   0  0  0  0  0  0  0  0  0  0  0  0
   62.4530   31.7130   50.7490 C   0  0  0  0  0  0  0  0  0  0  0  0
   63.9330   31.6240   50.8280 C   0  0  0  0  0  0  0  0  0  0  0  0
   64.8560   32.3010   50.0290 C   0  0  0  0  0  0  0  0  0  0  0  0
   66.1890   32.0150   50.3510 C   0  0  0  0  0  0  0  0  0  0  0  0
   66.3340   31.1200   51.4000 C   0  0  0  0  0  0  0  0  0  0  0  0
   64.7990   30.6860   51.9270 S   0  0  0  0  0  0  0  0  0  0  0  0
   61.6740   30.8110   51.4160 N   0  0  0  0  0  0  0  0  0  0  0  0
   60.3110   30.8690   51.3840 C   0  0  0  0  0  0  0  0  0  0  0  0
   59.5530   29.9300   52.1030 C   0  0  0  0  0  0  0  0  0  0  0  0
   58.1590   29.9980   52.1000 C   0  0  0  0  0  0  0  0  0  0  0  0
   57.5080   31.0050   51.3880 C   0  0  0  0  0  0  0  0  0  0  0  0
   58.2470   31.9460   50.6660 C   0  0  0  0  0  0  0  0  0  0  0  0
   59.6570   31.8810   50.6380 C   0  0  0  0  0  0  0  0  0  0  0  0
   60.6490   32.9090   46.8620 C   0  0  0  0  0  0  0  0  0  0  0  0
   59.9100   31.8760   46.0070 C   0  0  0  0  0  0  0  0  0  0  0  0
   58.3706   29.0599   47.8239 H   0  0  0  0  0  0  0  0  0  0  0  0
   58.0001   28.0996   46.3518 H   0  0  0  0  0  0  0  0  0  0  0  0
   59.3828   29.2463   46.3518 H   0  0  0  0  0  0  0  0  0  0  0  0
   56.1144   28.7607   44.3691 H   0  0  0  0  0  0  0  0  0  0  0  0
   55.8316   29.4812   42.0002 H   0  0  0  0  0  0  0  0  0  0  0  0
   56.8918   31.5917   41.1984 H   0  0  0  0  0  0  0  0  0  0  0  0
   58.2413   32.9847   42.7628 H   0  0  0  0  0  0  0  0  0  0  0  0
   59.1588   34.4943   44.9427 H   0  0  0  0  0  0  0  0  0  0  0  0
   57.4147   34.0904   45.1453 H   0  0  0  0  0  0  0  0  0  0  0  0
   58.5855   35.3766   47.0757 H   0  0  0  0  0  0  0  0  0  0  0  0
   57.6053   33.9095   47.4952 H   0  0  0  0  0  0  0  0  0  0  0  0
   62.4612   33.4341   49.4308 H   0  0  0  0  0  0  0  0  0  0  0  0
   64.5648   32.9922   49.2244 H   0  0  0  0  0  0  0  0  0  0  0  0
   67.0432   32.4601   49.8198 H   0  0  0  0  0  0  0  0  0  0  0  0
   67.2865   30.7579   51.8143 H   0  0  0  0  0  0  0  0  0  0  0  0
   62.1320   30.0630   51.9850 H   0  0  0  0  0  0  0  0  0  0  0  0
   60.0608   29.1369   52.6714 H   0  0  0  0  0  0  0  0  0  0  0  0
   57.5723   29.2554   52.6607 H   0  0  0  0  0  0  0  0  0  0  0  0
   56.4093   31.0588   51.3947 H   0  0  0  0  0  0  0  0  0  0  0  0
   57.7262   32.7433   50.1154 H   0  0  0  0  0  0  0  0  0  0  0  0
   61.2092   33.5927   46.2072 H   0  0  0  0  0  0  0  0  0  0  0  0
   61.3464   32.3922   47.5377 H   0  0  0  0  0  0  0  0  0  0  0  0
   60.5974   31.4872   45.2413 H   0  0  0  0  0  0  0  0  0  0  0  0
   59.5617   31.0665   46.6653 H   0  0  0  0  0  0  0  0  0  0  0  0
  1  2  1  0
  2  3  1  0
  3  4  2  0
  4  5  1  0
  5  6  2  0
  6  7  1  0
  7  8  2  0
  8  9  1  0
  9 10  1  0
 10 11  1  0
 11 12  1  0
 12 13  1  0
 13 14  2  0
 13 15  1  0
 15 16  2  0
 16 17  1  0
 17 18  1  0
 18 19  2  0
 19 20  1  0
 20 21  2  0
 21 22  1  0
 17 23  2  0
 23 24  1  0
 24 25  2  0
 25 26  1  0
 26 27  2  0
 27 28  1  0
 28 29  2  0
 12 30  1  0
 30 31  1  0
  8  3  1  0
 31  9  1  0
 29 15  1  0
 22 18  1  0
 29 24  1  0
  1 32  1  0
  1 33  1  0
  1 34  1  0
  4 35  1  0
  5 36  1  0
  6 37  1  0
  7 38  1  0
 10 39  1  0
 10 40  1  0
 11 41  1  0
 11 42  1  0
 16 43  1  0
 19 44  1  0
 20 45  1  0
 21 46  1  0
 23 47  1  0
 25 48  1  0
 26 49  1  0
 27 50  1  0
 28 51  1  0
 30 52  1  0
 30 53  1  0
 31 54  1  0
 31 55  1  0
M  CHG  1  23   1
M  END
>  <UniqueID>  (13) 
13

>  <SMILES>  (13) 
COc1ccccc1N1CCN(C(=O)c2cc(-c3cccs3)[nH+]c3ccccc23)CC1

>  <Energy>  (13) 
103.7500125416265

>  <Genealogy>  (13) 
COc1ccccc1N1CCN(C(=O)c2cc(-c3cccs3)[nH+]c3ccccc23)CC1 (protonated)
COc1ccccc1N1CCN(C(=O)c2cc(-c3cccs3)[nH+]c3ccccc23)CC1 (3D coordinates assigned)
COc1ccccc1N1CCN(C(=O)c2cc(-c3cccs3)[nH+]c3ccccc23)CC1 (nonaromatic ring conformer: 103.7500125416265 kcal/mol)

>  <smiles>  (13) 
COc1ccccc1N1CCN(C(=O)c2cc(-c3cccs3)nc3ccccc23)CC1

>  <score_type>  (13) 
oracle

>  <origin>  (13) 
adg

>  <m_score__min__energy>  (13) 
-6.6799999999999997

>  <m_primary>  (13) 
energy

$$$$
13:0
     RDKit          3D

 46 48  0  0  0  0  0  0  0  0999 V2000
   58.4520   31.9300   50.9030 C   0  0  0  0  0  0  0  0  0  0  0  0
   58.3000   31.6480   49.5180 O   0  0  0  0  0  0  0  0  0  0  0  0
   59.3460   31.2890   48.6540 C   0  0  0  0  0  0  0  0  0  0  0  0
   59.3470   30.0520   47.9790 C   0  0  0  0  0  0  0  0  0  0  0  0
   60.3700   29.7300   47.0760 C   0  0  0  0  0  0  0  0  0  0  0  0
   60.3220   28.4300   46.3070 C   0  0  0  0  0  0  0  0  0  0  0  0
   60.0240   28.6510   44.8820 N   0  0  0  0  0  0  0  0  0  0  0  0
   58.6990   29.1980   44.7010 C   0  0  0  0  0  0  0  0  0  0  0  0
   57.5640   28.4580   45.0820 C   0  0  0  0  0  0  0  0  0  0  0  0
   56.2800   28.9680   44.8650 C   0  0  0  0  0  0  0  0  0  0  0  0
   56.1150   30.2210   44.2630 C   0  0  0  0  0  0  0  0  0  0  0  0
   57.2360   30.9630   43.8780 C   0  0  0  0  0  0  0  0  0  0  0  0
   58.5230   30.4570   44.0950 C   0  0  0  0  0  0  0  0  0  0  0  0
   61.3920   30.6580   46.8340 C   0  0  0  0  0  0  0  0  0  0  0  0
   61.4050   31.8840   47.5000 C   0  0  0  0  0  0  0  0  0  0  0  0
   62.8310   33.1150   47.1520 Br  0  0  0  0  0  0  0  0  0  0  0  0
   60.4020   32.2000   48.4290 C   0  0  0  0  0  0  0  0  0  0  0  0
   60.4870   33.4320   49.0980 O   0  0  0  0  0  0  0  0  0  0  0  0
   59.6750   34.5730   48.8160 C   0  0  0  0  0  0  0  0  0  0  0  0
   59.1320   34.4960   47.4150 C   0  0  0  0  0  0  0  0  0  0  0  0
   59.8460   35.0510   46.3380 C   0  0  0  0  0  0  0  0  0  0  0  0
   59.3660   34.9160   45.0300 C   0  0  0  0  0  0  0  0  0  0  0  0
   58.1750   34.2220   44.7920 C   0  0  0  0  0  0  0  0  0  0  0  0
   57.4600   33.6670   45.8570 C   0  0  0  0  0  0  0  0  0  0  0  0
   56.3070   32.9910   45.6250 F   0  0  0  0  0  0  0  0  0  0  0  0
   57.9390   33.7970   47.1660 C   0  0  0  0  0  0  0  0  0  0  0  0
   58.0118   31.1133   51.4939 H   0  0  0  0  0  0  0  0  0  0  0  0
   59.5215   32.0213   51.1434 H   0  0  0  0  0  0  0  0  0  0  0  0
   57.9403   32.8736   51.1434 H   0  0  0  0  0  0  0  0  0  0  0  0
   58.5365   29.3313   48.1625 H   0  0  0  0  0  0  0  0  0  0  0  0
   61.2971   27.9283   46.3937 H   0  0  0  0  0  0  0  0  0  0  0  0
   59.5200   27.8091   46.7328 H   0  0  0  0  0  0  0  0  0  0  0  0
   60.7280   29.3220   44.4910 H   0  0  0  0  0  0  0  0  0  0  0  0
   60.1260   27.7540   44.3520 H   0  0  0  0  0  0  0  0  0  0  0  0
   57.6877   27.4719   45.5536 H   0  0  0  0  0  0  0  0  0  0  0  0
   55.3985   28.3838   45.1678 H   0  0  0  0  0  0  0  0  0  0  0  0
   55.1047   30.6215   44.0930 H   0  0  0  0  0  0  0  0  0  0  0  0
   57.1061   31.9468   43.4034 H   0  0  0  0  0  0  0  0  0  0  0  0
   59.4011   31.0456   43.7907 H   0  0  0  0  0  0  0  0  0  0  0  0
   62.1888   30.4183   46.1145 H   0  0  0  0  0  0  0  0  0  0  0  0
   58.8373   34.6069   49.5282 H   0  0  0  0  0  0  0  0  0  0  0  0
   60.2889   35.4807   48.9117 H   0  0  0  0  0  0  0  0  0  0  0  0
   60.7849   35.5931   46.5241 H   0  0  0  0  0  0  0  0  0  0  0  0
   59.9247   35.3551   44.1903 H   0  0  0  0  0  0  0  0  0  0  0  0
   57.8001   34.1127   43.7637 H   0  0  0  0  0  0  0  0  0  0  0  0
   57.3799   33.3508   48.0017 H   0  0  0  0  0  0  0  0  0  0  0  0
  1  2  1  0
  2  3  1  0
  3  4  2  0
  4  5  1  0
  5  6  1  0
  6  7  1  0
  7  8  1  0
  8  9  2  0
  9 10  1  0
 10 11  2  0
 11 12  1  0
 12 13  2  0
  5 14  2  0
 14 15  1  0
 15 16  1  0
 15 17  2  0
 17 18  1  0
 18 19  1  0
 19 20  1  0
 20 21  2  0
 21 22  1  0
 22 23  2  0
 23 24  1  0
 24 25  1  0
 24 26  2  0
 17  3  1  0
 26 20  1  0
 13  8  1  0
  1 27  1  0
  1 28  1  0
  1 29  1  0
  4 30  1  0
  6 31  1  0
  6 32  1  0
  7 33  1  0
  7 34  1  0
  9 35  1  0
 10 36  1  0
 11 37  1  0
 12 38  1  0
 13 39  1  0
 14 40  1  0
 19 41  1  0
 19 42  1  0
 21 43  1  0
 22 44  1  0
 23 45  1  0
 26 46  1  0
M  CHG  1   7   1
M  END
>  <UniqueID>  (14) 
14

>  <SMILES>  (14) 
COc1cc(C[NH2+]c2ccccc2)cc(Br)c1OCc1cccc(F)c1

>  <Energy>  (14) 
51.07637175501291

>  <Genealogy>  (14) 
COc1cc(C[NH2+]c2ccccc2)cc(Br)c1OCc1cccc(F)c1 (protonated)
COc1cc(C[NH2+]c2ccccc2)cc(Br)c1OCc1cccc(F)c1 (3D coordinates assigned)
COc1cc(C[NH2+]c2ccccc2)cc(Br)c1OCc1cccc(F)c1 (optimized conformer: 51.07637175501291 kcal/mol)

>  <smiles>  (14) 
COc1cc(CNc2ccccc2)cc(Br)c1OCc1cccc(F)c1

>  <score_type>  (14) 
oracle

>  <origin>  (14) 
adg

>  <m_score__min__energy>  (14) 
-6.1699999999999999

>  <m_primary>  (14) 
energy

$$$$
14:0
     RDKit          3D

 58 61  0  0  0  0  0  0  0  0999 V2000
   58.1390   26.9000   42.5850 C   0  0  0  0  0  0  0  0  0  0  0  0
   57.9940   26.7060   43.9880 O   0  0  0  0  0  0  0  0  0  0  0  0
   58.6720   27.4500   44.9640 C   0  0  0  0  0  0  0  0  0  0  0  0
   58.3930   27.3240   46.3350 C   0  0  0  0  0  0  0  0  0  0  0  0
   59.0950   28.0890   47.2700 C   0  0  0  0  0  0  0  0  0  0  0  0
   60.0880   28.9920   46.8560 C   0  0  0  0  0  0  0  0  0  0  0  0
   60.8300   29.8010   47.8570 C   0  0  0  0  0  0  0  0  0  0  0  0
   60.6360   29.5970   49.2270 C   0  0  0  0  0  0  0  0  0  0  0  0
   61.3600   30.3550   50.1380 C   0  0  0  0  0  0  0  0  0  0  0  0
   62.2740   31.2970   49.6730 C   0  0  0  0  0  0  0  0  0  0  0  0
   62.9380   31.9750   50.5050 O   0  0  0  0  0  0  0  0  0  0  0  0
   62.4450   31.4710   48.3230 N   0  0  0  0  0  0  0  0  0  0  0  0
   63.3960   32.4650   47.7980 C   0  0  0  0  0  0  0  0  0  0  0  0
   62.7120   33.8220   47.5810 C   0  0  0  0  0  0  0  0  0  0  0  0
   61.7450   33.8040   46.3780 C   0  0  0  0  0  0  0  0  0  0  0  0
   60.3660   34.1970   46.7300 N   0  0  0  0  0  0  0  0  0  0  0  0
   59.5720   34.7070   45.5850 C   0  0  0  0  0  0  0  0  0  0  0  0
   58.1320   34.1970   45.5780 C   0  0  0  0  0  0  0  0  0  0  0  0
   58.1370   32.7480   45.7880 N   0  0  0  0  0  0  0  0  0  0  0  0
   57.6180   31.8490   44.7830 C   0  0  0  0  0  0  0  0  0  0  0  0
   57.7860   32.1150   43.4130 C   0  0  0  0  0  0  0  0  0  0  0  0
   57.2570   31.2310   42.4680 C   0  0  0  0  0  0  0  0  0  0  0  0
   56.5620   30.0970   42.8860 C   0  0  0  0  0  0  0  0  0  0  0  0
   56.4120   29.8580   44.2530 C   0  0  0  0  0  0  0  0  0  0  0  0
   56.9360   30.7290   45.1590 N   0  0  0  0  0  0  0  0  0  0  0  0
   58.8150   32.2220   46.9810 C   0  0  0  0  0  0  0  0  0  0  0  0
   59.6710   33.2960   47.6790 C   0  0  0  0  0  0  0  0  0  0  0  0
   61.7280   30.7470   47.4500 N   0  0  0  0  0  0  0  0  0  0  0  0
   60.3600   29.1200   45.4830 C   0  0  0  0  0  0  0  0  0  0  0  0
   59.6600   28.3500   44.5500 C   0  0  0  0  0  0  0  0  0  0  0  0
   58.7882   27.7686   42.4001 H   0  0  0  0  0  0  0  0  0  0  0  0
   58.5898   26.0030   42.1355 H   0  0  0  0  0  0  0  0  0  0  0  0
   57.1510   27.0784   42.1355 H   0  0  0  0  0  0  0  0  0  0  0  0
   57.6186   26.6201   46.6739 H   0  0  0  0  0  0  0  0  0  0  0  0
   58.8677   27.9830   48.3410 H   0  0  0  0  0  0  0  0  0  0  0  0
   59.9167   28.8432   49.5796 H   0  0  0  0  0  0  0  0  0  0  0  0
   61.2126   30.2123   51.2187 H   0  0  0  0  0  0  0  0  0  0  0  0
   64.2199   32.5886   48.5163 H   0  0  0  0  0  0  0  0  0  0  0  0
   63.7777   32.1070   46.8305 H   0  0  0  0  0  0  0  0  0  0  0  0
   62.1448   34.0813   48.4871 H   0  0  0  0  0  0  0  0  0  0  0  0
   63.4960   34.5648   47.3719 H   0  0  0  0  0  0  0  0  0  0  0  0
   62.1229   34.5016   45.6160 H   0  0  0  0  0  0  0  0  0  0  0  0
   61.7041   32.7686   46.0089 H   0  0  0  0  0  0  0  0  0  0  0  0
   59.5537   35.8058   45.6338 H   0  0  0  0  0  0  0  0  0  0  0  0
   60.0528   34.3427   44.6651 H   0  0  0  0  0  0  0  0  0  0  0  0
   57.5645   34.6843   46.3845 H   0  0  0  0  0  0  0  0  0  0  0  0
   57.6605   34.4303   44.6120 H   0  0  0  0  0  0  0  0  0  0  0  0
   58.3304   33.0133   43.0865 H   0  0  0  0  0  0  0  0  0  0  0  0
   57.3891   31.4302   41.3943 H   0  0  0  0  0  0  0  0  0  0  0  0
   56.1376   29.4000   42.1484 H   0  0  0  0  0  0  0  0  0  0  0  0
   55.8701   28.9653   44.5986 H   0  0  0  0  0  0  0  0  0  0  0  0
   58.0562   31.8573   47.6889 H   0  0  0  0  0  0  0  0  0  0  0  0
   59.4839   31.4094   46.6611 H   0  0  0  0  0  0  0  0  0  0  0  0
   59.0153   33.9029   48.3207 H   0  0  0  0  0  0  0  0  0  0  0  0
   60.4453   32.7712   48.2578 H   0  0  0  0  0  0  0  0  0  0  0  0
   61.8490   30.9190   46.4270 H   0  0  0  0  0  0  0  0  0  0  0  0
   61.1277   29.8298   45.1410 H   0  0  0  0  0  0  0  0  0  0  0  0
   59.8883   28.4527   43.4789 H   0  0  0  0  0  0  0  0  0  0  0  0
  1  2  1  0
  2  3  1  0
  3  4  2  0
  4  5  1  0
  5  6  2  0
  6  7  1  0
  7  8  1  0
  8  9  2  0
  9 10  1  0
 10 11  2  0
 10 12  1  0
 12 13  1  0
 13 14  1  0
 14 15  1  0
 15 16  1  0
 16 17  1  0
 17 18  1  0
 18 19  1  0
 19 20  1  0
 20 21  2  0
 21 22  1  0
 22 23  2  0
 23 24  1  0
 24 25  2  0
 19 26  1  0
 26 27  1  0
 12 28  1  0
  6 29  1  0
 29 30  2  0
 30  3  1  0
 28  7  2  0
 27 16  1  0
 25 20  1  0
  1 31  1  0
  1 32  1  0
  1 33  1  0
  4 34  1  0
  5 35  1  0
  8 36  1  0
  9 37  1  0
 13 38  1  0
 13 39  1  0
 14 40  1  0
 14 41  1  0
 15 42  1  0
 15 43  1  0
 17 44  1  0
 17 45  1  0
 18 46  1  0
 18 47  1  0
 21 48  1  0
 22 49  1  0
 23 50  1  0
 24 51  1  0
 26 52  1  0
 26 53  1  0
 27 54  1  0
 27 55  1  0
 28 56  1  0
 29 57  1  0
 30 58  1  0
M  CHG  1  28   1
M  END
>  <UniqueID>  (15) 
15

>  <SMILES>  (15) 
COc1ccc(-c2ccc(=O)n(CCCN3CCN(c4ccccn4)CC3)[nH+]2)cc1

>  <Energy>  (15) 
79.04881314849894

>  <Genealogy>  (15) 
COc1ccc(-c2ccc(=O)n(CCCN3CCN(c4ccccn4)CC3)[nH+]2)cc1 (protonated)
COc1ccc(-c2ccc(=O)n(CCCN3CCN(c4ccccn4)CC3)[nH+]2)cc1 (3D coordinates assigned)
COc1ccc(-c2ccc(=O)n(CCCN3CCN(c4ccccn4)CC3)[nH+]2)cc1 (nonaromatic ring conformer: 79.04881314849894 kcal/mol)

>  <smiles>  (15) 
COc1ccc(-c2ccc(=O)n(CCCN3CCN(c4ccccn4)CC3)n2)cc1

>  <score_type>  (15) 
oracle

>  <origin>  (15) 
adg

>  <m_score__min__energy>  (15) 
-8.3100000000000005

>  <m_primary>  (15) 
energy

$$$$
15:0
     RDKit          3D

 36 39  0  0  0  0  0  0  0  0999 V2000
   59.0062   35.1246   46.3640 H   0  0  0  0  0  0  0  0  0  0  0  0
   58.8910   34.1990   46.9470 C   0  0  0  0  0  0  0  0  0  0  0  0
   59.1020   34.0810   48.2720 N   0  0  0  0  0  0  0  0  0  0  0  0
   58.8500   32.8260   48.6070 N   0  0  0  0  0  0  0  0  0  0  0  0
   59.0300   32.2910   49.9490 C   0  0  0  0  0  0  0  0  0  0  0  0
   58.7705   33.0623   50.6891 H   0  0  0  0  0  0  0  0  0  0  0  0
   58.3765   31.4168   50.0859 H   0  0  0  0  0  0  0  0  0  0  0  0
   60.0790   31.9896   50.0859 H   0  0  0  0  0  0  0  0  0  0  0  0
   58.4980   32.1160   47.5190 C   0  0  0  0  0  0  0  0  0  0  0  0
   58.2483   31.0449   47.4976 H   0  0  0  0  0  0  0  0  0  0  0  0
   58.5060   32.9710   46.4340 C   0  0  0  0  0  0  0  0  0  0  0  0
   58.1920   32.6640   45.0250 C   0  0  0  0  0  0  0  0  0  0  0  0
   58.5110   33.4430   43.9160 C   0  0  0  0  0  0  0  0  0  0  0  0
   59.0462   34.4036   43.9440 H   0  0  0  0  0  0  0  0  0  0  0  0
   58.0570   32.8290   42.7970 N   0  0  0  0  0  0  0  0  0  0  0  0
   58.1420   33.1650   41.8120 H   0  0  0  0  0  0  0  0  0  0  0  0
   57.4750   31.6990   43.2370 C   0  0  0  0  0  0  0  0  0  0  0  0
   56.8540   30.7230   42.4700 C   0  0  0  0  0  0  0  0  0  0  0  0
   56.7910   30.8093   41.3752 H   0  0  0  0  0  0  0  0  0  0  0  0
   56.3100   29.6220   43.1480 C   0  0  0  0  0  0  0  0  0  0  0  0
   55.8055   28.8232   42.5846 H   0  0  0  0  0  0  0  0  0  0  0  0
   56.4110   29.5390   44.5640 C   0  0  0  0  0  0  0  0  0  0  0  0
   55.9240   28.5410   45.2470 N   0  0  0  0  0  0  0  0  0  0  0  0
   56.6420   27.3580   45.7220 C   0  0  0  0  0  0  0  0  0  0  0  0
   56.0558   26.8722   46.5160 H   0  0  0  0  0  0  0  0  0  0  0  0
   56.7844   26.6639   44.8806 H   0  0  0  0  0  0  0  0  0  0  0  0
   58.0170   27.7570   46.2790 C   0  0  0  0  0  0  0  0  0  0  0  0
   57.6252   28.4116   47.0715 H   0  0  0  0  0  0  0  0  0  0  0  0
   59.1270   27.8590   45.2460 C   0  0  0  0  0  0  0  0  0  0  0  0
   58.9015   27.7088   44.1799 H   0  0  0  0  0  0  0  0  0  0  0  0
   59.8747   28.6210   44.9807 H   0  0  0  0  0  0  0  0  0  0  0  0
   59.0880   26.6790   46.2050 C   0  0  0  0  0  0  0  0  0  0  0  0
   58.8339   25.6756   45.8327 H   0  0  0  0  0  0  0  0  0  0  0  0
   59.7951   26.2341   46.9206 H   0  0  0  0  0  0  0  0  0  0  0  0
   57.0370   30.5450   45.2400 N   0  0  0  0  0  0  0  0  0  0  0  0
   57.5430   31.5760   44.5670 N   0  0  0  0  0  0  0  0  0  0  0  0
  1  2  1  0
  2  3  2  0
  3  4  1  0
  4  5  1  0
  5  6  1  0
  5  7  1  0
  5  8  1  0
  4  9  1  0
  9 10  1  0
  9 11  2  0
 11 12  1  0
 12 13  2  0
 13 14  1  0
 13 15  1  0
 15 16  1  0
 15 17  2  0
 17 18  1  0
 18 19  1  0
 18 20  2  0
 20 21  1  0
 20 22  1  0
 22 23  2  0
 23 24  1  0
 24 25  1  0
 24 26  1  0
 24 27  1  0
 27 28  1  0
 27 29  1  0
 29 30  1  0
 29 31  1  0
 29 32  1  0
 32 33  1  0
 32 34  1  0
 22 35  1  0
 35 36  1  0
 11  2  1  0
 36 12  1  0
 36 17  1  0
 32 27  1  0
M  CHG  2  15   1  35  -1
M  END
>  <UniqueID>  (16) 
16

>  <SMILES>  (16) 
Cn1cc(-c2c[nH+]c3cc/c(=N\CC4CC4)[n-]n23)cn1

>  <Energy>  (16) 
371.1835119967254

>  <Genealogy>  (16) 
Cn1cc(-c2c[nH+]c3ccc(=NCC4CC4)[n-]n23)cn1 (protonated)
Cn1cc(-c2c[nH+]c3cc/c(=N\CC4CC4)[n-]n23)cn1 (cis-trans isomerization)
Cn1cc(-c2c[nH+]c3cc/c(=N\CC4CC4)[n-]n23)cn1 (3D coordinates assigned)
Cn1cc(-c2c[nH+]c3cc/c(=N\CC4CC4)[n-]n23)cn1 (nonaromatic ring conformer: 371.1835119967254 kcal/mol)

>  <smiles>  (16) 
Cn1cc(-c2cnc3ccc(=NCC4CC4)[nH]n23)cn1

>  <score_type>  (16) 
oracle

>  <origin>  (16) 
adg

>  <m_score__min__energy>  (16) 
-6.9800000000000004

>  <m_primary>  (16) 
energy

$$$$
16:0
     RDKit          3D

 66 67  0  0  0  0  0  0  0  0999 V2000
   60.2930   27.0360   47.4500 C   0  0  0  0  0  0  0  0  0  0  0  0
   59.9720   26.8530   45.9700 C   0  0  0  0  0  0  0  0  0  0  0  0
   59.5420   28.1780   45.3300 C   0  0  0  0  0  0  0  0  0  0  0  0
   58.0840   28.2080   45.1180 N   0  0  0  0  0  0  0  0  0  0  0  0
   57.3960   26.9900   44.6740 C   0  0  0  0  0  0  0  0  0  0  0  0
   56.6720   26.3300   45.8120 C   0  0  0  0  0  0  0  0  0  0  0  0
   55.4710   26.6390   46.0410 O   0  0  0  0  0  0  0  0  0  0  0  0
   57.3230   25.3280   46.6060 N   0  0  0  0  0  0  0  0  0  0  0  0
   56.6010   24.4780   47.5510 C   0  0  0  0  0  0  0  0  0  0  0  0
   56.3080   23.1080   46.9290 C   0  0  0  0  0  0  0  0  0  0  0  0
   56.8460   23.0300   45.5530 N   0  0  0  0  0  0  0  0  0  0  0  0
   57.7100   21.8490   45.3190 C   0  0  0  0  0  0  0  0  0  0  0  0
   59.1050   22.3130   44.9170 C   0  0  0  0  0  0  0  0  0  0  0  0
   55.8100   23.2100   44.5120 C   0  0  0  0  0  0  0  0  0  0  0  0
   56.3060   22.9150   43.0890 C   0  0  0  0  0  0  0  0  0  0  0  0
   57.3310   29.4230   45.3200 C   0  0  0  0  0  0  0  0  0  0  0  0
   56.0740   29.4050   45.2310 O   0  0  0  0  0  0  0  0  0  0  0  0
   58.0000   30.7030   45.6010 C   0  0  0  0  0  0  0  0  0  0  0  0
   57.8460   31.8570   44.8580 C   0  0  0  0  0  0  0  0  0  0  0  0
   58.6210   32.8190   45.4770 C   0  0  0  0  0  0  0  0  0  0  0  0
   58.7710   34.2290   44.9910 C   0  0  0  0  0  0  0  0  0  0  0  0
   59.2330   32.3020   46.5660 N   0  0  0  0  0  0  0  0  0  0  0  0
   60.1110   33.0020   47.4640 C   0  0  0  0  0  0  0  0  0  0  0  0
   59.6120   33.5520   48.6550 C   0  0  0  0  0  0  0  0  0  0  0  0
   60.4660   34.2250   49.5330 C   0  0  0  0  0  0  0  0  0  0  0  0
   61.8240   34.3550   49.2260 C   0  0  0  0  0  0  0  0  0  0  0  0
   62.3290   33.8080   48.0440 C   0  0  0  0  0  0  0  0  0  0  0  0
   61.4770   33.1310   47.1650 C   0  0  0  0  0  0  0  0  0  0  0  0
   58.8550   31.0050   46.6530 C   0  0  0  0  0  0  0  0  0  0  0  0
   59.2110   30.0900   47.7920 C   0  0  0  0  0  0  0  0  0  0  0  0
   59.4960   26.5816   48.0570 H   0  0  0  0  0  0  0  0  0  0  0  0
   61.2520   26.5489   47.6801 H   0  0  0  0  0  0  0  0  0  0  0  0
   60.3624   28.1094   47.6801 H   0  0  0  0  0  0  0  0  0  0  0  0
   60.8670   26.4778   45.4521 H   0  0  0  0  0  0  0  0  0  0  0  0
   59.1429   26.1359   45.8786 H   0  0  0  0  0  0  0  0  0  0  0  0
   59.8271   29.0081   45.9931 H   0  0  0  0  0  0  0  0  0  0  0  0
   60.0421   28.2774   44.3553 H   0  0  0  0  0  0  0  0  0  0  0  0
   56.6696   27.2533   43.8911 H   0  0  0  0  0  0  0  0  0  0  0  0
   58.1477   26.2874   44.2850 H   0  0  0  0  0  0  0  0  0  0  0  0
   58.3530   25.1920   46.5130 H   0  0  0  0  0  0  0  0  0  0  0  0
   57.2129   24.3413   48.4548 H   0  0  0  0  0  0  0  0  0  0  0  0
   55.6473   24.9627   47.8070 H   0  0  0  0  0  0  0  0  0  0  0  0
   56.7758   22.3252   47.5441 H   0  0  0  0  0  0  0  0  0  0  0  0
   55.2181   22.9641   46.8902 H   0  0  0  0  0  0  0  0  0  0  0  0
   57.7733   21.2523   46.2410 H   0  0  0  0  0  0  0  0  0  0  0  0
   57.2813   21.2343   44.5138 H   0  0  0  0  0  0  0  0  0  0  0  0
   59.7002   22.5110   45.8207 H   0  0  0  0  0  0  0  0  0  0  0  0
   59.5943   21.5292   44.3201 H   0  0  0  0  0  0  0  0  0  0  0  0
   59.0274   23.2337   44.3201 H   0  0  0  0  0  0  0  0  0  0  0  0
   54.9724   22.5327   44.7351 H   0  0  0  0  0  0  0  0  0  0  0  0
   55.5119   24.2686   44.5352 H   0  0  0  0  0  0  0  0  0  0  0  0
   57.2504   22.3533   43.1390 H   0  0  0  0  0  0  0  0  0  0  0  0
   55.5523   22.3183   42.5543 H   0  0  0  0  0  0  0  0  0  0  0  0
   56.4705   23.8621   42.5543 H   0  0  0  0  0  0  0  0  0  0  0  0
   57.2304   31.9846   43.9553 H   0  0  0  0  0  0  0  0  0  0  0  0
   58.8433   34.9083   45.8532 H   0  0  0  0  0  0  0  0  0  0  0  0
   59.6830   34.3117   44.3816 H   0  0  0  0  0  0  0  0  0  0  0  0
   57.8968   34.5017   44.3816 H   0  0  0  0  0  0  0  0  0  0  0  0
   58.5439   33.4529   48.8985 H   0  0  0  0  0  0  0  0  0  0  0  0
   60.0698   34.6526   50.4658 H   0  0  0  0  0  0  0  0  0  0  0  0
   62.4949   34.8882   49.9156 H   0  0  0  0  0  0  0  0  0  0  0  0
   63.3977   33.9097   47.8042 H   0  0  0  0  0  0  0  0  0  0  0  0
   61.8783   32.6983   46.2367 H   0  0  0  0  0  0  0  0  0  0  0  0
   59.0130   30.5990   48.7468 H   0  0  0  0  0  0  0  0  0  0  0  0
   58.6032   29.1752   47.7312 H   0  0  0  0  0  0  0  0  0  0  0  0
   60.2772   29.8265   47.7312 H   0  0  0  0  0  0  0  0  0  0  0  0
  1  2  1  0
  2  3  1  0
  3  4  1  0
  4  5  1  0
  5  6  1  0
  6  7  2  0
  6  8  1  0
  8  9  1  0
  9 10  1  0
 10 11  1  0
 11 12  1  0
 12 13  1  0
 11 14  1  0
 14 15  1  0
  4 16  1  0
 16 17  2  0
 16 18  1  0
 18 19  1  0
 19 20  2  0
 20 21  1  0
 20 22  1  0
 22 23  1  0
 23 24  2  0
 24 25  1  0
 25 26  2  0
 26 27  1  0
 27 28  2  0
 22 29  1  0
 29 30  1  0
 29 18  2  0
 28 23  1  0
  1 31  1  0
  1 32  1  0
  1 33  1  0
  2 34  1  0
  2 35  1  0
  3 36  1  0
  3 37  1  0
  5 38  1  0
  5 39  1  0
  8 40  1  0
  9 41  1  0
  9 42  1  0
 10 43  1  0
 10 44  1  0
 12 45  1  0
 12 46  1  0
 13 47  1  0
 13 48  1  0
 13 49  1  0
 14 50  1  0
 14 51  1  0
 15 52  1  0
 15 53  1  0
 15 54  1  0
 19 55  1  0
 21 56  1  0
 21 57  1  0
 21 58  1  0
 24 59  1  0
 25 60  1  0
 26 61  1  0
 27 62  1  0
 28 63  1  0
 30 64  1  0
 30 65  1  0
 30 66  1  0
M  END
>  <UniqueID>  (17) 
17

>  <SMILES>  (17) 
CCCN(CC(=O)NCCN(CC)CC)C(=O)c1cc(C)n(-c2ccccc2)c1C

>  <Energy>  (17) 
90.58612469030953

>  <Genealogy>  (17) 
CCCN(CC(=O)NCCN(CC)CC)C(=O)c1cc(C)n(-c2ccccc2)c1C (3D coordinates assigned)
CCCN(CC(=O)NCCN(CC)CC)C(=O)c1cc(C)n(-c2ccccc2)c1C (optimized conformer: 90.58612469030953 kcal/mol)

>  <smiles>  (17) 
CCCN(CC(=O)NCCN(CC)CC)C(=O)c1cc(C)n(-c2ccccc2)c1C

>  <score_type>  (17) 
oracle

>  <origin>  (17) 
adg

>  <m_score__min__energy>  (17) 
-8

>  <m_primary>  (17) 
energy

$$$$
17:0
     RDKit          3D

 42 43  0  0  0  0  0  0  0  0999 V2000
   55.4310   30.4870   45.2220 H   0  0  0  0  0  0  0  0  0  0  0  0
   56.2740   30.9550   44.8290 N   0  0  0  0  0  0  0  0  0  0  0  0
   57.4340   30.9780   45.4110 C   0  0  0  0  0  0  0  0  0  0  0  0
   58.3230   29.9400   45.4160 N   0  0  0  0  0  0  0  0  0  0  0  0
   58.2200   28.6190   44.7770 C   0  0  0  0  0  0  0  0  0  0  0  0
   58.0882   28.7546   43.6934 H   0  0  0  0  0  0  0  0  0  0  0  0
   59.1417   28.0578   44.9902 H   0  0  0  0  0  0  0  0  0  0  0  0
   57.0500   27.8360   45.3200 C   0  0  0  0  0  0  0  0  0  0  0  0
   55.9010   28.3530   45.2440 O   0  0  0  0  0  0  0  0  0  0  0  0
   57.2000   26.5310   45.9250 N   0  0  0  0  0  0  0  0  0  0  0  0
   55.9980   25.7860   46.3090 C   0  0  0  0  0  0  0  0  0  0  0  0
   55.9282   25.7428   47.4059 H   0  0  0  0  0  0  0  0  0  0  0  0
   55.1086   26.2914   45.9047 H   0  0  0  0  0  0  0  0  0  0  0  0
   56.0549   24.7646   45.9047 H   0  0  0  0  0  0  0  0  0  0  0  0
   58.5260   25.9610   46.1820 C   0  0  0  0  0  0  0  0  0  0  0  0
   58.6906   25.8902   47.2673 H   0  0  0  0  0  0  0  0  0  0  0  0
   58.5865   24.9574   45.7358 H   0  0  0  0  0  0  0  0  0  0  0  0
   59.2959   26.6077   45.7358 H   0  0  0  0  0  0  0  0  0  0  0  0
   59.3810   30.4260   46.1040 C   0  0  0  0  0  0  0  0  0  0  0  0
   60.6070   29.8130   46.3770 C   0  0  0  0  0  0  0  0  0  0  0  0
   60.8215   28.7923   46.0275 H   0  0  0  0  0  0  0  0  0  0  0  0
   61.5580   30.5430   47.1130 C   0  0  0  0  0  0  0  0  0  0  0  0
   62.5302   30.0870   47.3516 H   0  0  0  0  0  0  0  0  0  0  0  0
   61.2750   31.8560   47.5480 C   0  0  0  0  0  0  0  0  0  0  0  0
   62.0256   32.4132   48.1278 H   0  0  0  0  0  0  0  0  0  0  0  0
   60.0400   32.4560   47.2450 C   0  0  0  0  0  0  0  0  0  0  0  0
   59.8108   33.4813   47.5710 H   0  0  0  0  0  0  0  0  0  0  0  0
   59.1140   31.7060   46.5160 C   0  0  0  0  0  0  0  0  0  0  0  0
   57.8900   32.0680   46.0840 N   0  0  0  0  0  0  0  0  0  0  0  0
   57.1960   33.3390   46.3150 C   0  0  0  0  0  0  0  0  0  0  0  0
   56.1178   33.1457   46.4155 H   0  0  0  0  0  0  0  0  0  0  0  0
   57.5968   33.7921   47.2337 H   0  0  0  0  0  0  0  0  0  0  0  0
   57.4230   34.3160   45.1530 C   0  0  0  0  0  0  0  0  0  0  0  0
   56.9376   33.9137   44.2516 H   0  0  0  0  0  0  0  0  0  0  0  0
   56.9930   35.2873   45.4386 H   0  0  0  0  0  0  0  0  0  0  0  0
   58.9140   34.5280   44.8590 C   0  0  0  0  0  0  0  0  0  0  0  0
   59.4082   33.5482   44.7832 H   0  0  0  0  0  0  0  0  0  0  0  0
   59.0085   35.0826   43.9137 H   0  0  0  0  0  0  0  0  0  0  0  0
   59.5820   35.3390   45.9660 C   0  0  0  0  0  0  0  0  0  0  0  0
   59.2642   34.9532   46.9459 H   0  0  0  0  0  0  0  0  0  0  0  0
   60.6749   35.2531   45.8750 H   0  0  0  0  0  0  0  0  0  0  0  0
   59.2883   36.3952   45.8750 H   0  0  0  0  0  0  0  0  0  0  0  0
  1  2  1  0
  2  3  2  0
  3  4  1  0
  4  5  1  0
  5  6  1  0
  5  7  1  0
  5  8  1  0
  8  9  2  0
  8 10  1  0
 10 11  1  0
 11 12  1  0
 11 13  1  0
 11 14  1  0
 10 15  1  0
 15 16  1  0
 15 17  1  0
 15 18  1  0
  4 19  1  0
 19 20  2  0
 20 21  1  0
 20 22  1  0
 22 23  1  0
 22 24  2  0
 24 25  1  0
 24 26  1  0
 26 27  1  0
 26 28  2  0
 28 29  1  0
 29 30  1  0
 30 31  1  0
 30 32  1  0
 30 33  1  0
 33 34  1  0
 33 35  1  0
 33 36  1  0
 36 37  1  0
 36 38  1  0
 36 39  1  0
 39 40  1  0
 39 41  1  0
 39 42  1  0
 29  3  1  0
 28 19  1  0
M  END
>  <UniqueID>  (18) 
18

>  <SMILES>  (18) 
[H]/N=c1/n(CCCC)c2ccccc2n1CC(=O)N(C)C

>  <Energy>  (18) 
73.06370110281514

>  <Genealogy>  (18) 
[H]/N=c1/n(CCCC)c2ccccc2n1CC(=O)N(C)C (cis-trans isomerization)
[H]/N=c1/n(CCCC)c2ccccc2n1CC(=O)N(C)C (3D coordinates assigned)
[H]/N=c1/n(CCCC)c2ccccc2n1CC(=O)N(C)C (optimized conformer: 73.06370110281514 kcal/mol)

>  <smiles>  (18) 
CCCCn1c(=N)n(CC(=O)N(C)C)c2ccccc21

>  <score_type>  (18) 
oracle

>  <origin>  (18) 
adg

>  <m_score__min__energy>  (18) 
-6.0999999999999996

>  <m_primary>  (18) 
energy

$$$$
18:0
     RDKit          3D

 37 38  0  0  0  0  0  0  0  0999 V2000
   56.3380   27.1410   45.6400 O   0  0  0  0  0  0  0  0  0  0  0  0
   56.6590   28.3480   45.4580 C   0  0  0  0  0  0  0  0  0  0  0  0
   55.6630   29.3070   45.0840 N   0  0  0  0  0  0  0  0  0  0  0  0
   55.4060   29.7160   43.7060 C   0  0  0  0  0  0  0  0  0  0  0  0
   56.6990   30.1640   43.0070 C   0  0  0  0  0  0  0  0  0  0  0  0
   57.4220   31.2910   43.7560 C   0  0  0  0  0  0  0  0  0  0  0  0
   56.6430   31.7160   44.9280 N   0  0  0  0  0  0  0  0  0  0  0  0
   56.8510   33.1360   45.2460 C   0  0  0  0  0  0  0  0  0  0  0  0
   58.1350   33.3640   46.0080 C   0  0  0  0  0  0  0  0  0  0  0  0
   59.2630   33.8820   45.3510 C   0  0  0  0  0  0  0  0  0  0  0  0
   60.4440   34.1190   46.0600 C   0  0  0  0  0  0  0  0  0  0  0  0
   60.5070   33.8450   47.4290 C   0  0  0  0  0  0  0  0  0  0  0  0
   59.3860   33.3360   48.0930 C   0  0  0  0  0  0  0  0  0  0  0  0
   59.4690   32.9710   49.9660 Br  0  0  0  0  0  0  0  0  0  0  0  0
   58.2010   33.0970   47.3860 C   0  0  0  0  0  0  0  0  0  0  0  0
   58.0620   28.7620   45.6300 C   0  0  0  0  0  0  0  0  0  0  0  0
   59.0960   28.1860   44.8750 C   0  0  0  0  0  0  0  0  0  0  0  0
   60.3770   28.5930   45.0740 N   0  0  0  0  0  0  0  0  0  0  0  0
   60.6800   29.5470   45.9910 C   0  0  0  0  0  0  0  0  0  0  0  0
   59.6560   30.1220   46.7450 C   0  0  0  0  0  0  0  0  0  0  0  0
   58.3750   29.7170   46.5490 N   0  0  0  0  0  0  0  0  0  0  0  0
   54.9760   28.8670   43.1544 H   0  0  0  0  0  0  0  0  0  0  0  0
   54.7065   30.5649   43.7202 H   0  0  0  0  0  0  0  0  0  0  0  0
   57.3761   29.3002   42.9339 H   0  0  0  0  0  0  0  0  0  0  0  0
   56.4215   30.5511   42.0155 H   0  0  0  0  0  0  0  0  0  0  0  0
   58.4070   30.9308   44.0878 H   0  0  0  0  0  0  0  0  0  0  0  0
   57.5394   32.1492   43.0779 H   0  0  0  0  0  0  0  0  0  0  0  0
   56.9190   31.1320   45.7530 H   0  0  0  0  0  0  0  0  0  0  0  0
   56.8890   33.7081   44.3072 H   0  0  0  0  0  0  0  0  0  0  0  0
   56.0161   33.4674   45.8810 H   0  0  0  0  0  0  0  0  0  0  0  0
   59.2169   34.1021   44.2742 H   0  0  0  0  0  0  0  0  0  0  0  0
   61.3254   34.5219   45.5396 H   0  0  0  0  0  0  0  0  0  0  0  0
   61.4383   34.0297   47.9845 H   0  0  0  0  0  0  0  0  0  0  0  0
   57.3198   32.6993   47.9107 H   0  0  0  0  0  0  0  0  0  0  0  0
   58.8708   27.4108   44.1278 H   0  0  0  0  0  0  0  0  0  0  0  0
   61.7230   29.8639   46.1384 H   0  0  0  0  0  0  0  0  0  0  0  0
   59.8848   30.8967   47.4917 H   0  0  0  0  0  0  0  0  0  0  0  0
  1  2  2  0
  2  3  1  0
  3  4  1  0
  4  5  1  0
  5  6  1  0
  6  7  1  0
  7  8  1  0
  8  9  1  0
  9 10  2  0
 10 11  1  0
 11 12  2  0
 12 13  1  0
 13 14  1  0
 13 15  2  0
  2 16  1  0
 16 17  2  0
 17 18  1  0
 18 19  2  0
 19 20  1  0
 20 21  2  0
 15  9  1  0
 21 16  1  0
  4 22  1  0
  4 23  1  0
  5 24  1  0
  5 25  1  0
  6 26  1  0
  6 27  1  0
  7 28  1  0
  8 29  1  0
  8 30  1  0
 10 31  1  0
 11 32  1  0
 12 33  1  0
 15 34  1  0
 17 35  1  0
 19 36  1  0
 20 37  1  0
M  CHG  1   3  -1
M  END
>  <UniqueID>  (19) 
19

>  <SMILES>  (19) 
O=C([N-]CCCNCc1cccc(Br)c1)c1cnccn1

>  <Energy>  (19) 
32.52941836636277

>  <Genealogy>  (19) 
O=C([N-]CCCNCc1cccc(Br)c1)c1cnccn1 (protonated)
O=C([N-]CCCNCc1cccc(Br)c1)c1cnccn1 (3D coordinates assigned)
O=C([N-]CCCNCc1cccc(Br)c1)c1cnccn1 (optimized conformer: 32.52941836636277 kcal/mol)

>  <smiles>  (19) 
O=C(NCCCNCc1cccc(Br)c1)c1cnccn1

>  <score_type>  (19) 
oracle

>  <origin>  (19) 
adg

>  <m_score__min__energy>  (19) 
-9.6699999999999999

>  <m_primary>  (19) 
energy

$$$$
19:0
     RDKit          3D

 60 63  0  0  0  0  0  0  0  0999 V2000
   60.6760   28.9500   47.2900 O   0  0  0  0  0  0  0  0  0  0  0  0
   59.6700   28.9190   48.0460 C   0  0  0  0  0  0  0  0  0  0  0  0
   59.8640   29.0410   49.5270 C   0  0  0  0  0  0  0  0  0  0  0  0
   58.5440   30.0820   50.2320 S   0  0  0  0  0  0  0  0  0  0  0  0
   58.9910   31.5360   49.2570 C   0  0  0  0  0  0  0  0  0  0  0  0
   58.5050   31.6220   47.9890 N   0  0  0  0  0  0  0  0  0  0  0  0
   58.7400   32.7090   47.2110 C   0  0  0  0  0  0  0  0  0  0  0  0
   58.2110   32.7850   45.9120 C   0  0  0  0  0  0  0  0  0  0  0  0
   58.4450   33.9120   45.1210 C   0  0  0  0  0  0  0  0  0  0  0  0
   59.2090   34.9700   45.6190 C   0  0  0  0  0  0  0  0  0  0  0  0
   59.7420   34.9050   46.9100 C   0  0  0  0  0  0  0  0  0  0  0  0
   59.5110   33.7730   47.7140 C   0  0  0  0  0  0  0  0  0  0  0  0
   60.0330   33.6610   49.0130 C   0  0  0  0  0  0  0  0  0  0  0  0
   60.7300   34.6030   49.4860 O   0  0  0  0  0  0  0  0  0  0  0  0
   59.7910   32.5350   49.7650 N   0  0  0  0  0  0  0  0  0  0  0  0
   60.4060   32.4180   51.1050 C   0  0  0  0  0  0  0  0  0  0  0  0
   61.9230   32.2180   50.9960 C   0  0  0  0  0  0  0  0  0  0  0  0
   62.2870   31.1190   49.9850 C   0  0  0  0  0  0  0  0  0  0  0  0
   63.2720   31.5860   48.9840 N   0  0  0  0  0  0  0  0  0  0  0  0
   63.9650   32.8190   49.4330 C   0  0  0  0  0  0  0  0  0  0  0  0
   63.3950   34.0780   48.7540 C   0  0  0  0  0  0  0  0  0  0  0  0
   63.4930   34.0530   47.3360 O   0  0  0  0  0  0  0  0  0  0  0  0
   63.4450   32.7450   46.7820 C   0  0  0  0  0  0  0  0  0  0  0  0
   62.6600   31.7380   47.6410 C   0  0  0  0  0  0  0  0  0  0  0  0
   58.3680   28.8040   47.4600 N   0  0  0  0  0  0  0  0  0  0  0  0
   58.0810   28.0870   46.2230 C   0  0  0  0  0  0  0  0  0  0  0  0
   57.5770   29.0550   45.1910 C   0  0  0  0  0  0  0  0  0  0  0  0
   58.4760   29.9050   44.5240 C   0  0  0  0  0  0  0  0  0  0  0  0
   58.0140   30.7910   43.5470 C   0  0  0  0  0  0  0  0  0  0  0  0
   56.6540   30.8310   43.2240 C   0  0  0  0  0  0  0  0  0  0  0  0
   55.7560   29.9800   43.8740 C   0  0  0  0  0  0  0  0  0  0  0  0
   56.2140   29.0900   44.8510 C   0  0  0  0  0  0  0  0  0  0  0  0
   59.8261   28.0415   49.9849 H   0  0  0  0  0  0  0  0  0  0  0  0
   60.8416   29.5022   49.7309 H   0  0  0  0  0  0  0  0  0  0  0  0
   57.9190   30.8380   47.6190 H   0  0  0  0  0  0  0  0  0  0  0  0
   57.6098   31.9533   45.5160 H   0  0  0  0  0  0  0  0  0  0  0  0
   58.0273   33.9665   44.1049 H   0  0  0  0  0  0  0  0  0  0  0  0
   59.3918   35.8565   44.9940 H   0  0  0  0  0  0  0  0  0  0  0  0
   60.3432   35.7404   47.2982 H   0  0  0  0  0  0  0  0  0  0  0  0
   60.2040   33.3366   51.6753 H   0  0  0  0  0  0  0  0  0  0  0  0
   59.9724   31.5454   51.6155 H   0  0  0  0  0  0  0  0  0  0  0  0
   62.3838   33.1636   50.6741 H   0  0  0  0  0  0  0  0  0  0  0  0
   62.2971   31.9093   51.9833 H   0  0  0  0  0  0  0  0  0  0  0  0
   62.7133   30.2635   50.5295 H   0  0  0  0  0  0  0  0  0  0  0  0
   61.3692   30.8347   49.4494 H   0  0  0  0  0  0  0  0  0  0  0  0
   63.8457   32.9174   50.5221 H   0  0  0  0  0  0  0  0  0  0  0  0
   65.0262   32.7334   49.1563 H   0  0  0  0  0  0  0  0  0  0  0  0
   62.3336   34.1706   49.0278 H   0  0  0  0  0  0  0  0  0  0  0  0
   63.9931   34.9323   49.1039 H   0  0  0  0  0  0  0  0  0  0  0  0
   62.9676   32.8041   45.7928 H   0  0  0  0  0  0  0  0  0  0  0  0
   64.4816   32.3810   46.7266 H   0  0  0  0  0  0  0  0  0  0  0  0
   61.6258   32.0944   47.7563 H   0  0  0  0  0  0  0  0  0  0  0  0
   62.6797   30.7606   47.1368 H   0  0  0  0  0  0  0  0  0  0  0  0
   58.9994   27.6050   45.8566 H   0  0  0  0  0  0  0  0  0  0  0  0
   57.3157   27.3198   46.4120 H   0  0  0  0  0  0  0  0  0  0  0  0
   59.5472   29.8727   44.7719 H   0  0  0  0  0  0  0  0  0  0  0  0
   58.7209   31.4577   43.0315 H   0  0  0  0  0  0  0  0  0  0  0  0
   56.2910   31.5323   42.4583 H   0  0  0  0  0  0  0  0  0  0  0  0
   54.6869   30.0102   43.6168 H   0  0  0  0  0  0  0  0  0  0  0  0
   55.5055   28.4158   45.3544 H   0  0  0  0  0  0  0  0  0  0  0  0
  1  2  2  0
  2  3  1  0
  3  4  1  0
  4  5  1  0
  5  6  2  0
  6  7  1  0
  7  8  2  0
  8  9  1  0
  9 10  2  0
 10 11  1  0
 11 12  2  0
 12 13  1  0
 13 14  2  0
 13 15  1  0
 15 16  1  0
 16 17  1  0
 17 18  1  0
 18 19  1  0
 19 20  1  0
 20 21  1  0
 21 22  1  0
 22 23  1  0
 23 24  1  0
  2 25  1  0
 25 26  1  0
 26 27  1  0
 27 28  2  0
 28 29  1  0
 29 30  2  0
 30 31  1  0
 31 32  2  0
 15  5  1  0
 24 19  1  0
 32 27  1  0
 12  7  1  0
  3 33  1  0
  3 34  1  0
  6 35  1  0
  8 36  1  0
  9 37  1  0
 10 38  1  0
 11 39  1  0
 16 40  1  0
 16 41  1  0
 17 42  1  0
 17 43  1  0
 18 44  1  0
 18 45  1  0
 20 46  1  0
 20 47  1  0
 21 48  1  0
 21 49  1  0
 23 50  1  0
 23 51  1  0
 24 52  1  0
 24 53  1  0
 26 54  1  0
 26 55  1  0
 28 56  1  0
 29 57  1  0
 30 58  1  0
 31 59  1  0
 32 60  1  0
M  CHG  2   6   1  25  -1
M  END
>  <UniqueID>  (20) 
20

>  <SMILES>  (20) 
O=C(CSc1[nH+]c2ccccc2c(=O)n1CCCN1CCOCC1)[N-]Cc1ccccc1

>  <Energy>  (20) 
75.59165256351771

>  <Genealogy>  (20) 
O=C(CSc1[nH+]c2ccccc2c(=O)n1CCCN1CCOCC1)[N-]Cc1ccccc1 (protonated)
O=C(CSc1[nH+]c2ccccc2c(=O)n1CCCN1CCOCC1)[N-]Cc1ccccc1 (3D coordinates assigned)
O=C(CSc1[nH+]c2ccccc2c(=O)n1CCCN1CCOCC1)[N-]Cc1ccccc1 (nonaromatic ring conformer: 75.59165256351771 kcal/mol)

>  <smiles>  (20) 
O=C(CSc1nc2ccccc2c(=O)n1CCCN1CCOCC1)NCc1ccccc1

>  <score_type>  (20) 
oracle

>  <origin>  (20) 
adg

>  <m_score__min__energy>  (20) 
-9.9399999999999995

>  <m_primary>  (20) 
energy

$$$$
20:0
     RDKit          3D

 47 50  0  0  0  0  0  0  0  0999 V2000
   57.1540   21.9140   45.1070 C   0  0  0  0  0  0  0  0  0  0  0  0
   56.7960   23.3620   45.2900 C   0  0  0  0  0  0  0  0  0  0  0  0
   55.5140   23.7460   45.6350 C   0  0  0  0  0  0  0  0  0  0  0  0
   55.1680   25.0450   45.8020 N   0  0  0  0  0  0  0  0  0  0  0  0
   56.0950   26.0080   45.6290 C   0  0  0  0  0  0  0  0  0  0  0  0
   56.0400   27.3300   45.7310 N   0  0  0  0  0  0  0  0  0  0  0  0
   57.2270   27.9100   45.4760 C   0  0  0  0  0  0  0  0  0  0  0  0
   57.5090   29.3390   45.5210 C   0  0  0  0  0  0  0  0  0  0  0  0
   56.9960   30.1240   44.5130 C   0  0  0  0  0  0  0  0  0  0  0  0
   57.1670   31.4850   44.5160 C   0  0  0  0  0  0  0  0  0  0  0  0
   57.8680   32.1410   45.5450 C   0  0  0  0  0  0  0  0  0  0  0  0
   57.9070   33.5820   45.4540 C   0  0  0  0  0  0  0  0  0  0  0  0
   56.9630   34.1370   44.8170 O   0  0  0  0  0  0  0  0  0  0  0  0
   58.9430   34.3910   46.0510 N   0  0  0  0  0  0  0  0  0  0  0  0
   59.5900   35.4330   45.2400 C   0  0  0  0  0  0  0  0  0  0  0  0
   59.4470   34.1720   47.3700 C   0  0  0  0  0  0  0  0  0  0  0  0
   60.7700   33.5820   47.4310 C   0  0  0  0  0  0  0  0  0  0  0  0
   61.8760   34.0150   46.6930 C   0  0  0  0  0  0  0  0  0  0  0  0
   63.0950   33.3680   46.7440 C   0  0  0  0  0  0  0  0  0  0  0  0
   63.2540   32.2530   47.5440 C   0  0  0  0  0  0  0  0  0  0  0  0
   62.1940   31.8030   48.2790 C   0  0  0  0  0  0  0  0  0  0  0  0
   60.9780   32.4570   48.2210 C   0  0  0  0  0  0  0  0  0  0  0  0
   58.3690   31.3530   46.5280 C   0  0  0  0  0  0  0  0  0  0  0  0
   58.1980   29.9630   46.5270 C   0  0  0  0  0  0  0  0  0  0  0  0
   58.0560   26.8790   45.1990 N   0  0  0  0  0  0  0  0  0  0  0  0
   57.4000   25.7060   45.2830 C   0  0  0  0  0  0  0  0  0  0  0  0
   57.7130   24.3760   45.1230 C   0  0  0  0  0  0  0  0  0  0  0  0
   57.2717   21.4381   46.0917 H   0  0  0  0  0  0  0  0  0  0  0  0
   56.3543   21.4064   44.5477 H   0  0  0  0  0  0  0  0  0  0  0  0
   58.0981   21.8376   44.5477 H   0  0  0  0  0  0  0  0  0  0  0  0
   54.7480   22.9698   45.7790 H   0  0  0  0  0  0  0  0  0  0  0  0
   55.1470   27.8340   45.9860 H   0  0  0  0  0  0  0  0  0  0  0  0
   56.4391   29.6514   43.6906 H   0  0  0  0  0  0  0  0  0  0  0  0
   56.7450   32.0794   43.6923 H   0  0  0  0  0  0  0  0  0  0  0  0
   60.0531   36.1788   45.9029 H   0  0  0  0  0  0  0  0  0  0  0  0
   60.3635   34.9761   44.6052 H   0  0  0  0  0  0  0  0  0  0  0  0
   58.8375   35.9236   44.6052 H   0  0  0  0  0  0  0  0  0  0  0  0
   59.4820   35.1422   47.8872 H   0  0  0  0  0  0  0  0  0  0  0  0
   58.7661   33.4489   47.8428 H   0  0  0  0  0  0  0  0  0  0  0  0
   61.7715   34.9013   46.0499 H   0  0  0  0  0  0  0  0  0  0  0  0
   63.9403   33.7409   46.1470 H   0  0  0  0  0  0  0  0  0  0  0  0
   64.2227   31.7337   47.5886 H   0  0  0  0  0  0  0  0  0  0  0  0
   62.3089   30.9163   48.9197 H   0  0  0  0  0  0  0  0  0  0  0  0
   60.1419   32.0724   48.8235 H   0  0  0  0  0  0  0  0  0  0  0  0
   58.9275   31.8203   47.3525 H   0  0  0  0  0  0  0  0  0  0  0  0
   58.6231   29.3638   47.3457 H   0  0  0  0  0  0  0  0  0  0  0  0
   58.7444   24.1098   44.8487 H   0  0  0  0  0  0  0  0  0  0  0  0
  1  2  1  0
  2  3  2  0
  3  4  1  0
  4  5  2  0
  5  6  1  0
  6  7  1  0
  7  8  1  0
  8  9  2  0
  9 10  1  0
 10 11  2  0
 11 12  1  0
 12 13  2  0
 12 14  1  0
 14 15  1  0
 14 16  1  0
 16 17  1  0
 17 18  2  0
 18 19  1  0
 19 20  2  0
 20 21  1  0
 21 22  2  0
 11 23  1  0
 23 24  2  0
  7 25  2  0
 25 26  1  0
 26 27  2  0
 27  2  1  0
 26  5  1  0
 24  8  1  0
 22 17  1  0
  1 28  1  0
  1 29  1  0
  1 30  1  0
  3 31  1  0
  6 32  1  0
  9 33  1  0
 10 34  1  0
 15 35  1  0
 15 36  1  0
 15 37  1  0
 16 38  1  0
 16 39  1  0
 18 40  1  0
 19 41  1  0
 20 42  1  0
 21 43  1  0
 22 44  1  0
 23 45  1  0
 24 46  1  0
 27 47  1  0
M  END
>  <smiles>  (21) 
Cc1cnc2[nH]c(-c3ccc(C(=O)N(C)Cc4ccccc4)cc3)nc2c1

>  <score_type>  (21) 
oracle

>  <origin>  (21) 
adg

>  <m_score__min__energy>  (21) 
-9.0999999999999996

>  <m_primary>  (21) 
energy

$$$$
21:0
     RDKit          3D

 51 54  0  0  0  0  0  0  0  0999 V2000
   56.4260   30.5080   52.4090 C   0  0  0  0  0  0  0  0  0  0  0  0
   57.2850   30.1160   51.3440 O   0  0  0  0  0  0  0  0  0  0  0  0
   58.1580   30.9850   50.6730 C   0  0  0  0  0  0  0  0  0  0  0  0
   58.2380   32.3120   51.1060 C   0  0  0  0  0  0  0  0  0  0  0  0
   59.0680   33.2260   50.4490 C   0  0  0  0  0  0  0  0  0  0  0  0
   59.8370   32.8290   49.3390 C   0  0  0  0  0  0  0  0  0  0  0  0
   60.6580   33.8660   48.5810 C   0  0  2  0  0  0  0  0  0  0  0  0
   59.9990   34.2530   47.2400 C   0  0  0  0  0  0  0  0  0  0  0  0
   58.5970   33.8170   47.1860 N   0  0  0  0  0  0  0  0  0  0  0  0
   58.0730   33.6380   45.5390 S   0  0  0  0  0  0  0  0  0  0  0  0
   59.0300   34.3600   44.6310 O   0  0  0  0  0  0  0  0  0  0  0  0
   56.7040   34.2350   45.3640 O   0  0  0  0  0  0  0  0  0  0  0  0
   58.0560   31.9270   45.1210 C   0  0  0  0  0  0  0  0  0  0  0  0
   57.1640   31.4570   44.1460 C   0  0  0  0  0  0  0  0  0  0  0  0
   57.1890   30.1130   43.7590 C   0  0  0  0  0  0  0  0  0  0  0  0
   58.1060   29.2310   44.3430 C   0  0  0  0  0  0  0  0  0  0  0  0
   58.1500   27.5500   43.8440 Cl  0  0  0  0  0  0  0  0  0  0  0  0
   58.9930   29.6950   45.3210 C   0  0  0  0  0  0  0  0  0  0  0  0
   58.9690   31.0390   45.7090 C   0  0  0  0  0  0  0  0  0  0  0  0
   62.1150   33.4880   48.4110 C   0  0  0  0  0  0  0  0  0  0  0  0
   62.8230   33.2470   47.2320 C   0  0  0  0  0  0  0  0  0  0  0  0
   64.1290   33.0150   47.4970 N   0  0  0  0  0  0  0  0  0  0  0  0
   64.2610   33.1120   48.8290 C   0  0  0  0  0  0  0  0  0  0  0  0
   65.4310   32.9690   49.5740 C   0  0  0  0  0  0  0  0  0  0  0  0
   65.3470   33.1240   50.9690 C   0  0  0  0  0  0  0  0  0  0  0  0
   64.1090   33.4170   51.5820 C   0  0  0  0  0  0  0  0  0  0  0  0
   62.9450   33.5600   50.8040 C   0  0  0  0  0  0  0  0  0  0  0  0
   63.0580   33.4000   49.4220 C   0  0  0  0  0  0  0  0  0  0  0  0
   59.7730   31.4850   48.9240 C   0  0  0  0  0  0  0  0  0  0  0  0
   58.9440   30.5730   49.5830 C   0  0  0  0  0  0  0  0  0  0  0  0
   56.9107   30.2868   53.3714 H   0  0  0  0  0  0  0  0  0  0  0  0
   56.2246   31.5872   52.3394 H   0  0  0  0  0  0  0  0  0  0  0  0
   55.4788   29.9530   52.3394 H   0  0  0  0  0  0  0  0  0  0  0  0
   57.6429   32.6400   51.9710 H   0  0  0  0  0  0  0  0  0  0  0  0
   59.1204   34.2660   50.8034 H   0  0  0  0  0  0  0  0  0  0  0  0
   60.6628   34.7619   49.2193 H   0  0  0  0  0  0  0  0  0  0  0  0
   60.0385   35.3462   47.1241 H   0  0  0  0  0  0  0  0  0  0  0  0
   60.5481   33.7542   46.4278 H   0  0  0  0  0  0  0  0  0  0  0  0
   58.5210   32.8800   47.6450 H   0  0  0  0  0  0  0  0  0  0  0  0
   56.4427   32.1473   43.6843 H   0  0  0  0  0  0  0  0  0  0  0  0
   56.4870   29.7486   42.9946 H   0  0  0  0  0  0  0  0  0  0  0  0
   59.7101   29.0020   45.7853 H   0  0  0  0  0  0  0  0  0  0  0  0
   59.6682   31.4005   46.4775 H   0  0  0  0  0  0  0  0  0  0  0  0
   62.3795   33.2459   46.2254 H   0  0  0  0  0  0  0  0  0  0  0  0
   64.8820   32.8140   46.8010 H   0  0  0  0  0  0  0  0  0  0  0  0
   66.3901   32.7420   49.0855 H   0  0  0  0  0  0  0  0  0  0  0  0
   66.2510   33.0164   51.5865 H   0  0  0  0  0  0  0  0  0  0  0  0
   64.0541   33.5342   52.6744 H   0  0  0  0  0  0  0  0  0  0  0  0
   61.9760   33.7908   51.2707 H   0  0  0  0  0  0  0  0  0  0  0  0
   60.3821   31.1492   48.0718 H   0  0  0  0  0  0  0  0  0  0  0  0
   58.9064   29.5264   49.2466 H   0  0  0  0  0  0  0  0  0  0  0  0
  1  2  1  0
  2  3  1  0
  3  4  2  0
  4  5  1  0
  5  6  2  0
  6  7  1  0
  7  8  1  0
  8  9  1  0
  9 10  1  0
 10 11  2  0
 10 12  2  0
 10 13  1  0
 13 14  2  0
 14 15  1  0
 15 16  2  0
 16 17  1  0
 16 18  1  0
 18 19  2  0
  7 20  1  0
 20 21  2  0
 21 22  1  0
 22 23  1  0
 23 24  2  0
 24 25  1  0
 25 26  2  0
 26 27  1  0
 27 28  2  0
  6 29  1  0
 29 30  2  0
 30  3  1  0
 19 13  1  0
 28 20  1  0
 28 23  1  0
  1 31  1  0
  1 32  1  0
  1 33  1  0
  4 34  1  0
  5 35  1  0
  7 36  1  1
  8 37  1  0
  8 38  1  0
  9 39  1  0
 14 40  1  0
 15 41  1  0
 18 42  1  0
 19 43  1  0
 21 44  1  0
 22 45  1  0
 24 46  1  0
 25 47  1  0
 26 48  1  0
 27 49  1  0
 29 50  1  0
 30 51  1  0
M  END
>  <UniqueID>  (22) 
21

>  <SMILES>  (22) 
COc1ccc([C@H](CNS(=O)(=O)c2ccc(Cl)cc2)c2c[nH]c3ccccc23)cc1

>  <Energy>  (22) 
84.67366572665586

>  <Genealogy>  (22) 
COc1ccc([C@H](CNS(=O)(=O)c2ccc(Cl)cc2)c2c[nH]c3ccccc23)cc1 (chirality)
COc1ccc([C@H](CNS(=O)(=O)c2ccc(Cl)cc2)c2c[nH]c3ccccc23)cc1 (3D coordinates assigned)
COc1ccc([C@H](CNS(=O)(=O)c2ccc(Cl)cc2)c2c[nH]c3ccccc23)cc1 (optimized conformer: 84.67366572665586 kcal/mol)

>  <smiles>  (22) 
COc1ccc(C(CNS(=O)(=O)c2ccc(Cl)cc2)c2c[nH]c3ccccc23)cc1

>  <score_type>  (22) 
oracle

>  <origin>  (22) 
adg

>  <m_score__min__energy>  (22) 
-9.9000000000000004

>  <m_primary>  (22) 
energy

$$$$
22:0
     RDKit          3D

 40 43  0  0  0  0  0  0  0  0999 V2000
   56.6420   22.8460   48.0510 C   0  0  0  0  0  0  0  0  0  0  0  0
   57.1960   23.0270   46.7030 N   0  0  0  0  0  0  0  0  0  0  0  0
   57.6720   21.8490   45.9670 C   0  0  0  0  0  0  0  0  0  0  0  0
   57.2690   24.3490   46.1050 C   0  0  0  0  0  0  0  0  0  0  0  0
   56.8910   25.5030   46.8420 C   0  0  0  0  0  0  0  0  0  0  0  0
   56.9660   26.7730   46.2570 C   0  0  0  0  0  0  0  0  0  0  0  0
   57.4230   26.8750   44.9820 N   0  0  0  0  0  0  0  0  0  0  0  0
   57.5780   27.9370   44.1690 C   0  0  0  0  0  0  0  0  0  0  0  0
   57.3640   29.3570   44.5130 C   0  0  0  0  0  0  0  0  0  0  0  0
   56.2380   30.1080   44.2380 C   0  0  0  0  0  0  0  0  0  0  0  0
   56.4470   31.3790   44.6310 N   0  0  0  0  0  0  0  0  0  0  0  0
   57.6690   31.4570   45.1370 N   0  0  0  0  0  0  0  0  0  0  0  0
   58.2500   32.6820   45.6330 C   0  0  0  0  0  0  0  0  0  0  0  0
   58.3830   32.8850   47.0190 C   0  0  0  0  0  0  0  0  0  0  0  0
   58.9480   34.0650   47.5130 C   0  0  0  0  0  0  0  0  0  0  0  0
   59.3890   35.0530   46.6310 C   0  0  0  0  0  0  0  0  0  0  0  0
   59.2690   34.8620   45.2530 C   0  0  0  0  0  0  0  0  0  0  0  0
   58.7060   33.6840   44.7530 C   0  0  0  0  0  0  0  0  0  0  0  0
   58.2610   30.2450   45.0690 C   0  0  0  0  0  0  0  0  0  0  0  0
   57.9970   27.4640   42.9370 C   0  0  0  0  0  0  0  0  0  0  0  0
   58.1220   26.1170   42.9800 N   0  0  0  0  0  0  0  0  0  0  0  0
   57.7620   25.8040   44.2420 C   0  0  0  0  0  0  0  0  0  0  0  0
   57.7060   24.5170   44.7680 C   0  0  0  0  0  0  0  0  0  0  0  0
   57.4085   23.0964   48.7991 H   0  0  0  0  0  0  0  0  0  0  0  0
   55.7723   23.5067   48.1818 H   0  0  0  0  0  0  0  0  0  0  0  0
   56.3302   21.7993   48.1818 H   0  0  0  0  0  0  0  0  0  0  0  0
   57.9856   21.0729   46.6806 H   0  0  0  0  0  0  0  0  0  0  0  0
   56.8608   21.4593   45.3345 H   0  0  0  0  0  0  0  0  0  0  0  0
   58.5262   22.1323   45.3345 H   0  0  0  0  0  0  0  0  0  0  0  0
   56.5373   25.3984   47.8783 H   0  0  0  0  0  0  0  0  0  0  0  0
   56.6614   27.6688   46.8180 H   0  0  0  0  0  0  0  0  0  0  0  0
   55.3168   29.7283   43.7720 H   0  0  0  0  0  0  0  0  0  0  0  0
   58.0398   32.1094   47.7195 H   0  0  0  0  0  0  0  0  0  0  0  0
   59.0451   34.2149   48.5984 H   0  0  0  0  0  0  0  0  0  0  0  0
   59.8309   35.9816   47.0214 H   0  0  0  0  0  0  0  0  0  0  0  0
   59.6184   35.6405   44.5589 H   0  0  0  0  0  0  0  0  0  0  0  0
   58.6184   33.5383   43.6662 H   0  0  0  0  0  0  0  0  0  0  0  0
   59.2827   30.0070   45.4000 H   0  0  0  0  0  0  0  0  0  0  0  0
   58.1983   28.0896   42.0549 H   0  0  0  0  0  0  0  0  0  0  0  0
   57.9950   23.6482   44.1584 H   0  0  0  0  0  0  0  0  0  0  0  0
  1  2  1  0
  2  3  1  0
  2  4  1  0
  4  5  1  0
  5  6  2  0
  6  7  1  0
  7  8  1  0
  8  9  1  0
  9 10  1  0
 10 11  2  0
 11 12  1  0
 12 13  1  0
 13 14  2  0
 14 15  1  0
 15 16  2  0
 16 17  1  0
 17 18  2  0
 12 19  1  0
  8 20  2  0
 20 21  1  0
 21 22  2  0
 22 23  1  0
 23  4  2  0
 22  7  1  0
 19  9  2  0
 18 13  1  0
  1 24  1  0
  1 25  1  0
  1 26  1  0
  3 27  1  0
  3 28  1  0
  3 29  1  0
  5 30  1  0
  6 31  1  0
 10 32  1  0
 14 33  1  0
 15 34  1  0
 16 35  1  0
 17 36  1  0
 18 37  1  0
 19 38  1  0
 20 39  1  0
 23 40  1  0
M  END
>  <UniqueID>  (23) 
22

>  <SMILES>  (23) 
CN(C)c1ccn2c(-c3cnn(-c4ccccc4)c3)cnc2c1

>  <Energy>  (23) 
116.54625998096866

>  <Genealogy>  (23) 
CN(C)c1ccn2c(-c3cnn(-c4ccccc4)c3)cnc2c1 (3D coordinates assigned)
CN(C)c1ccn2c(-c3cnn(-c4ccccc4)c3)cnc2c1 (optimized conformer: 116.54625998096866 kcal/mol)

>  <smiles>  (23) 
CN(C)c1ccn2c(-c3cnn(-c4ccccc4)c3)cnc2c1

>  <score_type>  (23) 
oracle

>  <origin>  (23) 
adg

>  <m_score__min__energy>  (23) 
-7.1900000000000004

>  <m_primary>  (23) 
energy

$$$$
23:0
     RDKit          3D

 83 88  0  0  0  0  0  0  0  0999 V2000
   66.7946   32.0848   50.5236 H   0  0  0  0  0  0  0  0  0  0  0  0
   65.6970   32.1550   50.5390 C   0  0  0  0  0  0  0  0  0  0  0  0
   64.9820   31.6800   51.6400 C   0  0  0  0  0  0  0  0  0  0  0  0
   65.5179   31.2385   52.4931 H   0  0  0  0  0  0  0  0  0  0  0  0
   63.5880   31.7640   51.6610 C   0  0  0  0  0  0  0  0  0  0  0  0
   63.0307   31.3872   52.5313 H   0  0  0  0  0  0  0  0  0  0  0  0
   62.8930   32.3270   50.5770 C   0  0  0  0  0  0  0  0  0  0  0  0
   61.4570   32.4030   50.6100 N   0  0  0  0  0  0  0  0  0  0  0  0
   60.8050   33.6460   51.0350 C   0  0  0  0  0  0  0  0  0  0  0  0
   61.1794   34.4786   50.4213 H   0  0  0  0  0  0  0  0  0  0  0  0
   61.0348   33.8218   52.0963 H   0  0  0  0  0  0  0  0  0  0  0  0
   59.2800   33.5420   50.8690 C   0  0  0  0  0  0  0  0  0  0  0  0
   58.8518   34.5551   50.8521 H   0  0  0  0  0  0  0  0  0  0  0  0
   58.8782   32.9628   51.7135 H   0  0  0  0  0  0  0  0  0  0  0  0
   58.9210   32.8470   49.6150 N   0  0  0  0  0  0  0  0  0  0  0  0
   59.3470   33.6110   48.4220 C   0  0  0  0  0  0  0  0  0  0  0  0
   60.3235   33.2359   48.0818 H   0  0  0  0  0  0  0  0  0  0  0  0
   59.4214   34.6754   48.6894 H   0  0  0  0  0  0  0  0  0  0  0  0
   58.3190   33.4540   47.2840 C   0  0  0  0  0  0  0  0  0  0  0  0
   57.7071   34.3675   47.2514 H   0  0  0  0  0  0  0  0  0  0  0  0
   57.7456   32.5449   47.5178 H   0  0  0  0  0  0  0  0  0  0  0  0
   58.8960   33.2370   45.9220 N   0  0  2  0  0  0  0  0  0  0  0  0
   59.8120   33.7480   45.9460 H   0  0  0  0  0  0  0  0  0  0  0  0
   58.1090   33.8900   44.8370 C   0  0  0  0  0  0  0  0  0  0  0  0
   58.0199   33.1850   43.9974 H   0  0  0  0  0  0  0  0  0  0  0  0
   58.6449   34.8074   44.5522 H   0  0  0  0  0  0  0  0  0  0  0  0
   56.6980   34.3050   45.2770 C   0  0  0  0  0  0  0  0  0  0  0  0
   56.6462   34.3202   46.3757 H   0  0  0  0  0  0  0  0  0  0  0  0
   56.4718   35.3077   44.8853 H   0  0  0  0  0  0  0  0  0  0  0  0
   55.9650   33.5844   44.8853 H   0  0  0  0  0  0  0  0  0  0  0  0
   59.2710   31.8250   45.5730 C   0  0  2  0  0  0  0  0  0  0  0  0
   59.9033   31.9174   44.6777 H   0  0  0  0  0  0  0  0  0  0  0  0
   58.0810   30.9270   45.0870 C   0  0  0  0  0  0  0  0  0  0  0  0
   58.1139   30.8859   43.9883 H   0  0  0  0  0  0  0  0  0  0  0  0
   57.1678   31.3932   45.4854 H   0  0  0  0  0  0  0  0  0  0  0  0
   58.0840   29.5070   45.6070 C   0  0  0  0  0  0  0  0  0  0  0  0
   59.2640   28.9140   46.1350 C   0  0  0  0  0  0  0  0  0  0  0  0
   59.2490   27.5750   46.5710 C   0  0  0  0  0  0  0  0  0  0  0  0
   60.1608   27.0985   46.9603 H   0  0  0  0  0  0  0  0  0  0  0  0
   58.0520   26.8700   46.4970 C   0  0  0  0  0  0  0  0  0  0  0  0
   57.7350   25.2970   46.9870 S   0  0  0  0  0  0  0  0  0  0  0  0
   56.0990   25.4240   46.5410 C   0  0  0  0  0  0  0  0  0  0  0  0
   55.2020   24.4930   46.6780 N   0  0  0  0  0  0  0  0  0  0  0  0
   55.4580   23.1240   47.1300 C   0  0  0  0  0  0  0  0  0  0  0  0
   56.5449   22.9591   47.1674 H   0  0  0  0  0  0  0  0  0  0  0  0
   55.0044   23.0026   48.1248 H   0  0  0  0  0  0  0  0  0  0  0  0
   54.8260   22.0780   46.1840 C   0  0  0  0  0  0  0  0  0  0  0  0
   54.9280   21.0889   46.6544 H   0  0  0  0  0  0  0  0  0  0  0  0
   53.7817   22.3913   46.0384 H   0  0  0  0  0  0  0  0  0  0  0  0
   55.4240   22.0050   44.8310 N   0  0  0  0  0  0  0  0  0  0  0  0
   56.2940   20.8310   44.6260 C   0  0  0  0  0  0  0  0  0  0  0  0
   57.0711   20.8156   45.4044 H   0  0  0  0  0  0  0  0  0  0  0  0
   55.6817   19.9190   44.6845 H   0  0  0  0  0  0  0  0  0  0  0  0
   56.9650   20.8940   43.2400 C   0  0  0  0  0  0  0  0  0  0  0  0
   58.0066   21.2273   43.3583 H   0  0  0  0  0  0  0  0  0  0  0  0
   56.9329   19.8923   42.7867 H   0  0  0  0  0  0  0  0  0  0  0  0
   56.2820   21.7980   42.3920 O   0  0  0  0  0  0  0  0  0  0  0  0
   56.4260   23.1230   42.8790 C   0  0  0  0  0  0  0  0  0  0  0  0
   57.4692   23.4403   42.7343 H   0  0  0  0  0  0  0  0  0  0  0  0
   55.7269   23.7619   42.3195 H   0  0  0  0  0  0  0  0  0  0  0  0
   56.0750   23.2450   44.3780 C   0  0  0  0  0  0  0  0  0  0  0  0
   56.9951   23.4093   44.9580 H   0  0  0  0  0  0  0  0  0  0  0  0
   55.3916   24.0940   44.5271 H   0  0  0  0  0  0  0  0  0  0  0  0
   55.7970   26.6350   46.0190 N   0  0  0  0  0  0  0  0  0  0  0  0
   56.8920   27.4390   46.0000 C   0  0  0  0  0  0  0  0  0  0  0  0
   56.8930   28.7520   45.5360 C   0  0  0  0  0  0  0  0  0  0  0  0
   55.9768   29.1957   45.1191 H   0  0  0  0  0  0  0  0  0  0  0  0
   60.5180   29.7300   46.2500 C   0  0  0  0  0  0  0  0  0  0  0  0
   61.0368   29.7461   45.2802 H   0  0  0  0  0  0  0  0  0  0  0  0
   61.1797   29.2863   47.0085 H   0  0  0  0  0  0  0  0  0  0  0  0
   60.1530   31.1560   46.6580 C   0  0  0  0  0  0  0  0  0  0  0  0
   61.0748   31.7423   46.7867 H   0  0  0  0  0  0  0  0  0  0  0  0
   59.5891   31.1215   47.6018 H   0  0  0  0  0  0  0  0  0  0  0  0
   59.4060   31.4400   49.5950 C   0  0  0  0  0  0  0  0  0  0  0  0
   59.6525   31.1754   48.5561 H   0  0  0  0  0  0  0  0  0  0  0  0
   58.5976   30.8224   50.0135 H   0  0  0  0  0  0  0  0  0  0  0  0
   60.6540   31.1850   50.4680 C   0  0  0  0  0  0  0  0  0  0  0  0
   61.2679   30.4029   49.9973 H   0  0  0  0  0  0  0  0  0  0  0  0
   60.3220   30.8671   51.4674 H   0  0  0  0  0  0  0  0  0  0  0  0
   63.6200   32.8110   49.4700 C   0  0  0  0  0  0  0  0  0  0  0  0
   62.8180   33.5700   48.0990 Cl  0  0  0  0  0  0  0  0  0  0  0  0
   65.0170   32.7200   49.4560 C   0  0  0  0  0  0  0  0  0  0  0  0
   65.5818   33.0945   48.5895 H   0  0  0  0  0  0  0  0  0  0  0  0
  1  2  1  0
  2  3  2  0
  3  4  1  0
  3  5  1  0
  5  6  1  0
  5  7  2  0
  7  8  1  0
  8  9  1  0
  9 10  1  0
  9 11  1  0
  9 12  1  0
 12 13  1  0
 12 14  1  0
 12 15  1  0
 15 16  1  0
 16 17  1  0
 16 18  1  0
 16 19  1  0
 19 20  1  0
 19 21  1  0
 19 22  1  0
 22 23  1  1
 22 24  1  0
 24 25  1  0
 24 26  1  0
 24 27  1  0
 27 28  1  0
 27 29  1  0
 27 30  1  0
 22 31  1  0
 31 32  1  6
 31 33  1  0
 33 34  1  0
 33 35  1  0
 33 36  1  0
 36 37  2  0
 37 38  1  0
 38 39  1  0
 38 40  2  0
 40 41  1  0
 41 42  1  0
 42 43  2  0
 43 44  1  0
 44 45  1  0
 44 46  1  0
 44 47  1  0
 47 48  1  0
 47 49  1  0
 47 50  1  0
 50 51  1  0
 51 52  1  0
 51 53  1  0
 51 54  1  0
 54 55  1  0
 54 56  1  0
 54 57  1  0
 57 58  1  0
 58 59  1  0
 58 60  1  0
 58 61  1  0
 61 62  1  0
 61 63  1  0
 42 64  1  0
 64 65  1  0
 65 66  2  0
 66 67  1  0
 37 68  1  0
 68 69  1  0
 68 70  1  0
 68 71  1  0
 71 72  1  0
 71 73  1  0
 15 74  1  0
 74 75  1  0
 74 76  1  0
 74 77  1  0
 77 78  1  0
 77 79  1  0
  7 80  1  0
 80 81  1  0
 80 82  2  0
 82 83  1  0
 82  2  1  0
 77  8  1  0
 71 31  1  0
 66 36  1  0
 65 40  1  0
 61 50  1  0
M  CHG  2  22   1  64  -1
M  END
>  <UniqueID>  (24) 
23

>  <SMILES>  (24) 
CC[N@@H+](CCN1CCN(c2ccccc2Cl)CC1)[C@H]1CCc2cc3s/c(=N\CCN4CCOCC4)[n-]c3cc2C1

>  <Energy>  (24) 
163.83341028208596

>  <Genealogy>  (24) 
CC[NH+](CCN1CCN(c2ccccc2Cl)CC1)C1CCc2cc3sc(=NCCN4CCOCC4)[n-]c3cc2C1 (protonated)
CC[N@@H+](CCN1CCN(c2ccccc2Cl)CC1)[C@H]1CCc2cc3sc(=NCCN4CCOCC4)[n-]c3cc2C1 (chirality)
CC[N@@H+](CCN1CCN(c2ccccc2Cl)CC1)[C@H]1CCc2cc3s/c(=N\CCN4CCOCC4)[n-]c3cc2C1 (cis-trans isomerization)
CC[N@@H+](CCN1CCN(c2ccccc2Cl)CC1)[C@H]1CCc2cc3s/c(=N\CCN4CCOCC4)[n-]c3cc2C1 (3D coordinates assigned)
CC[N@@H+](CCN1CCN(c2ccccc2Cl)CC1)[C@H]1CCc2cc3s/c(=N\CCN4CCOCC4)[n-]c3cc2C1 (nonaromatic ring conformer: 163.83341028208596 kcal/mol)

>  <smiles>  (24) 
CCN(CCN1CCN(c2ccccc2Cl)CC1)C1CCc2cc3sc(=NCCN4CCOCC4)[nH]c3cc2C1

>  <score_type>  (24) 
oracle

>  <origin>  (24) 
adg

>  <m_score__min__energy>  (24) 
-10.640000000000001

>  <m_primary>  (24) 
energy

$$$$
24:0
     RDKit          3D

 34 36  0  0  0  0  0  0  0  0999 V2000
   60.1890   30.1800   46.6480 O   0  0  0  0  0  0  0  0  0  0  0  0
   59.1610   30.0560   45.9290 C   0  0  0  0  0  0  0  0  0  0  0  0
   58.6360   31.2410   45.2280 C   0  0  0  0  0  0  0  0  0  0  0  0
   58.2930   31.3270   43.8840 C   0  0  0  0  0  0  0  0  0  0  0  0
   57.7710   32.5750   43.5250 C   0  0  0  0  0  0  0  0  0  0  0  0
   57.6870   33.4710   44.5820 C   0  0  0  0  0  0  0  0  0  0  0  0
   58.2590   32.7060   45.9660 S   0  0  0  0  0  0  0  0  0  0  0  0
   58.5330   28.7670   45.8050 N   0  0  0  0  0  0  0  0  0  0  0  0
   58.5800   27.8420   46.9440 C   0  0  0  0  0  0  0  0  0  0  0  0
   57.4050   26.8620   46.8910 C   0  0  0  0  0  0  0  0  0  0  0  0
   57.2750   26.2440   45.5640 N   0  0  0  0  0  0  0  0  0  0  0  0
   56.3200   25.1820   45.3860 C   0  0  0  0  0  0  0  0  0  0  0  0
   55.2270   25.2240   46.0130 O   0  0  0  0  0  0  0  0  0  0  0  0
   56.5920   24.0250   44.5080 C   0  0  0  0  0  0  0  0  0  0  0  0
   55.8680   23.6900   43.3690 C   0  0  0  0  0  0  0  0  0  0  0  0
   56.3060   22.5080   42.7600 C   0  0  0  0  0  0  0  0  0  0  0  0
   57.3660   21.8990   43.4180 C   0  0  0  0  0  0  0  0  0  0  0  0
   57.7530   22.8320   44.7610 S   0  0  0  0  0  0  0  0  0  0  0  0
   58.0650   26.7490   44.4330 C   0  0  0  0  0  0  0  0  0  0  0  0
   58.1360   28.2790   44.4740 C   0  0  0  0  0  0  0  0  0  0  0  0
   58.4192   30.4970   43.1732 H   0  0  0  0  0  0  0  0  0  0  0  0
   57.4565   32.8229   42.5005 H   0  0  0  0  0  0  0  0  0  0  0  0
   57.3112   34.5032   44.5242 H   0  0  0  0  0  0  0  0  0  0  0  0
   59.5235   27.2773   46.9124 H   0  0  0  0  0  0  0  0  0  0  0  0
   58.5154   28.4231   47.8757 H   0  0  0  0  0  0  0  0  0  0  0  0
   57.5656   26.0714   47.6387 H   0  0  0  0  0  0  0  0  0  0  0  0
   56.4813   27.4208   47.1021 H   0  0  0  0  0  0  0  0  0  0  0  0
   55.0332   24.2943   42.9844 H   0  0  0  0  0  0  0  0  0  0  0  0
   55.8523   22.0996   41.8449 H   0  0  0  0  0  0  0  0  0  0  0  0
   57.8657   20.9676   43.1132 H   0  0  0  0  0  0  0  0  0  0  0  0
   59.0834   26.3370   44.4892 H   0  0  0  0  0  0  0  0  0  0  0  0
   57.5837   26.4385   43.4939 H   0  0  0  0  0  0  0  0  0  0  0  0
   58.8732   28.6222   43.7333 H   0  0  0  0  0  0  0  0  0  0  0  0
   57.1360   28.6763   44.2457 H   0  0  0  0  0  0  0  0  0  0  0  0
  1  2  2  0
  2  3  1  0
  3  4  2  0
  4  5  1  0
  5  6  2  0
  6  7  1  0
  2  8  1  0
  8  9  1  0
  9 10  1  0
 10 11  1  0
 11 12  1  0
 12 13  2  0
 12 14  1  0
 14 15  2  0
 15 16  1  0
 16 17  2  0
 17 18  1  0
 11 19  1  0
 19 20  1  0
  7  3  1  0
 20  8  1  0
 18 14  1  0
  4 21  1  0
  5 22  1  0
  6 23  1  0
  9 24  1  0
  9 25  1  0
 10 26  1  0
 10 27  1  0
 15 28  1  0
 16 29  1  0
 17 30  1  0
 19 31  1  0
 19 32  1  0
 20 33  1  0
 20 34  1  0
M  END
>  <UniqueID>  (25) 
24

>  <SMILES>  (25) 
O=C(c1cccs1)N1CCN(C(=O)c2cccs2)CC1

>  <Energy>  (25) 
93.33002932691294

>  <Genealogy>  (25) 
O=C(c1cccs1)N1CCN(C(=O)c2cccs2)CC1 (3D coordinates assigned)
O=C(c1cccs1)N1CCN(C(=O)c2cccs2)CC1 (nonaromatic ring conformer: 93.33002932691294 kcal/mol)

>  <smiles>  (25) 
O=C(c1cccs1)N1CCN(C(=O)c2cccs2)CC1

>  <score_type>  (25) 
oracle

>  <origin>  (25) 
adg

>  <m_score__min__energy>  (25) 
-6.7999999999999998

>  <m_primary>  (25) 
energy

$$$$
25:0
     RDKit          3D

 61 64  0  0  0  0  0  0  0  0999 V2000
   59.6480   35.6490   46.2210 C   0  0  0  0  0  0  0  0  0  0  0  0
   59.5960   34.1710   45.9630 C   0  0  0  0  0  0  0  0  0  0  0  0
   58.6340   33.6980   45.2280 N   0  0  0  0  0  0  0  0  0  0  0  0
   58.5020   32.3070   44.8870 C   0  0  0  0  0  0  0  0  0  0  0  0
   57.4880   31.9470   43.8380 C   0  0  0  0  0  0  0  0  0  0  0  0
   59.2440   31.3760   45.5340 C   0  0  0  0  0  0  0  0  0  0  0  0
   59.0470   29.9270   45.3270 C   0  0  0  0  0  0  0  0  0  0  0  0
   59.7490   29.3350   44.4620 O   0  0  0  0  0  0  0  0  0  0  0  0
   58.0770   29.2090   46.1110 N   0  0  0  0  0  0  0  0  0  0  0  0
   57.9390   27.7770   46.1320 C   0  0  0  0  0  0  0  0  0  0  0  0
   56.7610   27.2000   45.6310 C   0  0  0  0  0  0  0  0  0  0  0  0
   56.5780   25.8130   45.6730 C   0  0  0  0  0  0  0  0  0  0  0  0
   57.5640   24.9910   46.2250 C   0  0  0  0  0  0  0  0  0  0  0  0
   58.7320   25.5550   46.7420 C   0  0  0  0  0  0  0  0  0  0  0  0
   58.9170   26.9420   46.7100 C   0  0  0  0  0  0  0  0  0  0  0  0
   60.2250   31.8000   46.6110 C   0  0  2  0  0  0  0  0  0  0  0  0
   59.6070   31.5680   47.9840 C   0  0  0  0  0  0  0  0  0  0  0  0
   58.7770   32.5290   48.5880 C   0  0  0  0  0  0  0  0  0  0  0  0
   58.2240   32.3000   49.8500 C   0  0  0  0  0  0  0  0  0  0  0  0
   58.4780   31.1000   50.5340 C   0  0  0  0  0  0  0  0  0  0  0  0
   57.9000   30.8630   51.8300 N   0  0  0  0  0  0  0  0  0  0  0  0
   58.2580   31.5340   52.8200 O   0  0  0  0  0  0  0  0  0  0  0  0
   56.9460   29.8840   52.0010 O   0  0  0  0  0  0  0  0  0  0  0  0
   59.3030   30.1370   49.9280 C   0  0  0  0  0  0  0  0  0  0  0  0
   59.8600   30.3690   48.6680 C   0  0  0  0  0  0  0  0  0  0  0  0
   60.7310   33.2540   46.3760 C   0  0  2  0  0  0  0  0  0  0  0  0
   61.5510   33.7930   47.5270 C   0  0  0  0  0  0  0  0  0  0  0  0
   60.9870   34.3170   48.5250 O   0  0  0  0  0  0  0  0  0  0  0  0
   62.9790   33.7530   47.4530 N   0  0  0  0  0  0  0  0  0  0  0  0
   63.7740   32.7310   48.1190 C   0  0  0  0  0  0  0  0  0  0  0  0
   63.2350   32.4960   49.5030 C   0  0  0  0  0  0  0  0  0  0  0  0
   63.1410   33.5540   50.4220 C   0  0  0  0  0  0  0  0  0  0  0  0
   62.6500   33.3270   51.7110 C   0  0  0  0  0  0  0  0  0  0  0  0
   62.2530   32.0420   52.0960 C   0  0  0  0  0  0  0  0  0  0  0  0
   62.3490   30.9830   51.1910 C   0  0  0  0  0  0  0  0  0  0  0  0
   62.8360   31.2050   49.8990 C   0  0  0  0  0  0  0  0  0  0  0  0
   59.6544   35.8319   47.3057 H   0  0  0  0  0  0  0  0  0  0  0  0
   60.5614   36.0675   45.7732 H   0  0  0  0  0  0  0  0  0  0  0  0
   58.7662   36.1306   45.7732 H   0  0  0  0  0  0  0  0  0  0  0  0
   56.5584   31.6169   44.3246 H   0  0  0  0  0  0  0  0  0  0  0  0
   57.2812   32.8267   43.2107 H   0  0  0  0  0  0  0  0  0  0  0  0
   57.8822   31.1339   43.2107 H   0  0  0  0  0  0  0  0  0  0  0  0
   57.4230   29.7640   46.7070 H   0  0  0  0  0  0  0  0  0  0  0  0
   55.9771   27.8420   45.2028 H   0  0  0  0  0  0  0  0  0  0  0  0
   55.6557   25.3689   45.2705 H   0  0  0  0  0  0  0  0  0  0  0  0
   57.4202   23.9008   46.2522 H   0  0  0  0  0  0  0  0  0  0  0  0
   59.5086   24.9077   47.1755 H   0  0  0  0  0  0  0  0  0  0  0  0
   59.8296   27.3826   47.1378 H   0  0  0  0  0  0  0  0  0  0  0  0
   61.1294   31.1759   46.5606 H   0  0  0  0  0  0  0  0  0  0  0  0
   58.5611   33.4703   48.0615 H   0  0  0  0  0  0  0  0  0  0  0  0
   57.5841   33.0661   50.3121 H   0  0  0  0  0  0  0  0  0  0  0  0
   59.5121   29.1919   50.4506 H   0  0  0  0  0  0  0  0  0  0  0  0
   60.5031   29.6045   48.2076 H   0  0  0  0  0  0  0  0  0  0  0  0
   61.4335   33.2177   45.5303 H   0  0  0  0  0  0  0  0  0  0  0  0
   63.7244   31.7952   47.5429 H   0  0  0  0  0  0  0  0  0  0  0  0
   64.8193   33.0668   48.1859 H   0  0  0  0  0  0  0  0  0  0  0  0
   63.4552   34.5658   50.1261 H   0  0  0  0  0  0  0  0  0  0  0  0
   62.5756   34.1609   52.4244 H   0  0  0  0  0  0  0  0  0  0  0  0
   61.8657   31.8661   53.1104 H   0  0  0  0  0  0  0  0  0  0  0  0
   62.0408   29.9718   51.4950 H   0  0  0  0  0  0  0  0  0  0  0  0
   62.9076   30.3677   49.1892 H   0  0  0  0  0  0  0  0  0  0  0  0
  1  2  1  0
  2  3  2  0
  3  4  1  0
  4  5  1  0
  4  6  2  0
  6  7  1  0
  7  8  2  0
  7  9  1  0
  9 10  1  0
 10 11  2  0
 11 12  1  0
 12 13  2  0
 13 14  1  0
 14 15  2  0
  6 16  1  0
 16 17  1  0
 17 18  2  0
 18 19  1  0
 19 20  2  0
 20 21  1  0
 21 22  2  0
 21 23  1  0
 20 24  1  0
 24 25  2  0
 16 26  1  0
 26 27  1  0
 27 28  2  0
 27 29  1  0
 29 30  1  0
 30 31  1  0
 31 32  2  0
 32 33  1  0
 33 34  2  0
 34 35  1  0
 35 36  2  0
 26  2  1  0
 36 31  1  0
 15 10  1  0
 25 17  1  0
  1 37  1  0
  1 38  1  0
  1 39  1  0
  5 40  1  0
  5 41  1  0
  5 42  1  0
  9 43  1  0
 11 44  1  0
 12 45  1  0
 13 46  1  0
 14 47  1  0
 15 48  1  0
 16 49  1  1
 18 50  1  0
 19 51  1  0
 24 52  1  0
 25 53  1  0
 26 54  1  6
 30 55  1  0
 30 56  1  0
 32 57  1  0
 33 58  1  0
 34 59  1  0
 35 60  1  0
 36 61  1  0
M  CHG  3  21   1  23  -1  29  -1
M  END
>  <UniqueID>  (26) 
25

>  <SMILES>  (26) 
CC1=NC(C)=C(C(=O)Nc2ccccc2)[C@H](c2ccc([N+](=O)[O-])cc2)[C@@H]1C(=O)[N-]Cc1ccccc1

>  <Energy>  (26) 
77.5634892025555

>  <Genealogy>  (26) 
CC1=NC(C)=C(C(=O)Nc2ccccc2)C(c2ccc([N+](=O)[O-])cc2)C1C(=O)[N-]Cc1ccccc1 (protonated)
CC1=NC(C)=C(C(=O)Nc2ccccc2)[C@H](c2ccc([N+](=O)[O-])cc2)[C@@H]1C(=O)[N-]Cc1ccccc1 (chirality)
CC1=NC(C)=C(C(=O)Nc2ccccc2)[C@H](c2ccc([N+](=O)[O-])cc2)[C@@H]1C(=O)[N-]Cc1ccccc1 (3D coordinates assigned)
CC1=NC(C)=C(C(=O)Nc2ccccc2)[C@H](c2ccc([N+](=O)[O-])cc2)[C@@H]1C(=O)[N-]Cc1ccccc1 (nonaromatic ring conformer: 77.5634892025555 kcal/mol)

>  <smiles>  (26) 
CC1=NC(C)=C(C(=O)Nc2ccccc2)C(c2ccc([N+](=O)[O-])cc2)C1C(=O)NCc1ccccc1

>  <score_type>  (26) 
oracle

>  <origin>  (26) 
adg

>  <m_score__min__energy>  (26) 
-10.17

>  <m_primary>  (26) 
energy

$$$$
26:0
     RDKit          3D

 36 39  0  0  0  0  0  0  0  0999 V2000
   57.6254   20.1795   44.5874 H   0  0  0  0  0  0  0  0  0  0  0  0
   57.0270   21.0670   44.3340 C   0  0  0  0  0  0  0  0  0  0  0  0
   56.2680   21.6700   45.2880 N   0  0  0  0  0  0  0  0  0  0  0  0
   55.5150   22.7730   45.0180 C   0  0  0  0  0  0  0  0  0  0  0  0
   54.6860   23.3880   46.1090 C   0  0  0  0  0  0  0  0  0  0  0  0
   55.1090   23.1098   47.0856 H   0  0  0  0  0  0  0  0  0  0  0  0
   53.6539   23.0174   46.0233 H   0  0  0  0  0  0  0  0  0  0  0  0
   54.6770   24.8450   45.9860 N   0  0  0  0  0  0  0  0  0  0  0  0
   55.7430   25.5850   45.9800 C   0  0  0  0  0  0  0  0  0  0  0  0
   55.7350   26.9200   45.7790 N   0  0  0  0  0  0  0  0  0  0  0  0
   56.9900   27.4460   45.8240 C   0  0  0  0  0  0  0  0  0  0  0  0
   57.2410   28.8990   45.6310 C   0  0  0  0  0  0  0  0  0  0  0  0
   58.3820   29.5060   46.1820 C   0  0  0  0  0  0  0  0  0  0  0  0
   59.0934   28.9077   46.7702 H   0  0  0  0  0  0  0  0  0  0  0  0
   58.6130   30.8690   45.9830 C   0  0  0  0  0  0  0  0  0  0  0  0
   59.7420   31.5080   46.5160 C   0  0  0  0  0  0  0  0  0  0  0  0
   60.4709   30.9350   47.1079 H   0  0  0  0  0  0  0  0  0  0  0  0
   59.9400   32.8750   46.2940 C   0  0  0  0  0  0  0  0  0  0  0  0
   60.8250   33.3761   46.7131 H   0  0  0  0  0  0  0  0  0  0  0  0
   59.0150   33.6070   45.5400 C   0  0  0  0  0  0  0  0  0  0  0  0
   59.2690   35.3210   45.2660 Cl  0  0  0  0  0  0  0  0  0  0  0  0
   57.8870   32.9730   45.0060 C   0  0  0  0  0  0  0  0  0  0  0  0
   57.1614   33.5501   44.4141 H   0  0  0  0  0  0  0  0  0  0  0  0
   57.6810   31.6060   45.2240 C   0  0  0  0  0  0  0  0  0  0  0  0
   56.6110   31.0070   44.7150 O   0  0  0  0  0  0  0  0  0  0  0  0
   56.3590   29.7110   44.8840 C   0  0  0  0  0  0  0  0  0  0  0  0
   55.3110   29.2290   44.3780 O   0  0  0  0  0  0  0  0  0  0  0  0
   58.0000   26.5090   46.0650 C   0  0  0  0  0  0  0  0  0  0  0  0
   59.0757   26.7270   46.1377 H   0  0  0  0  0  0  0  0  0  0  0  0
   57.2900   24.9910   46.2250 S   0  0  0  0  0  0  0  0  0  0  0  0
   55.5150   23.3110   43.7220 C   0  0  0  0  0  0  0  0  0  0  0  0
   54.9138   24.2027   43.4909 H   0  0  0  0  0  0  0  0  0  0  0  0
   56.2860   22.7030   42.7280 C   0  0  0  0  0  0  0  0  0  0  0  0
   56.2930   23.1134   41.7075 H   0  0  0  0  0  0  0  0  0  0  0  0
   57.0470   21.5740   43.0330 C   0  0  0  0  0  0  0  0  0  0  0  0
   57.6564   21.0883   42.2567 H   0  0  0  0  0  0  0  0  0  0  0  0
  1  2  1  0
  2  3  2  0
  3  4  1  0
  4  5  1  0
  5  6  1  0
  5  7  1  0
  5  8  1  0
  8  9  2  0
  9 10  1  0
 10 11  1  0
 11 12  1  0
 12 13  2  0
 13 14  1  0
 13 15  1  0
 15 16  2  0
 16 17  1  0
 16 18  1  0
 18 19  1  0
 18 20  2  0
 20 21  1  0
 20 22  1  0
 22 23  1  0
 22 24  2  0
 24 25  1  0
 25 26  1  0
 26 27  2  0
 11 28  2  0
 28 29  1  0
 28 30  1  0
  4 31  2  0
 31 32  1  0
 31 33  1  0
 33 34  1  0
 33 35  2  0
 35 36  1  0
 35  2  1  0
 30  9  1  0
 26 12  1  0
 24 15  1  0
M  CHG  1  10  -1
M  END
>  <UniqueID>  (27) 
26

>  <SMILES>  (27) 
O=c1oc2cc(Cl)ccc2cc1-c1cs/c(=N/Cc2ccccn2)[n-]1

>  <Energy>  (27) 
77.48724674470667

>  <Genealogy>  (27) 
O=c1oc2cc(Cl)ccc2cc1-c1csc(=NCc2ccccn2)[n-]1 (protonated)
O=c1oc2cc(Cl)ccc2cc1-c1cs/c(=N/Cc2ccccn2)[n-]1 (cis-trans isomerization)
O=c1oc2cc(Cl)ccc2cc1-c1cs/c(=N/Cc2ccccn2)[n-]1 (3D coordinates assigned)
O=c1oc2cc(Cl)ccc2cc1-c1cs/c(=N/Cc2ccccn2)[n-]1 (optimized conformer: 77.48724674470667 kcal/mol)

>  <smiles>  (27) 
O=c1oc2cc(Cl)ccc2cc1-c1csc(=NCc2ccccn2)[nH]1

>  <score_type>  (27) 
oracle

>  <origin>  (27) 
adg

>  <m_score__min__energy>  (27) 
-11.18

>  <m_primary>  (27) 
energy

$$$$
27:0
     RDKit          3D

 34 37  0  0  0  0  0  0  0  0999 V2000
   55.1670   29.7190   43.7480 C   0  0  0  0  0  0  0  0  0  0  0  0
   56.4770   30.0810   44.3610 C   0  0  0  0  0  0  0  0  0  0  0  0
   56.8570   31.3510   44.6140 N   0  0  0  0  0  0  0  0  0  0  0  0
   58.1230   31.4160   45.1130 C   0  0  0  0  0  0  0  0  0  0  0  0
   58.7610   32.7000   45.4740 C   0  0  0  0  0  0  0  0  0  0  0  0
   58.3700   33.9000   44.8610 C   0  0  0  0  0  0  0  0  0  0  0  0
   59.0030   35.0900   45.2230 C   0  0  0  0  0  0  0  0  0  0  0  0
   60.0100   35.0810   46.1880 C   0  0  0  0  0  0  0  0  0  0  0  0
   60.3730   33.8700   46.7950 C   0  0  0  0  0  0  0  0  0  0  0  0
   61.4110   33.8110   47.7900 N   0  0  0  0  0  0  0  0  0  0  0  0
   61.3020   33.9720   49.2120 C   0  0  0  0  0  0  0  0  0  0  0  0
   60.2310   34.2270   49.8260 O   0  0  0  0  0  0  0  0  0  0  0  0
   62.5910   33.7190   49.8440 C   0  0  0  0  0  0  0  0  0  0  0  0
   62.9680   33.7510   51.1860 C   0  0  0  0  0  0  0  0  0  0  0  0
   64.3020   33.4400   51.5040 C   0  0  0  0  0  0  0  0  0  0  0  0
   65.2210   33.1040   50.4860 C   0  0  0  0  0  0  0  0  0  0  0  0
   64.8140   33.0730   49.1400 C   0  0  0  0  0  0  0  0  0  0  0  0
   63.4870   33.3870   48.8510 C   0  0  0  0  0  0  0  0  0  0  0  0
   62.7750   33.4300   47.5800 C   0  0  0  0  0  0  0  0  0  0  0  0
   63.2790   33.1810   46.4530 O   0  0  0  0  0  0  0  0  0  0  0  0
   59.7450   32.7220   46.4140 N   0  0  0  0  0  0  0  0  0  0  0  0
   58.7640   30.1830   45.2420 C   0  0  0  0  0  0  0  0  0  0  0  0
   57.7050   28.9890   44.7130 S   0  0  0  0  0  0  0  0  0  0  0  0
   54.4338   29.5164   44.5426 H   0  0  0  0  0  0  0  0  0  0  0  0
   54.8111   30.5525   43.1246 H   0  0  0  0  0  0  0  0  0  0  0  0
   55.2896   28.8211   43.1246 H   0  0  0  0  0  0  0  0  0  0  0  0
   57.5729   33.9028   44.1030 H   0  0  0  0  0  0  0  0  0  0  0  0
   58.7073   36.0364   44.7466 H   0  0  0  0  0  0  0  0  0  0  0  0
   60.5154   36.0162   46.4707 H   0  0  0  0  0  0  0  0  0  0  0  0
   62.2439   34.0116   51.9720 H   0  0  0  0  0  0  0  0  0  0  0  0
   64.6319   33.4586   52.5532 H   0  0  0  0  0  0  0  0  0  0  0  0
   66.2624   32.8648   50.7474 H   0  0  0  0  0  0  0  0  0  0  0  0
   65.5212   32.8091   48.3399 H   0  0  0  0  0  0  0  0  0  0  0  0
   59.7831   30.0208   45.6229 H   0  0  0  0  0  0  0  0  0  0  0  0
  1  2  1  0
  2  3  2  0
  3  4  1  0
  4  5  1  0
  5  6  2  0
  6  7  1  0
  7  8  2  0
  8  9  1  0
  9 10  1  0
 10 11  1  0
 11 12  2  0
 11 13  1  0
 13 14  2  0
 14 15  1  0
 15 16  2  0
 16 17  1  0
 17 18  2  0
 18 19  1  0
 19 20  2  0
  9 21  2  0
  4 22  2  0
 22 23  1  0
 23  2  1  0
 21  5  1  0
 19 10  1  0
 18 13  1  0
  1 24  1  0
  1 25  1  0
  1 26  1  0
  6 27  1  0
  7 28  1  0
  8 29  1  0
 14 30  1  0
 15 31  1  0
 16 32  1  0
 17 33  1  0
 22 34  1  0
M  END
>  <UniqueID>  (28) 
27

>  <SMILES>  (28) 
Cc1nc(-c2cccc(N3C(=O)c4ccccc4C3=O)n2)cs1

>  <Energy>  (28) 
102.88650972694293

>  <Genealogy>  (28) 
Cc1nc(-c2cccc(N3C(=O)c4ccccc4C3=O)n2)cs1 (3D coordinates assigned)
Cc1nc(-c2cccc(N3C(=O)c4ccccc4C3=O)n2)cs1 (nonaromatic ring conformer: 102.88650972694293 kcal/mol)

>  <smiles>  (28) 
Cc1nc(-c2cccc(N3C(=O)c4ccccc4C3=O)n2)cs1

>  <score_type>  (28) 
oracle

>  <origin>  (28) 
adg

>  <m_score__min__energy>  (28) 
-8.1799999999999997

>  <m_primary>  (28) 
energy

$$$$
28:0
     RDKit          3D

 35 37  0  0  0  0  0  0  0  0999 V2000
   59.1622   27.0228   43.3352 H   0  0  0  0  0  0  0  0  0  0  0  0
   58.1380   27.1000   43.7290 C   0  0  0  0  0  0  0  0  0  0  0  0
   57.2784   26.9772   43.0537 H   0  0  0  0  0  0  0  0  0  0  0  0
   57.9380   27.3430   45.0280 C   0  0  0  0  0  0  0  0  0  0  0  0
   58.8089   27.4631   45.6891 H   0  0  0  0  0  0  0  0  0  0  0  0
   56.5570   27.4570   45.6120 C   0  0  0  0  0  0  0  0  0  0  0  0
   55.9708   26.5692   45.3323 H   0  0  0  0  0  0  0  0  0  0  0  0
   56.6373   27.5274   46.7068 H   0  0  0  0  0  0  0  0  0  0  0  0
   55.8880   28.6540   45.1080 N   0  0  0  0  0  0  0  0  0  0  0  0
   56.5090   29.7350   44.7440 C   0  0  0  0  0  0  0  0  0  0  0  0
   57.2480   30.4980   45.5790 N   0  0  0  0  0  0  0  0  0  0  0  0
   57.7850   31.5660   44.9300 C   0  0  0  0  0  0  0  0  0  0  0  0
   58.6350   32.5360   45.6290 C   0  0  0  0  0  0  0  0  0  0  0  0
   58.4210   33.8650   45.6490 N   0  0  0  0  0  0  0  0  0  0  0  0
   59.3960   34.3860   46.3770 N   0  0  0  0  0  0  0  0  0  0  0  0
   60.1690   33.3550   46.7720 C   0  0  0  0  0  0  0  0  0  0  0  0
   61.3780   33.4870   47.6080 C   0  0  0  0  0  0  0  0  0  0  0  0
   61.2910   34.0450   48.8930 C   0  0  0  0  0  0  0  0  0  0  0  0
   60.3173   34.3851   49.2753 H   0  0  0  0  0  0  0  0  0  0  0  0
   62.4320   34.1720   49.6910 C   0  0  0  0  0  0  0  0  0  0  0  0
   62.3519   34.6125   50.6957 H   0  0  0  0  0  0  0  0  0  0  0  0
   63.6830   33.7380   49.2130 C   0  0  0  0  0  0  0  0  0  0  0  0
   64.8570   33.8430   49.9730 O   0  0  0  0  0  0  0  0  0  0  0  0
   65.7760   32.7760   50.1840 C   0  0  0  0  0  0  0  0  0  0  0  0
   65.9124   32.6177   51.2640 H   0  0  0  0  0  0  0  0  0  0  0  0
   65.3823   31.8569   49.7255 H   0  0  0  0  0  0  0  0  0  0  0  0
   66.7433   33.0292   49.7255 H   0  0  0  0  0  0  0  0  0  0  0  0
   63.7690   33.1810   47.9320 C   0  0  0  0  0  0  0  0  0  0  0  0
   64.7424   32.8393   47.5502 H   0  0  0  0  0  0  0  0  0  0  0  0
   62.6280   33.0550   47.1330 C   0  0  0  0  0  0  0  0  0  0  0  0
   62.7095   32.6156   46.1279 H   0  0  0  0  0  0  0  0  0  0  0  0
   59.7050   32.2160   46.3160 O   0  0  0  0  0  0  0  0  0  0  0  0
   57.4710   31.6540   43.5750 C   0  0  0  0  0  0  0  0  0  0  0  0
   57.8071   32.4408   42.8837 H   0  0  0  0  0  0  0  0  0  0  0  0
   56.4870   30.3450   43.1810 S   0  0  0  0  0  0  0  0  0  0  0  0
  1  2  1  0
  2  3  1  0
  2  4  2  0
  4  5  1  0
  4  6  1  0
  6  7  1  0
  6  8  1  0
  6  9  1  0
  9 10  2  0
 10 11  1  0
 11 12  1  0
 12 13  1  0
 13 14  2  0
 14 15  1  0
 15 16  2  0
 16 17  1  0
 17 18  2  0
 18 19  1  0
 18 20  1  0
 20 21  1  0
 20 22  2  0
 22 23  1  0
 23 24  1  0
 24 25  1  0
 24 26  1  0
 24 27  1  0
 22 28  1  0
 28 29  1  0
 28 30  2  0
 30 31  1  0
 16 32  1  0
 12 33  2  0
 33 34  1  0
 33 35  1  0
 35 10  1  0
 32 13  1  0
 30 17  1  0
M  CHG  1  11  -1
M  END
>  <UniqueID>  (29) 
28

>  <SMILES>  (29) 
C=CC/N=c1\[n-]c(-c2nnc(-c3ccc(OC)cc3)o2)cs1

>  <Energy>  (29) 
97.12803488259264

>  <Genealogy>  (29) 
C=CCN=c1[n-]c(-c2nnc(-c3ccc(OC)cc3)o2)cs1 (protonated)
C=CC/N=c1\[n-]c(-c2nnc(-c3ccc(OC)cc3)o2)cs1 (cis-trans isomerization)
C=CC/N=c1\[n-]c(-c2nnc(-c3ccc(OC)cc3)o2)cs1 (3D coordinates assigned)
C=CC/N=c1\[n-]c(-c2nnc(-c3ccc(OC)cc3)o2)cs1 (optimized conformer: 97.12803488259264 kcal/mol)

>  <smiles>  (29) 
C=CCN=c1[nH]c(-c2nnc(-c3ccc(OC)cc3)o2)cs1

>  <score_type>  (29) 
oracle

>  <origin>  (29) 
adg

>  <m_score__min__energy>  (29) 
-8.6799999999999997

>  <m_primary>  (29) 
energy

$$$$
29:0
     RDKit          3D

 45 46  0  0  0  0  0  0  0  0999 V2000
   59.4595   31.5888   49.2900 H   0  0  0  0  0  0  0  0  0  0  0  0
   59.2920   32.0130   48.2890 C   0  0  0  0  0  0  0  0  0  0  0  0
   58.8650   31.1740   47.2420 C   0  0  0  0  0  0  0  0  0  0  0  0
   58.6480   29.7950   47.4260 O   0  0  0  0  0  0  0  0  0  0  0  0
   58.9490   29.0500   48.6050 C   0  0  0  0  0  0  0  0  0  0  0  0
   58.2803   28.1784   48.6614 H   0  0  0  0  0  0  0  0  0  0  0  0
   58.8043   29.7008   49.4800 H   0  0  0  0  0  0  0  0  0  0  0  0
   60.3950   28.5700   48.5870 C   0  0  0  0  0  0  0  0  0  0  0  0
   60.7546   28.4506   49.6197 H   0  0  0  0  0  0  0  0  0  0  0  0
   60.4542   27.6040   48.0642 H   0  0  0  0  0  0  0  0  0  0  0  0
   61.0201   29.3088   48.0642 H   0  0  0  0  0  0  0  0  0  0  0  0
   58.6550   31.7210   45.9660 C   0  0  0  0  0  0  0  0  0  0  0  0
   58.1040   30.6910   44.6430 S   0  0  0  0  0  0  0  0  0  0  0  0
   57.5090   31.5290   43.5450 O   0  0  0  0  0  0  0  0  0  0  0  0
   59.2780   29.9160   44.1100 O   0  0  0  0  0  0  0  0  0  0  0  0
   56.8950   29.6040   45.2530 N   0  0  0  0  0  0  0  0  0  0  0  0
   57.0660   28.3510   45.5610 C   0  0  0  0  0  0  0  0  0  0  0  0
   55.9740   27.5470   45.6230 N   0  0  0  0  0  0  0  0  0  0  0  0
   56.0780   26.2270   45.9360 C   0  0  0  0  0  0  0  0  0  0  0  0
   54.9440   25.4120   45.9910 O   0  0  0  0  0  0  0  0  0  0  0  0
   54.8800   24.1390   45.3580 C   0  0  0  0  0  0  0  0  0  0  0  0
   54.8404   23.3503   46.1238 H   0  0  0  0  0  0  0  0  0  0  0  0
   53.9781   24.0865   44.7305 H   0  0  0  0  0  0  0  0  0  0  0  0
   55.7721   23.9963   44.7305 H   0  0  0  0  0  0  0  0  0  0  0  0
   57.3300   25.6810   46.2030 C   0  0  0  0  0  0  0  0  0  0  0  0
   57.4347   24.6138   46.4482 H   0  0  0  0  0  0  0  0  0  0  0  0
   58.4520   26.5130   46.1540 C   0  0  0  0  0  0  0  0  0  0  0  0
   59.8190   25.9460   46.4000 C   0  0  0  0  0  0  0  0  0  0  0  0
   59.9960   25.8726   47.4832 H   0  0  0  0  0  0  0  0  0  0  0  0
   59.8875   24.9452   45.9486 H   0  0  0  0  0  0  0  0  0  0  0  0
   60.5758   26.6045   45.9486 H   0  0  0  0  0  0  0  0  0  0  0  0
   58.3050   27.8280   45.8200 N   0  0  0  0  0  0  0  0  0  0  0  0
   59.1620   28.4190   45.7650 H   0  0  0  0  0  0  0  0  0  0  0  0
   58.8770   33.0860   45.7440 C   0  0  0  0  0  0  0  0  0  0  0  0
   58.7153   33.5059   44.7402 H   0  0  0  0  0  0  0  0  0  0  0  0
   59.3030   33.9250   46.7850 C   0  0  0  0  0  0  0  0  0  0  0  0
   59.5270   35.3900   46.5080 C   0  0  0  0  0  0  0  0  0  0  0  0
   59.6103   35.9346   47.4601 H   0  0  0  0  0  0  0  0  0  0  0  0
   60.4549   35.5164   45.9309 H   0  0  0  0  0  0  0  0  0  0  0  0
   58.6793   35.7879   45.9309 H   0  0  0  0  0  0  0  0  0  0  0  0
   59.5070   33.3840   48.0730 C   0  0  0  0  0  0  0  0  0  0  0  0
   59.9660   34.2480   49.2200 C   0  0  0  0  0  0  0  0  0  0  0  0
   59.7075   33.7613   50.1720 H   0  0  0  0  0  0  0  0  0  0  0  0
   61.0559   34.3852   49.1625 H   0  0  0  0  0  0  0  0  0  0  0  0
   59.4696   35.2279   49.1625 H   0  0  0  0  0  0  0  0  0  0  0  0
  1  2  1  0
  2  3  2  0
  3  4  1  0
  4  5  1  0
  5  6  1  0
  5  7  1  0
  5  8  1  0
  8  9  1  0
  8 10  1  0
  8 11  1  0
  3 12  1  0
 12 13  1  0
 13 14  2  0
 13 15  2  0
 13 16  1  0
 16 17  2  0
 17 18  1  0
 18 19  2  0
 19 20  1  0
 20 21  1  0
 21 22  1  0
 21 23  1  0
 21 24  1  0
 19 25  1  0
 25 26  1  0
 25 27  2  0
 27 28  1  0
 28 29  1  0
 28 30  1  0
 28 31  1  0
 27 32  1  0
 32 33  1  0
 12 34  2  0
 34 35  1  0
 34 36  1  0
 36 37  1  0
 37 38  1  0
 37 39  1  0
 37 40  1  0
 36 41  2  0
 41 42  1  0
 42 43  1  0
 42 44  1  0
 42 45  1  0
 41  2  1  0
 32 17  1  0
M  END
>  <UniqueID>  (30) 
29

>  <SMILES>  (30) 
CCOc1cc(C)c(C)cc1S(=O)(=O)/N=c1/nc(OC)cc(C)[nH]1

>  <Energy>  (30) 
46.12630388753882

>  <Genealogy>  (30) 
CCOc1cc(C)c(C)cc1S(=O)(=O)/N=c1/nc(OC)cc(C)[nH]1 (cis-trans isomerization)
CCOc1cc(C)c(C)cc1S(=O)(=O)/N=c1/nc(OC)cc(C)[nH]1 (3D coordinates assigned)
CCOc1cc(C)c(C)cc1S(=O)(=O)/N=c1/nc(OC)cc(C)[nH]1 (optimized conformer: 46.12630388753882 kcal/mol)

>  <smiles>  (30) 
CCOc1cc(C)c(C)cc1S(=O)(=O)N=c1nc(OC)cc(C)[nH]1

>  <score_type>  (30) 
oracle

>  <origin>  (30) 
adg

>  <m_score__min__energy>  (30) 
-7.7999999999999998

>  <m_primary>  (30) 
energy

$$$$
30:0
     RDKit          3D

 36 37  0  0  0  0  0  0  0  0999 V2000
   58.9570   31.9580   48.9610 C   0  0  0  0  0  0  0  0  0  0  0  0
   58.4380   31.4500   47.7380 O   0  0  0  0  0  0  0  0  0  0  0  0
   58.3790   32.2080   46.5630 C   0  0  0  0  0  0  0  0  0  0  0  0
   58.5990   33.5540   46.6030 N   0  0  0  0  0  0  0  0  0  0  0  0
   58.5930   34.3180   45.4810 C   0  0  0  0  0  0  0  0  0  0  0  0
   58.3690   33.7310   44.2360 C   0  0  0  0  0  0  0  0  0  0  0  0
   58.1390   32.3570   44.1610 C   0  0  0  0  0  0  0  0  0  0  0  0
   58.1200   31.5810   45.3290 C   0  0  0  0  0  0  0  0  0  0  0  0
   57.8650   30.1280   45.2350 C   0  0  0  0  0  0  0  0  0  0  0  0
   58.6880   29.1230   45.7120 C   0  0  0  0  0  0  0  0  0  0  0  0
   58.1200   27.9360   45.4200 N   0  0  0  0  0  0  0  0  0  0  0  0
   58.6350   26.6200   45.7900 C   0  0  0  0  0  0  0  0  0  0  0  0
   57.8590   26.0410   46.9780 C   0  0  0  0  0  0  0  0  0  0  0  0
   56.5130   25.4440   46.5560 C   0  0  0  0  0  0  0  0  0  0  0  0
   55.6220   26.4630   46.1950 O   0  0  0  0  0  0  0  0  0  0  0  0
   56.9830   28.1390   44.7750 N   0  0  0  0  0  0  0  0  0  0  0  0
   56.8030   29.4660   44.6300 C   0  0  0  0  0  0  0  0  0  0  0  0
   55.6410   30.0720   43.9060 C   0  0  0  0  0  0  0  0  0  0  0  0
   58.4535   31.4652   49.8058 H   0  0  0  0  0  0  0  0  0  0  0  0
   60.0377   31.7590   49.0115 H   0  0  0  0  0  0  0  0  0  0  0  0
   58.7812   33.0427   49.0115 H   0  0  0  0  0  0  0  0  0  0  0  0
   58.7651   35.4020   45.5539 H   0  0  0  0  0  0  0  0  0  0  0  0
   58.3736   34.3446   43.3231 H   0  0  0  0  0  0  0  0  0  0  0  0
   57.9722   31.8812   43.1834 H   0  0  0  0  0  0  0  0  0  0  0  0
   59.6424   29.2680   46.2393 H   0  0  0  0  0  0  0  0  0  0  0  0
   58.5367   25.9405   44.9305 H   0  0  0  0  0  0  0  0  0  0  0  0
   59.6911   26.7254   46.0790 H   0  0  0  0  0  0  0  0  0  0  0  0
   58.4653   25.2514   47.4459 H   0  0  0  0  0  0  0  0  0  0  0  0
   57.6578   26.8622   47.6817 H   0  0  0  0  0  0  0  0  0  0  0  0
   56.6662   24.7744   45.6968 H   0  0  0  0  0  0  0  0  0  0  0  0
   56.0900   24.8810   47.4011 H   0  0  0  0  0  0  0  0  0  0  0  0
   54.8070   26.3350   46.7480 H   0  0  0  0  0  0  0  0  0  0  0  0
   56.3460   27.3850   44.4320 H   0  0  0  0  0  0  0  0  0  0  0  0
   54.9118   30.4523   44.6365 H   0  0  0  0  0  0  0  0  0  0  0  0
   55.9941   30.9008   43.2748 H   0  0  0  0  0  0  0  0  0  0  0  0
   55.1634   29.3081   43.2748 H   0  0  0  0  0  0  0  0  0  0  0  0
  1  2  1  0
  2  3  1  0
  3  4  2  0
  4  5  1  0
  5  6  2  0
  6  7  1  0
  7  8  2  0
  8  9  1  0
  9 10  2  0
 10 11  1  0
 11 12  1  0
 12 13  1  0
 13 14  1  0
 14 15  1  0
 11 16  1  0
 16 17  2  0
 17 18  1  0
  8  3  1  0
 17  9  1  0
  1 19  1  0
  1 20  1  0
  1 21  1  0
  5 22  1  0
  6 23  1  0
  7 24  1  0
 10 25  1  0
 12 26  1  0
 12 27  1  0
 13 28  1  0
 13 29  1  0
 14 30  1  0
 14 31  1  0
 15 32  1  0
 16 33  1  0
 18 34  1  0
 18 35  1  0
 18 36  1  0
M  CHG  1  16   1
M  END
>  <UniqueID>  (31) 
30

>  <SMILES>  (31) 
COc1ncccc1-c1cn(CCCO)[nH+]c1C

>  <Energy>  (31) 
63.99252234989157

>  <Genealogy>  (31) 
COc1ncccc1-c1cn(CCCO)[nH+]c1C (protonated)
COc1ncccc1-c1cn(CCCO)[nH+]c1C (3D coordinates assigned)
COc1ncccc1-c1cn(CCCO)[nH+]c1C (optimized conformer: 63.99252234989157 kcal/mol)

>  <smiles>  (31) 
COc1ncccc1-c1cn(CCCO)nc1C

>  <score_type>  (31) 
oracle

>  <origin>  (31) 
adg

>  <m_score__min__energy>  (31) 
-5.5899999999999999

>  <m_primary>  (31) 
energy

$$$$
31:0
     RDKit          3D

 79 83  0  0  0  0  0  0  0  0999 V2000
   51.9930   24.0360   44.5350 C   0  0  0  0  0  0  0  0  0  0  0  0
   53.1630   23.2080   44.8740 N   0  0  0  0  0  0  0  0  0  0  0  0
   53.0060   22.6720   46.2360 C   0  0  0  0  0  0  0  0  0  0  0  0
   54.4160   23.9910   44.7750 C   0  0  0  0  0  0  0  0  0  0  0  0
   55.2920   23.5100   43.6090 C   0  0  0  0  0  0  0  0  0  0  0  0
   56.5830   22.8850   44.0990 C   0  0  0  0  0  0  0  0  0  0  0  0
   56.6200   21.5010   44.3380 C   0  0  0  0  0  0  0  0  0  0  0  0
   57.7440   20.9110   44.8240 N   0  0  0  0  0  0  0  0  0  0  0  0
   58.8610   21.6320   45.0990 C   0  0  0  0  0  0  0  0  0  0  0  0
   58.8820   23.0080   44.8770 C   0  0  0  0  0  0  0  0  0  0  0  0
   57.7470   23.6460   44.3620 C   0  0  0  0  0  0  0  0  0  0  0  0
   57.7990   25.0990   44.1010 C   0  0  0  0  0  0  0  0  0  0  0  0
   57.5710   25.6440   42.9050 C   0  0  0  0  0  0  0  0  0  0  0  0
   57.7740   27.1290   42.9290 C   0  0  0  0  0  0  0  0  0  0  0  0
   58.5630   27.2690   44.2270 C   0  0  1  0  0  0  0  0  0  0  0  0
   58.8290   28.6320   44.8880 C   0  0  1  0  0  0  0  0  0  0  0  0
   57.6410   29.5920   45.0560 C   0  0  0  0  0  0  0  0  0  0  0  0
   58.2130   30.9370   45.4070 C   0  0  0  0  0  0  0  0  0  0  0  0
   59.2350   31.0360   46.2830 C   0  0  0  0  0  0  0  0  0  0  0  0
   60.0010   32.3400   46.3810 C   0  0  0  0  0  0  0  0  0  0  0  0
   60.5290   32.5730   47.8030 C   0  0  2  0  0  0  0  0  0  0  0  0
   61.3160   33.7650   47.8080 O   0  0  0  0  0  0  0  0  0  0  0  0
   62.4090   33.9610   48.6600 C   0  0  0  0  0  0  0  0  0  0  0  0
   62.2570   34.4950   49.7940 O   0  0  0  0  0  0  0  0  0  0  0  0
   63.7810   33.5740   48.2010 C   0  0  0  0  0  0  0  0  0  0  0  0
   63.7590   33.1020   46.8190 N   0  0  0  0  0  0  0  0  0  0  0  0
   61.3510   31.3770   48.3470 C   0  0  0  0  0  0  0  0  0  0  0  0
   61.1530   30.0580   47.5730 C   0  0  0  0  0  0  0  0  0  0  0  0
   59.6920   29.8120   47.0930 C   0  0  1  0  0  0  0  0  0  0  0  0
   58.7610   29.7230   48.3340 C   0  0  0  0  0  0  0  0  0  0  0  0
   59.6650   28.4750   46.2100 C   0  0  1  0  0  0  0  0  0  0  0  0
   59.3780   27.1630   47.0400 C   0  0  0  0  0  0  0  0  0  0  0  0
   59.1010   25.8890   46.2050 C   0  0  0  0  0  0  0  0  0  0  0  0
   58.0230   26.1660   45.1400 C   0  0  2  0  0  0  0  0  0  0  0  0
   56.6470   26.4700   45.7930 C   0  0  0  0  0  0  0  0  0  0  0  0
   51.5069   24.3800   45.4599 H   0  0  0  0  0  0  0  0  0  0  0  0
   52.3180   24.9063   43.9460 H   0  0  0  0  0  0  0  0  0  0  0  0
   51.2803   23.4401   43.9460 H   0  0  0  0  0  0  0  0  0  0  0  0
   53.2366   23.4594   46.9687 H   0  0  0  0  0  0  0  0  0  0  0  0
   51.9701   22.3305   46.3785 H   0  0  0  0  0  0  0  0  0  0  0  0
   53.6940   21.8256   46.3785 H   0  0  0  0  0  0  0  0  0  0  0  0
   54.1637   25.0502   44.6188 H   0  0  0  0  0  0  0  0  0  0  0  0
   54.9812   23.8556   45.7089 H   0  0  0  0  0  0  0  0  0  0  0  0
   54.7324   22.7627   43.0272 H   0  0  0  0  0  0  0  0  0  0  0  0
   55.5467   24.3820   42.9888 H   0  0  0  0  0  0  0  0  0  0  0  0
   55.7303   20.8886   44.1297 H   0  0  0  0  0  0  0  0  0  0  0  0
   57.7450   19.8800   44.9960 H   0  0  0  0  0  0  0  0  0  0  0  0
   59.7534   21.1281   45.4987 H   0  0  0  0  0  0  0  0  0  0  0  0
   59.7868   23.5904   45.1055 H   0  0  0  0  0  0  0  0  0  0  0  0
   57.2715   25.0748   42.0126 H   0  0  0  0  0  0  0  0  0  0  0  0
   58.3528   27.4758   42.0603 H   0  0  0  0  0  0  0  0  0  0  0  0
   56.8495   27.7233   42.8830 H   0  0  0  0  0  0  0  0  0  0  0  0
   59.6242   27.1569   43.9599 H   0  0  0  0  0  0  0  0  0  0  0  0
   59.4310   29.1570   44.1317 H   0  0  0  0  0  0  0  0  0  0  0  0
   57.0711   29.6565   44.1174 H   0  0  0  0  0  0  0  0  0  0  0  0
   56.9566   29.2381   45.8411 H   0  0  0  0  0  0  0  0  0  0  0  0
   57.7964   31.8455   44.9475 H   0  0  0  0  0  0  0  0  0  0  0  0
   60.8514   32.3089   45.6840 H   0  0  0  0  0  0  0  0  0  0  0  0
   59.3175   33.1633   46.1260 H   0  0  0  0  0  0  0  0  0  0  0  0
   59.6639   32.6774   48.4743 H   0  0  0  0  0  0  0  0  0  0  0  0
   64.4436   34.4492   48.2713 H   0  0  0  0  0  0  0  0  0  0  0  0
   64.1475   32.7593   48.8428 H   0  0  0  0  0  0  0  0  0  0  0  0
   64.4630   32.3340   46.7120 H   0  0  0  0  0  0  0  0  0  0  0  0
   62.8140   32.6950   46.6210 H   0  0  0  0  0  0  0  0  0  0  0  0
   62.4170   31.6445   48.3023 H   0  0  0  0  0  0  0  0  0  0  0  0
   60.9951   31.1940   49.3716 H   0  0  0  0  0  0  0  0  0  0  0  0
   61.8080   30.0749   46.6895 H   0  0  0  0  0  0  0  0  0  0  0  0
   61.3979   29.2430   48.2699 H   0  0  0  0  0  0  0  0  0  0  0  0
   59.3658   29.7808   49.2510 H   0  0  0  0  0  0  0  0  0  0  0  0
   58.0436   30.5567   48.3147 H   0  0  0  0  0  0  0  0  0  0  0  0
   58.2146   28.7685   48.3147 H   0  0  0  0  0  0  0  0  0  0  0  0
   60.6969   28.3222   45.8608 H   0  0  0  0  0  0  0  0  0  0  0  0
   60.2538   26.9668   47.6760 H   0  0  0  0  0  0  0  0  0  0  0  0
   58.4538   27.3599   47.6031 H   0  0  0  0  0  0  0  0  0  0  0  0
   60.0296   25.5737   45.7067 H   0  0  0  0  0  0  0  0  0  0  0  0
   58.7424   25.0947   46.8761 H   0  0  0  0  0  0  0  0  0  0  0  0
   56.7479   26.4477   46.8881 H   0  0  0  0  0  0  0  0  0  0  0  0
   56.3030   27.4658   45.4767 H   0  0  0  0  0  0  0  0  0  0  0  0
   55.9155   25.7118   45.4767 H   0  0  0  0  0  0  0  0  0  0  0  0
  1  2  1  0
  2  3  1  0
  2  4  1  0
  4  5  1  0
  5  6  1  0
  6  7  2  0
  7  8  1  0
  8  9  2  0
  9 10  1  0
 10 11  2  0
 11 12  1  0
 12 13  2  0
 13 14  1  0
 14 15  1  0
 15 16  1  0
 16 17  1  0
 17 18  1  0
 18 19  2  0
 19 20  1  0
 20 21  1  0
 21 22  1  0
 22 23  1  0
 23 24  2  0
 23 25  1  0
 25 26  1  0
 21 27  1  0
 27 28  1  0
 28 29  1  0
 29 30  1  1
 29 31  1  0
 31 32  1  0
 32 33  1  0
 33 34  1  0
 34 35  1  1
 11  6  1  0
 34 12  1  0
 34 15  1  0
 31 16  1  0
 29 19  1  0
  1 36  1  0
  1 37  1  0
  1 38  1  0
  3 39  1  0
  3 40  1  0
  3 41  1  0
  4 42  1  0
  4 43  1  0
  5 44  1  0
  5 45  1  0
  7 46  1  0
  8 47  1  0
  9 48  1  0
 10 49  1  0
 13 50  1  0
 14 51  1  0
 14 52  1  0
 15 53  1  6
 16 54  1  6
 17 55  1  0
 17 56  1  0
 18 57  1  0
 20 58  1  0
 20 59  1  0
 21 60  1  1
 25 61  1  0
 25 62  1  0
 26 63  1  0
 26 64  1  0
 27 65  1  0
 27 66  1  0
 28 67  1  0
 28 68  1  0
 30 69  1  0
 30 70  1  0
 30 71  1  0
 31 72  1  6
 32 73  1  0
 32 74  1  0
 33 75  1  0
 33 76  1  0
 35 77  1  0
 35 78  1  0
 35 79  1  0
M  CHG  1   8   1
M  END
>  <UniqueID>  (32) 
31

>  <SMILES>  (32) 
CN(C)CCc1c[nH+]ccc1C1=CC[C@H]2[C@H]3CC=C4CC(OC(=O)CN)CCC4(C)C3CCC12C

>  <Energy>  (32) 
125.70264493027814

>  <Genealogy>  (32) 
CN(C)CCc1c[nH+]ccc1C1=CCC2C3CC=C4CC(OC(=O)CN)CCC4(C)C3CCC12C (protonated)
CN(C)CCc1c[nH+]ccc1C1=CC[C@H]2[C@H]3CC=C4CC(OC(=O)CN)CCC4(C)C3CCC12C (chirality)
CN(C)CCc1c[nH+]ccc1C1=CC[C@H]2[C@H]3CC=C4CC(OC(=O)CN)CCC4(C)C3CCC12C (3D coordinates assigned)
CN(C)CCc1c[nH+]ccc1C1=CC[C@H]2[C@H]3CC=C4CC(OC(=O)CN)CCC4(C)C3CCC12C (nonaromatic ring conformer: 125.70264493027814 kcal/mol)

>  <smiles>  (32) 
CN(C)CCc1cnccc1C1=CCC2C3CC=C4CC(OC(=O)CN)CCC4(C)C3CCC12C

>  <score_type>  (32) 
oracle

>  <origin>  (32) 
adg

>  <m_score__min__energy>  (32) 
-9.3900000000000006

>  <m_primary>  (32) 
energy

$$$$
32:0
     RDKit          3D

 25 27  0  0  0  0  0  0  0  0999 V2000
   56.2680   30.8290   44.5040 O   0  0  0  0  0  0  0  0  0  0  0  0
   57.3950   30.9610   45.0530 C   0  0  0  0  0  0  0  0  0  0  0  0
   57.9970   32.2330   45.4290 C   0  0  0  0  0  0  0  0  0  0  0  0
   57.5280   33.5390   45.2920 C   0  0  0  0  0  0  0  0  0  0  0  0
   58.3440   34.5860   45.7550 C   0  0  0  0  0  0  0  0  0  0  0  0
   59.5990   34.3100   46.3390 C   0  0  0  0  0  0  0  0  0  0  0  0
   60.0480   32.9830   46.4650 C   0  0  0  0  0  0  0  0  0  0  0  0
   59.2200   31.9630   45.9980 C   0  0  0  0  0  0  0  0  0  0  0  0
   59.4060   30.5170   45.9900 C   0  0  0  0  0  0  0  0  0  0  0  0
   60.4220   29.9250   46.4390 O   0  0  0  0  0  0  0  0  0  0  0  0
   58.2640   29.8720   45.3980 N   0  0  0  0  0  0  0  0  0  0  0  0
   57.9980   28.4690   45.1750 C   0  0  0  0  0  0  0  0  0  0  0  0
   58.3870   27.8090   43.9930 C   0  0  0  0  0  0  0  0  0  0  0  0
   58.1030   26.4510   43.8350 C   0  0  0  0  0  0  0  0  0  0  0  0
   57.4370   25.7560   44.8440 C   0  0  0  0  0  0  0  0  0  0  0  0
   57.1570   24.4370   44.6990 F   0  0  0  0  0  0  0  0  0  0  0  0
   57.0640   26.4340   46.0040 C   0  0  0  0  0  0  0  0  0  0  0  0
   57.3480   27.7550   46.1400 N   0  0  0  0  0  0  0  0  0  0  0  0
   56.5486   33.7440   44.8352 H   0  0  0  0  0  0  0  0  0  0  0  0
   58.0021   35.6273   45.6615 H   0  0  0  0  0  0  0  0  0  0  0  0
   60.2293   35.1371   46.6975 H   0  0  0  0  0  0  0  0  0  0  0  0
   61.0241   32.7565   46.9188 H   0  0  0  0  0  0  0  0  0  0  0  0
   58.9116   28.3603   43.1988 H   0  0  0  0  0  0  0  0  0  0  0  0
   58.4046   25.9295   42.9147 H   0  0  0  0  0  0  0  0  0  0  0  0
   56.5395   25.8986   46.8092 H   0  0  0  0  0  0  0  0  0  0  0  0
  1  2  2  0
  2  3  1  0
  3  4  2  0
  4  5  1  0
  5  6  2  0
  6  7  1  0
  7  8  2  0
  8  9  1  0
  9 10  2  0
  9 11  1  0
 11 12  1  0
 12 13  2  0
 13 14  1  0
 14 15  2  0
 15 16  1  0
 15 17  1  0
 17 18  2  0
 11  2  1  0
 18 12  1  0
  8  3  1  0
  4 19  1  0
  5 20  1  0
  6 21  1  0
  7 22  1  0
 13 23  1  0
 14 24  1  0
 17 25  1  0
M  END
>  <UniqueID>  (33) 
32

>  <SMILES>  (33) 
O=C1c2ccccc2C(=O)N1c1ccc(F)cn1

>  <Energy>  (33) 
64.93655141804125

>  <Genealogy>  (33) 
O=C1c2ccccc2C(=O)N1c1ccc(F)cn1 (3D coordinates assigned)
O=C1c2ccccc2C(=O)N1c1ccc(F)cn1 (nonaromatic ring conformer: 64.93655141804125 kcal/mol)

>  <smiles>  (33) 
O=C1c2ccccc2C(=O)N1c1ccc(F)cn1

>  <score_type>  (33) 
oracle

>  <origin>  (33) 
adg

>  <m_score__min__energy>  (33) 
-6.25

>  <m_primary>  (33) 
energy

$$$$
33:0
     RDKit          3D

 46 48  0  0  0  0  0  0  0  0999 V2000
   56.3983   30.4961   42.0755 H   0  0  0  0  0  0  0  0  0  0  0  0
   56.6440   30.6400   43.1380 C   0  0  0  0  0  0  0  0  0  0  0  0
   55.9620   29.7750   44.1170 C   0  0  0  0  0  0  0  0  0  0  0  0
   54.7680   29.4180   43.9400 O   0  0  0  0  0  0  0  0  0  0  0  0
   56.6530   29.3920   45.3080 N   0  0  0  0  0  0  0  0  0  0  0  0
   57.1850   27.7680   45.5920 S   0  0  0  0  0  0  0  0  0  0  0  0
   57.6940   27.1820   44.3060 O   0  0  0  0  0  0  0  0  0  0  0  0
   56.0310   26.9300   46.0710 O   0  0  0  0  0  0  0  0  0  0  0  0
   58.4720   27.7610   46.7930 C   0  0  0  0  0  0  0  0  0  0  0  0
   58.5480   28.7830   47.7480 C   0  0  0  0  0  0  0  0  0  0  0  0
   57.7953   29.5851   47.7535 H   0  0  0  0  0  0  0  0  0  0  0  0
   59.5750   28.7870   48.6920 C   0  0  0  0  0  0  0  0  0  0  0  0
   59.6331   29.5936   49.4376 H   0  0  0  0  0  0  0  0  0  0  0  0
   60.5290   27.7680   48.6910 C   0  0  0  0  0  0  0  0  0  0  0  0
   61.3343   27.7678   49.4403 H   0  0  0  0  0  0  0  0  0  0  0  0
   60.4610   26.7480   47.7380 C   0  0  0  0  0  0  0  0  0  0  0  0
   61.2119   25.9441   47.7385 H   0  0  0  0  0  0  0  0  0  0  0  0
   59.4400   26.7490   46.7850 C   0  0  0  0  0  0  0  0  0  0  0  0
   59.3961   25.9534   46.0267 H   0  0  0  0  0  0  0  0  0  0  0  0
   57.5420   31.5900   43.4430 C   0  0  0  0  0  0  0  0  0  0  0  0
   58.0530   32.0914   42.6079 H   0  0  0  0  0  0  0  0  0  0  0  0
   57.8970   32.0140   44.8100 C   0  0  0  0  0  0  0  0  0  0  0  0
   58.9270   31.3840   45.5240 C   0  0  0  0  0  0  0  0  0  0  0  0
   59.5247   30.5953   45.0437 H   0  0  0  0  0  0  0  0  0  0  0  0
   59.1950   31.7550   46.8410 C   0  0  0  0  0  0  0  0  0  0  0  0
   60.0097   31.2698   47.3986 H   0  0  0  0  0  0  0  0  0  0  0  0
   58.4160   32.7540   47.4510 C   0  0  0  0  0  0  0  0  0  0  0  0
   58.6320   33.1660   48.7790 O   0  0  0  0  0  0  0  0  0  0  0  0
   59.7480   33.9260   49.2440 C   0  0  0  0  0  0  0  0  0  0  0  0
   59.6569   34.9624   48.8868 H   0  0  0  0  0  0  0  0  0  0  0  0
   59.7622   33.9096   50.3438 H   0  0  0  0  0  0  0  0  0  0  0  0
   61.0300   33.3310   48.7250 C   0  0  0  0  0  0  0  0  0  0  0  0
   61.5660   32.1860   49.3380 C   0  0  0  0  0  0  0  0  0  0  0  0
   61.0556   31.7374   50.2030 H   0  0  0  0  0  0  0  0  0  0  0  0
   62.7460   31.6150   48.8520 C   0  0  0  0  0  0  0  0  0  0  0  0
   63.1681   30.7265   49.3443 H   0  0  0  0  0  0  0  0  0  0  0  0
   63.3900   32.1680   47.7450 C   0  0  0  0  0  0  0  0  0  0  0  0
   64.3154   31.7138   47.3610 H   0  0  0  0  0  0  0  0  0  0  0  0
   62.8560   33.3000   47.1260 C   0  0  0  0  0  0  0  0  0  0  0  0
   63.4710   33.8280   46.0440 F   0  0  0  0  0  0  0  0  0  0  0  0
   61.6780   33.8780   47.6120 C   0  0  0  0  0  0  0  0  0  0  0  0
   61.2594   34.7666   47.1168 H   0  0  0  0  0  0  0  0  0  0  0  0
   57.4230   33.3550   46.7350 N   0  0  0  0  0  0  0  0  0  0  0  0
   56.8420   34.0950   47.1880 H   0  0  0  0  0  0  0  0  0  0  0  0
   57.1390   32.9980   45.4540 C   0  0  0  0  0  0  0  0  0  0  0  0
   56.3091   33.4853   44.9213 H   0  0  0  0  0  0  0  0  0  0  0  0
  1  2  1  0
  2  3  1  0
  3  4  2  0
  3  5  1  0
  5  6  1  0
  6  7  2  0
  6  8  2  0
  6  9  1  0
  9 10  2  0
 10 11  1  0
 10 12  1  0
 12 13  1  0
 12 14  2  0
 14 15  1  0
 14 16  1  0
 16 17  1  0
 16 18  2  0
 18 19  1  0
  2 20  2  0
 20 21  1  0
 20 22  1  0
 22 23  2  0
 23 24  1  0
 23 25  1  0
 25 26  1  0
 25 27  2  0
 27 28  1  0
 28 29  1  0
 29 30  1  0
 29 31  1  0
 29 32  1  0
 32 33  2  0
 33 34  1  0
 33 35  1  0
 35 36  1  0
 35 37  2  0
 37 38  1  0
 37 39  1  0
 39 40  1  0
 39 41  2  0
 41 42  1  0
 27 43  1  0
 43 44  1  0
 43 45  2  0
 45 46  1  0
 18  9  1  0
 45 22  1  0
 41 32  1  0
M  CHG  2   5  -1  43   1
M  END
>  <UniqueID>  (34) 
33

>  <SMILES>  (34) 
O=C(/C=C\c1ccc(OCc2cccc(F)c2)[nH+]c1)[N-]S(=O)(=O)c1ccccc1

>  <Energy>  (34) 
59.37196765036474

>  <Genealogy>  (34) 
O=C(C=Cc1ccc(OCc2cccc(F)c2)[nH+]c1)[N-]S(=O)(=O)c1ccccc1 (protonated)
O=C(/C=C\c1ccc(OCc2cccc(F)c2)[nH+]c1)[N-]S(=O)(=O)c1ccccc1 (cis-trans isomerization)
O=C(/C=C\c1ccc(OCc2cccc(F)c2)[nH+]c1)[N-]S(=O)(=O)c1ccccc1 (3D coordinates assigned)
O=C(/C=C\c1ccc(OCc2cccc(F)c2)[nH+]c1)[N-]S(=O)(=O)c1ccccc1 (optimized conformer: 59.37196765036474 kcal/mol)

>  <smiles>  (34) 
O=C(C=Cc1ccc(OCc2cccc(F)c2)nc1)NS(=O)(=O)c1ccccc1

>  <score_type>  (34) 
oracle

>  <origin>  (34) 
adg

>  <m_score__min__energy>  (34) 
-9.2300000000000004

>  <m_primary>  (34) 
energy

$$$$
34:0
     RDKit          3D

 43 47  0  0  0  0  0  0  0  0999 V2000
   62.2500   34.5560   49.3760 C   0  0  0  0  0  0  0  0  0  0  0  0
   60.9990   34.5950   48.6980 O   0  0  0  0  0  0  0  0  0  0  0  0
   60.4190   33.5000   48.0420 C   0  0  0  0  0  0  0  0  0  0  0  0
   61.1750   32.4010   47.5940 C   0  0  0  0  0  0  0  0  0  0  0  0
   60.5500   31.3310   46.9450 C   0  0  0  0  0  0  0  0  0  0  0  0
   59.1590   31.3350   46.7400 C   0  0  0  0  0  0  0  0  0  0  0  0
   58.4770   30.2180   46.0430 C   0  0  0  0  0  0  0  0  0  0  0  0
   57.3730   30.4660   45.2730 N   0  0  0  0  0  0  0  0  0  0  0  0
   56.7130   29.4640   44.6100 C   0  0  0  0  0  0  0  0  0  0  0  0
   57.1360   28.1690   44.7120 N   0  0  0  0  0  0  0  0  0  0  0  0
   58.2150   27.9110   45.4900 C   0  0  0  0  0  0  0  0  0  0  0  0
   58.8940   28.8870   46.1420 C   0  0  0  0  0  0  0  0  0  0  0  0
   59.9170   28.3560   46.8380 N   0  0  0  0  0  0  0  0  0  0  0  0
   59.8240   27.0280   46.5550 C   0  0  0  0  0  0  0  0  0  0  0  0
   58.7870   26.7210   45.7320 N   0  0  0  0  0  0  0  0  0  0  0  0
   58.4120   25.4180   45.2490 C   0  0  0  0  0  0  0  0  0  0  0  0
   59.1360   24.2650   45.6380 C   0  0  0  0  0  0  0  0  0  0  0  0
   58.7680   22.9970   45.1590 C   0  0  0  0  0  0  0  0  0  0  0  0
   57.6800   22.9020   44.2930 C   0  0  0  0  0  0  0  0  0  0  0  0
   56.9830   24.0030   43.9070 C   0  0  0  0  0  0  0  0  0  0  0  0
   57.3220   25.2770   44.3620 C   0  0  0  0  0  0  0  0  0  0  0  0
   55.8880   23.6200   42.9940 C   0  0  0  0  0  0  0  0  0  0  0  0
   55.9810   22.1550   42.8390 N   0  0  0  0  0  0  0  0  0  0  0  0
   57.1110   21.6910   43.6690 C   0  0  0  0  0  0  0  0  0  0  0  0
   58.4120   32.4440   47.1730 C   0  0  0  0  0  0  0  0  0  0  0  0
   59.0380   33.5110   47.8230 C   0  0  0  0  0  0  0  0  0  0  0  0
   62.0785   34.5613   50.4625 H   0  0  0  0  0  0  0  0  0  0  0  0
   62.7911   33.6405   49.0947 H   0  0  0  0  0  0  0  0  0  0  0  0
   62.8471   35.4360   49.0947 H   0  0  0  0  0  0  0  0  0  0  0  0
   62.2630   32.3832   47.7550 H   0  0  0  0  0  0  0  0  0  0  0  0
   61.1513   30.4801   46.5924 H   0  0  0  0  0  0  0  0  0  0  0  0
   55.8360   29.7045   43.9911 H   0  0  0  0  0  0  0  0  0  0  0  0
   60.5207   26.2760   46.9538 H   0  0  0  0  0  0  0  0  0  0  0  0
   59.9931   24.3631   46.3205 H   0  0  0  0  0  0  0  0  0  0  0  0
   59.3263   22.0985   45.4607 H   0  0  0  0  0  0  0  0  0  0  0  0
   56.7497   26.1578   44.0353 H   0  0  0  0  0  0  0  0  0  0  0  0
   54.9153   23.8976   43.4262 H   0  0  0  0  0  0  0  0  0  0  0  0
   55.9730   24.1338   42.0251 H   0  0  0  0  0  0  0  0  0  0  0  0
   56.1930   21.9390   41.8360 H   0  0  0  0  0  0  0  0  0  0  0  0
   56.7566   20.9930   44.4418 H   0  0  0  0  0  0  0  0  0  0  0  0
   57.8610   21.1568   43.0672 H   0  0  0  0  0  0  0  0  0  0  0  0
   57.3262   32.4723   46.9989 H   0  0  0  0  0  0  0  0  0  0  0  0
   58.4388   34.3675   48.1656 H   0  0  0  0  0  0  0  0  0  0  0  0
  1  2  1  0
  2  3  1  0
  3  4  2  0
  4  5  1  0
  5  6  2  0
  6  7  1  0
  7  8  2  0
  8  9  1  0
  9 10  2  0
 10 11  1  0
 11 12  2  0
 12 13  1  0
 13 14  2  0
 14 15  1  0
 15 16  1  0
 16 17  2  0
 17 18  1  0
 18 19  2  0
 19 20  1  0
 20 21  2  0
 20 22  1  0
 22 23  1  0
 23 24  1  0
  6 25  1  0
 25 26  2  0
 26  3  1  0
 12  7  1  0
 21 16  1  0
 15 11  1  0
 24 19  1  0
  1 27  1  0
  1 28  1  0
  1 29  1  0
  4 30  1  0
  5 31  1  0
  9 32  1  0
 14 33  1  0
 17 34  1  0
 18 35  1  0
 21 36  1  0
 22 37  1  0
 22 38  1  0
 23 39  1  0
 24 40  1  0
 24 41  1  0
 25 42  1  0
 26 43  1  0
M  END
>  <UniqueID>  (35) 
34

>  <SMILES>  (35) 
COc1ccc(-c2ncnc3c2ncn3-c2ccc3c(c2)CNC3)cc1

>  <Energy>  (35) 
107.74881138370131

>  <Genealogy>  (35) 
COc1ccc(-c2ncnc3c2ncn3-c2ccc3c(c2)CNC3)cc1 (3D coordinates assigned)
COc1ccc(-c2ncnc3c2ncn3-c2ccc3c(c2)CNC3)cc1 (nonaromatic ring conformer: 107.74881138370131 kcal/mol)

>  <smiles>  (35) 
COc1ccc(-c2ncnc3c2ncn3-c2ccc3c(c2)CNC3)cc1

>  <score_type>  (35) 
oracle

>  <origin>  (35) 
adg

>  <m_score__min__energy>  (35) 
-7.6900000000000004

>  <m_primary>  (35) 
energy

$$$$
35:0
     RDKit          3D

 46 49  0  0  1  0  0  0  0  0999 V2000
   55.8830   29.8870   43.7920 C   0  0  0  0  0  0  0  0  0  0  0  0
   56.0550   29.5210   45.1460 O   0  0  0  0  0  0  0  0  0  0  0  0
   57.1560   28.7590   45.5710 C   0  0  0  0  0  0  0  0  0  0  0  0
   57.2580   27.4220   45.2460 C   0  0  0  0  0  0  0  0  0  0  0  0
   58.3540   26.6910   45.6770 C   0  0  0  0  0  0  0  0  0  0  0  0
   58.4890   25.0030   45.2700 Cl  0  0  0  0  0  0  0  0  0  0  0  0
   59.3490   27.2840   46.4280 C   0  0  0  0  0  0  0  0  0  0  0  0
   60.5480   26.5200   46.9090 C   0  0  0  0  0  0  0  0  0  0  0  0
   59.2730   28.6220   46.7670 C   0  0  0  0  0  0  0  0  0  0  0  0
   58.1630   29.3920   46.3400 C   0  0  0  0  0  0  0  0  0  0  0  0
   58.0240   30.6650   46.7530 N   0  0  0  0  0  0  0  0  0  0  0  0
   58.1550   31.7630   46.2150 C   0  0  0  0  0  0  0  0  0  0  0  0
   57.1540   32.1600   45.3670 N   0  0  0  0  0  0  0  0  0  0  0  0
   57.2560   33.3410   44.7640 C   0  0  0  0  0  0  0  0  0  0  0  0
   58.2930   34.1660   44.9420 N   0  0  0  0  0  0  0  0  0  0  0  0
   59.2680   33.7660   45.7740 C   0  0  0  0  0  0  0  0  0  0  0  0
   60.3260   34.6200   45.9490 C   0  0  0  0  0  0  0  0  0  0  0  0
   61.3240   34.2160   46.7980 C   0  0  0  0  0  0  0  0  0  0  0  0
   61.3530   33.0400   47.4820 C   0  0  0  0  0  0  0  0  0  0  0  0
   62.4370   32.6940   48.3500 C   0  0  0  0  0  0  0  0  0  0  0  0
   63.3510   32.3850   49.0730 C   0  0  0  0  0  0  0  0  0  0  0  0
   64.4600   32.0000   49.9220 C   0  0  0  0  0  0  0  0  0  0  0  0
   65.6370   32.7230   49.7450 C   0  0  0  0  0  0  0  0  0  0  0  0
   66.7240   32.3770   50.5480 C   0  0  0  0  0  0  0  0  0  0  0  0
   66.5710   31.3370   51.4700 C   0  0  0  0  0  0  0  0  0  0  0  0
   65.4270   30.6720   51.6070 N   0  0  0  0  0  0  0  0  0  0  0  0
   64.3540   30.9800   50.8460 C   0  0  0  0  0  0  0  0  0  0  0  0
   60.2540   32.1820   47.2830 C   0  0  0  0  0  0  0  0  0  0  0  0
   59.2460   32.5510   46.4470 C   0  0  0  0  0  0  0  0  0  0  0  0
   55.4157   30.8813   43.7375 H   0  0  0  0  0  0  0  0  0  0  0  0
   56.8626   29.9143   43.2923 H   0  0  0  0  0  0  0  0  0  0  0  0
   55.2368   29.1503   43.2923 H   0  0  0  0  0  0  0  0  0  0  0  0
   56.4725   26.9380   44.6471 H   0  0  0  0  0  0  0  0  0  0  0  0
   60.5606   26.5120   48.0089 H   0  0  0  0  0  0  0  0  0  0  0  0
   60.4984   25.4866   46.5353 H   0  0  0  0  0  0  0  0  0  0  0  0
   61.4637   27.0015   46.5353 H   0  0  0  0  0  0  0  0  0  0  0  0
   60.0705   29.0866   47.3654 H   0  0  0  0  0  0  0  0  0  0  0  0
   56.4483   33.6542   44.0861 H   0  0  0  0  0  0  0  0  0  0  0  0
   58.3420   35.0890   44.4510 H   0  0  0  0  0  0  0  0  0  0  0  0
   60.3724   35.5888   45.4301 H   0  0  0  0  0  0  0  0  0  0  0  0
   62.1734   34.9007   46.9381 H   0  0  0  0  0  0  0  0  0  0  0  0
   65.7066   33.5325   49.0035 H   0  0  0  0  0  0  0  0  0  0  0  0
   67.6814   32.9111   50.4577 H   0  0  0  0  0  0  0  0  0  0  0  0
   67.4260   31.0591   52.1039 H   0  0  0  0  0  0  0  0  0  0  0  0
   63.4104   30.4264   50.9610 H   0  0  0  0  0  0  0  0  0  0  0  0
   60.2106   31.2138   47.8033 H   0  0  0  0  0  0  0  0  0  0  0  0
  1  2  1  0
  2  3  1  0
  3  4  2  0
  4  5  1  0
  5  6  1  0
  5  7  2  0
  7  8  1  0
  7  9  1  0
  9 10  2  0
 10 11  1  0
 11 12  2  0
 12 13  1  0
 13 14  2  0
 14 15  1  0
 15 16  1  0
 16 17  2  0
 17 18  1  0
 18 19  2  0
 19 20  1  0
 20 21  3  0
 21 22  1  0
 22 23  2  0
 23 24  1  0
 24 25  2  0
 25 26  1  0
 26 27  2  0
 19 28  1  0
 28 29  2  0
 10  3  1  0
 29 12  1  0
 29 16  1  0
 27 22  1  0
  1 30  1  0
  1 31  1  0
  1 32  1  0
  4 33  1  0
  8 34  1  0
  8 35  1  0
  8 36  1  0
  9 37  1  0
 14 38  1  0
 15 39  1  0
 17 40  1  0
 18 41  1  0
 23 42  1  0
 24 43  1  0
 25 44  1  0
 27 45  1  0
 28 46  1  0
M  END
>  <smiles>  (36) 
COc1cc(Cl)c(C)cc1N=c1nc[nH]c2ccc(C#Cc3cccnc3)cc12

>  <score_type>  (36) 
oracle

>  <origin>  (36) 
adg

>  <m_score__min__energy>  (36) 
-8.4000000000000004

>  <m_primary>  (36) 
energy

$$$$
36:0
     RDKit          3D

 47 50  0  0  0  0  0  0  0  0999 V2000
   56.2740   21.1000   43.6910 C   0  0  0  0  0  0  0  0  0  0  0  0
   55.6010   22.3130   44.0200 O   0  0  0  0  0  0  0  0  0  0  0  0
   56.2180   23.4270   44.6220 C   0  0  0  0  0  0  0  0  0  0  0  0
   57.6000   23.4870   44.8690 C   0  0  0  0  0  0  0  0  0  0  0  0
   58.1600   24.6220   45.4640 C   0  0  0  0  0  0  0  0  0  0  0  0
   57.3510   25.7030   45.8460 C   0  0  0  0  0  0  0  0  0  0  0  0
   57.9540   26.9090   46.4450 C   0  0  0  0  0  0  0  0  0  0  0  0
   58.7700   26.8600   47.5270 N   0  0  0  0  0  0  0  0  0  0  0  0
   58.9820   28.1540   47.8330 C   0  0  0  0  0  0  0  0  0  0  0  0
   59.7430   28.6300   48.8980 C   0  0  0  0  0  0  0  0  0  0  0  0
   59.8090   30.0120   49.0950 C   0  0  0  0  0  0  0  0  0  0  0  0
   59.1200   30.8870   48.2280 C   0  0  0  0  0  0  0  0  0  0  0  0
   58.3620   30.3590   47.1720 C   0  0  0  0  0  0  0  0  0  0  0  0
   58.3240   29.0080   47.0270 N   0  0  0  0  0  0  0  0  0  0  0  0
   57.6820   28.2380   46.1370 C   0  0  0  0  0  0  0  0  0  0  0  0
   56.9300   28.7540   45.0290 N   0  0  0  0  0  0  0  0  0  0  0  0
   57.3930   29.8450   44.1500 C   0  0  0  0  0  0  0  0  0  0  0  0
   57.0870   31.2380   44.7390 C   0  0  0  0  0  0  0  0  0  0  0  0
   57.7170   32.3540   43.8780 C   0  0  0  0  0  0  0  0  0  0  0  0
   57.8240   31.9950   42.3770 C   0  0  0  0  0  0  0  0  0  0  0  0
   56.7040   31.0390   41.9510 C   0  0  0  0  0  0  0  0  0  0  0  0
   56.7540   29.7100   42.7410 C   0  0  0  0  0  0  0  0  0  0  0  0
   55.9720   25.6460   45.5900 C   0  0  0  0  0  0  0  0  0  0  0  0
   55.1420   26.7020   45.9510 O   0  0  0  0  0  0  0  0  0  0  0  0
   55.4190   24.5160   44.9810 C   0  0  0  0  0  0  0  0  0  0  0  0
   56.5632   20.5788   44.6155 H   0  0  0  0  0  0  0  0  0  0  0  0
   55.6037   20.4569   43.1018 H   0  0  0  0  0  0  0  0  0  0  0  0
   57.1744   21.3284   43.1018 H   0  0  0  0  0  0  0  0  0  0  0  0
   58.2435   22.6385   44.5935 H   0  0  0  0  0  0  0  0  0  0  0  0
   59.2458   24.6678   45.6343 H   0  0  0  0  0  0  0  0  0  0  0  0
   60.2771   27.9376   49.5653 H   0  0  0  0  0  0  0  0  0  0  0  0
   60.4000   30.4192   49.9286 H   0  0  0  0  0  0  0  0  0  0  0  0
   59.1769   31.9751   48.3791 H   0  0  0  0  0  0  0  0  0  0  0  0
   57.8149   31.0185   46.4822 H   0  0  0  0  0  0  0  0  0  0  0  0
   56.0050   28.3190   44.8510 H   0  0  0  0  0  0  0  0  0  0  0  0
   58.4861   29.7545   44.0670 H   0  0  0  0  0  0  0  0  0  0  0  0
   55.9971   31.3824   44.7734 H   0  0  0  0  0  0  0  0  0  0  0  0
   57.5154   31.2922   45.7507 H   0  0  0  0  0  0  0  0  0  0  0  0
   57.0990   33.2588   43.9756 H   0  0  0  0  0  0  0  0  0  0  0  0
   58.7424   32.5047   44.2467 H   0  0  0  0  0  0  0  0  0  0  0  0
   57.7530   32.9175   41.7821 H   0  0  0  0  0  0  0  0  0  0  0  0
   58.7894   31.4956   42.2077 H   0  0  0  0  0  0  0  0  0  0  0  0
   55.7334   31.5244   42.1311 H   0  0  0  0  0  0  0  0  0  0  0  0
   56.8378   30.8085   40.8838 H   0  0  0  0  0  0  0  0  0  0  0  0
   55.7257   29.3380   42.8602 H   0  0  0  0  0  0  0  0  0  0  0  0
   57.3867   29.0178   42.1660 H   0  0  0  0  0  0  0  0  0  0  0  0
   54.3378   24.4833   44.7811 H   0  0  0  0  0  0  0  0  0  0  0  0
  1  2  1  0
  2  3  1  0
  3  4  2  0
  4  5  1  0
  5  6  2  0
  6  7  1  0
  7  8  1  0
  8  9  2  0
  9 10  1  0
 10 11  2  0
 11 12  1  0
 12 13  2  0
 13 14  1  0
 14 15  1  0
 15 16  1  0
 16 17  1  0
 17 18  1  0
 18 19  1  0
 19 20  1  0
 20 21  1  0
 21 22  1  0
  6 23  1  0
 23 24  1  0
 23 25  2  0
 25  3  1  0
 15  7  2  0
 22 17  1  0
 14  9  1  0
  1 26  1  0
  1 27  1  0
  1 28  1  0
  4 29  1  0
  5 30  1  0
 10 31  1  0
 11 32  1  0
 12 33  1  0
 13 34  1  0
 16 35  1  0
 17 36  1  0
 18 37  1  0
 18 38  1  0
 19 39  1  0
 19 40  1  0
 20 41  1  0
 20 42  1  0
 21 43  1  0
 21 44  1  0
 22 45  1  0
 22 46  1  0
 25 47  1  0
M  CHG  1  24  -1
M  END
>  <UniqueID>  (37) 
35

>  <SMILES>  (37) 
COc1ccc(-c2nc3ccccn3c2NC2CCCCC2)c([O-])c1

>  <Energy>  (37) 
96.22993723284311

>  <Genealogy>  (37) 
COc1ccc(-c2nc3ccccn3c2NC2CCCCC2)c([O-])c1 (protonated)
COc1ccc(-c2nc3ccccn3c2NC2CCCCC2)c([O-])c1 (3D coordinates assigned)
COc1ccc(-c2nc3ccccn3c2NC2CCCCC2)c([O-])c1 (nonaromatic ring conformer: 96.22993723284311 kcal/mol)

>  <smiles>  (37) 
COc1ccc(-c2nc3ccccn3c2NC2CCCCC2)c(O)c1

>  <score_type>  (37) 
oracle

>  <origin>  (37) 
adg

>  <m_score__min__energy>  (37) 
-11.26

>  <m_primary>  (37) 
energy

$$$$
37:0
     RDKit          3D

 67 70  0  0  0  0  0  0  0  0999 V2000
   58.4510   29.9780   51.0290 C   0  0  0  0  0  0  0  0  0  0  0  0
   57.7790   30.5300   52.2820 C   0  0  0  0  0  0  0  0  0  0  0  0
   57.7860   32.0640   52.2840 C   0  0  0  0  0  0  0  0  0  0  0  0
   58.5150   32.6160   51.0950 C   0  0  0  0  0  0  0  0  0  0  0  0
   57.9850   32.6820   49.8580 N   0  0  0  0  0  0  0  0  0  0  0  0
   58.9300   33.2810   49.1070 C   0  0  0  0  0  0  0  0  0  0  0  0
   58.7840   33.5420   47.6580 C   0  0  0  0  0  0  0  0  0  0  0  0
   59.8830   34.0210   46.9230 C   0  0  0  0  0  0  0  0  0  0  0  0
   59.7650   34.2620   45.5510 C   0  0  0  0  0  0  0  0  0  0  0  0
   58.5560   34.0150   44.8980 C   0  0  0  0  0  0  0  0  0  0  0  0
   57.4620   33.5250   45.6160 C   0  0  0  0  0  0  0  0  0  0  0  0
   57.5750   33.2840   46.9890 C   0  0  0  0  0  0  0  0  0  0  0  0
   60.0190   33.5450   49.9280 C   0  0  0  0  0  0  0  0  0  0  0  0
   61.3380   34.1670   49.5700 C   0  0  0  0  0  0  0  0  0  0  0  0
   62.4270   33.5940   50.3780 N   0  0  0  0  0  0  0  0  0  0  0  0
   62.8420   32.2530   49.9290 C   0  0  0  0  0  0  0  0  0  0  0  0
   61.8030   31.1640   50.2940 C   0  0  0  0  0  0  0  0  0  0  0  0
   61.1300   30.5510   49.1280 N   0  0  0  0  0  0  0  0  0  0  0  0
   61.5910   31.0800   47.8250 C   0  0  0  0  0  0  0  0  0  0  0  0
   61.1180   30.2130   46.6380 C   0  0  0  0  0  0  0  0  0  0  0  0
   59.9360   29.4190   47.0040 N   0  0  0  0  0  0  0  0  0  0  0  0
   58.7750   29.3870   46.1510 C   0  0  0  0  0  0  0  0  0  0  0  0
   58.5970   30.3640   45.1580 C   0  0  0  0  0  0  0  0  0  0  0  0
   57.4650   30.3440   44.3410 C   0  0  0  0  0  0  0  0  0  0  0  0
   56.4970   29.3510   44.5090 C   0  0  0  0  0  0  0  0  0  0  0  0
   56.6480   28.3720   45.4970 C   0  0  0  0  0  0  0  0  0  0  0  0
   55.6460   27.3990   45.6280 O   0  0  0  0  0  0  0  0  0  0  0  0
   55.8870   26.0360   45.9640 C   0  0  0  0  0  0  0  0  0  0  0  0
   57.7910   28.3950   46.3200 C   0  0  0  0  0  0  0  0  0  0  0  0
   59.9740   28.6010   48.2270 C   0  0  0  0  0  0  0  0  0  0  0  0
   61.0860   29.0790   49.1640 C   0  0  0  0  0  0  0  0  0  0  0  0
   59.7240   33.1310   51.1390 O   0  0  0  0  0  0  0  0  0  0  0  0
   59.2709   29.3045   51.3191 H   0  0  0  0  0  0  0  0  0  0  0  0
   57.7133   29.4217   50.4321 H   0  0  0  0  0  0  0  0  0  0  0  0
   58.8535   30.8097   50.4321 H   0  0  0  0  0  0  0  0  0  0  0  0
   56.7382   30.1757   52.3169 H   0  0  0  0  0  0  0  0  0  0  0  0
   58.3378   30.1776   53.1615 H   0  0  0  0  0  0  0  0  0  0  0  0
   56.7473   32.4254   52.2649 H   0  0  0  0  0  0  0  0  0  0  0  0
   58.3044   32.4038   53.1927 H   0  0  0  0  0  0  0  0  0  0  0  0
   57.0380   32.3580   49.5580 H   0  0  0  0  0  0  0  0  0  0  0  0
   60.8410   34.2071   47.4305 H   0  0  0  0  0  0  0  0  0  0  0  0
   60.6261   34.6469   44.9850 H   0  0  0  0  0  0  0  0  0  0  0  0
   58.4647   34.2061   43.8186 H   0  0  0  0  0  0  0  0  0  0  0  0
   56.5103   33.3285   45.1005 H   0  0  0  0  0  0  0  0  0  0  0  0
   56.7133   32.8905   47.5482 H   0  0  0  0  0  0  0  0  0  0  0  0
   61.5451   33.9839   48.5053 H   0  0  0  0  0  0  0  0  0  0  0  0
   61.2827   35.2470   49.7711 H   0  0  0  0  0  0  0  0  0  0  0  0
   63.2480   34.2430   50.3430 H   0  0  0  0  0  0  0  0  0  0  0  0
   62.9688   32.2691   48.8364 H   0  0  0  0  0  0  0  0  0  0  0  0
   63.7843   32.0038   50.4388 H   0  0  0  0  0  0  0  0  0  0  0  0
   62.3189   30.3685   50.8518 H   0  0  0  0  0  0  0  0  0  0  0  0
   61.0196   31.6609   50.8852 H   0  0  0  0  0  0  0  0  0  0  0  0
   61.1965   32.0989   47.6977 H   0  0  0  0  0  0  0  0  0  0  0  0
   62.6910   31.0717   47.8295 H   0  0  0  0  0  0  0  0  0  0  0  0
   60.8631   30.8689   45.7925 H   0  0  0  0  0  0  0  0  0  0  0  0
   61.9303   29.5251   46.3607 H   0  0  0  0  0  0  0  0  0  0  0  0
   59.3544   31.1502   45.0230 H   0  0  0  0  0  0  0  0  0  0  0  0
   57.3352   31.1115   43.5637 H   0  0  0  0  0  0  0  0  0  0  0  0
   55.6093   29.3387   43.8596 H   0  0  0  0  0  0  0  0  0  0  0  0
   55.9064   25.9260   47.0583 H   0  0  0  0  0  0  0  0  0  0  0  0
   55.0859   25.4083   45.5466 H   0  0  0  0  0  0  0  0  0  0  0  0
   56.8548   25.7210   45.5466 H   0  0  0  0  0  0  0  0  0  0  0  0
   57.9156   27.6310   47.1015 H   0  0  0  0  0  0  0  0  0  0  0  0
   59.0067   28.6805   48.7447 H   0  0  0  0  0  0  0  0  0  0  0  0
   60.1726   27.5559   47.9471 H   0  0  0  0  0  0  0  0  0  0  0  0
   60.8782   28.7394   50.1894 H   0  0  0  0  0  0  0  0  0  0  0  0
   62.0531   28.6660   48.8412 H   0  0  0  0  0  0  0  0  0  0  0  0
  1  2  1  0
  2  3  1  0
  3  4  1  0
  4  5  2  0
  5  6  1  0
  6  7  1  0
  7  8  2  0
  8  9  1  0
  9 10  2  0
 10 11  1  0
 11 12  2  0
  6 13  2  0
 13 14  1  0
 14 15  1  0
 15 16  1  0
 16 17  1  0
 17 18  1  0
 18 19  1  0
 19 20  1  0
 20 21  1  0
 21 22  1  0
 22 23  2  0
 23 24  1  0
 24 25  2  0
 25 26  1  0
 26 27  1  0
 27 28  1  0
 26 29  2  0
 21 30  1  0
 30 31  1  0
 13 32  1  0
 32  4  1  0
 12  7  1  0
 31 18  1  0
 29 22  1  0
  1 33  1  0
  1 34  1  0
  1 35  1  0
  2 36  1  0
  2 37  1  0
  3 38  1  0
  3 39  1  0
  5 40  1  0
  8 41  1  0
  9 42  1  0
 10 43  1  0
 11 44  1  0
 12 45  1  0
 14 46  1  0
 14 47  1  0
 15 48  1  0
 16 49  1  0
 16 50  1  0
 17 51  1  0
 17 52  1  0
 19 53  1  0
 19 54  1  0
 20 55  1  0
 20 56  1  0
 23 57  1  0
 24 58  1  0
 25 59  1  0
 28 60  1  0
 28 61  1  0
 28 62  1  0
 29 63  1  0
 30 64  1  0
 30 65  1  0
 31 66  1  0
 31 67  1  0
M  CHG  1   5   1
M  END
>  <UniqueID>  (38) 
36

>  <SMILES>  (38) 
CCCc1[nH+]c(-c2ccccc2)c(CNCCN2CCN(c3cccc(OC)c3)CC2)o1

>  <Energy>  (38) 
110.96713656835509

>  <Genealogy>  (38) 
CCCc1[nH+]c(-c2ccccc2)c(CNCCN2CCN(c3cccc(OC)c3)CC2)o1 (protonated)
CCCc1[nH+]c(-c2ccccc2)c(CNCCN2CCN(c3cccc(OC)c3)CC2)o1 (3D coordinates assigned)
CCCc1[nH+]c(-c2ccccc2)c(CNCCN2CCN(c3cccc(OC)c3)CC2)o1 (nonaromatic ring conformer: 110.96713656835509 kcal/mol)

>  <smiles>  (38) 
CCCc1nc(-c2ccccc2)c(CNCCN2CCN(c3cccc(OC)c3)CC2)o1

>  <score_type>  (38) 
oracle

>  <origin>  (38) 
adg

>  <m_score__min__energy>  (38) 
-7.1200000000000001

>  <m_primary>  (38) 
energy

$$$$
38:0
     RDKit          3D

 39 41  0  0  0  0  0  0  0  0999 V2000
   59.2260   28.8790   44.5680 C   0  0  0  0  0  0  0  0  0  0  0  0
   58.0630   29.6290   45.2090 C   0  0  0  0  0  0  0  0  0  0  0  0
   57.7710   30.8730   44.4760 N   0  0  0  0  0  0  0  0  0  0  0  0
   57.0050   30.7960   43.2240 C   0  0  0  0  0  0  0  0  0  0  0  0
   55.9290   29.7150   43.3040 C   0  0  0  0  0  0  0  0  0  0  0  0
   58.2200   32.1560   44.9750 C   0  0  0  0  0  0  0  0  0  0  0  0
   59.1460   32.2320   46.0270 C   0  0  0  0  0  0  0  0  0  0  0  0
   59.5540   33.4920   46.4860 C   0  0  0  0  0  0  0  0  0  0  0  0
   60.5250   33.6320   47.5910 C   0  0  0  0  0  0  0  0  0  0  0  0
   60.2610   34.2120   48.8300 C   0  0  0  0  0  0  0  0  0  0  0  0
   61.3630   34.2120   49.6950 C   0  0  0  0  0  0  0  0  0  0  0  0
   62.4990   33.6300   49.1410 C   0  0  0  0  0  0  0  0  0  0  0  0
   63.8040   33.4820   49.8030 C   0  0  0  0  0  0  0  0  0  0  0  0
   64.8720   32.7180   49.3450 C   0  0  0  0  0  0  0  0  0  0  0  0
   65.9890   32.7680   50.1870 C   0  0  0  0  0  0  0  0  0  0  0  0
   65.8100   33.5690   51.3070 C   0  0  0  0  0  0  0  0  0  0  0  0
   64.2570   34.2150   51.2490 S   0  0  0  0  0  0  0  0  0  0  0  0
   62.1310   33.1180   47.5800 S   0  0  0  0  0  0  0  0  0  0  0  0
   59.0450   34.6080   45.9000 N   0  0  0  0  0  0  0  0  0  0  0  0
   58.1540   34.5250   44.8810 C   0  0  0  0  0  0  0  0  0  0  0  0
   57.7470   33.3130   44.4240 N   0  0  0  0  0  0  0  0  0  0  0  0
   59.8719   28.4625   45.3549 H   0  0  0  0  0  0  0  0  0  0  0  0
   58.8357   28.0620   43.9434 H   0  0  0  0  0  0  0  0  0  0  0  0
   59.8092   29.5716   43.9434 H   0  0  0  0  0  0  0  0  0  0  0  0
   57.1703   28.9864   45.1976 H   0  0  0  0  0  0  0  0  0  0  0  0
   58.3382   29.8867   46.2424 H   0  0  0  0  0  0  0  0  0  0  0  0
   56.5249   31.7677   43.0361 H   0  0  0  0  0  0  0  0  0  0  0  0
   57.6958   30.5419   42.4065 H   0  0  0  0  0  0  0  0  0  0  0  0
   55.7090   29.4940   44.3589 H   0  0  0  0  0  0  0  0  0  0  0  0
   55.0150   30.0698   42.8054 H   0  0  0  0  0  0  0  0  0  0  0  0
   56.2881   28.8026   42.8054 H   0  0  0  0  0  0  0  0  0  0  0  0
   59.5460   31.3154   46.4850 H   0  0  0  0  0  0  0  0  0  0  0  0
   59.2808   34.6300   49.1030 H   0  0  0  0  0  0  0  0  0  0  0  0
   61.3332   34.6307   50.7117 H   0  0  0  0  0  0  0  0  0  0  0  0
   64.8419   32.1329   48.4140 H   0  0  0  0  0  0  0  0  0  0  0  0
   66.9221   32.2233   49.9806 H   0  0  0  0  0  0  0  0  0  0  0  0
   66.5547   33.7501   52.0960 H   0  0  0  0  0  0  0  0  0  0  0  0
   57.7593   35.4437   44.4227 H   0  0  0  0  0  0  0  0  0  0  0  0
   57.0480   33.2860   43.6510 H   0  0  0  0  0  0  0  0  0  0  0  0
  1  2  1  0
  2  3  1  0
  3  4  1  0
  4  5  1  0
  3  6  1  0
  6  7  2  0
  7  8  1  0
  8  9  1  0
  9 10  2  0
 10 11  1  0
 11 12  2  0
 12 13  1  0
 13 14  2  0
 14 15  1  0
 15 16  2  0
 16 17  1  0
 12 18  1  0
  8 19  2  0
 19 20  1  0
 20 21  2  0
 21  6  1  0
 18  9  1  0
 17 13  1  0
  1 22  1  0
  1 23  1  0
  1 24  1  0
  2 25  1  0
  2 26  1  0
  4 27  1  0
  4 28  1  0
  5 29  1  0
  5 30  1  0
  5 31  1  0
  7 32  1  0
 10 33  1  0
 11 34  1  0
 14 35  1  0
 15 36  1  0
 16 37  1  0
 20 38  1  0
 21 39  1  0
M  CHG  1  21   1
M  END
>  <UniqueID>  (39) 
37

>  <SMILES>  (39) 
CCN(CC)c1cc(-c2ccc(-c3cccs3)s2)nc[nH+]1

>  <Energy>  (39) 
90.68181892708843

>  <Genealogy>  (39) 
CCN(CC)c1cc(-c2ccc(-c3cccs3)s2)nc[nH+]1 (protonated)
CCN(CC)c1cc(-c2ccc(-c3cccs3)s2)nc[nH+]1 (3D coordinates assigned)
CCN(CC)c1cc(-c2ccc(-c3cccs3)s2)nc[nH+]1 (optimized conformer: 90.68181892708843 kcal/mol)

>  <smiles>  (39) 
CCN(CC)c1cc(-c2ccc(-c3cccs3)s2)ncn1

>  <score_type>  (39) 
oracle

>  <origin>  (39) 
adg

>  <m_score__min__energy>  (39) 
-5.3200000000000003

>  <m_primary>  (39) 
energy

$$$$
39:0
     RDKit          3D

 41 44  0  0  0  0  0  0  0  0999 V2000
   55.2350   24.4500   45.4310 C   0  0  0  0  0  0  0  0  0  0  0  0
   55.6770   25.4890   46.2970 O   0  0  0  0  0  0  0  0  0  0  0  0
   56.8910   26.1550   46.1150 C   0  0  0  0  0  0  0  0  0  0  0  0
   58.0870   25.5610   46.4120 N   0  0  0  0  0  0  0  0  0  0  0  0
   59.2770   26.2190   46.2300 C   0  0  0  0  0  0  0  0  0  0  0  0
   59.2950   27.4960   45.7400 N   0  0  0  0  0  0  0  0  0  0  0  0
   58.1080   28.0830   45.4380 C   0  0  0  0  0  0  0  0  0  0  0  0
   56.9210   27.4500   45.6190 C   0  0  0  0  0  0  0  0  0  0  0  0
   55.8950   28.2380   45.2530 N   0  0  0  0  0  0  0  0  0  0  0  0
   56.5330   29.3660   44.8420 C   0  0  0  0  0  0  0  0  0  0  0  0
   55.9130   30.3770   44.4180 O   0  0  0  0  0  0  0  0  0  0  0  0
   57.8890   29.3060   44.9250 N   0  0  0  0  0  0  0  0  0  0  0  0
   58.8580   30.3400   44.5460 C   0  0  0  0  0  0  0  0  0  0  0  0
   58.4680   31.6840   45.1230 C   0  0  0  0  0  0  0  0  0  0  0  0
   57.8250   32.6210   44.2960 C   0  0  0  0  0  0  0  0  0  0  0  0
   57.4920   33.8890   44.7790 C   0  0  0  0  0  0  0  0  0  0  0  0
   57.8020   34.2400   46.0930 C   0  0  0  0  0  0  0  0  0  0  0  0
   58.4400   33.3220   46.9300 C   0  0  0  0  0  0  0  0  0  0  0  0
   58.7700   32.0410   46.4630 C   0  0  0  0  0  0  0  0  0  0  0  0
   59.4440   31.1080   47.3860 C   0  0  0  0  0  0  0  0  0  0  0  0
   60.7930   31.3030   47.7210 C   0  0  0  0  0  0  0  0  0  0  0  0
   61.4390   30.4120   48.5830 C   0  0  0  0  0  0  0  0  0  0  0  0
   60.7370   29.3320   49.1280 C   0  0  0  0  0  0  0  0  0  0  0  0
   59.3890   29.1420   48.8110 C   0  0  0  0  0  0  0  0  0  0  0  0
   58.7420   30.0270   47.9410 C   0  0  0  0  0  0  0  0  0  0  0  0
   54.8740   23.6015   46.0308 H   0  0  0  0  0  0  0  0  0  0  0  0
   54.4182   24.8243   44.7964 H   0  0  0  0  0  0  0  0  0  0  0  0
   56.0711   24.1211   44.7964 H   0  0  0  0  0  0  0  0  0  0  0  0
   60.2230   25.7163   46.4798 H   0  0  0  0  0  0  0  0  0  0  0  0
   60.2050   27.9880   45.6100 H   0  0  0  0  0  0  0  0  0  0  0  0
   59.8513   30.0594   44.9264 H   0  0  0  0  0  0  0  0  0  0  0  0
   58.8750   30.4203   43.4491 H   0  0  0  0  0  0  0  0  0  0  0  0
   57.5813   32.3531   43.2573 H   0  0  0  0  0  0  0  0  0  0  0  0
   56.9848   34.6113   44.1224 H   0  0  0  0  0  0  0  0  0  0  0  0
   57.5437   35.2405   46.4701 H   0  0  0  0  0  0  0  0  0  0  0  0
   58.6858   33.6057   47.9640 H   0  0  0  0  0  0  0  0  0  0  0  0
   61.3434   32.1593   47.3041 H   0  0  0  0  0  0  0  0  0  0  0  0
   62.4999   30.5604   48.8328 H   0  0  0  0  0  0  0  0  0  0  0  0
   61.2461   28.6317   49.8065 H   0  0  0  0  0  0  0  0  0  0  0  0
   58.8362   28.2962   49.2457 H   0  0  0  0  0  0  0  0  0  0  0  0
   57.6814   29.8750   47.6918 H   0  0  0  0  0  0  0  0  0  0  0  0
  1  2  1  0
  2  3  1  0
  3  4  2  0
  4  5  1  0
  5  6  2  0
  6  7  1  0
  7  8  2  0
  8  9  1  0
  9 10  1  0
 10 11  2  0
 10 12  1  0
 12 13  1  0
 13 14  1  0
 14 15  2  0
 15 16  1  0
 16 17  2  0
 17 18  1  0
 18 19  2  0
 19 20  1  0
 20 21  2  0
 21 22  1  0
 22 23  2  0
 23 24  1  0
 24 25  2  0
  8  3  1  0
 19 14  1  0
 25 20  1  0
 12  7  1  0
  1 26  1  0
  1 27  1  0
  1 28  1  0
  5 29  1  0
  6 30  1  0
 13 31  1  0
 13 32  1  0
 15 33  1  0
 16 34  1  0
 17 35  1  0
 18 36  1  0
 21 37  1  0
 22 38  1  0
 23 39  1  0
 24 40  1  0
 25 41  1  0
M  CHG  2   6   1   9  -1
M  END
>  <UniqueID>  (40) 
38

>  <SMILES>  (40) 
COc1nc[nH+]c2c1[n-]c(=O)n2Cc1ccccc1-c1ccccc1

>  <Energy>  (40) 
89.48078176396574

>  <Genealogy>  (40) 
COc1nc[nH+]c2c1[n-]c(=O)n2Cc1ccccc1-c1ccccc1 (protonated)
COc1nc[nH+]c2c1[n-]c(=O)n2Cc1ccccc1-c1ccccc1 (3D coordinates assigned)
COc1nc[nH+]c2c1[n-]c(=O)n2Cc1ccccc1-c1ccccc1 (optimized conformer: 89.48078176396574 kcal/mol)

>  <smiles>  (40) 
COc1ncnc2c1[nH]c(=O)n2Cc1ccccc1-c1ccccc1

>  <score_type>  (40) 
oracle

>  <origin>  (40) 
adg

>  <m_score__min__energy>  (40) 
-8.7100000000000009

>  <m_primary>  (40) 
energy

$$$$
40:0
     RDKit          3D

 38 40  0  0  0  0  0  0  0  0999 V2000
   57.3150   23.6680   45.4650 C   0  0  0  0  0  0  0  0  0  0  0  0
   57.0330   24.5820   46.6510 C   0  0  0  0  0  0  0  0  0  0  0  0
   57.1390   25.9850   46.2470 N   0  0  0  0  0  0  0  0  0  0  0  0
   56.1120   26.8110   45.9300 C   0  0  0  0  0  0  0  0  0  0  0  0
   54.7720   26.4490   46.0000 O   0  0  0  0  0  0  0  0  0  0  0  0
   56.5840   28.0550   45.5340 C   0  0  0  0  0  0  0  0  0  0  0  0
   55.7960   29.2100   45.2000 N   0  0  0  0  0  0  0  0  0  0  0  0
   56.0850   29.6320   43.8240 C   0  0  0  0  0  0  0  0  0  0  0  0
   56.9270   30.8810   43.8230 C   0  0  0  0  0  0  0  0  0  0  0  0
   57.1820   31.5650   45.0230 C   0  0  0  0  0  0  0  0  0  0  0  0
   57.9330   32.7450   45.0150 C   0  0  0  0  0  0  0  0  0  0  0  0
   58.4230   33.2550   43.8090 C   0  0  0  0  0  0  0  0  0  0  0  0
   58.1590   32.5880   42.6090 C   0  0  0  0  0  0  0  0  0  0  0  0
   57.4080   31.4080   42.6140 C   0  0  0  0  0  0  0  0  0  0  0  0
   57.9610   27.9830   45.6250 C   0  0  0  0  0  0  0  0  0  0  0  0
   58.9490   28.9330   45.3740 C   0  0  0  0  0  0  0  0  0  0  0  0
   60.2900   28.5490   45.5530 C   0  0  0  0  0  0  0  0  0  0  0  0
   60.6090   27.2400   45.9760 C   0  0  0  0  0  0  0  0  0  0  0  0
   59.5920   26.3030   46.2290 C   0  0  0  0  0  0  0  0  0  0  0  0
   58.2660   26.7070   46.0490 C   0  0  0  0  0  0  0  0  0  0  0  0
   57.6209   22.6767   45.8307 H   0  0  0  0  0  0  0  0  0  0  0  0
   56.4056   23.5689   44.8541 H   0  0  0  0  0  0  0  0  0  0  0  0
   58.1221   24.0985   44.8541 H   0  0  0  0  0  0  0  0  0  0  0  0
   56.0171   24.3878   47.0254 H   0  0  0  0  0  0  0  0  0  0  0  0
   57.7706   24.3804   47.4417 H   0  0  0  0  0  0  0  0  0  0  0  0
   56.0240   29.9860   45.8640 H   0  0  0  0  0  0  0  0  0  0  0  0
   54.7810   28.9720   45.2970 H   0  0  0  0  0  0  0  0  0  0  0  0
   56.6282   28.8284   43.3051 H   0  0  0  0  0  0  0  0  0  0  0  0
   55.1361   29.8413   43.3085 H   0  0  0  0  0  0  0  0  0  0  0  0
   56.7898   31.1713   45.9723 H   0  0  0  0  0  0  0  0  0  0  0  0
   58.1382   33.2722   45.9584 H   0  0  0  0  0  0  0  0  0  0  0  0
   59.0164   34.1812   43.8043 H   0  0  0  0  0  0  0  0  0  0  0  0
   58.5422   32.9915   41.6601 H   0  0  0  0  0  0  0  0  0  0  0  0
   57.1935   30.8910   41.6671 H   0  0  0  0  0  0  0  0  0  0  0  0
   58.6885   29.9503   45.0465 H   0  0  0  0  0  0  0  0  0  0  0  0
   61.0958   29.2731   45.3622 H   0  0  0  0  0  0  0  0  0  0  0  0
   61.6621   26.9511   46.1086 H   0  0  0  0  0  0  0  0  0  0  0  0
   59.8327   25.2816   46.5590 H   0  0  0  0  0  0  0  0  0  0  0  0
  1  2  1  0
  2  3  1  0
  3  4  1  0
  4  5  1  0
  4  6  2  0
  6  7  1  0
  7  8  1  0
  8  9  1  0
  9 10  2  0
 10 11  1  0
 11 12  2  0
 12 13  1  0
 13 14  2  0
  6 15  1  0
 15 16  2  0
 16 17  1  0
 17 18  2  0
 18 19  1  0
 19 20  2  0
 20  3  1  0
 14  9  1  0
 20 15  1  0
  1 21  1  0
  1 22  1  0
  1 23  1  0
  2 24  1  0
  2 25  1  0
  7 26  1  0
  7 27  1  0
  8 28  1  0
  8 29  1  0
 10 30  1  0
 11 31  1  0
 12 32  1  0
 13 33  1  0
 14 34  1  0
 16 35  1  0
 17 36  1  0
 18 37  1  0
 19 38  1  0
M  CHG  2   5  -1   7   1
M  END
>  <UniqueID>  (41) 
39

>  <SMILES>  (41) 
CCn1c([O-])c([NH2+]Cc2ccccc2)c2ccccc21

>  <Energy>  (41) 
72.10952043589417

>  <Genealogy>  (41) 
CCn1c([O-])c([NH2+]Cc2ccccc2)c2ccccc21 (protonated)
CCn1c([O-])c([NH2+]Cc2ccccc2)c2ccccc21 (3D coordinates assigned)
CCn1c([O-])c([NH2+]Cc2ccccc2)c2ccccc21 (optimized conformer: 72.10952043589417 kcal/mol)

>  <smiles>  (41) 
CCn1c(O)c(NCc2ccccc2)c2ccccc21

>  <score_type>  (41) 
oracle

>  <origin>  (41) 
adg

>  <m_score__min__energy>  (41) 
-9.8200000000000003

>  <m_primary>  (41) 
energy

$$$$
41:0
     RDKit          3D

 25 26  0  0  0  0  0  0  0  0999 V2000
   54.7770   29.0150   45.4580 H   0  0  0  0  0  0  0  0  0  0  0  0
   55.2310   29.0430   44.5180 N   0  0  0  0  0  0  0  0  0  0  0  0
   56.0180   30.0130   44.1750 C   0  0  0  0  0  0  0  0  0  0  0  0
   56.6640   30.7340   45.1290 N   0  0  0  0  0  0  0  0  0  0  0  0
   57.5000   31.7600   44.8060 C   0  0  0  0  0  0  0  0  0  0  0  0
   58.1860   32.5220   45.8780 C   0  0  0  0  0  0  0  0  0  0  0  0
   58.4830   31.9140   47.0610 N   0  0  0  0  0  0  0  0  0  0  0  0
   59.1100   32.5650   48.0760 C   0  0  0  0  0  0  0  0  0  0  0  0
   59.3296   32.0335   49.0137 H   0  0  0  0  0  0  0  0  0  0  0  0
   59.4770   33.9050   47.9350 C   0  0  0  0  0  0  0  0  0  0  0  0
   60.1220   34.5440   49.0040 O   0  0  0  0  0  0  0  0  0  0  0  0
   61.2960   34.0520   49.6430 C   0  0  0  0  0  0  0  0  0  0  0  0
   61.1691   34.1052   50.7344 H   0  0  0  0  0  0  0  0  0  0  0  0
   61.4656   33.0071   49.3441 H   0  0  0  0  0  0  0  0  0  0  0  0
   62.1599   34.6638   49.3441 H   0  0  0  0  0  0  0  0  0  0  0  0
   59.1830   34.5590   46.7270 C   0  0  0  0  0  0  0  0  0  0  0  0
   59.4611   35.6146   46.5917 H   0  0  0  0  0  0  0  0  0  0  0  0
   58.5380   33.8700   45.6980 C   0  0  0  0  0  0  0  0  0  0  0  0
   58.3067   34.3801   44.7513 H   0  0  0  0  0  0  0  0  0  0  0  0
   57.6930   32.0760   43.4530 C   0  0  0  0  0  0  0  0  0  0  0  0
   58.3603   32.9000   43.1604 H   0  0  0  0  0  0  0  0  0  0  0  0
   57.0230   31.3260   42.4840 C   0  0  0  0  0  0  0  0  0  0  0  0
   57.1820   31.5920   41.2630 O   0  0  0  0  0  0  0  0  0  0  0  0
   56.1990   30.3110   42.8590 N   0  0  0  0  0  0  0  0  0  0  0  0
   55.7000   29.7540   42.1260 H   0  0  0  0  0  0  0  0  0  0  0  0
  1  2  1  0
  2  3  2  0
  3  4  1  0
  4  5  1  0
  5  6  1  0
  6  7  2  0
  7  8  1  0
  8  9  1  0
  8 10  2  0
 10 11  1  0
 11 12  1  0
 12 13  1  0
 12 14  1  0
 12 15  1  0
 10 16  1  0
 16 17  1  0
 16 18  2  0
 18 19  1  0
  5 20  2  0
 20 21  1  0
 20 22  1  0
 22 23  2  0
 22 24  1  0
 24 25  1  0
 24  3  1  0
 18  6  1  0
M  CHG  1   4  -1
M  END
>  <UniqueID>  (42) 
40

>  <SMILES>  (42) 
[H]/N=c1\[n-]c(-c2ccc(OC)cn2)cc(=O)[nH]1

>  <Energy>  (42) 
27.71522084564176

>  <Genealogy>  (42) 
COc1ccc(-c2cc(=O)[nH]c(=N)[n-]2)nc1 (protonated)
[H]/N=c1\[n-]c(-c2ccc(OC)cn2)cc(=O)[nH]1 (cis-trans isomerization)
[H]/N=c1\[n-]c(-c2ccc(OC)cn2)cc(=O)[nH]1 (3D coordinates assigned)
[H]/N=c1\[n-]c(-c2ccc(OC)cn2)cc(=O)[nH]1 (optimized conformer: 27.71522084564176 kcal/mol)

>  <smiles>  (42) 
COc1ccc(-c2cc(=O)[nH]c(=N)[nH]2)nc1

>  <score_type>  (42) 
oracle

>  <origin>  (42) 
adg

>  <m_score__min__energy>  (42) 
-8.2300000000000004

>  <m_primary>  (42) 
energy

$$$$
42:0
     RDKit          3D

 26 27  0  0  0  0  0  0  0  0999 V2000
   59.0820   26.4520   45.6770 O   0  0  0  0  0  0  0  0  0  0  0  0
   58.6300   27.5700   45.3170 C   0  0  0  0  0  0  0  0  0  0  0  0
   59.5010   28.6000   44.9720 C   0  0  0  0  0  0  0  0  0  0  0  0
   58.9820   29.8330   44.5750 C   0  0  0  0  0  0  0  0  0  0  0  0
   57.6290   30.0450   44.5170 N   0  0  0  0  0  0  0  0  0  0  0  0
   57.1440   31.3740   44.1060 C   0  0  0  0  0  0  0  0  0  0  0  0
   57.8340   32.4690   44.8820 C   0  0  0  0  0  0  0  0  0  0  0  0
   58.4940   33.5100   44.2060 C   0  0  0  0  0  0  0  0  0  0  0  0
   59.1180   34.5350   44.9250 C   0  0  0  0  0  0  0  0  0  0  0  0
   59.0790   34.5350   46.3220 C   0  0  0  0  0  0  0  0  0  0  0  0
   59.6830   35.5300   47.0170 F   0  0  0  0  0  0  0  0  0  0  0  0
   58.4100   33.5130   47.0020 C   0  0  0  0  0  0  0  0  0  0  0  0
   57.7850   32.4880   46.2870 C   0  0  0  0  0  0  0  0  0  0  0  0
   56.7590   29.0310   44.8600 C   0  0  0  0  0  0  0  0  0  0  0  0
   55.3720   29.1940   44.8250 O   0  0  0  0  0  0  0  0  0  0  0  0
   57.2550   27.7850   45.2610 C   0  0  0  0  0  0  0  0  0  0  0  0
   60.5890   28.4431   45.0120 H   0  0  0  0  0  0  0  0  0  0  0  0
   59.6696   30.6478   44.3043 H   0  0  0  0  0  0  0  0  0  0  0  0
   57.3439   31.5133   43.0333 H   0  0  0  0  0  0  0  0  0  0  0  0
   56.0643   31.4296   44.3089 H   0  0  0  0  0  0  0  0  0  0  0  0
   58.5199   33.5186   43.1063 H   0  0  0  0  0  0  0  0  0  0  0  0
   59.6401   35.3420   44.3901 H   0  0  0  0  0  0  0  0  0  0  0  0
   58.3756   33.5158   48.1015 H   0  0  0  0  0  0  0  0  0  0  0  0
   57.2516   31.6914   46.8264 H   0  0  0  0  0  0  0  0  0  0  0  0
   54.7570   28.9610   45.5930 H   0  0  0  0  0  0  0  0  0  0  0  0
   56.5597   26.9767   45.5316 H   0  0  0  0  0  0  0  0  0  0  0  0
  1  2  2  0
  2  3  1  0
  3  4  2  0
  4  5  1  0
  5  6  1  0
  6  7  1  0
  7  8  2  0
  8  9  1  0
  9 10  2  0
 10 11  1  0
 10 12  1  0
 12 13  2  0
  5 14  1  0
 14 15  1  0
 14 16  2  0
 16  2  1  0
 13  7  1  0
  3 17  1  0
  4 18  1  0
  6 19  1  0
  6 20  1  0
  8 21  1  0
  9 22  1  0
 12 23  1  0
 13 24  1  0
 15 25  1  0
 16 26  1  0
M  END
>  <UniqueID>  (43) 
41

>  <SMILES>  (43) 
O=c1ccn(Cc2ccc(F)cc2)c(O)c1

>  <Energy>  (43) 
29.837641719121816

>  <Genealogy>  (43) 
O=c1ccn(Cc2ccc(F)cc2)c(O)c1 (3D coordinates assigned)
O=c1ccn(Cc2ccc(F)cc2)c(O)c1 (optimized conformer: 29.837641719121816 kcal/mol)

>  <smiles>  (43) 
O=c1ccn(Cc2ccc(F)cc2)c(O)c1

>  <score_type>  (43) 
oracle

>  <origin>  (43) 
adg

>  <m_score__min__energy>  (43) 
-6.7800000000000002

>  <m_primary>  (43) 
energy

$$$$
43:0
     RDKit          3D

 28 30  0  0  0  0  0  0  0  0999 V2000
   58.1390   32.7420   47.8860 C   0  0  0  0  0  0  0  0  0  0  0  0
   58.0210   33.0730   46.4720 N   0  0  0  0  0  0  0  0  0  0  0  0
   58.3300   34.2510   45.8660 C   0  0  0  0  0  0  0  0  0  0  0  0
   58.2170   34.2070   44.5070 N   0  0  0  0  0  0  0  0  0  0  0  0
   57.8300   32.9360   44.2920 C   0  0  0  0  0  0  0  0  0  0  0  0
   57.6170   32.3380   43.0970 N   0  0  0  0  0  0  0  0  0  0  0  0
   57.2680   31.0150   43.0920 C   0  0  0  0  0  0  0  0  0  0  0  0
   57.1390   30.3020   44.3200 C   0  0  0  0  0  0  0  0  0  0  0  0
   56.8170   28.9030   44.3450 N   0  0  0  0  0  0  0  0  0  0  0  0
   57.5050   27.9210   45.1390 C   0  0  0  0  0  0  0  0  0  0  0  0
   56.7980   26.9870   45.9190 C   0  0  0  0  0  0  0  0  0  0  0  0
   57.4890   26.0610   46.7080 C   0  0  0  0  0  0  0  0  0  0  0  0
   56.8010   25.1590   47.4520 F   0  0  0  0  0  0  0  0  0  0  0  0
   58.8860   26.0700   46.7370 C   0  0  0  0  0  0  0  0  0  0  0  0
   59.5940   27.0100   45.9830 C   0  0  0  0  0  0  0  0  0  0  0  0
   60.9490   27.0250   46.0210 F   0  0  0  0  0  0  0  0  0  0  0  0
   58.9060   27.9380   45.1950 C   0  0  0  0  0  0  0  0  0  0  0  0
   57.3960   30.9470   45.5010 N   0  0  0  0  0  0  0  0  0  0  0  0
   57.7240   32.2600   45.4550 C   0  0  0  0  0  0  0  0  0  0  0  0
   57.8307   33.6067   48.4920 H   0  0  0  0  0  0  0  0  0  0  0  0
   57.4917   31.8831   48.1168 H   0  0  0  0  0  0  0  0  0  0  0  0
   59.1837   32.4863   48.1168 H   0  0  0  0  0  0  0  0  0  0  0  0
   58.6405   35.1507   46.4175 H   0  0  0  0  0  0  0  0  0  0  0  0
   57.0863   30.4997   42.1373 H   0  0  0  0  0  0  0  0  0  0  0  0
   56.0300   28.5790   43.7380 H   0  0  0  0  0  0  0  0  0  0  0  0
   55.6981   26.9850   45.9083 H   0  0  0  0  0  0  0  0  0  0  0  0
   59.4283   25.3376   47.3530 H   0  0  0  0  0  0  0  0  0  0  0  0
   59.4672   28.6858   44.6156 H   0  0  0  0  0  0  0  0  0  0  0  0
  1  2  1  0
  2  3  1  0
  3  4  2  0
  4  5  1  0
  5  6  2  0
  6  7  1  0
  7  8  2  0
  8  9  1  0
  9 10  1  0
 10 11  2  0
 11 12  1  0
 12 13  1  0
 12 14  2  0
 14 15  1  0
 15 16  1  0
 15 17  2  0
  8 18  1  0
 18 19  2  0
 19  2  1  0
 19  5  1  0
 17 10  1  0
  1 20  1  0
  1 21  1  0
  1 22  1  0
  3 23  1  0
  7 24  1  0
  9 25  1  0
 11 26  1  0
 14 27  1  0
 17 28  1  0
M  END
>  <UniqueID>  (44) 
42

>  <SMILES>  (44) 
Cn1cnc2ncc(Nc3cc(F)cc(F)c3)nc21

>  <Energy>  (44) 
77.60088569015285

>  <Genealogy>  (44) 
Cn1cnc2ncc(Nc3cc(F)cc(F)c3)nc21 (3D coordinates assigned)
Cn1cnc2ncc(Nc3cc(F)cc(F)c3)nc21 (optimized conformer: 77.60088569015285 kcal/mol)

>  <smiles>  (44) 
Cn1cnc2ncc(Nc3cc(F)cc(F)c3)nc21

>  <score_type>  (44) 
oracle

>  <origin>  (44) 
adg

>  <m_score__min__energy>  (44) 
-6.1900000000000004

>  <m_primary>  (44) 
energy

$$$$
44:0
     RDKit          3D

 39 41  0  0  1  0  0  0  0  0999 V2000
   59.3450   31.4450   48.5500 C   0  0  0  0  0  0  0  0  0  0  0  0
   59.2860   32.5340   47.5430 C   0  0  0  0  0  0  0  0  0  0  0  0
   59.2670   33.8460   47.9530 C   0  0  0  0  0  0  0  0  0  0  0  0
   59.2120   34.8850   47.0340 C   0  0  0  0  0  0  0  0  0  0  0  0
   59.1770   34.5710   45.6770 C   0  0  0  0  0  0  0  0  0  0  0  0
   59.1970   33.2440   45.2760 C   0  0  0  0  0  0  0  0  0  0  0  0
   59.2520   32.2030   46.2050 C   0  0  0  0  0  0  0  0  0  0  0  0
   59.2690   30.9220   45.7210 O   0  0  0  0  0  0  0  0  0  0  0  0
   58.1300   30.1670   45.4740 C   0  0  0  0  0  0  0  0  0  0  0  0
   57.0970   30.5950   44.6640 C   0  0  0  0  0  0  0  0  0  0  0  0
   56.0260   29.7360   44.5080 C   0  0  0  0  0  0  0  0  0  0  0  0
   55.0410   30.0890   43.7650 N   0  0  0  0  0  0  0  0  0  0  0  0
   55.9900   28.5230   45.1270 N   0  0  0  0  0  0  0  0  0  0  0  0
   57.0080   28.1270   45.9110 C   0  0  0  0  0  0  0  0  0  0  0  0
   56.9850   26.9810   46.5010 N   0  0  0  0  0  0  0  0  0  0  0  0
   56.8910   25.7560   45.7530 C   0  0  0  0  0  0  0  0  0  0  0  0
   58.0020   25.1460   45.2050 C   0  0  0  0  0  0  0  0  0  0  0  0
   57.8460   23.9750   44.5010 C   0  0  0  0  0  0  0  0  0  0  0  0
   56.5800   23.4020   44.3380 C   0  0  0  0  0  0  0  0  0  0  0  0
   56.3930   22.1810   43.6070 C   0  0  0  0  0  0  0  0  0  0  0  0
   56.2430   21.1900   43.0140 N   0  0  0  0  0  0  0  0  0  0  0  0
   55.4680   24.0010   44.8800 C   0  0  0  0  0  0  0  0  0  0  0  0
   55.6300   25.1770   45.5850 C   0  0  0  0  0  0  0  0  0  0  0  0
   58.0470   28.9450   46.0700 N   0  0  0  0  0  0  0  0  0  0  0  0
   59.3215   31.8785   49.5607 H   0  0  0  0  0  0  0  0  0  0  0  0
   58.4818   30.7762   48.4178 H   0  0  0  0  0  0  0  0  0  0  0  0
   60.2754   30.8733   48.4178 H   0  0  0  0  0  0  0  0  0  0  0  0
   59.2959   34.0766   49.0282 H   0  0  0  0  0  0  0  0  0  0  0  0
   59.1964   35.9325   47.3695 H   0  0  0  0  0  0  0  0  0  0  0  0
   59.1336   35.3736   44.9260 H   0  0  0  0  0  0  0  0  0  0  0  0
   59.1689   33.0060   44.2024 H   0  0  0  0  0  0  0  0  0  0  0  0
   57.1253   31.5752   44.1656 H   0  0  0  0  0  0  0  0  0  0  0  0
   54.3050   30.7800   44.0840 H   0  0  0  0  0  0  0  0  0  0  0  0
   55.1610   27.8840   44.9930 H   0  0  0  0  0  0  0  0  0  0  0  0
   59.0000   25.5914   45.3301 H   0  0  0  0  0  0  0  0  0  0  0  0
   58.7263   23.4834   44.0612 H   0  0  0  0  0  0  0  0  0  0  0  0
   54.4710   23.5534   44.7549 H   0  0  0  0  0  0  0  0  0  0  0  0
   54.7488   25.6682   46.0234 H   0  0  0  0  0  0  0  0  0  0  0  0
   58.8250   28.6330   46.6740 H   0  0  0  0  0  0  0  0  0  0  0  0
  1  2  1  0
  2  3  2  0
  3  4  1  0
  4  5  2  0
  5  6  1  0
  6  7  2  0
  7  8  1  0
  8  9  1  0
  9 10  2  0
 10 11  1  0
 11 12  2  3
 11 13  1  0
 13 14  1  0
 14 15  2  0
 15 16  1  0
 16 17  2  0
 17 18  1  0
 18 19  2  0
 19 20  1  0
 20 21  3  0
 19 22  1  0
 22 23  2  0
 14 24  1  0
  7  2  1  0
 24  9  1  0
 23 16  1  0
  1 25  1  0
  1 26  1  0
  1 27  1  0
  3 28  1  0
  4 29  1  0
  5 30  1  0
  6 31  1  0
 10 32  1  0
 12 33  1  0
 13 34  1  0
 17 35  1  0
 18 36  1  0
 22 37  1  0
 23 38  1  0
 24 39  1  0
M  END
>  <smiles>  (45) 
Cc1ccccc1Oc1cc(=N)[nH]c(=Nc2ccc(C#N)cc2)[nH]1

>  <score_type>  (45) 
oracle

>  <origin>  (45) 
adg

>  <m_score__min__energy>  (45) 
-7.8499999999999996

>  <m_primary>  (45) 
energy

$$$$
45:0
     RDKit          3D

 46 49  0  0  0  0  0  0  0  0999 V2000
   55.5220   28.6500   44.8890 O   0  0  0  0  0  0  0  0  0  0  0  0
   56.7230   28.8580   45.2140 C   0  0  0  0  0  0  0  0  0  0  0  0
   57.2330   30.1940   45.2380 N   0  0  0  0  0  0  0  0  0  0  0  0
   56.6770   31.2770   44.4370 C   0  0  0  0  0  0  0  0  0  0  0  0
   57.7940   32.2080   43.9650 C   0  0  0  0  0  0  0  0  0  0  0  0
   58.3410   33.0330   45.1020 C   0  0  0  0  0  0  0  0  0  0  0  0
   58.0370   32.6960   46.4320 C   0  0  0  0  0  0  0  0  0  0  0  0
   58.5150   33.4830   47.4840 C   0  0  0  0  0  0  0  0  0  0  0  0
   59.2900   34.6150   47.2160 C   0  0  0  0  0  0  0  0  0  0  0  0
   59.5870   34.9620   45.8950 C   0  0  0  0  0  0  0  0  0  0  0  0
   59.1100   34.1780   44.8390 C   0  0  0  0  0  0  0  0  0  0  0  0
   57.5770   27.7270   45.6440 C   0  0  0  0  0  0  0  0  0  0  0  0
   57.3800   26.4830   45.0220 C   0  0  0  0  0  0  0  0  0  0  0  0
   58.0940   25.3520   45.4500 C   0  0  0  0  0  0  0  0  0  0  0  0
   57.8910   24.0200   44.8260 C   0  0  0  0  0  0  0  0  0  0  0  0
   56.8470   23.8230   43.9070 C   0  0  0  0  0  0  0  0  0  0  0  0
   56.6500   22.5710   43.3240 C   0  0  0  0  0  0  0  0  0  0  0  0
   57.4920   21.5150   43.6690 C   0  0  0  0  0  0  0  0  0  0  0  0
   58.4930   21.7070   44.5690 N   0  0  0  0  0  0  0  0  0  0  0  0
   58.7070   22.9190   45.1500 C   0  0  0  0  0  0  0  0  0  0  0  0
   58.9720   25.4740   46.4810 N   0  0  0  0  0  0  0  0  0  0  0  0
   59.2130   26.6590   47.0990 C   0  0  0  0  0  0  0  0  0  0  0  0
   60.1490   26.7100   48.1380 C   0  0  0  0  0  0  0  0  0  0  0  0
   60.4410   27.9240   48.7600 C   0  0  0  0  0  0  0  0  0  0  0  0
   59.8120   29.0960   48.3360 C   0  0  0  0  0  0  0  0  0  0  0  0
   58.8740   29.0580   47.3010 C   0  0  0  0  0  0  0  0  0  0  0  0
   58.5370   27.8330   46.6840 C   0  0  0  0  0  0  0  0  0  0  0  0
   56.1613   30.8547   43.5620 H   0  0  0  0  0  0  0  0  0  0  0  0
   55.9657   31.8499   45.0501 H   0  0  0  0  0  0  0  0  0  0  0  0
   58.6076   31.6030   43.5383 H   0  0  0  0  0  0  0  0  0  0  0  0
   57.3783   32.8919   43.2103 H   0  0  0  0  0  0  0  0  0  0  0  0
   57.4210   31.8102   46.6460 H   0  0  0  0  0  0  0  0  0  0  0  0
   58.2809   33.2111   48.5238 H   0  0  0  0  0  0  0  0  0  0  0  0
   59.6662   35.2328   48.0448 H   0  0  0  0  0  0  0  0  0  0  0  0
   60.1969   35.8531   45.6853 H   0  0  0  0  0  0  0  0  0  0  0  0
   59.3379   34.4592   43.8003 H   0  0  0  0  0  0  0  0  0  0  0  0
   56.6614   26.3941   44.1939 H   0  0  0  0  0  0  0  0  0  0  0  0
   56.1820   24.6595   43.6460 H   0  0  0  0  0  0  0  0  0  0  0  0
   55.8374   22.4185   42.5985 H   0  0  0  0  0  0  0  0  0  0  0  0
   57.3464   20.5249   43.2125 H   0  0  0  0  0  0  0  0  0  0  0  0
   59.1090   20.9030   44.8260 H   0  0  0  0  0  0  0  0  0  0  0  0
   59.5230   23.0394   45.8777 H   0  0  0  0  0  0  0  0  0  0  0  0
   60.6559   25.7902   48.4652 H   0  0  0  0  0  0  0  0  0  0  0  0
   61.1675   27.9579   49.5853 H   0  0  0  0  0  0  0  0  0  0  0  0
   60.0559   30.0538   48.8189 H   0  0  0  0  0  0  0  0  0  0  0  0
   58.3945   29.9890   46.9643 H   0  0  0  0  0  0  0  0  0  0  0  0
  1  2  2  0
  2  3  1  0
  3  4  1  0
  4  5  1  0
  5  6  1  0
  6  7  2  0
  7  8  1  0
  8  9  2  0
  9 10  1  0
 10 11  2  0
  2 12  1  0
 12 13  2  0
 13 14  1  0
 14 15  1  0
 15 16  2  0
 16 17  1  0
 17 18  2  0
 18 19  1  0
 19 20  2  0
 14 21  2  0
 21 22  1  0
 22 23  2  0
 23 24  1  0
 24 25  2  0
 25 26  1  0
 26 27  2  0
 11  6  1  0
 27 12  1  0
 20 15  1  0
 27 22  1  0
  4 28  1  0
  4 29  1  0
  5 30  1  0
  5 31  1  0
  7 32  1  0
  8 33  1  0
  9 34  1  0
 10 35  1  0
 11 36  1  0
 13 37  1  0
 16 38  1  0
 17 39  1  0
 18 40  1  0
 19 41  1  0
 20 42  1  0
 23 43  1  0
 24 44  1  0
 25 45  1  0
 26 46  1  0
M  CHG  2   3  -1  19   1
M  END
>  <UniqueID>  (46) 
43

>  <SMILES>  (46) 
O=C([N-]CCc1ccccc1)c1cc(-c2ccc[nH+]c2)nc2ccccc12

>  <Energy>  (46) 
59.27029088664871

>  <Genealogy>  (46) 
O=C([N-]CCc1ccccc1)c1cc(-c2ccc[nH+]c2)nc2ccccc12 (protonated)
O=C([N-]CCc1ccccc1)c1cc(-c2ccc[nH+]c2)nc2ccccc12 (3D coordinates assigned)
O=C([N-]CCc1ccccc1)c1cc(-c2ccc[nH+]c2)nc2ccccc12 (optimized conformer: 59.27029088664871 kcal/mol)

>  <smiles>  (46) 
O=C(NCCc1ccccc1)c1cc(-c2cccnc2)nc2ccccc12

>  <score_type>  (46) 
oracle

>  <origin>  (46) 
adg

>  <m_score__min__energy>  (46) 
-10.119999999999999

>  <m_primary>  (46) 
energy

$$$$
46:0
     RDKit          3D

 31 33  0  0  0  0  0  0  0  0999 V2000
   59.7150   34.9500   47.3110 C   0  0  0  0  0  0  0  0  0  0  0  0
   59.1200   33.8610   46.4680 C   0  0  0  0  0  0  0  0  0  0  0  0
   58.7300   32.6470   47.0530 C   0  0  0  0  0  0  0  0  0  0  0  0
   58.2110   31.6170   46.2630 C   0  0  0  0  0  0  0  0  0  0  0  0
   58.0960   31.7780   44.8730 C   0  0  0  0  0  0  0  0  0  0  0  0
   57.5370   30.6840   44.0490 C   0  0  0  0  0  0  0  0  0  0  0  0
   56.6450   30.8810   42.6500 S   0  0  0  0  0  0  0  0  0  0  0  0
   56.4860   29.2840   42.2380 N   0  0  0  0  0  0  0  0  0  0  0  0
   57.1150   28.5690   43.1660 N   0  0  0  0  0  0  0  0  0  0  0  0
   57.6950   29.2930   44.1770 C   0  0  0  0  0  0  0  0  0  0  0  0
   58.3530   28.6220   45.3190 C   0  0  0  0  0  0  0  0  0  0  0  0
   57.6060   27.8490   46.2260 C   0  0  0  0  0  0  0  0  0  0  0  0
   58.2390   27.2110   47.2980 C   0  0  0  0  0  0  0  0  0  0  0  0
   59.6200   27.3280   47.4660 C   0  0  0  0  0  0  0  0  0  0  0  0
   60.3730   28.0810   46.5600 C   0  0  0  0  0  0  0  0  0  0  0  0
   59.7440   28.7220   45.4880 C   0  0  0  0  0  0  0  0  0  0  0  0
   58.4860   32.9940   44.2890 C   0  0  0  0  0  0  0  0  0  0  0  0
   59.0050   34.0230   45.0790 C   0  0  0  0  0  0  0  0  0  0  0  0
   59.5810   34.7047   48.3749 H   0  0  0  0  0  0  0  0  0  0  0  0
   60.7883   35.0412   47.0881 H   0  0  0  0  0  0  0  0  0  0  0  0
   59.2120   35.9025   47.0881 H   0  0  0  0  0  0  0  0  0  0  0  0
   58.8331   32.5048   48.1389 H   0  0  0  0  0  0  0  0  0  0  0  0
   57.8910   30.6753   46.7329 H   0  0  0  0  0  0  0  0  0  0  0  0
   57.1290   27.5260   43.1280 H   0  0  0  0  0  0  0  0  0  0  0  0
   56.5191   27.7457   46.0918 H   0  0  0  0  0  0  0  0  0  0  0  0
   57.6477   26.6162   48.0097 H   0  0  0  0  0  0  0  0  0  0  0  0
   60.1156   26.8278   48.3111 H   0  0  0  0  0  0  0  0  0  0  0  0
   61.4616   28.1693   46.6906 H   0  0  0  0  0  0  0  0  0  0  0  0
   60.3414   29.3074   44.7736 H   0  0  0  0  0  0  0  0  0  0  0  0
   58.3823   33.1373   43.2033 H   0  0  0  0  0  0  0  0  0  0  0  0
   59.3251   34.9649   44.6096 H   0  0  0  0  0  0  0  0  0  0  0  0
  1  2  1  0
  2  3  2  0
  3  4  1  0
  4  5  2  0
  5  6  1  0
  6  7  1  0
  7  8  1  0
  8  9  2  0
  9 10  1  0
 10 11  1  0
 11 12  2  0
 12 13  1  0
 13 14  2  0
 14 15  1  0
 15 16  2  0
  5 17  1  0
 17 18  2  0
 18  2  1  0
 10  6  2  0
 16 11  1  0
  1 19  1  0
  1 20  1  0
  1 21  1  0
  3 22  1  0
  4 23  1  0
  9 24  1  0
 12 25  1  0
 13 26  1  0
 14 27  1  0
 15 28  1  0
 16 29  1  0
 17 30  1  0
 18 31  1  0
M  CHG  1   9   1
M  END
>  <UniqueID>  (47) 
44

>  <SMILES>  (47) 
Cc1ccc(-c2sn[nH+]c2-c2ccccc2)cc1

>  <Energy>  (47) 
77.90351817860792

>  <Genealogy>  (47) 
Cc1ccc(-c2sn[nH+]c2-c2ccccc2)cc1 (protonated)
Cc1ccc(-c2sn[nH+]c2-c2ccccc2)cc1 (3D coordinates assigned)
Cc1ccc(-c2sn[nH+]c2-c2ccccc2)cc1 (optimized conformer: 77.90351817860792 kcal/mol)

>  <smiles>  (47) 
Cc1ccc(-c2snnc2-c2ccccc2)cc1

>  <score_type>  (47) 
oracle

>  <origin>  (47) 
adg

>  <m_score__min__energy>  (47) 
-6.3499999999999996

>  <m_primary>  (47) 
energy

$$$$
47:0
     RDKit          3D

 37 38  0  0  0  0  0  0  0  0999 V2000
   59.6790   35.3570   46.0630 C   0  0  0  0  0  0  0  0  0  0  0  0
   58.7890   34.2330   45.6240 C   0  0  0  0  0  0  0  0  0  0  0  0
   58.8580   33.7390   44.3160 C   0  0  0  0  0  0  0  0  0  0  0  0
   58.0100   32.7080   43.9100 C   0  0  0  0  0  0  0  0  0  0  0  0
   57.0820   32.1720   44.8250 C   0  0  0  0  0  0  0  0  0  0  0  0
   56.2650   31.2060   44.5130 N   0  0  0  0  0  0  0  0  0  0  0  0
   56.4930   29.7970   44.6490 C   0  0  0  0  0  0  0  0  0  0  0  0
   55.5200   29.0440   44.9200 O   0  0  0  0  0  0  0  0  0  0  0  0
   57.8880   29.2240   44.6360 C   0  0  0  0  0  0  0  0  0  0  0  0
   58.4190   29.0020   46.0580 C   0  0  0  0  0  0  0  0  0  0  0  0
   58.8830   30.2580   46.6460 N   0  0  0  0  0  0  0  0  0  0  0  0
   60.1020   30.3500   47.3990 C   0  0  0  0  0  0  0  0  0  0  0  0
   60.7570   29.3060   47.6680 O   0  0  0  0  0  0  0  0  0  0  0  0
   60.6440   31.6650   47.8050 C   0  0  0  0  0  0  0  0  0  0  0  0
   61.8590   32.0930   47.2430 C   0  0  0  0  0  0  0  0  0  0  0  0
   62.3880   33.3460   47.5640 C   0  0  0  0  0  0  0  0  0  0  0  0
   61.7150   34.1800   48.4570 C   0  0  0  0  0  0  0  0  0  0  0  0
   60.5230   33.7560   49.0470 C   0  0  0  0  0  0  0  0  0  0  0  0
   59.9850   32.5010   48.7350 C   0  0  0  0  0  0  0  0  0  0  0  0
   58.5450   31.9830   49.6080 Cl  0  0  0  0  0  0  0  0  0  0  0  0
   57.0100   32.7000   46.0770 N   0  0  0  0  0  0  0  0  0  0  0  0
   57.8270   33.7030   46.4930 C   0  0  0  0  0  0  0  0  0  0  0  0
   59.7081   35.3938   47.1620 H   0  0  0  0  0  0  0  0  0  0  0  0
   60.6950   35.1933   45.6745 H   0  0  0  0  0  0  0  0  0  0  0  0
   59.2868   36.3084   45.6745 H   0  0  0  0  0  0  0  0  0  0  0  0
   59.5827   34.1647   43.6064 H   0  0  0  0  0  0  0  0  0  0  0  0
   58.0655   32.3166   42.8835 H   0  0  0  0  0  0  0  0  0  0  0  0
   57.8735   28.2604   44.1056 H   0  0  0  0  0  0  0  0  0  0  0  0
   58.5504   29.9409   44.1287 H   0  0  0  0  0  0  0  0  0  0  0  0
   57.6133   28.5885   46.6824 H   0  0  0  0  0  0  0  0  0  0  0  0
   59.2669   28.3029   46.0104 H   0  0  0  0  0  0  0  0  0  0  0  0
   58.3540   31.1280   46.4130 H   0  0  0  0  0  0  0  0  0  0  0  0
   62.3981   31.4361   46.5445 H   0  0  0  0  0  0  0  0  0  0  0  0
   63.3355   33.6748   47.1123 H   0  0  0  0  0  0  0  0  0  0  0  0
   62.1240   35.1727   48.6965 H   0  0  0  0  0  0  0  0  0  0  0  0
   60.0031   34.4114   49.7612 H   0  0  0  0  0  0  0  0  0  0  0  0
   57.7326   34.0996   47.5147 H   0  0  0  0  0  0  0  0  0  0  0  0
  1  2  1  0
  2  3  1  0
  3  4  2  0
  4  5  1  0
  5  6  2  3
  6  7  1  0
  7  8  2  0
  7  9  1  0
  9 10  1  0
 10 11  1  0
 11 12  1  0
 12 13  2  0
 12 14  1  0
 14 15  2  0
 15 16  1  0
 16 17  2  0
 17 18  1  0
 18 19  2  0
 19 20  1  0
  5 21  1  0
 21 22  1  0
 22  2  2  0
 19 14  1  0
  1 23  1  0
  1 24  1  0
  1 25  1  0
  3 26  1  0
  4 27  1  0
  9 28  1  0
  9 29  1  0
 10 30  1  0
 10 31  1  0
 11 32  1  0
 15 33  1  0
 16 34  1  0
 17 35  1  0
 18 36  1  0
 22 37  1  0
M  CHG  1  21  -1
M  END
>  <UniqueID>  (48) 
45

>  <SMILES>  (48) 
Cc1ccc(=NC(=O)CCNC(=O)c2ccccc2Cl)[n-]c1

>  <Energy>  (48) 
44.67121664398417

>  <Genealogy>  (48) 
Cc1ccc(=NC(=O)CCNC(=O)c2ccccc2Cl)[n-]c1 (protonated)
Cc1ccc(=NC(=O)CCNC(=O)c2ccccc2Cl)[n-]c1 (3D coordinates assigned)
Cc1ccc(=NC(=O)CCNC(=O)c2ccccc2Cl)[n-]c1 (optimized conformer: 44.67121664398417 kcal/mol)

>  <smiles>  (48) 
Cc1ccc(=NC(=O)CCNC(=O)c2ccccc2Cl)[nH]c1

>  <score_type>  (48) 
oracle

>  <origin>  (48) 
adg

>  <m_score__min__energy>  (48) 
-8.8300000000000001

>  <m_primary>  (48) 
energy

$$$$
48:0
     RDKit          3D

 43 46  0  0  0  0  0  0  0  0999 V2000
   56.2940   29.4100   42.6330 C   0  0  0  0  0  0  0  0  0  0  0  0
   56.5310   30.8070   42.7690 O   0  0  0  0  0  0  0  0  0  0  0  0
   57.3260   31.3820   43.7710 C   0  0  0  0  0  0  0  0  0  0  0  0
   57.7100   32.7310   43.7430 C   0  0  0  0  0  0  0  0  0  0  0  0
   58.4940   33.2610   44.7680 C   0  0  0  0  0  0  0  0  0  0  0  0
   58.9170   32.4600   45.8470 C   0  0  0  0  0  0  0  0  0  0  0  0
   58.5560   31.0870   45.8620 C   0  0  0  0  0  0  0  0  0  0  0  0
   57.7490   30.5750   44.8290 C   0  0  0  0  0  0  0  0  0  0  0  0
   58.9850   30.1520   46.9320 C   0  0  0  0  0  0  0  0  0  0  0  0
   58.1490   29.3200   47.3800 O   0  0  0  0  0  0  0  0  0  0  0  0
   60.3440   30.1240   47.4130 N   0  0  0  0  0  0  0  0  0  0  0  0
   60.7730   29.0180   48.2750 C   0  0  0  0  0  0  0  0  0  0  0  0
   61.2990   31.1530   46.9960 C   0  0  0  0  0  0  0  0  0  0  0  0
   60.8400   32.4950   47.5130 C   0  0  0  0  0  0  0  0  0  0  0  0
   59.6930   33.0990   46.9520 C   0  0  0  0  0  0  0  0  0  0  0  0
   59.2950   34.3550   47.4340 C   0  0  0  0  0  0  0  0  0  0  0  0
   60.0100   34.9680   48.4090 N   0  0  0  0  0  0  0  0  0  0  0  0
   61.0860   34.3990   48.9450 N   0  0  0  0  0  0  0  0  0  0  0  0
   61.5220   33.1750   48.5510 C   0  0  0  0  0  0  0  0  0  0  0  0
   62.7000   32.6170   49.2320 C   0  0  0  0  0  0  0  0  0  0  0  0
   62.5860   31.5100   50.0810 C   0  0  0  0  0  0  0  0  0  0  0  0
   63.6900   31.0370   50.7150 N   0  0  0  0  0  0  0  0  0  0  0  0
   64.9090   31.6210   50.5490 C   0  0  0  0  0  0  0  0  0  0  0  0
   66.1110   31.0810   51.2650 C   0  0  0  0  0  0  0  0  0  0  0  0
   66.0350   29.7010   51.3310 F   0  0  0  0  0  0  0  0  0  0  0  0
   66.1780   31.5860   52.5520 F   0  0  0  0  0  0  0  0  0  0  0  0
   67.2580   31.4420   50.5830 F   0  0  0  0  0  0  0  0  0  0  0  0
   65.0160   32.7450   49.7200 C   0  0  0  0  0  0  0  0  0  0  0  0
   63.9110   33.2180   49.0860 N   0  0  0  0  0  0  0  0  0  0  0  0
   56.2164   28.9525   43.6303 H   0  0  0  0  0  0  0  0  0  0  0  0
   55.3557   29.2492   42.0818 H   0  0  0  0  0  0  0  0  0  0  0  0
   57.1267   28.9488   42.0818 H   0  0  0  0  0  0  0  0  0  0  0  0
   57.3915   33.3737   42.9091 H   0  0  0  0  0  0  0  0  0  0  0  0
   58.7865   34.3208   44.7332 H   0  0  0  0  0  0  0  0  0  0  0  0
   57.4454   29.5181   44.8556 H   0  0  0  0  0  0  0  0  0  0  0  0
   60.6598   29.3098   49.3295 H   0  0  0  0  0  0  0  0  0  0  0  0
   60.1531   28.1325   48.0711 H   0  0  0  0  0  0  0  0  0  0  0  0
   61.8279   28.7821   48.0711 H   0  0  0  0  0  0  0  0  0  0  0  0
   62.2927   30.9208   47.4067 H   0  0  0  0  0  0  0  0  0  0  0  0
   61.3569   31.1802   45.8979 H   0  0  0  0  0  0  0  0  0  0  0  0
   58.4007   34.8435   47.0198 H   0  0  0  0  0  0  0  0  0  0  0  0
   61.6096   31.0268   50.2335 H   0  0  0  0  0  0  0  0  0  0  0  0
   65.9880   33.2415   49.5831 H   0  0  0  0  0  0  0  0  0  0  0  0
  1  2  1  0
  2  3  1  0
  3  4  2  0
  4  5  1  0
  5  6  2  0
  6  7  1  0
  7  8  2  0
  7  9  1  0
  9 10  2  0
  9 11  1  0
 11 12  1  0
 11 13  1  0
 13 14  1  0
 14 15  2  0
 15 16  1  0
 16 17  2  0
 17 18  1  0
 18 19  2  0
 19 20  1  0
 20 21  2  0
 21 22  1  0
 22 23  2  0
 23 24  1  0
 24 25  1  0
 24 26  1  0
 24 27  1  0
 23 28  1  0
 28 29  2  0
  8  3  1  0
 19 14  1  0
 29 20  1  0
 15  6  1  0
  1 30  1  0
  1 31  1  0
  1 32  1  0
  4 33  1  0
  5 34  1  0
  8 35  1  0
 12 36  1  0
 12 37  1  0
 12 38  1  0
 13 39  1  0
 13 40  1  0
 16 41  1  0
 21 42  1  0
 28 43  1  0
M  END
>  <UniqueID>  (49) 
46

>  <SMILES>  (49) 
COc1ccc2c(c1)C(=O)N(C)Cc1c-2cnnc1-c1cnc(C(F)(F)F)cn1

>  <Energy>  (49) 
70.6890442994983

>  <Genealogy>  (49) 
COc1ccc2c(c1)C(=O)N(C)Cc1c-2cnnc1-c1cnc(C(F)(F)F)cn1 (3D coordinates assigned)
COc1ccc2c(c1)C(=O)N(C)Cc1c-2cnnc1-c1cnc(C(F)(F)F)cn1 (nonaromatic ring conformer: 70.6890442994983 kcal/mol)

>  <smiles>  (49) 
COc1ccc2c(c1)C(=O)N(C)Cc1c-2cnnc1-c1cnc(C(F)(F)F)cn1

>  <score_type>  (49) 
oracle

>  <origin>  (49) 
adg

>  <m_score__min__energy>  (49) 
-6.9699999999999998

>  <m_primary>  (49) 
energy

$$$$
