0:0
     RDKit          3D

 47 49  0  0  0  0  0  0  0  0999 V2000
   58.2870   31.6609   46.5622 H   0  0  0  0  0  0  0  0  0  0  0  0
   57.7510   31.1480   45.7500 C   0  0  0  0  0  0  0  0  0  0  0  0
   57.1720   29.9380   45.9750 N   0  0  0  0  0  0  0  0  0  0  0  0
   56.5060   29.2550   45.0050 C   0  0  0  0  0  0  0  0  0  0  0  0
   55.9810   28.1010   45.3090 N   0  0  0  0  0  0  0  0  0  0  0  0
   56.5400   27.0690   46.1360 C   0  0  0  0  0  0  0  0  0  0  0  0
   55.8670   26.0240   46.3430 O   0  0  0  0  0  0  0  0  0  0  0  0
   57.7880   27.3180   46.9420 C   0  0  0  0  0  0  0  0  0  0  0  0
   57.7705   26.6720   47.8322 H   0  0  0  0  0  0  0  0  0  0  0  0
   57.8046   28.3816   47.2220 H   0  0  0  0  0  0  0  0  0  0  0  0
   59.0180   27.0300   46.1660 N   0  0  0  0  0  0  0  0  0  0  0  0
   59.5130   28.1820   45.3730 C   0  0  0  0  0  0  0  0  0  0  0  0
   58.6507   28.7980   45.0781 H   0  0  0  0  0  0  0  0  0  0  0  0
   60.0483   27.7710   44.5043 H   0  0  0  0  0  0  0  0  0  0  0  0
   60.5120   29.0750   46.1420 C   0  0  0  0  0  0  0  0  0  0  0  0
   60.3433   30.1272   45.8693 H   0  0  0  0  0  0  0  0  0  0  0  0
   61.5372   28.7780   45.8762 H   0  0  0  0  0  0  0  0  0  0  0  0
   60.3260   28.9130   47.5920 N   0  0  0  0  0  0  0  0  0  0  0  0
   61.1150   29.9060   48.3460 C   0  0  0  0  0  0  0  0  0  0  0  0
   62.1804   29.7877   48.0992 H   0  0  0  0  0  0  0  0  0  0  0  0
   60.9608   29.7460   49.4233 H   0  0  0  0  0  0  0  0  0  0  0  0
   60.6720   31.2990   47.9860 C   0  0  0  0  0  0  0  0  0  0  0  0
   61.4840   32.1290   47.1990 C   0  0  0  0  0  0  0  0  0  0  0  0
   62.4441   31.7525   46.8163 H   0  0  0  0  0  0  0  0  0  0  0  0
   61.0780   33.4330   46.8990 C   0  0  0  0  0  0  0  0  0  0  0  0
   61.7137   34.0730   46.2694 H   0  0  0  0  0  0  0  0  0  0  0  0
   59.8640   33.9290   47.3970 C   0  0  0  0  0  0  0  0  0  0  0  0
   59.4120   35.3140   47.0440 C   0  0  0  0  0  0  0  0  0  0  0  0
   59.2257   35.8849   47.9656 H   0  0  0  0  0  0  0  0  0  0  0  0
   60.1931   35.8153   46.4537 H   0  0  0  0  0  0  0  0  0  0  0  0
   58.4855   35.2580   46.4537 H   0  0  0  0  0  0  0  0  0  0  0  0
   59.0460   33.0960   48.1760 C   0  0  0  0  0  0  0  0  0  0  0  0
   58.0824   33.4701   48.5522 H   0  0  0  0  0  0  0  0  0  0  0  0
   59.4520   31.7930   48.4750 C   0  0  0  0  0  0  0  0  0  0  0  0
   58.8120   31.1502   49.0973 H   0  0  0  0  0  0  0  0  0  0  0  0
   60.6560   27.5300   48.0050 C   0  0  0  0  0  0  0  0  0  0  0  0
   60.2339   27.3477   49.0043 H   0  0  0  0  0  0  0  0  0  0  0  0
   61.7514   27.4299   48.0108 H   0  0  0  0  0  0  0  0  0  0  0  0
   60.0860   26.4790   47.0230 C   0  0  0  0  0  0  0  0  0  0  0  0
   59.6754   25.6396   47.6033 H   0  0  0  0  0  0  0  0  0  0  0  0
   60.9069   26.1528   46.3675 H   0  0  0  0  0  0  0  0  0  0  0  0
   56.3800   29.8380   43.7270 C   0  0  0  0  0  0  0  0  0  0  0  0
   55.8227   29.3184   42.9336 H   0  0  0  0  0  0  0  0  0  0  0  0
   56.9680   31.0800   43.4760 C   0  0  0  0  0  0  0  0  0  0  0  0
   56.8811   31.5382   42.4798 H   0  0  0  0  0  0  0  0  0  0  0  0
   57.6650   31.7390   44.4880 C   0  0  0  0  0  0  0  0  0  0  0  0
   58.4780   33.4330   44.1560 Br  0  0  0  0  0  0  0  0  0  0  0  0
  1  2  1  0
  2  3  1  0
  3  4  1  0
  4  5  2  0
  5  6  1  0
  6  7  2  0
  6  8  1  0
  8  9  1  0
  8 10  1  0
  8 11  1  0
 11 12  1  0
 12 13  1  0
 12 14  1  0
 12 15  1  0
 15 16  1  0
 15 17  1  0
 15 18  1  0
 18 19  1  0
 19 20  1  0
 19 21  1  0
 19 22  1  0
 22 23  2  0
 23 24  1  0
 23 25  1  0
 25 26  1  0
 25 27  2  0
 27 28  1  0
 28 29  1  0
 28 30  1  0
 28 31  1  0
 27 32  1  0
 32 33  1  0
 32 34  2  0
 34 35  1  0
 18 36  1  0
 36 37  1  0
 36 38  1  0
 36 39  1  0
 39 40  1  0
 39 41  1  0
  4 42  1  0
 42 43  1  0
 42 44  2  0
 44 45  1  0
 44 46  1  0
 46 47  1  0
 46  2  2  0
 39 11  1  0
 34 22  1  0
M  CHG  1   3  -1
M  END
>  <UniqueID>  (1) 
1

>  <SMILES>  (1) 
Cc1ccc(CN2CCN(CC(=O)/N=c3\ccc(Br)c[n-]3)CC2)cc1

>  <Energy>  (1) 
67.40625974323531

>  <Genealogy>  (1) 
Cc1ccc(CN2CCN(CC(=O)N=c3ccc(Br)c[n-]3)CC2)cc1 (protonated)
Cc1ccc(CN2CCN(CC(=O)/N=c3\ccc(Br)c[n-]3)CC2)cc1 (cis-trans isomerization)
Cc1ccc(CN2CCN(CC(=O)/N=c3\ccc(Br)c[n-]3)CC2)cc1 (3D coordinates assigned)
Cc1ccc(CN2CCN(CC(=O)/N=c3\ccc(Br)c[n-]3)CC2)cc1 (nonaromatic ring conformer: 67.40625974323531 kcal/mol)

>  <smiles>  (1) 
Cc1ccc(CN2CCN(CC(=O)N=c3ccc(Br)c[nH]3)CC2)cc1

>  <score_type>  (1) 
oracle

>  <origin>  (1) 
adg

>  <m_score__min__energy>  (1) 
-10.529999999999999

>  <m_primary>  (1) 
energy

$$$$
1:0
     RDKit          3D

 41 44  0  0  0  0  0  0  0  0999 V2000
   56.2980   29.8820   42.8370 C   0  0  0  0  0  0  0  0  0  0  0  0
   56.3110   30.4420   44.2560 C   0  0  0  0  0  0  0  0  0  0  0  0
   57.3420   29.7720   45.0650 N   0  0  0  0  0  0  0  0  0  0  0  0
   58.5210   30.4120   45.4010 C   0  0  0  0  0  0  0  0  0  0  0  0
   58.7260   31.5880   44.9900 O   0  0  0  0  0  0  0  0  0  0  0  0
   59.4810   29.7830   46.1870 N   0  0  0  0  0  0  0  0  0  0  0  0
   60.7170   30.5040   46.5530 C   0  0  0  0  0  0  0  0  0  0  0  0
   60.3830   31.7980   47.2520 C   0  0  0  0  0  0  0  0  0  0  0  0
   59.5430   31.7990   48.3790 C   0  0  0  0  0  0  0  0  0  0  0  0
   59.2080   33.0010   49.0080 C   0  0  0  0  0  0  0  0  0  0  0  0
   59.7060   34.2110   48.5170 C   0  0  0  0  0  0  0  0  0  0  0  0
   60.5380   34.2200   47.3950 C   0  0  0  0  0  0  0  0  0  0  0  0
   60.8760   33.0200   46.7630 C   0  0  0  0  0  0  0  0  0  0  0  0
   59.2640   28.5090   46.6620 C   0  0  0  0  0  0  0  0  0  0  0  0
   60.1100   27.9140   47.3840 O   0  0  0  0  0  0  0  0  0  0  0  0
   58.0780   27.8910   46.3310 C   0  0  0  0  0  0  0  0  0  0  0  0
   57.1390   28.5170   45.5550 C   0  0  0  0  0  0  0  0  0  0  0  0
   56.0370   27.7260   45.4000 N   0  0  0  0  0  0  0  0  0  0  0  0
   56.3900   26.6330   46.1120 C   0  0  0  0  0  0  0  0  0  0  0  0
   55.7160   25.4960   46.3520 N   0  0  0  0  0  0  0  0  0  0  0  0
   56.6090   24.8270   47.1450 C   0  0  0  0  0  0  0  0  0  0  0  0
   56.3740   23.4490   47.6640 C   0  0  0  0  0  0  0  0  0  0  0  0
   57.7810   25.5700   47.3440 C   0  0  0  0  0  0  0  0  0  0  0  0
   57.5780   26.7000   46.6690 N   0  0  0  0  0  0  0  0  0  0  0  0
   56.2725   28.7830   42.8767 H   0  0  0  0  0  0  0  0  0  0  0  0
   55.4082   30.2504   42.3055 H   0  0  0  0  0  0  0  0  0  0  0  0
   57.2040   30.2088   42.3055 H   0  0  0  0  0  0  0  0  0  0  0  0
   56.5250   31.5203   44.2177 H   0  0  0  0  0  0  0  0  0  0  0  0
   55.3276   30.2667   44.7167 H   0  0  0  0  0  0  0  0  0  0  0  0
   61.3188   29.8741   47.2246 H   0  0  0  0  0  0  0  0  0  0  0  0
   61.2836   30.7288   45.6373 H   0  0  0  0  0  0  0  0  0  0  0  0
   59.1474   30.8490   48.7677 H   0  0  0  0  0  0  0  0  0  0  0  0
   58.5516   32.9948   49.8906 H   0  0  0  0  0  0  0  0  0  0  0  0
   59.4428   35.1563   49.0141 H   0  0  0  0  0  0  0  0  0  0  0  0
   60.9278   35.1731   47.0082 H   0  0  0  0  0  0  0  0  0  0  0  0
   61.5307   33.0320   45.8791 H   0  0  0  0  0  0  0  0  0  0  0  0
   55.1440   27.9060   44.8910 H   0  0  0  0  0  0  0  0  0  0  0  0
   56.3769   23.4660   48.7639 H   0  0  0  0  0  0  0  0  0  0  0  0
   55.4005   23.0832   47.3055 H   0  0  0  0  0  0  0  0  0  0  0  0
   57.1712   22.7812   47.3055 H   0  0  0  0  0  0  0  0  0  0  0  0
   58.6690   25.2839   47.9268 H   0  0  0  0  0  0  0  0  0  0  0  0
  1  2  1  0
  2  3  1  0
  3  4  1  0
  4  5  2  0
  4  6  1  0
  6  7  1  0
  7  8  1  0
  8  9  2  0
  9 10  1  0
 10 11  2  0
 11 12  1  0
 12 13  2  0
  6 14  1  0
 14 15  2  0
 14 16  1  0
 16 17  2  0
 17 18  1  0
 18 19  1  0
 19 20  2  0
 20 21  1  0
 21 22  1  0
 21 23  2  0
 23 24  1  0
 17  3  1  0
 24 19  1  0
 13  8  1  0
 24 16  1  0
  1 25  1  0
  1 26  1  0
  1 27  1  0
  2 28  1  0
  2 29  1  0
  7 30  1  0
  7 31  1  0
  9 32  1  0
 10 33  1  0
 11 34  1  0
 12 35  1  0
 13 36  1  0
 18 37  1  0
 22 38  1  0
 22 39  1  0
 22 40  1  0
 23 41  1  0
M  END
>  <UniqueID>  (2) 
2

>  <SMILES>  (2) 
CCn1c(=O)n(Cc2ccccc2)c(=O)c2c1[nH]c1nc(C)cn12

>  <Energy>  (2) 
145.45098337221305

>  <Genealogy>  (2) 
CCn1c(=O)n(Cc2ccccc2)c(=O)c2c1[nH]c1nc(C)cn12 (3D coordinates assigned)
CCn1c(=O)n(Cc2ccccc2)c(=O)c2c1[nH]c1nc(C)cn12 (optimized conformer: 145.45098337221305 kcal/mol)

>  <smiles>  (2) 
CCn1c(=O)n(Cc2ccccc2)c(=O)c2c1[nH]c1nc(C)cn12

>  <score_type>  (2) 
oracle

>  <origin>  (2) 
adg

>  <m_score__min__energy>  (2) 
-7.3700000000000001

>  <m_primary>  (2) 
energy

$$$$
2:0
     RDKit          3D

 42 45  0  0  0  0  0  0  0  0999 V2000
   55.7650   29.7590   43.3840 C   0  0  0  0  0  0  0  0  0  0  0  0
   56.2060   29.1700   44.6020 O   0  0  0  0  0  0  0  0  0  0  0  0
   57.5170   29.2950   45.0760 C   0  0  0  0  0  0  0  0  0  0  0  0
   57.8720   30.3800   45.8200 N   0  0  0  0  0  0  0  0  0  0  0  0
   59.1390   30.5730   46.2760 C   0  0  0  0  0  0  0  0  0  0  0  0
   59.4340   31.7750   47.0880 C   0  0  0  0  0  0  0  0  0  0  0  0
   58.5050   32.3060   47.7530 O   0  0  0  0  0  0  0  0  0  0  0  0
   60.7890   32.3610   47.1700 C   0  0  0  0  0  0  0  0  0  0  0  0
   61.8130   31.6210   47.7830 C   0  0  0  0  0  0  0  0  0  0  0  0
   63.1060   32.1420   47.8730 C   0  0  0  0  0  0  0  0  0  0  0  0
   63.3860   33.4110   47.3620 C   0  0  0  0  0  0  0  0  0  0  0  0
   62.3710   34.1660   46.7690 C   0  0  0  0  0  0  0  0  0  0  0  0
   61.0720   33.6540   46.6750 C   0  0  0  0  0  0  0  0  0  0  0  0
   59.8170   34.6810   45.9870 Cl  0  0  0  0  0  0  0  0  0  0  0  0
   60.1240   29.6170   45.9870 C   0  0  0  0  0  0  0  0  0  0  0  0
   59.7910   28.4970   45.2280 C   0  0  0  0  0  0  0  0  0  0  0  0
   58.4780   28.3130   44.7690 C   0  0  0  0  0  0  0  0  0  0  0  0
   58.1410   27.1460   43.9960 N   0  0  0  0  0  0  0  0  0  0  0  0
   58.1900   27.0070   42.6540 C   0  0  0  0  0  0  0  0  0  0  0  0
   57.7660   25.7900   42.2610 N   0  0  0  0  0  0  0  0  0  0  0  0
   57.4320   25.1370   43.3900 C   0  0  0  0  0  0  0  0  0  0  0  0
   56.8950   23.7290   43.3980 C   0  0  0  0  0  0  0  0  0  0  0  0
   57.7260   22.7000   44.1510 C   0  0  0  0  0  0  0  0  0  0  0  0
   56.4170   23.2030   44.7430 C   0  0  0  0  0  0  0  0  0  0  0  0
   57.6590   25.9790   44.4690 C   0  0  0  0  0  0  0  0  0  0  0  0
   55.1193   30.6214   43.6064 H   0  0  0  0  0  0  0  0  0  0  0  0
   56.6363   30.0938   42.8020 H   0  0  0  0  0  0  0  0  0  0  0  0
   55.1984   29.0172   42.8020 H   0  0  0  0  0  0  0  0  0  0  0  0
   61.5955   30.6245   48.1950 H   0  0  0  0  0  0  0  0  0  0  0  0
   63.9044   31.5520   48.3469 H   0  0  0  0  0  0  0  0  0  0  0  0
   64.4065   33.8165   47.4264 H   0  0  0  0  0  0  0  0  0  0  0  0
   62.5941   35.1681   46.3740 H   0  0  0  0  0  0  0  0  0  0  0  0
   61.1514   29.7505   46.3567 H   0  0  0  0  0  0  0  0  0  0  0  0
   60.5632   27.7516   44.9869 H   0  0  0  0  0  0  0  0  0  0  0  0
   58.5344   27.7922   41.9649 H   0  0  0  0  0  0  0  0  0  0  0  0
   57.6980   25.4360   41.2810 H   0  0  0  0  0  0  0  0  0  0  0  0
   56.4628   23.7933   42.3885 H   0  0  0  0  0  0  0  0  0  0  0  0
   57.7990   21.6693   43.7738 H   0  0  0  0  0  0  0  0  0  0  0  0
   58.7678   22.6459   44.5000 H   0  0  0  0  0  0  0  0  0  0  0  0
   55.5440   22.5357   44.7938 H   0  0  0  0  0  0  0  0  0  0  0  0
   56.1210   23.6630   45.6973 H   0  0  0  0  0  0  0  0  0  0  0  0
   57.4773   25.7367   45.5265 H   0  0  0  0  0  0  0  0  0  0  0  0
  1  2  1  0
  2  3  1  0
  3  4  2  0
  4  5  1  0
  5  6  1  0
  6  7  2  0
  6  8  1  0
  8  9  2  0
  9 10  1  0
 10 11  2  0
 11 12  1  0
 12 13  2  0
 13 14  1  0
  5 15  2  0
 15 16  1  0
 16 17  2  0
 17 18  1  0
 18 19  1  0
 19 20  2  0
 20 21  1  0
 21 22  1  0
 22 23  1  0
 23 24  1  0
 21 25  2  0
 17  3  1  0
 25 18  1  0
 13  8  1  0
 24 22  1  0
  1 26  1  0
  1 27  1  0
  1 28  1  0
  9 29  1  0
 10 30  1  0
 11 31  1  0
 12 32  1  0
 15 33  1  0
 16 34  1  0
 19 35  1  0
 20 36  1  0
 22 37  1  0
 23 38  1  0
 23 39  1  0
 24 40  1  0
 24 41  1  0
 25 42  1  0
M  CHG  1  20   1
M  END
>  <UniqueID>  (3) 
3

>  <SMILES>  (3) 
COc1nc(C(=O)c2ccccc2Cl)ccc1-n1c[nH+]c(C2CC2)c1

>  <Energy>  (3) 
351.76309542158134

>  <Genealogy>  (3) 
COc1nc(C(=O)c2ccccc2Cl)ccc1-n1c[nH+]c(C2CC2)c1 (protonated)
COc1nc(C(=O)c2ccccc2Cl)ccc1-n1c[nH+]c(C2CC2)c1 (3D coordinates assigned)
COc1nc(C(=O)c2ccccc2Cl)ccc1-n1c[nH+]c(C2CC2)c1 (nonaromatic ring conformer: 351.76309542158134 kcal/mol)

>  <smiles>  (3) 
COc1nc(C(=O)c2ccccc2Cl)ccc1-n1cnc(C2CC2)c1

>  <score_type>  (3) 
oracle

>  <origin>  (3) 
adg

>  <m_score__min__energy>  (3) 
-6.8499999999999996

>  <m_primary>  (3) 
energy

$$$$
3:0
     RDKit          3D

 74 78  0  0  0  0  0  0  0  0999 V2000
   68.8620   34.8180   50.8230 C   0  0  0  0  0  0  0  0  0  0  0  0
   67.5500   35.0750   51.3190 O   0  0  0  0  0  0  0  0  0  0  0  0
   66.4470   34.2310   51.1150 C   0  0  0  0  0  0  0  0  0  0  0  0
   66.6300   33.0660   50.3640 C   0  0  0  0  0  0  0  0  0  0  0  0
   65.5610   32.2000   50.1220 C   0  0  0  0  0  0  0  0  0  0  0  0
   64.2800   32.4950   50.6140 C   0  0  0  0  0  0  0  0  0  0  0  0
   63.1210   31.6050   50.3510 C   0  0  0  0  0  0  0  0  0  0  0  0
   62.2010   31.3370   51.3010 N   0  0  0  0  0  0  0  0  0  0  0  0
   61.1910   30.7100   50.6730 C   0  0  0  0  0  0  0  0  0  0  0  0
   59.8890   30.4250   51.3030 C   0  0  0  0  0  0  0  0  0  0  0  0
   59.7290   29.3130   52.1440 C   0  0  0  0  0  0  0  0  0  0  0  0
   58.4810   29.0270   52.7020 C   0  0  0  0  0  0  0  0  0  0  0  0
   57.3870   29.8560   52.4340 C   0  0  0  0  0  0  0  0  0  0  0  0
   57.5430   30.9800   51.6190 C   0  0  0  0  0  0  0  0  0  0  0  0
   58.7910   31.2680   51.0580 C   0  0  0  0  0  0  0  0  0  0  0  0
   61.5000   30.6120   49.3260 C   0  0  0  0  0  0  0  0  0  0  0  0
   60.5050   30.3710   48.2630 C   0  0  0  0  0  0  0  0  0  0  0  0
   59.4530   29.4720   48.4910 C   0  0  0  0  0  0  0  0  0  0  0  0
   58.5420   29.1810   47.4730 C   0  0  0  0  0  0  0  0  0  0  0  0
   58.6710   29.7890   46.2090 C   0  0  0  0  0  0  0  0  0  0  0  0
   57.7760   29.5380   45.1580 O   0  0  0  0  0  0  0  0  0  0  0  0
   57.9930   28.5750   44.1310 C   0  0  0  0  0  0  0  0  0  0  0  0
   59.7230   30.6840   45.9880 C   0  0  0  0  0  0  0  0  0  0  0  0
   60.6360   30.9710   47.0040 C   0  0  0  0  0  0  0  0  0  0  0  0
   62.7230   31.1670   49.1260 N   0  0  0  0  0  0  0  0  0  0  0  0
   63.3870   31.3830   47.8300 C   0  0  0  0  0  0  0  0  0  0  0  0
   63.1770   32.8190   47.3140 C   0  0  0  0  0  0  0  0  0  0  0  0
   62.5060   33.7470   48.3300 C   0  0  0  0  0  0  0  0  0  0  0  0
   61.5130   34.5710   47.7140 O   0  0  0  0  0  0  0  0  0  0  0  0
   60.2430   34.1420   47.2860 C   0  0  0  0  0  0  0  0  0  0  0  0
   59.9000   34.0510   45.9210 C   0  0  0  0  0  0  0  0  0  0  0  0
   58.6270   33.6090   45.5310 C   0  0  0  0  0  0  0  0  0  0  0  0
   58.2920   33.4650   44.0760 C   0  0  0  0  0  0  0  0  0  0  0  0
   57.6980   33.2310   46.5070 C   0  0  0  0  0  0  0  0  0  0  0  0
   58.0260   33.3180   47.8620 C   0  0  0  0  0  0  0  0  0  0  0  0
   59.2920   33.7760   48.2590 C   0  0  0  0  0  0  0  0  0  0  0  0
   59.6370   33.8570   49.7190 C   0  0  0  0  0  0  0  0  0  0  0  0
   64.0970   33.6570   51.3850 C   0  0  0  0  0  0  0  0  0  0  0  0
   65.1690   34.5190   51.6320 C   0  0  0  0  0  0  0  0  0  0  0  0
   69.5534   34.6826   51.6678 H   0  0  0  0  0  0  0  0  0  0  0  0
   68.8497   33.9052   50.2093 H   0  0  0  0  0  0  0  0  0  0  0  0
   69.1950   35.6680   50.2093 H   0  0  0  0  0  0  0  0  0  0  0  0
   67.6253   32.8291   49.9598 H   0  0  0  0  0  0  0  0  0  0  0  0
   65.7243   31.2800   49.5415 H   0  0  0  0  0  0  0  0  0  0  0  0
   62.2280   31.6250   52.3060 H   0  0  0  0  0  0  0  0  0  0  0  0
   60.5896   28.6643   52.3645 H   0  0  0  0  0  0  0  0  0  0  0  0
   58.3584   28.1488   53.3529 H   0  0  0  0  0  0  0  0  0  0  0  0
   56.4024   29.6228   52.8655 H   0  0  0  0  0  0  0  0  0  0  0  0
   56.6846   31.6380   51.4188 H   0  0  0  0  0  0  0  0  0  0  0  0
   58.9141   32.1575   50.4226 H   0  0  0  0  0  0  0  0  0  0  0  0
   59.3449   28.9940   49.4758 H   0  0  0  0  0  0  0  0  0  0  0  0
   57.7202   28.4739   47.6592 H   0  0  0  0  0  0  0  0  0  0  0  0
   58.2132   27.5977   44.5853 H   0  0  0  0  0  0  0  0  0  0  0  0
   57.0905   28.4944   43.5073 H   0  0  0  0  0  0  0  0  0  0  0  0
   58.8429   28.8893   43.5073 H   0  0  0  0  0  0  0  0  0  0  0  0
   59.8317   31.1658   45.0051 H   0  0  0  0  0  0  0  0  0  0  0  0
   61.4625   31.6718   46.8151 H   0  0  0  0  0  0  0  0  0  0  0  0
   64.4654   31.2006   47.9473 H   0  0  0  0  0  0  0  0  0  0  0  0
   62.9466   30.6885   47.0994 H   0  0  0  0  0  0  0  0  0  0  0  0
   64.1588   33.2413   47.0536 H   0  0  0  0  0  0  0  0  0  0  0  0
   62.5044   32.7532   46.4461 H   0  0  0  0  0  0  0  0  0  0  0  0
   62.0291   33.1364   49.1108 H   0  0  0  0  0  0  0  0  0  0  0  0
   63.2780   34.4018   48.7605 H   0  0  0  0  0  0  0  0  0  0  0  0
   60.6381   34.3294   45.1544 H   0  0  0  0  0  0  0  0  0  0  0  0
   57.2859   33.0325   43.9724 H   0  0  0  0  0  0  0  0  0  0  0  0
   58.3175   34.4536   43.5943 H   0  0  0  0  0  0  0  0  0  0  0  0
   59.0269   32.8033   43.5943 H   0  0  0  0  0  0  0  0  0  0  0  0
   56.7057   32.8640   46.2060 H   0  0  0  0  0  0  0  0  0  0  0  0
   57.2873   33.0257   48.6229 H   0  0  0  0  0  0  0  0  0  0  0  0
   58.7400   33.6464   50.3199 H   0  0  0  0  0  0  0  0  0  0  0  0
   60.4171   33.1176   49.9530 H   0  0  0  0  0  0  0  0  0  0  0  0
   60.0065   34.8663   49.9530 H   0  0  0  0  0  0  0  0  0  0  0  0
   63.1035   33.8889   51.7963 H   0  0  0  0  0  0  0  0  0  0  0  0
   65.0138   35.4270   52.2332 H   0  0  0  0  0  0  0  0  0  0  0  0
  1  2  1  0
  2  3  1  0
  3  4  2  0
  4  5  1  0
  5  6  2  0
  6  7  1  0
  7  8  2  0
  8  9  1  0
  9 10  1  0
 10 11  2  0
 11 12  1  0
 12 13  2  0
 13 14  1  0
 14 15  2  0
  9 16  2  0
 16 17  1  0
 17 18  2  0
 18 19  1  0
 19 20  2  0
 20 21  1  0
 21 22  1  0
 20 23  1  0
 23 24  2  0
 16 25  1  0
 25 26  1  0
 26 27  1  0
 27 28  1  0
 28 29  1  0
 29 30  1  0
 30 31  2  0
 31 32  1  0
 32 33  1  0
 32 34  2  0
 34 35  1  0
 35 36  2  0
 36 37  1  0
  6 38  1  0
 38 39  2  0
 39  3  1  0
 25  7  1  0
 36 30  1  0
 15 10  1  0
 24 17  1  0
  1 40  1  0
  1 41  1  0
  1 42  1  0
  4 43  1  0
  5 44  1  0
  8 45  1  0
 11 46  1  0
 12 47  1  0
 13 48  1  0
 14 49  1  0
 15 50  1  0
 18 51  1  0
 19 52  1  0
 22 53  1  0
 22 54  1  0
 22 55  1  0
 23 56  1  0
 24 57  1  0
 26 58  1  0
 26 59  1  0
 27 60  1  0
 27 61  1  0
 28 62  1  0
 28 63  1  0
 31 64  1  0
 33 65  1  0
 33 66  1  0
 33 67  1  0
 34 68  1  0
 35 69  1  0
 37 70  1  0
 37 71  1  0
 37 72  1  0
 38 73  1  0
 39 74  1  0
M  CHG  1   8   1
M  END
>  <UniqueID>  (4) 
4

>  <SMILES>  (4) 
COc1ccc(-c2[nH+]c(-c3ccccc3)c(-c3ccc(OC)cc3)n2CCCOc2cc(C)ccc2C)cc1

>  <Energy>  (4) 
122.61311742382522

>  <Genealogy>  (4) 
COc1ccc(-c2[nH+]c(-c3ccccc3)c(-c3ccc(OC)cc3)n2CCCOc2cc(C)ccc2C)cc1 (protonated)
COc1ccc(-c2[nH+]c(-c3ccccc3)c(-c3ccc(OC)cc3)n2CCCOc2cc(C)ccc2C)cc1 (3D coordinates assigned)
COc1ccc(-c2[nH+]c(-c3ccccc3)c(-c3ccc(OC)cc3)n2CCCOc2cc(C)ccc2C)cc1 (optimized conformer: 122.61311742382522 kcal/mol)

>  <smiles>  (4) 
COc1ccc(-c2nc(-c3ccccc3)c(-c3ccc(OC)cc3)n2CCCOc2cc(C)ccc2C)cc1

>  <score_type>  (4) 
oracle

>  <origin>  (4) 
adg

>  <m_score__min__energy>  (4) 
-7

>  <m_primary>  (4) 
energy

$$$$
4:0
     RDKit          3D

 46 48  0  0  0  0  0  0  0  0999 V2000
   59.2970   34.6810   44.8880 C   0  0  0  0  0  0  0  0  0  0  0  0
   57.9870   33.9030   44.7940 C   0  0  0  0  0  0  0  0  0  0  0  0
   57.9230   32.8060   45.7780 N   0  0  0  0  0  0  0  0  0  0  0  0
   57.3680   33.0840   47.1150 C   0  0  0  0  0  0  0  0  0  0  0  0
   58.4500   33.2920   48.1450 C   0  0  0  0  0  0  0  0  0  0  0  0
   59.3570   34.3600   48.0230 C   0  0  0  0  0  0  0  0  0  0  0  0
   60.3720   34.5350   48.9680 C   0  0  0  0  0  0  0  0  0  0  0  0
   60.4860   33.6540   50.0450 C   0  0  0  0  0  0  0  0  0  0  0  0
   59.5790   32.5990   50.1840 C   0  0  0  0  0  0  0  0  0  0  0  0
   58.5650   32.4180   49.2400 C   0  0  0  0  0  0  0  0  0  0  0  0
   57.7340   31.4700   45.2680 C   0  0  0  0  0  0  0  0  0  0  0  0
   56.6370   31.2180   44.4990 N   0  0  0  0  0  0  0  0  0  0  0  0
   56.4210   30.0140   43.9090 C   0  0  0  0  0  0  0  0  0  0  0  0
   57.3480   28.9870   44.0640 C   0  0  0  0  0  0  0  0  0  0  0  0
   58.4820   29.2040   44.8450 C   0  0  0  0  0  0  0  0  0  0  0  0
   58.6860   30.4420   45.4750 C   0  0  0  0  0  0  0  0  0  0  0  0
   59.8660   30.6010   46.3460 C   0  0  0  0  0  0  0  0  0  0  0  0
   60.2170   29.6380   47.0800 O   0  0  0  0  0  0  0  0  0  0  0  0
   60.5950   31.8390   46.3720 N   0  0  0  0  0  0  0  0  0  0  0  0
   61.7210   32.0900   47.2310 C   0  0  0  0  0  0  0  0  0  0  0  0
   62.6530   33.1010   46.9400 C   0  0  0  0  0  0  0  0  0  0  0  0
   63.7510   33.3100   47.7800 C   0  0  0  0  0  0  0  0  0  0  0  0
   63.9360   32.5050   48.9080 C   0  0  0  0  0  0  0  0  0  0  0  0
   65.4380   32.7890   50.0520 Br  0  0  0  0  0  0  0  0  0  0  0  0
   63.0240   31.4830   49.1910 C   0  0  0  0  0  0  0  0  0  0  0  0
   61.9260   31.2710   48.3520 C   0  0  0  0  0  0  0  0  0  0  0  0
   59.5567   34.8353   45.9457 H   0  0  0  0  0  0  0  0  0  0  0  0
   60.0977   34.1120   44.3930 H   0  0  0  0  0  0  0  0  0  0  0  0
   59.1805   35.6564   44.3930 H   0  0  0  0  0  0  0  0  0  0  0  0
   57.1503   34.5933   44.9770 H   0  0  0  0  0  0  0  0  0  0  0  0
   57.9262   33.4610   43.7885 H   0  0  0  0  0  0  0  0  0  0  0  0
   56.7501   33.9924   47.0609 H   0  0  0  0  0  0  0  0  0  0  0  0
   56.7702   32.2132   47.4220 H   0  0  0  0  0  0  0  0  0  0  0  0
   59.2672   35.0609   47.1800 H   0  0  0  0  0  0  0  0  0  0  0  0
   61.0822   35.3684   48.8629 H   0  0  0  0  0  0  0  0  0  0  0  0
   61.2893   33.7898   50.7841 H   0  0  0  0  0  0  0  0  0  0  0  0
   59.6639   31.9106   51.0377 H   0  0  0  0  0  0  0  0  0  0  0  0
   57.8530   31.5873   49.3542 H   0  0  0  0  0  0  0  0  0  0  0  0
   55.5138   29.8503   43.3088 H   0  0  0  0  0  0  0  0  0  0  0  0
   57.1873   28.0147   43.5754 H   0  0  0  0  0  0  0  0  0  0  0  0
   59.2222   28.3997   44.9686 H   0  0  0  0  0  0  0  0  0  0  0  0
   60.3390   32.5780   45.6820 H   0  0  0  0  0  0  0  0  0  0  0  0
   62.5181   33.7303   46.0479 H   0  0  0  0  0  0  0  0  0  0  0  0
   64.4711   34.1099   47.5528 H   0  0  0  0  0  0  0  0  0  0  0  0
   63.1709   30.8451   50.0750 H   0  0  0  0  0  0  0  0  0  0  0  0
   61.2188   30.4577   48.5718 H   0  0  0  0  0  0  0  0  0  0  0  0
  1  2  1  0
  2  3  1  0
  3  4  1  0
  4  5  1  0
  5  6  2  0
  6  7  1  0
  7  8  2  0
  8  9  1  0
  9 10  2  0
  3 11  1  0
 11 12  2  0
 12 13  1  0
 13 14  2  0
 14 15  1  0
 15 16  2  0
 16 17  1  0
 17 18  2  0
 17 19  1  0
 19 20  1  0
 20 21  2  0
 21 22  1  0
 22 23  2  0
 23 24  1  0
 23 25  1  0
 25 26  2  0
 10  5  1  0
 16 11  1  0
 26 20  1  0
  1 27  1  0
  1 28  1  0
  1 29  1  0
  2 30  1  0
  2 31  1  0
  4 32  1  0
  4 33  1  0
  6 34  1  0
  7 35  1  0
  8 36  1  0
  9 37  1  0
 10 38  1  0
 13 39  1  0
 14 40  1  0
 15 41  1  0
 19 42  1  0
 21 43  1  0
 22 44  1  0
 25 45  1  0
 26 46  1  0
M  END
>  <UniqueID>  (5) 
5

>  <SMILES>  (5) 
CCN(Cc1ccccc1)c1ncccc1C(=O)Nc1ccc(Br)cc1

>  <Energy>  (5) 
59.24305460700803

>  <Genealogy>  (5) 
CCN(Cc1ccccc1)c1ncccc1C(=O)Nc1ccc(Br)cc1 (3D coordinates assigned)
CCN(Cc1ccccc1)c1ncccc1C(=O)Nc1ccc(Br)cc1 (optimized conformer: 59.24305460700803 kcal/mol)

>  <smiles>  (5) 
CCN(Cc1ccccc1)c1ncccc1C(=O)Nc1ccc(Br)cc1

>  <score_type>  (5) 
oracle

>  <origin>  (5) 
adg

>  <m_score__min__energy>  (5) 
-8.3000000000000007

>  <m_primary>  (5) 
energy

$$$$
5:0
     RDKit          3D

 49 50  0  0  0  0  0  0  0  0999 V2000
   58.1880   32.5190   41.4220 C   0  0  0  0  0  0  0  0  0  0  0  0
   57.0400   31.6010   41.8710 C   0  0  0  0  0  0  0  0  0  0  0  0
   57.1100   31.1790   43.2900 N   0  0  0  0  0  0  0  0  0  0  0  0
   58.0590   31.9450   44.1310 C   0  0  0  0  0  0  0  0  0  0  0  0
   57.3930   32.7760   45.2300 C   0  0  0  0  0  0  0  0  0  0  0  0
   57.0880   29.7220   43.5290 C   0  0  0  0  0  0  0  0  0  0  0  0
   56.0670   29.3710   44.5760 C   0  0  0  0  0  0  0  0  0  0  0  0
   55.1660   30.2030   44.8610 O   0  0  0  0  0  0  0  0  0  0  0  0
   56.0830   28.1060   45.2480 N   0  0  0  0  0  0  0  0  0  0  0  0
   57.1830   27.6250   46.0290 C   0  0  0  0  0  0  0  0  0  0  0  0
   58.1550   28.5390   46.4550 C   0  0  0  0  0  0  0  0  0  0  0  0
   59.2280   28.1150   47.2400 C   0  0  0  0  0  0  0  0  0  0  0  0
   59.3510   26.7700   47.5880 C   0  0  0  0  0  0  0  0  0  0  0  0
   58.4010   25.8440   47.1510 C   0  0  0  0  0  0  0  0  0  0  0  0
   57.3020   26.2570   46.3780 C   0  0  0  0  0  0  0  0  0  0  0  0
   56.3360   25.2480   45.8780 C   0  0  0  0  0  0  0  0  0  0  0  0
   55.1560   25.2660   46.3270 O   0  0  0  0  0  0  0  0  0  0  0  0
   56.6970   24.2670   44.8810 N   0  0  0  0  0  0  0  0  0  0  0  0
   55.6260   23.6150   44.1090 C   0  0  0  0  0  0  0  0  0  0  0  0
   56.1920   22.7450   42.9800 C   0  0  0  0  0  0  0  0  0  0  0  0
   57.2350   21.7430   43.5000 C   0  0  0  0  0  0  0  0  0  0  0  0
   58.1640   22.3180   44.5900 C   0  0  0  0  0  0  0  0  0  0  0  0
   58.0930   23.8450   44.6820 C   0  0  0  0  0  0  0  0  0  0  0  0
   58.6985   32.9272   42.3067 H   0  0  0  0  0  0  0  0  0  0  0  0
   58.9045   31.9419   40.8190 H   0  0  0  0  0  0  0  0  0  0  0  0
   57.7826   33.3449   40.8190 H   0  0  0  0  0  0  0  0  0  0  0  0
   56.0916   32.1370   41.7183 H   0  0  0  0  0  0  0  0  0  0  0  0
   57.1179   30.6845   41.2677 H   0  0  0  0  0  0  0  0  0  0  0  0
   58.7499   31.2336   44.6071 H   0  0  0  0  0  0  0  0  0  0  0  0
   58.5708   32.6546   43.4642 H   0  0  0  0  0  0  0  0  0  0  0  0
   57.6992   32.3939   46.2150 H   0  0  0  0  0  0  0  0  0  0  0  0
   57.7014   33.8274   45.1325 H   0  0  0  0  0  0  0  0  0  0  0  0
   56.2997   32.7040   45.1325 H   0  0  0  0  0  0  0  0  0  0  0  0
   56.8356   29.2059   42.5910 H   0  0  0  0  0  0  0  0  0  0  0  0
   58.0806   29.4064   43.8828 H   0  0  0  0  0  0  0  0  0  0  0  0
   58.0720   29.5979   46.1689 H   0  0  0  0  0  0  0  0  0  0  0  0
   59.9777   28.8424   47.5847 H   0  0  0  0  0  0  0  0  0  0  0  0
   60.1973   26.4381   48.2074 H   0  0  0  0  0  0  0  0  0  0  0  0
   58.5139   24.7819   47.4141 H   0  0  0  0  0  0  0  0  0  0  0  0
   55.0339   22.9810   44.7854 H   0  0  0  0  0  0  0  0  0  0  0  0
   55.0010   24.3997   43.6578 H   0  0  0  0  0  0  0  0  0  0  0  0
   55.3668   22.1889   42.5111 H   0  0  0  0  0  0  0  0  0  0  0  0
   56.6860   23.4066   42.2532 H   0  0  0  0  0  0  0  0  0  0  0  0
   56.7036   20.8761   43.9196 H   0  0  0  0  0  0  0  0  0  0  0  0
   57.8732   21.4735   42.6456 H   0  0  0  0  0  0  0  0  0  0  0  0
   57.8717   21.8930   45.5616 H   0  0  0  0  0  0  0  0  0  0  0  0
   59.1965   22.0490   44.3223 H   0  0  0  0  0  0  0  0  0  0  0  0
   58.7031   24.1887   45.5303 H   0  0  0  0  0  0  0  0  0  0  0  0
   58.4761   24.2838   43.7489 H   0  0  0  0  0  0  0  0  0  0  0  0
  1  2  1  0
  2  3  1  0
  3  4  1  0
  4  5  1  0
  3  6  1  0
  6  7  1  0
  7  8  2  0
  7  9  1  0
  9 10  1  0
 10 11  2  0
 11 12  1  0
 12 13  2  0
 13 14  1  0
 14 15  2  0
 15 16  1  0
 16 17  2  0
 16 18  1  0
 18 19  1  0
 19 20  1  0
 20 21  1  0
 21 22  1  0
 22 23  1  0
 15 10  1  0
 23 18  1  0
  1 24  1  0
  1 25  1  0
  1 26  1  0
  2 27  1  0
  2 28  1  0
  4 29  1  0
  4 30  1  0
  5 31  1  0
  5 32  1  0
  5 33  1  0
  6 34  1  0
  6 35  1  0
 11 36  1  0
 12 37  1  0
 13 38  1  0
 14 39  1  0
 19 40  1  0
 19 41  1  0
 20 42  1  0
 20 43  1  0
 21 44  1  0
 21 45  1  0
 22 46  1  0
 22 47  1  0
 23 48  1  0
 23 49  1  0
M  CHG  1   9  -1
M  END
>  <UniqueID>  (6) 
6

>  <SMILES>  (6) 
CCN(CC)CC(=O)[N-]c1ccccc1C(=O)N1CCCCC1

>  <Energy>  (6) 
62.56150010658636

>  <Genealogy>  (6) 
CCN(CC)CC(=O)[N-]c1ccccc1C(=O)N1CCCCC1 (protonated)
CCN(CC)CC(=O)[N-]c1ccccc1C(=O)N1CCCCC1 (3D coordinates assigned)
CCN(CC)CC(=O)[N-]c1ccccc1C(=O)N1CCCCC1 (nonaromatic ring conformer: 62.56150010658636 kcal/mol)

>  <smiles>  (6) 
CCN(CC)CC(=O)Nc1ccccc1C(=O)N1CCCCC1

>  <score_type>  (6) 
oracle

>  <origin>  (6) 
adg

>  <m_score__min__energy>  (6) 
-10.199999999999999

>  <m_primary>  (6) 
energy

$$$$
6:0
     RDKit          3D

 48 50  0  0  1  0  0  0  0  0999 V2000
   59.4300   34.4780   47.3880 C   0  0  0  0  0  0  0  0  0  0  0  0
   60.6000   34.1760   47.2140 C   0  0  0  0  0  0  0  0  0  0  0  0
   62.0020   33.8340   46.9890 C   0  0  0  0  0  0  0  0  0  0  0  0
   62.8250   33.9830   48.1170 N   0  0  0  0  0  0  0  0  0  0  0  0
   64.1290   33.4300   48.0850 C   0  0  0  0  0  0  0  0  0  0  0  0
   62.2960   34.3990   49.3430 C   0  0  0  0  0  0  0  0  0  0  0  0
   62.2160   33.3730   50.4440 C   0  0  0  0  0  0  0  0  0  0  0  0
   62.4980   32.1120   49.8150 O   0  0  0  0  0  0  0  0  0  0  0  0
   61.5030   31.4010   49.1440 C   0  0  0  0  0  0  0  0  0  0  0  0
   60.2570   31.3000   49.7260 C   0  0  0  0  0  0  0  0  0  0  0  0
   59.2500   30.6050   49.0910 C   0  0  0  0  0  0  0  0  0  0  0  0
   59.5280   30.0140   47.8570 C   0  0  0  0  0  0  0  0  0  0  0  0
   58.4520   29.3110   47.2490 N   0  0  0  0  0  0  0  0  0  0  0  0
   58.2040   29.4050   45.9920 C   0  0  0  0  0  0  0  0  0  0  0  0
   58.2710   28.2420   45.2520 C   0  0  0  0  0  0  0  0  0  0  0  0
   58.0080   28.2860   43.8800 C   0  0  0  0  0  0  0  0  0  0  0  0
   58.0790   27.0520   43.0870 C   0  0  0  0  0  0  0  0  0  0  0  0
   57.6990   29.4990   43.3710 N   0  0  0  0  0  0  0  0  0  0  0  0
   57.6450   30.6090   44.1270 C   0  0  0  0  0  0  0  0  0  0  0  0
   57.3510   31.8940   43.7670 N   0  0  0  0  0  0  0  0  0  0  0  0
   57.4330   32.6210   44.9000 C   0  0  0  0  0  0  0  0  0  0  0  0
   57.1710   34.0990   44.8950 C   0  0  0  0  0  0  0  0  0  0  0  0
   57.7650   31.8420   45.9440 N   0  0  0  0  0  0  0  0  0  0  0  0
   57.8940   30.6030   45.4570 N   0  0  0  0  0  0  0  0  0  0  0  0
   60.7800   30.1290   47.2940 C   0  0  0  0  0  0  0  0  0  0  0  0
   61.7980   30.8350   47.9420 C   0  0  0  0  0  0  0  0  0  0  0  0
   58.3758   34.7501   47.5448 H   0  0  0  0  0  0  0  0  0  0  0  0
   62.0518   32.7845   46.6633 H   0  0  0  0  0  0  0  0  0  0  0  0
   62.3784   34.5372   46.2315 H   0  0  0  0  0  0  0  0  0  0  0  0
   64.4880   33.2777   49.1135 H   0  0  0  0  0  0  0  0  0  0  0  0
   64.1050   32.4646   47.5583 H   0  0  0  0  0  0  0  0  0  0  0  0
   64.8064   34.1183   47.5583 H   0  0  0  0  0  0  0  0  0  0  0  0
   62.9202   35.2279   49.7082 H   0  0  0  0  0  0  0  0  0  0  0  0
   61.2504   34.6622   49.1252 H   0  0  0  0  0  0  0  0  0  0  0  0
   62.9604   33.5881   51.2248 H   0  0  0  0  0  0  0  0  0  0  0  0
   61.2302   33.3742   50.9320 H   0  0  0  0  0  0  0  0  0  0  0  0
   60.0661   31.7752   50.6995 H   0  0  0  0  0  0  0  0  0  0  0  0
   58.2520   30.5182   49.5453 H   0  0  0  0  0  0  0  0  0  0  0  0
   58.5290   27.2892   45.7375 H   0  0  0  0  0  0  0  0  0  0  0  0
   58.1289   26.1848   43.7619 H   0  0  0  0  0  0  0  0  0  0  0  0
   57.1840   26.9719   42.4526 H   0  0  0  0  0  0  0  0  0  0  0  0
   58.9773   27.0750   42.4526 H   0  0  0  0  0  0  0  0  0  0  0  0
   57.5000   29.5480   42.3480 H   0  0  0  0  0  0  0  0  0  0  0  0
   57.1064   34.4634   45.9309 H   0  0  0  0  0  0  0  0  0  0  0  0
   57.9917   34.6151   44.3752 H   0  0  0  0  0  0  0  0  0  0  0  0
   56.2229   34.3016   44.3752 H   0  0  0  0  0  0  0  0  0  0  0  0
   60.9817   29.6585   46.3204 H   0  0  0  0  0  0  0  0  0  0  0  0
   62.7996   30.9294   47.4971 H   0  0  0  0  0  0  0  0  0  0  0  0
  1  2  3  0
  2  3  1  0
  3  4  1  0
  4  5  1  0
  4  6  1  0
  6  7  1  0
  7  8  1  0
  8  9  1  0
  9 10  2  0
 10 11  1  0
 11 12  2  0
 12 13  1  0
 13 14  2  0
 14 15  1  0
 15 16  2  0
 16 17  1  0
 16 18  1  0
 18 19  1  0
 19 20  2  0
 20 21  1  0
 21 22  1  0
 21 23  2  0
 23 24  1  0
 12 25  1  0
 25 26  2  0
 26  9  1  0
 24 14  1  0
 24 19  1  0
  1 27  1  0
  3 28  1  0
  3 29  1  0
  5 30  1  0
  5 31  1  0
  5 32  1  0
  6 33  1  0
  6 34  1  0
  7 35  1  0
  7 36  1  0
 10 37  1  0
 11 38  1  0
 15 39  1  0
 17 40  1  0
 17 41  1  0
 17 42  1  0
 18 43  1  0
 22 44  1  0
 22 45  1  0
 22 46  1  0
 25 47  1  0
 26 48  1  0
M  END
>  <smiles>  (7) 
C#CCN(C)CCOc1ccc(N=c2cc(C)[nH]c3nc(C)nn23)cc1

>  <score_type>  (7) 
oracle

>  <origin>  (7) 
adg

>  <m_score__min__energy>  (7) 
-6.9299999999999997

>  <m_primary>  (7) 
energy

$$$$
7:0
     RDKit          3D

 53 55  0  0  0  0  0  0  0  0999 V2000
   63.6800   32.9150   48.5660 C   0  0  0  0  0  0  0  0  0  0  0  0
   62.2640   33.3410   48.8630 C   0  0  0  0  0  0  0  0  0  0  0  0
   61.8620   33.4640   50.2030 C   0  0  0  0  0  0  0  0  0  0  0  0
   60.5600   33.8440   50.5210 C   0  0  0  0  0  0  0  0  0  0  0  0
   59.6410   34.1060   49.5080 C   0  0  0  0  0  0  0  0  0  0  0  0
   60.0170   34.0030   48.1630 C   0  0  0  0  0  0  0  0  0  0  0  0
   59.0250   34.2200   47.1500 N   0  0  0  0  0  0  0  0  0  0  0  0
   59.2690   35.1820   46.0770 C   0  0  0  0  0  0  0  0  0  0  0  0
   59.1400   34.4830   44.7120 C   0  0  0  0  0  0  0  0  0  0  0  0
   58.0440   33.4710   44.6410 N   0  0  0  0  0  0  0  0  0  0  0  0
   58.5570   32.0930   44.4640 C   0  0  0  0  0  0  0  0  0  0  0  0
   57.7270   31.3170   43.4180 C   0  0  2  0  0  0  0  0  0  0  0  0
   57.2780   32.1960   42.4190 O   0  0  0  0  0  0  0  0  0  0  0  0
   56.5030   30.6420   44.0630 C   0  0  0  0  0  0  0  0  0  0  0  0
   56.8260   30.0260   45.3130 O   0  0  0  0  0  0  0  0  0  0  0  0
   57.6300   28.8870   45.4860 C   0  0  0  0  0  0  0  0  0  0  0  0
   57.4490   27.7140   44.7270 C   0  0  0  0  0  0  0  0  0  0  0  0
   58.2960   26.6170   44.9120 C   0  0  0  0  0  0  0  0  0  0  0  0
   59.3210   26.6750   45.8580 C   0  0  0  0  0  0  0  0  0  0  0  0
   60.1430   25.6110   46.0330 F   0  0  0  0  0  0  0  0  0  0  0  0
   59.4960   27.8260   46.6290 C   0  0  0  0  0  0  0  0  0  0  0  0
   58.6500   28.9270   46.4510 C   0  0  0  0  0  0  0  0  0  0  0  0
   58.8850   30.3590   47.4410 Cl  0  0  0  0  0  0  0  0  0  0  0  0
   57.0920   33.5530   45.7720 C   0  0  0  0  0  0  0  0  0  0  0  0
   57.8100   33.4010   47.1230 C   0  0  0  0  0  0  0  0  0  0  0  0
   61.3450   33.6470   47.8240 C   0  0  0  0  0  0  0  0  0  0  0  0
   61.7540   33.5400   46.3730 C   0  0  0  0  0  0  0  0  0  0  0  0
   64.2198   32.7526   49.5106 H   0  0  0  0  0  0  0  0  0  0  0  0
   63.6677   31.9808   47.9854 H   0  0  0  0  0  0  0  0  0  0  0  0
   64.1852   33.7009   47.9854 H   0  0  0  0  0  0  0  0  0  0  0  0
   62.5819   33.2584   51.0089 H   0  0  0  0  0  0  0  0  0  0  0  0
   60.2572   33.9373   51.5744 H   0  0  0  0  0  0  0  0  0  0  0  0
   58.6119   34.3961   49.7663 H   0  0  0  0  0  0  0  0  0  0  0  0
   58.5321   35.9961   46.1417 H   0  0  0  0  0  0  0  0  0  0  0  0
   60.2842   35.5925   46.1807 H   0  0  0  0  0  0  0  0  0  0  0  0
   58.9495   35.2513   43.9481 H   0  0  0  0  0  0  0  0  0  0  0  0
   60.0819   33.9395   44.5461 H   0  0  0  0  0  0  0  0  0  0  0  0
   59.6034   32.1403   44.1281 H   0  0  0  0  0  0  0  0  0  0  0  0
   58.4817   31.5674   45.4273 H   0  0  0  0  0  0  0  0  0  0  0  0
   58.3761   30.5415   42.9853 H   0  0  0  0  0  0  0  0  0  0  0  0
   57.2070   33.0950   42.8330 H   0  0  0  0  0  0  0  0  0  0  0  0
   55.7265   31.4025   44.2323 H   0  0  0  0  0  0  0  0  0  0  0  0
   56.1492   29.8565   43.3791 H   0  0  0  0  0  0  0  0  0  0  0  0
   56.6380   27.6609   43.9858 H   0  0  0  0  0  0  0  0  0  0  0  0
   58.1544   25.7066   44.3110 H   0  0  0  0  0  0  0  0  0  0  0  0
   60.3005   27.8676   47.3780 H   0  0  0  0  0  0  0  0  0  0  0  0
   56.5861   34.5293   45.7436 H   0  0  0  0  0  0  0  0  0  0  0  0
   56.3653   32.7332   45.6724 H   0  0  0  0  0  0  0  0  0  0  0  0
   57.1364   33.7249   47.9301 H   0  0  0  0  0  0  0  0  0  0  0  0
   58.0874   32.3458   47.2633 H   0  0  0  0  0  0  0  0  0  0  0  0
   62.8165   33.2620   46.3111 H   0  0  0  0  0  0  0  0  0  0  0  0
   61.1443   32.7711   45.8759 H   0  0  0  0  0  0  0  0  0  0  0  0
   61.5989   34.5089   45.8759 H   0  0  0  0  0  0  0  0  0  0  0  0
  1  2  1  0
  2  3  2  0
  3  4  1  0
  4  5  2  0
  5  6  1  0
  6  7  1  0
  7  8  1  0
  8  9  1  0
  9 10  1  0
 10 11  1  0
 11 12  1  0
 12 13  1  0
 12 14  1  0
 14 15  1  0
 15 16  1  0
 16 17  2  0
 17 18  1  0
 18 19  2  0
 19 20  1  0
 19 21  1  0
 21 22  2  0
 22 23  1  0
 10 24  1  0
 24 25  1  0
  6 26  2  0
 26 27  1  0
 26  2  1  0
 25  7  1  0
 22 16  1  0
  1 28  1  0
  1 29  1  0
  1 30  1  0
  3 31  1  0
  4 32  1  0
  5 33  1  0
  8 34  1  0
  8 35  1  0
  9 36  1  0
  9 37  1  0
 11 38  1  0
 11 39  1  0
 12 40  1  6
 13 41  1  0
 14 42  1  0
 14 43  1  0
 17 44  1  0
 18 45  1  0
 21 46  1  0
 24 47  1  0
 24 48  1  0
 25 49  1  0
 25 50  1  0
 27 51  1  0
 27 52  1  0
 27 53  1  0
M  END
>  <UniqueID>  (8) 
7

>  <SMILES>  (8) 
Cc1cccc(N2CCN(C[C@H](O)COc3ccc(F)cc3Cl)CC2)c1C

>  <Energy>  (8) 
64.97869636267825

>  <Genealogy>  (8) 
Cc1cccc(N2CCN(C[C@H](O)COc3ccc(F)cc3Cl)CC2)c1C (chirality)
Cc1cccc(N2CCN(C[C@H](O)COc3ccc(F)cc3Cl)CC2)c1C (3D coordinates assigned)
Cc1cccc(N2CCN(C[C@H](O)COc3ccc(F)cc3Cl)CC2)c1C (nonaromatic ring conformer: 64.97869636267825 kcal/mol)

>  <smiles>  (8) 
Cc1cccc(N2CCN(CC(O)COc3ccc(F)cc3Cl)CC2)c1C

>  <score_type>  (8) 
oracle

>  <origin>  (8) 
adg

>  <m_score__min__energy>  (8) 
-8.8800000000000008

>  <m_primary>  (8) 
energy

$$$$
8:0
     RDKit          3D

 38 40  0  0  0  0  0  0  0  0999 V2000
   56.9760   34.1910   45.2400 C   0  0  0  0  0  0  0  0  0  0  0  0
   58.0690   33.8470   44.3170 N   0  0  0  0  0  0  0  0  0  0  0  0
   59.4120   33.8600   44.9380 C   0  0  0  0  0  0  0  0  0  0  0  0
   59.3950   34.0330   46.4330 C   0  0  0  0  0  0  0  0  0  0  0  0
   59.3780   35.2330   47.1250 C   0  0  0  0  0  0  0  0  0  0  0  0
   59.3610   34.9650   48.4420 N   0  0  0  0  0  0  0  0  0  0  0  0
   59.3680   33.6520   48.6090 N   0  0  0  0  0  0  0  0  0  0  0  0
   59.3140   32.9870   49.9040 C   0  0  0  0  0  0  0  0  0  0  0  0
   59.3620   33.0470   47.4050 C   0  0  0  0  0  0  0  0  0  0  0  0
   57.7860   32.7050   43.4160 C   0  0  0  0  0  0  0  0  0  0  0  0
   57.5410   31.4100   44.1420 C   0  0  0  0  0  0  0  0  0  0  0  0
   58.5040   30.5170   44.4350 N   0  0  0  0  0  0  0  0  0  0  0  0
   57.8070   29.5800   45.1120 C   0  0  0  0  0  0  0  0  0  0  0  0
   58.4230   28.3860   45.7260 C   0  0  0  0  0  0  0  0  0  0  0  0
   59.8180   28.2310   45.7420 C   0  0  0  0  0  0  0  0  0  0  0  0
   60.3820   27.1070   46.3500 C   0  0  0  0  0  0  0  0  0  0  0  0
   59.5830   26.1680   46.9210 N   0  0  0  0  0  0  0  0  0  0  0  0
   58.2290   26.2880   46.9200 C   0  0  0  0  0  0  0  0  0  0  0  0
   57.6240   27.3980   46.3240 C   0  0  0  0  0  0  0  0  0  0  0  0
   56.4970   29.8850   45.2050 N   0  0  0  0  0  0  0  0  0  0  0  0
   56.3730   31.0210   44.5890 O   0  0  0  0  0  0  0  0  0  0  0  0
   57.3242   34.0814   46.2777 H   0  0  0  0  0  0  0  0  0  0  0  0
   56.6630   35.2311   45.0662 H   0  0  0  0  0  0  0  0  0  0  0  0
   56.1237   33.5177   45.0662 H   0  0  0  0  0  0  0  0  0  0  0  0
   59.9093   32.9067   44.7060 H   0  0  0  0  0  0  0  0  0  0  0  0
   59.9451   34.7285   44.5238 H   0  0  0  0  0  0  0  0  0  0  0  0
   59.3784   36.2358   46.6730 H   0  0  0  0  0  0  0  0  0  0  0  0
   59.3440   35.6680   49.2150 H   0  0  0  0  0  0  0  0  0  0  0  0
   59.3750   33.7385   50.7049 H   0  0  0  0  0  0  0  0  0  0  0  0
   58.3679   32.4329   49.9925 H   0  0  0  0  0  0  0  0  0  0  0  0
   60.1583   32.2875   49.9925 H   0  0  0  0  0  0  0  0  0  0  0  0
   59.3356   31.9620   47.2258 H   0  0  0  0  0  0  0  0  0  0  0  0
   56.8921   32.9446   42.8214 H   0  0  0  0  0  0  0  0  0  0  0  0
   58.6788   32.5595   42.7901 H   0  0  0  0  0  0  0  0  0  0  0  0
   60.4639   28.9910   45.2780 H   0  0  0  0  0  0  0  0  0  0  0  0
   61.4747   26.9818   46.3666 H   0  0  0  0  0  0  0  0  0  0  0  0
   57.6085   25.5102   47.3890 H   0  0  0  0  0  0  0  0  0  0  0  0
   56.5285   27.4972   46.3233 H   0  0  0  0  0  0  0  0  0  0  0  0
  1  2  1  0
  2  3  1  0
  3  4  1  0
  4  5  1  0
  5  6  2  0
  6  7  1  0
  7  8  1  0
  7  9  1  0
  2 10  1  0
 10 11  1  0
 11 12  2  0
 12 13  1  0
 13 14  1  0
 14 15  2  0
 15 16  1  0
 16 17  2  0
 17 18  1  0
 18 19  2  0
 13 20  2  0
 20 21  1  0
  9  4  2  0
 21 11  1  0
 19 14  1  0
  1 22  1  0
  1 23  1  0
  1 24  1  0
  3 25  1  0
  3 26  1  0
  5 27  1  0
  6 28  1  0
  8 29  1  0
  8 30  1  0
  8 31  1  0
  9 32  1  0
 10 33  1  0
 10 34  1  0
 15 35  1  0
 16 36  1  0
 18 37  1  0
 19 38  1  0
M  CHG  1   6   1
M  END
>  <UniqueID>  (9) 
8

>  <SMILES>  (9) 
CN(Cc1c[nH+]n(C)c1)Cc1nc(-c2ccncc2)no1

>  <Energy>  (9) 
106.82330872692445

>  <Genealogy>  (9) 
CN(Cc1c[nH+]n(C)c1)Cc1nc(-c2ccncc2)no1 (protonated)
CN(Cc1c[nH+]n(C)c1)Cc1nc(-c2ccncc2)no1 (3D coordinates assigned)
CN(Cc1c[nH+]n(C)c1)Cc1nc(-c2ccncc2)no1 (optimized conformer: 106.82330872692445 kcal/mol)

>  <smiles>  (9) 
CN(Cc1cnn(C)c1)Cc1nc(-c2ccncc2)no1

>  <score_type>  (9) 
oracle

>  <origin>  (9) 
adg

>  <m_score__min__energy>  (9) 
-6.1500000000000004

>  <m_primary>  (9) 
energy

$$$$
9:0
     RDKit          3D

 36 38  0  0  0  0  0  0  0  0999 V2000
   56.6460   27.0250   45.7290 C   0  0  0  0  0  0  0  0  0  0  0  0
   55.9330   28.1580   45.2450 O   0  0  0  0  0  0  0  0  0  0  0  0
   56.5370   29.3080   44.7150 C   0  0  0  0  0  0  0  0  0  0  0  0
   56.2900   29.7540   43.4040 C   0  0  0  0  0  0  0  0  0  0  0  0
   56.9140   30.9070   42.9240 C   0  0  0  0  0  0  0  0  0  0  0  0
   57.7870   31.6260   43.7430 C   0  0  0  0  0  0  0  0  0  0  0  0
   58.0480   31.1970   45.0560 C   0  0  0  0  0  0  0  0  0  0  0  0
   58.9780   31.9600   45.9290 C   0  0  0  0  0  0  0  0  0  0  0  0
   58.7040   33.2960   46.2660 C   0  0  0  0  0  0  0  0  0  0  0  0
   59.5740   34.0170   47.0870 C   0  0  0  0  0  0  0  0  0  0  0  0
   60.7370   33.4150   47.5860 C   0  0  0  0  0  0  0  0  0  0  0  0
   61.6170   34.1340   48.4100 C   0  0  0  0  0  0  0  0  0  0  0  0
   62.7840   33.5230   48.9070 C   0  0  0  0  0  0  0  0  0  0  0  0
   63.6940   34.2000   49.7340 O   0  0  0  0  0  0  0  0  0  0  0  0
   63.7050   34.1180   51.1550 C   0  0  0  0  0  0  0  0  0  0  0  0
   63.0590   32.1930   48.5710 C   0  0  0  0  0  0  0  0  0  0  0  0
   62.1890   31.4700   47.7510 C   0  0  0  0  0  0  0  0  0  0  0  0
   61.0240   32.0720   47.2540 C   0  0  0  0  0  0  0  0  0  0  0  0
   60.1450   31.3530   46.4300 C   0  0  0  0  0  0  0  0  0  0  0  0
   57.4150   30.0340   45.5310 C   0  0  0  0  0  0  0  0  0  0  0  0
   56.6418   27.0316   46.8290 H   0  0  0  0  0  0  0  0  0  0  0  0
   56.1634   26.1056   45.3660 H   0  0  0  0  0  0  0  0  0  0  0  0
   57.6837   27.0623   45.3660 H   0  0  0  0  0  0  0  0  0  0  0  0
   55.6026   29.1922   42.7545 H   0  0  0  0  0  0  0  0  0  0  0  0
   56.7173   31.2501   41.8975 H   0  0  0  0  0  0  0  0  0  0  0  0
   58.2738   32.5343   43.3581 H   0  0  0  0  0  0  0  0  0  0  0  0
   57.7947   33.7793   45.8792 H   0  0  0  0  0  0  0  0  0  0  0  0
   59.3453   35.0620   47.3431 H   0  0  0  0  0  0  0  0  0  0  0  0
   61.3938   35.1796   48.6686 H   0  0  0  0  0  0  0  0  0  0  0  0
   63.5702   35.1230   51.5813 H   0  0  0  0  0  0  0  0  0  0  0  0
   62.8865   33.4644   51.4909 H   0  0  0  0  0  0  0  0  0  0  0  0
   64.6668   33.7032   51.4909 H   0  0  0  0  0  0  0  0  0  0  0  0
   63.9698   31.7115   48.9565 H   0  0  0  0  0  0  0  0  0  0  0  0
   62.4186   30.4253   47.4944 H   0  0  0  0  0  0  0  0  0  0  0  0
   60.3695   30.3071   46.1736 H   0  0  0  0  0  0  0  0  0  0  0  0
   57.6119   29.6897   46.5570 H   0  0  0  0  0  0  0  0  0  0  0  0
  1  2  1  0
  2  3  1  0
  3  4  2  0
  4  5  1  0
  5  6  2  0
  6  7  1  0
  7  8  1  0
  8  9  2  0
  9 10  1  0
 10 11  2  0
 11 12  1  0
 12 13  2  0
 13 14  1  0
 14 15  1  0
 13 16  1  0
 16 17  2  0
 17 18  1  0
 18 19  2  0
  7 20  2  0
 20  3  1  0
 19  8  1  0
 18 11  1  0
  1 21  1  0
  1 22  1  0
  1 23  1  0
  4 24  1  0
  5 25  1  0
  6 26  1  0
  9 27  1  0
 10 28  1  0
 12 29  1  0
 15 30  1  0
 15 31  1  0
 15 32  1  0
 16 33  1  0
 17 34  1  0
 19 35  1  0
 20 36  1  0
M  END
>  <UniqueID>  (10) 
9

>  <SMILES>  (10) 
COc1cccc(-c2ccc3cc(OC)ccc3c2)c1

>  <Energy>  (10) 
45.60519453364045

>  <Genealogy>  (10) 
COc1cccc(-c2ccc3cc(OC)ccc3c2)c1 (3D coordinates assigned)
COc1cccc(-c2ccc3cc(OC)ccc3c2)c1 (optimized conformer: 45.60519453364045 kcal/mol)

>  <smiles>  (10) 
COc1cccc(-c2ccc3cc(OC)ccc3c2)c1

>  <score_type>  (10) 
oracle

>  <origin>  (10) 
adg

>  <m_score__min__energy>  (10) 
-7.0199999999999996

>  <m_primary>  (10) 
energy

$$$$
10:0
     RDKit          3D

 32 34  0  0  0  0  0  0  0  0999 V2000
   57.7640   31.5580   43.7760 C   0  0  0  0  0  0  0  0  0  0  0  0
   57.4390   32.6080   44.2710 C   0  0  0  0  0  0  0  0  0  0  0  0
   57.0440   33.8860   44.8720 C   0  0  0  0  0  0  0  0  0  0  0  0
   57.2240   33.8410   46.3230 N   0  0  0  0  0  0  0  0  0  0  0  0
   58.5010   33.7350   46.9840 C   0  0  0  0  0  0  0  0  0  0  0  0
   58.6490   33.0800   48.2200 C   0  0  0  0  0  0  0  0  0  0  0  0
   59.9020   32.9990   48.8330 C   0  0  0  0  0  0  0  0  0  0  0  0
   61.0380   33.5610   48.2240 C   0  0  0  0  0  0  0  0  0  0  0  0
   62.3650   33.4690   48.8820 C   0  0  0  0  0  0  0  0  0  0  0  0
   62.6590   34.0070   50.0960 N   0  0  0  0  0  0  0  0  0  0  0  0
   63.9480   33.7740   50.4590 C   0  0  0  0  0  0  0  0  0  0  0  0
   64.5330   34.2110   51.6500 C   0  0  0  0  0  0  0  0  0  0  0  0
   65.8820   33.9000   51.8940 C   0  0  0  0  0  0  0  0  0  0  0  0
   66.6260   33.1630   50.9500 C   0  0  0  0  0  0  0  0  0  0  0  0
   66.0290   32.7310   49.7550 C   0  0  0  0  0  0  0  0  0  0  0  0
   64.6910   33.0520   49.5390 C   0  0  0  0  0  0  0  0  0  0  0  0
   63.7200   32.6860   48.2210 S   0  0  0  0  0  0  0  0  0  0  0  0
   60.8870   34.2170   46.9900 C   0  0  0  0  0  0  0  0  0  0  0  0
   59.6330   34.3000   46.3790 C   0  0  0  0  0  0  0  0  0  0  0  0
   58.0606   30.5999   43.3243 H   0  0  0  0  0  0  0  0  0  0  0  0
   57.6658   34.6913   44.4539 H   0  0  0  0  0  0  0  0  0  0  0  0
   55.9836   34.0744   44.6483 H   0  0  0  0  0  0  0  0  0  0  0  0
   56.3640   33.9260   46.9110 H   0  0  0  0  0  0  0  0  0  0  0  0
   57.7723   32.6285   48.7073 H   0  0  0  0  0  0  0  0  0  0  0  0
   60.0009   32.4898   49.8030 H   0  0  0  0  0  0  0  0  0  0  0  0
   61.9940   34.5580   50.6820 H   0  0  0  0  0  0  0  0  0  0  0  0
   63.9492   34.7874   52.3828 H   0  0  0  0  0  0  0  0  0  0  0  0
   66.3600   34.2336   52.8269 H   0  0  0  0  0  0  0  0  0  0  0  0
   67.6809   32.9249   51.1511 H   0  0  0  0  0  0  0  0  0  0  0  0
   66.6008   32.1562   49.0116 H   0  0  0  0  0  0  0  0  0  0  0  0
   61.7630   34.6686   46.5014 H   0  0  0  0  0  0  0  0  0  0  0  0
   59.5326   34.8146   45.4120 H   0  0  0  0  0  0  0  0  0  0  0  0
  1  2  3  0
  2  3  1  0
  3  4  1  0
  4  5  1  0
  5  6  2  0
  6  7  1  0
  7  8  2  0
  8  9  1  0
  9 10  2  0
 10 11  1  0
 11 12  2  0
 12 13  1  0
 13 14  2  0
 14 15  1  0
 15 16  2  0
 16 17  1  0
  8 18  1  0
 18 19  2  0
 19  5  1  0
 17  9  1  0
 16 11  1  0
  1 20  1  0
  3 21  1  0
  3 22  1  0
  4 23  1  0
  6 24  1  0
  7 25  1  0
 10 26  1  0
 12 27  1  0
 13 28  1  0
 14 29  1  0
 15 30  1  0
 18 31  1  0
 19 32  1  0
M  CHG  1  10   1
M  END
>  <UniqueID>  (11) 
10

>  <SMILES>  (11) 
C#CCNc1ccc(-c2[nH+]c3ccccc3s2)cc1

>  <Energy>  (11) 
68.2106521416552

>  <Genealogy>  (11) 
C#CCNc1ccc(-c2[nH+]c3ccccc3s2)cc1 (protonated)
C#CCNc1ccc(-c2[nH+]c3ccccc3s2)cc1 (3D coordinates assigned)
C#CCNc1ccc(-c2[nH+]c3ccccc3s2)cc1 (optimized conformer: 68.2106521416552 kcal/mol)

>  <smiles>  (11) 
C#CCNc1ccc(-c2nc3ccccc3s2)cc1

>  <score_type>  (11) 
oracle

>  <origin>  (11) 
adg

>  <m_score__min__energy>  (11) 
-5.21

>  <m_primary>  (11) 
energy

$$$$
11:0
     RDKit          3D

 46 47  0  0  0  0  0  0  0  0999 V2000
   60.6450   26.5750   46.6370 C   0  0  0  0  0  0  0  0  0  0  0  0
   60.1680   27.9150   46.5940 O   0  0  0  0  0  0  0  0  0  0  0  0
   59.2040   28.3940   45.6920 C   0  0  0  0  0  0  0  0  0  0  0  0
   58.7710   27.6190   44.6000 C   0  0  0  0  0  0  0  0  0  0  0  0
   57.8050   28.1090   43.7240 C   0  0  0  0  0  0  0  0  0  0  0  0
   57.2570   29.3750   43.9190 C   0  0  0  0  0  0  0  0  0  0  0  0
   57.6710   30.1720   45.0030 C   0  0  0  0  0  0  0  0  0  0  0  0
   57.1240   31.4460   45.2280 O   0  0  0  0  0  0  0  0  0  0  0  0
   57.5230   32.6310   44.5480 C   0  0  0  0  0  0  0  0  0  0  0  0
   58.6520   29.6810   45.8930 C   0  0  0  0  0  0  0  0  0  0  0  0
   59.0660   30.5170   47.0920 C   0  0  0  0  0  0  0  0  0  0  0  0
   60.3200   30.0290   47.6930 N   0  0  0  0  0  0  0  0  0  0  0  0
   60.8780   30.9870   48.6620 C   0  0  0  0  0  0  0  0  0  0  0  0
   61.7180   32.0250   47.9570 C   0  0  0  0  0  0  0  0  0  0  0  0
   62.9990   31.6850   47.4940 C   0  0  0  0  0  0  0  0  0  0  0  0
   63.7620   32.6180   46.7930 C   0  0  0  0  0  0  0  0  0  0  0  0
   63.2350   33.8850   46.5450 C   0  0  0  0  0  0  0  0  0  0  0  0
   61.9890   34.2020   46.9840 N   0  0  0  0  0  0  0  0  0  0  0  0
   61.2200   33.3160   47.6760 C   0  0  0  0  0  0  0  0  0  0  0  0
   59.9090   33.7140   48.0960 N   0  0  0  0  0  0  0  0  0  0  0  0
   58.9840   34.2790   47.1160 C   0  0  0  0  0  0  0  0  0  0  0  0
   59.6560   33.9070   49.5240 C   0  0  0  0  0  0  0  0  0  0  0  0
   60.7574   26.2593   47.6847 H   0  0  0  0  0  0  0  0  0  0  0  0
   59.9270   25.9138   46.1298 H   0  0  0  0  0  0  0  0  0  0  0  0
   61.6193   26.5162   46.1298 H   0  0  0  0  0  0  0  0  0  0  0  0
   59.1986   26.6187   44.4369 H   0  0  0  0  0  0  0  0  0  0  0  0
   57.4734   27.4937   42.8746 H   0  0  0  0  0  0  0  0  0  0  0  0
   56.4958   29.7543   43.2213 H   0  0  0  0  0  0  0  0  0  0  0  0
   57.7839   33.4058   45.2839 H   0  0  0  0  0  0  0  0  0  0  0  0
   58.3979   32.4149   43.9173 H   0  0  0  0  0  0  0  0  0  0  0  0
   56.6955   32.9881   43.9173 H   0  0  0  0  0  0  0  0  0  0  0  0
   59.2083   31.5585   46.7678 H   0  0  0  0  0  0  0  0  0  0  0  0
   58.2724   30.4437   47.8502 H   0  0  0  0  0  0  0  0  0  0  0  0
   60.1170   29.1320   48.1930 H   0  0  0  0  0  0  0  0  0  0  0  0
   61.0170   29.8260   46.9400 H   0  0  0  0  0  0  0  0  0  0  0  0
   60.0539   31.4873   49.1917 H   0  0  0  0  0  0  0  0  0  0  0  0
   61.5125   30.4415   49.3760 H   0  0  0  0  0  0  0  0  0  0  0  0
   63.4020   30.6794   47.6849 H   0  0  0  0  0  0  0  0  0  0  0  0
   64.7702   32.3571   46.4389 H   0  0  0  0  0  0  0  0  0  0  0  0
   63.8288   34.6286   45.9933 H   0  0  0  0  0  0  0  0  0  0  0  0
   58.1583   34.7833   47.6394 H   0  0  0  0  0  0  0  0  0  0  0  0
   59.5168   35.0060   46.4855 H   0  0  0  0  0  0  0  0  0  0  0  0
   58.5805   33.4730   46.4855 H   0  0  0  0  0  0  0  0  0  0  0  0
   60.3974   33.3414   50.1075 H   0  0  0  0  0  0  0  0  0  0  0  0
   59.7349   34.9764   49.7691 H   0  0  0  0  0  0  0  0  0  0  0  0
   58.6454   33.5483   49.7691 H   0  0  0  0  0  0  0  0  0  0  0  0
  1  2  1  0
  2  3  1  0
  3  4  2  0
  4  5  1  0
  5  6  2  0
  6  7  1  0
  7  8  1  0
  8  9  1  0
  7 10  2  0
 10 11  1  0
 11 12  1  0
 12 13  1  0
 13 14  1  0
 14 15  2  0
 15 16  1  0
 16 17  2  0
 17 18  1  0
 18 19  2  0
 19 20  1  0
 20 21  1  0
 20 22  1  0
 10  3  1  0
 19 14  1  0
  1 23  1  0
  1 24  1  0
  1 25  1  0
  4 26  1  0
  5 27  1  0
  6 28  1  0
  9 29  1  0
  9 30  1  0
  9 31  1  0
 11 32  1  0
 11 33  1  0
 12 34  1  0
 12 35  1  0
 13 36  1  0
 13 37  1  0
 15 38  1  0
 16 39  1  0
 17 40  1  0
 21 41  1  0
 21 42  1  0
 21 43  1  0
 22 44  1  0
 22 45  1  0
 22 46  1  0
M  CHG  1  12   1
M  END
>  <UniqueID>  (12) 
11

>  <SMILES>  (12) 
COc1cccc(OC)c1C[NH2+]Cc1cccnc1N(C)C

>  <Energy>  (12) 
47.78710380816039

>  <Genealogy>  (12) 
COc1cccc(OC)c1C[NH2+]Cc1cccnc1N(C)C (protonated)
COc1cccc(OC)c1C[NH2+]Cc1cccnc1N(C)C (3D coordinates assigned)
COc1cccc(OC)c1C[NH2+]Cc1cccnc1N(C)C (optimized conformer: 47.78710380816039 kcal/mol)

>  <smiles>  (12) 
COc1cccc(OC)c1CNCc1cccnc1N(C)C

>  <score_type>  (12) 
oracle

>  <origin>  (12) 
adg

>  <m_score__min__energy>  (12) 
-3.9199999999999999

>  <m_primary>  (12) 
energy

$$$$
12:0
     RDKit          3D

 46 48  0  0  0  0  0  0  0  0999 V2000
   63.0380   33.8450   46.3840 C   0  0  0  0  0  0  0  0  0  0  0  0
   63.0210   33.7040   47.8850 C   0  0  0  0  0  0  0  0  0  0  0  0
   64.2400   33.4370   48.5350 C   0  0  0  0  0  0  0  0  0  0  0  0
   64.2850   33.2350   49.9150 C   0  0  0  0  0  0  0  0  0  0  0  0
   65.4690   32.9790   50.5240 F   0  0  0  0  0  0  0  0  0  0  0  0
   63.1120   33.2740   50.6620 C   0  0  0  0  0  0  0  0  0  0  0  0
   61.8930   33.5320   50.0370 C   0  0  0  0  0  0  0  0  0  0  0  0
   61.8250   33.7820   48.6550 C   0  0  0  0  0  0  0  0  0  0  0  0
   60.2160   34.1160   47.9640 S   0  0  0  0  0  0  0  0  0  0  0  0
   59.3840   34.9550   48.8910 O   0  0  0  0  0  0  0  0  0  0  0  0
   60.4350   34.9270   46.7170 O   0  0  0  0  0  0  0  0  0  0  0  0
   59.2270   32.6730   47.5010 C   0  0  1  0  0  0  0  0  0  0  0  0
   58.7330   32.6920   46.0590 C   0  0  0  0  0  0  0  0  0  0  0  0
   58.4220   31.3040   45.7600 N   0  0  0  0  0  0  0  0  0  0  0  0
   57.7200   30.8990   44.5700 C   0  0  0  0  0  0  0  0  0  0  0  0
   56.9410   29.7320   44.5400 C   0  0  0  0  0  0  0  0  0  0  0  0
   56.2850   29.3940   43.3580 C   0  0  0  0  0  0  0  0  0  0  0  0
   56.4020   30.1890   42.2610 N   0  0  0  0  0  0  0  0  0  0  0  0
   57.1570   31.3220   42.3040 C   0  0  0  0  0  0  0  0  0  0  0  0
   57.2770   32.1600   41.1420 C   0  0  0  0  0  0  0  0  0  0  0  0
   57.3740   32.8370   40.2070 N   0  0  0  0  0  0  0  0  0  0  0  0
   57.8040   31.6640   43.4480 N   0  0  0  0  0  0  0  0  0  0  0  0
   58.9110   30.3920   46.7890 C   0  0  0  0  0  0  0  0  0  0  0  0
   59.8200   31.2500   47.6970 C   0  0  0  0  0  0  0  0  0  0  0  0
   59.7280   30.7890   49.1650 C   0  0  0  0  0  0  0  0  0  0  0  0
   61.2770   31.1210   47.2040 C   0  0  0  0  0  0  0  0  0  0  0  0
   63.1657   34.9044   46.1167 H   0  0  0  0  0  0  0  0  0  0  0  0
   63.8720   33.2593   45.9701 H   0  0  0  0  0  0  0  0  0  0  0  0
   62.0887   33.4743   45.9701 H   0  0  0  0  0  0  0  0  0  0  0  0
   65.1690   33.3869   47.9481 H   0  0  0  0  0  0  0  0  0  0  0  0
   63.1465   33.1009   51.7478 H   0  0  0  0  0  0  0  0  0  0  0  0
   60.9695   33.5401   50.6345 H   0  0  0  0  0  0  0  0  0  0  0  0
   58.4295   32.8127   48.2456 H   0  0  0  0  0  0  0  0  0  0  0  0
   57.8351   33.3203   45.9643 H   0  0  0  0  0  0  0  0  0  0  0  0
   59.4792   33.1107   45.3677 H   0  0  0  0  0  0  0  0  0  0  0  0
   56.8500   29.0960   45.4329 H   0  0  0  0  0  0  0  0  0  0  0  0
   55.6713   28.4823   43.3122 H   0  0  0  0  0  0  0  0  0  0  0  0
   55.9030   29.9220   41.3830 H   0  0  0  0  0  0  0  0  0  0  0  0
   58.0716   29.9769   47.3662 H   0  0  0  0  0  0  0  0  0  0  0  0
   59.4530   29.5383   46.3559 H   0  0  0  0  0  0  0  0  0  0  0  0
   59.8994   31.6479   49.8305 H   0  0  0  0  0  0  0  0  0  0  0  0
   58.7287   30.3708   49.3561 H   0  0  0  0  0  0  0  0  0  0  0  0
   60.4902   30.0193   49.3561 H   0  0  0  0  0  0  0  0  0  0  0  0
   61.9531   31.0611   48.0697 H   0  0  0  0  0  0  0  0  0  0  0  0
   61.3789   30.2103   46.5955 H   0  0  0  0  0  0  0  0  0  0  0  0
   61.5373   31.9996   46.5955 H   0  0  0  0  0  0  0  0  0  0  0  0
  1  2  1  0
  2  3  2  0
  3  4  1  0
  4  5  1  0
  4  6  2  0
  6  7  1  0
  7  8  2  0
  8  9  1  0
  9 10  2  0
  9 11  2  0
  9 12  1  0
 12 13  1  0
 13 14  1  0
 14 15  1  0
 15 16  2  0
 16 17  1  0
 17 18  2  0
 18 19  1  0
 19 20  1  0
 20 21  3  0
 19 22  2  0
 14 23  1  0
 23 24  1  0
 24 25  1  0
 24 26  1  0
  8  2  1  0
 24 12  1  0
 22 15  1  0
  1 27  1  0
  1 28  1  0
  1 29  1  0
  3 30  1  0
  6 31  1  0
  7 32  1  0
 12 33  1  1
 13 34  1  0
 13 35  1  0
 16 36  1  0
 17 37  1  0
 18 38  1  0
 23 39  1  0
 23 40  1  0
 25 41  1  0
 25 42  1  0
 25 43  1  0
 26 44  1  0
 26 45  1  0
 26 46  1  0
M  CHG  1  18   1
M  END
>  <UniqueID>  (13) 
12

>  <SMILES>  (13) 
Cc1cc(F)ccc1S(=O)(=O)[C@H]1CN(c2cc[nH+]c(C#N)n2)CC1(C)C

>  <Energy>  (13) 
54.43246872676717

>  <Genealogy>  (13) 
Cc1cc(F)ccc1S(=O)(=O)C1CN(c2cc[nH+]c(C#N)n2)CC1(C)C (protonated)
Cc1cc(F)ccc1S(=O)(=O)[C@H]1CN(c2cc[nH+]c(C#N)n2)CC1(C)C (chirality)
Cc1cc(F)ccc1S(=O)(=O)[C@H]1CN(c2cc[nH+]c(C#N)n2)CC1(C)C (3D coordinates assigned)
Cc1cc(F)ccc1S(=O)(=O)[C@H]1CN(c2cc[nH+]c(C#N)n2)CC1(C)C (nonaromatic ring conformer: 54.43246872676717 kcal/mol)

>  <smiles>  (13) 
Cc1cc(F)ccc1S(=O)(=O)C1CN(c2ccnc(C#N)n2)CC1(C)C

>  <score_type>  (13) 
oracle

>  <origin>  (13) 
adg

>  <m_score__min__energy>  (13) 
-7.4100000000000001

>  <m_primary>  (13) 
energy

$$$$
13:0
     RDKit          3D

 27 27  0  0  0  0  0  0  0  0999 V2000
   63.5770   32.7620   47.6350 C   0  0  0  0  0  0  0  0  0  0  0  0
   62.0660   32.4890   48.5310 S   0  0  0  0  0  0  0  0  0  0  0  0
   62.0420   33.3520   49.7610 O   0  0  0  0  0  0  0  0  0  0  0  0
   61.9900   31.0460   48.9510 O   0  0  0  0  0  0  0  0  0  0  0  0
   60.6980   32.8940   47.4990 C   0  0  0  0  0  0  0  0  0  0  0  0
   60.1460   34.1790   47.5200 C   0  0  0  0  0  0  0  0  0  0  0  0
   59.0480   34.4830   46.7150 C   0  0  0  0  0  0  0  0  0  0  0  0
   58.4830   33.5080   45.8850 C   0  0  0  0  0  0  0  0  0  0  0  0
   57.0580   33.9490   44.9500 Cl  0  0  0  0  0  0  0  0  0  0  0  0
   59.0280   32.2030   45.8600 C   0  0  0  0  0  0  0  0  0  0  0  0
   58.4660   31.1340   44.9960 C   0  0  0  0  0  0  0  0  0  0  0  0
   59.2430   30.3290   44.4180 O   0  0  0  0  0  0  0  0  0  0  0  0
   57.0520   30.9100   44.8950 N   0  0  0  0  0  0  0  0  0  0  0  0
   56.4570   29.8850   44.3510 C   0  0  0  0  0  0  0  0  0  0  0  0
   55.2310   29.4200   44.9140 N   0  0  0  0  0  0  0  0  0  0  0  0
   57.0300   29.1790   43.2430 N   0  0  0  0  0  0  0  0  0  0  0  0
   60.1390   31.9130   46.6730 C   0  0  0  0  0  0  0  0  0  0  0  0
   64.4030   32.9112   48.3459 H   0  0  0  0  0  0  0  0  0  0  0  0
   63.7912   31.8880   47.0023 H   0  0  0  0  0  0  0  0  0  0  0  0
   63.4718   33.6557   47.0023 H   0  0  0  0  0  0  0  0  0  0  0  0
   60.5786   34.9515   48.1727 H   0  0  0  0  0  0  0  0  0  0  0  0
   58.6228   35.4973   46.7327 H   0  0  0  0  0  0  0  0  0  0  0  0
   54.7450   28.5870   44.5110 H   0  0  0  0  0  0  0  0  0  0  0  0
   54.8040   29.9060   45.7320 H   0  0  0  0  0  0  0  0  0  0  0  0
   56.4850   28.4230   42.7720 H   0  0  0  0  0  0  0  0  0  0  0  0
   58.0230   29.3090   42.9550 H   0  0  0  0  0  0  0  0  0  0  0  0
   60.5734   30.9025   46.6590 H   0  0  0  0  0  0  0  0  0  0  0  0
  1  2  1  0
  2  3  2  0
  2  4  2  0
  2  5  1  0
  5  6  2  0
  6  7  1  0
  7  8  2  0
  8  9  1  0
  8 10  1  0
 10 11  1  0
 11 12  2  0
 11 13  1  0
 13 14  2  3
 14 15  1  0
 14 16  1  0
 10 17  2  0
 17  5  1  0
  1 18  1  0
  1 19  1  0
  1 20  1  0
  6 21  1  0
  7 22  1  0
 15 23  1  0
 15 24  1  0
 16 25  1  0
 16 26  1  0
 17 27  1  0
M  END
>  <UniqueID>  (14) 
13

>  <SMILES>  (14) 
CS(=O)(=O)c1ccc(Cl)c(C(=O)N=C(N)N)c1

>  <Energy>  (14) 
30.791229959812068

>  <Genealogy>  (14) 
CS(=O)(=O)c1ccc(Cl)c(C(=O)N=C(N)N)c1 (3D coordinates assigned)
CS(=O)(=O)c1ccc(Cl)c(C(=O)N=C(N)N)c1 (optimized conformer: 30.791229959812068 kcal/mol)

>  <smiles>  (14) 
CS(=O)(=O)c1ccc(Cl)c(C(=O)N=C(N)N)c1

>  <score_type>  (14) 
oracle

>  <origin>  (14) 
adg

>  <m_score__min__energy>  (14) 
-8.2400000000000002

>  <m_primary>  (14) 
energy

$$$$
14:0
     RDKit          3D

 33 35  0  0  0  0  0  0  0  0999 V2000
   58.1100   32.6960   43.0680 C   0  0  0  0  0  0  0  0  0  0  0  0
   57.7870   32.4630   44.4800 N   0  0  0  0  0  0  0  0  0  0  0  0
   57.2480   33.5430   45.2660 C   0  0  0  0  0  0  0  0  0  0  0  0
   56.6660   34.5100   44.7040 O   0  0  0  0  0  0  0  0  0  0  0  0
   57.3550   33.5430   46.7560 C   0  0  0  0  0  0  0  0  0  0  0  0
   58.7600   33.4660   47.1360 N   0  0  0  0  0  0  0  0  0  0  0  0
   59.5560   32.4710   46.8600 C   0  0  0  0  0  0  0  0  0  0  0  0
   61.0090   32.6290   47.1360 C   0  0  0  0  0  0  0  0  0  0  0  0
   61.7400   33.6860   46.5610 C   0  0  0  0  0  0  0  0  0  0  0  0
   63.1080   33.8230   46.8180 C   0  0  0  0  0  0  0  0  0  0  0  0
   63.7620   32.9040   47.6410 C   0  0  0  0  0  0  0  0  0  0  0  0
   63.0510   31.8440   48.2070 C   0  0  0  0  0  0  0  0  0  0  0  0
   61.6830   31.7030   47.9540 C   0  0  0  0  0  0  0  0  0  0  0  0
   59.0360   31.2140   46.2470 C   0  0  0  0  0  0  0  0  0  0  0  0
   59.3990   29.9810   46.8210 C   0  0  0  0  0  0  0  0  0  0  0  0
   58.9220   28.7800   46.2930 C   0  0  0  0  0  0  0  0  0  0  0  0
   59.4250   27.1200   47.0920 Br  0  0  0  0  0  0  0  0  0  0  0  0
   58.0810   28.7920   45.1820 C   0  0  0  0  0  0  0  0  0  0  0  0
   57.7160   30.0040   44.5940 C   0  0  0  0  0  0  0  0  0  0  0  0
   58.1860   31.2260   45.1100 C   0  0  0  0  0  0  0  0  0  0  0  0
   59.0002   33.3382   42.9966 H   0  0  0  0  0  0  0  0  0  0  0  0
   58.3114   31.7339   42.5743 H   0  0  0  0  0  0  0  0  0  0  0  0
   57.2605   33.1907   42.5743 H   0  0  0  0  0  0  0  0  0  0  0  0
   56.9159   34.4687   47.1563 H   0  0  0  0  0  0  0  0  0  0  0  0
   56.8137   32.6772   47.1652 H   0  0  0  0  0  0  0  0  0  0  0  0
   61.2320   34.4087   45.9055 H   0  0  0  0  0  0  0  0  0  0  0  0
   63.6698   34.6564   46.3709 H   0  0  0  0  0  0  0  0  0  0  0  0
   64.8375   33.0151   47.8435 H   0  0  0  0  0  0  0  0  0  0  0  0
   63.5677   31.1188   48.8528 H   0  0  0  0  0  0  0  0  0  0  0  0
   61.1296   30.8622   48.3975 H   0  0  0  0  0  0  0  0  0  0  0  0
   60.0661   29.9637   47.6955 H   0  0  0  0  0  0  0  0  0  0  0  0
   57.7043   27.8451   44.7679 H   0  0  0  0  0  0  0  0  0  0  0  0
   57.0528   30.0041   43.7164 H   0  0  0  0  0  0  0  0  0  0  0  0
  1  2  1  0
  2  3  1  0
  3  4  2  0
  3  5  1  0
  5  6  1  0
  6  7  2  0
  7  8  1  0
  8  9  2  0
  9 10  1  0
 10 11  2  0
 11 12  1  0
 12 13  2  0
  7 14  1  0
 14 15  2  0
 15 16  1  0
 16 17  1  0
 16 18  2  0
 18 19  1  0
 19 20  2  0
 20  2  1  0
 13  8  1  0
 20 14  1  0
  1 21  1  0
  1 22  1  0
  1 23  1  0
  5 24  1  0
  5 25  1  0
  9 26  1  0
 10 27  1  0
 11 28  1  0
 12 29  1  0
 13 30  1  0
 15 31  1  0
 18 32  1  0
 19 33  1  0
M  END
>  <UniqueID>  (15) 
14

>  <SMILES>  (15) 
CN1C(=O)CN=C(c2ccccc2)c2cc(Br)ccc21

>  <Energy>  (15) 
50.00876461669163

>  <Genealogy>  (15) 
CN1C(=O)CN=C(c2ccccc2)c2cc(Br)ccc21 (3D coordinates assigned)
CN1C(=O)CN=C(c2ccccc2)c2cc(Br)ccc21 (nonaromatic ring conformer: 50.00876461669163 kcal/mol)

>  <smiles>  (15) 
CN1C(=O)CN=C(c2ccccc2)c2cc(Br)ccc21

>  <score_type>  (15) 
oracle

>  <origin>  (15) 
adg

>  <m_score__min__energy>  (15) 
-5.3899999999999997

>  <m_primary>  (15) 
energy

$$$$
15:0
     RDKit          3D

 39 41  0  0  0  0  0  0  0  0999 V2000
   65.4640   32.2410   50.1960 C   0  0  0  0  0  0  0  0  0  0  0  0
   65.0770   32.9140   49.0020 O   0  0  0  0  0  0  0  0  0  0  0  0
   63.7850   32.8790   48.4570 C   0  0  0  0  0  0  0  0  0  0  0  0
   63.5720   33.4820   47.2120 C   0  0  0  0  0  0  0  0  0  0  0  0
   62.3030   33.4740   46.6270 C   0  0  0  0  0  0  0  0  0  0  0  0
   61.2270   32.8570   47.2800 C   0  0  0  0  0  0  0  0  0  0  0  0
   59.9230   32.8390   46.6740 N   0  0  0  0  0  0  0  0  0  0  0  0
   59.1910   31.7570   46.3040 C   0  0  0  0  0  0  0  0  0  0  0  0
   59.5420   30.3480   46.5870 C   0  0  0  0  0  0  0  0  0  0  0  0
   60.0710   29.5440   45.5640 C   0  0  0  0  0  0  0  0  0  0  0  0
   60.3990   28.2080   45.8140 C   0  0  0  0  0  0  0  0  0  0  0  0
   60.1890   27.6600   47.0810 C   0  0  0  0  0  0  0  0  0  0  0  0
   59.6440   28.4460   48.1000 C   0  0  0  0  0  0  0  0  0  0  0  0
   59.3140   29.7820   47.8550 C   0  0  0  0  0  0  0  0  0  0  0  0
   58.0570   32.0960   45.6490 N   0  0  0  0  0  0  0  0  0  0  0  0
   58.0760   33.4440   45.6200 C   0  0  0  0  0  0  0  0  0  0  0  0
   57.0220   34.2710   44.9600 C   0  0  0  0  0  0  0  0  0  0  0  0
   59.2270   33.9060   46.2270 C   0  0  0  0  0  0  0  0  0  0  0  0
   59.6450   35.3400   46.3720 C   0  0  0  0  0  0  0  0  0  0  0  0
   61.4350   32.2520   48.5280 C   0  0  0  0  0  0  0  0  0  0  0  0
   62.7030   32.2610   49.1150 C   0  0  0  0  0  0  0  0  0  0  0  0
   65.1302   32.8215   51.0687 H   0  0  0  0  0  0  0  0  0  0  0  0
   65.0017   31.2431   50.2207 H   0  0  0  0  0  0  0  0  0  0  0  0
   66.5589   32.1386   50.2207 H   0  0  0  0  0  0  0  0  0  0  0  0
   64.4104   33.9662   46.6898 H   0  0  0  0  0  0  0  0  0  0  0  0
   62.1477   33.9541   45.6496 H   0  0  0  0  0  0  0  0  0  0  0  0
   60.2280   29.9676   44.5610 H   0  0  0  0  0  0  0  0  0  0  0  0
   60.8233   27.5874   45.0110 H   0  0  0  0  0  0  0  0  0  0  0  0
   60.4524   26.6101   47.2770 H   0  0  0  0  0  0  0  0  0  0  0  0
   59.4744   28.0125   49.0966 H   0  0  0  0  0  0  0  0  0  0  0  0
   58.8743   30.3935   48.6567 H   0  0  0  0  0  0  0  0  0  0  0  0
   56.4027   34.7570   45.7283 H   0  0  0  0  0  0  0  0  0  0  0  0
   57.4979   35.0392   44.3328 H   0  0  0  0  0  0  0  0  0  0  0  0
   56.3891   33.6260   44.3328 H   0  0  0  0  0  0  0  0  0  0  0  0
   59.7191   35.5942   47.4397 H   0  0  0  0  0  0  0  0  0  0  0  0
   60.6234   35.4871   45.8913 H   0  0  0  0  0  0  0  0  0  0  0  0
   58.8989   35.9898   45.8913 H   0  0  0  0  0  0  0  0  0  0  0  0
   60.5952   31.7676   49.0477 H   0  0  0  0  0  0  0  0  0  0  0  0
   62.8571   31.7840   50.0942 H   0  0  0  0  0  0  0  0  0  0  0  0
  1  2  1  0
  2  3  1  0
  3  4  2  0
  4  5  1  0
  5  6  2  0
  6  7  1  0
  7  8  1  0
  8  9  1  0
  9 10  2  0
 10 11  1  0
 11 12  2  0
 12 13  1  0
 13 14  2  0
  8 15  2  0
 15 16  1  0
 16 17  1  0
 16 18  2  0
 18 19  1  0
  6 20  1  0
 20 21  2  0
 21  3  1  0
 18  7  1  0
 14  9  1  0
  1 22  1  0
  1 23  1  0
  1 24  1  0
  4 25  1  0
  5 26  1  0
 10 27  1  0
 11 28  1  0
 12 29  1  0
 13 30  1  0
 14 31  1  0
 17 32  1  0
 17 33  1  0
 17 34  1  0
 19 35  1  0
 19 36  1  0
 19 37  1  0
 20 38  1  0
 21 39  1  0
M  END
>  <UniqueID>  (16) 
15

>  <SMILES>  (16) 
COc1ccc(-n2c(-c3ccccc3)nc(C)c2C)cc1

>  <Energy>  (16) 
78.11163953725524

>  <Genealogy>  (16) 
COc1ccc(-n2c(-c3ccccc3)nc(C)c2C)cc1 (3D coordinates assigned)
COc1ccc(-n2c(-c3ccccc3)nc(C)c2C)cc1 (optimized conformer: 78.11163953725524 kcal/mol)

>  <smiles>  (16) 
COc1ccc(-n2c(-c3ccccc3)nc(C)c2C)cc1

>  <score_type>  (16) 
oracle

>  <origin>  (16) 
adg

>  <m_score__min__energy>  (16) 
-6.6399999999999997

>  <m_primary>  (16) 
energy

$$$$
16:0
     RDKit          3D

 44 47  0  0  0  0  0  0  0  0999 V2000
   61.6000   33.7760   47.5970 C   0  0  0  0  0  0  0  0  0  0  0  0
   60.5960   34.2120   48.6600 C   0  0  0  0  0  0  0  0  0  0  0  0
   59.2710   34.2200   48.1310 O   0  0  0  0  0  0  0  0  0  0  0  0
   58.8960   33.7650   46.8550 C   0  0  0  0  0  0  0  0  0  0  0  0
   58.9090   34.5920   45.7170 C   0  0  0  0  0  0  0  0  0  0  0  0
   58.5120   34.0870   44.4780 C   0  0  0  0  0  0  0  0  0  0  0  0
   58.1100   32.7550   44.3540 C   0  0  0  0  0  0  0  0  0  0  0  0
   57.7440   32.2880   43.1330 F   0  0  0  0  0  0  0  0  0  0  0  0
   58.1140   31.9080   45.4770 C   0  0  0  0  0  0  0  0  0  0  0  0
   57.6800   30.5000   45.3460 C   0  0  0  0  0  0  0  0  0  0  0  0
   56.4480   30.1380   44.9210 N   0  0  0  0  0  0  0  0  0  0  0  0
   56.4040   28.8120   44.9110 N   0  0  0  0  0  0  0  0  0  0  0  0
   57.6140   28.3920   45.3220 C   0  0  0  0  0  0  0  0  0  0  0  0
   58.4370   29.4120   45.5950 N   0  0  0  0  0  0  0  0  0  0  0  0
   59.8170   29.2690   46.0590 C   0  0  0  0  0  0  0  0  0  0  0  0
   60.3560   27.8770   45.6830 C   0  0  0  0  0  0  0  0  0  0  0  0
   59.3490   26.7680   46.0470 C   0  0  0  0  0  0  0  0  0  0  0  0
   58.0330   27.0230   45.4380 N   0  0  0  0  0  0  0  0  0  0  0  0
   57.1490   25.9340   45.1120 C   0  0  0  0  0  0  0  0  0  0  0  0
   56.0230   25.6660   45.9110 C   0  0  0  0  0  0  0  0  0  0  0  0
   55.1720   24.6010   45.5980 C   0  0  0  0  0  0  0  0  0  0  0  0
   54.0840   24.3560   46.3690 F   0  0  0  0  0  0  0  0  0  0  0  0
   55.4390   23.7920   44.4900 C   0  0  0  0  0  0  0  0  0  0  0  0
   56.5620   24.0440   43.6960 C   0  0  0  0  0  0  0  0  0  0  0  0
   56.8270   23.2510   42.6280 F   0  0  0  0  0  0  0  0  0  0  0  0
   57.4150   25.1080   44.0060 C   0  0  0  0  0  0  0  0  0  0  0  0
   58.4970   32.4290   46.7240 C   0  0  0  0  0  0  0  0  0  0  0  0
   62.5040   33.3834   48.0855 H   0  0  0  0  0  0  0  0  0  0  0  0
   61.1522   32.9913   46.9696 H   0  0  0  0  0  0  0  0  0  0  0  0
   61.8677   34.6389   46.9696 H   0  0  0  0  0  0  0  0  0  0  0  0
   60.6418   33.5128   49.5079 H   0  0  0  0  0  0  0  0  0  0  0  0
   60.8507   35.2301   48.9897 H   0  0  0  0  0  0  0  0  0  0  0  0
   59.2330   35.6396   45.8040 H   0  0  0  0  0  0  0  0  0  0  0  0
   58.5157   34.7417   43.5940 H   0  0  0  0  0  0  0  0  0  0  0  0
   60.4421   30.0415   45.5873 H   0  0  0  0  0  0  0  0  0  0  0  0
   59.8445   29.3841   47.1526 H   0  0  0  0  0  0  0  0  0  0  0  0
   60.5457   27.8470   44.5999 H   0  0  0  0  0  0  0  0  0  0  0  0
   61.2843   27.7009   46.2463 H   0  0  0  0  0  0  0  0  0  0  0  0
   59.7315   25.8027   45.6838 H   0  0  0  0  0  0  0  0  0  0  0  0
   59.2295   26.7512   47.1404 H   0  0  0  0  0  0  0  0  0  0  0  0
   55.8105   26.2972   46.7865 H   0  0  0  0  0  0  0  0  0  0  0  0
   54.7662   22.9576   44.2428 H   0  0  0  0  0  0  0  0  0  0  0  0
   58.2994   25.2997   43.3806 H   0  0  0  0  0  0  0  0  0  0  0  0
   58.4833   31.7781   47.6106 H   0  0  0  0  0  0  0  0  0  0  0  0
  1  2  1  0
  2  3  1  0
  3  4  1  0
  4  5  2  0
  5  6  1  0
  6  7  2  0
  7  8  1  0
  7  9  1  0
  9 10  1  0
 10 11  2  0
 11 12  1  0
 12 13  2  0
 13 14  1  0
 14 15  1  0
 15 16  1  0
 16 17  1  0
 17 18  1  0
 18 19  1  0
 19 20  2  0
 20 21  1  0
 21 22  1  0
 21 23  2  0
 23 24  1  0
 24 25  1  0
 24 26  2  0
  9 27  2  0
 27  4  1  0
 14 10  1  0
 26 19  1  0
 18 13  1  0
  1 28  1  0
  1 29  1  0
  1 30  1  0
  2 31  1  0
  2 32  1  0
  5 33  1  0
  6 34  1  0
 15 35  1  0
 15 36  1  0
 16 37  1  0
 16 38  1  0
 17 39  1  0
 17 40  1  0
 20 41  1  0
 23 42  1  0
 26 43  1  0
 27 44  1  0
M  END
>  <UniqueID>  (17) 
16

>  <SMILES>  (17) 
CCOc1ccc(F)c(-c2nnc3n2CCCN3c2cc(F)cc(F)c2)c1

>  <Energy>  (17) 
91.27047241796656

>  <Genealogy>  (17) 
CCOc1ccc(F)c(-c2nnc3n2CCCN3c2cc(F)cc(F)c2)c1 (3D coordinates assigned)
CCOc1ccc(F)c(-c2nnc3n2CCCN3c2cc(F)cc(F)c2)c1 (nonaromatic ring conformer: 91.27047241796656 kcal/mol)

>  <smiles>  (17) 
CCOc1ccc(F)c(-c2nnc3n2CCCN3c2cc(F)cc(F)c2)c1

>  <score_type>  (17) 
oracle

>  <origin>  (17) 
adg

>  <m_score__min__energy>  (17) 
-7.6900000000000004

>  <m_primary>  (17) 
energy

$$$$
17:0
     RDKit          3D

 29 29  0  0  0  0  0  0  0  0999 V2000
   57.4420   31.9600   41.8810 C   0  0  0  0  0  0  0  0  0  0  0  0
   56.8510   30.9070   42.6340 O   0  0  0  0  0  0  0  0  0  0  0  0
   56.5540   31.0250   43.9950 C   0  0  0  0  0  0  0  0  0  0  0  0
   55.5270   30.4700   44.4720 O   0  0  0  0  0  0  0  0  0  0  0  0
   57.4370   31.8010   44.8790 C   0  0  0  0  0  0  0  0  0  0  0  0
   57.7900   33.4340   44.6870 S   0  0  0  0  0  0  0  0  0  0  0  0
   58.8120   33.5740   46.0130 C   0  0  0  0  0  0  0  0  0  0  0  0
   58.8880   32.3350   46.6430 C   0  0  0  0  0  0  0  0  0  0  0  0
   59.6740   32.1340   47.9040 C   0  0  0  0  0  0  0  0  0  0  0  0
   58.1410   31.3300   45.9860 C   0  0  0  0  0  0  0  0  0  0  0  0
   58.0390   29.9740   46.4370 N   0  0  0  0  0  0  0  0  0  0  0  0
   58.6560   28.8550   45.7920 C   0  0  0  0  0  0  0  0  0  0  0  0
   59.9120   28.7800   45.7050 O   0  0  0  0  0  0  0  0  0  0  0  0
   57.7970   27.7760   45.1990 C   0  0  2  0  0  0  0  0  0  0  0  0
   58.1800   27.5510   43.7340 C   0  0  0  0  0  0  0  0  0  0  0  0
   56.3840   28.1460   45.3000 N   0  0  0  0  0  0  0  0  0  0  0  0
   57.8629   32.7099   42.5670 H   0  0  0  0  0  0  0  0  0  0  0  0
   58.2432   31.5525   41.2470 H   0  0  0  0  0  0  0  0  0  0  0  0
   56.6768   32.4316   41.2470 H   0  0  0  0  0  0  0  0  0  0  0  0
   59.3329   34.4896   46.3297 H   0  0  0  0  0  0  0  0  0  0  0  0
   59.0212   32.3009   48.7735 H   0  0  0  0  0  0  0  0  0  0  0  0
   60.0662   31.1067   47.9318 H   0  0  0  0  0  0  0  0  0  0  0  0
   60.5112   32.8469   47.9318 H   0  0  0  0  0  0  0  0  0  0  0  0
   57.9586   26.8422   45.7574 H   0  0  0  0  0  0  0  0  0  0  0  0
   59.1275   26.9944   43.6840 H   0  0  0  0  0  0  0  0  0  0  0  0
   57.3889   26.9741   43.2326 H   0  0  0  0  0  0  0  0  0  0  0  0
   58.2988   28.5229   43.2326 H   0  0  0  0  0  0  0  0  0  0  0  0
   56.3150   29.0300   45.8560 H   0  0  0  0  0  0  0  0  0  0  0  0
   56.0380   28.3830   44.3410 H   0  0  0  0  0  0  0  0  0  0  0  0
  1  2  1  0
  2  3  1  0
  3  4  2  0
  3  5  1  0
  5  6  1  0
  6  7  1  0
  7  8  2  0
  8  9  1  0
  8 10  1  0
 10 11  1  0
 11 12  1  0
 12 13  2  0
 12 14  1  0
 14 15  1  0
 14 16  1  0
 10  5  2  0
  1 17  1  0
  1 18  1  0
  1 19  1  0
  7 20  1  0
  9 21  1  0
  9 22  1  0
  9 23  1  0
 14 24  1  1
 15 25  1  0
 15 26  1  0
 15 27  1  0
 16 28  1  0
 16 29  1  0
M  CHG  1  11  -1
M  END
>  <UniqueID>  (18) 
17

>  <SMILES>  (18) 
COC(=O)c1scc(C)c1[N-]C(=O)[C@H](C)N

>  <Energy>  (18) 
50.47503368427326

>  <Genealogy>  (18) 
COC(=O)c1scc(C)c1[N-]C(=O)C(C)N (protonated)
COC(=O)c1scc(C)c1[N-]C(=O)[C@H](C)N (chirality)
COC(=O)c1scc(C)c1[N-]C(=O)[C@H](C)N (3D coordinates assigned)
COC(=O)c1scc(C)c1[N-]C(=O)[C@H](C)N (optimized conformer: 50.47503368427326 kcal/mol)

>  <smiles>  (18) 
COC(=O)c1scc(C)c1NC(=O)C(C)N

>  <score_type>  (18) 
oracle

>  <origin>  (18) 
adg

>  <m_score__min__energy>  (18) 
-7.9299999999999997

>  <m_primary>  (18) 
energy

$$$$
18:0
     RDKit          3D

 59 60  0  0  0  0  0  0  0  0999 V2000
   58.9040   29.7130   49.5000 C   0  0  0  0  0  0  0  0  0  0  0  0
   60.2750   29.9550   48.8550 C   0  0  0  0  0  0  0  0  0  0  0  0
   60.7130   31.3730   48.9630 N   0  0  1  0  0  0  0  0  0  0  0  0
   61.2400   31.6620   50.3310 C   0  0  0  0  0  0  0  0  0  0  0  0
   60.3670   32.6730   51.0940 C   0  0  0  0  0  0  0  0  0  0  0  0
   59.1500   32.8980   50.4360 O   0  0  0  0  0  0  0  0  0  0  0  0
   61.7530   31.6580   47.9360 C   0  0  0  0  0  0  0  0  0  0  0  0
   61.7030   33.1180   47.4470 C   0  0  0  0  0  0  0  0  0  0  0  0
   60.4800   33.8070   47.9870 C   0  0  0  0  0  0  0  0  0  0  0  0
   60.6100   34.9070   48.5860 O   0  0  0  0  0  0  0  0  0  0  0  0
   59.1610   33.3200   47.7070 N   0  0  0  0  0  0  0  0  0  0  0  0
   58.7020   32.8860   46.4210 C   0  0  0  0  0  0  0  0  0  0  0  0
   58.9530   33.6770   45.3010 C   0  0  0  0  0  0  0  0  0  0  0  0
   58.5210   33.2660   44.0390 C   0  0  0  0  0  0  0  0  0  0  0  0
   57.8130   32.0590   43.8750 C   0  0  0  0  0  0  0  0  0  0  0  0
   57.3820   31.6290   42.5150 C   0  0  0  0  0  0  0  0  0  0  0  0
   57.8740   32.3220   41.2790 C   0  0  0  0  0  0  0  0  0  0  0  0
   56.5600   30.6820   42.3800 O   0  0  0  0  0  0  0  0  0  0  0  0
   57.5260   31.2720   45.0170 C   0  0  0  0  0  0  0  0  0  0  0  0
   56.8250   30.0620   44.8590 O   0  0  0  0  0  0  0  0  0  0  0  0
   57.3570   28.8490   44.3240 C   0  0  0  0  0  0  0  0  0  0  0  0
   58.0540   28.0350   45.3930 C   0  0  0  0  0  0  0  0  0  0  0  0
   57.3100   27.0810   46.1120 C   0  0  0  0  0  0  0  0  0  0  0  0
   57.9120   26.3130   47.1100 C   0  0  0  0  0  0  0  0  0  0  0  0
   59.2650   26.4800   47.3980 C   0  0  0  0  0  0  0  0  0  0  0  0
   60.0250   27.4070   46.6830 C   0  0  0  0  0  0  0  0  0  0  0  0
   59.4380   28.1830   45.6680 C   0  0  0  0  0  0  0  0  0  0  0  0
   60.2920   29.1880   44.9390 C   0  0  0  0  0  0  0  0  0  0  0  0
   57.9590   31.7080   46.2830 C   0  0  0  0  0  0  0  0  0  0  0  0
   59.0057   29.7310   50.5951 H   0  0  0  0  0  0  0  0  0  0  0  0
   58.2056   30.5017   49.1836 H   0  0  0  0  0  0  0  0  0  0  0  0
   58.5178   28.7328   49.1836 H   0  0  0  0  0  0  0  0  0  0  0  0
   61.0181   29.3171   49.3559 H   0  0  0  0  0  0  0  0  0  0  0  0
   60.1889   29.7122   47.7856 H   0  0  0  0  0  0  0  0  0  0  0  0
   59.8840   31.9870   48.7760 H   0  0  0  0  0  0  0  0  0  0  0  0
   61.2739   30.7226   50.9023 H   0  0  0  0  0  0  0  0  0  0  0  0
   62.2420   32.1017   50.2185 H   0  0  0  0  0  0  0  0  0  0  0  0
   60.1620   32.2804   52.1009 H   0  0  0  0  0  0  0  0  0  0  0  0
   60.9115   33.6272   51.1500 H   0  0  0  0  0  0  0  0  0  0  0  0
   59.2960   33.6670   49.8260 H   0  0  0  0  0  0  0  0  0  0  0  0
   62.7441   31.4642   48.3721 H   0  0  0  0  0  0  0  0  0  0  0  0
   61.5616   31.0055   47.0714 H   0  0  0  0  0  0  0  0  0  0  0  0
   62.6018   33.6483   47.7948 H   0  0  0  0  0  0  0  0  0  0  0  0
   61.6627   33.1263   46.3478 H   0  0  0  0  0  0  0  0  0  0  0  0
   59.4935   34.6286   45.4122 H   0  0  0  0  0  0  0  0  0  0  0  0
   58.7361   33.8927   43.1609 H   0  0  0  0  0  0  0  0  0  0  0  0
   58.4890   33.1882   41.5645 H   0  0  0  0  0  0  0  0  0  0  0  0
   58.4793   31.6231   40.6831 H   0  0  0  0  0  0  0  0  0  0  0  0
   57.0146   32.6629   40.6831 H   0  0  0  0  0  0  0  0  0  0  0  0
   56.5350   28.2539   43.8995 H   0  0  0  0  0  0  0  0  0  0  0  0
   58.0932   29.1055   43.5480 H   0  0  0  0  0  0  0  0  0  0  0  0
   56.2430   26.9391   45.8851 H   0  0  0  0  0  0  0  0  0  0  0  0
   57.3179   25.5754   47.6695 H   0  0  0  0  0  0  0  0  0  0  0  0
   59.7353   25.8798   48.1908 H   0  0  0  0  0  0  0  0  0  0  0  0
   61.0929   27.5316   46.9157 H   0  0  0  0  0  0  0  0  0  0  0  0
   60.8247   29.8149   45.6693 H   0  0  0  0  0  0  0  0  0  0  0  0
   61.0218   28.6598   44.3078 H   0  0  0  0  0  0  0  0  0  0  0  0
   59.6529   29.8230   44.3078 H   0  0  0  0  0  0  0  0  0  0  0  0
   57.7103   31.1153   47.1757 H   0  0  0  0  0  0  0  0  0  0  0  0
  1  2  1  0
  2  3  1  0
  3  4  1  0
  4  5  1  0
  5  6  1  0
  3  7  1  0
  7  8  1  0
  8  9  1  0
  9 10  2  0
  9 11  1  0
 11 12  1  0
 12 13  2  0
 13 14  1  0
 14 15  2  0
 15 16  1  0
 16 17  1  0
 16 18  2  0
 15 19  1  0
 19 20  1  0
 20 21  1  0
 21 22  1  0
 22 23  2  0
 23 24  1  0
 24 25  2  0
 25 26  1  0
 26 27  2  0
 27 28  1  0
 19 29  2  0
 29 12  1  0
 27 22  1  0
  1 30  1  0
  1 31  1  0
  1 32  1  0
  2 33  1  0
  2 34  1  0
  3 35  1  6
  4 36  1  0
  4 37  1  0
  5 38  1  0
  5 39  1  0
  6 40  1  0
  7 41  1  0
  7 42  1  0
  8 43  1  0
  8 44  1  0
 13 45  1  0
 14 46  1  0
 17 47  1  0
 17 48  1  0
 17 49  1  0
 21 50  1  0
 21 51  1  0
 23 52  1  0
 24 53  1  0
 25 54  1  0
 26 55  1  0
 28 56  1  0
 28 57  1  0
 28 58  1  0
 29 59  1  0
M  CHG  2   3   1  11  -1
M  END
>  <UniqueID>  (19) 
18

>  <SMILES>  (19) 
CC[N@@H+](CCO)CCC(=O)[N-]c1ccc(C(C)=O)c(OCc2ccccc2C)c1

>  <Energy>  (19) 
63.40463407329423

>  <Genealogy>  (19) 
CC[NH+](CCO)CCC(=O)[N-]c1ccc(C(C)=O)c(OCc2ccccc2C)c1 (protonated)
CC[N@@H+](CCO)CCC(=O)[N-]c1ccc(C(C)=O)c(OCc2ccccc2C)c1 (chirality)
CC[N@@H+](CCO)CCC(=O)[N-]c1ccc(C(C)=O)c(OCc2ccccc2C)c1 (3D coordinates assigned)
CC[N@@H+](CCO)CCC(=O)[N-]c1ccc(C(C)=O)c(OCc2ccccc2C)c1 (optimized conformer: 63.40463407329423 kcal/mol)

>  <smiles>  (19) 
CCN(CCO)CCC(=O)Nc1ccc(C(C)=O)c(OCc2ccccc2C)c1

>  <score_type>  (19) 
oracle

>  <origin>  (19) 
adg

>  <m_score__min__energy>  (19) 
-8.2300000000000004

>  <m_primary>  (19) 
energy

$$$$
19:0
     RDKit          3D

 52 54  0  0  0  0  0  0  0  0999 V2000
   58.1510   32.3370   48.2640 C   0  0  0  0  0  0  0  0  0  0  0  0
   58.5500   33.2580   47.1450 C   0  0  0  0  0  0  0  0  0  0  0  0
   59.2280   34.4560   47.4290 C   0  0  0  0  0  0  0  0  0  0  0  0
   59.6000   35.3180   46.3950 C   0  0  0  0  0  0  0  0  0  0  0  0
   59.2990   34.9930   45.0720 C   0  0  0  0  0  0  0  0  0  0  0  0
   58.6260   33.8060   44.7770 C   0  0  0  0  0  0  0  0  0  0  0  0
   58.2420   32.9260   45.8100 C   0  0  0  0  0  0  0  0  0  0  0  0
   57.5630   31.7200   45.5550 O   0  0  0  0  0  0  0  0  0  0  0  0
   56.6360   31.4920   44.4940 C   0  0  0  0  0  0  0  0  0  0  0  0
   56.9830   30.1950   43.7430 C   0  0  0  0  0  0  0  0  0  0  0  0
   58.3780   29.7730   43.9630 N   0  0  0  0  0  0  0  0  0  0  0  0
   58.4680   28.3890   44.4670 C   0  0  0  0  0  0  0  0  0  0  0  0
   58.7640   28.3140   45.9830 C   0  0  2  0  0  0  0  0  0  0  0  0
   57.9010   29.1510   46.7150 O   0  0  0  0  0  0  0  0  0  0  0  0
   60.2450   28.5840   46.3250 C   0  0  0  0  0  0  0  0  0  0  0  0
   60.4450   29.9620   46.6400 O   0  0  0  0  0  0  0  0  0  0  0  0
   60.8080   30.4790   47.8990 C   0  0  0  0  0  0  0  0  0  0  0  0
   60.4080   29.8620   49.1010 C   0  0  0  0  0  0  0  0  0  0  0  0
   60.7850   30.3960   50.3350 C   0  0  0  0  0  0  0  0  0  0  0  0
   61.5680   31.5470   50.3960 C   0  0  0  0  0  0  0  0  0  0  0  0
   61.9830   32.1790   49.2160 C   0  0  0  0  0  0  0  0  0  0  0  0
   62.7710   33.3390   49.2740 C   0  0  0  0  0  0  0  0  0  0  0  0
   63.1830   33.9680   48.0970 C   0  0  0  0  0  0  0  0  0  0  0  0
   62.8130   33.4470   46.8560 C   0  0  0  0  0  0  0  0  0  0  0  0
   62.0280   32.2930   46.7810 C   0  0  0  0  0  0  0  0  0  0  0  0
   61.6030   31.6440   47.9570 C   0  0  0  0  0  0  0  0  0  0  0  0
   58.3606   32.8208   49.2294 H   0  0  0  0  0  0  0  0  0  0  0  0
   57.0761   32.1152   48.1907 H   0  0  0  0  0  0  0  0  0  0  0  0
   58.7244   31.4011   48.1907 H   0  0  0  0  0  0  0  0  0  0  0  0
   59.4668   34.7159   48.4708 H   0  0  0  0  0  0  0  0  0  0  0  0
   60.1307   36.2539   46.6239 H   0  0  0  0  0  0  0  0  0  0  0  0
   59.5927   35.6737   44.2594 H   0  0  0  0  0  0  0  0  0  0  0  0
   58.3936   33.5553   43.7315 H   0  0  0  0  0  0  0  0  0  0  0  0
   55.6218   31.4080   44.9115 H   0  0  0  0  0  0  0  0  0  0  0  0
   56.6881   32.3352   43.7895 H   0  0  0  0  0  0  0  0  0  0  0  0
   56.3131   29.3952   44.0916 H   0  0  0  0  0  0  0  0  0  0  0  0
   56.8569   30.3870   42.6672 H   0  0  0  0  0  0  0  0  0  0  0  0
   58.8700   29.8400   43.0430 H   0  0  0  0  0  0  0  0  0  0  0  0
   58.8370   30.4330   44.6320 H   0  0  0  0  0  0  0  0  0  0  0  0
   57.5115   27.8822   44.2715 H   0  0  0  0  0  0  0  0  0  0  0  0
   59.3054   27.9033   43.9447 H   0  0  0  0  0  0  0  0  0  0  0  0
   58.5674   27.2750   46.2862 H   0  0  0  0  0  0  0  0  0  0  0  0
   58.2950   30.0620   46.7280 H   0  0  0  0  0  0  0  0  0  0  0  0
   60.5339   27.9697   47.1906 H   0  0  0  0  0  0  0  0  0  0  0  0
   60.8631   28.3265   45.4522 H   0  0  0  0  0  0  0  0  0  0  0  0
   59.7928   28.9508   49.0670 H   0  0  0  0  0  0  0  0  0  0  0  0
   60.4618   29.9049   51.2647 H   0  0  0  0  0  0  0  0  0  0  0  0
   61.8610   31.9604   51.3723 H   0  0  0  0  0  0  0  0  0  0  0  0
   63.0650   33.7540   50.2494 H   0  0  0  0  0  0  0  0  0  0  0  0
   63.8009   34.8766   48.1481 H   0  0  0  0  0  0  0  0  0  0  0  0
   63.1408   33.9470   45.9327 H   0  0  0  0  0  0  0  0  0  0  0  0
   61.7406   31.8895   45.7989 H   0  0  0  0  0  0  0  0  0  0  0  0
  1  2  1  0
  2  3  2  0
  3  4  1  0
  4  5  2  0
  5  6  1  0
  6  7  2  0
  7  8  1  0
  8  9  1  0
  9 10  1  0
 10 11  1  0
 11 12  1  0
 12 13  1  0
 13 14  1  0
 13 15  1  0
 15 16  1  0
 16 17  1  0
 17 18  2  0
 18 19  1  0
 19 20  2  0
 20 21  1  0
 21 22  2  0
 22 23  1  0
 23 24  2  0
 24 25  1  0
 25 26  2  0
  7  2  1  0
 26 17  1  0
 26 21  1  0
  1 27  1  0
  1 28  1  0
  1 29  1  0
  3 30  1  0
  4 31  1  0
  5 32  1  0
  6 33  1  0
  9 34  1  0
  9 35  1  0
 10 36  1  0
 10 37  1  0
 11 38  1  0
 11 39  1  0
 12 40  1  0
 12 41  1  0
 13 42  1  1
 14 43  1  0
 15 44  1  0
 15 45  1  0
 18 46  1  0
 19 47  1  0
 20 48  1  0
 22 49  1  0
 23 50  1  0
 24 51  1  0
 25 52  1  0
M  CHG  1  11   1
M  END
>  <UniqueID>  (20) 
19

>  <SMILES>  (20) 
Cc1ccccc1OCC[NH2+]C[C@H](O)COc1cccc2ccccc12

>  <Energy>  (20) 
57.549751487485075

>  <Genealogy>  (20) 
Cc1ccccc1OCC[NH2+]CC(O)COc1cccc2ccccc12 (protonated)
Cc1ccccc1OCC[NH2+]C[C@H](O)COc1cccc2ccccc12 (chirality)
Cc1ccccc1OCC[NH2+]C[C@H](O)COc1cccc2ccccc12 (3D coordinates assigned)
Cc1ccccc1OCC[NH2+]C[C@H](O)COc1cccc2ccccc12 (optimized conformer: 57.549751487485075 kcal/mol)

>  <smiles>  (20) 
Cc1ccccc1OCCNCC(O)COc1cccc2ccccc12

>  <score_type>  (20) 
oracle

>  <origin>  (20) 
adg

>  <m_score__min__energy>  (20) 
-5.3799999999999999

>  <m_primary>  (20) 
energy

$$$$
20:0
     RDKit          3D

 64 67  0  0  0  0  0  0  0  0999 V2000
   54.8690   25.2020   45.6150 C   0  0  0  0  0  0  0  0  0  0  0  0
   55.4290   26.4560   45.9780 O   0  0  0  0  0  0  0  0  0  0  0  0
   56.7990   26.6910   46.1620 C   0  0  0  0  0  0  0  0  0  0  0  0
   57.6310   25.5910   46.3650 C   0  0  0  0  0  0  0  0  0  0  0  0
   59.0020   25.7690   46.5430 C   0  0  0  0  0  0  0  0  0  0  0  0
   59.5470   27.0530   46.5630 C   0  0  0  0  0  0  0  0  0  0  0  0
   58.7190   28.1870   46.4340 C   0  0  0  0  0  0  0  0  0  0  0  0
   59.3440   29.5730   46.4070 C   0  0  0  0  0  0  0  0  0  0  0  0
   60.3800   29.8850   47.4360 N   0  0  0  0  0  0  0  0  0  0  0  0
   61.4540   30.7550   46.9710 C   0  0  0  0  0  0  0  0  0  0  0  0
   61.1840   32.1260   47.5790 C   0  0  0  0  0  0  0  0  0  0  0  0
   60.2480   31.9300   48.7070 N   0  0  1  0  0  0  0  0  0  0  0  0
   59.0440   32.7980   48.5970 C   0  0  0  0  0  0  0  0  0  0  0  0
   58.6410   33.0140   47.1550 C   0  0  0  0  0  0  0  0  0  0  0  0
   59.0920   34.1390   46.4420 C   0  0  0  0  0  0  0  0  0  0  0  0
   58.6790   34.3440   45.1240 C   0  0  0  0  0  0  0  0  0  0  0  0
   57.8260   33.4260   44.5000 C   0  0  0  0  0  0  0  0  0  0  0  0
   57.3840   32.2870   45.1950 C   0  0  0  0  0  0  0  0  0  0  0  0
   56.5420   31.3270   44.6090 O   0  0  0  0  0  0  0  0  0  0  0  0
   56.9240   30.4680   43.5370 C   0  0  0  0  0  0  0  0  0  0  0  0
   57.7910   32.0940   46.5200 C   0  0  0  0  0  0  0  0  0  0  0  0
   60.0000   30.4620   48.7400 C   0  0  1  0  0  0  0  0  0  0  0  0
   58.6570   29.9920   49.3500 C   0  0  0  0  0  0  0  0  0  0  0  0
   58.6700   29.9870   51.1450 S   0  0  0  0  0  0  0  0  0  0  0  0
   59.8120   29.1680   51.6790 O   0  0  0  0  0  0  0  0  0  0  0  0
   57.3810   29.3880   51.6410 O   0  0  0  0  0  0  0  0  0  0  0  0
   58.7930   31.6420   51.7370 C   0  0  0  0  0  0  0  0  0  0  0  0
   60.0540   32.1890   52.0100 C   0  0  0  0  0  0  0  0  0  0  0  0
   60.1610   33.4980   52.4870 C   0  0  0  0  0  0  0  0  0  0  0  0
   59.0130   34.2620   52.7010 C   0  0  0  0  0  0  0  0  0  0  0  0
   57.7520   33.7200   52.4350 C   0  0  0  0  0  0  0  0  0  0  0  0
   57.6420   32.4130   51.9540 C   0  0  0  0  0  0  0  0  0  0  0  0
   57.3530   27.9870   46.1520 C   0  0  0  0  0  0  0  0  0  0  0  0
   54.6164   24.6363   46.5240 H   0  0  0  0  0  0  0  0  0  0  0  0
   53.9584   25.3655   45.0200 H   0  0  0  0  0  0  0  0  0  0  0  0
   55.5986   24.6331   45.0200 H   0  0  0  0  0  0  0  0  0  0  0  0
   57.2035   24.5777   46.3848 H   0  0  0  0  0  0  0  0  0  0  0  0
   59.6565   24.8938   46.6681 H   0  0  0  0  0  0  0  0  0  0  0  0
   60.6331   27.1820   46.6805 H   0  0  0  0  0  0  0  0  0  0  0  0
   59.8110   29.7041   45.4197 H   0  0  0  0  0  0  0  0  0  0  0  0
   58.5131   30.2582   46.6309 H   0  0  0  0  0  0  0  0  0  0  0  0
   62.4282   30.3727   47.3099 H   0  0  0  0  0  0  0  0  0  0  0  0
   61.4840   30.8026   45.8724 H   0  0  0  0  0  0  0  0  0  0  0  0
   62.1234   32.5685   47.9419 H   0  0  0  0  0  0  0  0  0  0  0  0
   60.7537   32.8066   46.8295 H   0  0  0  0  0  0  0  0  0  0  0  0
   60.7420   32.1880   49.5950 H   0  0  0  0  0  0  0  0  0  0  0  0
   58.2102   32.3208   49.1327 H   0  0  0  0  0  0  0  0  0  0  0  0
   59.2853   33.7771   49.0364 H   0  0  0  0  0  0  0  0  0  0  0  0
   59.7710   34.8584   46.9231 H   0  0  0  0  0  0  0  0  0  0  0  0
   59.0255   35.2310   44.5734 H   0  0  0  0  0  0  0  0  0  0  0  0
   57.5008   33.5965   43.4631 H   0  0  0  0  0  0  0  0  0  0  0  0
   57.3391   29.5346   43.9451 H   0  0  0  0  0  0  0  0  0  0  0  0
   56.0432   30.2384   42.9194 H   0  0  0  0  0  0  0  0  0  0  0  0
   57.6845   30.9683   42.9194 H   0  0  0  0  0  0  0  0  0  0  0  0
   57.4402   31.2094   47.0717 H   0  0  0  0  0  0  0  0  0  0  0  0
   60.6618   30.0275   49.5037 H   0  0  0  0  0  0  0  0  0  0  0  0
   57.8598   30.6676   49.0065 H   0  0  0  0  0  0  0  0  0  0  0  0
   58.4874   28.9572   49.0179 H   0  0  0  0  0  0  0  0  0  0  0  0
   60.9605   31.5872   51.8486 H   0  0  0  0  0  0  0  0  0  0  0  0
   61.1524   33.9272   52.6943 H   0  0  0  0  0  0  0  0  0  0  0  0
   59.1003   35.2913   53.0792 H   0  0  0  0  0  0  0  0  0  0  0  0
   56.8472   34.3222   52.6043 H   0  0  0  0  0  0  0  0  0  0  0  0
   56.6495   31.9874   51.7449 H   0  0  0  0  0  0  0  0  0  0  0  0
   56.7125   28.8511   45.9217 H   0  0  0  0  0  0  0  0  0  0  0  0
  1  2  1  0
  2  3  1  0
  3  4  2  0
  4  5  1  0
  5  6  2  0
  6  7  1  0
  7  8  1  0
  8  9  1  0
  9 10  1  0
 10 11  1  0
 11 12  1  0
 12 13  1  0
 13 14  1  0
 14 15  2  0
 15 16  1  0
 16 17  2  0
 17 18  1  0
 18 19  1  0
 19 20  1  0
 18 21  2  0
 12 22  1  0
 22 23  1  0
 23 24  1  0
 24 25  2  0
 24 26  2  0
 24 27  1  0
 27 28  2  0
 28 29  1  0
 29 30  2  0
 30 31  1  0
 31 32  2  0
  7 33  2  0
 33  3  1  0
 22  9  1  0
 32 27  1  0
 21 14  1  0
  1 34  1  0
  1 35  1  0
  1 36  1  0
  4 37  1  0
  5 38  1  0
  6 39  1  0
  8 40  1  0
  8 41  1  0
 10 42  1  0
 10 43  1  0
 11 44  1  0
 11 45  1  0
 12 46  1  1
 13 47  1  0
 13 48  1  0
 15 49  1  0
 16 50  1  0
 17 51  1  0
 20 52  1  0
 20 53  1  0
 20 54  1  0
 21 55  1  0
 22 56  1  1
 23 57  1  0
 23 58  1  0
 28 59  1  0
 29 60  1  0
 30 61  1  0
 31 62  1  0
 32 63  1  0
 33 64  1  0
M  CHG  1  12   1
M  END
>  <UniqueID>  (21) 
20

>  <SMILES>  (21) 
COc1cccc(CN2CC[N@@H+](Cc3cccc(OC)c3)[C@H]2CS(=O)(=O)c2ccccc2)c1

>  <Energy>  (21) 
89.57137933514235

>  <Genealogy>  (21) 
COc1cccc(CN2CC[NH+](Cc3cccc(OC)c3)C2CS(=O)(=O)c2ccccc2)c1 (protonated)
COc1cccc(CN2CC[N@@H+](Cc3cccc(OC)c3)[C@H]2CS(=O)(=O)c2ccccc2)c1 (chirality)
COc1cccc(CN2CC[N@@H+](Cc3cccc(OC)c3)[C@H]2CS(=O)(=O)c2ccccc2)c1 (3D coordinates assigned)
COc1cccc(CN2CC[N@@H+](Cc3cccc(OC)c3)[C@H]2CS(=O)(=O)c2ccccc2)c1 (nonaromatic ring conformer: 89.57137933514235 kcal/mol)

>  <smiles>  (21) 
COc1cccc(CN2CCN(Cc3cccc(OC)c3)C2CS(=O)(=O)c2ccccc2)c1

>  <score_type>  (21) 
oracle

>  <origin>  (21) 
adg

>  <m_score__min__energy>  (21) 
-8.6400000000000006

>  <m_primary>  (21) 
energy

$$$$
21:0
     RDKit          3D

 58 61  0  0  0  0  0  0  0  0999 V2000
   55.5280   29.8200   43.7150 C   0  0  0  0  0  0  0  0  0  0  0  0
   56.2370   29.7010   44.9440 O   0  0  0  0  0  0  0  0  0  0  0  0
   57.5560   29.2360   45.0650 C   0  0  0  0  0  0  0  0  0  0  0  0
   57.8800   27.8730   44.9050 C   0  0  0  0  0  0  0  0  0  0  0  0
   59.1980   27.4390   45.0630 C   0  0  0  0  0  0  0  0  0  0  0  0
   60.2030   28.3530   45.3860 C   0  0  0  0  0  0  0  0  0  0  0  0
   59.8950   29.7050   45.5420 C   0  0  0  0  0  0  0  0  0  0  0  0
   58.5760   30.1560   45.3730 C   0  0  0  0  0  0  0  0  0  0  0  0
   58.2790   31.5570   45.5070 N   0  0  0  0  0  0  0  0  0  0  0  0
   58.0690   32.1200   46.8460 C   0  0  0  0  0  0  0  0  0  0  0  0
   57.4460   33.5180   46.7540 C   0  0  0  0  0  0  0  0  0  0  0  0
   58.1960   34.3870   45.8180 N   0  0  0  0  0  0  0  0  0  0  0  0
   59.4470   34.8990   46.4240 C   0  0  0  0  0  0  0  0  0  0  0  0
   60.6310   33.9350   46.1880 C   0  0  0  0  0  0  0  0  0  0  0  0
   61.6850   33.9360   47.2450 N   0  0  0  0  0  0  0  0  0  0  0  0
   61.1010   34.2090   48.5750 C   0  0  0  0  0  0  0  0  0  0  0  0
   62.5820   32.7400   47.2440 C   0  0  1  0  0  0  0  0  0  0  0  0
   64.0340   33.1070   47.6640 C   0  0  0  0  0  0  0  0  0  0  0  0
   64.1930   32.7180   49.1420 C   0  0  0  0  0  0  0  0  0  0  0  0
   63.0910   31.7600   49.3600 C   0  0  0  0  0  0  0  0  0  0  0  0
   62.9520   30.8810   50.4360 C   0  0  0  0  0  0  0  0  0  0  0  0
   61.9030   29.9530   50.4200 C   0  0  0  0  0  0  0  0  0  0  0  0
   61.0260   29.9000   49.3230 C   0  0  0  0  0  0  0  0  0  0  0  0
   61.1870   30.7880   48.2500 C   0  0  0  0  0  0  0  0  0  0  0  0
   62.2090   31.7470   48.3060 C   0  0  0  0  0  0  0  0  0  0  0  0
   58.4190   33.7850   44.4710 C   0  0  0  0  0  0  0  0  0  0  0  0
   57.9060   32.3420   44.3280 C   0  0  0  0  0  0  0  0  0  0  0  0
   54.4626   29.9988   43.9222 H   0  0  0  0  0  0  0  0  0  0  0  0
   55.9355   30.6623   43.1367 H   0  0  0  0  0  0  0  0  0  0  0  0
   55.6382   28.8908   43.1367 H   0  0  0  0  0  0  0  0  0  0  0  0
   57.0912   27.1484   44.6546 H   0  0  0  0  0  0  0  0  0  0  0  0
   59.4449   26.3750   44.9327 H   0  0  0  0  0  0  0  0  0  0  0  0
   61.2388   28.0068   45.5176 H   0  0  0  0  0  0  0  0  0  0  0  0
   60.6895   30.4211   45.7987 H   0  0  0  0  0  0  0  0  0  0  0  0
   57.3953   31.4610   47.4133 H   0  0  0  0  0  0  0  0  0  0  0  0
   59.0419   32.1988   47.3533 H   0  0  0  0  0  0  0  0  0  0  0  0
   56.4084   33.4242   46.4009 H   0  0  0  0  0  0  0  0  0  0  0  0
   57.4802   33.9771   47.7531 H   0  0  0  0  0  0  0  0  0  0  0  0
   59.6868   35.8748   45.9765 H   0  0  0  0  0  0  0  0  0  0  0  0
   59.2903   34.9914   47.5089 H   0  0  0  0  0  0  0  0  0  0  0  0
   60.2269   32.9146   46.1142 H   0  0  0  0  0  0  0  0  0  0  0  0
   61.1255   34.2854   45.2700 H   0  0  0  0  0  0  0  0  0  0  0  0
   61.8016   33.8815   49.3573 H   0  0  0  0  0  0  0  0  0  0  0  0
   60.9138   35.2880   48.6788 H   0  0  0  0  0  0  0  0  0  0  0  0
   60.1531   33.6607   48.6788 H   0  0  0  0  0  0  0  0  0  0  0  0
   62.4930   32.3481   46.2200 H   0  0  0  0  0  0  0  0  0  0  0  0
   64.7562   32.5507   47.0483 H   0  0  0  0  0  0  0  0  0  0  0  0
   64.2214   34.1815   47.5213 H   0  0  0  0  0  0  0  0  0  0  0  0
   65.1691   32.2438   49.3221 H   0  0  0  0  0  0  0  0  0  0  0  0
   64.1539   33.5820   49.8217 H   0  0  0  0  0  0  0  0  0  0  0  0
   63.6544   30.9167   51.2818 H   0  0  0  0  0  0  0  0  0  0  0  0
   61.7654   29.2648   51.2670 H   0  0  0  0  0  0  0  0  0  0  0  0
   60.2118   29.1605   49.3062 H   0  0  0  0  0  0  0  0  0  0  0  0
   60.5210   30.7333   47.3763 H   0  0  0  0  0  0  0  0  0  0  0  0
   57.9040   34.4088   43.7256 H   0  0  0  0  0  0  0  0  0  0  0  0
   59.5079   33.7479   44.3197 H   0  0  0  0  0  0  0  0  0  0  0  0
   56.8104   32.3532   44.2299 H   0  0  0  0  0  0  0  0  0  0  0  0
   58.3567   31.8861   43.4341 H   0  0  0  0  0  0  0  0  0  0  0  0
  1  2  1  0
  2  3  1  0
  3  4  2  0
  4  5  1  0
  5  6  2  0
  6  7  1  0
  7  8  2  0
  8  9  1  0
  9 10  1  0
 10 11  1  0
 11 12  1  0
 12 13  1  0
 13 14  1  0
 14 15  1  0
 15 16  1  0
 15 17  1  0
 17 18  1  0
 18 19  1  0
 19 20  1  0
 20 21  2  0
 21 22  1  0
 22 23  2  0
 23 24  1  0
 24 25  2  0
 12 26  1  0
 26 27  1  0
  8  3  1  0
 27  9  1  0
 25 17  1  0
 25 20  1  0
  1 28  1  0
  1 29  1  0
  1 30  1  0
  4 31  1  0
  5 32  1  0
  6 33  1  0
  7 34  1  0
 10 35  1  0
 10 36  1  0
 11 37  1  0
 11 38  1  0
 13 39  1  0
 13 40  1  0
 14 41  1  0
 14 42  1  0
 16 43  1  0
 16 44  1  0
 16 45  1  0
 17 46  1  6
 18 47  1  0
 18 48  1  0
 19 49  1  0
 19 50  1  0
 21 51  1  0
 22 52  1  0
 23 53  1  0
 24 54  1  0
 26 55  1  0
 26 56  1  0
 27 57  1  0
 27 58  1  0
M  END
>  <UniqueID>  (22) 
21

>  <SMILES>  (22) 
COc1ccccc1N1CCN(CCN(C)[C@H]2CCc3ccccc32)CC1

>  <Energy>  (22) 
91.01095376767898

>  <Genealogy>  (22) 
COc1ccccc1N1CCN(CCN(C)[C@H]2CCc3ccccc32)CC1 (chirality)
COc1ccccc1N1CCN(CCN(C)[C@H]2CCc3ccccc32)CC1 (3D coordinates assigned)
COc1ccccc1N1CCN(CCN(C)[C@H]2CCc3ccccc32)CC1 (nonaromatic ring conformer: 91.01095376767898 kcal/mol)

>  <smiles>  (22) 
COc1ccccc1N1CCN(CCN(C)C2CCc3ccccc32)CC1

>  <score_type>  (22) 
oracle

>  <origin>  (22) 
adg

>  <m_score__min__energy>  (22) 
-8.9000000000000004

>  <m_primary>  (22) 
energy

$$$$
22:0
     RDKit          3D

 36 37  0  0  0  0  0  0  0  0999 V2000
   59.1930   34.7710   45.3290 C   0  0  0  0  0  0  0  0  0  0  0  0
   58.0820   34.0910   44.7510 O   0  0  0  0  0  0  0  0  0  0  0  0
   57.9150   32.7000   44.7590 C   0  0  0  0  0  0  0  0  0  0  0  0
   58.2670   31.9940   45.9140 C   0  0  0  0  0  0  0  0  0  0  0  0
   58.1180   30.6050   45.9740 C   0  0  0  0  0  0  0  0  0  0  0  0
   57.6050   29.8940   44.8740 C   0  0  0  0  0  0  0  0  0  0  0  0
   57.4420   28.4190   44.9150 C   0  0  0  0  0  0  0  0  0  0  0  0
   56.3260   27.9340   45.2490 O   0  0  0  0  0  0  0  0  0  0  0  0
   58.5600   27.4860   44.5100 C   0  0  0  0  0  0  0  0  0  0  0  0
   58.2510   26.0080   44.8050 C   0  0  0  0  0  0  0  0  0  0  0  0
   57.0170   25.5700   44.1330 N   0  0  0  0  0  0  0  0  0  0  0  0
   57.0430   24.1420   43.9380 C   0  0  0  0  0  0  0  0  0  0  0  0
   58.0460   23.3560   44.5300 C   0  0  0  0  0  0  0  0  0  0  0  0
   58.0740   21.9770   44.3090 C   0  0  0  0  0  0  0  0  0  0  0  0
   57.1070   21.3960   43.4880 C   0  0  0  0  0  0  0  0  0  0  0  0
   56.1500   22.1690   42.9090 N   0  0  0  0  0  0  0  0  0  0  0  0
   56.0980   23.5130   43.1100 C   0  0  0  0  0  0  0  0  0  0  0  0
   57.2610   30.6040   43.7100 C   0  0  0  0  0  0  0  0  0  0  0  0
   57.4100   31.9920   43.6520 C   0  0  0  0  0  0  0  0  0  0  0  0
   59.1201   34.7264   46.4257 H   0  0  0  0  0  0  0  0  0  0  0  0
   60.1271   34.2897   45.0037 H   0  0  0  0  0  0  0  0  0  0  0  0
   59.1894   35.8218   45.0037 H   0  0  0  0  0  0  0  0  0  0  0  0
   58.6651   32.5370   46.7839 H   0  0  0  0  0  0  0  0  0  0  0  0
   58.4041   30.0643   46.8882 H   0  0  0  0  0  0  0  0  0  0  0  0
   58.7351   27.5980   43.4298 H   0  0  0  0  0  0  0  0  0  0  0  0
   59.4457   27.7599   45.1020 H   0  0  0  0  0  0  0  0  0  0  0  0
   59.0893   25.3901   44.4510 H   0  0  0  0  0  0  0  0  0  0  0  0
   58.1117   25.8947   45.8902 H   0  0  0  0  0  0  0  0  0  0  0  0
   56.1860   25.8300   44.7140 H   0  0  0  0  0  0  0  0  0  0  0  0
   56.9240   26.0450   43.2050 H   0  0  0  0  0  0  0  0  0  0  0  0
   58.8091   23.8265   45.1674 H   0  0  0  0  0  0  0  0  0  0  0  0
   58.8509   21.3551   44.7777 H   0  0  0  0  0  0  0  0  0  0  0  0
   57.1189   20.3107   43.3089 H   0  0  0  0  0  0  0  0  0  0  0  0
   55.3131   24.1099   42.6225 H   0  0  0  0  0  0  0  0  0  0  0  0
   56.8707   30.0612   42.8364 H   0  0  0  0  0  0  0  0  0  0  0  0
   57.1312   32.5344   42.7365 H   0  0  0  0  0  0  0  0  0  0  0  0
  1  2  1  0
  2  3  1  0
  3  4  2  0
  4  5  1  0
  5  6  2  0
  6  7  1  0
  7  8  2  0
  7  9  1  0
  9 10  1  0
 10 11  1  0
 11 12  1  0
 12 13  2  0
 13 14  1  0
 14 15  2  0
 15 16  1  0
 16 17  2  0
  6 18  1  0
 18 19  2  0
 19  3  1  0
 17 12  1  0
  1 20  1  0
  1 21  1  0
  1 22  1  0
  4 23  1  0
  5 24  1  0
  9 25  1  0
  9 26  1  0
 10 27  1  0
 10 28  1  0
 11 29  1  0
 11 30  1  0
 13 31  1  0
 14 32  1  0
 15 33  1  0
 17 34  1  0
 18 35  1  0
 19 36  1  0
M  CHG  1  11   1
M  END
>  <UniqueID>  (23) 
22

>  <SMILES>  (23) 
COc1ccc(C(=O)CC[NH2+]c2cccnc2)cc1

>  <Energy>  (23) 
38.043790540841194

>  <Genealogy>  (23) 
COc1ccc(C(=O)CC[NH2+]c2cccnc2)cc1 (protonated)
COc1ccc(C(=O)CC[NH2+]c2cccnc2)cc1 (3D coordinates assigned)
COc1ccc(C(=O)CC[NH2+]c2cccnc2)cc1 (optimized conformer: 38.043790540841194 kcal/mol)

>  <smiles>  (23) 
COc1ccc(C(=O)CCNc2cccnc2)cc1

>  <score_type>  (23) 
oracle

>  <origin>  (23) 
adg

>  <m_score__min__energy>  (23) 
-5

>  <m_primary>  (23) 
energy

$$$$
23:0
     RDKit          3D

 52 53  0  0  0  0  0  0  0  0999 V2000
   62.2990   31.7740   47.5090 C   0  0  0  0  0  0  0  0  0  0  0  0
   61.1340   32.4230   46.7430 C   0  0  0  0  0  0  0  0  0  0  0  0
   59.8000   32.2430   47.3840 N   0  0  0  0  0  0  0  0  0  0  0  0
   58.9170   33.4190   47.1450 C   0  0  0  0  0  0  0  0  0  0  0  0
   58.7610   33.7700   45.6520 C   0  0  0  0  0  0  0  0  0  0  0  0
   57.3880   33.4140   45.0540 C   0  0  0  0  0  0  0  0  0  0  0  0
   57.3950   32.1300   44.2200 C   0  0  0  0  0  0  0  0  0  0  0  0
   56.6820   31.0970   44.8920 O   0  0  0  0  0  0  0  0  0  0  0  0
   55.9960   30.0890   44.2070 C   0  0  0  0  0  0  0  0  0  0  0  0
   56.2810   29.8530   42.7630 C   0  0  0  0  0  0  0  0  0  0  0  0
   55.1600   29.3580   44.8040 O   0  0  0  0  0  0  0  0  0  0  0  0
   59.1000   30.9540   47.0640 C   0  0  2  0  0  0  0  0  0  0  0  0
   59.3980   29.8990   48.1560 C   0  0  0  0  0  0  0  0  0  0  0  0
   58.5270   28.6550   47.9690 C   0  0  0  0  0  0  0  0  0  0  0  0
   58.5570   28.1200   46.5580 C   0  0  0  0  0  0  0  0  0  0  0  0
   58.9690   28.9400   45.4820 C   0  0  0  0  0  0  0  0  0  0  0  0
   58.9500   28.4290   44.1750 C   0  0  0  0  0  0  0  0  0  0  0  0
   58.4880   27.1380   43.9280 C   0  0  0  0  0  0  0  0  0  0  0  0
   58.0470   26.3370   44.9790 C   0  0  0  0  0  0  0  0  0  0  0  0
   58.0700   26.8190   46.3010 C   0  0  0  0  0  0  0  0  0  0  0  0
   57.6160   26.0390   47.3780 O   0  0  0  0  0  0  0  0  0  0  0  0
   57.0110   24.7570   47.2500 C   0  0  0  0  0  0  0  0  0  0  0  0
   59.5310   30.3250   45.7090 C   0  0  0  0  0  0  0  0  0  0  0  0
   62.1255   31.8707   48.5909 H   0  0  0  0  0  0  0  0  0  0  0  0
   62.3653   30.7090   47.2420 H   0  0  0  0  0  0  0  0  0  0  0  0
   63.2395   32.2782   47.2420 H   0  0  0  0  0  0  0  0  0  0  0  0
   61.3340   33.5016   46.6617 H   0  0  0  0  0  0  0  0  0  0  0  0
   61.0829   31.9218   45.7652 H   0  0  0  0  0  0  0  0  0  0  0  0
   57.9216   33.1980   47.5577 H   0  0  0  0  0  0  0  0  0  0  0  0
   59.3861   34.2843   47.6362 H   0  0  0  0  0  0  0  0  0  0  0  0
   58.9166   34.8527   45.5353 H   0  0  0  0  0  0  0  0  0  0  0  0
   59.5048   33.1683   45.1092 H   0  0  0  0  0  0  0  0  0  0  0  0
   56.6716   33.2883   45.8793 H   0  0  0  0  0  0  0  0  0  0  0  0
   57.1088   34.2354   44.3778 H   0  0  0  0  0  0  0  0  0  0  0  0
   56.9181   32.3264   43.2484 H   0  0  0  0  0  0  0  0  0  0  0  0
   58.4359   31.8066   44.0721 H   0  0  0  0  0  0  0  0  0  0  0  0
   57.1249   29.1542   42.6653 H   0  0  0  0  0  0  0  0  0  0  0  0
   55.3914   29.4236   42.2791 H   0  0  0  0  0  0  0  0  0  0  0  0
   56.5370   30.8071   42.2791 H   0  0  0  0  0  0  0  0  0  0  0  0
   58.0325   31.2138   47.0100 H   0  0  0  0  0  0  0  0  0  0  0  0
   60.4573   29.6087   48.0961 H   0  0  0  0  0  0  0  0  0  0  0  0
   59.1739   30.3391   49.1389 H   0  0  0  0  0  0  0  0  0  0  0  0
   58.8874   27.8694   48.6494 H   0  0  0  0  0  0  0  0  0  0  0  0
   57.4888   28.9445   48.1888 H   0  0  0  0  0  0  0  0  0  0  0  0
   59.3023   29.0521   43.3398 H   0  0  0  0  0  0  0  0  0  0  0  0
   58.4714   26.7496   42.8990 H   0  0  0  0  0  0  0  0  0  0  0  0
   57.6784   25.3210   44.7742 H   0  0  0  0  0  0  0  0  0  0  0  0
   56.8153   24.3424   48.2499 H   0  0  0  0  0  0  0  0  0  0  0  0
   56.0628   24.8522   46.7006 H   0  0  0  0  0  0  0  0  0  0  0  0
   57.6873   24.0856   46.7006 H   0  0  0  0  0  0  0  0  0  0  0  0
   60.6290   30.2632   45.6873 H   0  0  0  0  0  0  0  0  0  0  0  0
   59.1340   30.9703   44.9115 H   0  0  0  0  0  0  0  0  0  0  0  0
  1  2  1  0
  2  3  1  0
  3  4  1  0
  4  5  1  0
  5  6  1  0
  6  7  1  0
  7  8  1  0
  8  9  1  0
  9 10  1  0
  9 11  2  0
  3 12  1  0
 12 13  1  0
 13 14  1  0
 14 15  1  0
 15 16  2  0
 16 17  1  0
 17 18  2  0
 18 19  1  0
 19 20  2  0
 20 21  1  0
 21 22  1  0
 16 23  1  0
 23 12  1  0
 20 15  1  0
  1 24  1  0
  1 25  1  0
  1 26  1  0
  2 27  1  0
  2 28  1  0
  4 29  1  0
  4 30  1  0
  5 31  1  0
  5 32  1  0
  6 33  1  0
  6 34  1  0
  7 35  1  0
  7 36  1  0
 10 37  1  0
 10 38  1  0
 10 39  1  0
 12 40  1  6
 13 41  1  0
 13 42  1  0
 14 43  1  0
 14 44  1  0
 17 45  1  0
 18 46  1  0
 19 47  1  0
 22 48  1  0
 22 49  1  0
 22 50  1  0
 23 51  1  0
 23 52  1  0
M  END
>  <UniqueID>  (24) 
23

>  <SMILES>  (24) 
CCN(CCCCOC(C)=O)[C@@H]1CCc2c(cccc2OC)C1

>  <Energy>  (24) 
54.045175505209826

>  <Genealogy>  (24) 
CCN(CCCCOC(C)=O)[C@@H]1CCc2c(cccc2OC)C1 (chirality)
CCN(CCCCOC(C)=O)[C@@H]1CCc2c(cccc2OC)C1 (3D coordinates assigned)
CCN(CCCCOC(C)=O)[C@@H]1CCc2c(cccc2OC)C1 (nonaromatic ring conformer: 54.045175505209826 kcal/mol)

>  <smiles>  (24) 
CCN(CCCCOC(C)=O)C1CCc2c(cccc2OC)C1

>  <score_type>  (24) 
oracle

>  <origin>  (24) 
adg

>  <m_score__min__energy>  (24) 
-7.71

>  <m_primary>  (24) 
energy

$$$$
24:0
     RDKit          3D

 24 25  0  0  0  0  0  0  0  0999 V2000
   55.5810   29.7210   44.0780 C   0  0  0  0  0  0  0  0  0  0  0  0
   56.6290   28.9510   44.8790 C   0  0  0  0  0  0  0  0  0  0  0  0
   58.0550   29.4240   44.5740 C   0  0  0  0  0  0  0  0  0  0  0  0
   58.0760   30.8480   44.2390 N   0  0  0  0  0  0  0  0  0  0  0  0
   58.1090   31.3450   43.0060 N   0  0  0  0  0  0  0  0  0  0  0  0
   58.1750   32.6750   43.0070 N   0  0  0  0  0  0  0  0  0  0  0  0
   58.1880   33.0250   44.3080 C   0  0  0  0  0  0  0  0  0  0  0  0
   58.2610   34.2960   44.8660 C   0  0  0  0  0  0  0  0  0  0  0  0
   58.2740   34.3860   46.2730 C   0  0  0  0  0  0  0  0  0  0  0  0
   58.2160   33.2170   47.0690 C   0  0  0  0  0  0  0  0  0  0  0  0
   58.1440   31.9450   46.4680 C   0  0  0  0  0  0  0  0  0  0  0  0
   58.1310   31.8990   45.0740 C   0  0  0  0  0  0  0  0  0  0  0  0
   54.8911   30.2279   44.7687 H   0  0  0  0  0  0  0  0  0  0  0  0
   56.0804   30.4686   43.4442 H   0  0  0  0  0  0  0  0  0  0  0  0
   55.0168   29.0211   43.4442 H   0  0  0  0  0  0  0  0  0  0  0  0
   56.4303   29.0939   45.9514 H   0  0  0  0  0  0  0  0  0  0  0  0
   56.5577   27.8904   44.5960 H   0  0  0  0  0  0  0  0  0  0  0  0
   58.6871   29.2533   45.4579 H   0  0  0  0  0  0  0  0  0  0  0  0
   58.4352   28.8561   43.7120 H   0  0  0  0  0  0  0  0  0  0  0  0
   58.0950   30.7660   42.1360 H   0  0  0  0  0  0  0  0  0  0  0  0
   58.3068   35.1958   44.2350 H   0  0  0  0  0  0  0  0  0  0  0  0
   58.3297   35.3727   46.7560 H   0  0  0  0  0  0  0  0  0  0  0  0
   58.2272   33.3025   48.1656 H   0  0  0  0  0  0  0  0  0  0  0  0
   58.0999   31.0270   47.0724 H   0  0  0  0  0  0  0  0  0  0  0  0
  1  2  1  0
  2  3  1  0
  3  4  1  0
  4  5  1  0
  5  6  2  0
  6  7  1  0
  7  8  2  0
  8  9  1  0
  9 10  2  0
 10 11  1  0
 11 12  2  0
 12  4  1  0
 12  7  1  0
  1 13  1  0
  1 14  1  0
  1 15  1  0
  2 16  1  0
  2 17  1  0
  3 18  1  0
  3 19  1  0
  5 20  1  0
  8 21  1  0
  9 22  1  0
 10 23  1  0
 11 24  1  0
M  CHG  1   5   1
M  END
>  <UniqueID>  (25) 
24

>  <SMILES>  (25) 
CCCn1[nH+]nc2ccccc21

>  <Energy>  (25) 
62.9839185462972

>  <Genealogy>  (25) 
CCCn1[nH+]nc2ccccc21 (protonated)
CCCn1[nH+]nc2ccccc21 (3D coordinates assigned)
CCCn1[nH+]nc2ccccc21 (optimized conformer: 62.9839185462972 kcal/mol)

>  <smiles>  (25) 
CCCn1nnc2ccccc21

>  <score_type>  (25) 
oracle

>  <origin>  (25) 
adg

>  <m_score__min__energy>  (25) 
-4.1399999999999997

>  <m_primary>  (25) 
energy

$$$$
25:0
     RDKit          3D

 42 44  0  0  0  0  0  0  0  0999 V2000
   56.7520   27.2480   45.6270 Cl  0  0  0  0  0  0  0  0  0  0  0  0
   57.2580   28.8420   45.1000 C   0  0  0  0  0  0  0  0  0  0  0  0
   56.4600   29.5720   44.2120 C   0  0  0  0  0  0  0  0  0  0  0  0
   56.8620   30.8430   43.7910 C   0  0  0  0  0  0  0  0  0  0  0  0
   58.0670   31.3950   44.2550 C   0  0  0  0  0  0  0  0  0  0  0  0
   58.5110   32.7590   43.7810 C   0  0  0  0  0  0  0  0  0  0  0  0
   57.8120   33.8610   44.4940 N   0  0  0  0  0  0  0  0  0  0  0  0
   58.7210   34.9560   44.9110 C   0  0  0  0  0  0  0  0  0  0  0  0
   59.7130   34.5220   46.0140 C   0  0  0  0  0  0  0  0  0  0  0  0
   59.2430   33.3190   46.7280 N   0  0  0  0  0  0  0  0  0  0  0  0
   60.0520   32.9900   47.9220 C   0  0  0  0  0  0  0  0  0  0  0  0
   59.4170   31.9580   48.8320 C   0  0  0  0  0  0  0  0  0  0  0  0
   58.7240   32.3540   49.9860 C   0  0  0  0  0  0  0  0  0  0  0  0
   58.1410   31.3860   50.8080 C   0  0  0  0  0  0  0  0  0  0  0  0
   58.2380   30.0700   50.4850 N   0  0  0  0  0  0  0  0  0  0  0  0
   58.8930   29.6570   49.3680 C   0  0  0  0  0  0  0  0  0  0  0  0
   59.4890   30.5910   48.5190 C   0  0  0  0  0  0  0  0  0  0  0  0
   57.7980   33.3680   46.9840 C   0  0  0  0  0  0  0  0  0  0  0  0
   57.0220   33.3530   45.6500 C   0  0  0  0  0  0  0  0  0  0  0  0
   58.8640   30.6550   45.1460 C   0  0  0  0  0  0  0  0  0  0  0  0
   58.4590   29.3850   45.5660 C   0  0  0  0  0  0  0  0  0  0  0  0
   55.5151   29.1451   43.8447 H   0  0  0  0  0  0  0  0  0  0  0  0
   56.2315   31.4134   43.0930 H   0  0  0  0  0  0  0  0  0  0  0  0
   59.5931   32.8577   43.9521 H   0  0  0  0  0  0  0  0  0  0  0  0
   58.2634   32.8402   42.7123 H   0  0  0  0  0  0  0  0  0  0  0  0
   57.1230   34.2750   43.8200 H   0  0  0  0  0  0  0  0  0  0  0  0
   59.2945   35.2902   44.0339 H   0  0  0  0  0  0  0  0  0  0  0  0
   58.0993   35.7643   45.3234 H   0  0  0  0  0  0  0  0  0  0  0  0
   60.6872   34.3044   45.5518 H   0  0  0  0  0  0  0  0  0  0  0  0
   59.7966   35.3422   46.7422 H   0  0  0  0  0  0  0  0  0  0  0  0
   61.0244   32.6020   47.5847 H   0  0  0  0  0  0  0  0  0  0  0  0
   60.1455   33.9162   48.5080 H   0  0  0  0  0  0  0  0  0  0  0  0
   58.6401   33.4205   50.2422 H   0  0  0  0  0  0  0  0  0  0  0  0
   57.6028   31.6900   51.7179 H   0  0  0  0  0  0  0  0  0  0  0  0
   58.9536   28.5842   49.1325 H   0  0  0  0  0  0  0  0  0  0  0  0
   60.0119   30.2582   47.6103 H   0  0  0  0  0  0  0  0  0  0  0  0
   57.5052   32.4945   47.5850 H   0  0  0  0  0  0  0  0  0  0  0  0
   57.5601   34.2938   47.5284 H   0  0  0  0  0  0  0  0  0  0  0  0
   56.7190   32.3175   45.4358 H   0  0  0  0  0  0  0  0  0  0  0  0
   56.1597   34.0251   45.7713 H   0  0  0  0  0  0  0  0  0  0  0  0
   59.8105   31.0775   45.5142 H   0  0  0  0  0  0  0  0  0  0  0  0
   59.0863   28.8117   46.2644 H   0  0  0  0  0  0  0  0  0  0  0  0
  1  2  1  0
  2  3  2  0
  3  4  1  0
  4  5  2  0
  5  6  1  0
  6  7  1  0
  7  8  1  0
  8  9  1  0
  9 10  1  0
 10 11  1  0
 11 12  1  0
 12 13  2  0
 13 14  1  0
 14 15  2  0
 15 16  1  0
 16 17  2  0
 10 18  1  0
 18 19  1  0
  5 20  1  0
 20 21  2  0
 21  2  1  0
 19  7  1  0
 17 12  1  0
  3 22  1  0
  4 23  1  0
  6 24  1  0
  6 25  1  0
  7 26  1  0
  8 27  1  0
  8 28  1  0
  9 29  1  0
  9 30  1  0
 11 31  1  0
 11 32  1  0
 13 33  1  0
 14 34  1  0
 16 35  1  0
 17 36  1  0
 18 37  1  0
 18 38  1  0
 19 39  1  0
 19 40  1  0
 20 41  1  0
 21 42  1  0
M  CHG  1   7   1
M  END
>  <UniqueID>  (26) 
25

>  <SMILES>  (26) 
Clc1ccc(C[NH+]2CCN(Cc3ccncc3)CC2)cc1

>  <Energy>  (26) 
59.075446648734484

>  <Genealogy>  (26) 
Clc1ccc(C[NH+]2CCN(Cc3ccncc3)CC2)cc1 (protonated)
Clc1ccc(C[NH+]2CCN(Cc3ccncc3)CC2)cc1 (3D coordinates assigned)
Clc1ccc(C[NH+]2CCN(Cc3ccncc3)CC2)cc1 (nonaromatic ring conformer: 59.075446648734484 kcal/mol)

>  <smiles>  (26) 
Clc1ccc(CN2CCN(Cc3ccncc3)CC2)cc1

>  <score_type>  (26) 
oracle

>  <origin>  (26) 
adg

>  <m_score__min__energy>  (26) 
-5.6200000000000001

>  <m_primary>  (26) 
energy

$$$$
26:0
     RDKit          3D

 43 44  0  0  0  0  0  0  0  0999 V2000
   57.9580   26.4500   46.7180 C   0  0  0  0  0  0  0  0  0  0  0  0
   57.2650   26.6780   45.3800 C   0  0  0  0  0  0  0  0  0  0  0  0
   56.2250   27.6460   45.5120 O   0  0  0  0  0  0  0  0  0  0  0  0
   56.2590   28.9020   44.8960 C   0  0  0  0  0  0  0  0  0  0  0  0
   55.2530   29.6630   44.9450 O   0  0  0  0  0  0  0  0  0  0  0  0
   57.5190   29.3230   44.1740 C   0  0  2  0  0  0  0  0  0  0  0  0
   58.7080   29.5640   45.1260 C   0  0  0  0  0  0  0  0  0  0  0  0
   58.5700   30.8620   45.9580 C   0  0  0  0  0  0  0  0  0  0  0  0
   57.6350   31.8440   45.3620 N   0  0  1  0  0  0  0  0  0  0  0  0
   57.9180   33.4330   46.0320 S   0  0  0  0  0  0  0  0  0  0  0  0
   57.8250   34.4600   44.9370 O   0  0  0  0  0  0  0  0  0  0  0  0
   56.8570   33.7440   47.0520 O   0  0  0  0  0  0  0  0  0  0  0  0
   59.5080   33.5450   46.7900 C   0  0  0  0  0  0  0  0  0  0  0  0
   59.6300   33.4690   48.1850 C   0  0  0  0  0  0  0  0  0  0  0  0
   60.8860   33.5650   48.7890 C   0  0  0  0  0  0  0  0  0  0  0  0
   62.0360   33.7490   48.0060 C   0  0  0  0  0  0  0  0  0  0  0  0
   63.3890   33.8130   48.6500 C   0  0  0  0  0  0  0  0  0  0  0  0
   61.9160   33.8030   46.6090 C   0  0  0  0  0  0  0  0  0  0  0  0
   60.6580   33.7080   46.0050 C   0  0  0  0  0  0  0  0  0  0  0  0
   57.7480   31.8800   43.8940 C   0  0  0  0  0  0  0  0  0  0  0  0
   57.2660   30.5560   43.2690 C   0  0  0  0  0  0  0  0  0  0  0  0
   57.2598   26.6797   47.5364 H   0  0  0  0  0  0  0  0  0  0  0  0
   58.2765   25.3997   46.7917 H   0  0  0  0  0  0  0  0  0  0  0  0
   58.8379   27.1060   46.7917 H   0  0  0  0  0  0  0  0  0  0  0  0
   58.0026   27.0374   44.6474 H   0  0  0  0  0  0  0  0  0  0  0  0
   56.8249   25.7282   45.0420 H   0  0  0  0  0  0  0  0  0  0  0  0
   57.8026   28.4765   43.5313 H   0  0  0  0  0  0  0  0  0  0  0  0
   58.7805   28.7116   45.8175 H   0  0  0  0  0  0  0  0  0  0  0  0
   59.6089   29.6691   44.5036 H   0  0  0  0  0  0  0  0  0  0  0  0
   58.2047   30.5965   46.9610 H   0  0  0  0  0  0  0  0  0  0  0  0
   59.5625   31.3353   45.9899 H   0  0  0  0  0  0  0  0  0  0  0  0
   56.6530   31.5860   45.6210 H   0  0  0  0  0  0  0  0  0  0  0  0
   58.7326   33.3332   48.8065 H   0  0  0  0  0  0  0  0  0  0  0  0
   60.9740   33.4960   49.8833 H   0  0  0  0  0  0  0  0  0  0  0  0
   63.2750   33.8076   49.7441 H   0  0  0  0  0  0  0  0  0  0  0  0
   63.9846   32.9420   48.3391 H   0  0  0  0  0  0  0  0  0  0  0  0
   63.8997   34.7363   48.3391 H   0  0  0  0  0  0  0  0  0  0  0  0
   62.8151   33.9205   45.9862 H   0  0  0  0  0  0  0  0  0  0  0  0
   60.5707   33.7614   44.9098 H   0  0  0  0  0  0  0  0  0  0  0  0
   57.1330   32.7055   43.5062 H   0  0  0  0  0  0  0  0  0  0  0  0
   58.8050   32.0282   43.6279 H   0  0  0  0  0  0  0  0  0  0  0  0
   56.1855   30.6331   43.0779 H   0  0  0  0  0  0  0  0  0  0  0  0
   57.8407   30.4043   42.3434 H   0  0  0  0  0  0  0  0  0  0  0  0
  1  2  1  0
  2  3  1  0
  3  4  1  0
  4  5  2  0
  4  6  1  0
  6  7  1  0
  7  8  1  0
  8  9  1  0
  9 10  1  0
 10 11  2  0
 10 12  2  0
 10 13  1  0
 13 14  2  0
 14 15  1  0
 15 16  2  0
 16 17  1  0
 16 18  1  0
 18 19  2  0
  9 20  1  0
 20 21  1  0
 21  6  1  0
 19 13  1  0
  1 22  1  0
  1 23  1  0
  1 24  1  0
  2 25  1  0
  2 26  1  0
  6 27  1  6
  7 28  1  0
  7 29  1  0
  8 30  1  0
  8 31  1  0
  9 32  1  6
 14 33  1  0
 15 34  1  0
 17 35  1  0
 17 36  1  0
 17 37  1  0
 18 38  1  0
 19 39  1  0
 20 40  1  0
 20 41  1  0
 21 42  1  0
 21 43  1  0
M  CHG  1   9   1
M  END
>  <UniqueID>  (27) 
26

>  <SMILES>  (27) 
CCOC(=O)C1CC[NH+](S(=O)(=O)c2ccc(C)cc2)CC1

>  <Energy>  (27) 
42.61201516280402

>  <Genealogy>  (27) 
CCOC(=O)C1CC[NH+](S(=O)(=O)c2ccc(C)cc2)CC1 (protonated)
CCOC(=O)C1CC[NH+](S(=O)(=O)c2ccc(C)cc2)CC1 (3D coordinates assigned)
CCOC(=O)C1CC[NH+](S(=O)(=O)c2ccc(C)cc2)CC1 (nonaromatic ring conformer: 42.61201516280402 kcal/mol)

>  <smiles>  (27) 
CCOC(=O)C1CCN(S(=O)(=O)c2ccc(C)cc2)CC1

>  <score_type>  (27) 
oracle

>  <origin>  (27) 
adg

>  <m_score__min__energy>  (27) 
-6.6600000000000001

>  <m_primary>  (27) 
energy

$$$$
27:0
     RDKit          3D

 70 73  0  0  0  0  0  0  0  0999 V2000
   62.6290   33.6970   51.9970 C   0  0  0  0  0  0  0  0  0  0  0  0
   63.7810   34.5930   51.5490 C   0  0  0  0  0  0  0  0  0  0  0  0
   65.0680   34.0780   52.0710 N   0  0  0  0  0  0  0  0  0  0  0  0
   65.2310   34.4050   53.5080 C   0  0  0  0  0  0  0  0  0  0  0  0
   65.1070   33.1470   54.3660 C   0  0  0  0  0  0  0  0  0  0  0  0
   66.2200   34.5660   51.2680 C   0  0  0  0  0  0  0  0  0  0  0  0
   67.0940   33.3890   50.8310 C   0  0  0  0  0  0  0  0  0  0  0  0
   66.4590   32.6350   49.7510 N   0  0  0  0  0  0  0  0  0  0  0  0
   65.2000   31.9780   49.9680 C   0  0  0  0  0  0  0  0  0  0  0  0
   64.9930   31.1060   51.0570 C   0  0  0  0  0  0  0  0  0  0  0  0
   66.0300   30.8250   51.9730 C   0  0  0  0  0  0  0  0  0  0  0  0
   65.8070   29.9800   53.0590 C   0  0  0  0  0  0  0  0  0  0  0  0
   64.5550   29.4090   53.2570 C   0  0  0  0  0  0  0  0  0  0  0  0
   63.5210   29.6500   52.3530 C   0  0  0  0  0  0  0  0  0  0  0  0
   63.7200   30.4720   51.2170 C   0  0  0  0  0  0  0  0  0  0  0  0
   62.7170   30.6650   50.2790 N   0  0  0  0  0  0  0  0  0  0  0  0
   61.5870   29.7200   50.2100 C   0  0  0  0  0  0  0  0  0  0  0  0
   62.8720   31.6540   49.3300 C   0  0  0  0  0  0  0  0  0  0  0  0
   64.1180   32.2480   49.1380 C   0  0  0  0  0  0  0  0  0  0  0  0
   64.0750   33.3260   47.8430 S   0  0  0  0  0  0  0  0  0  0  0  0
   62.4470   33.0860   47.5240 C   0  0  0  0  0  0  0  0  0  0  0  0
   61.6920   33.7280   46.5470 C   0  0  0  0  0  0  0  0  0  0  0  0
   60.3160   33.4730   46.4760 C   0  0  0  0  0  0  0  0  0  0  0  0
   59.5790   34.0980   45.4560 O   0  0  0  0  0  0  0  0  0  0  0  0
   58.2380   34.5740   45.5760 C   0  0  0  0  0  0  0  0  0  0  0  0
   57.2540   33.3970   45.5990 C   0  0  0  0  0  0  0  0  0  0  0  0
   57.6050   32.2570   44.6140 C   0  0  0  0  0  0  0  0  0  0  0  0
   56.9810   30.9380   44.8790 N   0  0  0  0  0  0  0  0  0  0  0  0
   57.8860   29.9710   45.5180 C   0  0  0  0  0  0  0  0  0  0  0  0
   56.2700   30.3510   43.7340 C   0  0  0  0  0  0  0  0  0  0  0  0
   59.7220   32.6200   47.4360 C   0  0  0  0  0  0  0  0  0  0  0  0
   60.5010   31.9940   48.4230 C   0  0  0  0  0  0  0  0  0  0  0  0
   61.8950   32.1810   48.4330 C   0  0  0  0  0  0  0  0  0  0  0  0
   62.5926   33.6686   53.0960 H   0  0  0  0  0  0  0  0  0  0  0  0
   61.6808   34.0973   51.6089 H   0  0  0  0  0  0  0  0  0  0  0  0
   62.7836   32.6794   51.6089 H   0  0  0  0  0  0  0  0  0  0  0  0
   63.8178   34.6138   50.4498 H   0  0  0  0  0  0  0  0  0  0  0  0
   63.6172   35.6078   51.9406 H   0  0  0  0  0  0  0  0  0  0  0  0
   66.2230   34.8534   53.6659 H   0  0  0  0  0  0  0  0  0  0  0  0
   64.4412   35.1122   53.8014 H   0  0  0  0  0  0  0  0  0  0  0  0
   65.1344   33.4247   55.4300 H   0  0  0  0  0  0  0  0  0  0  0  0
   64.1549   32.6434   54.1429 H   0  0  0  0  0  0  0  0  0  0  0  0
   65.9425   32.4672   54.1429 H   0  0  0  0  0  0  0  0  0  0  0  0
   65.8456   35.0914   50.3770 H   0  0  0  0  0  0  0  0  0  0  0  0
   66.8217   35.2519   51.8825 H   0  0  0  0  0  0  0  0  0  0  0  0
   68.0635   33.7722   50.4800 H   0  0  0  0  0  0  0  0  0  0  0  0
   67.2325   32.7179   51.6915 H   0  0  0  0  0  0  0  0  0  0  0  0
   66.7310   32.8710   48.7720 H   0  0  0  0  0  0  0  0  0  0  0  0
   67.0225   31.2768   51.8284 H   0  0  0  0  0  0  0  0  0  0  0  0
   66.6249   29.7641   53.7621 H   0  0  0  0  0  0  0  0  0  0  0  0
   64.3793   28.7642   54.1307 H   0  0  0  0  0  0  0  0  0  0  0  0
   62.5347   29.1943   52.5250 H   0  0  0  0  0  0  0  0  0  0  0  0
   61.2688   29.4539   51.2288 H   0  0  0  0  0  0  0  0  0  0  0  0
   60.7485   30.1896   49.6749 H   0  0  0  0  0  0  0  0  0  0  0  0
   61.9008   28.8116   49.6749 H   0  0  0  0  0  0  0  0  0  0  0  0
   62.1680   34.4248   45.8414 H   0  0  0  0  0  0  0  0  0  0  0  0
   58.1390   35.1478   46.5093 H   0  0  0  0  0  0  0  0  0  0  0  0
   58.0079   35.2153   44.7125 H   0  0  0  0  0  0  0  0  0  0  0  0
   57.2382   32.9805   46.6170 H   0  0  0  0  0  0  0  0  0  0  0  0
   56.2776   33.7954   45.2860 H   0  0  0  0  0  0  0  0  0  0  0  0
   57.2953   32.5772   43.6082 H   0  0  0  0  0  0  0  0  0  0  0  0
   58.6870   32.0956   44.7292 H   0  0  0  0  0  0  0  0  0  0  0  0
   57.8037   30.0589   46.6114 H   0  0  0  0  0  0  0  0  0  0  0  0
   57.6099   28.9517   45.2103 H   0  0  0  0  0  0  0  0  0  0  0  0
   58.9214   30.1791   45.2103 H   0  0  0  0  0  0  0  0  0  0  0  0
   55.4698   29.6903   44.0989 H   0  0  0  0  0  0  0  0  0  0  0  0
   55.8323   31.1543   43.1232 H   0  0  0  0  0  0  0  0  0  0  0  0
   56.9759   29.7691   43.1232 H   0  0  0  0  0  0  0  0  0  0  0  0
   58.6364   32.4449   47.4090 H   0  0  0  0  0  0  0  0  0  0  0  0
   60.0230   31.3604   49.1847 H   0  0  0  0  0  0  0  0  0  0  0  0
  1  2  1  0
  2  3  1  0
  3  4  1  0
  4  5  1  0
  3  6  1  0
  6  7  1  0
  7  8  1  0
  8  9  1  0
  9 10  2  0
 10 11  1  0
 11 12  2  0
 12 13  1  0
 13 14  2  0
 14 15  1  0
 15 16  2  0
 16 17  1  0
 16 18  1  0
 18 19  2  0
 19 20  1  0
 20 21  1  0
 21 22  2  0
 22 23  1  0
 23 24  1  0
 24 25  1  0
 25 26  1  0
 26 27  1  0
 27 28  1  0
 28 29  1  0
 28 30  1  0
 23 31  2  0
 31 32  1  0
 32 33  2  0
 19  9  1  0
 33 21  1  0
 15 10  1  0
 33 18  1  0
  1 34  1  0
  1 35  1  0
  1 36  1  0
  2 37  1  0
  2 38  1  0
  4 39  1  0
  4 40  1  0
  5 41  1  0
  5 42  1  0
  5 43  1  0
  6 44  1  0
  6 45  1  0
  7 46  1  0
  7 47  1  0
  8 48  1  0
 11 49  1  0
 12 50  1  0
 13 51  1  0
 14 52  1  0
 17 53  1  0
 17 54  1  0
 17 55  1  0
 22 56  1  0
 25 57  1  0
 25 58  1  0
 26 59  1  0
 26 60  1  0
 27 61  1  0
 27 62  1  0
 29 63  1  0
 29 64  1  0
 29 65  1  0
 30 66  1  0
 30 67  1  0
 30 68  1  0
 31 69  1  0
 32 70  1  0
M  CHG  1  16   1
M  END
>  <UniqueID>  (28) 
27

>  <SMILES>  (28) 
CCN(CC)CCNc1c2ccccc2[n+](C)c2c1sc1cc(OCCCN(C)C)ccc12

>  <Energy>  (28) 
134.24482205140313

>  <Genealogy>  (28) 
CCN(CC)CCNc1c2ccccc2[n+](C)c2c1sc1cc(OCCCN(C)C)ccc12 (3D coordinates assigned)
CCN(CC)CCNc1c2ccccc2[n+](C)c2c1sc1cc(OCCCN(C)C)ccc12 (optimized conformer: 134.24482205140313 kcal/mol)

>  <smiles>  (28) 
CCN(CC)CCNc1c2ccccc2[n+](C)c2c1sc1cc(OCCCN(C)C)ccc12

>  <score_type>  (28) 
oracle

>  <origin>  (28) 
adg

>  <m_score__min__energy>  (28) 
-7.0099999999999998

>  <m_primary>  (28) 
energy

$$$$
28:0
     RDKit          3D

 34 35  0  0  0  0  0  0  0  0999 V2000
   55.1840   26.3450   46.0250 O   0  0  0  0  0  0  0  0  0  0  0  0
   56.2020   25.6030   45.9420 C   0  0  0  0  0  0  0  0  0  0  0  0
   57.3960   25.9550   46.7860 C   0  0  0  0  0  0  0  0  0  0  0  0
   58.7000   26.7770   45.7980 S   0  0  0  0  0  0  0  0  0  0  0  0
   58.4990   28.4580   46.4910 C   0  0  0  0  0  0  0  0  0  0  0  0
   57.9710   29.4120   45.4540 C   0  0  0  0  0  0  0  0  0  0  0  0
   57.3150   28.9300   44.3090 C   0  0  0  0  0  0  0  0  0  0  0  0
   56.8360   29.8230   43.3450 C   0  0  0  0  0  0  0  0  0  0  0  0
   57.0100   31.1980   43.5150 C   0  0  0  0  0  0  0  0  0  0  0  0
   57.6610   31.6860   44.6530 C   0  0  0  0  0  0  0  0  0  0  0  0
   57.8970   33.5670   44.8850 Br  0  0  0  0  0  0  0  0  0  0  0  0
   58.1410   30.7960   45.6200 C   0  0  0  0  0  0  0  0  0  0  0  0
   56.1830   24.4580   45.0530 N   0  0  0  0  0  0  0  0  0  0  0  0
   57.2540   23.4490   45.0820 C   0  0  0  0  0  0  0  0  0  0  0  0
   57.3300   22.7080   43.7430 C   0  0  0  0  0  0  0  0  0  0  0  0
   56.0600   22.2140   43.3670 O   0  0  0  0  0  0  0  0  0  0  0  0
   55.1920   23.2990   43.1120 C   0  0  0  0  0  0  0  0  0  0  0  0
   54.9210   24.0920   44.3940 C   0  0  0  0  0  0  0  0  0  0  0  0
   57.0768   26.6334   47.5909 H   0  0  0  0  0  0  0  0  0  0  0  0
   57.8122   25.0243   47.1990 H   0  0  0  0  0  0  0  0  0  0  0  0
   57.7934   28.4171   47.3339 H   0  0  0  0  0  0  0  0  0  0  0  0
   59.4828   28.8171   46.8274 H   0  0  0  0  0  0  0  0  0  0  0  0
   57.1777   27.8475   44.1703 H   0  0  0  0  0  0  0  0  0  0  0  0
   56.3211   29.4413   42.4510 H   0  0  0  0  0  0  0  0  0  0  0  0
   56.6350   31.8978   42.7537 H   0  0  0  0  0  0  0  0  0  0  0  0
   58.6534   31.1819   46.5136 H   0  0  0  0  0  0  0  0  0  0  0  0
   58.2155   23.9472   45.2750 H   0  0  0  0  0  0  0  0  0  0  0  0
   57.0366   22.7224   45.8787 H   0  0  0  0  0  0  0  0  0  0  0  0
   57.6909   23.4004   42.9682 H   0  0  0  0  0  0  0  0  0  0  0  0
   58.0200   21.8581   43.8504 H   0  0  0  0  0  0  0  0  0  0  0  0
   55.6548   23.9638   42.3678 H   0  0  0  0  0  0  0  0  0  0  0  0
   54.2375   22.9052   42.7327 H   0  0  0  0  0  0  0  0  0  0  0  0
   54.3660   25.0077   44.1421 H   0  0  0  0  0  0  0  0  0  0  0  0
   54.3315   23.4660   45.0800 H   0  0  0  0  0  0  0  0  0  0  0  0
  1  2  2  0
  2  3  1  0
  3  4  1  0
  4  5  1  0
  5  6  1  0
  6  7  2  0
  7  8  1  0
  8  9  2  0
  9 10  1  0
 10 11  1  0
 10 12  2  0
  2 13  1  0
 13 14  1  0
 14 15  1  0
 15 16  1  0
 16 17  1  0
 17 18  1  0
 12  6  1  0
 18 13  1  0
  3 19  1  0
  3 20  1  0
  5 21  1  0
  5 22  1  0
  7 23  1  0
  8 24  1  0
  9 25  1  0
 12 26  1  0
 14 27  1  0
 14 28  1  0
 15 29  1  0
 15 30  1  0
 17 31  1  0
 17 32  1  0
 18 33  1  0
 18 34  1  0
M  END
>  <UniqueID>  (29) 
28

>  <SMILES>  (29) 
O=C(CSCc1cccc(Br)c1)N1CCOCC1

>  <Energy>  (29) 
31.24362639468203

>  <Genealogy>  (29) 
O=C(CSCc1cccc(Br)c1)N1CCOCC1 (3D coordinates assigned)
O=C(CSCc1cccc(Br)c1)N1CCOCC1 (nonaromatic ring conformer: 31.24362639468203 kcal/mol)

>  <smiles>  (29) 
O=C(CSCc1cccc(Br)c1)N1CCOCC1

>  <score_type>  (29) 
oracle

>  <origin>  (29) 
adg

>  <m_score__min__energy>  (29) 
-7.3300000000000001

>  <m_primary>  (29) 
energy

$$$$
29:0
     RDKit          3D

 44 46  0  0  0  0  0  0  0  0999 V2000
   59.2850   33.1110   49.5780 C   0  0  0  0  0  0  0  0  0  0  0  0
   60.2390   34.0980   49.2020 O   0  0  0  0  0  0  0  0  0  0  0  0
   61.4780   33.7640   48.6460 C   0  0  0  0  0  0  0  0  0  0  0  0
   61.5930   33.4810   47.2630 C   0  0  0  0  0  0  0  0  0  0  0  0
   60.4170   33.5220   46.4280 N   0  0  0  0  0  0  0  0  0  0  0  0
   59.4850   34.6480   46.3560 C   0  0  0  0  0  0  0  0  0  0  0  0
   58.4100   34.3920   45.2920 C   0  0  0  0  0  0  0  0  0  0  0  0
   57.7210   33.0350   45.4930 C   0  0  0  0  0  0  0  0  0  0  0  0
   58.5190   31.9470   44.8820 N   0  0  0  0  0  0  0  0  0  0  0  0
   58.5930   30.7430   45.7450 C   0  0  0  0  0  0  0  0  0  0  0  0
   57.4810   29.7210   45.4270 C   0  0  0  0  0  0  0  0  0  0  0  0
   56.3580   30.3650   44.8670 O   0  0  0  0  0  0  0  0  0  0  0  0
   56.6750   30.8660   43.5800 C   0  0  0  0  0  0  0  0  0  0  0  0
   58.0390   31.5970   43.5310 C   0  0  0  0  0  0  0  0  0  0  0  0
   62.8710   33.1360   46.7370 C   0  0  0  0  0  0  0  0  0  0  0  0
   63.9730   33.0960   47.5440 N   0  0  0  0  0  0  0  0  0  0  0  0
   63.8440   33.3900   48.8600 C   0  0  0  0  0  0  0  0  0  0  0  0
   64.8380   33.4460   49.7590 N   0  0  0  0  0  0  0  0  0  0  0  0
   64.2570   33.8350   50.9160 C   0  0  0  0  0  0  0  0  0  0  0  0
   62.8890   34.0230   50.7430 C   0  0  0  0  0  0  0  0  0  0  0  0
   62.6430   33.7210   49.4170 C   0  0  0  0  0  0  0  0  0  0  0  0
   59.2296   33.0537   50.6751 H   0  0  0  0  0  0  0  0  0  0  0  0
   58.2982   33.3824   49.1747 H   0  0  0  0  0  0  0  0  0  0  0  0
   59.5898   32.1340   49.1747 H   0  0  0  0  0  0  0  0  0  0  0  0
   60.2050   32.7020   45.8150 H   0  0  0  0  0  0  0  0  0  0  0  0
   59.0007   34.7796   47.3348 H   0  0  0  0  0  0  0  0  0  0  0  0
   60.0448   35.5548   46.0834 H   0  0  0  0  0  0  0  0  0  0  0  0
   57.6531   35.1880   45.3518 H   0  0  0  0  0  0  0  0  0  0  0  0
   58.8989   34.3847   44.3067 H   0  0  0  0  0  0  0  0  0  0  0  0
   57.6119   32.8415   46.5703 H   0  0  0  0  0  0  0  0  0  0  0  0
   56.7338   33.0644   45.0086 H   0  0  0  0  0  0  0  0  0  0  0  0
   59.5699   30.2602   45.5946 H   0  0  0  0  0  0  0  0  0  0  0  0
   58.4604   31.0691   46.7872 H   0  0  0  0  0  0  0  0  0  0  0  0
   57.8660   28.9792   44.7117 H   0  0  0  0  0  0  0  0  0  0  0  0
   57.1763   29.2273   46.3616 H   0  0  0  0  0  0  0  0  0  0  0  0
   56.7041   30.0231   42.8738 H   0  0  0  0  0  0  0  0  0  0  0  0
   55.9001   31.6001   43.3141 H   0  0  0  0  0  0  0  0  0  0  0  0
   58.7783   30.9405   43.0489 H   0  0  0  0  0  0  0  0  0  0  0  0
   57.9087   32.5288   42.9611 H   0  0  0  0  0  0  0  0  0  0  0  0
   62.9721   32.8988   45.6677 H   0  0  0  0  0  0  0  0  0  0  0  0
   64.9070   32.8530   47.1450 H   0  0  0  0  0  0  0  0  0  0  0  0
   65.8520   33.2550   49.5960 H   0  0  0  0  0  0  0  0  0  0  0  0
   64.7928   33.9828   51.8653 H   0  0  0  0  0  0  0  0  0  0  0  0
   62.1588   34.3438   51.5006 H   0  0  0  0  0  0  0  0  0  0  0  0
  1  2  1  0
  2  3  1  0
  3  4  2  0
  4  5  1  0
  5  6  1  0
  6  7  1  0
  7  8  1  0
  8  9  1  0
  9 10  1  0
 10 11  1  0
 11 12  1  0
 12 13  1  0
 13 14  1  0
  4 15  1  0
 15 16  2  0
 16 17  1  0
 17 18  1  0
 18 19  1  0
 19 20  2  0
 20 21  1  0
 21  3  1  0
 14  9  1  0
 21 17  2  0
  1 22  1  0
  1 23  1  0
  1 24  1  0
  5 25  1  0
  6 26  1  0
  6 27  1  0
  7 28  1  0
  7 29  1  0
  8 30  1  0
  8 31  1  0
 10 32  1  0
 10 33  1  0
 11 34  1  0
 11 35  1  0
 13 36  1  0
 13 37  1  0
 14 38  1  0
 14 39  1  0
 15 40  1  0
 16 41  1  0
 18 42  1  0
 19 43  1  0
 20 44  1  0
M  CHG  1  16   1
M  END
>  <UniqueID>  (30) 
29

>  <SMILES>  (30) 
COc1c(NCCCN2CCOCC2)c[nH+]c2[nH]ccc12

>  <Energy>  (30) 
92.58816872102285

>  <Genealogy>  (30) 
COc1c(NCCCN2CCOCC2)c[nH+]c2[nH]ccc12 (protonated)
COc1c(NCCCN2CCOCC2)c[nH+]c2[nH]ccc12 (3D coordinates assigned)
COc1c(NCCCN2CCOCC2)c[nH+]c2[nH]ccc12 (nonaromatic ring conformer: 92.58816872102285 kcal/mol)

>  <smiles>  (30) 
COc1c(NCCCN2CCOCC2)cnc2[nH]ccc12

>  <score_type>  (30) 
oracle

>  <origin>  (30) 
adg

>  <m_score__min__energy>  (30) 
-5.6900000000000004

>  <m_primary>  (30) 
energy

$$$$
30:0
     RDKit          3D

 35 38  0  0  0  0  0  0  0  0999 V2000
   56.8480   26.0890   45.6880 C   0  0  0  0  0  0  0  0  0  0  0  0
   58.1550   26.8110   45.3250 C   0  0  1  0  0  0  0  0  0  0  0  0
   57.9350   27.9030   44.2500 C   0  0  0  0  0  0  0  0  0  0  0  0
   57.3620   29.2070   44.8440 C   0  0  2  0  0  0  0  0  0  0  0  0
   56.0480   29.0450   45.3100 O   0  0  0  0  0  0  0  0  0  0  0  0
   57.4330   30.3550   43.8610 C   0  0  0  0  0  0  0  0  0  0  0  0
   56.8150   30.4710   42.6120 C   0  0  0  0  0  0  0  0  0  0  0  0
   57.0250   31.6420   41.8640 C   0  0  0  0  0  0  0  0  0  0  0  0
   57.8460   32.6720   42.3670 C   0  0  0  0  0  0  0  0  0  0  0  0
   58.4610   32.5380   43.6230 C   0  0  0  0  0  0  0  0  0  0  0  0
   58.2280   31.3690   44.3450 C   0  0  0  0  0  0  0  0  0  0  0  0
   58.7340   30.9480   45.6250 C   0  0  0  0  0  0  0  0  0  0  0  0
   59.5640   31.5900   46.3230 O   0  0  0  0  0  0  0  0  0  0  0  0
   58.2210   29.6520   45.9510 N   0  0  0  0  0  0  0  0  0  0  0  0
   58.8040   28.7290   46.8880 C   0  0  0  0  0  0  0  0  0  0  0  0
   59.3570   29.1780   48.1000 C   0  0  0  0  0  0  0  0  0  0  0  0
   59.9540   28.2730   48.9810 C   0  0  0  0  0  0  0  0  0  0  0  0
   59.9980   26.9150   48.6660 C   0  0  0  0  0  0  0  0  0  0  0  0
   59.4330   26.4530   47.4770 C   0  0  0  0  0  0  0  0  0  0  0  0
   58.8240   27.3490   46.5810 C   0  0  0  0  0  0  0  0  0  0  0  0
   56.7506   26.0352   46.7824 H   0  0  0  0  0  0  0  0  0  0  0  0
   55.9946   26.6437   45.2707 H   0  0  0  0  0  0  0  0  0  0  0  0
   56.8632   25.0713   45.2707 H   0  0  0  0  0  0  0  0  0  0  0  0
   58.8402   26.0808   44.8697 H   0  0  0  0  0  0  0  0  0  0  0  0
   58.8998   28.1270   43.7715 H   0  0  0  0  0  0  0  0  0  0  0  0
   57.2048   27.5162   43.5239 H   0  0  0  0  0  0  0  0  0  0  0  0
   55.8830   29.7480   45.9930 H   0  0  0  0  0  0  0  0  0  0  0  0
   56.1780   29.6628   42.2233 H   0  0  0  0  0  0  0  0  0  0  0  0
   56.5461   31.7557   40.8803 H   0  0  0  0  0  0  0  0  0  0  0  0
   58.0057   33.5843   41.7735 H   0  0  0  0  0  0  0  0  0  0  0  0
   59.1073   33.3323   44.0247 H   0  0  0  0  0  0  0  0  0  0  0  0
   59.3194   30.2472   48.3559 H   0  0  0  0  0  0  0  0  0  0  0  0
   60.3902   28.6321   49.9248 H   0  0  0  0  0  0  0  0  0  0  0  0
   60.4792   26.2067   49.3565 H   0  0  0  0  0  0  0  0  0  0  0  0
   59.4643   25.3796   47.2388 H   0  0  0  0  0  0  0  0  0  0  0  0
  1  2  1  0
  2  3  1  0
  3  4  1  0
  4  5  1  1
  4  6  1  0
  6  7  2  0
  7  8  1  0
  8  9  2  0
  9 10  1  0
 10 11  2  0
 11 12  1  0
 12 13  2  0
 12 14  1  0
 14 15  1  0
 15 16  2  0
 16 17  1  0
 17 18  2  0
 18 19  1  0
 19 20  2  0
 20  2  1  0
 14  4  1  0
 20 15  1  0
 11  6  1  0
  1 21  1  0
  1 22  1  0
  1 23  1  0
  2 24  1  6
  3 25  1  0
  3 26  1  0
  5 27  1  0
  7 28  1  0
  8 29  1  0
  9 30  1  0
 10 31  1  0
 16 32  1  0
 17 33  1  0
 18 34  1  0
 19 35  1  0
M  END
>  <UniqueID>  (31) 
30

>  <SMILES>  (31) 
C[C@H]1C[C@]2(O)c3ccccc3C(=O)N2c2ccccc21

>  <Energy>  (31) 
66.05799378850199

>  <Genealogy>  (31) 
C[C@H]1C[C@]2(O)c3ccccc3C(=O)N2c2ccccc21 (chirality)
C[C@H]1C[C@]2(O)c3ccccc3C(=O)N2c2ccccc21 (3D coordinates assigned)
C[C@H]1C[C@]2(O)c3ccccc3C(=O)N2c2ccccc21 (nonaromatic ring conformer: 66.05799378850199 kcal/mol)

>  <smiles>  (31) 
CC1CC2(O)c3ccccc3C(=O)N2c2ccccc21

>  <score_type>  (31) 
oracle

>  <origin>  (31) 
adg

>  <m_score__min__energy>  (31) 
-7.5999999999999996

>  <m_primary>  (31) 
energy

$$$$
31:0
     RDKit          3D

 38 39  0  0  0  0  0  0  0  0999 V2000
   60.0270   33.8030   50.1340 C   0  0  0  0  0  0  0  0  0  0  0  0
   61.4590   34.1400   49.7180 C   0  0  0  0  0  0  0  0  0  0  0  0
   61.7170   33.7230   48.3290 N   0  0  0  0  0  0  0  0  0  0  0  0
   63.1100   33.4230   47.9540 C   0  0  0  0  0  0  0  0  0  0  0  0
   63.3740   33.7850   46.4930 C   0  0  0  0  0  0  0  0  0  0  0  0
   60.6340   33.6070   47.3620 C   0  0  0  0  0  0  0  0  0  0  0  0
   60.1950   34.7270   46.6280 C   0  0  0  0  0  0  0  0  0  0  0  0
   59.1640   34.6150   45.6960 C   0  0  0  0  0  0  0  0  0  0  0  0
   58.5400   33.3820   45.4650 C   0  0  0  0  0  0  0  0  0  0  0  0
   58.9390   32.2500   46.2080 C   0  0  0  0  0  0  0  0  0  0  0  0
   59.9920   32.3710   47.1330 C   0  0  0  0  0  0  0  0  0  0  0  0
   58.3050   30.8840   45.9900 C   0  0  0  0  0  0  0  0  0  0  0  0
   58.3750   30.3080   44.5470 C   0  0  0  0  0  0  0  0  0  0  0  0
   57.4360   30.9290   43.6000 N   0  0  0  0  0  0  0  0  0  0  0  0
   57.7420   32.3430   43.3200 C   0  0  0  0  0  0  0  0  0  0  0  0
   57.4060   33.2960   44.4790 C   0  0  0  0  0  0  0  0  0  0  0  0
   59.9583   33.7868   51.2317 H   0  0  0  0  0  0  0  0  0  0  0  0
   59.3405   34.5641   49.7348 H   0  0  0  0  0  0  0  0  0  0  0  0
   59.7519   32.8156   49.7348 H   0  0  0  0  0  0  0  0  0  0  0  0
   61.6118   35.2261   49.8018 H   0  0  0  0  0  0  0  0  0  0  0  0
   62.1525   33.6011   50.3803 H   0  0  0  0  0  0  0  0  0  0  0  0
   63.7885   34.0033   48.5966 H   0  0  0  0  0  0  0  0  0  0  0  0
   63.2836   32.3447   48.0847 H   0  0  0  0  0  0  0  0  0  0  0  0
   64.0216   34.6730   46.4465 H   0  0  0  0  0  0  0  0  0  0  0  0
   63.8709   32.9421   45.9904 H   0  0  0  0  0  0  0  0  0  0  0  0
   62.4196   34.0005   45.9904 H   0  0  0  0  0  0  0  0  0  0  0  0
   60.6728   35.7040   46.7928 H   0  0  0  0  0  0  0  0  0  0  0  0
   58.8372   35.5038   45.1363 H   0  0  0  0  0  0  0  0  0  0  0  0
   60.3225   31.4822   47.6905 H   0  0  0  0  0  0  0  0  0  0  0  0
   58.8091   30.1711   46.6591 H   0  0  0  0  0  0  0  0  0  0  0  0
   57.2335   31.0246   46.1953 H   0  0  0  0  0  0  0  0  0  0  0  0
   59.3963   30.4562   44.1663 H   0  0  0  0  0  0  0  0  0  0  0  0
   58.0944   29.2468   44.6180 H   0  0  0  0  0  0  0  0  0  0  0  0
   56.4460   30.8160   43.9220 H   0  0  0  0  0  0  0  0  0  0  0  0
   58.8170   32.4280   43.1026 H   0  0  0  0  0  0  0  0  0  0  0  0
   57.1132   32.6426   42.4686 H   0  0  0  0  0  0  0  0  0  0  0  0
   57.2085   34.2987   44.0722 H   0  0  0  0  0  0  0  0  0  0  0  0
   56.5206   32.9061   45.0025 H   0  0  0  0  0  0  0  0  0  0  0  0
  1  2  1  0
  2  3  1  0
  3  4  1  0
  4  5  1  0
  3  6  1  0
  6  7  2  0
  7  8  1  0
  8  9  2  0
  9 10  1  0
 10 11  2  0
 10 12  1  0
 12 13  1  0
 13 14  1  0
 14 15  1  0
 15 16  1  0
 11  6  1  0
 16  9  1  0
  1 17  1  0
  1 18  1  0
  1 19  1  0
  2 20  1  0
  2 21  1  0
  4 22  1  0
  4 23  1  0
  5 24  1  0
  5 25  1  0
  5 26  1  0
  7 27  1  0
  8 28  1  0
 11 29  1  0
 12 30  1  0
 12 31  1  0
 13 32  1  0
 13 33  1  0
 14 34  1  0
 15 35  1  0
 15 36  1  0
 16 37  1  0
 16 38  1  0
M  END
>  <UniqueID>  (32) 
31

>  <SMILES>  (32) 
CCN(CC)c1ccc2c(c1)CCNCC2

>  <Energy>  (32) 
46.75843801552298

>  <Genealogy>  (32) 
CCN(CC)c1ccc2c(c1)CCNCC2 (3D coordinates assigned)
CCN(CC)c1ccc2c(c1)CCNCC2 (nonaromatic ring conformer: 46.75843801552298 kcal/mol)

>  <smiles>  (32) 
CCN(CC)c1ccc2c(c1)CCNCC2

>  <score_type>  (32) 
oracle

>  <origin>  (32) 
adg

>  <m_score__min__energy>  (32) 
-4.0099999999999998

>  <m_primary>  (32) 
energy

$$$$
32:0
     RDKit          3D

 49 52  0  0  0  0  0  0  0  0999 V2000
   56.3010   22.7870   41.9070 H   0  0  0  0  0  0  0  0  0  0  0  0
   55.8220   22.3270   42.6720 O   0  0  0  0  0  0  0  0  0  0  0  0
   55.5340   23.0120   43.8480 C   0  0  0  0  0  0  0  0  0  0  0  0
   54.5430   22.6480   44.6850 N   0  0  0  0  0  0  0  0  0  0  0  0
   54.5830   23.5460   45.6900 C   0  0  0  0  0  0  0  0  0  0  0  0
   53.9018   23.5489   46.5537 H   0  0  0  0  0  0  0  0  0  0  0  0
   55.5970   24.4620   45.4860 C   0  0  0  0  0  0  0  0  0  0  0  0
   55.9390   25.6280   46.3730 C   0  0  1  0  0  0  0  0  0  0  0  0
   55.7756   25.3359   47.4209 H   0  0  0  0  0  0  0  0  0  0  0  0
   57.3380   26.0110   46.1870 N   0  0  0  0  0  0  0  0  0  0  0  0
   57.7830   27.2340   46.1500 C   0  0  0  0  0  0  0  0  0  0  0  0
   58.5760   27.7470   47.1070 N   0  0  0  0  0  0  0  0  0  0  0  0
   58.8350   29.0030   46.7760 N   0  0  0  0  0  0  0  0  0  0  0  0
   59.7220   29.8360   47.5410 C   0  0  0  0  0  0  0  0  0  0  0  0
   59.3310   30.3510   48.7880 C   0  0  0  0  0  0  0  0  0  0  0  0
   58.3381   30.1073   49.1939 H   0  0  0  0  0  0  0  0  0  0  0  0
   60.1980   31.1720   49.5160 C   0  0  0  0  0  0  0  0  0  0  0  0
   59.8868   31.5600   50.4971 H   0  0  0  0  0  0  0  0  0  0  0  0
   61.4590   31.5040   49.0060 C   0  0  0  0  0  0  0  0  0  0  0  0
   62.2930   32.3280   49.7770 O   0  0  0  0  0  0  0  0  0  0  0  0
   63.1740   33.3060   49.2380 C   0  0  0  0  0  0  0  0  0  0  0  0
   63.6641   33.8501   50.0588 H   0  0  0  0  0  0  0  0  0  0  0  0
   63.9369   32.8110   48.6192 H   0  0  0  0  0  0  0  0  0  0  0  0
   62.6023   34.0132   48.6192 H   0  0  0  0  0  0  0  0  0  0  0  0
   61.8430   31.0060   47.7470 C   0  0  0  0  0  0  0  0  0  0  0  0
   62.8293   31.2636   47.3338 H   0  0  0  0  0  0  0  0  0  0  0  0
   60.9760   30.1850   47.0190 C   0  0  0  0  0  0  0  0  0  0  0  0
   61.2797   29.8104   46.0303 H   0  0  0  0  0  0  0  0  0  0  0  0
   58.2030   29.3020   45.6120 C   0  0  0  0  0  0  0  0  0  0  0  0
   58.1430   30.6290   44.9600 C   0  0  0  0  0  0  0  0  0  0  0  0
   57.7340   30.7510   43.6240 C   0  0  0  0  0  0  0  0  0  0  0  0
   57.4332   29.8561   43.0595 H   0  0  0  0  0  0  0  0  0  0  0  0
   57.7070   32.0040   43.0070 C   0  0  0  0  0  0  0  0  0  0  0  0
   57.3807   32.0929   41.9603 H   0  0  0  0  0  0  0  0  0  0  0  0
   58.0930   33.1440   43.7150 C   0  0  0  0  0  0  0  0  0  0  0  0
   58.0793   34.1260   43.2196 H   0  0  0  0  0  0  0  0  0  0  0  0
   58.4990   33.0440   45.0570 C   0  0  0  0  0  0  0  0  0  0  0  0
   58.9700   34.2650   45.8060 C   0  0  0  0  0  0  0  0  0  0  0  0
   58.1290   34.5430   46.8700 F   0  0  0  0  0  0  0  0  0  0  0  0
   58.9840   35.3480   44.9480 F   0  0  0  0  0  0  0  0  0  0  0  0
   60.2460   34.0680   46.3050 F   0  0  0  0  0  0  0  0  0  0  0  0
   58.5480   31.7760   45.6630 C   0  0  0  0  0  0  0  0  0  0  0  0
   58.9072   31.6812   46.6984 H   0  0  0  0  0  0  0  0  0  0  0  0
   57.5240   28.1800   45.1730 C   0  0  0  0  0  0  0  0  0  0  0  0
   56.9196   28.0659   44.2610 H   0  0  0  0  0  0  0  0  0  0  0  0
   55.1250   26.7200   46.0410 O   0  0  0  0  0  0  0  0  0  0  0  0
   55.2670   27.4070   46.7440 H   0  0  0  0  0  0  0  0  0  0  0  0
   56.2090   24.1270   44.2970 C   0  0  0  0  0  0  0  0  0  0  0  0
   57.0532   24.6386   43.8116 H   0  0  0  0  0  0  0  0  0  0  0  0
  1  2  1  0
  2  3  1  0
  3  4  1  0
  4  5  1  0
  5  6  1  0
  5  7  2  0
  7  8  1  0
  8  9  1  1
  8 10  1  0
 10 11  2  0
 11 12  1  0
 12 13  1  0
 13 14  1  0
 14 15  2  0
 15 16  1  0
 15 17  1  0
 17 18  1  0
 17 19  2  0
 19 20  1  0
 20 21  1  0
 21 22  1  0
 21 23  1  0
 21 24  1  0
 19 25  1  0
 25 26  1  0
 25 27  2  0
 27 28  1  0
 13 29  1  0
 29 30  1  0
 30 31  2  0
 31 32  1  0
 31 33  1  0
 33 34  1  0
 33 35  2  0
 35 36  1  0
 35 37  1  0
 37 38  1  0
 38 39  1  0
 38 40  1  0
 38 41  1  0
 37 42  2  0
 42 43  1  0
 29 44  2  0
 44 45  1  0
  8 46  1  0
 46 47  1  0
  7 48  1  0
 48 49  1  0
 48  3  2  0
 44 11  1  0
 27 14  1  0
 42 30  1  0
M  CHG  2   4  -1  12  -1
M  END
>  <UniqueID>  (33) 
32

>  <SMILES>  (33) 
COc1ccc(-n2[n-]/c(=N/[C@@H](O)c3c[n-]c(O)c3)cc2-c2cccc(C(F)(F)F)c2)cc1

>  <Energy>  (33) 
116.94394584653736

>  <Genealogy>  (33) 
COc1ccc(-n2[n-]c(=NC(O)c3c[n-]c(O)c3)cc2-c2cccc(C(F)(F)F)c2)cc1 (protonated)
COc1ccc(-n2[n-]c(=N[C@@H](O)c3c[n-]c(O)c3)cc2-c2cccc(C(F)(F)F)c2)cc1 (chirality)
COc1ccc(-n2[n-]/c(=N/[C@@H](O)c3c[n-]c(O)c3)cc2-c2cccc(C(F)(F)F)c2)cc1 (cis-trans isomerization)
COc1ccc(-n2[n-]/c(=N/[C@@H](O)c3c[n-]c(O)c3)cc2-c2cccc(C(F)(F)F)c2)cc1 (3D coordinates assigned)
COc1ccc(-n2[n-]/c(=N/[C@@H](O)c3c[n-]c(O)c3)cc2-c2cccc(C(F)(F)F)c2)cc1 (optimized conformer: 116.94394584653736 kcal/mol)

>  <smiles>  (33) 
COc1ccc(-n2[nH]c(=NC(O)c3c[nH]c(O)c3)cc2-c2cccc(C(F)(F)F)c2)cc1

>  <score_type>  (33) 
oracle

>  <origin>  (33) 
adg

>  <m_score__min__energy>  (33) 
-12.039999999999999

>  <m_primary>  (33) 
energy

$$$$
33:0
     RDKit          3D

 48 51  0  0  0  0  0  0  0  0999 V2000
   56.6000   29.6550   44.1280 C   0  0  0  0  0  0  0  0  0  0  0  0
   56.7250   30.5800   45.2030 O   0  0  0  0  0  0  0  0  0  0  0  0
   57.4290   31.7920   45.1280 C   0  0  0  0  0  0  0  0  0  0  0  0
   57.8280   32.2510   43.8690 C   0  0  0  0  0  0  0  0  0  0  0  0
   58.5280   33.4540   43.7430 C   0  0  0  0  0  0  0  0  0  0  0  0
   58.8340   34.2100   44.8760 C   0  0  0  0  0  0  0  0  0  0  0  0
   58.4450   33.7640   46.1490 C   0  0  0  0  0  0  0  0  0  0  0  0
   58.7460   34.5860   47.3730 C   0  0  0  0  0  0  0  0  0  0  0  0
   59.8300   33.9730   48.1410 N   0  0  0  0  0  0  0  0  0  0  0  0
   59.7660   33.5970   49.4420 C   0  0  0  0  0  0  0  0  0  0  0  0
   61.0020   33.1400   49.8810 C   0  0  0  0  0  0  0  0  0  0  0  0
   61.8440   33.2510   48.7910 C   0  0  0  0  0  0  0  0  0  0  0  0
   63.2090   32.9760   48.6600 C   0  0  0  0  0  0  0  0  0  0  0  0
   63.9710   32.4330   49.7480 N   0  0  0  0  0  0  0  0  0  0  0  0
   63.4920   31.2150   50.4090 C   0  0  0  0  0  0  0  0  0  0  0  0
   64.4180   30.8250   51.5670 C   0  0  0  0  0  0  0  0  0  0  0  0
   64.8400   32.0270   52.2960 N   0  0  0  0  0  0  0  0  0  0  0  0
   65.6940   32.9120   51.4770 C   0  0  0  0  0  0  0  0  0  0  0  0
   65.3430   32.8980   49.9730 C   0  0  0  0  0  0  0  0  0  0  0  0
   63.8180   33.2610   47.4190 C   0  0  0  0  0  0  0  0  0  0  0  0
   63.0590   33.7910   46.3550 C   0  0  0  0  0  0  0  0  0  0  0  0
   61.6870   34.0510   46.5150 C   0  0  0  0  0  0  0  0  0  0  0  0
   61.1060   33.7700   47.7550 C   0  0  0  0  0  0  0  0  0  0  0  0
   57.7420   32.5550   46.2710 C   0  0  0  0  0  0  0  0  0  0  0  0
   56.4629   28.6407   44.5311 H   0  0  0  0  0  0  0  0  0  0  0  0
   55.7302   29.9251   43.5112 H   0  0  0  0  0  0  0  0  0  0  0  0
   57.5103   29.6845   43.5112 H   0  0  0  0  0  0  0  0  0  0  0  0
   57.5893   31.6613   42.9717 H   0  0  0  0  0  0  0  0  0  0  0  0
   58.8387   33.8062   42.7483 H   0  0  0  0  0  0  0  0  0  0  0  0
   59.3817   35.1582   44.7709 H   0  0  0  0  0  0  0  0  0  0  0  0
   59.0464   35.5985   47.0655 H   0  0  0  0  0  0  0  0  0  0  0  0
   57.8448   34.6355   48.0019 H   0  0  0  0  0  0  0  0  0  0  0  0
   58.8602   33.6470   50.0641 H   0  0  0  0  0  0  0  0  0  0  0  0
   61.2568   32.7682   50.8844 H   0  0  0  0  0  0  0  0  0  0  0  0
   62.4793   31.3914   50.8005 H   0  0  0  0  0  0  0  0  0  0  0  0
   63.4809   30.3960   49.6748 H   0  0  0  0  0  0  0  0  0  0  0  0
   63.8815   30.1524   52.2524 H   0  0  0  0  0  0  0  0  0  0  0  0
   65.3058   30.3152   51.1647 H   0  0  0  0  0  0  0  0  0  0  0  0
   63.9930   32.5550   52.6140 H   0  0  0  0  0  0  0  0  0  0  0  0
   65.3730   31.7340   53.1490 H   0  0  0  0  0  0  0  0  0  0  0  0
   65.5847   33.9413   51.8493 H   0  0  0  0  0  0  0  0  0  0  0  0
   66.7246   32.5386   51.5694 H   0  0  0  0  0  0  0  0  0  0  0  0
   65.4457   33.9172   49.5721 H   0  0  0  0  0  0  0  0  0  0  0  0
   66.0306   32.2069   49.4636 H   0  0  0  0  0  0  0  0  0  0  0  0
   64.8921   33.0684   47.2807 H   0  0  0  0  0  0  0  0  0  0  0  0
   63.5451   34.0028   45.3912 H   0  0  0  0  0  0  0  0  0  0  0  0
   61.0884   34.4632   45.6893 H   0  0  0  0  0  0  0  0  0  0  0  0
   57.4333   32.2007   47.2656 H   0  0  0  0  0  0  0  0  0  0  0  0
  1  2  1  0
  2  3  1  0
  3  4  2  0
  4  5  1  0
  5  6  2  0
  6  7  1  0
  7  8  1  0
  8  9  1  0
  9 10  1  0
 10 11  2  0
 11 12  1  0
 12 13  2  0
 13 14  1  0
 14 15  1  0
 15 16  1  0
 16 17  1  0
 17 18  1  0
 18 19  1  0
 13 20  1  0
 20 21  2  0
 21 22  1  0
 22 23  2  0
  7 24  2  0
 24  3  1  0
 23  9  1  0
 23 12  1  0
 19 14  1  0
  1 25  1  0
  1 26  1  0
  1 27  1  0
  4 28  1  0
  5 29  1  0
  6 30  1  0
  8 31  1  0
  8 32  1  0
 10 33  1  0
 11 34  1  0
 15 35  1  0
 15 36  1  0
 16 37  1  0
 16 38  1  0
 17 39  1  0
 17 40  1  0
 18 41  1  0
 18 42  1  0
 19 43  1  0
 19 44  1  0
 20 45  1  0
 21 46  1  0
 22 47  1  0
 24 48  1  0
M  CHG  1  17   1
M  END
>  <UniqueID>  (34) 
33

>  <SMILES>  (34) 
COc1cccc(Cn2ccc3c(N4CC[NH2+]CC4)cccc32)c1

>  <Energy>  (34) 
90.31798210400402

>  <Genealogy>  (34) 
COc1cccc(Cn2ccc3c(N4CC[NH2+]CC4)cccc32)c1 (protonated)
COc1cccc(Cn2ccc3c(N4CC[NH2+]CC4)cccc32)c1 (3D coordinates assigned)
COc1cccc(Cn2ccc3c(N4CC[NH2+]CC4)cccc32)c1 (nonaromatic ring conformer: 90.31798210400402 kcal/mol)

>  <smiles>  (34) 
COc1cccc(Cn2ccc3c(N4CCNCC4)cccc32)c1

>  <score_type>  (34) 
oracle

>  <origin>  (34) 
adg

>  <m_score__min__energy>  (34) 
-6.6600000000000001

>  <m_primary>  (34) 
energy

$$$$
34:0
     RDKit          3D

 38 39  0  0  0  0  0  0  0  0999 V2000
   56.6780   30.6340   43.2610 C   0  0  0  0  0  0  0  0  0  0  0  0
   56.6470   29.7080   44.4400 C   0  0  0  0  0  0  0  0  0  0  0  0
   55.5230   29.3400   44.8810 O   0  0  0  0  0  0  0  0  0  0  0  0
   57.8620   29.2570   45.0810 N   0  0  0  0  0  0  0  0  0  0  0  0
   59.1740   29.6100   44.5090 C   0  0  0  0  0  0  0  0  0  0  0  0
   60.3270   29.2710   45.4670 C   0  0  0  0  0  0  0  0  0  0  0  0
   59.9460   29.5780   46.9280 C   0  0  0  0  0  0  0  0  0  0  0  0
   59.7030   31.0310   47.1170 N   0  0  0  0  0  0  0  0  0  0  0  0
   60.9300   31.8050   47.1120 C   0  0  0  0  0  0  0  0  0  0  0  0
   62.1300   31.1870   47.5170 C   0  0  0  0  0  0  0  0  0  0  0  0
   63.3320   31.8960   47.5330 C   0  0  0  0  0  0  0  0  0  0  0  0
   63.3610   33.2290   47.1320 C   0  0  0  0  0  0  0  0  0  0  0  0
   62.1930   33.8560   46.7010 C   0  0  0  0  0  0  0  0  0  0  0  0
   60.9690   33.1630   46.6810 C   0  0  0  0  0  0  0  0  0  0  0  0
   59.7480   33.8720   46.1490 C   0  0  0  0  0  0  0  0  0  0  0  0
   58.7310   28.7100   47.3580 C   0  0  0  0  0  0  0  0  0  0  0  0
   57.8040   28.2980   46.1960 C   0  0  0  0  0  0  0  0  0  0  0  0
   56.7129   31.6754   43.6135 H   0  0  0  0  0  0  0  0  0  0  0  0
   57.5696   30.4229   42.6523 H   0  0  0  0  0  0  0  0  0  0  0  0
   55.7743   30.4830   42.6523 H   0  0  0  0  0  0  0  0  0  0  0  0
   59.3149   29.0521   43.5715 H   0  0  0  0  0  0  0  0  0  0  0  0
   59.1871   30.6953   44.3305 H   0  0  0  0  0  0  0  0  0  0  0  0
   60.5665   28.2013   45.3758 H   0  0  0  0  0  0  0  0  0  0  0  0
   61.1970   29.8876   45.1970 H   0  0  0  0  0  0  0  0  0  0  0  0
   60.7879   29.3122   47.5842 H   0  0  0  0  0  0  0  0  0  0  0  0
   59.1520   31.1910   47.9880 H   0  0  0  0  0  0  0  0  0  0  0  0
   59.1100   31.3810   46.3270 H   0  0  0  0  0  0  0  0  0  0  0  0
   62.1191   30.1310   47.8248 H   0  0  0  0  0  0  0  0  0  0  0  0
   64.2574   31.4012   47.8628 H   0  0  0  0  0  0  0  0  0  0  0  0
   64.3077   33.7886   47.1554 H   0  0  0  0  0  0  0  0  0  0  0  0
   62.2289   34.9052   46.3726 H   0  0  0  0  0  0  0  0  0  0  0  0
   59.1351   34.2279   46.9902 H   0  0  0  0  0  0  0  0  0  0  0  0
   60.0604   34.7292   45.5345 H   0  0  0  0  0  0  0  0  0  0  0  0
   59.1584   33.1758   45.5345 H   0  0  0  0  0  0  0  0  0  0  0  0
   59.1125   27.7955   47.8356 H   0  0  0  0  0  0  0  0  0  0  0  0
   58.1274   29.3275   48.0395 H   0  0  0  0  0  0  0  0  0  0  0  0
   58.1118   27.3076   45.8295 H   0  0  0  0  0  0  0  0  0  0  0  0
   56.7714   28.2775   46.5746 H   0  0  0  0  0  0  0  0  0  0  0  0
  1  2  1  0
  2  3  2  0
  2  4  1  0
  4  5  1  0
  5  6  1  0
  6  7  1  0
  7  8  1  0
  8  9  1  0
  9 10  2  0
 10 11  1  0
 11 12  2  0
 12 13  1  0
 13 14  2  0
 14 15  1  0
  7 16  1  0
 16 17  1  0
 17  4  1  0
 14  9  1  0
  1 18  1  0
  1 19  1  0
  1 20  1  0
  5 21  1  0
  5 22  1  0
  6 23  1  0
  6 24  1  0
  7 25  1  0
  8 26  1  0
  8 27  1  0
 10 28  1  0
 11 29  1  0
 12 30  1  0
 13 31  1  0
 15 32  1  0
 15 33  1  0
 15 34  1  0
 16 35  1  0
 16 36  1  0
 17 37  1  0
 17 38  1  0
M  CHG  1   8   1
M  END
>  <UniqueID>  (35) 
34

>  <SMILES>  (35) 
CC(=O)N1CCC([NH2+]c2ccccc2C)CC1

>  <Energy>  (35) 
43.98630808051495

>  <Genealogy>  (35) 
CC(=O)N1CCC([NH2+]c2ccccc2C)CC1 (protonated)
CC(=O)N1CCC([NH2+]c2ccccc2C)CC1 (3D coordinates assigned)
CC(=O)N1CCC([NH2+]c2ccccc2C)CC1 (nonaromatic ring conformer: 43.98630808051495 kcal/mol)

>  <smiles>  (35) 
CC(=O)N1CCC(Nc2ccccc2C)CC1

>  <score_type>  (35) 
oracle

>  <origin>  (35) 
adg

>  <m_score__min__energy>  (35) 
-5.2400000000000002

>  <m_primary>  (35) 
energy

$$$$
35:0
     RDKit          3D

 37 38  0  0  0  0  0  0  0  0999 V2000
   56.7150   30.8303   41.4139 H   0  0  0  0  0  0  0  0  0  0  0  0
   56.7920   30.8120   42.5110 C   0  0  0  0  0  0  0  0  0  0  0  0
   56.2900   29.7620   43.2090 N   0  0  0  0  0  0  0  0  0  0  0  0
   56.3750   29.7190   44.5660 C   0  0  0  0  0  0  0  0  0  0  0  0
   55.9080   28.7060   45.2350 N   0  0  0  0  0  0  0  0  0  0  0  0
   56.6330   27.4610   45.4870 C   0  0  0  0  0  0  0  0  0  0  0  0
   56.4137   26.7491   44.6776 H   0  0  0  0  0  0  0  0  0  0  0  0
   56.3064   27.0608   46.4582 H   0  0  0  0  0  0  0  0  0  0  0  0
   58.1460   27.6970   45.5470 C   0  0  0  0  0  0  0  0  0  0  0  0
   58.4223   28.4465   44.7907 H   0  0  0  0  0  0  0  0  0  0  0  0
   58.6550   26.7417   45.3513 H   0  0  0  0  0  0  0  0  0  0  0  0
   58.5690   28.1930   46.9090 C   0  0  0  0  0  0  0  0  0  0  0  0
   58.1400   27.5740   47.9210 O   0  0  0  0  0  0  0  0  0  0  0  0
   59.4010   29.3610   47.0880 N   0  0  0  0  0  0  0  0  0  0  0  0
   59.5450   29.9250   48.4340 C   0  0  0  0  0  0  0  0  0  0  0  0
   59.3455   29.1437   49.1822 H   0  0  0  0  0  0  0  0  0  0  0  0
   60.5690   30.3050   48.5647 H   0  0  0  0  0  0  0  0  0  0  0  0
   58.8285   30.7494   48.5647 H   0  0  0  0  0  0  0  0  0  0  0  0
   60.1300   29.9600   45.9650 C   0  0  0  0  0  0  0  0  0  0  0  0
   60.9257   30.6138   46.3514 H   0  0  0  0  0  0  0  0  0  0  0  0
   60.5757   29.1638   45.3507 H   0  0  0  0  0  0  0  0  0  0  0  0
   59.4353   30.5516   45.3507 H   0  0  0  0  0  0  0  0  0  0  0  0
   56.9650   30.7420   45.2360 N   0  0  0  0  0  0  0  0  0  0  0  0
   57.4790   31.8230   44.5850 C   0  0  0  0  0  0  0  0  0  0  0  0
   58.1250   32.9050   45.3710 C   0  0  0  0  0  0  0  0  0  0  0  0
   58.1760   32.8620   46.7790 C   0  0  0  0  0  0  0  0  0  0  0  0
   57.7244   32.0150   47.3162 H   0  0  0  0  0  0  0  0  0  0  0  0
   58.7970   33.8890   47.4980 C   0  0  0  0  0  0  0  0  0  0  0  0
   58.8289   33.8482   48.5968 H   0  0  0  0  0  0  0  0  0  0  0  0
   59.3760   34.9650   46.8240 C   0  0  0  0  0  0  0  0  0  0  0  0
   59.8601   35.7732   47.3918 H   0  0  0  0  0  0  0  0  0  0  0  0
   59.3410   35.0160   45.4290 C   0  0  0  0  0  0  0  0  0  0  0  0
   59.7998   35.8635   44.8986 H   0  0  0  0  0  0  0  0  0  0  0  0
   58.7240   33.9920   44.7060 C   0  0  0  0  0  0  0  0  0  0  0  0
   58.7060   34.0354   43.6070 H   0  0  0  0  0  0  0  0  0  0  0  0
   57.4050   31.8670   43.1840 C   0  0  0  0  0  0  0  0  0  0  0  0
   57.8233   32.7187   42.6275 H   0  0  0  0  0  0  0  0  0  0  0  0
  1  2  1  0
  2  3  1  0
  3  4  1  0
  4  5  2  0
  5  6  1  0
  6  7  1  0
  6  8  1  0
  6  9  1  0
  9 10  1  0
  9 11  1  0
  9 12  1  0
 12 13  2  0
 12 14  1  0
 14 15  1  0
 15 16  1  0
 15 17  1  0
 15 18  1  0
 14 19  1  0
 19 20  1  0
 19 21  1  0
 19 22  1  0
  4 23  1  0
 23 24  2  0
 24 25  1  0
 25 26  2  0
 26 27  1  0
 26 28  1  0
 28 29  1  0
 28 30  2  0
 30 31  1  0
 30 32  1  0
 32 33  1  0
 32 34  2  0
 34 35  1  0
 24 36  1  0
 36 37  1  0
 36  2  2  0
 34 25  1  0
M  CHG  1   3  -1
M  END
>  <UniqueID>  (36) 
35

>  <SMILES>  (36) 
CN(C)C(=O)CC/N=c1/nc(-c2ccccc2)cc[n-]1

>  <Energy>  (36) 
36.82246321413174

>  <Genealogy>  (36) 
CN(C)C(=O)CCN=c1nc(-c2ccccc2)cc[n-]1 (protonated)
CN(C)C(=O)CC/N=c1/nc(-c2ccccc2)cc[n-]1 (cis-trans isomerization)
CN(C)C(=O)CC/N=c1/nc(-c2ccccc2)cc[n-]1 (3D coordinates assigned)
CN(C)C(=O)CC/N=c1/nc(-c2ccccc2)cc[n-]1 (optimized conformer: 36.82246321413174 kcal/mol)

>  <smiles>  (36) 
CN(C)C(=O)CCN=c1nc(-c2ccccc2)cc[nH]1

>  <score_type>  (36) 
oracle

>  <origin>  (36) 
adg

>  <m_score__min__energy>  (36) 
-9.4600000000000009

>  <m_primary>  (36) 
energy

$$$$
36:0
     RDKit          2D

 37 40  0  0  0  0  0  0  0  0999 V2000
    3.7500   -1.2990    0.0000 C   0  0  0  0  0  0  0  0  0  0  0  0
    3.0000    0.0000    0.0000 O   0  0  0  0  0  0  0  0  0  0  0  0
    1.5000    0.0000    0.0000 C   0  0  0  0  0  0  0  0  0  0  0  0
    0.7500   -1.2990    0.0000 C   0  0  0  0  0  0  0  0  0  0  0  0
   -0.7500   -1.2990    0.0000 C   0  0  0  0  0  0  0  0  0  0  0  0
   -1.5000    0.0000    0.0000 C   0  0  0  0  0  0  0  0  0  0  0  0
   -0.7500    1.2990    0.0000 C   0  0  0  0  0  0  0  0  0  0  0  0
   -1.5000    2.5981    0.0000 C   0  0  0  0  0  0  0  0  0  0  0  0
   -3.0000    2.5981    0.0000 C   0  0  0  0  0  0  0  0  0  0  0  0
   -3.7500    1.2990    0.0000 C   0  0  0  0  0  0  0  0  0  0  0  0
   -5.2500    1.2990    0.0000 C   0  0  0  0  0  0  0  0  0  0  0  0
   -6.0000   -0.0000    0.0000 C   0  0  0  0  0  0  0  0  0  0  0  0
   -5.2500   -1.2990    0.0000 C   0  0  0  0  0  0  0  0  0  0  0  0
   -6.0000   -2.5981    0.0000 C   0  0  0  0  0  0  0  0  0  0  0  0
   -5.2500   -3.8971    0.0000 C   0  0  0  0  0  0  0  0  0  0  0  0
   -3.7500   -3.8971    0.0000 C   0  0  0  0  0  0  0  0  0  0  0  0
   -3.0000   -2.5981    0.0000 N   0  0  0  0  0  0  0  0  0  0  0  0
   -1.5000   -2.5981    0.0000 C   0  0  0  0  0  0  0  0  0  0  0  0
   -3.7500   -1.2990    0.0000 C   0  0  0  0  0  0  0  0  0  0  0  0
   -3.0000    0.0000    0.0000 C   0  0  0  0  0  0  0  0  0  0  0  0
    0.7500    1.2990    0.0000 C   0  0  0  0  0  0  0  0  0  0  0  0
    4.5000   -2.5981    0.0000 H   0  0  0  0  0  0  0  0  0  0  0  0
    5.0490   -0.5490    0.0000 H   0  0  0  0  0  0  0  0  0  0  0  0
    2.4510   -2.0490    0.0000 H   0  0  0  0  0  0  0  0  0  0  0  0
    1.5000   -2.5981    0.0000 H   0  0  0  0  0  0  0  0  0  0  0  0
   -0.9697   -2.0653    0.0000 H   0  0  0  0  0  0  0  0  0  0  0  0
   -0.7500    3.8971    0.0000 H   0  0  0  0  0  0  0  0  0  0  0  0
   -3.7500    3.8971    0.0000 H   0  0  0  0  0  0  0  0  0  0  0  0
   -6.0000    2.5981    0.0000 H   0  0  0  0  0  0  0  0  0  0  0  0
   -7.5000   -0.0000    0.0000 H   0  0  0  0  0  0  0  0  0  0  0  0
   -7.5000   -2.5981    0.0000 H   0  0  0  0  0  0  0  0  0  0  0  0
   -6.0000   -5.1962    0.0000 H   0  0  0  0  0  0  0  0  0  0  0  0
   -3.0000   -5.1962    0.0000 H   0  0  0  0  0  0  0  0  0  0  0  0
   -0.0000   -2.5981    0.0000 H   0  0  0  0  0  0  0  0  0  0  0  0
   -1.5000   -4.0981    0.0000 H   0  0  0  0  0  0  0  0  0  0  0  0
   -1.8630   -1.1427    0.0000 H   0  0  0  0  0  0  0  0  0  0  0  0
    1.5000    2.5981    0.0000 H   0  0  0  0  0  0  0  0  0  0  0  0
  1  2  1  0
  2  3  1  0
  3  4  2  0
  4  5  1  0
  5  6  2  0
  6  7  1  0
  7  8  1  0
  8  9  2  0
  9 10  1  0
 10 11  2  0
 11 12  1  0
 12 13  2  0
 13 14  1  0
 14 15  2  0
 15 16  1  0
 16 17  2  0
 17 18  1  0
 17 19  1  0
 19 20  2  0
  7 21  2  0
 21  3  1  0
 20  6  1  0
 20 10  1  0
 19 13  1  0
  1 22  1  0
  1 23  1  0
  1 24  1  0
  4 25  1  0
  5 26  1  0
  8 27  1  0
  9 28  1  0
 11 29  1  0
 12 30  1  0
 14 31  1  0
 15 32  1  0
 16 33  1  0
 18 34  1  0
 18 35  1  0
 18 36  1  0
 21 37  1  0
M  CHG  1  17   1
M  END
>  <smiles>  (37) 
COc1ccc2c(ccc3ccc4ccc[n+](C)c4c32)c1

>  <m_score__min__energy>  (37) 
nan

>  <m_primary>  (37) 
energy

$$$$
37:0
     RDKit          3D

 49 51  0  0  0  0  0  0  0  0999 V2000
   57.7240   19.9720   45.2980 N   0  0  0  0  0  0  0  0  0  0  0  0
   56.8440   20.9550   45.9310 C   0  0  0  0  0  0  0  0  0  0  0  0
   57.4710   22.3600   45.9800 C   0  0  0  0  0  0  0  0  0  0  0  0
   57.0860   23.1590   47.2410 C   0  0  0  0  0  0  0  0  0  0  0  0
   55.6130   23.5980   47.2240 C   0  0  0  0  0  0  0  0  0  0  0  0
   55.1180   23.7880   45.7830 C   0  0  0  0  0  0  0  0  0  0  0  0
   54.4480   25.1570   45.5430 C   0  0  0  0  0  0  0  0  0  0  0  0
   55.2190   26.3010   46.0680 N   0  0  0  0  0  0  0  0  0  0  0  0
   56.6280   26.3240   45.6400 C   0  0  0  0  0  0  0  0  0  0  0  0
   57.2250   27.7060   45.7170 C   0  0  0  0  0  0  0  0  0  0  0  0
   58.2390   27.9940   46.6620 C   0  0  0  0  0  0  0  0  0  0  0  0
   58.7620   29.2910   46.7770 C   0  0  0  0  0  0  0  0  0  0  0  0
   58.2560   30.2820   45.9370 C   0  0  0  0  0  0  0  0  0  0  0  0
   57.2740   30.0140   45.0030 C   0  0  0  0  0  0  0  0  0  0  0  0
   56.7440   28.7310   44.8740 C   0  0  0  0  0  0  0  0  0  0  0  0
   56.8990   31.2430   44.2250 C   0  0  0  0  0  0  0  0  0  0  0  0
   57.8100   32.2550   44.8590 C   0  0  0  0  0  0  0  0  0  0  0  0
   57.9190   33.6120   44.5550 C   0  0  0  0  0  0  0  0  0  0  0  0
   58.8410   34.3900   45.2750 C   0  0  0  0  0  0  0  0  0  0  0  0
   59.6360   33.8060   46.2820 C   0  0  0  0  0  0  0  0  0  0  0  0
   59.5150   32.4370   46.5760 C   0  0  0  0  0  0  0  0  0  0  0  0
   58.5930   31.6860   45.8470 C   0  0  0  0  0  0  0  0  0  0  0  0
   58.3500   19.5320   46.0110 H   0  0  0  0  0  0  0  0  0  0  0  0
   58.2930   20.4260   44.5480 H   0  0  0  0  0  0  0  0  0  0  0  0
   57.1390   19.2250   44.8580 H   0  0  0  0  0  0  0  0  0  0  0  0
   55.9049   21.0072   45.3606 H   0  0  0  0  0  0  0  0  0  0  0  0
   56.6693   20.6299   46.9672 H   0  0  0  0  0  0  0  0  0  0  0  0
   58.5656   22.2543   45.9549 H   0  0  0  0  0  0  0  0  0  0  0  0
   57.0869   22.9172   45.1128 H   0  0  0  0  0  0  0  0  0  0  0  0
   57.2573   22.5283   48.1258 H   0  0  0  0  0  0  0  0  0  0  0  0
   57.7080   24.0659   47.2687 H   0  0  0  0  0  0  0  0  0  0  0  0
   55.0014   22.8280   47.7170 H   0  0  0  0  0  0  0  0  0  0  0  0
   55.5242   24.5562   47.7569 H   0  0  0  0  0  0  0  0  0  0  0  0
   55.9782   23.6964   45.1035 H   0  0  0  0  0  0  0  0  0  0  0  0
   54.3574   23.0158   45.5955 H   0  0  0  0  0  0  0  0  0  0  0  0
   54.3194   25.2943   44.4592 H   0  0  0  0  0  0  0  0  0  0  0  0
   53.4902   25.1427   46.0838 H   0  0  0  0  0  0  0  0  0  0  0  0
   55.1460   26.3900   47.1060 H   0  0  0  0  0  0  0  0  0  0  0  0
   57.2066   25.6516   46.2904 H   0  0  0  0  0  0  0  0  0  0  0  0
   56.6670   25.9978   44.5902 H   0  0  0  0  0  0  0  0  0  0  0  0
   58.6206   27.1932   47.3125 H   0  0  0  0  0  0  0  0  0  0  0  0
   59.5498   29.5196   47.5099 H   0  0  0  0  0  0  0  0  0  0  0  0
   55.9638   28.5209   44.1276 H   0  0  0  0  0  0  0  0  0  0  0  0
   57.1082   31.1240   43.1516 H   0  0  0  0  0  0  0  0  0  0  0  0
   55.8303   31.5010   44.2615 H   0  0  0  0  0  0  0  0  0  0  0  0
   57.2964   34.0633   43.7684 H   0  0  0  0  0  0  0  0  0  0  0  0
   58.9432   35.4622   45.0514 H   0  0  0  0  0  0  0  0  0  0  0  0
   60.3543   34.4245   46.8402 H   0  0  0  0  0  0  0  0  0  0  0  0
   60.1304   31.9706   47.3594 H   0  0  0  0  0  0  0  0  0  0  0  0
  1  2  1  0
  2  3  1  0
  3  4  1  0
  4  5  1  0
  5  6  1  0
  6  7  1  0
  7  8  1  0
  8  9  1  0
  9 10  1  0
 10 11  2  0
 11 12  1  0
 12 13  2  0
 13 14  1  0
 14 15  2  0
 14 16  1  0
 16 17  1  0
 17 18  2  0
 18 19  1  0
 19 20  2  0
 20 21  1  0
 21 22  2  0
 15 10  1  0
 22 17  1  0
 22 13  1  0
  1 23  1  0
  1 24  1  0
  1 25  1  0
  2 26  1  0
  2 27  1  0
  3 28  1  0
  3 29  1  0
  4 30  1  0
  4 31  1  0
  5 32  1  0
  5 33  1  0
  6 34  1  0
  6 35  1  0
  7 36  1  0
  7 37  1  0
  8 38  1  0
  9 39  1  0
  9 40  1  0
 11 41  1  0
 12 42  1  0
 15 43  1  0
 16 44  1  0
 16 45  1  0
 18 46  1  0
 19 47  1  0
 20 48  1  0
 21 49  1  0
M  CHG  1   1   1
M  END
>  <UniqueID>  (38) 
36

>  <SMILES>  (38) 
[NH3+]CCCCCCNCc1ccc2c(c1)Cc1ccccc1-2

>  <Energy>  (38) 
66.08102207059636

>  <Genealogy>  (38) 
[NH3+]CCCCCCNCc1ccc2c(c1)Cc1ccccc1-2 (protonated)
[NH3+]CCCCCCNCc1ccc2c(c1)Cc1ccccc1-2 (3D coordinates assigned)
[NH3+]CCCCCCNCc1ccc2c(c1)Cc1ccccc1-2 (nonaromatic ring conformer: 66.08102207059636 kcal/mol)

>  <smiles>  (38) 
NCCCCCCNCc1ccc2c(c1)Cc1ccccc1-2

>  <score_type>  (38) 
oracle

>  <origin>  (38) 
adg

>  <m_score__min__energy>  (38) 
-7.2999999999999998

>  <m_primary>  (38) 
energy

$$$$
38:0
     RDKit          3D

 53 56  0  0  0  0  0  0  0  0999 V2000
   55.1990   29.6320   45.1580 O   0  0  0  0  0  0  0  0  0  0  0  0
   56.0900   29.3440   44.1130 C   0  0  1  0  0  0  0  0  0  0  0  0
   56.2600   30.5760   43.1920 C   0  0  0  0  0  0  0  0  0  0  0  0
   57.3060   31.5240   43.6470 N   0  0  1  0  0  0  0  0  0  0  0  0
   56.9760   32.2220   44.9160 C   0  0  0  0  0  0  0  0  0  0  0  0
   58.2060   32.4960   45.7560 C   0  0  0  0  0  0  0  0  0  0  0  0
   59.0840   33.5370   45.4200 C   0  0  0  0  0  0  0  0  0  0  0  0
   60.2240   33.7780   46.1930 C   0  0  0  0  0  0  0  0  0  0  0  0
   60.5020   32.9880   47.3230 C   0  0  0  0  0  0  0  0  0  0  0  0
   61.7140   33.2430   48.1420 C   0  0  0  0  0  0  0  0  0  0  0  0
   61.6230   33.9570   49.3530 C   0  0  0  0  0  0  0  0  0  0  0  0
   62.7660   34.1970   50.1220 C   0  0  0  0  0  0  0  0  0  0  0  0
   64.0090   33.7270   49.6940 C   0  0  0  0  0  0  0  0  0  0  0  0
   64.1140   33.0190   48.4950 C   0  0  0  0  0  0  0  0  0  0  0  0
   62.9740   32.7770   47.7210 C   0  0  0  0  0  0  0  0  0  0  0  0
   59.6120   31.9550   47.6640 C   0  0  0  0  0  0  0  0  0  0  0  0
   58.4740   31.7130   46.8900 C   0  0  0  0  0  0  0  0  0  0  0  0
   58.6190   30.8500   43.7230 C   0  0  0  0  0  0  0  0  0  0  0  0
   58.5810   29.6030   44.5710 C   0  0  0  0  0  0  0  0  0  0  0  0
   59.7660   29.1270   45.1480 C   0  0  0  0  0  0  0  0  0  0  0  0
   59.7680   27.9370   45.8790 C   0  0  0  0  0  0  0  0  0  0  0  0
   58.5920   27.1970   46.0370 C   0  0  0  0  0  0  0  0  0  0  0  0
   58.6580   26.0090   46.7840 O   0  0  0  0  0  0  0  0  0  0  0  0
   58.4260   24.6890   46.2890 C   0  0  0  0  0  0  0  0  0  0  0  0
   56.9380   24.4450   46.0440 C   0  0  0  0  0  0  0  0  0  0  0  0
   56.5990   23.1410   46.3520 F   0  0  0  0  0  0  0  0  0  0  0  0
   56.1960   25.2990   46.8400 F   0  0  0  0  0  0  0  0  0  0  0  0
   56.6350   24.6900   44.7170 F   0  0  0  0  0  0  0  0  0  0  0  0
   57.4060   27.6610   45.4370 C   0  0  0  0  0  0  0  0  0  0  0  0
   57.3940   28.8580   44.7010 C   0  0  0  0  0  0  0  0  0  0  0  0
   55.7380   29.7010   45.9880 H   0  0  0  0  0  0  0  0  0  0  0  0
   55.6906   28.5409   43.4763 H   0  0  0  0  0  0  0  0  0  0  0  0
   56.5269   30.2221   42.1853 H   0  0  0  0  0  0  0  0  0  0  0  0
   55.3049   31.1215   43.2072 H   0  0  0  0  0  0  0  0  0  0  0  0
   57.4000   32.2530   42.9000 H   0  0  0  0  0  0  0  0  0  0  0  0
   56.4898   33.1794   44.6774 H   0  0  0  0  0  0  0  0  0  0  0  0
   56.3095   31.5678   45.4973 H   0  0  0  0  0  0  0  0  0  0  0  0
   58.8745   34.1675   44.5433 H   0  0  0  0  0  0  0  0  0  0  0  0
   60.9092   34.5924   45.9150 H   0  0  0  0  0  0  0  0  0  0  0  0
   60.6460   34.3283   49.6960 H   0  0  0  0  0  0  0  0  0  0  0  0
   62.6856   34.7569   51.0654 H   0  0  0  0  0  0  0  0  0  0  0  0
   64.9064   33.9146   50.3018 H   0  0  0  0  0  0  0  0  0  0  0  0
   65.0945   32.6510   48.1586 H   0  0  0  0  0  0  0  0  0  0  0  0
   63.0627   32.2189   46.7772 H   0  0  0  0  0  0  0  0  0  0  0  0
   59.8130   31.3317   48.5478 H   0  0  0  0  0  0  0  0  0  0  0  0
   57.7838   30.9039   47.1710 H   0  0  0  0  0  0  0  0  0  0  0  0
   58.9336   30.5750   42.7055 H   0  0  0  0  0  0  0  0  0  0  0  0
   59.3271   31.5501   44.1904 H   0  0  0  0  0  0  0  0  0  0  0  0
   60.7004   29.6941   45.0244 H   0  0  0  0  0  0  0  0  0  0  0  0
   60.7029   27.5786   46.3345 H   0  0  0  0  0  0  0  0  0  0  0  0
   58.9715   24.5596   45.3426 H   0  0  0  0  0  0  0  0  0  0  0  0
   58.7782   23.9678   47.0412 H   0  0  0  0  0  0  0  0  0  0  0  0
   56.4783   27.0800   45.5455 H   0  0  0  0  0  0  0  0  0  0  0  0
  1  2  1  0
  2  3  1  0
  3  4  1  0
  4  5  1  0
  5  6  1  0
  6  7  2  0
  7  8  1  0
  8  9  2  0
  9 10  1  0
 10 11  2  0
 11 12  1  0
 12 13  2  0
 13 14  1  0
 14 15  2  0
  9 16  1  0
 16 17  2  0
  4 18  1  0
 18 19  1  0
 19 20  2  0
 20 21  1  0
 21 22  2  0
 22 23  1  0
 23 24  1  0
 24 25  1  0
 25 26  1  0
 25 27  1  0
 25 28  1  0
 22 29  1  0
 29 30  2  0
 30  2  1  0
 17  6  1  0
 30 19  1  0
 15 10  1  0
  1 31  1  0
  2 32  1  6
  3 33  1  0
  3 34  1  0
  4 35  1  6
  5 36  1  0
  5 37  1  0
  7 38  1  0
  8 39  1  0
 11 40  1  0
 12 41  1  0
 13 42  1  0
 14 43  1  0
 15 44  1  0
 16 45  1  0
 17 46  1  0
 18 47  1  0
 18 48  1  0
 20 49  1  0
 21 50  1  0
 24 51  1  0
 24 52  1  0
 29 53  1  0
M  CHG  1   4   1
M  END
>  <UniqueID>  (39) 
37

>  <SMILES>  (39) 
O[C@H]1C[N@@H+](Cc2ccc(-c3ccccc3)cc2)Cc2ccc(OCC(F)(F)F)cc21

>  <Energy>  (39) 
69.04182995125664

>  <Genealogy>  (39) 
OC1C[NH+](Cc2ccc(-c3ccccc3)cc2)Cc2ccc(OCC(F)(F)F)cc21 (protonated)
O[C@H]1C[N@@H+](Cc2ccc(-c3ccccc3)cc2)Cc2ccc(OCC(F)(F)F)cc21 (chirality)
O[C@H]1C[N@@H+](Cc2ccc(-c3ccccc3)cc2)Cc2ccc(OCC(F)(F)F)cc21 (3D coordinates assigned)
O[C@H]1C[N@@H+](Cc2ccc(-c3ccccc3)cc2)Cc2ccc(OCC(F)(F)F)cc21 (nonaromatic ring conformer: 69.04182995125664 kcal/mol)

>  <smiles>  (39) 
OC1CN(Cc2ccc(-c3ccccc3)cc2)Cc2ccc(OCC(F)(F)F)cc21

>  <score_type>  (39) 
oracle

>  <origin>  (39) 
adg

>  <m_score__min__energy>  (39) 
-7.0199999999999996

>  <m_primary>  (39) 
energy

$$$$
39:0
     RDKit          3D

 40 41  0  0  0  0  0  0  0  0999 V2000
   62.1830   33.5330   49.6610 C   0  0  0  0  0  0  0  0  0  0  0  0
   61.5750   33.8440   48.3350 C   0  0  0  0  0  0  0  0  0  0  0  0
   62.0770   33.4510   47.1000 C   0  0  0  0  0  0  0  0  0  0  0  0
   61.2520   33.8140   46.0290 C   0  0  0  0  0  0  0  0  0  0  0  0
   60.0960   34.4760   46.4270 C   0  0  0  0  0  0  0  0  0  0  0  0
   59.0050   34.9710   45.5160 C   0  0  0  0  0  0  0  0  0  0  0  0
   57.8430   34.0490   45.4880 N   0  0  2  0  0  0  0  0  0  0  0  0
   57.5680   33.4560   46.8280 C   0  0  0  0  0  0  0  0  0  0  0  0
   58.2310   32.0790   47.0070 C   0  0  0  0  0  0  0  0  0  0  0  0
   57.7820   31.0870   45.9930 N   0  0  0  0  0  0  0  0  0  0  0  0
   58.8480   30.0880   45.7940 C   0  0  0  0  0  0  0  0  0  0  0  0
   57.2680   31.7270   44.7450 C   0  0  2  0  0  0  0  0  0  0  0  0
   57.0760   30.7750   43.5270 C   0  0  0  0  0  0  0  0  0  0  0  0
   56.1980   29.5330   43.7720 C   0  0  0  0  0  0  0  0  0  0  0  0
   55.3650   29.7480   44.8770 O   0  0  0  0  0  0  0  0  0  0  0  0
   58.0380   33.0250   44.4250 C   0  0  0  0  0  0  0  0  0  0  0  0
   60.0940   34.6090   48.1050 S   0  0  0  0  0  0  0  0  0  0  0  0
   61.5116   33.8764   50.4618 H   0  0  0  0  0  0  0  0  0  0  0  0
   62.3339   32.4470   49.7496 H   0  0  0  0  0  0  0  0  0  0  0  0
   63.1519   34.0462   49.7496 H   0  0  0  0  0  0  0  0  0  0  0  0
   63.0265   32.9095   46.9767 H   0  0  0  0  0  0  0  0  0  0  0  0
   61.4940   33.5973   44.9781 H   0  0  0  0  0  0  0  0  0  0  0  0
   58.6677   35.9567   45.8689 H   0  0  0  0  0  0  0  0  0  0  0  0
   59.4149   35.0319   44.4970 H   0  0  0  0  0  0  0  0  0  0  0  0
   56.9980   34.6070   45.2160 H   0  0  0  0  0  0  0  0  0  0  0  0
   57.9531   34.1368   47.6014 H   0  0  0  0  0  0  0  0  0  0  0  0
   56.4803   33.3188   46.9174 H   0  0  0  0  0  0  0  0  0  0  0  0
   59.3210   32.1999   46.9218 H   0  0  0  0  0  0  0  0  0  0  0  0
   57.9391   31.6968   47.9963 H   0  0  0  0  0  0  0  0  0  0  0  0
   59.2152   29.7439   46.7721 H   0  0  0  0  0  0  0  0  0  0  0  0
   58.4479   29.2321   45.2307 H   0  0  0  0  0  0  0  0  0  0  0  0
   59.6762   30.5428   45.2307 H   0  0  0  0  0  0  0  0  0  0  0  0
   56.2293   32.0130   44.9669 H   0  0  0  0  0  0  0  0  0  0  0  0
   56.6166   31.3568   42.7143 H   0  0  0  0  0  0  0  0  0  0  0  0
   58.0785   30.3877   43.2926 H   0  0  0  0  0  0  0  0  0  0  0  0
   55.5808   29.3414   42.8819 H   0  0  0  0  0  0  0  0  0  0  0  0
   56.8450   28.6657   43.9698 H   0  0  0  0  0  0  0  0  0  0  0  0
   55.9450   30.0810   45.6100 H   0  0  0  0  0  0  0  0  0  0  0  0
   59.1103   32.7940   44.3432 H   0  0  0  0  0  0  0  0  0  0  0  0
   57.6526   33.4314   43.4783 H   0  0  0  0  0  0  0  0  0  0  0  0
  1  2  1  0
  2  3  2  0
  3  4  1  0
  4  5  2  0
  5  6  1  0
  6  7  1  0
  7  8  1  0
  8  9  1  0
  9 10  1  0
 10 11  1  0
 10 12  1  0
 12 13  1  0
 13 14  1  0
 14 15  1  0
 12 16  1  0
  5 17  1  0
 17  2  1  0
 16  7  1  0
  1 18  1  0
  1 19  1  0
  1 20  1  0
  3 21  1  0
  4 22  1  0
  6 23  1  0
  6 24  1  0
  7 25  1  6
  8 26  1  0
  8 27  1  0
  9 28  1  0
  9 29  1  0
 11 30  1  0
 11 31  1  0
 11 32  1  0
 12 33  1  1
 13 34  1  0
 13 35  1  0
 14 36  1  0
 14 37  1  0
 15 38  1  0
 16 39  1  0
 16 40  1  0
M  CHG  1   7   1
M  END
>  <UniqueID>  (40) 
38

>  <SMILES>  (40) 
Cc1ccc(C[N@@H+]2CCN(C)[C@H](CCO)C2)s1

>  <Energy>  (40) 
83.07017510319803

>  <Genealogy>  (40) 
Cc1ccc(C[NH+]2CCN(C)C(CCO)C2)s1 (protonated)
Cc1ccc(C[N@@H+]2CCN(C)[C@H](CCO)C2)s1 (chirality)
Cc1ccc(C[N@@H+]2CCN(C)[C@H](CCO)C2)s1 (3D coordinates assigned)
Cc1ccc(C[N@@H+]2CCN(C)[C@H](CCO)C2)s1 (nonaromatic ring conformer: 83.07017510319803 kcal/mol)

>  <smiles>  (40) 
Cc1ccc(CN2CCN(C)C(CCO)C2)s1

>  <score_type>  (40) 
oracle

>  <origin>  (40) 
adg

>  <m_score__min__energy>  (40) 
-5.6799999999999997

>  <m_primary>  (40) 
energy

$$$$
40:0
     RDKit          3D

 51 53  0  0  0  0  0  0  0  0999 V2000
   57.0860   21.0850   43.0080 C   0  0  0  0  0  0  0  0  0  0  0  0
   55.9480   21.6860   43.6170 O   0  0  0  0  0  0  0  0  0  0  0  0
   55.9610   22.9350   44.2580 C   0  0  0  0  0  0  0  0  0  0  0  0
   54.7840   23.5780   44.6770 C   0  0  0  0  0  0  0  0  0  0  0  0
   54.8480   24.8230   45.3070 C   0  0  0  0  0  0  0  0  0  0  0  0
   56.0870   25.4540   45.5150 C   0  0  0  0  0  0  0  0  0  0  0  0
   56.1810   26.7230   46.1790 N   0  0  0  0  0  0  0  0  0  0  0  0
   56.4660   27.9840   45.5620 C   0  0  0  0  0  0  0  0  0  0  0  0
   55.5320   28.7540   45.2120 O   0  0  0  0  0  0  0  0  0  0  0  0
   57.8970   28.3800   45.3390 C   0  0  0  0  0  0  0  0  0  0  0  0
   58.0360   29.8450   45.2080 N   0  0  0  0  0  0  0  0  0  0  0  0
   58.5340   30.6070   46.2420 C   0  0  0  0  0  0  0  0  0  0  0  0
   58.9920   30.0090   47.4640 N   0  0  0  0  0  0  0  0  0  0  0  0
   59.5940   28.8320   47.5230 N   0  0  0  0  0  0  0  0  0  0  0  0
   59.9760   28.6400   48.8010 C   0  0  0  0  0  0  0  0  0  0  0  0
   60.7550   27.4560   49.2670 C   0  0  0  0  0  0  0  0  0  0  0  0
   59.6510   29.7450   49.5660 C   0  0  0  0  0  0  0  0  0  0  0  0
   59.0190   30.5920   48.6800 C   0  0  0  0  0  0  0  0  0  0  0  0
   58.5430   31.9780   48.9890 C   0  0  0  0  0  0  0  0  0  0  0  0
   58.5710   31.9630   46.1350 N   0  0  0  0  0  0  0  0  0  0  0  0
   58.1370   32.6030   45.0220 C   0  0  0  0  0  0  0  0  0  0  0  0
   58.1870   34.0950   44.9520 C   0  0  0  0  0  0  0  0  0  0  0  0
   57.6210   31.8620   43.9640 C   0  0  0  0  0  0  0  0  0  0  0  0
   57.5670   30.4730   44.0770 C   0  0  0  0  0  0  0  0  0  0  0  0
   57.0700   29.8070   43.1270 O   0  0  0  0  0  0  0  0  0  0  0  0
   57.2690   24.8070   45.1220 C   0  0  0  0  0  0  0  0  0  0  0  0
   58.4960   25.4430   45.3720 O   0  0  0  0  0  0  0  0  0  0  0  0
   59.0410   25.6700   46.6680 C   0  0  0  0  0  0  0  0  0  0  0  0
   57.1960   23.5510   44.4870 C   0  0  0  0  0  0  0  0  0  0  0  0
   57.7713   20.7231   43.7886 H   0  0  0  0  0  0  0  0  0  0  0  0
   56.7635   20.2396   42.3824 H   0  0  0  0  0  0  0  0  0  0  0  0
   57.6024   21.8280   42.3824 H   0  0  0  0  0  0  0  0  0  0  0  0
   53.8083   23.0990   44.5082 H   0  0  0  0  0  0  0  0  0  0  0  0
   53.9223   25.3133   45.6428 H   0  0  0  0  0  0  0  0  0  0  0  0
   58.5003   28.0380   46.1928 H   0  0  0  0  0  0  0  0  0  0  0  0
   58.2439   27.9141   44.4049 H   0  0  0  0  0  0  0  0  0  0  0  0
   60.7684   27.4356   50.3667 H   0  0  0  0  0  0  0  0  0  0  0  0
   60.2852   26.5360   48.8889 H   0  0  0  0  0  0  0  0  0  0  0  0
   61.7858   27.5234   48.8889 H   0  0  0  0  0  0  0  0  0  0  0  0
   59.8506   29.9104   50.6350 H   0  0  0  0  0  0  0  0  0  0  0  0
   58.4960   32.1150   50.0794 H   0  0  0  0  0  0  0  0  0  0  0  0
   59.2412   32.7102   48.5573 H   0  0  0  0  0  0  0  0  0  0  0  0
   57.5423   32.1268   48.5573 H   0  0  0  0  0  0  0  0  0  0  0  0
   58.2009   34.5096   45.9708 H   0  0  0  0  0  0  0  0  0  0  0  0
   59.0961   34.4067   44.4168 H   0  0  0  0  0  0  0  0  0  0  0  0
   57.3008   34.4669   44.4168 H   0  0  0  0  0  0  0  0  0  0  0  0
   57.2615   32.3633   43.0532 H   0  0  0  0  0  0  0  0  0  0  0  0
   58.3101   25.3656   47.4316 H   0  0  0  0  0  0  0  0  0  0  0  0
   59.9623   25.0808   46.7867 H   0  0  0  0  0  0  0  0  0  0  0  0
   59.2716   26.7390   46.7867 H   0  0  0  0  0  0  0  0  0  0  0  0
   58.1212   23.0490   44.1676 H   0  0  0  0  0  0  0  0  0  0  0  0
  1  2  1  0
  2  3  1  0
  3  4  2  0
  4  5  1  0
  5  6  2  0
  6  7  1  0
  7  8  1  0
  8  9  2  0
  8 10  1  0
 10 11  1  0
 11 12  1  0
 12 13  1  0
 13 14  1  0
 14 15  2  0
 15 16  1  0
 15 17  1  0
 17 18  2  0
 18 19  1  0
 12 20  2  0
 20 21  1  0
 21 22  1  0
 21 23  2  0
 23 24  1  0
 24 25  2  0
  6 26  1  0
 26 27  1  0
 27 28  1  0
 26 29  2  0
 29  3  1  0
 24 11  1  0
 18 13  1  0
  1 30  1  0
  1 31  1  0
  1 32  1  0
  4 33  1  0
  5 34  1  0
 10 35  1  0
 10 36  1  0
 16 37  1  0
 16 38  1  0
 16 39  1  0
 17 40  1  0
 19 41  1  0
 19 42  1  0
 19 43  1  0
 22 44  1  0
 22 45  1  0
 22 46  1  0
 23 47  1  0
 28 48  1  0
 28 49  1  0
 28 50  1  0
 29 51  1  0
M  CHG  1   7  -1
M  END
>  <UniqueID>  (41) 
39

>  <SMILES>  (41) 
COc1ccc([N-]C(=O)Cn2c(-n3nc(C)cc3C)nc(C)cc2=O)c(OC)c1

>  <Energy>  (41) 
91.40791107098467

>  <Genealogy>  (41) 
COc1ccc([N-]C(=O)Cn2c(-n3nc(C)cc3C)nc(C)cc2=O)c(OC)c1 (protonated)
COc1ccc([N-]C(=O)Cn2c(-n3nc(C)cc3C)nc(C)cc2=O)c(OC)c1 (3D coordinates assigned)
COc1ccc([N-]C(=O)Cn2c(-n3nc(C)cc3C)nc(C)cc2=O)c(OC)c1 (optimized conformer: 91.40791107098467 kcal/mol)

>  <smiles>  (41) 
COc1ccc(NC(=O)Cn2c(-n3nc(C)cc3C)nc(C)cc2=O)c(OC)c1

>  <score_type>  (41) 
oracle

>  <origin>  (41) 
adg

>  <m_score__min__energy>  (41) 
-10.640000000000001

>  <m_primary>  (41) 
energy

$$$$
41:0
     RDKit          3D

 34 34  0  0  0  0  0  0  0  0999 V2000
   58.3674   24.4061   47.7927 H   0  0  0  0  0  0  0  0  0  0  0  0
   58.1330   25.2770   47.1630 C   0  0  0  0  0  0  0  0  0  0  0  0
   59.1650   26.0290   46.6000 C   0  0  0  0  0  0  0  0  0  0  0  0
   60.2126   25.7518   46.7890 H   0  0  0  0  0  0  0  0  0  0  0  0
   58.8700   27.1330   45.7970 C   0  0  0  0  0  0  0  0  0  0  0  0
   59.6891   27.7248   45.3626 H   0  0  0  0  0  0  0  0  0  0  0  0
   57.5340   27.4960   45.5380 C   0  0  0  0  0  0  0  0  0  0  0  0
   57.2480   28.6680   44.6740 C   0  0  0  0  0  0  0  0  0  0  0  0
   57.0220   28.4940   43.4440 O   0  0  0  0  0  0  0  0  0  0  0  0
   57.1250   29.9820   45.2420 N   0  0  0  0  0  0  0  0  0  0  0  0
   56.6180   30.0460   46.1520 H   0  0  0  0  0  0  0  0  0  0  0  0
   57.5560   31.0830   44.6830 C   0  0  0  0  0  0  0  0  0  0  0  0
   57.8170   31.1620   43.2740 N   0  0  0  0  0  0  0  0  0  0  0  0
   57.8430   30.3190   42.6610 H   0  0  0  0  0  0  0  0  0  0  0  0
   58.1500   32.0580   42.8570 H   0  0  0  0  0  0  0  0  0  0  0  0
   57.8380   32.2310   45.5050 N   0  0  0  0  0  0  0  0  0  0  0  0
   58.8540   32.1440   46.5640 C   0  0  0  0  0  0  0  0  0  0  0  0
   59.7635   32.6691   46.2368 H   0  0  0  0  0  0  0  0  0  0  0  0
   59.0761   31.0841   46.7571 H   0  0  0  0  0  0  0  0  0  0  0  0
   58.3420   32.7820   47.8500 C   0  0  0  0  0  0  0  0  0  0  0  0
   58.7665   32.2530   48.7160 H   0  0  0  0  0  0  0  0  0  0  0  0
   58.6455   33.8389   47.8811 H   0  0  0  0  0  0  0  0  0  0  0  0
   57.2445   32.7146   47.8811 H   0  0  0  0  0  0  0  0  0  0  0  0
   57.1260   33.4910   45.2560 C   0  0  0  0  0  0  0  0  0  0  0  0
   56.4125   33.3473   44.4312 H   0  0  0  0  0  0  0  0  0  0  0  0
   56.5914   33.7857   46.1711 H   0  0  0  0  0  0  0  0  0  0  0  0
   58.1110   34.5930   44.8820 C   0  0  0  0  0  0  0  0  0  0  0  0
   58.5174   35.0477   45.7975 H   0  0  0  0  0  0  0  0  0  0  0  0
   58.9328   34.1646   44.2894 H   0  0  0  0  0  0  0  0  0  0  0  0
   57.5935   35.3617   44.2894 H   0  0  0  0  0  0  0  0  0  0  0  0
   56.4960   26.7370   46.1260 C   0  0  0  0  0  0  0  0  0  0  0  0
   55.1610   27.0830   45.9460 O   0  0  0  0  0  0  0  0  0  0  0  0
   56.8030   25.6300   46.9270 C   0  0  0  0  0  0  0  0  0  0  0  0
   55.9919   25.0354   47.3726 H   0  0  0  0  0  0  0  0  0  0  0  0
  1  2  1  0
  2  3  2  0
  3  4  1  0
  3  5  1  0
  5  6  1  0
  5  7  2  0
  7  8  1  0
  8  9  2  0
  8 10  1  0
 10 11  1  0
 10 12  2  0
 12 13  1  0
 13 14  1  0
 13 15  1  0
 12 16  1  0
 16 17  1  0
 17 18  1  0
 17 19  1  0
 17 20  1  0
 20 21  1  0
 20 22  1  0
 20 23  1  0
 16 24  1  0
 24 25  1  0
 24 26  1  0
 24 27  1  0
 27 28  1  0
 27 29  1  0
 27 30  1  0
  7 31  1  0
 31 32  1  0
 31 33  2  0
 33 34  1  0
 33  2  1  0
M  CHG  2  10   1  32  -1
M  END
>  <UniqueID>  (42) 
40

>  <SMILES>  (42) 
CCN(CC)/C(N)=[NH+]/C(=O)c1ccccc1[O-]

>  <Energy>  (42) 
37.14025677057534

>  <Genealogy>  (42) 
CCN(CC)C(N)=[NH+]C(=O)c1ccccc1[O-] (protonated)
CCN(CC)/C(N)=[NH+]/C(=O)c1ccccc1[O-] (cis-trans isomerization)
CCN(CC)/C(N)=[NH+]/C(=O)c1ccccc1[O-] (3D coordinates assigned)
CCN(CC)/C(N)=[NH+]/C(=O)c1ccccc1[O-] (optimized conformer: 37.14025677057534 kcal/mol)

>  <smiles>  (42) 
CCN(CC)C(N)=NC(=O)c1ccccc1O

>  <score_type>  (42) 
oracle

>  <origin>  (42) 
adg

>  <m_score__min__energy>  (42) 
-8.6999999999999993

>  <m_primary>  (42) 
energy

$$$$
42:0
     RDKit          3D

 48 51  0  0  0  0  0  0  0  0999 V2000
   59.3060   35.5150   45.7980 O   0  0  0  0  0  0  0  0  0  0  0  0
   59.4140   34.3400   46.2420 C   0  0  0  0  0  0  0  0  0  0  0  0
   58.7550   33.2280   45.5210 C   0  0  0  0  0  0  0  0  0  0  0  0
   58.4360   32.0270   46.1830 C   0  0  0  0  0  0  0  0  0  0  0  0
   57.8010   30.9890   45.4970 C   0  0  0  0  0  0  0  0  0  0  0  0
   57.4670   31.1410   44.1480 C   0  0  0  0  0  0  0  0  0  0  0  0
   57.7640   32.3340   43.4860 C   0  0  0  0  0  0  0  0  0  0  0  0
   58.4000   33.3770   44.1680 C   0  0  0  0  0  0  0  0  0  0  0  0
   60.1690   34.1240   47.4900 C   0  0  0  0  0  0  0  0  0  0  0  0
   59.6560   34.2350   48.7770 C   0  0  0  0  0  0  0  0  0  0  0  0
   60.6070   33.9240   49.6890 N   0  0  0  0  0  0  0  0  0  0  0  0
   60.4060   33.8380   51.1370 C   0  0  0  0  0  0  0  0  0  0  0  0
   60.8020   32.4530   51.6860 C   0  0  0  0  0  0  0  0  0  0  0  0
   59.6950   31.4590   51.6010 N   0  0  0  0  0  0  0  0  0  0  0  0
   58.3700   32.1160   51.6400 C   0  0  0  0  0  0  0  0  0  0  0  0
   57.2370   31.0650   51.5900 C   0  0  0  0  0  0  0  0  0  0  0  0
   57.7080   29.7730   51.2480 O   0  0  0  0  0  0  0  0  0  0  0  0
   58.5140   29.8470   50.0910 C   0  0  0  0  0  0  0  0  0  0  0  0
   59.8040   30.6540   50.3620 C   0  0  0  0  0  0  0  0  0  0  0  0
   61.7260   33.6380   48.9920 C   0  0  0  0  0  0  0  0  0  0  0  0
   62.9780   33.2660   49.4900 C   0  0  0  0  0  0  0  0  0  0  0  0
   64.0110   33.0260   48.5660 C   0  0  0  0  0  0  0  0  0  0  0  0
   63.7780   33.1660   47.1820 C   0  0  0  0  0  0  0  0  0  0  0  0
   62.5100   33.5400   46.7050 C   0  0  0  0  0  0  0  0  0  0  0  0
   61.4960   33.7560   47.6420 C   0  0  0  0  0  0  0  0  0  0  0  0
   58.6883   31.9054   47.2467 H   0  0  0  0  0  0  0  0  0  0  0  0
   57.5634   30.0504   46.0191 H   0  0  0  0  0  0  0  0  0  0  0  0
   56.9704   30.3211   43.6083 H   0  0  0  0  0  0  0  0  0  0  0  0
   57.4973   32.4541   42.4256 H   0  0  0  0  0  0  0  0  0  0  0  0
   58.6235   34.3179   43.6438 H   0  0  0  0  0  0  0  0  0  0  0  0
   58.6253   34.5328   49.0197 H   0  0  0  0  0  0  0  0  0  0  0  0
   61.0216   34.6057   51.6286 H   0  0  0  0  0  0  0  0  0  0  0  0
   59.3376   33.9968   51.3451 H   0  0  0  0  0  0  0  0  0  0  0  0
   61.6574   32.0766   51.1058 H   0  0  0  0  0  0  0  0  0  0  0  0
   61.0531   32.5782   52.7496 H   0  0  0  0  0  0  0  0  0  0  0  0
   59.7600   30.7950   52.4110 H   0  0  0  0  0  0  0  0  0  0  0  0
   58.2825   32.6973   52.5697 H   0  0  0  0  0  0  0  0  0  0  0  0
   58.2775   32.7775   50.7660 H   0  0  0  0  0  0  0  0  0  0  0  0
   56.7585   31.0153   52.5792 H   0  0  0  0  0  0  0  0  0  0  0  0
   56.5260   31.3778   50.8111 H   0  0  0  0  0  0  0  0  0  0  0  0
   58.7866   28.8285   49.7774 H   0  0  0  0  0  0  0  0  0  0  0  0
   57.9435   30.3556   49.2998 H   0  0  0  0  0  0  0  0  0  0  0  0
   60.6473   29.9551   50.4637 H   0  0  0  0  0  0  0  0  0  0  0  0
   59.9626   31.3418   49.5183 H   0  0  0  0  0  0  0  0  0  0  0  0
   63.1502   33.1640   50.5716 H   0  0  0  0  0  0  0  0  0  0  0  0
   65.0069   32.7272   48.9251 H   0  0  0  0  0  0  0  0  0  0  0  0
   64.5957   32.9809   46.4699 H   0  0  0  0  0  0  0  0  0  0  0  0
   62.3216   33.6590   45.6278 H   0  0  0  0  0  0  0  0  0  0  0  0
  1  2  2  0
  2  3  1  0
  3  4  2  0
  4  5  1  0
  5  6  2  0
  6  7  1  0
  7  8  2  0
  2  9  1  0
  9 10  2  0
 10 11  1  0
 11 12  1  0
 12 13  1  0
 13 14  1  0
 14 15  1  0
 15 16  1  0
 16 17  1  0
 17 18  1  0
 18 19  1  0
 11 20  1  0
 20 21  2  0
 21 22  1  0
 22 23  2  0
 23 24  1  0
 24 25  2  0
  8  3  1  0
 25  9  1  0
 19 14  1  0
 25 20  1  0
  4 26  1  0
  5 27  1  0
  6 28  1  0
  7 29  1  0
  8 30  1  0
 10 31  1  0
 12 32  1  0
 12 33  1  0
 13 34  1  0
 13 35  1  0
 14 36  1  0
 15 37  1  0
 15 38  1  0
 16 39  1  0
 16 40  1  0
 18 41  1  0
 18 42  1  0
 19 43  1  0
 19 44  1  0
 21 45  1  0
 22 46  1  0
 23 47  1  0
 24 48  1  0
M  CHG  1  14   1
M  END
>  <UniqueID>  (43) 
41

>  <SMILES>  (43) 
O=C(c1ccccc1)c1cn(CC[NH+]2CCOCC2)c2ccccc12

>  <Energy>  (43) 
99.71322088949218

>  <Genealogy>  (43) 
O=C(c1ccccc1)c1cn(CC[NH+]2CCOCC2)c2ccccc12 (protonated)
O=C(c1ccccc1)c1cn(CC[NH+]2CCOCC2)c2ccccc12 (3D coordinates assigned)
O=C(c1ccccc1)c1cn(CC[NH+]2CCOCC2)c2ccccc12 (nonaromatic ring conformer: 99.71322088949218 kcal/mol)

>  <smiles>  (43) 
O=C(c1ccccc1)c1cn(CCN2CCOCC2)c2ccccc12

>  <score_type>  (43) 
oracle

>  <origin>  (43) 
adg

>  <m_score__min__energy>  (43) 
-6.9299999999999997

>  <m_primary>  (43) 
energy

$$$$
