0:0
     RDKit          3D

 36 38  0  0  0  0  0  0  0  0999 V2000
   56.6190   22.6100   48.3850 C   0  0  0  0  0  0  0  0  0  0  0  0
   57.6160   23.4210   47.7740 O   0  0  0  0  0  0  0  0  0  0  0  0
   57.3630   24.6520   47.1480 C   0  0  0  0  0  0  0  0  0  0  0  0
   58.3940   25.5940   47.0920 C   0  0  0  0  0  0  0  0  0  0  0  0
   58.1920   26.8350   46.4800 C   0  0  0  0  0  0  0  0  0  0  0  0
   56.9470   27.1510   45.9100 C   0  0  0  0  0  0  0  0  0  0  0  0
   56.7260   28.4590   45.2610 C   0  0  0  0  0  0  0  0  0  0  0  0
   57.7100   29.3530   45.0210 N   0  0  0  0  0  0  0  0  0  0  0  0
   57.0560   30.3750   44.4360 C   0  0  0  0  0  0  0  0  0  0  0  0
   57.7250   31.6010   43.9020 C   0  0  0  0  0  0  0  0  0  0  0  0
   58.5170   32.2290   44.9550 N   0  0  0  0  0  0  0  0  0  0  0  0
   58.5520   33.5450   45.2410 C   0  0  0  0  0  0  0  0  0  0  0  0
   59.3450   33.7160   46.3590 C   0  0  0  0  0  0  0  0  0  0  0  0
   59.5910   34.9870   47.1000 C   0  0  0  0  0  0  0  0  0  0  0  0
   59.7430   32.4440   46.7320 C   0  0  0  0  0  0  0  0  0  0  0  0
   59.2230   31.5650   45.8560 N   0  0  0  0  0  0  0  0  0  0  0  0
   55.7210   30.0650   44.3210 C   0  0  0  0  0  0  0  0  0  0  0  0
   55.5490   28.8790   44.8470 O   0  0  0  0  0  0  0  0  0  0  0  0
   55.9100   26.2060   45.9650 C   0  0  0  0  0  0  0  0  0  0  0  0
   56.1150   24.9650   46.5780 C   0  0  0  0  0  0  0  0  0  0  0  0
   56.7075   22.6820   49.4791 H   0  0  0  0  0  0  0  0  0  0  0  0
   55.6226   22.9573   48.0741 H   0  0  0  0  0  0  0  0  0  0  0  0
   56.7561   21.5638   48.0741 H   0  0  0  0  0  0  0  0  0  0  0  0
   59.3733   25.3570   47.5334 H   0  0  0  0  0  0  0  0  0  0  0  0
   59.0118   27.5676   46.4446 H   0  0  0  0  0  0  0  0  0  0  0  0
   58.3836   31.3231   43.0659 H   0  0  0  0  0  0  0  0  0  0  0  0
   56.9600   32.3091   43.5509 H   0  0  0  0  0  0  0  0  0  0  0  0
   58.0396   34.3424   44.6828 H   0  0  0  0  0  0  0  0  0  0  0  0
   59.5536   34.7936   48.1822 H   0  0  0  0  0  0  0  0  0  0  0  0
   60.5822   35.3817   46.8321 H   0  0  0  0  0  0  0  0  0  0  0  0
   58.8186   35.7230   46.8321 H   0  0  0  0  0  0  0  0  0  0  0  0
   60.3759   32.1944   47.5964 H   0  0  0  0  0  0  0  0  0  0  0  0
   59.3280   30.5270   45.8890 H   0  0  0  0  0  0  0  0  0  0  0  0
   54.9418   30.6971   43.8702 H   0  0  0  0  0  0  0  0  0  0  0  0
   54.9306   26.4426   45.5236 H   0  0  0  0  0  0  0  0  0  0  0  0
   55.2968   24.2306   46.6145 H   0  0  0  0  0  0  0  0  0  0  0  0
  1  2  1  0
  2  3  1  0
  3  4  2  0
  4  5  1  0
  5  6  2  0
  6  7  1  0
  7  8  2  0
  8  9  1  0
  9 10  1  0
 10 11  1  0
 11 12  1  0
 12 13  2  0
 13 14  1  0
 13 15  1  0
 15 16  2  0
  9 17  2  0
 17 18  1  0
  6 19  1  0
 19 20  2  0
 20  3  1  0
 18  7  1  0
 16 11  1  0
  1 21  1  0
  1 22  1  0
  1 23  1  0
  4 24  1  0
  5 25  1  0
 10 26  1  0
 10 27  1  0
 12 28  1  0
 14 29  1  0
 14 30  1  0
 14 31  1  0
 15 32  1  0
 16 33  1  0
 17 34  1  0
 19 35  1  0
 20 36  1  0
M  CHG  1  16   1
M  END
>  <UniqueID>  (1) 
1

>  <SMILES>  (1) 
COc1ccc(-c2nc(Cn3cc(C)c[nH+]3)co2)cc1

>  <Energy>  (1) 
93.82631330124342

>  <Genealogy>  (1) 
COc1ccc(-c2nc(Cn3cc(C)c[nH+]3)co2)cc1 (protonated)
COc1ccc(-c2nc(Cn3cc(C)c[nH+]3)co2)cc1 (3D coordinates assigned)
COc1ccc(-c2nc(Cn3cc(C)c[nH+]3)co2)cc1 (optimized conformer: 93.82631330124342 kcal/mol)

>  <smiles>  (1) 
COc1ccc(-c2nc(Cn3cc(C)cn3)co2)cc1

>  <score_type>  (1) 
oracle

>  <origin>  (1) 
adg

>  <m_score__min__energy>  (1) 
-5.5499999999999998

>  <m_primary>  (1) 
energy

$$$$
1:0
     RDKit          3D

 41 43  0  0  0  0  0  0  0  0999 V2000
   58.1460   27.0690   42.8420 C   0  0  0  0  0  0  0  0  0  0  0  0
   57.8230   27.3220   44.3160 C   0  0  0  0  0  0  0  0  0  0  0  0
   59.0740   27.1790   45.1870 C   0  0  0  0  0  0  0  0  0  0  0  0
   57.2050   28.6820   44.4910 C   0  0  0  0  0  0  0  0  0  0  0  0
   57.9040   29.8330   44.4210 N   0  0  0  0  0  0  0  0  0  0  0  0
   56.9450   30.7510   44.6820 C   0  0  0  0  0  0  0  0  0  0  0  0
   57.1700   32.2420   44.7170 C   0  0  2  0  0  0  0  0  0  0  0  0
   58.3040   32.7370   43.8260 C   0  0  0  0  0  0  0  0  0  0  0  0
   58.7300   34.0540   44.4530 C   0  0  0  0  0  0  0  0  0  0  0  0
   58.0600   34.1010   45.8280 C   0  0  0  0  0  0  0  0  0  0  0  0
   57.4010   32.8060   46.0620 N   0  0  0  0  0  0  0  0  0  0  0  0
   58.1430   31.9550   47.0320 C   0  0  0  0  0  0  0  0  0  0  0  0
   59.6340   32.1690   47.0430 C   0  0  0  0  0  0  0  0  0  0  0  0
   60.3180   33.2360   47.5860 C   0  0  0  0  0  0  0  0  0  0  0  0
   61.6210   32.9860   47.3770 N   0  0  0  0  0  0  0  0  0  0  0  0
   62.7430   33.7910   47.8340 C   0  0  0  0  0  0  0  0  0  0  0  0
   61.7350   31.8160   46.7700 N   0  0  0  0  0  0  0  0  0  0  0  0
   60.5360   31.2960   46.5500 N   0  0  0  0  0  0  0  0  0  0  0  0
   55.7760   30.1870   44.8770 O   0  0  0  0  0  0  0  0  0  0  0  0
   55.9070   28.9020   44.7700 N   0  0  0  0  0  0  0  0  0  0  0  0
   59.0099   26.3923   42.7669 H   0  0  0  0  0  0  0  0  0  0  0  0
   57.2763   26.6094   42.3497 H   0  0  0  0  0  0  0  0  0  0  0  0
   58.3840   28.0235   42.3497 H   0  0  0  0  0  0  0  0  0  0  0  0
   57.0971   26.5630   44.6431 H   0  0  0  0  0  0  0  0  0  0  0  0
   58.7874   27.2118   46.2485 H   0  0  0  0  0  0  0  0  0  0  0  0
   59.5647   26.2189   44.9691 H   0  0  0  0  0  0  0  0  0  0  0  0
   59.7687   28.0036   44.9691 H   0  0  0  0  0  0  0  0  0  0  0  0
   56.2067   32.6036   44.3280 H   0  0  0  0  0  0  0  0  0  0  0  0
   59.1379   32.0197   43.8228 H   0  0  0  0  0  0  0  0  0  0  0  0
   57.9931   32.8531   42.7773 H   0  0  0  0  0  0  0  0  0  0  0  0
   59.8242   34.0908   44.5593 H   0  0  0  0  0  0  0  0  0  0  0  0
   58.4345   34.9115   43.8306 H   0  0  0  0  0  0  0  0  0  0  0  0
   58.8174   34.2795   46.6055 H   0  0  0  0  0  0  0  0  0  0  0  0
   57.3215   34.9155   45.8636 H   0  0  0  0  0  0  0  0  0  0  0  0
   57.7584   32.1690   48.0401 H   0  0  0  0  0  0  0  0  0  0  0  0
   57.9804   30.9128   46.7198 H   0  0  0  0  0  0  0  0  0  0  0  0
   59.8847   34.1135   48.0882 H   0  0  0  0  0  0  0  0  0  0  0  0
   62.7611   33.8040   48.9338 H   0  0  0  0  0  0  0  0  0  0  0  0
   63.6818   33.3591   47.4569 H   0  0  0  0  0  0  0  0  0  0  0  0
   62.6346   34.8186   47.4569 H   0  0  0  0  0  0  0  0  0  0  0  0
   55.1440   28.2010   44.8900 H   0  0  0  0  0  0  0  0  0  0  0  0
  1  2  1  0
  2  3  1  0
  2  4  1  0
  4  5  1  0
  5  6  2  0
  6  7  1  0
  7  8  1  0
  8  9  1  0
  9 10  1  0
 10 11  1  0
 11 12  1  0
 12 13  1  0
 13 14  2  0
 14 15  1  0
 15 16  1  0
 15 17  1  0
 17 18  2  0
  6 19  1  0
 19 20  1  0
 20  4  2  0
 11  7  1  0
 18 13  1  0
  1 21  1  0
  1 22  1  0
  1 23  1  0
  2 24  1  0
  3 25  1  0
  3 26  1  0
  3 27  1  0
  7 28  1  6
  8 29  1  0
  8 30  1  0
  9 31  1  0
  9 32  1  0
 10 33  1  0
 10 34  1  0
 12 35  1  0
 12 36  1  0
 14 37  1  0
 16 38  1  0
 16 39  1  0
 16 40  1  0
 20 41  1  0
M  CHG  1  20   1
M  END
>  <UniqueID>  (2) 
2

>  <SMILES>  (2) 
CC(C)c1nc([C@@H]2CCCN2Cc2cn(C)nn2)o[nH+]1

>  <Energy>  (2) 
113.20332407234521

>  <Genealogy>  (2) 
CC(C)c1nc(C2CCCN2Cc2cn(C)nn2)o[nH+]1 (protonated)
CC(C)c1nc([C@@H]2CCCN2Cc2cn(C)nn2)o[nH+]1 (chirality)
CC(C)c1nc([C@@H]2CCCN2Cc2cn(C)nn2)o[nH+]1 (3D coordinates assigned)
CC(C)c1nc([C@@H]2CCCN2Cc2cn(C)nn2)o[nH+]1 (nonaromatic ring conformer: 113.20332407234521 kcal/mol)

>  <smiles>  (2) 
CC(C)c1noc(C2CCCN2Cc2cn(C)nn2)n1

>  <score_type>  (2) 
oracle

>  <origin>  (2) 
adg

>  <m_score__min__energy>  (2) 
-6.3200000000000003

>  <m_primary>  (2) 
energy

$$$$
2:0
     RDKit          3D

 26 27  0  0  0  0  0  0  0  0999 V2000
   58.3560   27.7770   44.3740 C   0  0  0  0  0  0  0  0  0  0  0  0
   57.1220   28.2980   45.1230 C   0  0  0  0  0  0  0  0  0  0  0  0
   57.1120   29.7860   45.2290 N   0  0  1  0  0  0  0  0  0  0  0  0
   58.2940   30.2260   46.0140 C   0  0  0  0  0  0  0  0  0  0  0  0
   58.3910   31.7270   46.1090 C   0  0  0  0  0  0  0  0  0  0  0  0
   58.9500   32.3510   47.2340 C   0  0  0  0  0  0  0  0  0  0  0  0
   59.1090   33.7420   47.2580 C   0  0  0  0  0  0  0  0  0  0  0  0
   59.7970   34.5220   48.6700 Cl  0  0  0  0  0  0  0  0  0  0  0  0
   58.7300   34.5080   46.1500 C   0  0  0  0  0  0  0  0  0  0  0  0
   58.1920   33.8860   45.0190 C   0  0  0  0  0  0  0  0  0  0  0  0
   58.0230   32.4950   44.9980 C   0  0  0  0  0  0  0  0  0  0  0  0
   57.4690   31.8420   43.8550 N   0  0  0  0  0  0  0  0  0  0  0  0
   57.0880   30.4610   43.9310 C   0  0  0  0  0  0  0  0  0  0  0  0
   56.2640   29.8400   42.6460 S   0  0  0  0  0  0  0  0  0  0  0  0
   59.1171   27.4556   45.1002 H   0  0  0  0  0  0  0  0  0  0  0  0
   58.0683   26.9235   43.7425 H   0  0  0  0  0  0  0  0  0  0  0  0
   58.7670   28.5784   43.7425 H   0  0  0  0  0  0  0  0  0  0  0  0
   56.2187   27.9754   44.5845 H   0  0  0  0  0  0  0  0  0  0  0  0
   57.1488   27.8876   46.1432 H   0  0  0  0  0  0  0  0  0  0  0  0
   56.2600   30.0970   45.7560 H   0  0  0  0  0  0  0  0  0  0  0  0
   58.2181   29.8114   47.0300 H   0  0  0  0  0  0  0  0  0  0  0  0
   59.1949   29.8625   45.4980 H   0  0  0  0  0  0  0  0  0  0  0  0
   59.2638   31.7471   48.0982 H   0  0  0  0  0  0  0  0  0  0  0  0
   58.8554   35.6007   46.1687 H   0  0  0  0  0  0  0  0  0  0  0  0
   57.9015   34.4886   44.1458 H   0  0  0  0  0  0  0  0  0  0  0  0
   57.2970   32.3850   42.9790 H   0  0  0  0  0  0  0  0  0  0  0  0
  1  2  1  0
  2  3  1  0
  3  4  1  0
  4  5  1  0
  5  6  2  0
  6  7  1  0
  7  8  1  0
  7  9  2  0
  9 10  1  0
 10 11  2  0
 11 12  1  0
 12 13  1  0
 13 14  2  0
 13  3  1  0
 11  5  1  0
  1 15  1  0
  1 16  1  0
  1 17  1  0
  2 18  1  0
  2 19  1  0
  3 20  1  1
  4 21  1  0
  4 22  1  0
  6 23  1  0
  9 24  1  0
 10 25  1  0
 12 26  1  0
M  CHG  1   3   1
M  END
>  <UniqueID>  (3) 
3

>  <SMILES>  (3) 
CC[N@H+]1Cc2cc(Cl)ccc2NC1=S

>  <Energy>  (3) 
34.76618659368054

>  <Genealogy>  (3) 
CC[NH+]1Cc2cc(Cl)ccc2NC1=S (protonated)
CC[N@H+]1Cc2cc(Cl)ccc2NC1=S (chirality)
CC[N@H+]1Cc2cc(Cl)ccc2NC1=S (3D coordinates assigned)
CC[N@H+]1Cc2cc(Cl)ccc2NC1=S (nonaromatic ring conformer: 34.76618659368054 kcal/mol)

>  <smiles>  (3) 
CCN1Cc2cc(Cl)ccc2NC1=S

>  <score_type>  (3) 
oracle

>  <origin>  (3) 
adg

>  <m_score__min__energy>  (3) 
-4.6399999999999997

>  <m_primary>  (3) 
energy

$$$$
3:0
     RDKit          3D

 56 55  0  0  0  0  0  0  0  0999 V2000
   51.8464   30.1245   51.6287 H   0  0  0  0  0  0  0  0  0  0  0  0
   52.3140   31.0420   51.2420 C   0  0  0  0  0  0  0  0  0  0  0  0
   53.6070   31.0440   51.0850 N   0  0  0  0  0  0  0  0  0  0  0  0
   54.5900   30.8360   52.1060 C   0  0  0  0  0  0  0  0  0  0  0  0
   54.4020   29.9370   52.9700 O   0  0  0  0  0  0  0  0  0  0  0  0
   55.9100   31.5530   52.0620 C   0  0  0  0  0  0  0  0  0  0  0  0
   56.1368   31.9595   53.0586 H   0  0  0  0  0  0  0  0  0  0  0  0
   55.8516   32.3712   51.3291 H   0  0  0  0  0  0  0  0  0  0  0  0
   57.0020   30.6000   51.6520 C   0  0  0  0  0  0  0  0  0  0  0  0
   56.9300   29.4280   51.9910 O   0  0  0  0  0  0  0  0  0  0  0  0
   58.1770   31.0600   50.8280 C   0  0  0  0  0  0  0  0  0  0  0  0
   58.8496   31.6586   51.4599 H   0  0  0  0  0  0  0  0  0  0  0  0
   57.8059   31.6652   49.9877 H   0  0  0  0  0  0  0  0  0  0  0  0
   58.9480   29.8570   50.2690 C   0  0  0  0  0  0  0  0  0  0  0  0
   58.3055   29.3345   49.5450 H   0  0  0  0  0  0  0  0  0  0  0  0
   59.2154   29.2131   51.1198 H   0  0  0  0  0  0  0  0  0  0  0  0
   60.2540   30.2560   49.5660 C   0  0  0  0  0  0  0  0  0  0  0  0
   60.7928   29.3406   49.2803 H   0  0  0  0  0  0  0  0  0  0  0  0
   60.8346   30.8692   50.2708 H   0  0  0  0  0  0  0  0  0  0  0  0
   60.0190   31.1010   48.3040 C   0  0  0  0  0  0  0  0  0  0  0  0
   59.6507   32.0947   48.5989 H   0  0  0  0  0  0  0  0  0  0  0  0
   59.2786   30.5902   47.6708 H   0  0  0  0  0  0  0  0  0  0  0  0
   61.3180   31.2630   47.5070 C   0  0  0  0  0  0  0  0  0  0  0  0
   61.0825   31.2569   46.4325 H   0  0  0  0  0  0  0  0  0  0  0  0
   61.9888   30.4296   47.7626 H   0  0  0  0  0  0  0  0  0  0  0  0
   62.0260   32.5810   47.8570 C   0  0  0  0  0  0  0  0  0  0  0  0
   63.0702   32.5187   47.5167 H   0  0  0  0  0  0  0  0  0  0  0  0
   61.9555   32.7122   48.9469 H   0  0  0  0  0  0  0  0  0  0  0  0
   61.3690   33.8120   47.2020 C   0  0  0  0  0  0  0  0  0  0  0  0
   60.9710   33.5051   46.2236 H   0  0  0  0  0  0  0  0  0  0  0  0
   62.1551   34.5785   47.1357 H   0  0  0  0  0  0  0  0  0  0  0  0
   60.2180   34.4480   48.0070 C   0  0  0  0  0  0  0  0  0  0  0  0
   60.5241   35.4640   48.2968 H   0  0  0  0  0  0  0  0  0  0  0  0
   60.0396   33.7858   48.8670 H   0  0  0  0  0  0  0  0  0  0  0  0
   58.8810   34.5480   47.2540 C   0  0  0  0  0  0  0  0  0  0  0  0
   58.4013   35.5030   47.5144 H   0  0  0  0  0  0  0  0  0  0  0  0
   58.2657   33.6874   47.5551 H   0  0  0  0  0  0  0  0  0  0  0  0
   59.0520   34.4840   45.7260 C   0  0  0  0  0  0  0  0  0  0  0  0
   59.8944   33.8172   45.4899 H   0  0  0  0  0  0  0  0  0  0  0  0
   59.2400   35.5044   45.3607 H   0  0  0  0  0  0  0  0  0  0  0  0
   57.7840   33.9520   45.0280 C   0  0  0  0  0  0  0  0  0  0  0  0
   57.3103   34.7808   44.4815 H   0  0  0  0  0  0  0  0  0  0  0  0
   57.1236   33.5456   45.8082 H   0  0  0  0  0  0  0  0  0  0  0  0
   58.0810   32.8090   44.0300 C   0  0  0  0  0  0  0  0  0  0  0  0
   59.1661   32.6287   44.0193 H   0  0  0  0  0  0  0  0  0  0  0  0
   57.7028   33.1291   43.0479 H   0  0  0  0  0  0  0  0  0  0  0  0
   57.3710   31.4900   44.3820 C   0  0  0  0  0  0  0  0  0  0  0  0
   57.1276   30.9619   43.4482 H   0  0  0  0  0  0  0  0  0  0  0  0
   56.4671   31.7435   44.9553 H   0  0  0  0  0  0  0  0  0  0  0  0
   58.2240   30.5730   45.2520 C   0  0  0  0  0  0  0  0  0  0  0  0
   58.0261   30.7857   46.3129 H   0  0  0  0  0  0  0  0  0  0  0  0
   57.9730   29.5242   45.0353 H   0  0  0  0  0  0  0  0  0  0  0  0
   59.2882   30.7476   45.0353 H   0  0  0  0  0  0  0  0  0  0  0  0
   51.4340   32.1850   50.9370 C   0  0  0  0  0  0  0  0  0  0  0  0
   50.9880   32.3250   49.7660 O   0  0  0  0  0  0  0  0  0  0  0  0
   51.0270   33.0690   51.9270 O   0  0  0  0  0  0  0  0  0  0  0  0
  1  2  1  0
  2  3  2  0
  3  4  1  0
  4  5  2  0
  4  6  1  0
  6  7  1  0
  6  8  1  0
  6  9  1  0
  9 10  2  0
  9 11  1  0
 11 12  1  0
 11 13  1  0
 11 14  1  0
 14 15  1  0
 14 16  1  0
 14 17  1  0
 17 18  1  0
 17 19  1  0
 17 20  1  0
 20 21  1  0
 20 22  1  0
 20 23  1  0
 23 24  1  0
 23 25  1  0
 23 26  1  0
 26 27  1  0
 26 28  1  0
 26 29  1  0
 29 30  1  0
 29 31  1  0
 29 32  1  0
 32 33  1  0
 32 34  1  0
 32 35  1  0
 35 36  1  0
 35 37  1  0
 35 38  1  0
 38 39  1  0
 38 40  1  0
 38 41  1  0
 41 42  1  0
 41 43  1  0
 41 44  1  0
 44 45  1  0
 44 46  1  0
 44 47  1  0
 47 48  1  0
 47 49  1  0
 47 50  1  0
 50 51  1  0
 50 52  1  0
 50 53  1  0
  2 54  1  0
 54 55  2  0
 54 56  1  0
M  CHG  1  56  -1
M  END
>  <UniqueID>  (4) 
4

>  <SMILES>  (4) 
CCCCCCCCCCCCCCC(=O)CC(=O)/N=C\C(=O)[O-]

>  <Energy>  (4) 
37.40540684308786

>  <Genealogy>  (4) 
CCCCCCCCCCCCCCC(=O)CC(=O)N=CC(=O)[O-] (protonated)
CCCCCCCCCCCCCCC(=O)CC(=O)/N=C\C(=O)[O-] (cis-trans isomerization)
CCCCCCCCCCCCCCC(=O)CC(=O)/N=C\C(=O)[O-] (3D coordinates assigned)
CCCCCCCCCCCCCCC(=O)CC(=O)/N=C\C(=O)[O-] (optimized conformer: 37.40540684308786 kcal/mol)

>  <smiles>  (4) 
CCCCCCCCCCCCCCC(=O)CC(=O)N=CC(=O)O

>  <score_type>  (4) 
oracle

>  <origin>  (4) 
adg

>  <m_score__min__energy>  (4) 
-10.869999999999999

>  <m_primary>  (4) 
energy

$$$$
4:0
     RDKit          3D

 40 43  0  0  0  0  0  0  0  0999 V2000
   56.7090   21.5720   42.9710 C   0  0  0  0  0  0  0  0  0  0  0  0
   56.9600   22.8730   43.6560 C   0  0  0  0  0  0  0  0  0  0  0  0
   56.8870   24.0380   42.9580 N   0  0  0  0  0  0  0  0  0  0  0  0
   57.0760   25.2170   43.5550 N   0  0  0  0  0  0  0  0  0  0  0  0
   57.3450   25.2840   44.8900 C   0  0  0  0  0  0  0  0  0  0  0  0
   57.5540   26.4960   45.5750 C   0  0  0  0  0  0  0  0  0  0  0  0
   57.5800   27.7580   44.8890 N   0  0  0  0  0  0  0  0  0  0  0  0
   58.8180   28.2290   44.2530 C   0  0  0  0  0  0  0  0  0  0  0  0
   59.1700   29.6340   44.7610 C   0  0  0  0  0  0  0  0  0  0  0  0
   57.9860   30.5050   44.8190 N   0  0  0  0  0  0  0  0  0  0  0  0
   58.1420   31.8600   45.2790 C   0  0  0  0  0  0  0  0  0  0  0  0
   58.1500   32.9390   44.3790 C   0  0  0  0  0  0  0  0  0  0  0  0
   58.2830   34.2400   44.8660 C   0  0  0  0  0  0  0  0  0  0  0  0
   58.3980   34.4620   46.2390 C   0  0  0  0  0  0  0  0  0  0  0  0
   58.3690   33.3710   47.1090 C   0  0  0  0  0  0  0  0  0  0  0  0
   58.2380   32.1100   46.6160 N   0  0  0  0  0  0  0  0  0  0  0  0
   56.6890   30.0010   44.3420 C   0  0  0  0  0  0  0  0  0  0  0  0
   56.4050   28.6370   44.9750 C   0  0  0  0  0  0  0  0  0  0  0  0
   57.7540   26.4700   46.9210 N   0  0  0  0  0  0  0  0  0  0  0  0
   57.7740   25.3010   47.6140 C   0  0  0  0  0  0  0  0  0  0  0  0
   57.5960   24.1210   46.9670 N   0  0  0  0  0  0  0  0  0  0  0  0
   57.3840   24.0890   45.6270 C   0  0  0  0  0  0  0  0  0  0  0  0
   57.1890   22.9070   44.9940 N   0  0  0  0  0  0  0  0  0  0  0  0
   56.5571   20.7845   43.7239 H   0  0  0  0  0  0  0  0  0  0  0  0
   55.8105   21.6561   42.3420 H   0  0  0  0  0  0  0  0  0  0  0  0
   57.5743   21.3159   42.3420 H   0  0  0  0  0  0  0  0  0  0  0  0
   56.9880   26.0800   42.9780 H   0  0  0  0  0  0  0  0  0  0  0  0
   59.6382   27.5378   44.4969 H   0  0  0  0  0  0  0  0  0  0  0  0
   58.6716   28.2661   43.1634 H   0  0  0  0  0  0  0  0  0  0  0  0
   59.6008   29.5506   45.7697 H   0  0  0  0  0  0  0  0  0  0  0  0
   59.8902   30.0812   44.0600 H   0  0  0  0  0  0  0  0  0  0  0  0
   58.0521   32.7595   43.2982 H   0  0  0  0  0  0  0  0  0  0  0  0
   58.2972   35.0901   44.1680 H   0  0  0  0  0  0  0  0  0  0  0  0
   58.5101   35.4838   46.6306 H   0  0  0  0  0  0  0  0  0  0  0  0
   58.4521   33.5310   48.1941 H   0  0  0  0  0  0  0  0  0  0  0  0
   55.8951   30.7081   44.6242 H   0  0  0  0  0  0  0  0  0  0  0  0
   56.7172   29.8973   43.2473 H   0  0  0  0  0  0  0  0  0  0  0  0
   56.1403   28.7802   46.0330 H   0  0  0  0  0  0  0  0  0  0  0  0
   55.5750   28.1648   44.4290 H   0  0  0  0  0  0  0  0  0  0  0  0
   57.9349   25.3111   48.7021 H   0  0  0  0  0  0  0  0  0  0  0  0
  1  2  1  0
  2  3  2  0
  3  4  1  0
  4  5  2  0
  5  6  1  0
  6  7  1  0
  7  8  1  0
  8  9  1  0
  9 10  1  0
 10 11  1  0
 11 12  2  0
 12 13  1  0
 13 14  2  0
 14 15  1  0
 15 16  2  0
 10 17  1  0
 17 18  1  0
  6 19  2  0
 19 20  1  0
 20 21  2  0
 21 22  1  0
 22 23  2  0
 23  2  1  0
 22  5  1  0
 18  7  1  0
 16 11  1  0
  1 24  1  0
  1 25  1  0
  1 26  1  0
  4 27  1  0
  8 28  1  0
  8 29  1  0
  9 30  1  0
  9 31  1  0
 12 32  1  0
 13 33  1  0
 14 34  1  0
 15 35  1  0
 17 36  1  0
 17 37  1  0
 18 38  1  0
 18 39  1  0
 20 40  1  0
M  CHG  1   4   1
M  END
>  <UniqueID>  (5) 
5

>  <SMILES>  (5) 
Cc1n[nH+]c2c(N3CCN(c4ccccn4)CC3)ncnc2n1

>  <Energy>  (5) 
57.363593691345706

>  <Genealogy>  (5) 
Cc1n[nH+]c2c(N3CCN(c4ccccn4)CC3)ncnc2n1 (protonated)
Cc1n[nH+]c2c(N3CCN(c4ccccn4)CC3)ncnc2n1 (3D coordinates assigned)
Cc1n[nH+]c2c(N3CCN(c4ccccn4)CC3)ncnc2n1 (nonaromatic ring conformer: 57.363593691345706 kcal/mol)

>  <smiles>  (5) 
Cc1nnc2c(N3CCN(c4ccccn4)CC3)ncnc2n1

>  <score_type>  (5) 
oracle

>  <origin>  (5) 
adg

>  <m_score__min__energy>  (5) 
-6.1600000000000001

>  <m_primary>  (5) 
energy

$$$$
5:0
     RDKit          3D

 46 47  0  0  0  0  0  0  0  0999 V2000
   60.3960   28.6250   44.5110 C   0  0  0  0  0  0  0  0  0  0  0  0
   60.3670   29.3650   45.8080 C   0  0  0  0  0  0  0  0  0  0  0  0
   61.4000   30.1030   46.2680 N   0  0  0  0  0  0  0  0  0  0  0  0
   61.0200   30.6540   47.4110 N   0  0  0  0  0  0  0  0  0  0  0  0
   61.8790   31.5020   48.2280 C   0  0  0  0  0  0  0  0  0  0  0  0
   59.7570   30.2780   47.6920 C   0  0  0  0  0  0  0  0  0  0  0  0
   59.0200   30.6980   48.8480 N   0  0  0  0  0  0  0  0  0  0  0  0
   58.5560   29.7060   49.8170 C   0  0  0  0  0  0  0  0  0  0  0  0
   58.5420   32.0770   48.9230 C   0  0  0  0  0  0  0  0  0  0  0  0
   59.2970   29.4500   46.6900 C   0  0  0  0  0  0  0  0  0  0  0  0
   57.9140   28.8690   46.5340 C   0  0  0  0  0  0  0  0  0  0  0  0
   57.0450   29.7210   45.7100 N   0  0  0  0  0  0  0  0  0  0  0  0
   57.0730   29.3280   44.2950 C   0  0  0  0  0  0  0  0  0  0  0  0
   56.5330   30.4610   43.4100 C   0  0  0  0  0  0  0  0  0  0  0  0
   57.5910   31.5220   43.0620 C   0  0  0  0  0  0  0  0  0  0  0  0
   57.7910   32.5040   44.1830 C   0  0  0  0  0  0  0  0  0  0  0  0
   58.8360   33.4410   44.1410 C   0  0  0  0  0  0  0  0  0  0  0  0
   59.0130   34.3170   45.2130 C   0  0  0  0  0  0  0  0  0  0  0  0
   58.1570   34.2500   46.3140 C   0  0  0  0  0  0  0  0  0  0  0  0
   57.1310   33.3030   46.3250 C   0  0  0  0  0  0  0  0  0  0  0  0
   56.9740   32.4570   45.2720 N   0  0  0  0  0  0  0  0  0  0  0  0
   60.4384   27.5434   44.7068 H   0  0  0  0  0  0  0  0  0  0  0  0
   59.4880   28.8581   43.9355 H   0  0  0  0  0  0  0  0  0  0  0  0
   61.2829   28.9285   43.9355 H   0  0  0  0  0  0  0  0  0  0  0  0
   61.6814   31.3069   49.2924 H   0  0  0  0  0  0  0  0  0  0  0  0
   62.9329   31.2804   48.0041 H   0  0  0  0  0  0  0  0  0  0  0  0
   61.6710   32.5587   48.0041 H   0  0  0  0  0  0  0  0  0  0  0  0
   58.7308   30.0798   50.8367 H   0  0  0  0  0  0  0  0  0  0  0  0
   57.4805   29.5265   49.6716 H   0  0  0  0  0  0  0  0  0  0  0  0
   59.1076   28.7655   49.6716 H   0  0  0  0  0  0  0  0  0  0  0  0
   58.4395   32.3727   49.9775 H   0  0  0  0  0  0  0  0  0  0  0  0
   59.2620   32.7423   48.4240 H   0  0  0  0  0  0  0  0  0  0  0  0
   57.5647   32.1540   48.4240 H   0  0  0  0  0  0  0  0  0  0  0  0
   57.9963   27.8808   46.0578 H   0  0  0  0  0  0  0  0  0  0  0  0
   57.4637   28.7941   47.5348 H   0  0  0  0  0  0  0  0  0  0  0  0
   57.3530   30.7180   45.7940 H   0  0  0  0  0  0  0  0  0  0  0  0
   58.1093   29.1030   44.0025 H   0  0  0  0  0  0  0  0  0  0  0  0
   56.4389   28.4393   44.1605 H   0  0  0  0  0  0  0  0  0  0  0  0
   56.1574   30.0230   42.4735 H   0  0  0  0  0  0  0  0  0  0  0  0
   55.7401   30.9679   43.9795 H   0  0  0  0  0  0  0  0  0  0  0  0
   58.5466   31.0172   42.8568 H   0  0  0  0  0  0  0  0  0  0  0  0
   57.2387   32.0781   42.1808 H   0  0  0  0  0  0  0  0  0  0  0  0
   59.5086   33.4842   43.2716 H   0  0  0  0  0  0  0  0  0  0  0  0
   59.8251   35.0586   45.1905 H   0  0  0  0  0  0  0  0  0  0  0  0
   58.2895   34.9359   47.1637 H   0  0  0  0  0  0  0  0  0  0  0  0
   56.4492   33.2413   47.1860 H   0  0  0  0  0  0  0  0  0  0  0  0
  1  2  1  0
  2  3  2  0
  3  4  1  0
  4  5  1  0
  4  6  1  0
  6  7  1  0
  7  8  1  0
  7  9  1  0
  6 10  2  0
 10 11  1  0
 11 12  1  0
 12 13  1  0
 13 14  1  0
 14 15  1  0
 15 16  1  0
 16 17  2  0
 17 18  1  0
 18 19  2  0
 19 20  1  0
 20 21  2  0
 10  2  1  0
 21 16  1  0
  1 22  1  0
  1 23  1  0
  1 24  1  0
  5 25  1  0
  5 26  1  0
  5 27  1  0
  8 28  1  0
  8 29  1  0
  8 30  1  0
  9 31  1  0
  9 32  1  0
  9 33  1  0
 11 34  1  0
 11 35  1  0
 12 36  1  0
 13 37  1  0
 13 38  1  0
 14 39  1  0
 14 40  1  0
 15 41  1  0
 15 42  1  0
 17 43  1  0
 18 44  1  0
 19 45  1  0
 20 46  1  0
M  END
>  <UniqueID>  (6) 
6

>  <SMILES>  (6) 
Cc1nn(C)c(N(C)C)c1CNCCCc1ccccn1

>  <Energy>  (6) 
71.95037421356085

>  <Genealogy>  (6) 
Cc1nn(C)c(N(C)C)c1CNCCCc1ccccn1 (3D coordinates assigned)
Cc1nn(C)c(N(C)C)c1CNCCCc1ccccn1 (optimized conformer: 71.95037421356085 kcal/mol)

>  <smiles>  (6) 
Cc1nn(C)c(N(C)C)c1CNCCCc1ccccn1

>  <score_type>  (6) 
oracle

>  <origin>  (6) 
adg

>  <m_score__min__energy>  (6) 
-6.7599999999999998

>  <m_primary>  (6) 
energy

$$$$
6:0
     RDKit          3D

 39 41  0  0  0  0  0  0  0  0999 V2000
   67.7170   32.8330   51.2540 C   0  0  0  0  0  0  0  0  0  0  0  0
   66.3690   32.3790   50.7820 C   0  0  0  0  0  0  0  0  0  0  0  0
   65.7160   33.0820   49.7530 C   0  0  0  0  0  0  0  0  0  0  0  0
   64.4530   32.6360   49.3840 C   0  0  0  0  0  0  0  0  0  0  0  0
   63.6770   33.1740   48.4220 N   0  0  0  0  0  0  0  0  0  0  0  0
   62.5600   32.4020   48.4460 C   0  0  0  0  0  0  0  0  0  0  0  0
   61.4000   32.6180   47.5440 C   0  0  0  0  0  0  0  0  0  0  0  0
   60.5270   31.5560   47.2630 C   0  0  0  0  0  0  0  0  0  0  0  0
   59.4300   31.7380   46.4170 C   0  0  0  0  0  0  0  0  0  0  0  0
   59.1740   32.9920   45.8250 C   0  0  0  0  0  0  0  0  0  0  0  0
   58.0340   33.1830   44.9460 N   0  0  0  0  0  0  0  0  0  0  0  0
   57.0380   34.2240   45.2310 C   0  0  0  0  0  0  0  0  0  0  0  0
   57.8590   32.3390   43.7580 C   0  0  0  0  0  0  0  0  0  0  0  0
   60.0550   34.0550   46.1120 C   0  0  0  0  0  0  0  0  0  0  0  0
   61.1510   33.8700   46.9580 C   0  0  0  0  0  0  0  0  0  0  0  0
   62.6870   31.4190   49.4220 C   0  0  0  0  0  0  0  0  0  0  0  0
   63.8880   31.5890   49.9980 N   0  0  0  0  0  0  0  0  0  0  0  0
   64.5020   30.9100   51.0030 C   0  0  0  0  0  0  0  0  0  0  0  0
   63.8300   29.7470   51.6750 C   0  0  0  0  0  0  0  0  0  0  0  0
   65.7460   31.3200   51.3950 N   0  0  0  0  0  0  0  0  0  0  0  0
   67.7373   32.8398   52.3538 H   0  0  0  0  0  0  0  0  0  0  0  0
   68.4882   32.1450   50.8773 H   0  0  0  0  0  0  0  0  0  0  0  0
   67.9149   33.8474   50.8773 H   0  0  0  0  0  0  0  0  0  0  0  0
   66.1851   33.9473   49.2619 H   0  0  0  0  0  0  0  0  0  0  0  0
   60.7083   30.5691   47.7138 H   0  0  0  0  0  0  0  0  0  0  0  0
   58.7576   30.8924   46.2101 H   0  0  0  0  0  0  0  0  0  0  0  0
   56.9285   34.3385   46.3195 H   0  0  0  0  0  0  0  0  0  0  0  0
   57.3687   35.1775   44.7935 H   0  0  0  0  0  0  0  0  0  0  0  0
   56.0708   33.9357   44.7935 H   0  0  0  0  0  0  0  0  0  0  0  0
   57.6449   31.3062   44.0703 H   0  0  0  0  0  0  0  0  0  0  0  0
   57.0211   32.7215   43.1567 H   0  0  0  0  0  0  0  0  0  0  0  0
   58.7799   32.3568   43.1567 H   0  0  0  0  0  0  0  0  0  0  0  0
   59.8767   35.0435   45.6635 H   0  0  0  0  0  0  0  0  0  0  0  0
   61.8258   34.7131   47.1674 H   0  0  0  0  0  0  0  0  0  0  0  0
   61.9440   30.6481   49.6743 H   0  0  0  0  0  0  0  0  0  0  0  0
   63.8981   29.8649   52.7665 H   0  0  0  0  0  0  0  0  0  0  0  0
   62.7722   29.7115   51.3753 H   0  0  0  0  0  0  0  0  0  0  0  0
   64.3275   28.8128   51.3753 H   0  0  0  0  0  0  0  0  0  0  0  0
   66.2330   30.8220   52.1730 H   0  0  0  0  0  0  0  0  0  0  0  0
  1  2  1  0
  2  3  2  0
  3  4  1  0
  4  5  2  0
  5  6  1  0
  6  7  1  0
  7  8  2  0
  8  9  1  0
  9 10  2  0
 10 11  1  0
 11 12  1  0
 11 13  1  0
 10 14  1  0
 14 15  2  0
  6 16  2  0
 16 17  1  0
 17 18  1  0
 18 19  1  0
 18 20  2  0
 20  2  1  0
 17  4  1  0
 15  7  1  0
  1 21  1  0
  1 22  1  0
  1 23  1  0
  3 24  1  0
  8 25  1  0
  9 26  1  0
 12 27  1  0
 12 28  1  0
 12 29  1  0
 13 30  1  0
 13 31  1  0
 13 32  1  0
 14 33  1  0
 15 34  1  0
 16 35  1  0
 19 36  1  0
 19 37  1  0
 19 38  1  0
 20 39  1  0
M  CHG  1  20   1
M  END
>  <UniqueID>  (7) 
7

>  <SMILES>  (7) 
Cc1cc2nc(-c3ccc(N(C)C)cc3)cn2c(C)[nH+]1

>  <Energy>  (7) 
77.21644504889426

>  <Genealogy>  (7) 
Cc1cc2nc(-c3ccc(N(C)C)cc3)cn2c(C)[nH+]1 (protonated)
Cc1cc2nc(-c3ccc(N(C)C)cc3)cn2c(C)[nH+]1 (3D coordinates assigned)
Cc1cc2nc(-c3ccc(N(C)C)cc3)cn2c(C)[nH+]1 (optimized conformer: 77.21644504889426 kcal/mol)

>  <smiles>  (7) 
Cc1cc2nc(-c3ccc(N(C)C)cc3)cn2c(C)n1

>  <score_type>  (7) 
oracle

>  <origin>  (7) 
adg

>  <m_score__min__energy>  (7) 
-4.71

>  <m_primary>  (7) 
energy

$$$$
7:0
     RDKit          3D

 49 52  0  0  0  0  0  0  0  0999 V2000
   56.2570   29.8070   42.7060 C   0  0  0  0  0  0  0  0  0  0  0  0
   57.0260   29.5520   44.0120 C   0  0  0  0  0  0  0  0  0  0  0  0
   57.1260   30.7270   44.9150 N   0  0  0  0  0  0  0  0  0  0  0  0
   57.5080   31.9610   44.1790 C   0  0  0  0  0  0  0  0  0  0  0  0
   57.8440   33.1070   45.1390 C   0  0  0  0  0  0  0  0  0  0  0  0
   58.9140   32.7050   46.0590 N   0  0  0  0  0  0  0  0  0  0  0  0
   59.5590   33.7040   46.8740 C   0  0  0  0  0  0  0  0  0  0  0  0
   58.9120   34.7300   47.2210 O   0  0  0  0  0  0  0  0  0  0  0  0
   60.9660   33.5630   47.3120 C   0  0  0  0  0  0  0  0  0  0  0  0
   62.0190   33.8540   46.4120 C   0  0  0  0  0  0  0  0  0  0  0  0
   63.3610   33.7210   46.8090 C   0  0  0  0  0  0  0  0  0  0  0  0
   63.6390   33.2810   48.1020 C   0  0  0  0  0  0  0  0  0  0  0  0
   64.8900   33.1160   48.6030 N   0  0  0  0  0  0  0  0  0  0  0  0
   64.8400   32.6720   49.8840 C   0  0  0  0  0  0  0  0  0  0  0  0
   66.0140   32.4140   50.6670 N   0  0  0  0  0  0  0  0  0  0  0  0
   67.0650   33.3890   50.8870 C   0  0  0  0  0  0  0  0  0  0  0  0
   68.1680   32.6430   51.6280 C   0  0  0  0  0  0  0  0  0  0  0  0
   67.5410   31.3420   52.1290 C   0  0  0  0  0  0  0  0  0  0  0  0
   66.2730   31.1390   51.3090 C   0  0  0  0  0  0  0  0  0  0  0  0
   63.2500   32.4700   50.4400 S   0  0  0  0  0  0  0  0  0  0  0  0
   62.6060   32.9790   48.9750 C   0  0  0  0  0  0  0  0  0  0  0  0
   61.2690   33.1040   48.6110 C   0  0  0  0  0  0  0  0  0  0  0  0
   59.2290   31.2770   46.2100 C   0  0  0  0  0  0  0  0  0  0  0  0
   57.9350   30.4550   46.1420 C   0  0  0  0  0  0  0  0  0  0  0  0
   55.2370   30.1452   42.9411 H   0  0  0  0  0  0  0  0  0  0  0  0
   56.7745   30.5816   42.1211 H   0  0  0  0  0  0  0  0  0  0  0  0
   56.2091   28.8766   42.1211 H   0  0  0  0  0  0  0  0  0  0  0  0
   56.5164   28.7438   44.5571 H   0  0  0  0  0  0  0  0  0  0  0  0
   58.0555   29.2967   43.7206 H   0  0  0  0  0  0  0  0  0  0  0  0
   56.1460   30.8960   45.2460 H   0  0  0  0  0  0  0  0  0  0  0  0
   58.3888   31.7471   43.5558 H   0  0  0  0  0  0  0  0  0  0  0  0
   56.6543   32.2704   43.5581 H   0  0  0  0  0  0  0  0  0  0  0  0
   58.1741   33.9812   44.5587 H   0  0  0  0  0  0  0  0  0  0  0  0
   56.9465   33.3587   45.7230 H   0  0  0  0  0  0  0  0  0  0  0  0
   61.7846   34.1880   45.3905 H   0  0  0  0  0  0  0  0  0  0  0  0
   64.1773   33.9600   46.1115 H   0  0  0  0  0  0  0  0  0  0  0  0
   67.4395   33.7731   49.9267 H   0  0  0  0  0  0  0  0  0  0  0  0
   66.7031   34.2549   51.4608 H   0  0  0  0  0  0  0  0  0  0  0  0
   69.0048   32.4258   50.9479 H   0  0  0  0  0  0  0  0  0  0  0  0
   68.5677   33.2416   52.4598 H   0  0  0  0  0  0  0  0  0  0  0  0
   68.2333   30.5010   51.9755 H   0  0  0  0  0  0  0  0  0  0  0  0
   67.3191   31.3919   53.2052 H   0  0  0  0  0  0  0  0  0  0  0  0
   66.4256   30.3533   50.5544 H   0  0  0  0  0  0  0  0  0  0  0  0
   65.4284   30.8216   51.9382 H   0  0  0  0  0  0  0  0  0  0  0  0
   60.4668   32.8508   49.3197 H   0  0  0  0  0  0  0  0  0  0  0  0
   59.9049   30.9635   45.4007 H   0  0  0  0  0  0  0  0  0  0  0  0
   59.7168   31.1111   47.1819 H   0  0  0  0  0  0  0  0  0  0  0  0
   58.1985   29.3871   46.1569 H   0  0  0  0  0  0  0  0  0  0  0  0
   57.3205   30.7423   47.0079 H   0  0  0  0  0  0  0  0  0  0  0  0
  1  2  1  0
  2  3  1  0
  3  4  1  0
  4  5  1  0
  5  6  1  0
  6  7  1  0
  7  8  2  0
  7  9  1  0
  9 10  2  0
 10 11  1  0
 11 12  2  0
 12 13  1  0
 13 14  2  0
 14 15  1  0
 15 16  1  0
 16 17  1  0
 17 18  1  0
 18 19  1  0
 14 20  1  0
 20 21  1  0
 21 22  2  0
  6 23  1  0
 23 24  1  0
 24  3  1  0
 22  9  1  0
 21 12  1  0
 19 15  1  0
  1 25  1  0
  1 26  1  0
  1 27  1  0
  2 28  1  0
  2 29  1  0
  3 30  1  0
  4 31  1  0
  4 32  1  0
  5 33  1  0
  5 34  1  0
 10 35  1  0
 11 36  1  0
 16 37  1  0
 16 38  1  0
 17 39  1  0
 17 40  1  0
 18 41  1  0
 18 42  1  0
 19 43  1  0
 19 44  1  0
 22 45  1  0
 23 46  1  0
 23 47  1  0
 24 48  1  0
 24 49  1  0
M  CHG  1   3   1
M  END
>  <UniqueID>  (8) 
8

>  <SMILES>  (8) 
CC[NH+]1CCN(C(=O)c2ccc3nc(N4CCCC4)sc3c2)CC1

>  <Energy>  (8) 
96.81517449916524

>  <Genealogy>  (8) 
CC[NH+]1CCN(C(=O)c2ccc3nc(N4CCCC4)sc3c2)CC1 (protonated)
CC[NH+]1CCN(C(=O)c2ccc3nc(N4CCCC4)sc3c2)CC1 (3D coordinates assigned)
CC[NH+]1CCN(C(=O)c2ccc3nc(N4CCCC4)sc3c2)CC1 (nonaromatic ring conformer: 96.81517449916524 kcal/mol)

>  <smiles>  (8) 
CCN1CCN(C(=O)c2ccc3nc(N4CCCC4)sc3c2)CC1

>  <score_type>  (8) 
oracle

>  <origin>  (8) 
adg

>  <m_score__min__energy>  (8) 
-5.9800000000000004

>  <m_primary>  (8) 
energy

$$$$
8:0
     RDKit          3D

 30 31  0  0  0  0  0  0  0  0999 V2000
   57.9500   26.8860   42.6320 C   0  0  0  0  0  0  0  0  0  0  0  0
   57.6740   28.1750   43.2730 N   0  0  0  0  0  0  0  0  0  0  0  0
   58.3550   28.2630   44.5460 C   0  0  0  0  0  0  0  0  0  0  0  0
   59.1620   27.1880   44.9640 C   0  0  0  0  0  0  0  0  0  0  0  0
   59.8490   27.2380   46.1790 C   0  0  0  0  0  0  0  0  0  0  0  0
   59.7390   28.3600   46.9970 C   0  0  0  0  0  0  0  0  0  0  0  0
   58.9390   29.4350   46.6060 C   0  0  0  0  0  0  0  0  0  0  0  0
   58.2400   29.4040   45.3870 C   0  0  0  0  0  0  0  0  0  0  0  0
   57.3900   30.5650   45.0320 C   0  0  0  0  0  0  0  0  0  0  0  0
   56.2660   30.3560   44.5010 O   0  0  0  0  0  0  0  0  0  0  0  0
   57.8150   31.9600   45.3120 C   0  0  0  0  0  0  0  0  0  0  0  0
   58.2220   32.8000   44.2590 C   0  0  0  0  0  0  0  0  0  0  0  0
   58.6300   34.1120   44.5160 C   0  0  0  0  0  0  0  0  0  0  0  0
   58.6440   34.5990   45.8250 C   0  0  0  0  0  0  0  0  0  0  0  0
   58.2530   33.7730   46.8800 C   0  0  0  0  0  0  0  0  0  0  0  0
   57.8430   32.4600   46.6290 C   0  0  0  0  0  0  0  0  0  0  0  0
   58.1140   26.1201   43.4043 H   0  0  0  0  0  0  0  0  0  0  0  0
   57.0933   26.5972   42.0053 H   0  0  0  0  0  0  0  0  0  0  0  0
   58.8498   26.9733   42.0053 H   0  0  0  0  0  0  0  0  0  0  0  0
   58.0090   28.9420   42.6440 H   0  0  0  0  0  0  0  0  0  0  0  0
   56.6420   28.3000   43.3810 H   0  0  0  0  0  0  0  0  0  0  0  0
   59.2527   26.2970   44.3254 H   0  0  0  0  0  0  0  0  0  0  0  0
   60.4775   26.3906   46.4902 H   0  0  0  0  0  0  0  0  0  0  0  0
   60.2832   28.3990   47.9522 H   0  0  0  0  0  0  0  0  0  0  0  0
   58.8547   30.3161   47.2591 H   0  0  0  0  0  0  0  0  0  0  0  0
   58.2191   32.4215   43.2262 H   0  0  0  0  0  0  0  0  0  0  0  0
   58.9408   34.7626   43.6852 H   0  0  0  0  0  0  0  0  0  0  0  0
   58.9629   35.6327   46.0243 H   0  0  0  0  0  0  0  0  0  0  0  0
   58.2674   34.1558   47.9111 H   0  0  0  0  0  0  0  0  0  0  0  0
   57.5402   31.8130   47.4655 H   0  0  0  0  0  0  0  0  0  0  0  0
  1  2  1  0
  2  3  1  0
  3  4  2  0
  4  5  1  0
  5  6  2  0
  6  7  1  0
  7  8  2  0
  8  9  1  0
  9 10  2  0
  9 11  1  0
 11 12  2  0
 12 13  1  0
 13 14  2  0
 14 15  1  0
 15 16  2  0
  8  3  1  0
 16 11  1  0
  1 17  1  0
  1 18  1  0
  1 19  1  0
  2 20  1  0
  2 21  1  0
  4 22  1  0
  5 23  1  0
  6 24  1  0
  7 25  1  0
 12 26  1  0
 13 27  1  0
 14 28  1  0
 15 29  1  0
 16 30  1  0
M  CHG  1   2   1
M  END
>  <UniqueID>  (9) 
9

>  <SMILES>  (9) 
C[NH2+]c1ccccc1C(=O)c1ccccc1

>  <Energy>  (9) 
39.673278794909535

>  <Genealogy>  (9) 
C[NH2+]c1ccccc1C(=O)c1ccccc1 (protonated)
C[NH2+]c1ccccc1C(=O)c1ccccc1 (3D coordinates assigned)
C[NH2+]c1ccccc1C(=O)c1ccccc1 (optimized conformer: 39.673278794909535 kcal/mol)

>  <smiles>  (9) 
CNc1ccccc1C(=O)c1ccccc1

>  <score_type>  (9) 
oracle

>  <origin>  (9) 
adg

>  <m_score__min__energy>  (9) 
-5.6100000000000003

>  <m_primary>  (9) 
energy

$$$$
9:0
     RDKit          3D

 75 79  0  0  0  0  0  0  0  0999 V2000
   57.8460   33.8510   45.0620 C   0  0  0  0  0  0  0  0  0  0  0  0
   58.2750   33.1580   46.3690 C   0  0  0  0  0  0  0  0  0  0  0  0
   59.4850   33.7510   46.9740 N   0  0  0  0  0  0  0  0  0  0  0  0
   59.4650   33.6120   48.4350 C   0  0  0  0  0  0  0  0  0  0  0  0
   60.7370   33.2170   46.3830 C   0  0  0  0  0  0  0  0  0  0  0  0
   61.8930   34.2070   46.5530 C   0  0  0  0  0  0  0  0  0  0  0  0
   63.2800   33.5450   46.4090 C   0  0  0  0  0  0  0  0  0  0  0  0
   64.1470   33.6620   47.6150 N   0  0  0  0  0  0  0  0  0  0  0  0
   63.7920   32.7320   48.6610 C   0  0  0  0  0  0  0  0  0  0  0  0
   64.6990   32.4400   49.6970 C   0  0  0  0  0  0  0  0  0  0  0  0
   64.3590   31.5410   50.6990 C   0  0  0  0  0  0  0  0  0  0  0  0
   63.1650   30.8310   50.6330 C   0  0  0  0  0  0  0  0  0  0  0  0
   62.9040   29.8030   51.5480 C   0  0  0  0  0  0  0  0  0  0  0  0
   61.9500   28.8730   51.3010 N   0  0  0  0  0  0  0  0  0  0  0  0
   61.1760   28.9270   50.1800 C   0  0  0  0  0  0  0  0  0  0  0  0
   60.4640   27.8460   49.8190 N   0  0  0  0  0  0  0  0  0  0  0  0
   59.8650   27.7550   48.6090 C   0  0  0  0  0  0  0  0  0  0  0  0
   59.2800   26.5660   48.2130 C   0  0  0  0  0  0  0  0  0  0  0  0
   58.6880   26.5040   46.9370 C   0  0  0  0  0  0  0  0  0  0  0  0
   57.8990   25.4070   46.5630 O   0  0  0  0  0  0  0  0  0  0  0  0
   57.1190   24.3200   46.1880 C   0  0  0  0  0  0  0  0  0  0  0  0
   58.0900   23.2490   45.8150 C   0  0  0  0  0  0  0  0  0  0  0  0
   57.8800   22.8390   44.4150 N   0  0  0  0  0  0  0  0  0  0  0  0
   57.4170   21.4300   44.3500 C   0  0  0  0  0  0  0  0  0  0  0  0
   56.8630   21.0890   42.9390 C   0  0  0  0  0  0  0  0  0  0  0  0
   55.9290   22.0210   42.3890 O   0  0  0  0  0  0  0  0  0  0  0  0
   55.6880   23.1290   43.2420 C   0  0  0  0  0  0  0  0  0  0  0  0
   57.0000   23.7860   43.6930 C   0  0  0  0  0  0  0  0  0  0  0  0
   58.8190   27.5430   46.0220 C   0  0  0  0  0  0  0  0  0  0  0  0
   58.3240   27.3840   44.7370 O   0  0  0  0  0  0  0  0  0  0  0  0
   57.8000   28.4470   43.9570 C   0  0  0  0  0  0  0  0  0  0  0  0
   59.4580   28.7280   46.4280 C   0  0  0  0  0  0  0  0  0  0  0  0
   59.9200   28.8530   47.7230 C   0  0  0  0  0  0  0  0  0  0  0  0
   60.5100   30.0250   48.1150 C   0  0  0  0  0  0  0  0  0  0  0  0
   61.2890   30.0460   49.3000 C   0  0  0  0  0  0  0  0  0  0  0  0
   62.2900   31.0150   49.5280 C   0  0  0  0  0  0  0  0  0  0  0  0
   62.5840   32.0500   48.6130 C   0  0  0  0  0  0  0  0  0  0  0  0
   57.2807   34.7642   45.2996 H   0  0  0  0  0  0  0  0  0  0  0  0
   58.7391   34.1146   44.4765 H   0  0  0  0  0  0  0  0  0  0  0  0
   57.2118   33.1691   44.4765 H   0  0  0  0  0  0  0  0  0  0  0  0
   57.4496   33.2345   47.0921 H   0  0  0  0  0  0  0  0  0  0  0  0
   58.5129   32.1130   46.1212 H   0  0  0  0  0  0  0  0  0  0  0  0
   59.6070   34.5991   48.8992 H   0  0  0  0  0  0  0  0  0  0  0  0
   58.4975   33.1943   48.7504 H   0  0  0  0  0  0  0  0  0  0  0  0
   60.2755   32.9385   48.7504 H   0  0  0  0  0  0  0  0  0  0  0  0
   60.9963   32.2725   46.8837 H   0  0  0  0  0  0  0  0  0  0  0  0
   60.5733   33.0524   45.3078 H   0  0  0  0  0  0  0  0  0  0  0  0
   61.7979   34.9916   45.7880 H   0  0  0  0  0  0  0  0  0  0  0  0
   61.8281   34.6169   47.5717 H   0  0  0  0  0  0  0  0  0  0  0  0
   63.1305   32.4764   46.1954 H   0  0  0  0  0  0  0  0  0  0  0  0
   63.7984   34.0766   45.5974 H   0  0  0  0  0  0  0  0  0  0  0  0
   64.1540   34.6340   47.9830 H   0  0  0  0  0  0  0  0  0  0  0  0
   65.1280   33.4460   47.3150 H   0  0  0  0  0  0  0  0  0  0  0  0
   65.6848   32.9278   49.7129 H   0  0  0  0  0  0  0  0  0  0  0  0
   65.0385   31.3894   51.5506 H   0  0  0  0  0  0  0  0  0  0  0  0
   63.4827   29.7499   52.4819 H   0  0  0  0  0  0  0  0  0  0  0  0
   59.2773   25.6902   48.8786 H   0  0  0  0  0  0  0  0  0  0  0  0
   56.4866   23.9920   47.0262 H   0  0  0  0  0  0  0  0  0  0  0  0
   56.4422   24.5678   45.3570 H   0  0  0  0  0  0  0  0  0  0  0  0
   59.1150   23.6305   45.9324 H   0  0  0  0  0  0  0  0  0  0  0  0
   57.9363   22.3797   46.4713 H   0  0  0  0  0  0  0  0  0  0  0  0
   58.2623   20.7631   44.5751 H   0  0  0  0  0  0  0  0  0  0  0  0
   56.6104   21.2925   45.0852 H   0  0  0  0  0  0  0  0  0  0  0  0
   57.7174   21.0224   42.2493 H   0  0  0  0  0  0  0  0  0  0  0  0
   56.3061   20.1480   43.0592 H   0  0  0  0  0  0  0  0  0  0  0  0
   55.0834   23.8719   42.7011 H   0  0  0  0  0  0  0  0  0  0  0  0
   55.1570   22.7684   44.1353 H   0  0  0  0  0  0  0  0  0  0  0  0
   57.5329   24.1588   42.8058 H   0  0  0  0  0  0  0  0  0  0  0  0
   56.7480   24.6055   44.3821 H   0  0  0  0  0  0  0  0  0  0  0  0
   57.4125   29.2331   44.6217 H   0  0  0  0  0  0  0  0  0  0  0  0
   58.5962   28.8631   43.3223 H   0  0  0  0  0  0  0  0  0  0  0  0
   56.9850   28.0689   43.3223 H   0  0  0  0  0  0  0  0  0  0  0  0
   59.5897   29.5547   45.7144 H   0  0  0  0  0  0  0  0  0  0  0  0
   60.3812   30.9396   47.5176 H   0  0  0  0  0  0  0  0  0  0  0  0
   61.8416   32.3207   47.8478 H   0  0  0  0  0  0  0  0  0  0  0  0
  1  2  1  0
  2  3  1  0
  3  4  1  0
  3  5  1  0
  5  6  1  0
  6  7  1  0
  7  8  1  0
  8  9  1  0
  9 10  2  0
 10 11  1  0
 11 12  2  0
 12 13  1  0
 13 14  2  0
 14 15  1  0
 15 16  2  0
 16 17  1  0
 17 18  2  0
 18 19  1  0
 19 20  1  0
 20 21  1  0
 21 22  1  0
 22 23  1  0
 23 24  1  0
 24 25  1  0
 25 26  1  0
 26 27  1  0
 27 28  1  0
 19 29  2  0
 29 30  1  0
 30 31  1  0
 29 32  1  0
 32 33  2  0
 33 34  1  0
 34 35  2  0
 35 36  1  0
 36 37  2  0
 37  9  1  0
 36 12  1  0
 35 15  1  0
 33 17  1  0
 28 23  1  0
  1 38  1  0
  1 39  1  0
  1 40  1  0
  2 41  1  0
  2 42  1  0
  4 43  1  0
  4 44  1  0
  4 45  1  0
  5 46  1  0
  5 47  1  0
  6 48  1  0
  6 49  1  0
  7 50  1  0
  7 51  1  0
  8 52  1  0
  8 53  1  0
 10 54  1  0
 11 55  1  0
 13 56  1  0
 18 57  1  0
 21 58  1  0
 21 59  1  0
 22 60  1  0
 22 61  1  0
 24 62  1  0
 24 63  1  0
 25 64  1  0
 25 65  1  0
 27 66  1  0
 27 67  1  0
 28 68  1  0
 28 69  1  0
 31 70  1  0
 31 71  1  0
 31 72  1  0
 32 73  1  0
 34 74  1  0
 37 75  1  0
M  CHG  1   8   1
M  END
>  <UniqueID>  (10) 
10

>  <SMILES>  (10) 
CCN(C)CCC[NH2+]c1ccc2cnc3nc4cc(OCCN5CCOCC5)c(OC)cc4cc3c2c1

>  <Energy>  (10) 
187.07008457630292

>  <Genealogy>  (10) 
CCN(C)CCC[NH2+]c1ccc2cnc3nc4cc(OCCN5CCOCC5)c(OC)cc4cc3c2c1 (protonated)
CCN(C)CCC[NH2+]c1ccc2cnc3nc4cc(OCCN5CCOCC5)c(OC)cc4cc3c2c1 (3D coordinates assigned)
CCN(C)CCC[NH2+]c1ccc2cnc3nc4cc(OCCN5CCOCC5)c(OC)cc4cc3c2c1 (nonaromatic ring conformer: 187.07008457630292 kcal/mol)

>  <smiles>  (10) 
CCN(C)CCCNc1ccc2cnc3nc4cc(OCCN5CCOCC5)c(OC)cc4cc3c2c1

>  <score_type>  (10) 
oracle

>  <origin>  (10) 
adg

>  <m_score__min__energy>  (10) 
-6.3799999999999999

>  <m_primary>  (10) 
energy

$$$$
10:0
     RDKit          3D

 58 59  0  0  0  0  0  0  0  0999 V2000
   57.8000   21.4420   44.1370 C   0  0  0  0  0  0  0  0  0  0  0  0
   57.0200   22.4100   45.0220 C   0  0  0  0  0  0  0  0  0  0  0  0
   55.6720   22.6670   44.4720 N   0  0  0  0  0  0  0  0  0  0  0  0
   55.6600   23.6660   43.3770 C   0  0  0  0  0  0  0  0  0  0  0  0
   56.9820   24.4260   43.3680 C   0  0  0  0  0  0  0  0  0  0  0  0
   54.6760   22.9540   45.5300 C   0  0  0  0  0  0  0  0  0  0  0  0
   54.7250   24.3860   46.0260 C   0  0  0  0  0  0  0  0  0  0  0  0
   53.8530   25.2000   45.6260 O   0  0  0  0  0  0  0  0  0  0  0  0
   55.7820   24.8730   46.8640 N   0  0  0  0  0  0  0  0  0  0  0  0
   56.8730   25.7060   46.4550 C   0  0  0  0  0  0  0  0  0  0  0  0
   58.1730   25.3570   46.8330 C   0  0  0  0  0  0  0  0  0  0  0  0
   59.2580   26.1400   46.4340 C   0  0  0  0  0  0  0  0  0  0  0  0
   59.0520   27.2690   45.6370 C   0  0  0  0  0  0  0  0  0  0  0  0
   57.7560   27.6120   45.2210 C   0  0  0  0  0  0  0  0  0  0  0  0
   57.5470   28.8030   44.3200 C   0  0  0  0  0  0  0  0  0  0  0  0
   57.2020   30.0070   45.1060 N   0  0  0  0  0  0  0  0  0  0  0  0
   56.8730   31.1600   44.2250 C   0  0  0  0  0  0  0  0  0  0  0  0
   58.0440   32.1440   44.0600 C   0  0  0  0  0  0  0  0  0  0  0  0
   58.5380   32.6990   45.4280 C   0  0  0  0  0  0  0  0  0  0  0  0
   58.1070   34.0930   45.7270 N   0  0  0  0  0  0  0  0  0  0  0  0
   56.9540   34.5720   44.9410 C   0  0  0  0  0  0  0  0  0  0  0  0
   59.2260   35.0470   45.6270 C   0  0  0  0  0  0  0  0  0  0  0  0
   58.1880   31.7550   46.5980 C   0  0  0  0  0  0  0  0  0  0  0  0
   58.2350   30.2960   46.1350 C   0  0  0  0  0  0  0  0  0  0  0  0
   56.6680   26.8180   45.6220 C   0  0  0  0  0  0  0  0  0  0  0  0
   58.3648   20.7411   44.7692 H   0  0  0  0  0  0  0  0  0  0  0  0
   57.0994   20.8800   43.5019 H   0  0  0  0  0  0  0  0  0  0  0  0
   58.4981   22.0071   43.5019 H   0  0  0  0  0  0  0  0  0  0  0  0
   56.9207   21.9763   46.0280 H   0  0  0  0  0  0  0  0  0  0  0  0
   57.5675   23.3632   45.0637 H   0  0  0  0  0  0  0  0  0  0  0  0
   55.5257   23.1524   42.4136 H   0  0  0  0  0  0  0  0  0  0  0  0
   54.8318   24.3726   43.5343 H   0  0  0  0  0  0  0  0  0  0  0  0
   57.3052   24.6118   44.4029 H   0  0  0  0  0  0  0  0  0  0  0  0
   57.7449   23.8286   42.8473 H   0  0  0  0  0  0  0  0  0  0  0  0
   56.8496   25.3859   42.8473 H   0  0  0  0  0  0  0  0  0  0  0  0
   53.6716   22.7582   45.1265 H   0  0  0  0  0  0  0  0  0  0  0  0
   54.9124   22.3042   46.3855 H   0  0  0  0  0  0  0  0  0  0  0  0
   58.3419   24.4608   47.4480 H   0  0  0  0  0  0  0  0  0  0  0  0
   60.2766   25.8676   46.7476 H   0  0  0  0  0  0  0  0  0  0  0  0
   59.9077   27.8907   45.3348 H   0  0  0  0  0  0  0  0  0  0  0  0
   58.4718   28.9942   43.7560 H   0  0  0  0  0  0  0  0  0  0  0  0
   56.7162   28.5822   43.6337 H   0  0  0  0  0  0  0  0  0  0  0  0
   56.5963   30.7749   43.2325 H   0  0  0  0  0  0  0  0  0  0  0  0
   56.0456   31.7096   44.6977 H   0  0  0  0  0  0  0  0  0  0  0  0
   58.8779   31.6237   43.5660 H   0  0  0  0  0  0  0  0  0  0  0  0
   57.6910   32.9934   43.4568 H   0  0  0  0  0  0  0  0  0  0  0  0
   59.6322   32.7412   45.3230 H   0  0  0  0  0  0  0  0  0  0  0  0
   56.1572   34.9030   45.6233 H   0  0  0  0  0  0  0  0  0  0  0  0
   57.2671   35.4145   44.3068 H   0  0  0  0  0  0  0  0  0  0  0  0
   56.5780   33.7556   44.3068 H   0  0  0  0  0  0  0  0  0  0  0  0
   59.5579   35.3300   46.6368 H   0  0  0  0  0  0  0  0  0  0  0  0
   60.0603   34.5780   45.0848 H   0  0  0  0  0  0  0  0  0  0  0  0
   58.8949   35.9450   45.0848 H   0  0  0  0  0  0  0  0  0  0  0  0
   58.9135   31.9011   47.4119 H   0  0  0  0  0  0  0  0  0  0  0  0
   57.1727   31.9856   46.9528 H   0  0  0  0  0  0  0  0  0  0  0  0
   59.2282   30.0899   45.7094 H   0  0  0  0  0  0  0  0  0  0  0  0
   58.0361   29.6553   47.0068 H   0  0  0  0  0  0  0  0  0  0  0  0
   55.6522   27.0684   45.2822 H   0  0  0  0  0  0  0  0  0  0  0  0
  1  2  1  0
  2  3  1  0
  3  4  1  0
  4  5  1  0
  3  6  1  0
  6  7  1  0
  7  8  2  0
  7  9  1  0
  9 10  1  0
 10 11  2  0
 11 12  1  0
 12 13  2  0
 13 14  1  0
 14 15  1  0
 15 16  1  0
 16 17  1  0
 17 18  1  0
 18 19  1  0
 19 20  1  0
 20 21  1  0
 20 22  1  0
 19 23  1  0
 23 24  1  0
 14 25  2  0
 25 10  1  0
 24 16  1  0
  1 26  1  0
  1 27  1  0
  1 28  1  0
  2 29  1  0
  2 30  1  0
  4 31  1  0
  4 32  1  0
  5 33  1  0
  5 34  1  0
  5 35  1  0
  6 36  1  0
  6 37  1  0
 11 38  1  0
 12 39  1  0
 13 40  1  0
 15 41  1  0
 15 42  1  0
 17 43  1  0
 17 44  1  0
 18 45  1  0
 18 46  1  0
 19 47  1  0
 21 48  1  0
 21 49  1  0
 21 50  1  0
 22 51  1  0
 22 52  1  0
 22 53  1  0
 23 54  1  0
 23 55  1  0
 24 56  1  0
 24 57  1  0
 25 58  1  0
M  CHG  1   9  -1
M  END
>  <UniqueID>  (11) 
11

>  <SMILES>  (11) 
CCN(CC)CC(=O)[N-]c1cccc(CN2CCC(N(C)C)CC2)c1

>  <Energy>  (11) 
76.27484075830068

>  <Genealogy>  (11) 
CCN(CC)CC(=O)[N-]c1cccc(CN2CCC(N(C)C)CC2)c1 (protonated)
CCN(CC)CC(=O)[N-]c1cccc(CN2CCC(N(C)C)CC2)c1 (3D coordinates assigned)
CCN(CC)CC(=O)[N-]c1cccc(CN2CCC(N(C)C)CC2)c1 (nonaromatic ring conformer: 76.27484075830068 kcal/mol)

>  <smiles>  (11) 
CCN(CC)CC(=O)Nc1cccc(CN2CCC(N(C)C)CC2)c1

>  <score_type>  (11) 
oracle

>  <origin>  (11) 
adg

>  <m_score__min__energy>  (11) 
-9.7799999999999994

>  <m_primary>  (11) 
energy

$$$$
11:0
     RDKit          3D

 45 47  0  0  1  0  0  0  0  0999 V2000
   61.8440   28.3390   51.5960 C   0  0  0  0  0  0  0  0  0  0  0  0
   61.3170   27.3640   50.7130 O   0  0  0  0  0  0  0  0  0  0  0  0
   60.5800   27.8340   49.6350 C   0  0  0  0  0  0  0  0  0  0  0  0
   59.8170   28.9870   49.7590 C   0  0  0  0  0  0  0  0  0  0  0  0
   59.0700   29.4750   48.6830 C   0  0  0  0  0  0  0  0  0  0  0  0
   59.0920   28.7930   47.4760 C   0  0  0  0  0  0  0  0  0  0  0  0
   58.3240   29.1600   46.3100 C   0  0  0  0  0  0  0  0  0  0  0  0
   57.9770   28.1040   45.4590 C   0  0  0  0  0  0  0  0  0  0  0  0
   57.2030   28.2690   44.3770 N   0  0  0  0  0  0  0  0  0  0  0  0
   56.7580   29.5120   44.1280 C   0  0  0  0  0  0  0  0  0  0  0  0
   55.8980   29.7340   42.9420 C   0  0  0  0  0  0  0  0  0  0  0  0
   57.0580   30.5600   44.9060 N   0  0  0  0  0  0  0  0  0  0  0  0
   57.8420   30.3850   45.9940 C   0  0  0  0  0  0  0  0  0  0  0  0
   58.1640   31.3980   46.6520 N   0  0  0  0  0  0  0  0  0  0  0  0
   59.1130   32.3700   46.3300 C   0  0  0  0  0  0  0  0  0  0  0  0
   58.0570   33.4020   45.6990 C   0  0  0  0  0  0  0  0  0  0  0  0
   58.7830   34.5770   45.1590 C   0  0  0  0  0  0  0  0  0  0  0  0
   59.6490   35.2770   46.1830 C   0  0  0  0  0  0  0  0  0  0  0  0
   60.5310   34.2500   46.9110 C   0  0  0  0  0  0  0  0  0  0  0  0
   59.5540   33.2490   47.4770 C   0  0  0  0  0  0  0  0  0  0  0  0
   59.8680   27.6170   47.3420 C   0  0  0  0  0  0  0  0  0  0  0  0
   60.6060   27.1460   48.4220 C   0  0  0  0  0  0  0  0  0  0  0  0
   61.6731   28.0228   52.6356 H   0  0  0  0  0  0  0  0  0  0  0  0
   62.9241   28.4485   51.4189 H   0  0  0  0  0  0  0  0  0  0  0  0
   61.3439   29.3026   51.4189 H   0  0  0  0  0  0  0  0  0  0  0  0
   59.8000   29.5247   50.7185 H   0  0  0  0  0  0  0  0  0  0  0  0
   58.4707   30.3909   48.7927 H   0  0  0  0  0  0  0  0  0  0  0  0
   58.3553   27.0967   45.6877 H   0  0  0  0  0  0  0  0  0  0  0  0
   56.9400   27.4860   43.7370 H   0  0  0  0  0  0  0  0  0  0  0  0
   54.8814   29.9964   43.2702 H   0  0  0  0  0  0  0  0  0  0  0  0
   56.3116   30.5548   42.3377 H   0  0  0  0  0  0  0  0  0  0  0  0
   55.8626   28.8156   42.3377 H   0  0  0  0  0  0  0  0  0  0  0  0
   59.9878   31.9280   45.8306 H   0  0  0  0  0  0  0  0  0  0  0  0
   57.5010   32.9090   44.8879 H   0  0  0  0  0  0  0  0  0  0  0  0
   57.3521   33.7300   46.4772 H   0  0  0  0  0  0  0  0  0  0  0  0
   59.4257   34.2390   44.3327 H   0  0  0  0  0  0  0  0  0  0  0  0
   58.0239   35.3015   44.8292 H   0  0  0  0  0  0  0  0  0  0  0  0
   60.2895   36.0141   45.6765 H   0  0  0  0  0  0  0  0  0  0  0  0
   59.0049   35.7856   46.9155 H   0  0  0  0  0  0  0  0  0  0  0  0
   61.2230   33.7635   46.2078 H   0  0  0  0  0  0  0  0  0  0  0  0
   61.1560   34.7117   47.6896 H   0  0  0  0  0  0  0  0  0  0  0  0
   60.0419   32.6414   48.2534 H   0  0  0  0  0  0  0  0  0  0  0  0
   58.6936   33.7558   47.9383 H   0  0  0  0  0  0  0  0  0  0  0  0
   59.8872   27.0762   46.3843 H   0  0  0  0  0  0  0  0  0  0  0  0
   61.2096   26.2320   48.3200 H   0  0  0  0  0  0  0  0  0  0  0  0
  1  2  1  0
  2  3  1  0
  3  4  2  0
  4  5  1  0
  5  6  2  0
  6  7  1  0
  7  8  2  0
  8  9  1  0
  9 10  1  0
 10 11  1  0
 10 12  2  0
 12 13  1  0
 13 14  2  0
 14 15  1  0
 15 16  1  0
 16 17  1  0
 17 18  1  0
 18 19  1  0
 19 20  1  0
  6 21  1  0
 21 22  2  0
 22  3  1  0
 13  7  1  0
 20 15  1  0
  1 23  1  0
  1 24  1  0
  1 25  1  0
  4 26  1  0
  5 27  1  0
  8 28  1  0
  9 29  1  0
 11 30  1  0
 11 31  1  0
 11 32  1  0
 15 33  1  0
 16 34  1  0
 16 35  1  0
 17 36  1  0
 17 37  1  0
 18 38  1  0
 18 39  1  0
 19 40  1  0
 19 41  1  0
 20 42  1  0
 20 43  1  0
 21 44  1  0
 22 45  1  0
M  END
>  <smiles>  (12) 
COc1ccc(-c2c[nH]c(C)nc2=NC2CCCCC2)cc1

>  <score_type>  (12) 
oracle

>  <origin>  (12) 
adg

>  <m_score__min__energy>  (12) 
-7.5300000000000002

>  <m_primary>  (12) 
energy

$$$$
12:0
     RDKit          3D

 45 46  0  0  0  0  0  0  0  0999 V2000
   58.2090   29.3740   44.5390 C   0  0  0  0  0  0  0  0  0  0  0  0
   57.0770   30.0800   44.5990 C   0  0  0  0  0  0  0  0  0  0  0  0
   56.9950   31.3530   45.1810 O   0  0  0  0  0  0  0  0  0  0  0  0
   57.4090   32.5630   44.5490 C   0  0  0  0  0  0  0  0  0  0  0  0
   57.1380   33.7560   45.4730 C   0  0  0  0  0  0  0  0  0  0  0  0
   57.3890   33.4140   46.8830 N   0  0  0  0  0  0  0  0  0  0  0  0
   58.7150   33.9190   47.3140 C   0  0  0  0  0  0  0  0  0  0  0  0
   59.6070   32.8220   48.0030 C   0  0  0  0  0  0  0  0  0  0  0  0
   61.1210   33.1040   47.8060 C   0  0  0  0  0  0  0  0  0  0  0  0
   61.6060   33.6120   46.5740 C   0  0  0  0  0  0  0  0  0  0  0  0
   62.9700   33.8210   46.3630 C   0  0  0  0  0  0  0  0  0  0  0  0
   63.8930   33.4810   47.3490 C   0  0  0  0  0  0  0  0  0  0  0  0
   63.4560   32.8950   48.5350 C   0  0  0  0  0  0  0  0  0  0  0  0
   64.6240   32.3870   49.7430 Cl  0  0  0  0  0  0  0  0  0  0  0  0
   62.0910   32.6810   48.7510 C   0  0  0  0  0  0  0  0  0  0  0  0
   59.2980   31.4640   47.2920 C   0  0  0  0  0  0  0  0  0  0  0  0
   59.7480   30.2460   48.1090 C   0  0  0  0  0  0  0  0  0  0  0  0
   59.1760   30.2330   49.5470 C   0  0  0  0  0  0  0  0  0  0  0  0
   58.3980   31.5010   49.9050 C   0  0  0  0  0  0  0  0  0  0  0  0
   59.1750   32.7660   49.5280 C   0  0  0  0  0  0  0  0  0  0  0  0
   58.2125   28.3792   44.0696 H   0  0  0  0  0  0  0  0  0  0  0  0
   59.1379   29.7873   44.9590 H   0  0  0  0  0  0  0  0  0  0  0  0
   56.1638   29.6411   44.1707 H   0  0  0  0  0  0  0  0  0  0  0  0
   58.4855   32.5095   44.3293 H   0  0  0  0  0  0  0  0  0  0  0  0
   56.8438   32.6942   43.6145 H   0  0  0  0  0  0  0  0  0  0  0  0
   57.7965   34.5885   45.1844 H   0  0  0  0  0  0  0  0  0  0  0  0
   56.0802   34.0396   45.3695 H   0  0  0  0  0  0  0  0  0  0  0  0
   57.3240   32.3760   47.0040 H   0  0  0  0  0  0  0  0  0  0  0  0
   56.6380   33.8580   47.4660 H   0  0  0  0  0  0  0  0  0  0  0  0
   59.2485   34.2972   46.4295 H   0  0  0  0  0  0  0  0  0  0  0  0
   58.5356   34.7074   48.0598 H   0  0  0  0  0  0  0  0  0  0  0  0
   60.8936   33.8459   45.7691 H   0  0  0  0  0  0  0  0  0  0  0  0
   63.3172   34.2560   45.4142 H   0  0  0  0  0  0  0  0  0  0  0  0
   64.9643   33.6747   47.1917 H   0  0  0  0  0  0  0  0  0  0  0  0
   61.7631   32.1751   49.6711 H   0  0  0  0  0  0  0  0  0  0  0  0
   58.2129   31.3937   47.1260 H   0  0  0  0  0  0  0  0  0  0  0  0
   59.8587   31.4520   46.3457 H   0  0  0  0  0  0  0  0  0  0  0  0
   59.4139   29.3347   47.5914 H   0  0  0  0  0  0  0  0  0  0  0  0
   60.8437   30.2946   48.1929 H   0  0  0  0  0  0  0  0  0  0  0  0
   58.5005   29.3704   49.6454 H   0  0  0  0  0  0  0  0  0  0  0  0
   60.0318   30.1728   50.2355 H   0  0  0  0  0  0  0  0  0  0  0  0
   57.4400   31.4963   49.3644 H   0  0  0  0  0  0  0  0  0  0  0  0
   58.2358   31.5089   50.9929 H   0  0  0  0  0  0  0  0  0  0  0  0
   58.5405   33.6390   49.7409 H   0  0  0  0  0  0  0  0  0  0  0  0
   60.1003   32.7625   50.1229 H   0  0  0  0  0  0  0  0  0  0  0  0
  1  2  2  0
  2  3  1  0
  3  4  1  0
  4  5  1  0
  5  6  1  0
  6  7  1  0
  7  8  1  0
  8  9  1  0
  9 10  2  0
 10 11  1  0
 11 12  2  0
 12 13  1  0
 13 14  1  0
 13 15  2  0
  8 16  1  0
 16 17  1  0
 17 18  1  0
 18 19  1  0
 19 20  1  0
 20  8  1  0
 15  9  1  0
  1 21  1  0
  1 22  1  0
  2 23  1  0
  4 24  1  0
  4 25  1  0
  5 26  1  0
  5 27  1  0
  6 28  1  0
  6 29  1  0
  7 30  1  0
  7 31  1  0
 10 32  1  0
 11 33  1  0
 12 34  1  0
 15 35  1  0
 16 36  1  0
 16 37  1  0
 17 38  1  0
 17 39  1  0
 18 40  1  0
 18 41  1  0
 19 42  1  0
 19 43  1  0
 20 44  1  0
 20 45  1  0
M  CHG  1   6   1
M  END
>  <UniqueID>  (13) 
12

>  <SMILES>  (13) 
C=COCC[NH2+]CC1(c2cccc(Cl)c2)CCCCC1

>  <Energy>  (13) 
56.418436417634695

>  <Genealogy>  (13) 
C=COCC[NH2+]CC1(c2cccc(Cl)c2)CCCCC1 (protonated)
C=COCC[NH2+]CC1(c2cccc(Cl)c2)CCCCC1 (3D coordinates assigned)
C=COCC[NH2+]CC1(c2cccc(Cl)c2)CCCCC1 (nonaromatic ring conformer: 56.418436417634695 kcal/mol)

>  <smiles>  (13) 
C=COCCNCC1(c2cccc(Cl)c2)CCCCC1

>  <score_type>  (13) 
oracle

>  <origin>  (13) 
adg

>  <m_score__min__energy>  (13) 
-4.9100000000000001

>  <m_primary>  (13) 
energy

$$$$
13:0
     RDKit          3D

 64 67  0  0  0  0  0  0  0  0999 V2000
   57.7390   19.6730   46.7710 C   0  0  0  0  0  0  0  0  0  0  0  0
   57.0440   20.9780   46.5300 C   0  0  0  0  0  0  0  0  0  0  0  0
   57.2570   21.9420   47.3120 O   0  0  0  0  0  0  0  0  0  0  0  0
   56.1210   21.1560   45.4490 N   0  0  0  0  0  0  0  0  0  0  0  0
   56.4890   21.4260   44.0610 C   0  0  0  0  0  0  0  0  0  0  0  0
   56.3340   22.9170   43.7360 C   0  0  2  0  0  0  0  0  0  0  0  0
   57.5500   23.7690   44.2030 C   0  0  0  0  0  0  0  0  0  0  0  0
   56.9830   24.8240   45.0370 N   0  0  0  0  0  0  0  0  0  0  0  0
   57.7080   25.9500   45.5730 C   0  0  0  0  0  0  0  0  0  0  0  0
   58.7180   25.7660   46.5300 C   0  0  0  0  0  0  0  0  0  0  0  0
   59.4020   26.8600   47.0600 C   0  0  0  0  0  0  0  0  0  0  0  0
   59.0870   28.1660   46.6550 C   0  0  0  0  0  0  0  0  0  0  0  0
   59.8240   29.2940   47.2680 C   0  0  0  0  0  0  0  0  0  0  0  0
   60.5590   30.1760   46.4620 C   0  0  0  0  0  0  0  0  0  0  0  0
   61.2600   31.2410   47.0360 C   0  0  0  0  0  0  0  0  0  0  0  0
   61.2410   31.4340   48.4260 C   0  0  0  0  0  0  0  0  0  0  0  0
   61.9840   32.5970   49.0420 C   0  0  0  0  0  0  0  0  0  0  0  0
   61.1010   33.4600   49.8430 N   0  0  0  0  0  0  0  0  0  0  0  0
   59.7480   33.5880   49.2770 C   0  0  0  0  0  0  0  0  0  0  0  0
   59.7040   34.6350   48.1560 C   0  0  0  0  0  0  0  0  0  0  0  0
   59.0360   34.0930   46.9200 C   0  0  0  0  0  0  0  0  0  0  0  0
   59.4710   34.4780   45.6440 C   0  0  0  0  0  0  0  0  0  0  0  0
   58.8620   33.9430   44.5090 C   0  0  0  0  0  0  0  0  0  0  0  0
   57.8240   33.0210   44.6590 C   0  0  0  0  0  0  0  0  0  0  0  0
   57.4170   32.6460   45.9020 N   0  0  0  0  0  0  0  0  0  0  0  0
   57.9970   33.1550   47.0230 C   0  0  0  0  0  0  0  0  0  0  0  0
   60.5180   30.5420   49.2340 C   0  0  0  0  0  0  0  0  0  0  0  0
   59.8170   29.4780   48.6590 C   0  0  0  0  0  0  0  0  0  0  0  0
   58.0830   28.3650   45.6770 C   0  0  0  0  0  0  0  0  0  0  0  0
   57.7220   29.7410   45.1770 C   0  0  0  0  0  0  0  0  0  0  0  0
   57.3890   27.2560   45.1660 C   0  0  0  0  0  0  0  0  0  0  0  0
   55.6010   24.5490   45.1630 C   0  0  0  0  0  0  0  0  0  0  0  0
   54.8160   25.1900   45.9090 O   0  0  0  0  0  0  0  0  0  0  0  0
   55.2140   23.4490   44.4350 O   0  0  0  0  0  0  0  0  0  0  0  0
   57.8307   19.5008   47.8536 H   0  0  0  0  0  0  0  0  0  0  0  0
   57.1556   18.8578   46.3182 H   0  0  0  0  0  0  0  0  0  0  0  0
   58.7411   19.7021   46.3182 H   0  0  0  0  0  0  0  0  0  0  0  0
   57.5361   21.1292   43.9013 H   0  0  0  0  0  0  0  0  0  0  0  0
   55.8228   20.8505   43.4015 H   0  0  0  0  0  0  0  0  0  0  0  0
   56.2299   22.9725   42.6423 H   0  0  0  0  0  0  0  0  0  0  0  0
   58.2515   23.1530   44.7848 H   0  0  0  0  0  0  0  0  0  0  0  0
   58.1154   24.1777   43.3525 H   0  0  0  0  0  0  0  0  0  0  0  0
   58.9725   24.7497   46.8652 H   0  0  0  0  0  0  0  0  0  0  0  0
   60.1965   26.6972   47.8031 H   0  0  0  0  0  0  0  0  0  0  0  0
   60.5840   30.0290   45.3722 H   0  0  0  0  0  0  0  0  0  0  0  0
   61.8289   31.9307   46.3952 H   0  0  0  0  0  0  0  0  0  0  0  0
   62.7801   32.2045   49.6918 H   0  0  0  0  0  0  0  0  0  0  0  0
   62.3979   33.2045   48.2237 H   0  0  0  0  0  0  0  0  0  0  0  0
   61.5270   34.4140   49.9190 H   0  0  0  0  0  0  0  0  0  0  0  0
   59.4375   32.6146   48.8694 H   0  0  0  0  0  0  0  0  0  0  0  0
   59.0678   33.9118   50.0786 H   0  0  0  0  0  0  0  0  0  0  0  0
   59.1437   35.5133   48.5091 H   0  0  0  0  0  0  0  0  0  0  0  0
   60.7379   34.9077   47.8979 H   0  0  0  0  0  0  0  0  0  0  0  0
   60.2924   35.2019   45.5380 H   0  0  0  0  0  0  0  0  0  0  0  0
   59.1962   34.2445   43.5053 H   0  0  0  0  0  0  0  0  0  0  0  0
   57.3342   32.5968   43.7701 H   0  0  0  0  0  0  0  0  0  0  0  0
   56.6430   31.9510   45.9970 H   0  0  0  0  0  0  0  0  0  0  0  0
   57.6498   32.8296   48.0148 H   0  0  0  0  0  0  0  0  0  0  0  0
   60.5031   30.6811   50.3251 H   0  0  0  0  0  0  0  0  0  0  0  0
   59.2570   28.7814   49.3003 H   0  0  0  0  0  0  0  0  0  0  0  0
   57.5469   30.4082   46.0338 H   0  0  0  0  0  0  0  0  0  0  0  0
   58.5466   30.1372   44.5662 H   0  0  0  0  0  0  0  0  0  0  0  0
   56.8091   29.6814   44.5662 H   0  0  0  0  0  0  0  0  0  0  0  0
   56.5822   27.4128   44.4349 H   0  0  0  0  0  0  0  0  0  0  0  0
  1  2  1  0
  2  3  2  0
  2  4  1  0
  4  5  1  0
  5  6  1  0
  6  7  1  0
  7  8  1  0
  8  9  1  0
  9 10  2  0
 10 11  1  0
 11 12  2  0
 12 13  1  0
 13 14  2  0
 14 15  1  0
 15 16  2  0
 16 17  1  0
 17 18  1  0
 18 19  1  0
 19 20  1  0
 20 21  1  0
 21 22  2  0
 22 23  1  0
 23 24  2  0
 24 25  1  0
 25 26  2  0
 16 27  1  0
 27 28  2  0
 12 29  1  0
 29 30  1  0
 29 31  2  0
  8 32  1  0
 32 33  2  0
 32 34  1  0
 34  6  1  0
 31  9  1  0
 28 13  1  0
 26 21  1  0
  1 35  1  0
  1 36  1  0
  1 37  1  0
  5 38  1  0
  5 39  1  0
  6 40  1  6
  7 41  1  0
  7 42  1  0
 10 43  1  0
 11 44  1  0
 14 45  1  0
 15 46  1  0
 17 47  1  0
 17 48  1  0
 18 49  1  0
 19 50  1  0
 19 51  1  0
 20 52  1  0
 20 53  1  0
 22 54  1  0
 23 55  1  0
 24 56  1  0
 25 57  1  0
 26 58  1  0
 27 59  1  0
 28 60  1  0
 30 61  1  0
 30 62  1  0
 30 63  1  0
 31 64  1  0
M  CHG  2   4  -1  25   1
M  END
>  <UniqueID>  (14) 
13

>  <SMILES>  (14) 
CC(=O)[N-]C[C@@H]1CN(c2ccc(-c3ccc(CNCCc4ccc[nH+]c4)cc3)c(C)c2)C(=O)O1

>  <Energy>  (14) 
87.5451720047573

>  <Genealogy>  (14) 
CC(=O)[N-]CC1CN(c2ccc(-c3ccc(CNCCc4ccc[nH+]c4)cc3)c(C)c2)C(=O)O1 (protonated)
CC(=O)[N-]C[C@@H]1CN(c2ccc(-c3ccc(CNCCc4ccc[nH+]c4)cc3)c(C)c2)C(=O)O1 (chirality)
CC(=O)[N-]C[C@@H]1CN(c2ccc(-c3ccc(CNCCc4ccc[nH+]c4)cc3)c(C)c2)C(=O)O1 (3D coordinates assigned)
CC(=O)[N-]C[C@@H]1CN(c2ccc(-c3ccc(CNCCc4ccc[nH+]c4)cc3)c(C)c2)C(=O)O1 (nonaromatic ring conformer: 87.5451720047573 kcal/mol)

>  <smiles>  (14) 
CC(=O)NCC1CN(c2ccc(-c3ccc(CNCCc4cccnc4)cc3)c(C)c2)C(=O)O1

>  <score_type>  (14) 
oracle

>  <origin>  (14) 
adg

>  <m_score__min__energy>  (14) 
-9.6999999999999993

>  <m_primary>  (14) 
energy

$$$$
14:0
     RDKit          3D

 47 48  0  0  0  0  0  0  0  0999 V2000
   59.3200   35.1700   45.3760 C   0  0  0  0  0  0  0  0  0  0  0  0
   59.0620   33.9270   46.0200 O   0  0  0  0  0  0  0  0  0  0  0  0
   58.5360   32.7910   45.3820 C   0  0  0  0  0  0  0  0  0  0  0  0
   58.2380   32.7880   44.0050 C   0  0  0  0  0  0  0  0  0  0  0  0
   57.7320   31.6420   43.3900 C   0  0  0  0  0  0  0  0  0  0  0  0
   57.5060   30.4790   44.1370 C   0  0  0  0  0  0  0  0  0  0  0  0
   57.0070   29.2260   43.4640 C   0  0  0  0  0  0  0  0  0  0  0  0
   58.0740   28.1270   43.4760 C   0  0  0  0  0  0  0  0  0  0  0  0
   57.6810   27.0440   44.3880 N   0  0  0  0  0  0  0  0  0  0  0  0
   58.3380   27.1490   45.6990 C   0  0  0  0  0  0  0  0  0  0  0  0
   57.4000   26.7760   46.8590 C   0  0  0  0  0  0  0  0  0  0  0  0
   56.3030   25.8800   46.3740 C   0  0  0  0  0  0  0  0  0  0  0  0
   56.2830   24.5080   46.4550 C   0  0  0  0  0  0  0  0  0  0  0  0
   55.1070   24.0630   45.9790 N   0  0  0  0  0  0  0  0  0  0  0  0
   54.4450   25.1860   45.6310 C   0  0  0  0  0  0  0  0  0  0  0  0
   55.1390   26.3200   45.8640 N   0  0  0  0  0  0  0  0  0  0  0  0
   57.8070   30.4720   45.5060 C   0  0  0  0  0  0  0  0  0  0  0  0
   58.3070   31.6220   46.1380 C   0  0  0  0  0  0  0  0  0  0  0  0
   58.6340   31.5600   47.6110 C   0  0  0  0  0  0  0  0  0  0  0  0
   59.8330   30.7270   47.8440 N   0  0  0  0  0  0  0  0  0  0  0  0
   60.7580   30.8490   46.7050 C   0  0  0  0  0  0  0  0  0  0  0  0
   59.4620   29.3120   48.0260 C   0  0  0  0  0  0  0  0  0  0  0  0
   59.4818   35.9496   46.1350 H   0  0  0  0  0  0  0  0  0  0  0  0
   60.2182   35.0779   44.7477 H   0  0  0  0  0  0  0  0  0  0  0  0
   58.4594   35.4430   44.7477 H   0  0  0  0  0  0  0  0  0  0  0  0
   58.4057   33.6973   43.4092 H   0  0  0  0  0  0  0  0  0  0  0  0
   57.5095   31.6522   42.3128 H   0  0  0  0  0  0  0  0  0  0  0  0
   56.1141   28.8648   43.9954 H   0  0  0  0  0  0  0  0  0  0  0  0
   56.7660   29.4654   42.4178 H   0  0  0  0  0  0  0  0  0  0  0  0
   58.1889   27.7218   42.4598 H   0  0  0  0  0  0  0  0  0  0  0  0
   59.0262   28.5568   43.8205 H   0  0  0  0  0  0  0  0  0  0  0  0
   56.6410   27.0650   44.5170 H   0  0  0  0  0  0  0  0  0  0  0  0
   59.2048   26.4719   45.7145 H   0  0  0  0  0  0  0  0  0  0  0  0
   58.6412   28.1972   45.8380 H   0  0  0  0  0  0  0  0  0  0  0  0
   57.9760   26.2551   47.6380 H   0  0  0  0  0  0  0  0  0  0  0  0
   56.9558   27.6950   47.2691 H   0  0  0  0  0  0  0  0  0  0  0  0
   57.0957   23.8777   46.8452 H   0  0  0  0  0  0  0  0  0  0  0  0
   53.4339   25.1781   45.1978 H   0  0  0  0  0  0  0  0  0  0  0  0
   57.6497   29.5547   46.0923 H   0  0  0  0  0  0  0  0  0  0  0  0
   58.8235   32.5780   47.9823 H   0  0  0  0  0  0  0  0  0  0  0  0
   57.7825   31.1124   48.1444 H   0  0  0  0  0  0  0  0  0  0  0  0
   61.7837   30.9843   47.0785 H   0  0  0  0  0  0  0  0  0  0  0  0
   60.7081   29.9365   46.0928 H   0  0  0  0  0  0  0  0  0  0  0  0
   60.4732   31.7174   46.0928 H   0  0  0  0  0  0  0  0  0  0  0  0
   59.4022   29.0839   49.1004 H   0  0  0  0  0  0  0  0  0  0  0  0
   58.4847   29.1259   47.5567 H   0  0  0  0  0  0  0  0  0  0  0  0
   60.2223   28.6703   47.5567 H   0  0  0  0  0  0  0  0  0  0  0  0
  1  2  1  0
  2  3  1  0
  3  4  2  0
  4  5  1  0
  5  6  2  0
  6  7  1  0
  7  8  1  0
  8  9  1  0
  9 10  1  0
 10 11  1  0
 11 12  1  0
 12 13  2  0
 13 14  1  0
 14 15  1  0
 15 16  2  0
  6 17  1  0
 17 18  2  0
 18 19  1  0
 19 20  1  0
 20 21  1  0
 20 22  1  0
 18  3  1  0
 16 12  1  0
  1 23  1  0
  1 24  1  0
  1 25  1  0
  4 26  1  0
  5 27  1  0
  7 28  1  0
  7 29  1  0
  8 30  1  0
  8 31  1  0
  9 32  1  0
 10 33  1  0
 10 34  1  0
 11 35  1  0
 11 36  1  0
 13 37  1  0
 15 38  1  0
 17 39  1  0
 19 40  1  0
 19 41  1  0
 21 42  1  0
 21 43  1  0
 21 44  1  0
 22 45  1  0
 22 46  1  0
 22 47  1  0
M  CHG  1  14  -1
M  END
>  <UniqueID>  (15) 
14

>  <SMILES>  (15) 
COc1ccc(CCNCCc2c[n-]cn2)cc1CN(C)C

>  <Energy>  (15) 
67.8192777759478

>  <Genealogy>  (15) 
COc1ccc(CCNCCc2c[n-]cn2)cc1CN(C)C (protonated)
COc1ccc(CCNCCc2c[n-]cn2)cc1CN(C)C (3D coordinates assigned)
COc1ccc(CCNCCc2c[n-]cn2)cc1CN(C)C (optimized conformer: 67.8192777759478 kcal/mol)

>  <smiles>  (15) 
COc1ccc(CCNCCc2c[nH]cn2)cc1CN(C)C

>  <score_type>  (15) 
oracle

>  <origin>  (15) 
adg

>  <m_score__min__energy>  (15) 
-7.9400000000000004

>  <m_primary>  (15) 
energy

$$$$
15:0
     RDKit          3D

 44 45  0  0  0  0  0  0  0  0999 V2000
   57.3980   25.6960   46.5180 C   0  0  0  0  0  0  0  0  0  0  0  0
   57.2880   27.0480   46.0920 O   0  0  0  0  0  0  0  0  0  0  0  0
   58.1950   28.0670   46.4290 C   0  0  0  0  0  0  0  0  0  0  0  0
   59.3530   27.8110   47.1870 C   0  0  0  0  0  0  0  0  0  0  0  0
   60.2210   28.8500   47.5270 C   0  0  0  0  0  0  0  0  0  0  0  0
   59.9520   30.1660   47.1210 C   0  0  0  0  0  0  0  0  0  0  0  0
   60.8780   31.2660   47.4830 C   0  0  0  0  0  0  0  0  0  0  0  0
   62.2430   31.1720   47.1580 C   0  0  0  0  0  0  0  0  0  0  0  0
   63.1240   32.2060   47.4900 C   0  0  0  0  0  0  0  0  0  0  0  0
   62.6520   33.3420   48.1510 C   0  0  0  0  0  0  0  0  0  0  0  0
   63.5080   34.3430   48.4730 F   0  0  0  0  0  0  0  0  0  0  0  0
   61.3000   33.4440   48.4860 C   0  0  0  0  0  0  0  0  0  0  0  0
   60.4130   32.4150   48.1560 C   0  0  0  0  0  0  0  0  0  0  0  0
   59.1110   32.5240   48.5280 F   0  0  0  0  0  0  0  0  0  0  0  0
   58.8040   30.4220   46.3540 C   0  0  0  0  0  0  0  0  0  0  0  0
   57.9240   29.3850   46.0140 C   0  0  0  0  0  0  0  0  0  0  0  0
   56.7180   29.6790   45.2180 C   0  0  0  0  0  0  0  0  0  0  0  0
   55.7810   28.8380   45.1910 O   0  0  0  0  0  0  0  0  0  0  0  0
   56.5670   30.9070   44.4940 N   0  0  0  0  0  0  0  0  0  0  0  0
   57.3410   31.3110   43.3210 C   0  0  0  0  0  0  0  0  0  0  0  0
   58.0760   32.6510   43.5370 C   0  0  0  0  0  0  0  0  0  0  0  0
   58.0150   33.1460   44.9350 N   0  0  0  0  0  0  0  0  0  0  0  0
   59.3410   33.6430   45.3440 C   0  0  0  0  0  0  0  0  0  0  0  0
   57.0140   34.2170   45.0880 C   0  0  0  0  0  0  0  0  0  0  0  0
   57.4012   25.6570   47.6173 H   0  0  0  0  0  0  0  0  0  0  0  0
   56.5438   25.1196   46.1331 H   0  0  0  0  0  0  0  0  0  0  0  0
   58.3342   25.2653   46.1331 H   0  0  0  0  0  0  0  0  0  0  0  0
   59.5757   26.7846   47.5139 H   0  0  0  0  0  0  0  0  0  0  0  0
   61.1235   28.6353   48.1182 H   0  0  0  0  0  0  0  0  0  0  0  0
   62.6204   30.2787   46.6389 H   0  0  0  0  0  0  0  0  0  0  0  0
   64.1898   32.1245   47.2303 H   0  0  0  0  0  0  0  0  0  0  0  0
   60.9316   34.3374   49.0115 H   0  0  0  0  0  0  0  0  0  0  0  0
   58.5929   31.4474   46.0163 H   0  0  0  0  0  0  0  0  0  0  0  0
   58.0849   30.5308   43.1022 H   0  0  0  0  0  0  0  0  0  0  0  0
   56.6394   31.4432   42.4842 H   0  0  0  0  0  0  0  0  0  0  0  0
   59.1325   32.5159   43.2621 H   0  0  0  0  0  0  0  0  0  0  0  0
   57.5714   33.3996   42.9085 H   0  0  0  0  0  0  0  0  0  0  0  0
   57.7670   32.3610   45.5810 H   0  0  0  0  0  0  0  0  0  0  0  0
   59.4014   33.6656   46.4421 H   0  0  0  0  0  0  0  0  0  0  0  0
   60.1208   32.9761   44.9476 H   0  0  0  0  0  0  0  0  0  0  0  0
   59.4904   34.6581   44.9476 H   0  0  0  0  0  0  0  0  0  0  0  0
   56.8385   34.4048   46.1576 H   0  0  0  0  0  0  0  0  0  0  0  0
   57.3844   35.1360   44.6103 H   0  0  0  0  0  0  0  0  0  0  0  0
   56.0721   33.9095   44.6103 H   0  0  0  0  0  0  0  0  0  0  0  0
  1  2  1  0
  2  3  1  0
  3  4  2  0
  4  5  1  0
  5  6  2  0
  6  7  1  0
  7  8  2  0
  8  9  1  0
  9 10  2  0
 10 11  1  0
 10 12  1  0
 12 13  2  0
 13 14  1  0
  6 15  1  0
 15 16  2  0
 16 17  1  0
 17 18  2  0
 17 19  1  0
 19 20  1  0
 20 21  1  0
 21 22  1  0
 22 23  1  0
 22 24  1  0
 16  3  1  0
 13  7  1  0
  1 25  1  0
  1 26  1  0
  1 27  1  0
  4 28  1  0
  5 29  1  0
  8 30  1  0
  9 31  1  0
 12 32  1  0
 15 33  1  0
 20 34  1  0
 20 35  1  0
 21 36  1  0
 21 37  1  0
 22 38  1  0
 23 39  1  0
 23 40  1  0
 23 41  1  0
 24 42  1  0
 24 43  1  0
 24 44  1  0
M  CHG  2  19  -1  22   1
M  END
>  <UniqueID>  (16) 
15

>  <SMILES>  (16) 
COc1ccc(-c2ccc(F)cc2F)cc1C(=O)[N-]CC[NH+](C)C

>  <Energy>  (16) 
52.91606422463695

>  <Genealogy>  (16) 
COc1ccc(-c2ccc(F)cc2F)cc1C(=O)[N-]CC[NH+](C)C (protonated)
COc1ccc(-c2ccc(F)cc2F)cc1C(=O)[N-]CC[NH+](C)C (3D coordinates assigned)
COc1ccc(-c2ccc(F)cc2F)cc1C(=O)[N-]CC[NH+](C)C (optimized conformer: 52.91606422463695 kcal/mol)

>  <smiles>  (16) 
COc1ccc(-c2ccc(F)cc2F)cc1C(=O)NCCN(C)C

>  <score_type>  (16) 
oracle

>  <origin>  (16) 
adg

>  <m_score__min__energy>  (16) 
-6.4500000000000002

>  <m_primary>  (16) 
energy

$$$$
16:0
     RDKit          3D

 30 30  0  0  0  0  0  0  0  0999 V2000
   57.3060   32.7350   40.2970 C   0  0  0  0  0  0  0  0  0  0  0  0
   57.0560   32.3170   41.5400 C   0  0  0  0  0  0  0  0  0  0  0  0
   58.1740   31.9330   42.4660 C   0  0  0  0  0  0  0  0  0  0  0  0
   57.6650   31.7100   43.8230 N   0  0  0  0  0  0  0  0  0  0  0  0
   58.0820   32.5490   44.9210 C   0  0  0  0  0  0  0  0  0  0  0  0
   58.9340   33.6440   44.7000 C   0  0  0  0  0  0  0  0  0  0  0  0
   59.3340   34.4370   45.7750 C   0  0  0  0  0  0  0  0  0  0  0  0
   58.8780   34.1490   47.0650 C   0  0  0  0  0  0  0  0  0  0  0  0
   59.3340   34.9680   48.2360 C   0  0  0  0  0  0  0  0  0  0  0  0
   58.0400   33.0430   47.2530 C   0  0  0  0  0  0  0  0  0  0  0  0
   57.6590   32.2800   46.1920 N   0  0  0  0  0  0  0  0  0  0  0  0
   56.6150   30.3510   44.1120 S   0  0  0  0  0  0  0  0  0  0  0  0
   56.5650   29.3020   42.6750 C   0  0  0  0  0  0  0  0  0  0  0  0
   55.2180   30.8360   44.3850 O   0  0  0  0  0  0  0  0  0  0  0  0
   57.1050   29.5720   45.3000 O   0  0  0  0  0  0  0  0  0  0  0  0
   56.4746   33.0123   39.6323 H   0  0  0  0  0  0  0  0  0  0  0  0
   58.3434   32.8022   39.9375 H   0  0  0  0  0  0  0  0  0  0  0  0
   56.0155   32.2529   41.8911 H   0  0  0  0  0  0  0  0  0  0  0  0
   58.6455   31.0090   42.1001 H   0  0  0  0  0  0  0  0  0  0  0  0
   58.9098   32.7502   42.4925 H   0  0  0  0  0  0  0  0  0  0  0  0
   59.2841   33.8749   43.6831 H   0  0  0  0  0  0  0  0  0  0  0  0
   60.0087   35.2896   45.6080 H   0  0  0  0  0  0  0  0  0  0  0  0
   59.0516   34.4608   49.1704 H   0  0  0  0  0  0  0  0  0  0  0  0
   60.4271   35.0850   48.1982 H   0  0  0  0  0  0  0  0  0  0  0  0
   58.8577   35.9588   48.1982 H   0  0  0  0  0  0  0  0  0  0  0  0
   57.6876   32.7893   48.2637 H   0  0  0  0  0  0  0  0  0  0  0  0
   57.0130   31.4800   46.3710 H   0  0  0  0  0  0  0  0  0  0  0  0
   56.5148   28.2495   42.9909 H   0  0  0  0  0  0  0  0  0  0  0  0
   55.6775   29.5468   42.0730 H   0  0  0  0  0  0  0  0  0  0  0  0
   57.4718   29.4613   42.0730 H   0  0  0  0  0  0  0  0  0  0  0  0
  1  2  2  0
  2  3  1  0
  3  4  1  0
  4  5  1  0
  5  6  2  0
  6  7  1  0
  7  8  2  0
  8  9  1  0
  8 10  1  0
 10 11  2  0
  4 12  1  0
 12 13  1  0
 12 14  2  0
 12 15  2  0
 11  5  1  0
  1 16  1  0
  1 17  1  0
  2 18  1  0
  3 19  1  0
  3 20  1  0
  6 21  1  0
  7 22  1  0
  9 23  1  0
  9 24  1  0
  9 25  1  0
 10 26  1  0
 11 27  1  0
 13 28  1  0
 13 29  1  0
 13 30  1  0
M  CHG  1  11   1
M  END
>  <UniqueID>  (17) 
16

>  <SMILES>  (17) 
C=CCN(c1ccc(C)c[nH+]1)S(C)(=O)=O

>  <Energy>  (17) 
24.029134949522582

>  <Genealogy>  (17) 
C=CCN(c1ccc(C)c[nH+]1)S(C)(=O)=O (protonated)
C=CCN(c1ccc(C)c[nH+]1)S(C)(=O)=O (3D coordinates assigned)
C=CCN(c1ccc(C)c[nH+]1)S(C)(=O)=O (optimized conformer: 24.029134949522582 kcal/mol)

>  <smiles>  (17) 
C=CCN(c1ccc(C)cn1)S(C)(=O)=O

>  <score_type>  (17) 
oracle

>  <origin>  (17) 
adg

>  <m_score__min__energy>  (17) 
-4.8899999999999997

>  <m_primary>  (17) 
energy

$$$$
17:0
     RDKit          3D

 36 37  0  0  0  0  0  0  0  0999 V2000
   61.0210   26.3690   46.3800 C   0  0  0  0  0  0  0  0  0  0  0  0
   59.8170   27.1490   46.0470 N   0  0  0  0  0  0  0  0  0  0  0  0
   59.9310   28.5300   46.5830 C   0  0  0  0  0  0  0  0  0  0  0  0
   58.5680   29.2440   46.7190 C   0  0  0  0  0  0  0  0  0  0  0  0
   57.5510   28.6010   45.8780 N   0  0  0  0  0  0  0  0  0  0  0  0
   56.6850   29.3660   45.0190 C   0  0  0  0  0  0  0  0  0  0  0  0
   55.4850   29.0110   44.8700 O   0  0  0  0  0  0  0  0  0  0  0  0
   57.1850   30.5660   44.2610 C   0  0  0  0  0  0  0  0  0  0  0  0
   56.8220   31.7830   44.9150 O   0  0  0  0  0  0  0  0  0  0  0  0
   57.7190   32.7550   45.3840 C   0  0  0  0  0  0  0  0  0  0  0  0
   58.1100   33.7750   44.5080 C   0  0  0  0  0  0  0  0  0  0  0  0
   58.9720   34.7870   44.9360 C   0  0  0  0  0  0  0  0  0  0  0  0
   59.4590   34.7860   46.2450 C   0  0  0  0  0  0  0  0  0  0  0  0
   59.0880   33.7650   47.1270 C   0  0  0  0  0  0  0  0  0  0  0  0
   59.7550   33.7620   48.9170 Br  0  0  0  0  0  0  0  0  0  0  0  0
   58.2270   32.7490   46.6990 C   0  0  0  0  0  0  0  0  0  0  0  0
   57.3490   27.1520   45.9910 C   0  0  0  0  0  0  0  0  0  0  0  0
   58.6060   26.4700   46.5510 C   0  0  0  0  0  0  0  0  0  0  0  0
   61.1240   26.3023   47.4731 H   0  0  0  0  0  0  0  0  0  0  0  0
   60.9308   25.3573   45.9578 H   0  0  0  0  0  0  0  0  0  0  0  0
   61.9075   26.8648   45.9578 H   0  0  0  0  0  0  0  0  0  0  0  0
   59.7610   27.1990   45.0010 H   0  0  0  0  0  0  0  0  0  0  0  0
   60.4012   28.4819   47.5763 H   0  0  0  0  0  0  0  0  0  0  0  0
   60.5339   29.1095   45.8683 H   0  0  0  0  0  0  0  0  0  0  0  0
   58.2440   29.2037   47.7694 H   0  0  0  0  0  0  0  0  0  0  0  0
   58.6849   30.2876   46.3915 H   0  0  0  0  0  0  0  0  0  0  0  0
   58.2812   30.5120   44.1879 H   0  0  0  0  0  0  0  0  0  0  0  0
   56.7267   30.5599   43.2610 H   0  0  0  0  0  0  0  0  0  0  0  0
   57.7350   33.7792   43.4739 H   0  0  0  0  0  0  0  0  0  0  0  0
   59.2680   35.5864   44.2408 H   0  0  0  0  0  0  0  0  0  0  0  0
   60.1334   35.5869   46.5822 H   0  0  0  0  0  0  0  0  0  0  0  0
   57.9452   31.9420   47.3914 H   0  0  0  0  0  0  0  0  0  0  0  0
   56.5019   26.9571   46.6651 H   0  0  0  0  0  0  0  0  0  0  0  0
   57.1422   26.7449   44.9902 H   0  0  0  0  0  0  0  0  0  0  0  0
   58.5898   26.5222   47.6496 H   0  0  0  0  0  0  0  0  0  0  0  0
   58.6207   25.4188   46.2273 H   0  0  0  0  0  0  0  0  0  0  0  0
  1  2  1  0
  2  3  1  0
  3  4  1  0
  4  5  1  0
  5  6  1  0
  6  7  2  0
  6  8  1  0
  8  9  1  0
  9 10  1  0
 10 11  2  0
 11 12  1  0
 12 13  2  0
 13 14  1  0
 14 15  1  0
 14 16  2  0
  5 17  1  0
 17 18  1  0
 18  2  1  0
 16 10  1  0
  1 19  1  0
  1 20  1  0
  1 21  1  0
  2 22  1  0
  3 23  1  0
  3 24  1  0
  4 25  1  0
  4 26  1  0
  8 27  1  0
  8 28  1  0
 11 29  1  0
 12 30  1  0
 13 31  1  0
 16 32  1  0
 17 33  1  0
 17 34  1  0
 18 35  1  0
 18 36  1  0
M  CHG  1   2   1
M  END
>  <UniqueID>  (18) 
17

>  <SMILES>  (18) 
C[NH+]1CCN(C(=O)COc2cccc(Br)c2)CC1

>  <Energy>  (18) 
39.18736918634184

>  <Genealogy>  (18) 
C[NH+]1CCN(C(=O)COc2cccc(Br)c2)CC1 (protonated)
C[NH+]1CCN(C(=O)COc2cccc(Br)c2)CC1 (3D coordinates assigned)
C[NH+]1CCN(C(=O)COc2cccc(Br)c2)CC1 (nonaromatic ring conformer: 39.18736918634184 kcal/mol)

>  <smiles>  (18) 
CN1CCN(C(=O)COc2cccc(Br)c2)CC1

>  <score_type>  (18) 
oracle

>  <origin>  (18) 
adg

>  <m_score__min__energy>  (18) 
-5.4500000000000002

>  <m_primary>  (18) 
energy

$$$$
18:0
     RDKit          3D

 56 60  0  0  0  0  0  0  0  0999 V2000
   57.5080   32.3790   40.8030 C   0  0  0  0  0  0  0  0  0  0  0  0
   57.4140   31.7050   42.1390 C   0  0  0  0  0  0  0  0  0  0  0  0
   56.7280   30.4890   42.2710 C   0  0  0  0  0  0  0  0  0  0  0  0
   56.6130   29.8790   43.5220 C   0  0  0  0  0  0  0  0  0  0  0  0
   57.1700   30.4830   44.6520 C   0  0  0  0  0  0  0  0  0  0  0  0
   57.8450   31.7120   44.5440 C   0  0  0  0  0  0  0  0  0  0  0  0
   58.4260   32.3610   45.7470 C   0  0  0  0  0  0  0  0  0  0  0  0
   58.2220   33.7170   45.9880 C   0  0  0  0  0  0  0  0  0  0  0  0
   58.8390   34.3320   47.0660 C   0  0  0  0  0  0  0  0  0  0  0  0
   59.6300   33.6010   47.9790 C   0  0  0  0  0  0  0  0  0  0  0  0
   59.6890   32.1760   47.8740 C   0  0  0  0  0  0  0  0  0  0  0  0
   59.1820   31.6190   46.6640 C   0  0  0  0  0  0  0  0  0  0  0  0
   60.3360   31.1790   48.9030 C   0  0  2  0  0  0  0  0  0  0  0  0
   59.4340   29.8590   48.8860 C   0  0  0  0  0  0  0  0  0  0  0  0
   59.2310   29.1120   50.2130 C   0  0  0  0  0  0  0  0  0  0  0  0
   60.5020   29.0970   51.0310 C   0  0  0  0  0  0  0  0  0  0  0  0
   60.9450   30.5210   51.3770 C   0  0  0  0  0  0  0  0  0  0  0  0
   60.4090   31.6430   50.4190 C   0  0  1  0  0  0  0  0  0  0  0  0
   61.1260   32.9080   50.7310 N   0  0  1  0  0  0  0  0  0  0  0  0
   62.5710   32.9470   50.5660 C   0  0  0  0  0  0  0  0  0  0  0  0
   63.2610   32.5900   49.4660 C   0  0  0  0  0  0  0  0  0  0  0  0
   64.6820   32.8360   49.4380 C   0  0  0  0  0  0  0  0  0  0  0  0
   65.8220   33.0340   49.4150 N   0  0  0  0  0  0  0  0  0  0  0  0
   62.6570   31.9850   48.2750 C   0  0  0  0  0  0  0  0  0  0  0  0
   62.9780   32.4160   47.1340 O   0  0  0  0  0  0  0  0  0  0  0  0
   61.7460   30.8070   48.3820 C   0  0  0  0  0  0  0  0  0  0  0  0
   60.4390   34.1370   50.3090 C   0  0  0  0  0  0  0  0  0  0  0  0
   60.5550   34.4280   48.8340 C   0  0  0  0  0  0  0  0  0  0  0  0
   57.9570   32.3200   43.2790 C   0  0  0  0  0  0  0  0  0  0  0  0
   57.6586   33.4591   40.9470 H   0  0  0  0  0  0  0  0  0  0  0  0
   58.3567   31.9621   40.2409 H   0  0  0  0  0  0  0  0  0  0  0  0
   56.5776   32.2103   40.2409 H   0  0  0  0  0  0  0  0  0  0  0  0
   56.2790   30.0141   41.3862 H   0  0  0  0  0  0  0  0  0  0  0  0
   56.0824   28.9202   43.6180 H   0  0  0  0  0  0  0  0  0  0  0  0
   57.0799   29.9938   45.6331 H   0  0  0  0  0  0  0  0  0  0  0  0
   57.5701   34.3012   45.3218 H   0  0  0  0  0  0  0  0  0  0  0  0
   58.7095   35.4143   47.2136 H   0  0  0  0  0  0  0  0  0  0  0  0
   59.3930   30.5627   46.4408 H   0  0  0  0  0  0  0  0  0  0  0  0
   58.4388   30.1466   48.5160 H   0  0  0  0  0  0  0  0  0  0  0  0
   59.9902   29.1520   48.2529 H   0  0  0  0  0  0  0  0  0  0  0  0
   58.4391   29.6128   50.7893 H   0  0  0  0  0  0  0  0  0  0  0  0
   58.9487   28.0728   49.9884 H   0  0  0  0  0  0  0  0  0  0  0  0
   60.3247   28.5386   51.9620 H   0  0  0  0  0  0  0  0  0  0  0  0
   61.2951   28.6158   50.4399 H   0  0  0  0  0  0  0  0  0  0  0  0
   60.5949   30.7477   52.3949 H   0  0  0  0  0  0  0  0  0  0  0  0
   62.0401   30.5317   51.2743 H   0  0  0  0  0  0  0  0  0  0  0  0
   59.3459   31.8570   50.6037 H   0  0  0  0  0  0  0  0  0  0  0  0
   61.0230   32.9820   51.7740 H   0  0  0  0  0  0  0  0  0  0  0  0
   63.1582   33.3035   51.4251 H   0  0  0  0  0  0  0  0  0  0  0  0
   61.6430   30.3517   47.3860 H   0  0  0  0  0  0  0  0  0  0  0  0
   62.1920   30.1105   49.1072 H   0  0  0  0  0  0  0  0  0  0  0  0
   59.3723   34.0407   50.5599 H   0  0  0  0  0  0  0  0  0  0  0  0
   60.9244   34.9708   50.8374 H   0  0  0  0  0  0  0  0  0  0  0  0
   60.3221   35.4905   48.6703 H   0  0  0  0  0  0  0  0  0  0  0  0
   61.5826   34.1728   48.5358 H   0  0  0  0  0  0  0  0  0  0  0  0
   58.4747   33.2858   43.1826 H   0  0  0  0  0  0  0  0  0  0  0  0
  1  2  1  0
  2  3  2  0
  3  4  1  0
  4  5  2  0
  5  6  1  0
  6  7  1  0
  7  8  2  0
  8  9  1  0
  9 10  2  0
 10 11  1  0
 11 12  2  0
 11 13  1  0
 13 14  1  1
 14 15  1  0
 15 16  1  0
 16 17  1  0
 17 18  1  0
 18 19  1  0
 19 20  1  0
 20 21  2  0
 21 22  1  0
 22 23  3  0
 21 24  1  0
 24 25  2  0
 24 26  1  0
 19 27  1  0
 27 28  1  0
  6 29  2  0
 29  2  1  0
 12  7  1  0
 18 13  1  0
 28 10  1  0
 26 13  1  0
  1 30  1  0
  1 31  1  0
  1 32  1  0
  3 33  1  0
  4 34  1  0
  5 35  1  0
  8 36  1  0
  9 37  1  0
 12 38  1  0
 14 39  1  0
 14 40  1  0
 15 41  1  0
 15 42  1  0
 16 43  1  0
 16 44  1  0
 17 45  1  0
 17 46  1  0
 18 47  1  1
 19 48  1  1
 20 49  1  0
 26 50  1  0
 26 51  1  0
 27 52  1  0
 27 53  1  0
 28 54  1  0
 28 55  1  0
 29 56  1  0
M  CHG  1  19   1
M  END
>  <UniqueID>  (19) 
18

>  <SMILES>  (19) 
Cc1cccc(-c2ccc3c(c2)[C@]24CCCC[C@H]2[NH+](C=C(C#N)C(=O)C4)CC3)c1

>  <Energy>  (19) 
122.24193733787013

>  <Genealogy>  (19) 
Cc1cccc(-c2ccc3c(c2)C24CCCCC2[NH+](C=C(C#N)C(=O)C4)CC3)c1 (protonated)
Cc1cccc(-c2ccc3c(c2)[C@]24CCCC[C@H]2[NH+](C=C(C#N)C(=O)C4)CC3)c1 (chirality)
Cc1cccc(-c2ccc3c(c2)[C@]24CCCC[C@H]2[NH+](C=C(C#N)C(=O)C4)CC3)c1 (3D coordinates assigned)
Cc1cccc(-c2ccc3c(c2)[C@]24CCCC[C@H]2[NH+](C=C(C#N)C(=O)C4)CC3)c1 (nonaromatic ring conformer: 122.24193733787013 kcal/mol)

>  <smiles>  (19) 
Cc1cccc(-c2ccc3c(c2)C24CCCCC2N(C=C(C#N)C(=O)C4)CC3)c1

>  <score_type>  (19) 
oracle

>  <origin>  (19) 
adg

>  <m_score__min__energy>  (19) 
-5.2599999999999998

>  <m_primary>  (19) 
energy

$$$$
19:0
     RDKit          3D

 37 39  0  0  0  0  0  0  0  0999 V2000
   56.3710   23.4600   44.4860 C   0  0  0  0  0  0  0  0  0  0  0  0
   56.7290   24.8730   44.7280 C   0  0  0  0  0  0  0  0  0  0  0  0
   57.7440   25.4140   43.9700 C   0  0  0  0  0  0  0  0  0  0  0  0
   58.1020   26.7050   44.1630 N   0  0  0  0  0  0  0  0  0  0  0  0
   57.5050   27.4950   45.0710 C   0  0  0  0  0  0  0  0  0  0  0  0
   57.8770   28.8800   45.2900 C   0  0  0  0  0  0  0  0  0  0  0  0
   58.8530   29.2700   46.1790 C   0  0  0  0  0  0  0  0  0  0  0  0
   59.1730   30.6090   46.3530 C   0  0  0  0  0  0  0  0  0  0  0  0
   58.5400   31.5930   45.6560 C   0  0  0  0  0  0  0  0  0  0  0  0
   58.8560   32.9650   45.8230 N   0  0  0  0  0  0  0  0  0  0  0  0
   58.4500   33.9500   44.8410 C   0  0  0  0  0  0  0  0  0  0  0  0
   59.2700   35.2050   44.8720 C   0  0  0  0  0  0  0  0  0  0  0  0
   59.6430   35.6550   46.1010 O   0  0  0  0  0  0  0  0  0  0  0  0
   59.2780   34.8790   47.1650 C   0  0  0  0  0  0  0  0  0  0  0  0
   59.5980   33.4140   46.9860 C   0  0  0  0  0  0  0  0  0  0  0  0
   57.5590   31.2230   44.7610 C   0  0  0  0  0  0  0  0  0  0  0  0
   57.2380   29.8800   44.5870 C   0  0  0  0  0  0  0  0  0  0  0  0
   56.5180   26.9410   45.7970 N   0  0  0  0  0  0  0  0  0  0  0  0
   56.1050   25.6680   45.6660 C   0  0  0  0  0  0  0  0  0  0  0  0
   55.1730   25.1820   46.3660 O   0  0  0  0  0  0  0  0  0  0  0  0
   56.2404   22.9447   45.4490 H   0  0  0  0  0  0  0  0  0  0  0  0
   55.4324   23.4123   43.9144 H   0  0  0  0  0  0  0  0  0  0  0  0
   57.1737   22.9711   43.9144 H   0  0  0  0  0  0  0  0  0  0  0  0
   58.2590   24.8023   43.2146 H   0  0  0  0  0  0  0  0  0  0  0  0
   58.8700   27.0630   43.5690 H   0  0  0  0  0  0  0  0  0  0  0  0
   59.3889   28.5065   46.7619 H   0  0  0  0  0  0  0  0  0  0  0  0
   59.9585   30.8828   47.0727 H   0  0  0  0  0  0  0  0  0  0  0  0
   58.5399   33.5009   43.8409 H   0  0  0  0  0  0  0  0  0  0  0  0
   57.4153   34.2359   45.0810 H   0  0  0  0  0  0  0  0  0  0  0  0
   60.1858   35.0206   44.2912 H   0  0  0  0  0  0  0  0  0  0  0  0
   58.6185   35.9894   44.4595 H   0  0  0  0  0  0  0  0  0  0  0  0
   59.8067   35.2434   48.0581 H   0  0  0  0  0  0  0  0  0  0  0  0
   58.1853   34.9599   47.2620 H   0  0  0  0  0  0  0  0  0  0  0  0
   60.6774   33.2788   46.8226 H   0  0  0  0  0  0  0  0  0  0  0  0
   59.3208   32.8360   47.8799 H   0  0  0  0  0  0  0  0  0  0  0  0
   57.0276   31.9925   44.1818 H   0  0  0  0  0  0  0  0  0  0  0  0
   56.4515   29.6080   43.8676 H   0  0  0  0  0  0  0  0  0  0  0  0
  1  2  1  0
  2  3  2  0
  3  4  1  0
  4  5  1  0
  5  6  1  0
  6  7  2  0
  7  8  1  0
  8  9  2  0
  9 10  1  0
 10 11  1  0
 11 12  1  0
 12 13  1  0
 13 14  1  0
 14 15  1  0
  9 16  1  0
 16 17  2  0
  5 18  2  0
 18 19  1  0
 19 20  2  0
 19  2  1  0
 17  6  1  0
 15 10  1  0
  1 21  1  0
  1 22  1  0
  1 23  1  0
  3 24  1  0
  4 25  1  0
  7 26  1  0
  8 27  1  0
 11 28  1  0
 11 29  1  0
 12 30  1  0
 12 31  1  0
 14 32  1  0
 14 33  1  0
 15 34  1  0
 15 35  1  0
 16 36  1  0
 17 37  1  0
M  END
>  <smiles>  (20) 
Cc1c[nH]c(-c2ccc(N3CCOCC3)cc2)nc1=O

>  <score_type>  (20) 
oracle

>  <origin>  (20) 
adg

>  <m_score__min__energy>  (20) 
-6.7999999999999998

>  <m_primary>  (20) 
energy

$$$$
20:0
     RDKit          3D

 60 62  0  0  0  0  0  0  0  0999 V2000
   57.0500   27.4820   45.6790 C   0  0  0  0  0  0  0  0  0  0  0  0
   57.1170   28.6440   44.6910 C   0  0  0  0  0  0  0  0  0  0  0  0
   56.2550   29.7500   45.1380 N   0  0  0  0  0  0  0  0  0  0  0  0
   56.1540   30.8310   44.1410 C   0  0  0  0  0  0  0  0  0  0  0  0
   57.5020   31.1170   43.4540 C   0  0  0  0  0  0  0  0  0  0  0  0
   58.4130   31.9560   44.3620 C   0  0  0  0  0  0  0  0  0  0  0  0
   57.6420   33.0960   45.0620 C   0  0  0  0  0  0  0  0  0  0  0  0
   58.2950   34.4750   44.8780 C   0  0  0  0  0  0  0  0  0  0  0  0
   59.4140   34.7430   45.9030 C   0  0  0  0  0  0  0  0  0  0  0  0
   58.9060   35.3970   47.1220 N   0  0  0  0  0  0  0  0  0  0  0  0
   59.4000   34.7530   48.3520 C   0  0  0  0  0  0  0  0  0  0  0  0
   59.6960   33.2850   48.1020 C   0  0  0  0  0  0  0  0  0  0  0  0
   58.6230   32.3850   48.1720 C   0  0  0  0  0  0  0  0  0  0  0  0
   58.8060   31.0300   47.9230 C   0  0  0  0  0  0  0  0  0  0  0  0
   60.0630   30.5270   47.5770 C   0  0  0  0  0  0  0  0  0  0  0  0
   60.1690   29.0820   47.2740 C   0  0  0  0  0  0  0  0  0  0  0  0
   60.2890   28.6480   45.9440 C   0  0  0  0  0  0  0  0  0  0  0  0
   60.4200   27.2850   45.6590 C   0  0  0  0  0  0  0  0  0  0  0  0
   60.4420   26.3510   46.6980 C   0  0  0  0  0  0  0  0  0  0  0  0
   60.3350   26.7780   48.0250 C   0  0  0  0  0  0  0  0  0  0  0  0
   60.2030   28.1390   48.3150 C   0  0  0  0  0  0  0  0  0  0  0  0
   61.1730   31.4060   47.5030 C   0  0  0  0  0  0  0  0  0  0  0  0
   62.4650   30.9260   47.2020 C   0  0  0  0  0  0  0  0  0  0  0  0
   63.5470   31.8000   47.1150 C   0  0  0  0  0  0  0  0  0  0  0  0
   63.3660   33.1620   47.3310 C   0  0  0  0  0  0  0  0  0  0  0  0
   62.1030   33.6620   47.6520 C   0  0  0  0  0  0  0  0  0  0  0  0
   60.9880   32.8000   47.7540 C   0  0  0  0  0  0  0  0  0  0  0  0
   57.0725   27.8730   46.7069 H   0  0  0  0  0  0  0  0  0  0  0  0
   56.1179   26.9196   45.5210 H   0  0  0  0  0  0  0  0  0  0  0  0
   57.9112   26.8162   45.5210 H   0  0  0  0  0  0  0  0  0  0  0  0
   58.1554   28.9999   44.6205 H   0  0  0  0  0  0  0  0  0  0  0  0
   56.7683   28.2958   43.7076 H   0  0  0  0  0  0  0  0  0  0  0  0
   56.6250   30.1320   46.0400 H   0  0  0  0  0  0  0  0  0  0  0  0
   55.4209   30.5387   43.3747 H   0  0  0  0  0  0  0  0  0  0  0  0
   55.8418   31.7460   44.6657 H   0  0  0  0  0  0  0  0  0  0  0  0
   58.0000   30.1629   43.2269 H   0  0  0  0  0  0  0  0  0  0  0  0
   57.3122   31.6812   42.5290 H   0  0  0  0  0  0  0  0  0  0  0  0
   58.8507   31.3003   45.1291 H   0  0  0  0  0  0  0  0  0  0  0  0
   59.1933   32.4100   43.7335 H   0  0  0  0  0  0  0  0  0  0  0  0
   56.6236   33.1341   44.6481 H   0  0  0  0  0  0  0  0  0  0  0  0
   57.6438   32.8762   46.1398 H   0  0  0  0  0  0  0  0  0  0  0  0
   58.7236   34.5296   43.8664 H   0  0  0  0  0  0  0  0  0  0  0  0
   57.5151   35.2356   45.0301 H   0  0  0  0  0  0  0  0  0  0  0  0
   59.8766   33.7846   46.1815 H   0  0  0  0  0  0  0  0  0  0  0  0
   60.1453   35.4192   45.4362 H   0  0  0  0  0  0  0  0  0  0  0  0
   59.1660   36.4120   47.1220 H   0  0  0  0  0  0  0  0  0  0  0  0
   57.8610   35.3380   47.1070 H   0  0  0  0  0  0  0  0  0  0  0  0
   60.3211   35.2572   48.6797 H   0  0  0  0  0  0  0  0  0  0  0  0
   58.6266   34.8323   49.1302 H   0  0  0  0  0  0  0  0  0  0  0  0
   57.6202   32.7575   48.4281 H   0  0  0  0  0  0  0  0  0  0  0  0
   57.9495   30.3440   47.9993 H   0  0  0  0  0  0  0  0  0  0  0  0
   60.2800   29.3816   45.1244 H   0  0  0  0  0  0  0  0  0  0  0  0
   60.5058   26.9478   44.6155 H   0  0  0  0  0  0  0  0  0  0  0  0
   60.5436   25.2793   46.4718 H   0  0  0  0  0  0  0  0  0  0  0  0
   60.3547   26.0418   48.8421 H   0  0  0  0  0  0  0  0  0  0  0  0
   60.1256   28.4724   49.3604 H   0  0  0  0  0  0  0  0  0  0  0  0
   62.6201   29.8500   47.0341 H   0  0  0  0  0  0  0  0  0  0  0  0
   64.5476   31.4113   46.8747 H   0  0  0  0  0  0  0  0  0  0  0  0
   64.2219   33.8481   47.2485 H   0  0  0  0  0  0  0  0  0  0  0  0
   61.9741   34.7402   47.8277 H   0  0  0  0  0  0  0  0  0  0  0  0
  1  2  1  0
  2  3  1  0
  3  4  1  0
  4  5  1  0
  5  6  1  0
  6  7  1  0
  7  8  1  0
  8  9  1  0
  9 10  1  0
 10 11  1  0
 11 12  1  0
 12 13  2  0
 13 14  1  0
 14 15  2  0
 15 16  1  0
 16 17  2  0
 17 18  1  0
 18 19  2  0
 19 20  1  0
 20 21  2  0
 15 22  1  0
 22 23  2  0
 23 24  1  0
 24 25  2  0
 25 26  1  0
 26 27  2  0
 27 12  1  0
 21 16  1  0
 27 22  1  0
  1 28  1  0
  1 29  1  0
  1 30  1  0
  2 31  1  0
  2 32  1  0
  3 33  1  0
  4 34  1  0
  4 35  1  0
  5 36  1  0
  5 37  1  0
  6 38  1  0
  6 39  1  0
  7 40  1  0
  7 41  1  0
  8 42  1  0
  8 43  1  0
  9 44  1  0
  9 45  1  0
 10 46  1  0
 10 47  1  0
 11 48  1  0
 11 49  1  0
 13 50  1  0
 14 51  1  0
 17 52  1  0
 18 53  1  0
 19 54  1  0
 20 55  1  0
 21 56  1  0
 23 57  1  0
 24 58  1  0
 25 59  1  0
 26 60  1  0
M  CHG  1  10   1
M  END
>  <UniqueID>  (21) 
19

>  <SMILES>  (21) 
CCNCCCCCC[NH2+]Cc1ccc(-c2ccccc2)c2ccccc12

>  <Energy>  (21) 
69.93152690659298

>  <Genealogy>  (21) 
CCNCCCCCC[NH2+]Cc1ccc(-c2ccccc2)c2ccccc12 (protonated)
CCNCCCCCC[NH2+]Cc1ccc(-c2ccccc2)c2ccccc12 (3D coordinates assigned)
CCNCCCCCC[NH2+]Cc1ccc(-c2ccccc2)c2ccccc12 (optimized conformer: 69.93152690659298 kcal/mol)

>  <smiles>  (21) 
CCNCCCCCCNCc1ccc(-c2ccccc2)c2ccccc12

>  <score_type>  (21) 
oracle

>  <origin>  (21) 
adg

>  <m_score__min__energy>  (21) 
-6.7599999999999998

>  <m_primary>  (21) 
energy

$$$$
21:0
     RDKit          3D

 43 45  0  0  0  0  0  0  0  0999 V2000
   58.9590   34.5780   53.6160 C   0  0  0  0  0  0  0  0  0  0  0  0
   58.7610   34.4600   52.1750 N   0  0  0  0  0  0  0  0  0  0  0  0
   58.8800   33.2100   51.4640 C   0  0  0  0  0  0  0  0  0  0  0  0
   57.8320   32.2670   51.5350 C   0  0  0  0  0  0  0  0  0  0  0  0
   57.9260   31.0380   50.8820 C   0  0  0  0  0  0  0  0  0  0  0  0
   59.0620   30.7250   50.1450 C   0  0  0  0  0  0  0  0  0  0  0  0
   60.1080   31.6420   50.0510 C   0  0  0  0  0  0  0  0  0  0  0  0
   60.0380   32.8910   50.6970 C   0  0  0  0  0  0  0  0  0  0  0  0
   61.2010   33.8470   50.5110 C   0  0  0  0  0  0  0  0  0  0  0  0
   61.8780   33.6350   49.1690 C   0  0  0  0  0  0  0  0  0  0  0  0
   63.1790   33.0930   49.1830 C   0  0  0  0  0  0  0  0  0  0  0  0
   63.8990   32.9240   48.0020 C   0  0  0  0  0  0  0  0  0  0  0  0
   63.3430   33.3050   46.7870 C   0  0  0  0  0  0  0  0  0  0  0  0
   62.0550   33.8350   46.7430 C   0  0  0  0  0  0  0  0  0  0  0  0
   61.2800   33.9700   47.9160 C   0  0  0  0  0  0  0  0  0  0  0  0
   59.8840   34.5700   47.8060 C   0  0  0  0  0  0  0  0  0  0  0  0
   59.0270   33.8850   46.7670 C   0  0  0  0  0  0  0  0  0  0  0  0
   58.6690   34.5650   45.5900 C   0  0  0  0  0  0  0  0  0  0  0  0
   57.8640   33.9390   44.6330 C   0  0  0  0  0  0  0  0  0  0  0  0
   57.4110   32.6340   44.8440 C   0  0  0  0  0  0  0  0  0  0  0  0
   57.7610   31.9520   46.0130 C   0  0  0  0  0  0  0  0  0  0  0  0
   58.5650   32.5740   46.9730 C   0  0  0  0  0  0  0  0  0  0  0  0
   58.1291   34.0834   54.1419 H   0  0  0  0  0  0  0  0  0  0  0  0
   59.9084   34.0983   53.8962 H   0  0  0  0  0  0  0  0  0  0  0  0
   58.9888   35.6413   53.8962 H   0  0  0  0  0  0  0  0  0  0  0  0
   58.5170   35.3390   51.6700 H   0  0  0  0  0  0  0  0  0  0  0  0
   56.9275   32.5049   52.1140 H   0  0  0  0  0  0  0  0  0  0  0  0
   57.0996   30.3153   50.9505 H   0  0  0  0  0  0  0  0  0  0  0  0
   59.1359   29.7530   49.6354 H   0  0  0  0  0  0  0  0  0  0  0  0
   61.0017   31.3857   49.4631 H   0  0  0  0  0  0  0  0  0  0  0  0
   60.8280   34.8804   50.5652 H   0  0  0  0  0  0  0  0  0  0  0  0
   61.9374   33.6577   51.3059 H   0  0  0  0  0  0  0  0  0  0  0  0
   63.6329   32.7989   50.1408 H   0  0  0  0  0  0  0  0  0  0  0  0
   64.9087   32.4885   48.0316 H   0  0  0  0  0  0  0  0  0  0  0  0
   63.9206   33.1880   45.8582 H   0  0  0  0  0  0  0  0  0  0  0  0
   61.6345   34.1538   45.7778 H   0  0  0  0  0  0  0  0  0  0  0  0
   59.3869   34.4826   48.7834 H   0  0  0  0  0  0  0  0  0  0  0  0
   60.0003   35.6192   47.4968 H   0  0  0  0  0  0  0  0  0  0  0  0
   59.0231   35.5927   45.4212 H   0  0  0  0  0  0  0  0  0  0  0  0
   57.5870   34.4746   43.7130 H   0  0  0  0  0  0  0  0  0  0  0  0
   56.7786   32.1430   44.0897 H   0  0  0  0  0  0  0  0  0  0  0  0
   57.4035   30.9249   46.1778 H   0  0  0  0  0  0  0  0  0  0  0  0
   58.8368   32.0352   47.8927 H   0  0  0  0  0  0  0  0  0  0  0  0
  1  2  1  0
  2  3  1  0
  3  4  2  0
  4  5  1  0
  5  6  2  0
  6  7  1  0
  7  8  2  0
  8  9  1  0
  9 10  1  0
 10 11  2  0
 11 12  1  0
 12 13  2  0
 13 14  1  0
 14 15  2  0
 15 16  1  0
 16 17  1  0
 17 18  2  0
 18 19  1  0
 19 20  2  0
 20 21  1  0
 21 22  2  0
  8  3  1  0
 15 10  1  0
 22 17  1  0
  1 23  1  0
  1 24  1  0
  1 25  1  0
  2 26  1  0
  4 27  1  0
  5 28  1  0
  6 29  1  0
  7 30  1  0
  9 31  1  0
  9 32  1  0
 11 33  1  0
 12 34  1  0
 13 35  1  0
 14 36  1  0
 16 37  1  0
 16 38  1  0
 18 39  1  0
 19 40  1  0
 20 41  1  0
 21 42  1  0
 22 43  1  0
M  END
>  <UniqueID>  (22) 
20

>  <SMILES>  (22) 
CNc1ccccc1Cc1ccccc1Cc1ccccc1

>  <Energy>  (22) 
52.6854058687463

>  <Genealogy>  (22) 
CNc1ccccc1Cc1ccccc1Cc1ccccc1 (3D coordinates assigned)
CNc1ccccc1Cc1ccccc1Cc1ccccc1 (optimized conformer: 52.6854058687463 kcal/mol)

>  <smiles>  (22) 
CNc1ccccc1Cc1ccccc1Cc1ccccc1

>  <score_type>  (22) 
oracle

>  <origin>  (22) 
adg

>  <m_score__min__energy>  (22) 
-8.1699999999999999

>  <m_primary>  (22) 
energy

$$$$
22:0
     RDKit          3D

 80 80  0  0  0  0  0  0  0  0999 V2000
   63.3960   33.8440   46.4350 C   0  0  0  0  0  0  0  0  0  0  0  0
   62.9930   32.8970   47.2980 C   0  0  0  0  0  0  0  0  0  0  0  0
   63.8540   32.5400   48.4910 C   0  0  0  0  0  0  0  0  0  0  0  0
   63.1090   31.6470   49.5000 C   0  0  0  0  0  0  0  0  0  0  0  0
   62.8410   32.3350   50.8480 C   0  0  0  0  0  0  0  0  0  0  0  0
   61.5080   32.9550   50.8700 N   0  0  0  0  0  0  0  0  0  0  0  0
   60.9320   32.9540   52.2240 C   0  0  0  0  0  0  0  0  0  0  0  0
   59.5000   33.5090   52.2150 C   0  0  0  0  0  0  0  0  0  0  0  0
   58.3960   32.4380   52.2690 C   0  0  0  0  0  0  0  0  0  0  0  0
   57.7820   32.1430   50.8860 C   0  0  0  0  0  0  0  0  0  0  0  0
   58.8060   31.8440   49.8720 N   0  0  0  0  0  0  0  0  0  0  0  0
   59.3390   30.4810   50.0030 C   0  0  0  0  0  0  0  0  0  0  0  0
   59.4030   29.8080   48.6350 C   0  0  0  0  0  0  0  0  0  0  0  0
   60.7180   29.5520   48.2920 F   0  0  0  0  0  0  0  0  0  0  0  0
   58.8330   30.6280   47.6770 F   0  0  0  0  0  0  0  0  0  0  0  0
   58.7070   28.6130   48.6750 F   0  0  0  0  0  0  0  0  0  0  0  0
   61.6320   32.2480   47.1380 C   0  0  0  0  0  0  0  0  0  0  0  0
   60.6480   32.7540   48.1070 N   0  0  0  0  0  0  0  0  0  0  0  0
   60.8120   34.1910   48.3680 C   0  0  0  0  0  0  0  0  0  0  0  0
   59.5040   34.9380   48.0820 C   0  0  0  0  0  0  0  0  0  0  0  0
   58.8110   34.4380   46.8040 C   0  0  0  0  0  0  0  0  0  0  0  0
   57.7260   33.4020   47.1200 C   0  0  0  0  0  0  0  0  0  0  0  0
   56.7030   33.4040   46.0630 N   0  0  0  0  0  0  0  0  0  0  0  0
   57.1900   34.0420   44.8330 C   0  0  0  0  0  0  0  0  0  0  0  0
   58.1050   33.0890   44.0560 C   0  0  0  0  0  0  0  0  0  0  0  0
   57.4010   31.7790   43.6830 C   0  0  0  0  0  0  0  0  0  0  0  0
   56.9740   31.0570   44.8950 N   0  0  0  0  0  0  0  0  0  0  0  0
   56.7040   29.6400   44.6130 C   0  0  0  0  0  0  0  0  0  0  0  0
   57.8560   28.8000   45.0910 C   0  0  0  0  0  0  0  0  0  0  0  0
   59.1770   29.2260   44.8770 C   0  0  0  0  0  0  0  0  0  0  0  0
   60.2490   28.4540   45.3350 C   0  0  0  0  0  0  0  0  0  0  0  0
   60.0090   27.2580   46.0160 C   0  0  0  0  0  0  0  0  0  0  0  0
   58.6980   26.8340   46.2460 C   0  0  0  0  0  0  0  0  0  0  0  0
   57.6230   27.6040   45.7910 C   0  0  0  0  0  0  0  0  0  0  0  0
   62.7687   34.1017   45.5689 H   0  0  0  0  0  0  0  0  0  0  0  0
   64.3533   34.3619   46.5943 H   0  0  0  0  0  0  0  0  0  0  0  0
   64.7468   32.0045   48.1359 H   0  0  0  0  0  0  0  0  0  0  0  0
   64.1250   33.4748   49.0035 H   0  0  0  0  0  0  0  0  0  0  0  0
   62.1439   31.3553   49.0602 H   0  0  0  0  0  0  0  0  0  0  0  0
   63.7549   30.7799   49.7025 H   0  0  0  0  0  0  0  0  0  0  0  0
   62.9024   31.5866   51.6518 H   0  0  0  0  0  0  0  0  0  0  0  0
   63.5950   33.1224   50.9944 H   0  0  0  0  0  0  0  0  0  0  0  0
   60.8860   32.3730   50.2620 H   0  0  0  0  0  0  0  0  0  0  0  0
   60.9155   31.9229   52.6068 H   0  0  0  0  0  0  0  0  0  0  0  0
   61.5516   33.5952   52.8682 H   0  0  0  0  0  0  0  0  0  0  0  0
   59.3820   34.1674   53.0883 H   0  0  0  0  0  0  0  0  0  0  0  0
   59.3763   34.0354   51.2571 H   0  0  0  0  0  0  0  0  0  0  0  0
   58.8276   31.5080   52.6676 H   0  0  0  0  0  0  0  0  0  0  0  0
   57.5919   32.8233   52.9131 H   0  0  0  0  0  0  0  0  0  0  0  0
   57.1092   31.2773   50.9751 H   0  0  0  0  0  0  0  0  0  0  0  0
   57.2388   33.0424   50.5604 H   0  0  0  0  0  0  0  0  0  0  0  0
   59.5930   32.5290   49.9620 H   0  0  0  0  0  0  0  0  0  0  0  0
   60.3501   30.5258   50.4338 H   0  0  0  0  0  0  0  0  0  0  0  0
   58.6771   29.8977   50.6600 H   0  0  0  0  0  0  0  0  0  0  0  0
   61.2623   32.4502   46.1219 H   0  0  0  0  0  0  0  0  0  0  0  0
   61.7533   31.1696   47.3178 H   0  0  0  0  0  0  0  0  0  0  0  0
   60.7510   32.2260   49.0030 H   0  0  0  0  0  0  0  0  0  0  0  0
   61.0909   34.3386   49.4218 H   0  0  0  0  0  0  0  0  0  0  0  0
   61.6001   34.5859   47.7099 H   0  0  0  0  0  0  0  0  0  0  0  0
   58.8219   34.7945   48.9330 H   0  0  0  0  0  0  0  0  0  0  0  0
   59.7493   36.0004   47.9368 H   0  0  0  0  0  0  0  0  0  0  0  0
   58.3489   35.2938   46.2901 H   0  0  0  0  0  0  0  0  0  0  0  0
   59.5686   33.9597   46.1659 H   0  0  0  0  0  0  0  0  0  0  0  0
   58.1833   32.4035   47.1821 H   0  0  0  0  0  0  0  0  0  0  0  0
   57.2529   33.6570   48.0798 H   0  0  0  0  0  0  0  0  0  0  0  0
   55.8940   33.9710   46.4110 H   0  0  0  0  0  0  0  0  0  0  0  0
   56.3308   34.3129   44.2018 H   0  0  0  0  0  0  0  0  0  0  0  0
   57.7627   34.9415   45.1032 H   0  0  0  0  0  0  0  0  0  0  0  0
   58.4338   33.5888   43.1329 H   0  0  0  0  0  0  0  0  0  0  0  0
   58.9579   32.8392   44.7042 H   0  0  0  0  0  0  0  0  0  0  0  0
   56.5182   32.0055   43.0671 H   0  0  0  0  0  0  0  0  0  0  0  0
   58.1038   31.1457   43.1217 H   0  0  0  0  0  0  0  0  0  0  0  0
   56.0840   31.4860   45.2410 H   0  0  0  0  0  0  0  0  0  0  0  0
   55.7857   29.3319   45.1343 H   0  0  0  0  0  0  0  0  0  0  0  0
   56.5773   29.5018   43.5291 H   0  0  0  0  0  0  0  0  0  0  0  0
   59.3690   30.1706   44.3470 H   0  0  0  0  0  0  0  0  0  0  0  0
   61.2820   28.7886   45.1590 H   0  0  0  0  0  0  0  0  0  0  0  0
   60.8535   26.6494   46.3716 H   0  0  0  0  0  0  0  0  0  0  0  0
   58.5111   25.8937   46.7854 H   0  0  0  0  0  0  0  0  0  0  0  0
   56.5916   27.2724   45.9817 H   0  0  0  0  0  0  0  0  0  0  0  0
  1  2  2  0
  2  3  1  0
  3  4  1  0
  4  5  1  0
  5  6  1  0
  6  7  1  0
  7  8  1  0
  8  9  1  0
  9 10  1  0
 10 11  1  0
 11 12  1  0
 12 13  1  0
 13 14  1  0
 13 15  1  0
 13 16  1  0
  2 17  1  0
 17 18  1  0
 18 19  1  0
 19 20  1  0
 20 21  1  0
 21 22  1  0
 22 23  1  0
 23 24  1  0
 24 25  1  0
 25 26  1  0
 26 27  1  0
 27 28  1  0
 28 29  1  0
 29 30  2  0
 30 31  1  0
 31 32  2  0
 32 33  1  0
 33 34  2  0
 34 29  1  0
  1 35  1  0
  1 36  1  0
  3 37  1  0
  3 38  1  0
  4 39  1  0
  4 40  1  0
  5 41  1  0
  5 42  1  0
  6 43  1  0
  7 44  1  0
  7 45  1  0
  8 46  1  0
  8 47  1  0
  9 48  1  0
  9 49  1  0
 10 50  1  0
 10 51  1  0
 11 52  1  0
 12 53  1  0
 12 54  1  0
 17 55  1  0
 17 56  1  0
 18 57  1  0
 19 58  1  0
 19 59  1  0
 20 60  1  0
 20 61  1  0
 21 62  1  0
 21 63  1  0
 22 64  1  0
 22 65  1  0
 23 66  1  0
 24 67  1  0
 24 68  1  0
 25 69  1  0
 25 70  1  0
 26 71  1  0
 26 72  1  0
 27 73  1  0
 28 74  1  0
 28 75  1  0
 30 76  1  0
 31 77  1  0
 32 78  1  0
 33 79  1  0
 34 80  1  0
M  END
>  <UniqueID>  (23) 
21

>  <SMILES>  (23) 
C=C(CCCNCCCCNCC(F)(F)F)CNCCCCNCCCNCc1ccccc1

>  <Energy>  (23) 
53.117007143168976

>  <Genealogy>  (23) 
C=C(CCCNCCCCNCC(F)(F)F)CNCCCCNCCCNCc1ccccc1 (3D coordinates assigned)
C=C(CCCNCCCCNCC(F)(F)F)CNCCCCNCCCNCc1ccccc1 (optimized conformer: 53.117007143168976 kcal/mol)

>  <smiles>  (23) 
C=C(CCCNCCCCNCC(F)(F)F)CNCCCCNCCCNCc1ccccc1

>  <score_type>  (23) 
oracle

>  <origin>  (23) 
adg

>  <m_score__min__energy>  (23) 
-5.29

>  <m_primary>  (23) 
energy

$$$$
23:0
     RDKit          3D

 49 52  0  0  0  0  0  0  0  0999 V2000
   60.7720   30.2130   48.7530 C   0  0  0  0  0  0  0  0  0  0  0  0
   61.2130   31.2720   49.5980 O   0  0  0  0  0  0  0  0  0  0  0  0
   62.5550   31.6340   49.7880 C   0  0  0  0  0  0  0  0  0  0  0  0
   63.4360   30.8450   50.5570 C   0  0  0  0  0  0  0  0  0  0  0  0
   64.7600   31.2470   50.7500 C   0  0  0  0  0  0  0  0  0  0  0  0
   65.2210   32.4340   50.1810 C   0  0  0  0  0  0  0  0  0  0  0  0
   64.3630   33.2210   49.4120 C   0  0  0  0  0  0  0  0  0  0  0  0
   63.0300   32.8280   49.2060 C   0  0  0  0  0  0  0  0  0  0  0  0
   62.1690   33.6440   48.3910 N   0  0  0  0  0  0  0  0  0  0  0  0
   60.9470   34.2240   48.9630 C   0  0  0  0  0  0  0  0  0  0  0  0
   59.9220   34.5130   47.8620 C   0  0  0  0  0  0  0  0  0  0  0  0
   59.9770   33.4340   46.8650 N   0  0  0  0  0  0  0  0  0  0  0  0
   58.6150   33.5500   45.7800 S   0  0  0  0  0  0  0  0  0  0  0  0
   57.4290   34.1070   46.5190 O   0  0  0  0  0  0  0  0  0  0  0  0
   58.9510   34.4570   44.6310 O   0  0  0  0  0  0  0  0  0  0  0  0
   58.2310   31.9540   45.1450 C   0  0  0  0  0  0  0  0  0  0  0  0
   57.4400   31.8160   43.9830 C   0  0  0  0  0  0  0  0  0  0  0  0
   57.1240   30.5420   43.4800 C   0  0  0  0  0  0  0  0  0  0  0  0
   57.6090   29.4170   44.1490 C   0  0  0  0  0  0  0  0  0  0  0  0
   57.3790   28.1320   43.7750 N   0  0  0  0  0  0  0  0  0  0  0  0
   57.9720   27.2510   44.6170 C   0  0  0  0  0  0  0  0  0  0  0  0
   57.9240   25.7720   44.4320 C   0  0  0  0  0  0  0  0  0  0  0  0
   58.8200   28.0400   45.8550 S   0  0  0  0  0  0  0  0  0  0  0  0
   58.3890   29.5600   45.2850 C   0  0  0  0  0  0  0  0  0  0  0  0
   58.7180   30.8090   45.8040 C   0  0  0  0  0  0  0  0  0  0  0  0
   61.2400   33.4710   46.0960 C   0  0  0  0  0  0  0  0  0  0  0  0
   62.4610   33.8390   46.9660 C   0  0  0  0  0  0  0  0  0  0  0  0
   60.4221   29.3727   49.3706 H   0  0  0  0  0  0  0  0  0  0  0  0
   59.9476   30.5696   48.1180 H   0  0  0  0  0  0  0  0  0  0  0  0
   61.6059   29.8791   48.1180 H   0  0  0  0  0  0  0  0  0  0  0  0
   63.0783   29.9074   51.0075 H   0  0  0  0  0  0  0  0  0  0  0  0
   65.4401   30.6262   51.3518 H   0  0  0  0  0  0  0  0  0  0  0  0
   66.2627   32.7502   50.3387 H   0  0  0  0  0  0  0  0  0  0  0  0
   64.7327   34.1552   48.9641 H   0  0  0  0  0  0  0  0  0  0  0  0
   60.5134   33.5153   49.6839 H   0  0  0  0  0  0  0  0  0  0  0  0
   61.2037   35.1681   49.4657 H   0  0  0  0  0  0  0  0  0  0  0  0
   58.9138   34.5606   48.2994 H   0  0  0  0  0  0  0  0  0  0  0  0
   60.1519   35.4758   47.3822 H   0  0  0  0  0  0  0  0  0  0  0  0
   57.0679   32.7134   43.4671 H   0  0  0  0  0  0  0  0  0  0  0  0
   56.5062   30.4337   42.5763 H   0  0  0  0  0  0  0  0  0  0  0  0
   56.8190   27.8530   42.9380 H   0  0  0  0  0  0  0  0  0  0  0  0
   57.9080   25.2798   45.4156 H   0  0  0  0  0  0  0  0  0  0  0  0
   57.0166   25.5018   43.8720 H   0  0  0  0  0  0  0  0  0  0  0  0
   58.8120   25.4435   43.8720 H   0  0  0  0  0  0  0  0  0  0  0  0
   59.3421   30.8991   46.7053 H   0  0  0  0  0  0  0  0  0  0  0  0
   61.4107   32.4787   45.6530 H   0  0  0  0  0  0  0  0  0  0  0  0
   61.1357   34.2498   45.3262 H   0  0  0  0  0  0  0  0  0  0  0  0
   63.3106   33.2005   46.6822 H   0  0  0  0  0  0  0  0  0  0  0  0
   62.7033   34.8990   46.7996 H   0  0  0  0  0  0  0  0  0  0  0  0
  1  2  1  0
  2  3  1  0
  3  4  2  0
  4  5  1  0
  5  6  2  0
  6  7  1  0
  7  8  2  0
  8  9  1  0
  9 10  1  0
 10 11  1  0
 11 12  1  0
 12 13  1  0
 13 14  2  0
 13 15  2  0
 13 16  1  0
 16 17  2  0
 17 18  1  0
 18 19  2  0
 19 20  1  0
 20 21  2  0
 21 22  1  0
 21 23  1  0
 23 24  1  0
 24 25  2  0
 12 26  1  0
 26 27  1  0
  8  3  1  0
 27  9  1  0
 25 16  1  0
 24 19  1  0
  1 28  1  0
  1 29  1  0
  1 30  1  0
  4 31  1  0
  5 32  1  0
  6 33  1  0
  7 34  1  0
 10 35  1  0
 10 36  1  0
 11 37  1  0
 11 38  1  0
 17 39  1  0
 18 40  1  0
 20 41  1  0
 22 42  1  0
 22 43  1  0
 22 44  1  0
 25 45  1  0
 26 46  1  0
 26 47  1  0
 27 48  1  0
 27 49  1  0
M  CHG  1  20   1
M  END
>  <UniqueID>  (24) 
22

>  <SMILES>  (24) 
COc1ccccc1N1CCN(S(=O)(=O)c2ccc3[nH+]c(C)sc3c2)CC1

>  <Energy>  (24) 
92.96362807458219

>  <Genealogy>  (24) 
COc1ccccc1N1CCN(S(=O)(=O)c2ccc3[nH+]c(C)sc3c2)CC1 (protonated)
COc1ccccc1N1CCN(S(=O)(=O)c2ccc3[nH+]c(C)sc3c2)CC1 (3D coordinates assigned)
COc1ccccc1N1CCN(S(=O)(=O)c2ccc3[nH+]c(C)sc3c2)CC1 (nonaromatic ring conformer: 92.96362807458219 kcal/mol)

>  <smiles>  (24) 
COc1ccccc1N1CCN(S(=O)(=O)c2ccc3nc(C)sc3c2)CC1

>  <score_type>  (24) 
oracle

>  <origin>  (24) 
adg

>  <m_score__min__energy>  (24) 
-7.1200000000000001

>  <m_primary>  (24) 
energy

$$$$
24:0
     RDKit          3D

 49 51  0  0  0  0  0  0  0  0999 V2000
   61.1170   26.3890   46.3730 C   0  0  0  0  0  0  0  0  0  0  0  0
   60.0550   26.2220   47.3790 N   0  0  0  0  0  0  0  0  0  0  0  0
   60.2090   27.2440   48.4290 C   0  0  0  0  0  0  0  0  0  0  0  0
   58.7260   26.3160   46.7380 C   0  0  0  0  0  0  0  0  0  0  0  0
   57.8730   27.3970   47.4140 C   0  0  0  0  0  0  0  0  0  0  0  0
   57.3810   28.3560   46.4210 N   0  0  0  0  0  0  0  0  0  0  0  0
   56.3090   28.1770   45.6220 C   0  0  0  0  0  0  0  0  0  0  0  0
   55.4920   27.0530   45.6480 O   0  0  0  0  0  0  0  0  0  0  0  0
   56.1520   29.2510   44.7820 C   0  0  0  0  0  0  0  0  0  0  0  0
   55.1540   29.4030   43.8250 O   0  0  0  0  0  0  0  0  0  0  0  0
   57.1610   30.1500   45.0690 C   0  0  0  0  0  0  0  0  0  0  0  0
   57.3820   31.4490   44.3960 C   0  0  0  0  0  0  0  0  0  0  0  0
   57.0910   31.5600   43.1750 O   0  0  0  0  0  0  0  0  0  0  0  0
   57.9300   32.6200   45.1150 C   0  0  0  0  0  0  0  0  0  0  0  0
   58.8820   33.4580   44.5070 C   0  0  0  0  0  0  0  0  0  0  0  0
   59.3660   34.5830   45.1800 C   0  0  0  0  0  0  0  0  0  0  0  0
   58.9180   34.8730   46.4720 C   0  0  0  0  0  0  0  0  0  0  0  0
   57.9910   34.0320   47.0940 C   0  0  0  0  0  0  0  0  0  0  0  0
   57.5020   32.9070   46.4220 C   0  0  0  0  0  0  0  0  0  0  0  0
   57.9130   29.5620   46.0890 C   0  0  0  0  0  0  0  0  0  0  0  0
   59.1690   30.1040   46.6510 C   0  0  0  0  0  0  0  0  0  0  0  0
   60.3810   29.9160   45.9720 C   0  0  0  0  0  0  0  0  0  0  0  0
   61.5630   30.4560   46.4820 C   0  0  0  0  0  0  0  0  0  0  0  0
   61.5430   31.1960   47.6670 C   0  0  0  0  0  0  0  0  0  0  0  0
   60.3320   31.4180   48.3460 C   0  0  0  0  0  0  0  0  0  0  0  0
   60.3040   32.1860   49.6430 C   0  0  0  0  0  0  0  0  0  0  0  0
   60.6810   33.5040   49.4470 F   0  0  0  0  0  0  0  0  0  0  0  0
   61.1760   31.5970   50.5390 F   0  0  0  0  0  0  0  0  0  0  0  0
   59.0290   32.1770   50.1810 F   0  0  0  0  0  0  0  0  0  0  0  0
   59.1520   30.8470   47.8410 C   0  0  0  0  0  0  0  0  0  0  0  0
   62.0815   26.5407   46.8797 H   0  0  0  0  0  0  0  0  0  0  0  0
   61.1710   25.4883   45.7438 H   0  0  0  0  0  0  0  0  0  0  0  0
   60.8920   27.2628   45.7438 H   0  0  0  0  0  0  0  0  0  0  0  0
   60.1372   26.7675   49.4178 H   0  0  0  0  0  0  0  0  0  0  0  0
   61.1905   27.7299   48.3266 H   0  0  0  0  0  0  0  0  0  0  0  0
   59.4143   27.9976   48.3266 H   0  0  0  0  0  0  0  0  0  0  0  0
   58.8548   26.5697   45.6754 H   0  0  0  0  0  0  0  0  0  0  0  0
   58.2150   25.3473   46.8399 H   0  0  0  0  0  0  0  0  0  0  0  0
   57.0163   26.9221   47.9145 H   0  0  0  0  0  0  0  0  0  0  0  0
   58.4922   27.9315   48.1494 H   0  0  0  0  0  0  0  0  0  0  0  0
   59.2477   33.2265   43.4957 H   0  0  0  0  0  0  0  0  0  0  0  0
   60.1004   35.2411   44.6925 H   0  0  0  0  0  0  0  0  0  0  0  0
   59.2947   35.7622   46.9987 H   0  0  0  0  0  0  0  0  0  0  0  0
   57.6453   34.2553   48.1141 H   0  0  0  0  0  0  0  0  0  0  0  0
   56.7789   32.2438   46.9192 H   0  0  0  0  0  0  0  0  0  0  0  0
   60.4007   29.3411   45.0344 H   0  0  0  0  0  0  0  0  0  0  0  0
   62.5126   30.2985   45.9496 H   0  0  0  0  0  0  0  0  0  0  0  0
   62.4799   31.6072   48.0709 H   0  0  0  0  0  0  0  0  0  0  0  0
   58.2052   30.9838   48.3840 H   0  0  0  0  0  0  0  0  0  0  0  0
  1  2  1  0
  2  3  1  0
  2  4  1  0
  4  5  1  0
  5  6  1  0
  6  7  1  0
  7  8  1  0
  7  9  2  0
  9 10  1  0
  9 11  1  0
 11 12  1  0
 12 13  2  0
 12 14  1  0
 14 15  2  0
 15 16  1  0
 16 17  2  0
 17 18  1  0
 18 19  2  0
 11 20  2  0
 20 21  1  0
 21 22  2  0
 22 23  1  0
 23 24  2  0
 24 25  1  0
 25 26  1  0
 26 27  1  0
 26 28  1  0
 26 29  1  0
 25 30  2  0
 20  6  1  0
 30 21  1  0
 19 14  1  0
  1 31  1  0
  1 32  1  0
  1 33  1  0
  3 34  1  0
  3 35  1  0
  3 36  1  0
  4 37  1  0
  4 38  1  0
  5 39  1  0
  5 40  1  0
 15 41  1  0
 16 42  1  0
 17 43  1  0
 18 44  1  0
 19 45  1  0
 22 46  1  0
 23 47  1  0
 24 48  1  0
 30 49  1  0
M  CHG  2   8  -1  10  -1
M  END
>  <UniqueID>  (25) 
23

>  <SMILES>  (25) 
CN(C)CCn1c([O-])c([O-])c(C(=O)c2ccccc2)c1-c1cccc(C(F)(F)F)c1

>  <Energy>  (25) 
88.1843979529464

>  <Genealogy>  (25) 
CN(C)CCn1c([O-])c([O-])c(C(=O)c2ccccc2)c1-c1cccc(C(F)(F)F)c1 (protonated)
CN(C)CCn1c([O-])c([O-])c(C(=O)c2ccccc2)c1-c1cccc(C(F)(F)F)c1 (3D coordinates assigned)
CN(C)CCn1c([O-])c([O-])c(C(=O)c2ccccc2)c1-c1cccc(C(F)(F)F)c1 (optimized conformer: 88.1843979529464 kcal/mol)

>  <smiles>  (25) 
CN(C)CCn1c(O)c(O)c(C(=O)c2ccccc2)c1-c1cccc(C(F)(F)F)c1

>  <score_type>  (25) 
oracle

>  <origin>  (25) 
adg

>  <m_score__min__energy>  (25) 
-11.880000000000001

>  <m_primary>  (25) 
energy

$$$$
25:0
     RDKit          3D

 55 57  0  0  1  0  0  0  0  0999 V2000
   58.8370   27.2510   44.8680 C   0  0  0  0  0  0  0  0  0  0  0  0
   58.1400   27.3510   43.5490 C   0  0  0  0  0  0  0  0  0  0  0  0
   57.3940   28.5910   43.2420 C   0  0  0  0  0  0  0  0  0  0  0  0
   57.8460   29.8290   43.7490 N   0  0  0  0  0  0  0  0  0  0  0  0
   57.1680   30.7790   44.5280 C   0  0  0  0  0  0  0  0  0  0  0  0
   55.9750   30.5980   44.8660 O   0  0  0  0  0  0  0  0  0  0  0  0
   57.7800   32.0350   45.0000 C   0  0  0  0  0  0  0  0  0  0  0  0
   57.5560   33.2470   44.3890 C   0  0  0  0  0  0  0  0  0  0  0  0
   58.1560   34.4000   44.8720 C   0  0  0  0  0  0  0  0  0  0  0  0
   58.9810   34.3950   45.9510 C   0  0  0  0  0  0  0  0  0  0  0  0
   59.2200   33.1910   46.5810 C   0  0  0  0  0  0  0  0  0  0  0  0
   60.0800   33.1500   47.7140 N   0  0  0  0  0  0  0  0  0  0  0  0
   61.3820   33.1810   47.5770 C   0  0  0  0  0  0  0  0  0  0  0  0
   61.9370   33.7940   46.5280 N   0  0  0  0  0  0  0  0  0  0  0  0
   63.2810   33.8210   46.3940 C   0  0  0  0  0  0  0  0  0  0  0  0
   64.1060   33.2390   47.2990 N   0  0  0  0  0  0  0  0  0  0  0  0
   63.5710   32.6090   48.3750 C   0  0  0  0  0  0  0  0  0  0  0  0
   64.3730   32.0010   49.3250 C   0  0  0  0  0  0  0  0  0  0  0  0
   63.8700   31.3510   50.4320 C   0  0  0  0  0  0  0  0  0  0  0  0
   64.6310   30.7380   51.3940 O   0  0  0  0  0  0  0  0  0  0  0  0
   66.0370   30.8310   51.4980 C   0  0  0  0  0  0  0  0  0  0  0  0
   66.6850   29.4880   51.6270 C   0  0  0  0  0  0  0  0  0  0  0  0
   62.4950   31.3230   50.5700 C   0  0  0  0  0  0  0  0  0  0  0  0
   61.9510   30.6800   51.6670 O   0  0  0  0  0  0  0  0  0  0  0  0
   61.6170   29.3260   51.7400 C   0  0  0  0  0  0  0  0  0  0  0  0
   61.1810   28.7040   50.4570 C   0  0  0  0  0  0  0  0  0  0  0  0
   61.6850   31.9320   49.6180 C   0  0  0  0  0  0  0  0  0  0  0  0
   62.1990   32.5810   48.5130 C   0  0  0  0  0  0  0  0  0  0  0  0
   58.6230   32.0470   46.0990 C   0  0  0  0  0  0  0  0  0  0  0  0
   58.1023   27.3564   45.6799 H   0  0  0  0  0  0  0  0  0  0  0  0
   59.3332   26.2725   44.9473 H   0  0  0  0  0  0  0  0  0  0  0  0
   59.5883   28.0506   44.9473 H   0  0  0  0  0  0  0  0  0  0  0  0
   58.9038   27.2284   42.7670 H   0  0  0  0  0  0  0  0  0  0  0  0
   57.3649   26.5716   43.5919 H   0  0  0  0  0  0  0  0  0  0  0  0
   57.3715   28.6854   42.1463 H   0  0  0  0  0  0  0  0  0  0  0  0
   56.4327   28.4424   43.7556 H   0  0  0  0  0  0  0  0  0  0  0  0
   58.8630   30.0930   43.5080 H   0  0  0  0  0  0  0  0  0  0  0  0
   56.8960   33.3019   43.5107 H   0  0  0  0  0  0  0  0  0  0  0  0
   57.9564   35.3542   44.3624 H   0  0  0  0  0  0  0  0  0  0  0  0
   59.4454   35.3244   46.3123 H   0  0  0  0  0  0  0  0  0  0  0  0
   63.7197   34.3310   45.5237 H   0  0  0  0  0  0  0  0  0  0  0  0
   65.1570   33.2810   47.1620 H   0  0  0  0  0  0  0  0  0  0  0  0
   65.4641   32.0381   49.1904 H   0  0  0  0  0  0  0  0  0  0  0  0
   66.4267   31.3272   50.5969 H   0  0  0  0  0  0  0  0  0  0  0  0
   66.2709   31.4071   52.4054 H   0  0  0  0  0  0  0  0  0  0  0  0
   66.8049   29.2395   52.6918 H   0  0  0  0  0  0  0  0  0  0  0  0
   66.0543   28.7284   51.1420 H   0  0  0  0  0  0  0  0  0  0  0  0
   67.6721   29.5090   51.1420 H   0  0  0  0  0  0  0  0  0  0  0  0
   62.5001   28.7777   52.0999 H   0  0  0  0  0  0  0  0  0  0  0  0
   60.7516   29.2637   52.4161 H   0  0  0  0  0  0  0  0  0  0  0  0
   60.5615   27.8203   50.6698 H   0  0  0  0  0  0  0  0  0  0  0  0
   60.5944   29.4319   49.8773 H   0  0  0  0  0  0  0  0  0  0  0  0
   62.0654   28.4009   49.8773 H   0  0  0  0  0  0  0  0  0  0  0  0
   60.5936   31.8954   49.7502 H   0  0  0  0  0  0  0  0  0  0  0  0
   58.8258   31.0956   46.6124 H   0  0  0  0  0  0  0  0  0  0  0  0
  1  2  1  0
  2  3  1  0
  3  4  1  0
  4  5  1  0
  5  6  2  0
  5  7  1  0
  7  8  2  0
  8  9  1  0
  9 10  2  0
 10 11  1  0
 11 12  1  0
 12 13  2  0
 13 14  1  0
 14 15  2  0
 15 16  1  0
 16 17  1  0
 17 18  2  0
 18 19  1  0
 19 20  1  0
 20 21  1  0
 21 22  1  0
 19 23  2  0
 23 24  1  0
 24 25  1  0
 25 26  1  0
 23 27  1  0
 27 28  2  0
 11 29  2  0
 29  7  1  0
 28 13  1  0
 28 17  1  0
  1 30  1  0
  1 31  1  0
  1 32  1  0
  2 33  1  0
  2 34  1  0
  3 35  1  0
  3 36  1  0
  4 37  1  0
  8 38  1  0
  9 39  1  0
 10 40  1  0
 15 41  1  0
 16 42  1  0
 18 43  1  0
 21 44  1  0
 21 45  1  0
 22 46  1  0
 22 47  1  0
 22 48  1  0
 25 49  1  0
 25 50  1  0
 26 51  1  0
 26 52  1  0
 26 53  1  0
 27 54  1  0
 29 55  1  0
M  END
>  <smiles>  (26) 
CCCNC(=O)c1cccc(N=c2nc[nH]c3cc(OCC)c(OCC)cc23)c1

>  <score_type>  (26) 
oracle

>  <origin>  (26) 
adg

>  <m_score__min__energy>  (26) 
-8.1999999999999993

>  <m_primary>  (26) 
energy

$$$$
26:0
     RDKit          3D

 39 39  0  0  1  0  0  0  0  0999 V2000
   59.4920   34.9070   45.8910 C   0  0  0  0  0  0  0  0  0  0  0  0
   59.0110   33.9710   44.8060 C   0  0  0  0  0  0  0  0  0  0  0  0
   57.5310   33.6940   44.9490 C   0  0  0  0  0  0  0  0  0  0  0  0
   57.2060   32.3260   45.2170 N   0  0  0  0  0  0  0  0  0  0  0  0
   57.0500   31.5520   44.0420 C   0  0  0  0  0  0  0  0  0  0  0  0
   56.9860   30.0650   44.2480 C   0  0  0  0  0  0  0  0  0  0  0  0
   57.9340   29.5300   45.2620 C   0  0  0  0  0  0  0  0  0  0  0  0
   58.7100   28.3250   44.8050 C   0  0  0  0  0  0  0  0  0  0  0  0
   58.1960   27.1130   45.5510 C   0  0  0  0  0  0  0  0  0  0  0  0
   56.7440   27.0730   45.3590 N   0  0  0  0  0  0  0  0  0  0  0  0
   55.8930   26.1900   46.0420 C   0  0  0  0  0  0  0  0  0  0  0  0
   54.5020   26.2550   45.8590 O   0  0  0  0  0  0  0  0  0  0  0  0
   56.3910   25.3070   46.8450 N   0  0  0  0  0  0  0  0  0  0  0  0
   55.5160   24.3660   47.3480 O   0  0  0  0  0  0  0  0  0  0  0  0
   58.8730   30.6160   45.7820 C   0  0  0  0  0  0  0  0  0  0  0  0
   57.9970   31.7490   46.2720 C   0  0  0  0  0  0  0  0  0  0  0  0
   59.2684   34.4719   46.8762 H   0  0  0  0  0  0  0  0  0  0  0  0
   60.5777   35.0546   45.7932 H   0  0  0  0  0  0  0  0  0  0  0  0
   58.9800   35.8756   45.7932 H   0  0  0  0  0  0  0  0  0  0  0  0
   59.1981   34.4311   43.8245 H   0  0  0  0  0  0  0  0  0  0  0  0
   59.5567   33.0200   44.8949 H   0  0  0  0  0  0  0  0  0  0  0  0
   57.1452   34.3072   45.7767 H   0  0  0  0  0  0  0  0  0  0  0  0
   57.0717   33.9405   43.9804 H   0  0  0  0  0  0  0  0  0  0  0  0
   56.1171   31.8662   43.5512 H   0  0  0  0  0  0  0  0  0  0  0  0
   57.9524   31.7339   43.4398 H   0  0  0  0  0  0  0  0  0  0  0  0
   55.9649   29.8081   44.5663 H   0  0  0  0  0  0  0  0  0  0  0  0
   57.2718   29.6089   43.2887 H   0  0  0  0  0  0  0  0  0  0  0  0
   57.2995   29.1831   46.0909 H   0  0  0  0  0  0  0  0  0  0  0  0
   58.5704   28.1819   43.7233 H   0  0  0  0  0  0  0  0  0  0  0  0
   59.7817   28.4669   45.0085 H   0  0  0  0  0  0  0  0  0  0  0  0
   58.6553   26.1986   45.1474 H   0  0  0  0  0  0  0  0  0  0  0  0
   58.4481   27.1751   46.6199 H   0  0  0  0  0  0  0  0  0  0  0  0
   56.2740   27.7350   44.6690 H   0  0  0  0  0  0  0  0  0  0  0  0
   53.8890   25.6220   46.3720 H   0  0  0  0  0  0  0  0  0  0  0  0
   54.5380   24.4870   47.1030 H   0  0  0  0  0  0  0  0  0  0  0  0
   59.4846   30.2248   46.6084 H   0  0  0  0  0  0  0  0  0  0  0  0
   59.5584   30.9582   44.9926 H   0  0  0  0  0  0  0  0  0  0  0  0
   57.3214   31.3625   47.0493 H   0  0  0  0  0  0  0  0  0  0  0  0
   58.6561   32.5364   46.6664 H   0  0  0  0  0  0  0  0  0  0  0  0
  1  2  1  0
  2  3  1  0
  3  4  1  0
  4  5  1  0
  5  6  1  0
  6  7  1  0
  7  8  1  0
  8  9  1  0
  9 10  1  0
 10 11  1  0
 11 12  1  0
 11 13  2  0
 13 14  1  0
  7 15  1  0
 15 16  1  0
 16  4  1  0
  1 17  1  0
  1 18  1  0
  1 19  1  0
  2 20  1  0
  2 21  1  0
  3 22  1  0
  3 23  1  0
  5 24  1  0
  5 25  1  0
  6 26  1  0
  6 27  1  0
  7 28  1  0
  8 29  1  0
  8 30  1  0
  9 31  1  0
  9 32  1  0
 10 33  1  0
 12 34  1  0
 14 35  1  0
 15 36  1  0
 15 37  1  0
 16 38  1  0
 16 39  1  0
M  END
>  <smiles>  (27) 
CCCN1CCC(CCNC(O)=NO)CC1

>  <score_type>  (27) 
oracle

>  <origin>  (27) 
adg

>  <m_score__min__energy>  (27) 
-7.9100000000000001

>  <m_primary>  (27) 
energy

$$$$
27:0
     RDKit          3D

 51 54  0  0  0  0  0  0  0  0999 V2000
   56.9920   30.8510   43.3780 C   0  0  0  0  0  0  0  0  0  0  0  0
   56.5710   31.5060   44.5700 O   0  0  0  0  0  0  0  0  0  0  0  0
   57.4390   31.9690   45.5710 C   0  0  0  0  0  0  0  0  0  0  0  0
   57.5890   33.3400   45.8550 C   0  0  0  0  0  0  0  0  0  0  0  0
   58.4510   33.7630   46.8690 C   0  0  0  0  0  0  0  0  0  0  0  0
   59.1770   32.8270   47.6190 C   0  0  0  0  0  0  0  0  0  0  0  0
   60.0840   33.2930   48.6930 C   0  0  0  0  0  0  0  0  0  0  0  0
   61.2020   34.0100   48.4420 N   0  0  0  0  0  0  0  0  0  0  0  0
   61.7480   34.1520   49.6700 C   0  0  0  0  0  0  0  0  0  0  0  0
   61.0040   33.5550   50.6160 N   0  0  0  0  0  0  0  0  0  0  0  0
   59.9570   33.0240   50.0140 N   0  0  0  0  0  0  0  0  0  0  0  0
   58.8710   32.3850   50.7080 C   0  0  0  0  0  0  0  0  0  0  0  0
   58.1510   33.0610   51.7030 C   0  0  0  0  0  0  0  0  0  0  0  0
   57.0820   32.4340   52.3420 C   0  0  0  0  0  0  0  0  0  0  0  0
   56.7380   31.1200   51.9850 C   0  0  0  0  0  0  0  0  0  0  0  0
   55.6430   30.4380   52.6250 N   0  0  0  0  0  0  0  0  0  0  0  0
   54.3180   30.4600   51.9860 C   0  0  0  0  0  0  0  0  0  0  0  0
   53.3200   29.5560   52.7240 C   0  0  0  0  0  0  0  0  0  0  0  0
   53.9770   28.2220   53.0910 C   0  0  0  0  0  0  0  0  0  0  0  0
   55.2430   28.3980   53.9610 C   0  0  0  0  0  0  0  0  0  0  0  0
   55.7920   29.8340   53.9580 C   0  0  0  0  0  0  0  0  0  0  0  0
   57.4800   30.4690   51.0460 N   0  0  0  0  0  0  0  0  0  0  0  0
   58.5250   31.0600   50.4120 C   0  0  0  0  0  0  0  0  0  0  0  0
   59.0590   31.4630   47.3100 C   0  0  0  0  0  0  0  0  0  0  0  0
   58.1750   31.0260   46.3050 C   0  0  0  0  0  0  0  0  0  0  0  0
   58.0000   29.6650   46.0090 O   0  0  0  0  0  0  0  0  0  0  0  0
   58.9880   28.8400   45.4000 C   0  0  0  0  0  0  0  0  0  0  0  0
   57.5699   29.9519   43.6382 H   0  0  0  0  0  0  0  0  0  0  0  0
   56.1102   30.5619   42.7874 H   0  0  0  0  0  0  0  0  0  0  0  0
   57.6212   31.5331   42.7874 H   0  0  0  0  0  0  0  0  0  0  0  0
   57.0231   34.0831   45.2740 H   0  0  0  0  0  0  0  0  0  0  0  0
   58.5610   34.8368   47.0805 H   0  0  0  0  0  0  0  0  0  0  0  0
   62.6862   34.6902   49.8703 H   0  0  0  0  0  0  0  0  0  0  0  0
   61.1890   33.5450   51.6450 H   0  0  0  0  0  0  0  0  0  0  0  0
   58.4300   34.0883   51.9802 H   0  0  0  0  0  0  0  0  0  0  0  0
   56.5126   32.9643   53.1195 H   0  0  0  0  0  0  0  0  0  0  0  0
   53.9364   31.4917   51.9907 H   0  0  0  0  0  0  0  0  0  0  0  0
   54.4257   30.0860   50.9572 H   0  0  0  0  0  0  0  0  0  0  0  0
   52.9855   30.0600   53.6427 H   0  0  0  0  0  0  0  0  0  0  0  0
   52.4610   29.3610   52.0652 H   0  0  0  0  0  0  0  0  0  0  0  0
   53.2495   27.6132   53.6479 H   0  0  0  0  0  0  0  0  0  0  0  0
   54.2838   27.7346   52.1538 H   0  0  0  0  0  0  0  0  0  0  0  0
   54.9955   28.1217   54.9965 H   0  0  0  0  0  0  0  0  0  0  0  0
   56.0232   27.7515   53.5329 H   0  0  0  0  0  0  0  0  0  0  0  0
   55.2367   30.4357   54.6925 H   0  0  0  0  0  0  0  0  0  0  0  0
   56.8600   29.8079   54.2202 H   0  0  0  0  0  0  0  0  0  0  0  0
   59.1018   30.4968   49.6636 H   0  0  0  0  0  0  0  0  0  0  0  0
   59.6642   30.7268   47.8594 H   0  0  0  0  0  0  0  0  0  0  0  0
   59.5829   28.3433   46.1806 H   0  0  0  0  0  0  0  0  0  0  0  0
   58.4965   28.0803   44.7745 H   0  0  0  0  0  0  0  0  0  0  0  0
   59.6478   29.4591   44.7745 H   0  0  0  0  0  0  0  0  0  0  0  0
  1  2  1  0
  2  3  1  0
  3  4  2  0
  4  5  1  0
  5  6  2  0
  6  7  1  0
  7  8  2  0
  8  9  1  0
  9 10  2  0
 10 11  1  0
 11 12  1  0
 12 13  2  0
 13 14  1  0
 14 15  2  0
 15 16  1  0
 16 17  1  0
 17 18  1  0
 18 19  1  0
 19 20  1  0
 20 21  1  0
 15 22  1  0
 22 23  2  0
  6 24  1  0
 24 25  2  0
 25 26  1  0
 26 27  1  0
 25  3  1  0
 11  7  1  0
 23 12  1  0
 21 16  1  0
  1 28  1  0
  1 29  1  0
  1 30  1  0
  4 31  1  0
  5 32  1  0
  9 33  1  0
 10 34  1  0
 13 35  1  0
 14 36  1  0
 17 37  1  0
 17 38  1  0
 18 39  1  0
 18 40  1  0
 19 41  1  0
 19 42  1  0
 20 43  1  0
 20 44  1  0
 21 45  1  0
 21 46  1  0
 23 47  1  0
 24 48  1  0
 27 49  1  0
 27 50  1  0
 27 51  1  0
M  CHG  1  10   1
M  END
>  <UniqueID>  (28) 
24

>  <SMILES>  (28) 
COc1ccc(-c2nc[nH+]n2-c2ccc(N3CCCCC3)nc2)cc1OC

>  <Energy>  (28) 
99.70825670866633

>  <Genealogy>  (28) 
COc1ccc(-c2nc[nH+]n2-c2ccc(N3CCCCC3)nc2)cc1OC (protonated)
COc1ccc(-c2nc[nH+]n2-c2ccc(N3CCCCC3)nc2)cc1OC (3D coordinates assigned)
COc1ccc(-c2nc[nH+]n2-c2ccc(N3CCCCC3)nc2)cc1OC (nonaromatic ring conformer: 99.70825670866633 kcal/mol)

>  <smiles>  (28) 
COc1ccc(-c2ncnn2-c2ccc(N3CCCCC3)nc2)cc1OC

>  <score_type>  (28) 
oracle

>  <origin>  (28) 
adg

>  <m_score__min__energy>  (28) 
-5.8300000000000001

>  <m_primary>  (28) 
energy

$$$$
28:0
     RDKit          3D

 44 47  0  0  0  0  0  0  0  0999 V2000
   59.8360   36.0900   45.9190 C   0  0  0  0  0  0  0  0  0  0  0  0
   59.4600   34.6390   45.8780 C   0  0  0  0  0  0  0  0  0  0  0  0
   58.5200   34.1790   44.9450 C   0  0  0  0  0  0  0  0  0  0  0  0
   58.1400   32.8340   44.9300 C   0  0  0  0  0  0  0  0  0  0  0  0
   58.6900   31.9240   45.8510 C   0  0  0  0  0  0  0  0  0  0  0  0
   58.2690   30.4990   45.8240 C   0  0  0  0  0  0  0  0  0  0  0  0
   57.3480   30.0180   44.8790 C   0  0  0  0  0  0  0  0  0  0  0  0
   56.9870   28.6710   44.8930 C   0  0  0  0  0  0  0  0  0  0  0  0
   57.5400   27.8010   45.8390 C   0  0  0  0  0  0  0  0  0  0  0  0
   57.1680   26.4160   45.8290 N   0  0  0  0  0  0  0  0  0  0  0  0
   55.9130   25.9210   45.8980 C   0  0  0  0  0  0  0  0  0  0  0  0
   54.7700   26.7000   46.0440 O   0  0  0  0  0  0  0  0  0  0  0  0
   55.9400   24.5420   45.8330 C   0  0  0  0  0  0  0  0  0  0  0  0
   57.2590   24.1820   45.7420 C   0  0  0  0  0  0  0  0  0  0  0  0
   57.9960   25.3510   45.7290 C   0  0  0  0  0  0  0  0  0  0  0  0
   59.3800   25.4460   45.6140 O   0  0  0  0  0  0  0  0  0  0  0  0
   57.6780   22.7770   45.7280 C   0  0  0  0  0  0  0  0  0  0  0  0
   56.7320   21.8280   45.6700 C   0  0  0  0  0  0  0  0  0  0  0  0
   55.2670   22.1700   45.4380 C   0  0  0  0  0  0  0  0  0  0  0  0
   54.8450   23.5390   46.0270 C   0  0  0  0  0  0  0  0  0  0  0  0
   58.4310   28.3220   46.8000 C   0  0  0  0  0  0  0  0  0  0  0  0
   59.0270   27.4620   47.8750 C   0  0  0  0  0  0  0  0  0  0  0  0
   58.7710   29.6390   46.7540 N   0  0  0  0  0  0  0  0  0  0  0  0
   59.6130   32.3980   46.8040 C   0  0  0  0  0  0  0  0  0  0  0  0
   59.9900   33.7450   46.8170 C   0  0  0  0  0  0  0  0  0  0  0  0
   59.9208   36.4174   46.9657 H   0  0  0  0  0  0  0  0  0  0  0  0
   60.8009   36.2332   45.4107 H   0  0  0  0  0  0  0  0  0  0  0  0
   59.0621   36.6838   45.4107 H   0  0  0  0  0  0  0  0  0  0  0  0
   58.0793   34.8802   44.2211 H   0  0  0  0  0  0  0  0  0  0  0  0
   57.4041   32.4839   44.1912 H   0  0  0  0  0  0  0  0  0  0  0  0
   56.9141   30.6995   44.1325 H   0  0  0  0  0  0  0  0  0  0  0  0
   56.2638   28.2906   44.1566 H   0  0  0  0  0  0  0  0  0  0  0  0
   59.8320   26.3300   45.4140 H   0  0  0  0  0  0  0  0  0  0  0  0
   58.7438   22.5074   45.7642 H   0  0  0  0  0  0  0  0  0  0  0  0
   57.0226   20.7743   45.7934 H   0  0  0  0  0  0  0  0  0  0  0  0
   55.0821   22.1868   44.3538 H   0  0  0  0  0  0  0  0  0  0  0  0
   54.6725   21.4017   45.9540 H   0  0  0  0  0  0  0  0  0  0  0  0
   53.9357   23.8898   45.5170 H   0  0  0  0  0  0  0  0  0  0  0  0
   54.6493   23.4231   47.1032 H   0  0  0  0  0  0  0  0  0  0  0  0
   58.7494   27.8626   48.8611 H   0  0  0  0  0  0  0  0  0  0  0  0
   58.6461   26.4348   47.7761 H   0  0  0  0  0  0  0  0  0  0  0  0
   60.1225   27.4580   47.7761 H   0  0  0  0  0  0  0  0  0  0  0  0
   60.0401   31.7041   47.5429 H   0  0  0  0  0  0  0  0  0  0  0  0
   60.7073   34.1045   47.5695 H   0  0  0  0  0  0  0  0  0  0  0  0
  1  2  1  0
  2  3  2  0
  3  4  1  0
  4  5  2  0
  5  6  1  0
  6  7  2  0
  7  8  1  0
  8  9  2  0
  9 10  1  0
 10 11  1  0
 11 12  1  0
 11 13  2  0
 13 14  1  0
 14 15  2  0
 15 16  1  0
 14 17  1  0
 17 18  2  0
 18 19  1  0
 19 20  1  0
  9 21  1  0
 21 22  1  0
 21 23  2  0
  5 24  1  0
 24 25  2  0
 25  2  1  0
 23  6  1  0
 15 10  1  0
 20 13  1  0
  1 26  1  0
  1 27  1  0
  1 28  1  0
  3 29  1  0
  4 30  1  0
  7 31  1  0
  8 32  1  0
 16 33  1  0
 17 34  1  0
 18 35  1  0
 19 36  1  0
 19 37  1  0
 20 38  1  0
 20 39  1  0
 22 40  1  0
 22 41  1  0
 22 42  1  0
 24 43  1  0
 25 44  1  0
M  CHG  1  12  -1
M  END
>  <UniqueID>  (29) 
25

>  <SMILES>  (29) 
Cc1ccc(-c2ccc(-n3c([O-])c4c(c3O)C=CCC4)c(C)n2)cc1

>  <Energy>  (29) 
90.78377553677254

>  <Genealogy>  (29) 
Cc1ccc(-c2ccc(-n3c([O-])c4c(c3O)C=CCC4)c(C)n2)cc1 (protonated)
Cc1ccc(-c2ccc(-n3c([O-])c4c(c3O)C=CCC4)c(C)n2)cc1 (3D coordinates assigned)
Cc1ccc(-c2ccc(-n3c([O-])c4c(c3O)C=CCC4)c(C)n2)cc1 (nonaromatic ring conformer: 90.78377553677254 kcal/mol)

>  <smiles>  (29) 
Cc1ccc(-c2ccc(-n3c(O)c4c(c3O)CCC=C4)c(C)n2)cc1

>  <score_type>  (29) 
oracle

>  <origin>  (29) 
adg

>  <m_score__min__energy>  (29) 
-11.5

>  <m_primary>  (29) 
energy

$$$$
29:0
     RDKit          3D

 79 82  0  0  1  0  0  0  0  0999 V2000
   59.5960   28.4610   46.4750 C   0  0  0  0  0  0  0  0  0  0  0  0
   58.1820   28.9310   46.4470 C   0  0  0  0  0  0  0  0  0  0  0  0
   57.3940   28.1550   45.5130 N   0  0  0  0  0  0  0  0  0  0  0  0
   57.5440   26.7380   45.7180 C   0  0  0  0  0  0  0  0  0  0  0  0
   56.3110   25.9940   46.1020 C   0  0  0  0  0  0  0  0  0  0  0  0
   55.1250   26.6660   45.9820 O   0  0  0  0  0  0  0  0  0  0  0  0
   57.6290   28.5480   44.1430 C   0  0  0  0  0  0  0  0  0  0  0  0
   57.8650   30.0300   44.0050 C   0  0  0  0  0  0  0  0  0  0  0  0
   56.5720   30.8230   44.1740 C   0  0  0  0  0  0  0  0  0  0  0  0
   56.6620   31.8360   45.1950 N   0  0  0  0  0  0  0  0  0  0  0  0
   57.6810   32.6020   45.3020 C   0  0  0  0  0  0  0  0  0  0  0  0
   57.9500   33.5150   44.3530 N   0  0  0  0  0  0  0  0  0  0  0  0
   59.0380   34.3140   44.4920 C   0  0  0  0  0  0  0  0  0  0  0  0
   59.8660   34.2350   45.5460 N   0  0  0  0  0  0  0  0  0  0  0  0
   59.6540   33.3650   46.5020 C   0  0  0  0  0  0  0  0  0  0  0  0
   58.5360   32.5280   46.3790 C   0  0  0  0  0  0  0  0  0  0  0  0
   58.5510   31.7570   47.4570 N   0  0  0  0  0  0  0  0  0  0  0  0
   59.5990   32.0600   48.2360 C   0  0  0  0  0  0  0  0  0  0  0  0
   60.2950   33.0780   47.6290 N   0  0  0  0  0  0  0  0  0  0  0  0
   61.4770   33.6110   48.2430 C   0  0  1  0  0  0  0  0  0  0  0  0
   61.7490   32.6850   49.2830 O   0  0  0  0  0  0  0  0  0  0  0  0
   62.8270   33.0950   50.0430 C   0  0  0  0  0  0  0  0  0  0  0  0
   64.1440   33.0270   49.2460 C   0  0  1  0  0  0  0  0  0  0  0  0
   64.9700   31.9880   49.8200 N   0  0  0  0  0  0  0  0  0  0  0  0
   66.2680   32.3260   50.2980 C   0  0  0  0  0  0  0  0  0  0  0  0
   66.5970   33.5300   50.1810 O   0  0  0  0  0  0  0  0  0  0  0  0
   67.0770   31.2720   50.8660 C   0  0  0  0  0  0  0  0  0  0  0  0
   66.6480   30.0950   51.2580 C   0  0  0  0  0  0  0  0  0  0  0  0
   67.4670   28.9110   51.5290 C   0  0  0  0  0  0  0  0  0  0  0  0
   67.1480   27.8950   50.5240 N   0  0  0  0  0  0  0  0  0  0  0  0
   66.7350   26.7010   51.1990 C   0  0  0  0  0  0  0  0  0  0  0  0
   67.9180   25.9860   51.7740 C   0  0  0  0  0  0  0  0  0  0  0  0
   68.7670   25.6490   50.7290 O   0  0  0  0  0  0  0  0  0  0  0  0
   69.2900   26.7620   50.0960 C   0  0  0  0  0  0  0  0  0  0  0  0
   68.2570   27.7510   49.6380 C   0  0  0  0  0  0  0  0  0  0  0  0
   63.7520   32.7830   47.8080 C   0  0  1  0  0  0  0  0  0  0  0  0
   63.3340   31.4960   47.6230 O   0  0  0  0  0  0  0  0  0  0  0  0
   62.6790   33.8290   47.4750 C   0  0  1  0  0  0  0  0  0  0  0  0
   62.5820   34.0800   46.1170 O   0  0  0  0  0  0  0  0  0  0  0  0
   59.9254   28.3515   47.5188 H   0  0  0  0  0  0  0  0  0  0  0  0
   59.6698   27.4900   45.9634 H   0  0  0  0  0  0  0  0  0  0  0  0
   60.2364   29.1946   45.9634 H   0  0  0  0  0  0  0  0  0  0  0  0
   57.7495   28.8294   47.4533 H   0  0  0  0  0  0  0  0  0  0  0  0
   58.1695   29.9829   46.1256 H   0  0  0  0  0  0  0  0  0  0  0  0
   57.9212   26.3016   44.7814 H   0  0  0  0  0  0  0  0  0  0  0  0
   58.2279   26.6353   46.5734 H   0  0  0  0  0  0  0  0  0  0  0  0
   56.2517   25.0973   45.4676 H   0  0  0  0  0  0  0  0  0  0  0  0
   56.4199   25.7898   47.1774 H   0  0  0  0  0  0  0  0  0  0  0  0
   55.1530   27.5350   45.5350 H   0  0  0  0  0  0  0  0  0  0  0  0
   58.5139   28.0126   43.7683 H   0  0  0  0  0  0  0  0  0  0  0  0
   56.7301   28.2951   43.5617 H   0  0  0  0  0  0  0  0  0  0  0  0
   58.5833   30.3502   44.7741 H   0  0  0  0  0  0  0  0  0  0  0  0
   58.2577   30.2233   42.9959 H   0  0  0  0  0  0  0  0  0  0  0  0
   56.3319   31.3099   43.2173 H   0  0  0  0  0  0  0  0  0  0  0  0
   55.7892   30.1142   44.4819 H   0  0  0  0  0  0  0  0  0  0  0  0
   57.3220   33.5960   43.5260 H   0  0  0  0  0  0  0  0  0  0  0  0
   59.2503   35.0569   43.7090 H   0  0  0  0  0  0  0  0  0  0  0  0
   59.8563   31.5793   49.1914 H   0  0  0  0  0  0  0  0  0  0  0  0
   61.2380   34.6501   48.5134 H   0  0  0  0  0  0  0  0  0  0  0  0
   62.6601   34.1325   50.3682 H   0  0  0  0  0  0  0  0  0  0  0  0
   62.9138   32.4205   50.9076 H   0  0  0  0  0  0  0  0  0  0  0  0
   64.7428   33.9488   49.2879 H   0  0  0  0  0  0  0  0  0  0  0  0
   64.6280   31.0180   49.8830 H   0  0  0  0  0  0  0  0  0  0  0  0
   68.1521   31.4748   50.9805 H   0  0  0  0  0  0  0  0  0  0  0  0
   65.5623   29.9866   51.3973 H   0  0  0  0  0  0  0  0  0  0  0  0
   68.5334   29.1737   51.4676 H   0  0  0  0  0  0  0  0  0  0  0  0
   67.2575   28.5266   52.5381 H   0  0  0  0  0  0  0  0  0  0  0  0
   66.0425   26.9660   52.0115 H   0  0  0  0  0  0  0  0  0  0  0  0
   66.2367   26.0386   50.4759 H   0  0  0  0  0  0  0  0  0  0  0  0
   68.4423   26.6431   52.4835 H   0  0  0  0  0  0  0  0  0  0  0  0
   67.5938   25.0812   52.3090 H   0  0  0  0  0  0  0  0  0  0  0  0
   69.9681   27.2708   50.7969 H   0  0  0  0  0  0  0  0  0  0  0  0
   69.8039   26.4003   49.1932 H   0  0  0  0  0  0  0  0  0  0  0  0
   68.7428   28.7322   49.5319 H   0  0  0  0  0  0  0  0  0  0  0  0
   67.8539   27.3684   48.6887 H   0  0  0  0  0  0  0  0  0  0  0  0
   64.6045   32.8966   47.1222 H   0  0  0  0  0  0  0  0  0  0  0  0
   62.3620   31.3760   47.6920 H   0  0  0  0  0  0  0  0  0  0  0  0
   62.9905   34.8229   47.8287 H   0  0  0  0  0  0  0  0  0  0  0  0
   61.8820   33.5080   45.7740 H   0  0  0  0  0  0  0  0  0  0  0  0
  1  2  1  0
  2  3  1  0
  3  4  1  0
  4  5  1  0
  5  6  1  0
  3  7  1  0
  7  8  1  0
  8  9  1  0
  9 10  1  0
 10 11  2  0
 11 12  1  0
 12 13  1  0
 13 14  2  0
 14 15  1  0
 15 16  2  0
 16 17  1  0
 17 18  2  0
 18 19  1  0
 19 20  1  0
 20 21  1  0
 21 22  1  0
 22 23  1  0
 23 24  1  0
 24 25  1  0
 25 26  2  0
 25 27  1  0
 27 28  2  0
 28 29  1  0
 29 30  1  0
 30 31  1  0
 31 32  1  0
 32 33  1  0
 33 34  1  0
 34 35  1  0
 23 36  1  0
 36 37  1  0
 36 38  1  0
 38 39  1  0
 16 11  1  0
 38 20  1  0
 19 15  1  0
 35 30  1  0
  1 40  1  0
  1 41  1  0
  1 42  1  0
  2 43  1  0
  2 44  1  0
  4 45  1  0
  4 46  1  0
  5 47  1  0
  5 48  1  0
  6 49  1  0
  7 50  1  0
  7 51  1  0
  8 52  1  0
  8 53  1  0
  9 54  1  0
  9 55  1  0
 12 56  1  0
 13 57  1  0
 18 58  1  0
 20 59  1  1
 22 60  1  0
 22 61  1  0
 23 62  1  6
 24 63  1  0
 27 64  1  0
 28 65  1  0
 29 66  1  0
 29 67  1  0
 31 68  1  0
 31 69  1  0
 32 70  1  0
 32 71  1  0
 34 72  1  0
 34 73  1  0
 35 74  1  0
 35 75  1  0
 36 76  1  6
 37 77  1  0
 38 78  1  1
 39 79  1  0
M  END
>  <smiles>  (30) 
CCN(CCO)CCCN=c1[nH]cnc2c1ncn2C1OCC(NC(=O)C=CCN2CCOCC2)C(O)C1O

>  <score_type>  (30) 
oracle

>  <origin>  (30) 
adg

>  <m_score__min__energy>  (30) 
-8.8399999999999999

>  <m_primary>  (30) 
energy

$$$$
30:0
     RDKit          3D

 36 38  0  0  0  0  0  0  0  0999 V2000
   56.8250   30.4900   43.6770 C   0  0  0  0  0  0  0  0  0  0  0  0
   56.6700   31.2620   44.8630 O   0  0  0  0  0  0  0  0  0  0  0  0
   57.5340   32.2960   45.2520 C   0  0  0  0  0  0  0  0  0  0  0  0
   57.4100   33.5410   44.6290 C   0  0  0  0  0  0  0  0  0  0  0  0
   58.2310   34.5670   44.9770 N   0  0  0  0  0  0  0  0  0  0  0  0
   59.1910   34.4270   45.9280 C   0  0  0  0  0  0  0  0  0  0  0  0
   59.3610   33.1990   46.5870 C   0  0  0  0  0  0  0  0  0  0  0  0
   60.3750   33.0410   47.6010 N   0  0  0  0  0  0  0  0  0  0  0  0
   60.6770   31.7050   48.1270 C   0  0  0  0  0  0  0  0  0  0  0  0
   61.6240   31.7890   49.3330 C   0  0  0  0  0  0  0  0  0  0  0  0
   62.8030   32.6400   49.0560 N   0  0  0  0  0  0  0  0  0  0  0  0
   63.7690   31.9900   48.1530 C   0  0  0  0  0  0  0  0  0  0  0  0
   63.7420   32.7310   46.8320 C   0  0  0  0  0  0  0  0  0  0  0  0
   63.3000   34.1280   47.1910 C   0  0  0  0  0  0  0  0  0  0  0  0
   62.4890   33.9740   48.4840 C   0  0  1  0  0  0  0  0  0  0  0  0
   60.9800   34.2130   48.2420 C   0  0  0  0  0  0  0  0  0  0  0  0
   58.5200   32.1310   46.2400 C   0  0  0  0  0  0  0  0  0  0  0  0
   57.0350   29.4441   43.9452 H   0  0  0  0  0  0  0  0  0  0  0  0
   55.8993   30.5379   43.0847 H   0  0  0  0  0  0  0  0  0  0  0  0
   57.6605   30.8915   43.0847 H   0  0  0  0  0  0  0  0  0  0  0  0
   56.6445   33.6913   43.8535 H   0  0  0  0  0  0  0  0  0  0  0  0
   59.8379   35.2794   46.1828 H   0  0  0  0  0  0  0  0  0  0  0  0
   59.7397   31.2209   48.4387 H   0  0  0  0  0  0  0  0  0  0  0  0
   61.1685   31.1199   47.3358 H   0  0  0  0  0  0  0  0  0  0  0  0
   61.0743   32.2114   50.1871 H   0  0  0  0  0  0  0  0  0  0  0  0
   61.9834   30.7730   49.5533 H   0  0  0  0  0  0  0  0  0  0  0  0
   64.7782   32.0380   48.5880 H   0  0  0  0  0  0  0  0  0  0  0  0
   63.5041   30.9327   48.0050 H   0  0  0  0  0  0  0  0  0  0  0  0
   64.7419   32.7453   46.3738 H   0  0  0  0  0  0  0  0  0  0  0  0
   63.0726   32.2559   46.0997 H   0  0  0  0  0  0  0  0  0  0  0  0
   64.1720   34.7775   47.3577 H   0  0  0  0  0  0  0  0  0  0  0  0
   62.7084   34.5910   46.3875 H   0  0  0  0  0  0  0  0  0  0  0  0
   62.7704   34.7432   49.2182 H   0  0  0  0  0  0  0  0  0  0  0  0
   60.4826   34.3966   49.2058 H   0  0  0  0  0  0  0  0  0  0  0  0
   60.8573   35.0846   47.5823 H   0  0  0  0  0  0  0  0  0  0  0  0
   58.6328   31.1596   46.7437 H   0  0  0  0  0  0  0  0  0  0  0  0
  1  2  1  0
  2  3  1  0
  3  4  2  0
  4  5  1  0
  5  6  2  0
  6  7  1  0
  7  8  1  0
  8  9  1  0
  9 10  1  0
 10 11  1  0
 11 12  1  0
 12 13  1  0
 13 14  1  0
 14 15  1  0
 15 16  1  0
  7 17  2  0
 17  3  1  0
 16  8  1  0
 15 11  1  0
  1 18  1  0
  1 19  1  0
  1 20  1  0
  4 21  1  0
  6 22  1  0
  9 23  1  0
  9 24  1  0
 10 25  1  0
 10 26  1  0
 12 27  1  0
 12 28  1  0
 13 29  1  0
 13 30  1  0
 14 31  1  0
 14 32  1  0
 15 33  1  1
 16 34  1  0
 16 35  1  0
 17 36  1  0
M  END
>  <UniqueID>  (31) 
26

>  <SMILES>  (31) 
COc1cncc(N2CCN3CCC[C@H]3C2)c1

>  <Energy>  (31) 
47.455804675074816

>  <Genealogy>  (31) 
COc1cncc(N2CCN3CCC[C@H]3C2)c1 (chirality)
COc1cncc(N2CCN3CCC[C@H]3C2)c1 (3D coordinates assigned)
COc1cncc(N2CCN3CCC[C@H]3C2)c1 (nonaromatic ring conformer: 47.455804675074816 kcal/mol)

>  <smiles>  (31) 
COc1cncc(N2CCN3CCCC3C2)c1

>  <score_type>  (31) 
oracle

>  <origin>  (31) 
adg

>  <m_score__min__energy>  (31) 
-6.0099999999999998

>  <m_primary>  (31) 
energy

$$$$
31:0
     RDKit          3D

 57 60  0  0  0  0  0  0  0  0999 V2000
   58.9020   30.9020   48.4730 C   0  0  0  0  0  0  0  0  0  0  0  0
   58.8220   32.4120   48.6920 C   0  0  0  0  0  0  0  0  0  0  0  0
   58.7910   33.1540   47.3750 C   0  0  0  0  0  0  0  0  0  0  0  0
   57.5470   33.5280   46.8380 C   0  0  0  0  0  0  0  0  0  0  0  0
   57.4750   34.2190   45.6250 C   0  0  0  0  0  0  0  0  0  0  0  0
   56.2680   34.5730   45.1180 F   0  0  0  0  0  0  0  0  0  0  0  0
   58.6430   34.5460   44.9360 C   0  0  0  0  0  0  0  0  0  0  0  0
   59.8870   34.1860   45.4570 C   0  0  0  0  0  0  0  0  0  0  0  0
   59.9740   33.4960   46.6750 C   0  0  0  0  0  0  0  0  0  0  0  0
   61.2710   33.1450   47.1800 N   0  0  0  0  0  0  0  0  0  0  0  0
   62.0600   34.1230   47.9170 C   0  0  0  0  0  0  0  0  0  0  0  0
   63.5500   33.7870   47.7840 C   0  0  0  0  0  0  0  0  0  0  0  0
   63.8930   32.4140   48.2570 N   0  0  1  0  0  0  0  0  0  0  0  0
   64.4660   32.3930   49.6320 C   0  0  0  0  0  0  0  0  0  0  0  0
   63.5190   31.8830   50.7040 C   0  0  0  0  0  0  0  0  0  0  0  0
   63.9180   30.8560   51.5750 C   0  0  0  0  0  0  0  0  0  0  0  0
   63.0220   30.3700   52.5270 C   0  0  0  0  0  0  0  0  0  0  0  0
   61.7690   30.8890   52.6100 N   0  0  0  0  0  0  0  0  0  0  0  0
   61.3500   31.9030   51.8050 C   0  0  0  0  0  0  0  0  0  0  0  0
   59.9910   32.3770   51.9070 N   0  0  0  0  0  0  0  0  0  0  0  0
   58.8630   31.4420   51.9970 C   0  0  0  0  0  0  0  0  0  0  0  0
   57.7390   32.0570   52.8360 C   0  0  0  0  0  0  0  0  0  0  0  0
   57.4070   33.3490   52.3650 O   0  0  0  0  0  0  0  0  0  0  0  0
   58.5040   34.2210   52.5540 C   0  0  0  0  0  0  0  0  0  0  0  0
   59.6910   33.7960   51.6840 C   0  0  0  0  0  0  0  0  0  0  0  0
   62.2440   32.4470   50.8660 C   0  0  0  0  0  0  0  0  0  0  0  0
   62.8460   31.3670   48.0510 C   0  0  0  0  0  0  0  0  0  0  0  0
   61.7350   31.7920   47.1340 C   0  0  0  0  0  0  0  0  0  0  0  0
   61.1640   30.9420   46.3970 O   0  0  0  0  0  0  0  0  0  0  0  0
   58.9291   30.3912   49.4468 H   0  0  0  0  0  0  0  0  0  0  0  0
   58.0204   30.5663   47.9073 H   0  0  0  0  0  0  0  0  0  0  0  0
   59.8142   30.6614   47.9073 H   0  0  0  0  0  0  0  0  0  0  0  0
   57.9072   32.6448   49.2567 H   0  0  0  0  0  0  0  0  0  0  0  0
   59.7142   32.7309   49.2509 H   0  0  0  0  0  0  0  0  0  0  0  0
   56.6221   33.2747   47.3770 H   0  0  0  0  0  0  0  0  0  0  0  0
   58.5837   35.0883   43.9808 H   0  0  0  0  0  0  0  0  0  0  0  0
   60.8048   34.4451   44.9089 H   0  0  0  0  0  0  0  0  0  0  0  0
   61.8732   35.1270   47.5083 H   0  0  0  0  0  0  0  0  0  0  0  0
   61.7733   34.0985   48.9787 H   0  0  0  0  0  0  0  0  0  0  0  0
   63.8331   33.8715   46.7244 H   0  0  0  0  0  0  0  0  0  0  0  0
   64.1005   34.4961   48.4197 H   0  0  0  0  0  0  0  0  0  0  0  0
   64.6950   32.1220   47.6460 H   0  0  0  0  0  0  0  0  0  0  0  0
   65.3551   31.7453   49.6233 H   0  0  0  0  0  0  0  0  0  0  0  0
   64.6954   33.4374   49.8900 H   0  0  0  0  0  0  0  0  0  0  0  0
   64.9327   30.4368   51.5067 H   0  0  0  0  0  0  0  0  0  0  0  0
   63.3300   29.5657   53.2113 H   0  0  0  0  0  0  0  0  0  0  0  0
   58.4869   31.2265   50.9860 H   0  0  0  0  0  0  0  0  0  0  0  0
   59.2026   30.5112   52.4748 H   0  0  0  0  0  0  0  0  0  0  0  0
   56.8500   31.4120   52.7753 H   0  0  0  0  0  0  0  0  0  0  0  0
   58.0828   32.1401   53.8776 H   0  0  0  0  0  0  0  0  0  0  0  0
   58.2038   35.2433   52.2804 H   0  0  0  0  0  0  0  0  0  0  0  0
   58.8084   34.1819   53.6103 H   0  0  0  0  0  0  0  0  0  0  0  0
   59.4415   33.9539   50.6244 H   0  0  0  0  0  0  0  0  0  0  0  0
   60.5711   34.3988   51.9527 H   0  0  0  0  0  0  0  0  0  0  0  0
   61.9444   33.3139   50.2588 H   0  0  0  0  0  0  0  0  0  0  0  0
   63.3270   30.4752   47.6228 H   0  0  0  0  0  0  0  0  0  0  0  0
   62.3924   31.1702   49.0336 H   0  0  0  0  0  0  0  0  0  0  0  0
  1  2  1  0
  2  3  1  0
  3  4  2  0
  4  5  1  0
  5  6  1  0
  5  7  2  0
  7  8  1  0
  8  9  2  0
  9 10  1  0
 10 11  1  0
 11 12  1  0
 12 13  1  0
 13 14  1  0
 14 15  1  0
 15 16  2  0
 16 17  1  0
 17 18  2  0
 18 19  1  0
 19 20  1  0
 20 21  1  0
 21 22  1  0
 22 23  1  0
 23 24  1  0
 24 25  1  0
 19 26  2  0
 13 27  1  0
 27 28  1  0
 28 29  2  0
  9  3  1  0
 28 10  1  0
 26 15  1  0
 25 20  1  0
  1 30  1  0
  1 31  1  0
  1 32  1  0
  2 33  1  0
  2 34  1  0
  4 35  1  0
  7 36  1  0
  8 37  1  0
 11 38  1  0
 11 39  1  0
 12 40  1  0
 12 41  1  0
 13 42  1  6
 14 43  1  0
 14 44  1  0
 16 45  1  0
 17 46  1  0
 21 47  1  0
 21 48  1  0
 22 49  1  0
 22 50  1  0
 24 51  1  0
 24 52  1  0
 25 53  1  0
 25 54  1  0
 26 55  1  0
 27 56  1  0
 27 57  1  0
M  CHG  1  13   1
M  END
>  <UniqueID>  (32) 
27

>  <SMILES>  (32) 
CCc1cc(F)ccc1N1CC[N@@H+](Cc2ccnc(N3CCOCC3)c2)CC1=O

>  <Energy>  (32) 
79.28028942918586

>  <Genealogy>  (32) 
CCc1cc(F)ccc1N1CC[NH+](Cc2ccnc(N3CCOCC3)c2)CC1=O (protonated)
CCc1cc(F)ccc1N1CC[N@@H+](Cc2ccnc(N3CCOCC3)c2)CC1=O (chirality)
CCc1cc(F)ccc1N1CC[N@@H+](Cc2ccnc(N3CCOCC3)c2)CC1=O (3D coordinates assigned)
CCc1cc(F)ccc1N1CC[N@@H+](Cc2ccnc(N3CCOCC3)c2)CC1=O (nonaromatic ring conformer: 79.28028942918586 kcal/mol)

>  <smiles>  (32) 
CCc1cc(F)ccc1N1CCN(Cc2ccnc(N3CCOCC3)c2)CC1=O

>  <score_type>  (32) 
oracle

>  <origin>  (32) 
adg

>  <m_score__min__energy>  (32) 
-6.6799999999999997

>  <m_primary>  (32) 
energy

$$$$
32:0
     RDKit          3D

 55 56  0  0  0  0  0  0  0  0999 V2000
   61.3260   28.6750   50.6130 C   0  0  0  0  0  0  0  0  0  0  0  0
   60.4070   28.4330   49.4130 C   0  0  0  0  0  0  0  0  0  0  0  0
   59.5870   29.6080   49.0460 N   0  0  0  0  0  0  0  0  0  0  0  0
   59.1750   30.4610   50.1910 C   0  0  0  0  0  0  0  0  0  0  0  0
   58.6270   31.8450   49.8080 C   0  0  0  0  0  0  0  0  0  0  0  0
   58.5640   29.3330   48.0130 C   0  0  0  0  0  0  0  0  0  0  0  0
   59.0490   28.2510   47.0390 C   0  0  0  0  0  0  0  0  0  0  0  0
   58.2260   28.2620   45.7470 C   0  0  0  0  0  0  0  0  0  0  0  0
   57.0300   29.0810   45.9170 N   0  0  0  0  0  0  0  0  0  0  0  0
   56.2720   29.6780   44.8570 C   0  0  0  0  0  0  0  0  0  0  0  0
   55.1560   29.1820   44.5560 O   0  0  0  0  0  0  0  0  0  0  0  0
   56.7840   30.8570   44.0750 C   0  0  0  0  0  0  0  0  0  0  0  0
   56.7700   32.0390   44.8740 O   0  0  0  0  0  0  0  0  0  0  0  0
   57.8520   32.5340   45.6210 C   0  0  0  0  0  0  0  0  0  0  0  0
   57.8050   33.8690   46.0420 C   0  0  0  0  0  0  0  0  0  0  0  0
   58.8540   34.4180   46.7840 C   0  0  0  0  0  0  0  0  0  0  0  0
   59.9660   33.6390   47.1070 C   0  0  0  0  0  0  0  0  0  0  0  0
   60.0210   32.2940   46.7110 C   0  0  0  0  0  0  0  0  0  0  0  0
   58.9700   31.7450   45.9580 C   0  0  0  0  0  0  0  0  0  0  0  0
   61.1820   31.4850   47.1310 C   0  0  0  0  0  0  0  0  0  0  0  0
   61.3280   30.3010   46.7200 O   0  0  0  0  0  0  0  0  0  0  0  0
   62.1600   32.0560   48.1180 C   0  0  0  0  0  0  0  0  0  0  0  0
   62.3140   33.5880   47.9320 C   0  0  0  0  0  0  0  0  0  0  0  0
   63.1200   33.8970   46.6560 C   0  0  0  0  0  0  0  0  0  0  0  0
   63.0420   34.1860   49.1440 C   0  0  0  0  0  0  0  0  0  0  0  0
   61.0250   34.2060   47.8300 O   0  0  0  0  0  0  0  0  0  0  0  0
   60.7599   28.5259   51.5443 H   0  0  0  0  0  0  0  0  0  0  0  0
   62.1680   27.9679   50.5785 H   0  0  0  0  0  0  0  0  0  0  0  0
   61.7105   29.7050   50.5785 H   0  0  0  0  0  0  0  0  0  0  0  0
   61.0296   28.1601   48.5482 H   0  0  0  0  0  0  0  0  0  0  0  0
   59.7103   27.6310   49.6981 H   0  0  0  0  0  0  0  0  0  0  0  0
   58.3922   29.9270   50.7496 H   0  0  0  0  0  0  0  0  0  0  0  0
   60.0856   30.6441   50.7803 H   0  0  0  0  0  0  0  0  0  0  0  0
   58.4011   32.4154   50.7210 H   0  0  0  0  0  0  0  0  0  0  0  0
   59.3789   32.3857   49.2144 H   0  0  0  0  0  0  0  0  0  0  0  0
   57.7088   31.7244   49.2144 H   0  0  0  0  0  0  0  0  0  0  0  0
   57.6407   28.9897   48.5025 H   0  0  0  0  0  0  0  0  0  0  0  0
   58.3770   30.2578   47.4475 H   0  0  0  0  0  0  0  0  0  0  0  0
   60.1052   28.4360   46.7936 H   0  0  0  0  0  0  0  0  0  0  0  0
   58.9298   27.2692   47.5204 H   0  0  0  0  0  0  0  0  0  0  0  0
   58.8366   28.6759   44.9310 H   0  0  0  0  0  0  0  0  0  0  0  0
   57.9239   27.2322   45.5056 H   0  0  0  0  0  0  0  0  0  0  0  0
   57.8149   30.6538   43.7496 H   0  0  0  0  0  0  0  0  0  0  0  0
   56.1312   31.0126   43.2034 H   0  0  0  0  0  0  0  0  0  0  0  0
   56.9344   34.4909   45.7862 H   0  0  0  0  0  0  0  0  0  0  0  0
   58.8033   35.4661   47.1141 H   0  0  0  0  0  0  0  0  0  0  0  0
   59.0197   30.6961   45.6304 H   0  0  0  0  0  0  0  0  0  0  0  0
   61.8010   31.8526   49.1377 H   0  0  0  0  0  0  0  0  0  0  0  0
   63.1396   31.5844   47.9506 H   0  0  0  0  0  0  0  0  0  0  0  0
   64.1139   34.2780   46.9334 H   0  0  0  0  0  0  0  0  0  0  0  0
   63.2323   32.9782   46.0617 H   0  0  0  0  0  0  0  0  0  0  0  0
   62.5893   34.6554   46.0617 H   0  0  0  0  0  0  0  0  0  0  0  0
   62.5832   33.8091   50.0700 H   0  0  0  0  0  0  0  0  0  0  0  0
   64.1023   33.8947   49.1153 H   0  0  0  0  0  0  0  0  0  0  0  0
   62.9622   35.2827   49.1153 H   0  0  0  0  0  0  0  0  0  0  0  0
  1  2  1  0
  2  3  1  0
  3  4  1  0
  4  5  1  0
  3  6  1  0
  6  7  1  0
  7  8  1  0
  8  9  1  0
  9 10  1  0
 10 11  2  0
 10 12  1  0
 12 13  1  0
 13 14  1  0
 14 15  2  0
 15 16  1  0
 16 17  2  0
 17 18  1  0
 18 19  2  0
 18 20  1  0
 20 21  2  0
 20 22  1  0
 22 23  1  0
 23 24  1  0
 23 25  1  0
 23 26  1  0
 19 14  1  0
 26 17  1  0
  1 27  1  0
  1 28  1  0
  1 29  1  0
  2 30  1  0
  2 31  1  0
  4 32  1  0
  4 33  1  0
  5 34  1  0
  5 35  1  0
  5 36  1  0
  6 37  1  0
  6 38  1  0
  7 39  1  0
  7 40  1  0
  8 41  1  0
  8 42  1  0
 12 43  1  0
 12 44  1  0
 15 45  1  0
 16 46  1  0
 19 47  1  0
 22 48  1  0
 22 49  1  0
 24 50  1  0
 24 51  1  0
 24 52  1  0
 25 53  1  0
 25 54  1  0
 25 55  1  0
M  CHG  1   9  -1
M  END
>  <UniqueID>  (33) 
28

>  <SMILES>  (33) 
CCN(CC)CCC[N-]C(=O)COc1ccc2c(c1)C(=O)CC(C)(C)O2

>  <Energy>  (33) 
52.50174271327424

>  <Genealogy>  (33) 
CCN(CC)CCC[N-]C(=O)COc1ccc2c(c1)C(=O)CC(C)(C)O2 (protonated)
CCN(CC)CCC[N-]C(=O)COc1ccc2c(c1)C(=O)CC(C)(C)O2 (3D coordinates assigned)
CCN(CC)CCC[N-]C(=O)COc1ccc2c(c1)C(=O)CC(C)(C)O2 (nonaromatic ring conformer: 52.50174271327424 kcal/mol)

>  <smiles>  (33) 
CCN(CC)CCCNC(=O)COc1ccc2c(c1)C(=O)CC(C)(C)O2

>  <score_type>  (33) 
oracle

>  <origin>  (33) 
adg

>  <m_score__min__energy>  (33) 
-9.1199999999999992

>  <m_primary>  (33) 
energy

$$$$
33:0
     RDKit          3D

 45 46  0  0  0  0  0  0  0  0999 V2000
   61.3390   33.6020   46.7170 C   0  0  0  0  0  0  0  0  0  0  0  0
   60.2670   34.5390   47.2810 C   0  0  0  0  0  0  0  0  0  0  0  0
   58.8700   33.9000   47.4400 C   0  0  2  0  0  0  0  0  0  0  0  0
   58.8440   32.7810   48.4920 C   0  0  0  0  0  0  0  0  0  0  0  0
   58.3190   33.4320   46.1130 C   0  0  0  0  0  0  0  0  0  0  0  0
   57.6740   34.2310   45.3810 O   0  0  0  0  0  0  0  0  0  0  0  0
   58.5270   32.0760   45.6880 N   0  0  0  0  0  0  0  0  0  0  0  0
   57.8690   31.5160   44.5410 C   0  0  0  0  0  0  0  0  0  0  0  0
   58.0150   32.1460   43.2970 C   0  0  0  0  0  0  0  0  0  0  0  0
   57.3930   31.6240   42.1630 C   0  0  0  0  0  0  0  0  0  0  0  0
   56.6420   30.4510   42.2570 C   0  0  0  0  0  0  0  0  0  0  0  0
   56.5180   29.7930   43.4830 C   0  0  0  0  0  0  0  0  0  0  0  0
   57.1200   30.3240   44.6400 C   0  0  0  0  0  0  0  0  0  0  0  0
   57.0970   29.6150   45.8890 N   0  0  0  0  0  0  0  0  0  0  0  0
   58.2110   29.0330   46.5810 C   0  0  0  0  0  0  0  0  0  0  0  0
   58.9480   29.7480   47.3130 O   0  0  0  0  0  0  0  0  0  0  0  0
   58.5270   27.5970   46.3920 C   0  0  0  0  0  0  0  0  0  0  0  0
   59.8520   27.1360   46.4940 C   0  0  0  0  0  0  0  0  0  0  0  0
   60.1470   25.7840   46.3000 C   0  0  0  0  0  0  0  0  0  0  0  0
   59.1320   24.8680   46.0020 C   0  0  0  0  0  0  0  0  0  0  0  0
   59.4820   23.5230   45.8090 O   0  0  0  0  0  0  0  0  0  0  0  0
   58.8590   22.6570   44.8660 C   0  0  0  0  0  0  0  0  0  0  0  0
   57.8050   25.3220   45.9080 C   0  0  0  0  0  0  0  0  0  0  0  0
   57.5070   26.6730   46.1070 C   0  0  0  0  0  0  0  0  0  0  0  0
   61.8832   33.1263   47.5462 H   0  0  0  0  0  0  0  0  0  0  0  0
   60.8608   32.8271   46.0999 H   0  0  0  0  0  0  0  0  0  0  0  0
   62.0430   34.1796   46.0999 H   0  0  0  0  0  0  0  0  0  0  0  0
   60.6003   34.8846   48.2707 H   0  0  0  0  0  0  0  0  0  0  0  0
   60.1540   35.3557   46.5528 H   0  0  0  0  0  0  0  0  0  0  0  0
   58.2062   34.6925   47.8160 H   0  0  0  0  0  0  0  0  0  0  0  0
   58.8543   33.2240   49.4988 H   0  0  0  0  0  0  0  0  0  0  0  0
   57.9316   32.1797   48.3653 H   0  0  0  0  0  0  0  0  0  0  0  0
   59.7275   32.1380   48.3653 H   0  0  0  0  0  0  0  0  0  0  0  0
   59.2850   31.5190   46.1420 H   0  0  0  0  0  0  0  0  0  0  0  0
   58.6242   33.0582   43.2148 H   0  0  0  0  0  0  0  0  0  0  0  0
   57.4942   32.1364   41.1949 H   0  0  0  0  0  0  0  0  0  0  0  0
   56.1466   30.0438   41.3633 H   0  0  0  0  0  0  0  0  0  0  0  0
   55.9470   28.8549   43.5450 H   0  0  0  0  0  0  0  0  0  0  0  0
   60.6607   27.8440   46.7279 H   0  0  0  0  0  0  0  0  0  0  0  0
   61.1874   25.4363   46.3823 H   0  0  0  0  0  0  0  0  0  0  0  0
   58.2975   21.8764   45.4002 H   0  0  0  0  0  0  0  0  0  0  0  0
   58.1700   23.2373   44.2346 H   0  0  0  0  0  0  0  0  0  0  0  0
   59.6282   22.1883   44.2346 H   0  0  0  0  0  0  0  0  0  0  0  0
   56.9979   24.6112   45.6769 H   0  0  0  0  0  0  0  0  0  0  0  0
   56.4641   27.0164   46.0399 H   0  0  0  0  0  0  0  0  0  0  0  0
  1  2  1  0
  2  3  1  0
  3  4  1  0
  3  5  1  0
  5  6  2  0
  5  7  1  0
  7  8  1  0
  8  9  2  0
  9 10  1  0
 10 11  2  0
 11 12  1  0
 12 13  2  0
 13 14  1  0
 14 15  1  0
 15 16  2  0
 15 17  1  0
 17 18  2  0
 18 19  1  0
 19 20  2  0
 20 21  1  0
 21 22  1  0
 20 23  1  0
 23 24  2  0
 13  8  1  0
 24 17  1  0
  1 25  1  0
  1 26  1  0
  1 27  1  0
  2 28  1  0
  2 29  1  0
  3 30  1  1
  4 31  1  0
  4 32  1  0
  4 33  1  0
  7 34  1  0
  9 35  1  0
 10 36  1  0
 11 37  1  0
 12 38  1  0
 18 39  1  0
 19 40  1  0
 22 41  1  0
 22 42  1  0
 22 43  1  0
 23 44  1  0
 24 45  1  0
M  CHG  1  14  -1
M  END
>  <UniqueID>  (34) 
29

>  <SMILES>  (34) 
CC[C@H](C)C(=O)Nc1ccccc1[N-]C(=O)c1ccc(OC)cc1

>  <Energy>  (34) 
46.740185369199594

>  <Genealogy>  (34) 
CCC(C)C(=O)Nc1ccccc1[N-]C(=O)c1ccc(OC)cc1 (protonated)
CC[C@H](C)C(=O)Nc1ccccc1[N-]C(=O)c1ccc(OC)cc1 (chirality)
CC[C@H](C)C(=O)Nc1ccccc1[N-]C(=O)c1ccc(OC)cc1 (3D coordinates assigned)
CC[C@H](C)C(=O)Nc1ccccc1[N-]C(=O)c1ccc(OC)cc1 (optimized conformer: 46.740185369199594 kcal/mol)

>  <smiles>  (34) 
CCC(C)C(=O)Nc1ccccc1NC(=O)c1ccc(OC)cc1

>  <score_type>  (34) 
oracle

>  <origin>  (34) 
adg

>  <m_score__min__energy>  (34) 
-8.6999999999999993

>  <m_primary>  (34) 
energy

$$$$
34:0
     RDKit          3D

 29 30  0  0  0  0  0  0  0  0999 V2000
   59.1180   34.4940   45.6030 C   0  0  0  0  0  0  0  0  0  0  0  0
   58.2230   33.6990   44.6570 C   0  0  0  0  0  0  0  0  0  0  0  0
   57.8880   32.3220   45.2390 C   0  0  0  0  0  0  0  0  0  0  0  0
   58.1200   31.2130   44.2060 C   0  0  0  0  0  0  0  0  0  0  0  0
   57.6470   29.9100   44.7270 N   0  0  0  0  0  0  0  0  0  0  0  0
   56.2930   29.6760   44.8060 C   0  0  0  0  0  0  0  0  0  0  0  0
   55.4640   30.5620   44.4650 O   0  0  0  0  0  0  0  0  0  0  0  0
   55.8280   28.5160   45.2460 O   0  0  0  0  0  0  0  0  0  0  0  0
   56.6150   27.5310   45.6420 C   0  0  0  0  0  0  0  0  0  0  0  0
   56.0950   26.4540   46.0380 O   0  0  0  0  0  0  0  0  0  0  0  0
   58.0040   27.6970   45.6260 C   0  0  0  0  0  0  0  0  0  0  0  0
   58.8720   26.6790   46.0620 C   0  0  0  0  0  0  0  0  0  0  0  0
   60.2510   26.8830   46.0560 C   0  0  0  0  0  0  0  0  0  0  0  0
   60.7740   28.0990   45.6250 C   0  0  0  0  0  0  0  0  0  0  0  0
   59.9250   29.1180   45.1860 C   0  0  0  0  0  0  0  0  0  0  0  0
   58.5200   28.9340   45.1660 C   0  0  0  0  0  0  0  0  0  0  0  0
   58.8523   34.2580   46.6440 H   0  0  0  0  0  0  0  0  0  0  0  0
   60.1699   34.2271   45.4235 H   0  0  0  0  0  0  0  0  0  0  0  0
   58.9770   35.5701   45.4235 H   0  0  0  0  0  0  0  0  0  0  0  0
   57.2889   34.2564   44.4933 H   0  0  0  0  0  0  0  0  0  0  0  0
   58.7598   33.5551   43.7077 H   0  0  0  0  0  0  0  0  0  0  0  0
   58.5280   32.1369   46.1143 H   0  0  0  0  0  0  0  0  0  0  0  0
   56.8263   32.3140   45.5267 H   0  0  0  0  0  0  0  0  0  0  0  0
   57.5697   31.4556   43.2850 H   0  0  0  0  0  0  0  0  0  0  0  0
   59.1976   31.1420   43.9971 H   0  0  0  0  0  0  0  0  0  0  0  0
   58.4612   25.7193   46.4086 H   0  0  0  0  0  0  0  0  0  0  0  0
   60.9264   26.0825   46.3921 H   0  0  0  0  0  0  0  0  0  0  0  0
   61.8624   28.2585   45.6301 H   0  0  0  0  0  0  0  0  0  0  0  0
   60.3524   30.0749   44.8518 H   0  0  0  0  0  0  0  0  0  0  0  0
  1  2  1  0
  2  3  1  0
  3  4  1  0
  4  5  1  0
  5  6  1  0
  6  7  2  0
  6  8  1  0
  8  9  1  0
  9 10  2  0
  9 11  1  0
 11 12  2  0
 12 13  1  0
 13 14  2  0
 14 15  1  0
 15 16  2  0
 16  5  1  0
 16 11  1  0
  1 17  1  0
  1 18  1  0
  1 19  1  0
  2 20  1  0
  2 21  1  0
  3 22  1  0
  3 23  1  0
  4 24  1  0
  4 25  1  0
 12 26  1  0
 13 27  1  0
 14 28  1  0
 15 29  1  0
M  END
>  <UniqueID>  (35) 
30

>  <SMILES>  (35) 
CCCCn1c(=O)oc(=O)c2ccccc21

>  <Energy>  (35) 
34.127438985514814

>  <Genealogy>  (35) 
CCCCn1c(=O)oc(=O)c2ccccc21 (3D coordinates assigned)
CCCCn1c(=O)oc(=O)c2ccccc21 (optimized conformer: 34.127438985514814 kcal/mol)

>  <smiles>  (35) 
CCCCn1c(=O)oc(=O)c2ccccc21

>  <score_type>  (35) 
oracle

>  <origin>  (35) 
adg

>  <m_score__min__energy>  (35) 
-6.2999999999999998

>  <m_primary>  (35) 
energy

$$$$
35:0
     RDKit          3D

 26 26  0  0  0  0  0  0  0  0999 V2000
   56.2680   26.1370   46.1070 C   0  0  0  0  0  0  0  0  0  0  0  0
   56.8750   27.5040   45.8380 C   0  0  0  0  0  0  0  0  0  0  0  0
   55.8740   28.3790   45.2430 N   0  0  0  0  0  0  0  0  0  0  0  0
   56.1890   29.6700   44.7160 C   0  0  0  0  0  0  0  0  0  0  0  0
   55.2810   30.5250   44.5320 O   0  0  0  0  0  0  0  0  0  0  0  0
   57.6000   29.9880   44.3320 C   0  0  0  0  0  0  0  0  0  0  0  0
   58.0160   31.2990   44.9380 C   0  0  0  0  0  0  0  0  0  0  0  0
   57.7090   32.5080   44.2920 C   0  0  0  0  0  0  0  0  0  0  0  0
   58.0670   33.7280   44.8720 C   0  0  0  0  0  0  0  0  0  0  0  0
   58.7240   33.7570   46.1090 C   0  0  0  0  0  0  0  0  0  0  0  0
   59.0890   35.0060   46.7030 N   0  0  0  0  0  0  0  0  0  0  0  0
   59.0200   32.5520   46.7630 C   0  0  0  0  0  0  0  0  0  0  0  0
   58.6630   31.3310   46.1840 C   0  0  0  0  0  0  0  0  0  0  0  0
   56.1960   25.9750   47.1926 H   0  0  0  0  0  0  0  0  0  0  0  0
   55.2634   26.0878   45.6615 H   0  0  0  0  0  0  0  0  0  0  0  0
   56.9052   25.3588   45.6615 H   0  0  0  0  0  0  0  0  0  0  0  0
   57.2256   27.9407   46.7847 H   0  0  0  0  0  0  0  0  0  0  0  0
   57.7217   27.3957   45.1442 H   0  0  0  0  0  0  0  0  0  0  0  0
   58.2649   29.1911   44.6966 H   0  0  0  0  0  0  0  0  0  0  0  0
   57.6681   30.0595   43.2364 H   0  0  0  0  0  0  0  0  0  0  0  0
   57.1844   32.4944   43.3252 H   0  0  0  0  0  0  0  0  0  0  0  0
   57.8318   34.6699   44.3548 H   0  0  0  0  0  0  0  0  0  0  0  0
   59.9160   35.5410   46.3590 H   0  0  0  0  0  0  0  0  0  0  0  0
   58.5320   35.4040   47.4920 H   0  0  0  0  0  0  0  0  0  0  0  0
   59.5349   32.5680   47.7349 H   0  0  0  0  0  0  0  0  0  0  0  0
   58.8900   30.3903   46.7070 H   0  0  0  0  0  0  0  0  0  0  0  0
  1  2  1  0
  2  3  1  0
  3  4  1  0
  4  5  2  0
  4  6  1  0
  6  7  1  0
  7  8  2  0
  8  9  1  0
  9 10  2  0
 10 11  1  0
 10 12  1  0
 12 13  2  0
 13  7  1  0
  1 14  1  0
  1 15  1  0
  1 16  1  0
  2 17  1  0
  2 18  1  0
  6 19  1  0
  6 20  1  0
  8 21  1  0
  9 22  1  0
 11 23  1  0
 11 24  1  0
 12 25  1  0
 13 26  1  0
M  CHG  1   3  -1
M  END
>  <UniqueID>  (36) 
31

>  <SMILES>  (36) 
CC[N-]C(=O)Cc1ccc(N)cc1

>  <Energy>  (36) 
15.556357182929426

>  <Genealogy>  (36) 
CC[N-]C(=O)Cc1ccc(N)cc1 (protonated)
CC[N-]C(=O)Cc1ccc(N)cc1 (3D coordinates assigned)
CC[N-]C(=O)Cc1ccc(N)cc1 (optimized conformer: 15.556357182929426 kcal/mol)

>  <smiles>  (36) 
CCNC(=O)Cc1ccc(N)cc1

>  <score_type>  (36) 
oracle

>  <origin>  (36) 
adg

>  <m_score__min__energy>  (36) 
-7.0700000000000003

>  <m_primary>  (36) 
energy

$$$$
36:0
     RDKit          3D

 38 41  0  0  0  0  0  0  0  0999 V2000
   55.1410   29.3610   44.8670 O   0  0  0  0  0  0  0  0  0  0  0  0
   56.3920   29.5000   44.8280 C   0  0  0  0  0  0  0  0  0  0  0  0
   57.2160   28.4840   45.4090 N   0  0  0  0  0  0  0  0  0  0  0  0
   58.3770   28.7230   46.2120 C   0  0  0  0  0  0  0  0  0  0  0  0
   58.6390   28.2430   47.4830 C   0  0  0  0  0  0  0  0  0  0  0  0
   59.7820   28.8120   47.9100 N   0  0  0  0  0  0  0  0  0  0  0  0
   60.2350   29.6250   46.9650 N   0  0  0  0  0  0  0  0  0  0  0  0
   61.4030   30.4880   47.1130 C   0  0  0  0  0  0  0  0  0  0  0  0
   61.0040   31.7780   47.7730 C   0  0  0  0  0  0  0  0  0  0  0  0
   60.1220   31.7720   48.8670 C   0  0  0  0  0  0  0  0  0  0  0  0
   59.7210   32.9760   49.4540 C   0  0  0  0  0  0  0  0  0  0  0  0
   60.1860   34.1920   48.9470 C   0  0  0  0  0  0  0  0  0  0  0  0
   61.0500   34.2060   47.8480 C   0  0  0  0  0  0  0  0  0  0  0  0
   61.4540   33.0050   47.2580 C   0  0  0  0  0  0  0  0  0  0  0  0
   59.3870   29.6120   45.9170 C   0  0  0  0  0  0  0  0  0  0  0  0
   56.9620   30.7300   44.2460 C   0  0  0  0  0  0  0  0  0  0  0  0
   57.2380   31.0080   42.9060 C   0  0  0  0  0  0  0  0  0  0  0  0
   57.8160   32.2300   42.7930 N   0  0  0  0  0  0  0  0  0  0  0  0
   57.9140   32.7170   44.0180 N   0  0  0  0  0  0  0  0  0  0  0  0
   58.4360   33.9130   44.3830 C   0  0  0  0  0  0  0  0  0  0  0  0
   58.4510   34.2310   45.7480 C   0  0  0  0  0  0  0  0  0  0  0  0
   57.9290   33.3010   46.6680 C   0  0  0  0  0  0  0  0  0  0  0  0
   57.4170   32.1110   46.2350 N   0  0  0  0  0  0  0  0  0  0  0  0
   57.4220   31.8460   44.9050 C   0  0  0  0  0  0  0  0  0  0  0  0
   58.0233   27.5248   48.0443 H   0  0  0  0  0  0  0  0  0  0  0  0
   60.2280   28.6710   48.8430 H   0  0  0  0  0  0  0  0  0  0  0  0
   62.1566   29.9792   47.7320 H   0  0  0  0  0  0  0  0  0  0  0  0
   61.8228   30.7037   46.1194 H   0  0  0  0  0  0  0  0  0  0  0  0
   59.7459   30.8171   49.2628 H   0  0  0  0  0  0  0  0  0  0  0  0
   59.0383   32.9658   50.3164 H   0  0  0  0  0  0  0  0  0  0  0  0
   59.8724   35.1381   49.4124 H   0  0  0  0  0  0  0  0  0  0  0  0
   61.4125   35.1639   47.4469 H   0  0  0  0  0  0  0  0  0  0  0  0
   62.1265   33.0207   46.3876 H   0  0  0  0  0  0  0  0  0  0  0  0
   59.4840   30.2034   44.9946 H   0  0  0  0  0  0  0  0  0  0  0  0
   57.0187   30.3343   42.0645 H   0  0  0  0  0  0  0  0  0  0  0  0
   58.8349   34.6114   43.6326 H   0  0  0  0  0  0  0  0  0  0  0  0
   58.8632   35.1901   46.0947 H   0  0  0  0  0  0  0  0  0  0  0  0
   57.9337   33.5347   47.7429 H   0  0  0  0  0  0  0  0  0  0  0  0
  1  2  2  0
  2  3  1  0
  3  4  1  0
  4  5  1  0
  5  6  2  0
  6  7  1  0
  7  8  1  0
  8  9  1  0
  9 10  2  0
 10 11  1  0
 11 12  2  0
 12 13  1  0
 13 14  2  0
  7 15  1  0
  2 16  1  0
 16 17  1  0
 17 18  2  0
 18 19  1  0
 19 20  1  0
 20 21  2  0
 21 22  1  0
 22 23  2  0
 23 24  1  0
 15  4  2  0
 24 16  2  0
 14  9  1  0
 24 19  1  0
  5 25  1  0
  6 26  1  0
  8 27  1  0
  8 28  1  0
 10 29  1  0
 11 30  1  0
 12 31  1  0
 13 32  1  0
 14 33  1  0
 15 34  1  0
 17 35  1  0
 20 36  1  0
 21 37  1  0
 22 38  1  0
M  CHG  2   3  -1   6   1
M  END
>  <UniqueID>  (37) 
32

>  <SMILES>  (37) 
O=C([N-]c1c[nH+]n(Cc2ccccc2)c1)c1cnn2cccnc12

>  <Energy>  (37) 
114.50808730612039

>  <Genealogy>  (37) 
O=C([N-]c1c[nH+]n(Cc2ccccc2)c1)c1cnn2cccnc12 (protonated)
O=C([N-]c1c[nH+]n(Cc2ccccc2)c1)c1cnn2cccnc12 (3D coordinates assigned)
O=C([N-]c1c[nH+]n(Cc2ccccc2)c1)c1cnn2cccnc12 (optimized conformer: 114.50808730612039 kcal/mol)

>  <smiles>  (37) 
O=C(Nc1cnn(Cc2ccccc2)c1)c1cnn2cccnc12

>  <score_type>  (37) 
oracle

>  <origin>  (37) 
adg

>  <m_score__min__energy>  (37) 
-8.75

>  <m_primary>  (37) 
energy

$$$$
37:0
     RDKit          3D

 54 58  0  0  0  0  0  0  0  0999 V2000
   63.0750   33.8580   46.3840 C   0  0  0  0  0  0  0  0  0  0  0  0
   61.6710   34.0100   46.8890 C   0  0  0  0  0  0  0  0  0  0  0  0
   60.6580   34.0240   45.9780 N   0  0  0  0  0  0  0  0  0  0  0  0
   59.3550   34.1400   46.3410 C   0  0  0  0  0  0  0  0  0  0  0  0
   58.1100   34.1610   45.1090 Cl  0  0  0  0  0  0  0  0  0  0  0  0
   59.0130   34.2300   47.6890 C   0  0  0  0  0  0  0  0  0  0  0  0
   60.0220   34.2140   48.6500 C   0  0  0  0  0  0  0  0  0  0  0  0
   61.3710   34.1350   48.2680 C   0  0  0  0  0  0  0  0  0  0  0  0
   62.4370   34.1910   49.3410 C   0  0  0  0  0  0  0  0  0  0  0  0
   63.3740   33.0590   49.2220 N   0  0  0  0  0  0  0  0  0  0  0  0
   62.8670   31.8280   49.8530 C   0  0  0  0  0  0  0  0  0  0  0  0
   61.7830   31.2020   49.0150 C   0  0  0  0  0  0  0  0  0  0  0  0
   62.0150   30.9230   47.6600 C   0  0  0  0  0  0  0  0  0  0  0  0
   60.9770   30.4630   46.8470 C   0  0  0  0  0  0  0  0  0  0  0  0
   59.6920   30.2580   47.3790 C   0  0  0  0  0  0  0  0  0  0  0  0
   58.5680   29.8560   46.4990 C   0  0  0  0  0  0  0  0  0  0  0  0
   57.9740   30.7830   45.6280 C   0  0  0  0  0  0  0  0  0  0  0  0
   56.9380   30.3890   44.7780 C   0  0  0  0  0  0  0  0  0  0  0  0
   56.4900   29.0650   44.7820 C   0  0  0  0  0  0  0  0  0  0  0  0
   57.0730   28.1200   45.6420 C   0  0  0  0  0  0  0  0  0  0  0  0
   56.6210   26.7120   45.6280 C   0  0  0  0  0  0  0  0  0  0  0  0
   57.4220   25.6820   45.2400 N   0  0  0  0  0  0  0  0  0  0  0  0
   56.6180   24.6180   45.3680 C   0  0  0  0  0  0  0  0  0  0  0  0
   56.9190   23.2840   45.1020 C   0  0  0  0  0  0  0  0  0  0  0  0
   55.9020   22.3330   45.3070 C   0  0  0  0  0  0  0  0  0  0  0  0
   54.6260   22.7360   45.7650 C   0  0  0  0  0  0  0  0  0  0  0  0
   54.3600   24.0950   46.0230 C   0  0  0  0  0  0  0  0  0  0  0  0
   55.3910   25.0070   45.8110 C   0  0  0  0  0  0  0  0  0  0  0  0
   55.3630   26.3350   45.9850 N   0  0  0  0  0  0  0  0  0  0  0  0
   58.1070   28.5260   46.5040 C   0  0  0  0  0  0  0  0  0  0  0  0
   59.4790   30.4810   48.7500 C   0  0  0  0  0  0  0  0  0  0  0  0
   60.5180   30.9430   49.5620 C   0  0  0  0  0  0  0  0  0  0  0  0
   63.7654   33.7833   47.2371 H   0  0  0  0  0  0  0  0  0  0  0  0
   63.1480   32.9467   45.7723 H   0  0  0  0  0  0  0  0  0  0  0  0
   63.3413   34.7326   45.7723 H   0  0  0  0  0  0  0  0  0  0  0  0
   57.9585   34.3127   47.9910 H   0  0  0  0  0  0  0  0  0  0  0  0
   59.7595   34.2637   49.7171 H   0  0  0  0  0  0  0  0  0  0  0  0
   62.9972   35.1324   49.2413 H   0  0  0  0  0  0  0  0  0  0  0  0
   61.9454   34.1341   50.3234 H   0  0  0  0  0  0  0  0  0  0  0  0
   64.2510   33.3280   49.7280 H   0  0  0  0  0  0  0  0  0  0  0  0
   63.6952   31.1125   49.9637 H   0  0  0  0  0  0  0  0  0  0  0  0
   62.4470   32.0845   50.8368 H   0  0  0  0  0  0  0  0  0  0  0  0
   63.0196   31.0673   47.2357 H   0  0  0  0  0  0  0  0  0  0  0  0
   61.1662   30.2596   45.7827 H   0  0  0  0  0  0  0  0  0  0  0  0
   58.3262   31.8250   45.6148 H   0  0  0  0  0  0  0  0  0  0  0  0
   56.4732   31.1230   44.1033 H   0  0  0  0  0  0  0  0  0  0  0  0
   55.6759   28.7613   44.1075 H   0  0  0  0  0  0  0  0  0  0  0  0
   57.9154   22.9849   44.7447 H   0  0  0  0  0  0  0  0  0  0  0  0
   56.1008   21.2693   45.1097 H   0  0  0  0  0  0  0  0  0  0  0  0
   53.8377   21.9847   45.9204 H   0  0  0  0  0  0  0  0  0  0  0  0
   53.3728   24.4243   46.3793 H   0  0  0  0  0  0  0  0  0  0  0  0
   58.5609   27.7959   47.1902 H   0  0  0  0  0  0  0  0  0  0  0  0
   58.4876   30.2906   49.1869 H   0  0  0  0  0  0  0  0  0  0  0  0
   60.3428   31.1044   50.6359 H   0  0  0  0  0  0  0  0  0  0  0  0
  1  2  1  0
  2  3  2  0
  3  4  1  0
  4  5  1  0
  4  6  2  0
  6  7  1  0
  7  8  2  0
  8  9  1  0
  9 10  1  0
 10 11  1  0
 11 12  1  0
 12 13  2  0
 13 14  1  0
 14 15  2  0
 15 16  1  0
 16 17  2  0
 17 18  1  0
 18 19  2  0
 19 20  1  0
 20 21  1  0
 21 22  2  0
 22 23  1  0
 23 24  2  0
 24 25  1  0
 25 26  2  0
 26 27  1  0
 27 28  2  0
 28 29  1  0
 20 30  2  0
 15 31  1  0
 31 32  2  0
  8  2  1  0
 32 12  1  0
 30 16  1  0
 29 21  1  0
 28 23  1  0
  1 33  1  0
  1 34  1  0
  1 35  1  0
  6 36  1  0
  7 37  1  0
  9 38  1  0
  9 39  1  0
 10 40  1  0
 11 41  1  0
 11 42  1  0
 13 43  1  0
 14 44  1  0
 17 45  1  0
 18 46  1  0
 19 47  1  0
 24 48  1  0
 25 49  1  0
 26 50  1  0
 27 51  1  0
 30 52  1  0
 31 53  1  0
 32 54  1  0
M  CHG  1  29  -1
M  END
>  <UniqueID>  (38) 
33

>  <SMILES>  (38) 
Cc1nc(Cl)ccc1CNCc1ccc(-c2cccc(-c3nc4ccccc4[n-]3)c2)cc1

>  <Energy>  (38) 
97.31191541832008

>  <Genealogy>  (38) 
Cc1nc(Cl)ccc1CNCc1ccc(-c2cccc(-c3nc4ccccc4[n-]3)c2)cc1 (protonated)
Cc1nc(Cl)ccc1CNCc1ccc(-c2cccc(-c3nc4ccccc4[n-]3)c2)cc1 (3D coordinates assigned)
Cc1nc(Cl)ccc1CNCc1ccc(-c2cccc(-c3nc4ccccc4[n-]3)c2)cc1 (optimized conformer: 97.31191541832008 kcal/mol)

>  <smiles>  (38) 
Cc1nc(Cl)ccc1CNCc1ccc(-c2cccc(-c3nc4ccccc4[nH]3)c2)cc1

>  <score_type>  (38) 
oracle

>  <origin>  (38) 
adg

>  <m_score__min__energy>  (38) 
-11

>  <m_primary>  (38) 
energy

$$$$
38:0
     RDKit          3D

 30 32  0  0  0  0  0  0  0  0999 V2000
   56.8990   31.8070   44.8540 C   0  0  0  0  0  0  0  0  0  0  0  0
   57.9890   31.0800   45.5910 C   0  0  0  0  0  0  0  0  0  0  0  0
   59.1540   31.7930   45.9440 C   0  0  0  0  0  0  0  0  0  0  0  0
   60.1770   31.1750   46.6990 C   0  0  0  0  0  0  0  0  0  0  0  0
   61.4070   31.9100   47.0900 C   0  0  0  0  0  0  0  0  0  0  0  0
   62.3130   31.3790   48.0300 C   0  0  0  0  0  0  0  0  0  0  0  0
   63.4700   32.0840   48.3750 C   0  0  0  0  0  0  0  0  0  0  0  0
   63.7410   33.3200   47.7860 C   0  0  0  0  0  0  0  0  0  0  0  0
   62.8580   33.8520   46.8440 C   0  0  0  0  0  0  0  0  0  0  0  0
   61.7000   33.1510   46.4930 C   0  0  0  0  0  0  0  0  0  0  0  0
   60.0360   29.8730   47.0740 N   0  0  0  0  0  0  0  0  0  0  0  0
   58.9330   29.1730   46.7220 C   0  0  0  0  0  0  0  0  0  0  0  0
   58.6200   27.5800   47.1340 S   0  0  0  0  0  0  0  0  0  0  0  0
   57.1380   27.5310   46.3370 C   0  0  0  0  0  0  0  0  0  0  0  0
   56.3100   26.3580   46.2600 C   0  0  0  0  0  0  0  0  0  0  0  0
   55.6430   25.4140   46.1970 N   0  0  0  0  0  0  0  0  0  0  0  0
   56.8800   28.7610   45.7220 C   0  0  0  0  0  0  0  0  0  0  0  0
   55.7340   28.9610   44.8860 N   0  0  0  0  0  0  0  0  0  0  0  0
   57.9030   29.7160   45.9640 C   0  0  0  0  0  0  0  0  0  0  0  0
   56.2101   32.2665   45.5781 H   0  0  0  0  0  0  0  0  0  0  0  0
   57.3430   32.5905   44.2223 H   0  0  0  0  0  0  0  0  0  0  0  0
   56.3463   31.0961   44.2223 H   0  0  0  0  0  0  0  0  0  0  0  0
   59.2675   32.8406   45.6285 H   0  0  0  0  0  0  0  0  0  0  0  0
   62.1085   30.4035   48.4953 H   0  0  0  0  0  0  0  0  0  0  0  0
   64.1689   31.6633   49.1129 H   0  0  0  0  0  0  0  0  0  0  0  0
   64.6495   33.8746   48.0636 H   0  0  0  0  0  0  0  0  0  0  0  0
   63.0738   34.8244   46.3772 H   0  0  0  0  0  0  0  0  0  0  0  0
   61.0127   33.5724   45.7447 H   0  0  0  0  0  0  0  0  0  0  0  0
   55.7940   28.8980   43.8490 H   0  0  0  0  0  0  0  0  0  0  0  0
   54.7760   28.9610   45.2990 H   0  0  0  0  0  0  0  0  0  0  0  0
  1  2  1  0
  2  3  2  0
  3  4  1  0
  4  5  1  0
  5  6  2  0
  6  7  1  0
  7  8  2  0
  8  9  1  0
  9 10  2  0
  4 11  2  0
 11 12  1  0
 12 13  1  0
 13 14  1  0
 14 15  1  0
 15 16  3  0
 14 17  2  0
 17 18  1  0
 17 19  1  0
 19  2  1  0
 10  5  1  0
 19 12  2  0
  1 20  1  0
  1 21  1  0
  1 22  1  0
  3 23  1  0
  6 24  1  0
  7 25  1  0
  8 26  1  0
  9 27  1  0
 10 28  1  0
 18 29  1  0
 18 30  1  0
M  END
>  <UniqueID>  (39) 
34

>  <SMILES>  (39) 
Cc1cc(-c2ccccc2)nc2sc(C#N)c(N)c12

>  <Energy>  (39) 
74.06911493278211

>  <Genealogy>  (39) 
Cc1cc(-c2ccccc2)nc2sc(C#N)c(N)c12 (3D coordinates assigned)
Cc1cc(-c2ccccc2)nc2sc(C#N)c(N)c12 (optimized conformer: 74.06911493278211 kcal/mol)

>  <smiles>  (39) 
Cc1cc(-c2ccccc2)nc2sc(C#N)c(N)c12

>  <score_type>  (39) 
oracle

>  <origin>  (39) 
adg

>  <m_score__min__energy>  (39) 
-7.1900000000000004

>  <m_primary>  (39) 
energy

$$$$
39:0
     RDKit          3D

 36 38  0  0  0  0  0  0  0  0999 V2000
   58.1750   34.1790   45.5140 C   0  0  0  0  0  0  0  0  0  0  0  0
   57.7550   33.0790   44.5470 C   0  0  0  0  0  0  0  0  0  0  0  0
   57.4010   31.8970   45.2610 O   0  0  0  0  0  0  0  0  0  0  0  0
   57.5530   30.6050   44.7470 C   0  0  0  0  0  0  0  0  0  0  0  0
   56.6570   30.0900   43.8540 N   0  0  0  0  0  0  0  0  0  0  0  0
   56.8300   28.8750   43.3150 N   0  0  0  0  0  0  0  0  0  0  0  0
   57.9160   28.1050   43.6300 C   0  0  0  0  0  0  0  0  0  0  0  0
   58.1410   26.7750   42.9750 C   0  0  0  0  0  0  0  0  0  0  0  0
   58.8290   28.6370   44.5370 C   0  0  0  0  0  0  0  0  0  0  0  0
   59.9840   28.0850   44.9550 N   0  0  0  0  0  0  0  0  0  0  0  0
   60.5220   28.9520   45.8070 N   0  0  0  0  0  0  0  0  0  0  0  0
   59.6840   30.0110   45.8940 C   0  0  0  0  0  0  0  0  0  0  0  0
   59.9160   31.1530   46.7970 C   0  0  0  0  0  0  0  0  0  0  0  0
   58.8850   31.6010   47.6350 C   0  0  0  0  0  0  0  0  0  0  0  0
   59.0980   32.6790   48.4960 C   0  0  0  0  0  0  0  0  0  0  0  0
   60.3330   33.3330   48.5120 C   0  0  0  0  0  0  0  0  0  0  0  0
   61.3600   32.9320   47.6400 C   0  0  0  0  0  0  0  0  0  0  0  0
   62.7110   33.6030   47.6810 C   0  0  0  0  0  0  0  0  0  0  0  0
   62.7440   34.5640   48.6760 F   0  0  0  0  0  0  0  0  0  0  0  0
   63.7110   32.6820   47.9360 F   0  0  0  0  0  0  0  0  0  0  0  0
   62.9540   34.2080   46.4620 F   0  0  0  0  0  0  0  0  0  0  0  0
   61.1440   31.8340   46.7890 C   0  0  0  0  0  0  0  0  0  0  0  0
   58.6160   29.8350   45.0880 N   0  0  0  0  0  0  0  0  0  0  0  0
   58.0413   33.8288   46.5482 H   0  0  0  0  0  0  0  0  0  0  0  0
   59.2325   34.4308   45.3460 H   0  0  0  0  0  0  0  0  0  0  0  0
   57.5544   35.0715   45.3460 H   0  0  0  0  0  0  0  0  0  0  0  0
   56.8888   33.4221   43.9621 H   0  0  0  0  0  0  0  0  0  0  0  0
   58.5978   32.8521   43.8775 H   0  0  0  0  0  0  0  0  0  0  0  0
   56.1230   28.5260   42.6310 H   0  0  0  0  0  0  0  0  0  0  0  0
   58.2716   26.0031   43.7478 H   0  0  0  0  0  0  0  0  0  0  0  0
   57.2727   26.5233   42.3484 H   0  0  0  0  0  0  0  0  0  0  0  0
   59.0438   26.8229   42.3484 H   0  0  0  0  0  0  0  0  0  0  0  0
   57.9052   31.1015   47.6139 H   0  0  0  0  0  0  0  0  0  0  0  0
   58.2912   33.0148   49.1640 H   0  0  0  0  0  0  0  0  0  0  0  0
   60.5022   34.1657   49.2105 H   0  0  0  0  0  0  0  0  0  0  0  0
   61.9447   31.5052   46.1103 H   0  0  0  0  0  0  0  0  0  0  0  0
  1  2  1  0
  2  3  1  0
  3  4  1  0
  4  5  2  0
  5  6  1  0
  6  7  2  0
  7  8  1  0
  7  9  1  0
  9 10  2  0
 10 11  1  0
 11 12  2  0
 12 13  1  0
 13 14  2  0
 14 15  1  0
 15 16  2  0
 16 17  1  0
 17 18  1  0
 18 19  1  0
 18 20  1  0
 18 21  1  0
 17 22  2  0
 12 23  1  0
 23  4  1  0
 23  9  1  0
 22 13  1  0
  1 24  1  0
  1 25  1  0
  1 26  1  0
  2 27  1  0
  2 28  1  0
  6 29  1  0
  8 30  1  0
  8 31  1  0
  8 32  1  0
 14 33  1  0
 15 34  1  0
 16 35  1  0
 22 36  1  0
M  CHG  1   6   1
M  END
>  <UniqueID>  (40) 
35

>  <SMILES>  (40) 
CCOc1n[nH+]c(C)c2nnc(-c3cccc(C(F)(F)F)c3)n12

>  <Energy>  (40) 
82.0584351554858

>  <Genealogy>  (40) 
CCOc1n[nH+]c(C)c2nnc(-c3cccc(C(F)(F)F)c3)n12 (protonated)
CCOc1n[nH+]c(C)c2nnc(-c3cccc(C(F)(F)F)c3)n12 (3D coordinates assigned)
CCOc1n[nH+]c(C)c2nnc(-c3cccc(C(F)(F)F)c3)n12 (optimized conformer: 82.0584351554858 kcal/mol)

>  <smiles>  (40) 
CCOc1nnc(C)c2nnc(-c3cccc(C(F)(F)F)c3)n12

>  <score_type>  (40) 
oracle

>  <origin>  (40) 
adg

>  <m_score__min__energy>  (40) 
-5.5199999999999996

>  <m_primary>  (40) 
energy

$$$$
40:0
     RDKit          3D

 42 45  0  0  0  0  0  0  0  0999 V2000
   62.8130   32.0660   52.7820 C   0  0  0  0  0  0  0  0  0  0  0  0
   62.0580   32.7520   51.7190 N   0  0  0  0  0  0  0  0  0  0  0  0
   60.7840   33.1540   51.9980 C   0  0  0  0  0  0  0  0  0  0  0  0
   60.0090   33.8130   51.0510 C   0  0  0  0  0  0  0  0  0  0  0  0
   60.5250   34.0960   49.7710 C   0  0  0  0  0  0  0  0  0  0  0  0
   59.7400   34.7940   48.7590 N   0  0  0  0  0  0  0  0  0  0  0  0
   59.1990   33.9490   47.7180 C   0  0  0  0  0  0  0  0  0  0  0  0
   59.0070   32.5770   47.9340 C   0  0  0  0  0  0  0  0  0  0  0  0
   58.4540   31.7780   46.9330 C   0  0  0  0  0  0  0  0  0  0  0  0
   58.0910   32.3580   45.7030 C   0  0  0  0  0  0  0  0  0  0  0  0
   57.4880   31.5700   44.6010 C   0  0  0  0  0  0  0  0  0  0  0  0
   57.6700   31.9050   43.2450 C   0  0  0  0  0  0  0  0  0  0  0  0
   57.0650   31.1250   42.2570 C   0  0  0  0  0  0  0  0  0  0  0  0
   56.2810   30.0300   42.6170 C   0  0  0  0  0  0  0  0  0  0  0  0
   56.1080   29.7300   43.9680 C   0  0  0  0  0  0  0  0  0  0  0  0
   56.7050   30.4990   44.9170 N   0  0  0  0  0  0  0  0  0  0  0  0
   58.2670   33.6960   45.5260 N   0  0  0  0  0  0  0  0  0  0  0  0
   58.8030   34.4950   46.4870 C   0  0  0  0  0  0  0  0  0  0  0  0
   61.8390   33.6500   49.4710 C   0  0  0  0  0  0  0  0  0  0  0  0
   62.4080   33.8500   48.1930 C   0  0  0  0  0  0  0  0  0  0  0  0
   63.7020   33.4150   47.9110 C   0  0  0  0  0  0  0  0  0  0  0  0
   64.4520   32.7720   48.8880 C   0  0  0  0  0  0  0  0  0  0  0  0
   63.9150   32.5520   50.1540 C   0  0  0  0  0  0  0  0  0  0  0  0
   62.6020   32.9790   50.4720 C   0  0  0  0  0  0  0  0  0  0  0  0
   62.4471   32.3985   53.7646 H   0  0  0  0  0  0  0  0  0  0  0  0
   62.6738   30.9789   52.6875 H   0  0  0  0  0  0  0  0  0  0  0  0
   63.8818   32.3084   52.6875 H   0  0  0  0  0  0  0  0  0  0  0  0
   60.3616   32.9522   52.9934 H   0  0  0  0  0  0  0  0  0  0  0  0
   58.9823   34.1167   51.3035 H   0  0  0  0  0  0  0  0  0  0  0  0
   58.9360   35.2720   49.2260 H   0  0  0  0  0  0  0  0  0  0  0  0
   60.3420   35.5320   48.3220 H   0  0  0  0  0  0  0  0  0  0  0  0
   59.2936   32.1287   48.8968 H   0  0  0  0  0  0  0  0  0  0  0  0
   58.3027   30.7019   47.1038 H   0  0  0  0  0  0  0  0  0  0  0  0
   58.2839   32.7742   42.9664 H   0  0  0  0  0  0  0  0  0  0  0  0
   57.2071   31.3746   41.1952 H   0  0  0  0  0  0  0  0  0  0  0  0
   55.8041   29.4094   41.8441 H   0  0  0  0  0  0  0  0  0  0  0  0
   55.4885   28.8712   44.2657 H   0  0  0  0  0  0  0  0  0  0  0  0
   58.9265   35.5718   46.2992 H   0  0  0  0  0  0  0  0  0  0  0  0
   61.8224   34.3553   47.4109 H   0  0  0  0  0  0  0  0  0  0  0  0
   64.1307   33.5813   46.9117 H   0  0  0  0  0  0  0  0  0  0  0  0
   65.4742   32.4353   48.6606 H   0  0  0  0  0  0  0  0  0  0  0  0
   64.5186   32.0396   50.9176 H   0  0  0  0  0  0  0  0  0  0  0  0
  1  2  1  0
  2  3  2  0
  3  4  1  0
  4  5  2  0
  5  6  1  0
  6  7  1  0
  7  8  2  0
  8  9  1  0
  9 10  2  0
 10 11  1  0
 11 12  2  0
 12 13  1  0
 13 14  2  0
 14 15  1  0
 15 16  2  0
 10 17  1  0
 17 18  2  0
  5 19  1  0
 19 20  2  0
 20 21  1  0
 21 22  2  0
 22 23  1  0
 23 24  2  0
 24  2  1  0
 18  7  1  0
 24 19  1  0
 16 11  1  0
  1 25  1  0
  1 26  1  0
  1 27  1  0
  3 28  1  0
  4 29  1  0
  6 30  1  0
  6 31  1  0
  8 32  1  0
  9 33  1  0
 12 34  1  0
 13 35  1  0
 14 36  1  0
 15 37  1  0
 18 38  1  0
 20 39  1  0
 21 40  1  0
 22 41  1  0
 23 42  1  0
M  CHG  2   2   1   6   1
M  END
>  <UniqueID>  (41) 
36

>  <SMILES>  (41) 
C[n+]1ccc([NH2+]c2ccc(-c3ccccn3)nc2)c2ccccc21

>  <Energy>  (41) 
68.23927015953474

>  <Genealogy>  (41) 
C[n+]1ccc([NH2+]c2ccc(-c3ccccn3)nc2)c2ccccc21 (protonated)
C[n+]1ccc([NH2+]c2ccc(-c3ccccn3)nc2)c2ccccc21 (3D coordinates assigned)
C[n+]1ccc([NH2+]c2ccc(-c3ccccn3)nc2)c2ccccc21 (optimized conformer: 68.23927015953474 kcal/mol)

>  <smiles>  (41) 
C[n+]1ccc(Nc2ccc(-c3ccccn3)nc2)c2ccccc21

>  <score_type>  (41) 
oracle

>  <origin>  (41) 
adg

>  <m_score__min__energy>  (41) 
-5.8399999999999999

>  <m_primary>  (41) 
energy

$$$$
41:0
     RDKit          3D

 61 64  0  0  0  0  0  0  0  0999 V2000
   57.4280   25.7830   43.9300 C   0  0  0  0  0  0  0  0  0  0  0  0
   58.3840   26.2540   44.9930 C   0  0  0  0  0  0  0  0  0  0  0  0
   59.2640   25.4060   45.6930 C   0  0  0  0  0  0  0  0  0  0  0  0
   59.3310   23.9330   45.6260 C   0  0  0  0  0  0  0  0  0  0  0  0
   60.4560   23.3620   45.6270 O   0  0  0  0  0  0  0  0  0  0  0  0
   58.1370   23.1440   45.4720 N   0  0  0  0  0  0  0  0  0  0  0  0
   58.1850   21.9110   44.6830 C   0  0  0  0  0  0  0  0  0  0  0  0
   56.7680   21.3670   44.4330 C   0  0  0  0  0  0  0  0  0  0  0  0
   55.7970   22.4540   44.1900 N   0  0  0  0  0  0  0  0  0  0  0  0
   56.0630   23.1540   42.9200 C   0  0  0  0  0  0  0  0  0  0  0  0
   55.6810   23.4020   45.3290 C   0  0  0  0  0  0  0  0  0  0  0  0
   56.9240   23.4460   46.2400 C   0  0  0  0  0  0  0  0  0  0  0  0
   60.2070   26.3270   46.7530 S   0  0  0  0  0  0  0  0  0  0  0  0
   59.4990   27.7870   46.3410 C   0  0  0  0  0  0  0  0  0  0  0  0
   59.7990   28.9980   46.8530 N   0  0  0  0  0  0  0  0  0  0  0  0
   59.1120   30.0980   46.4300 C   0  0  0  0  0  0  0  0  0  0  0  0
   59.4740   31.4030   47.0250 C   0  0  0  0  0  0  0  0  0  0  0  0
   58.5770   32.0700   47.8740 C   0  0  0  0  0  0  0  0  0  0  0  0
   58.9400   33.2860   48.4610 C   0  0  0  0  0  0  0  0  0  0  0  0
   60.2030   33.8340   48.2150 C   0  0  0  0  0  0  0  0  0  0  0  0
   61.1070   33.1610   47.3880 C   0  0  0  0  0  0  0  0  0  0  0  0
   60.7490   31.9430   46.8010 C   0  0  0  0  0  0  0  0  0  0  0  0
   58.1120   29.9760   45.4760 N   0  0  0  0  0  0  0  0  0  0  0  0
   57.4210   31.1730   44.9420 C   0  0  0  0  0  0  0  0  0  0  0  0
   58.3850   32.0570   44.1370 C   0  0  0  0  0  0  0  0  0  0  0  0
   58.0640   33.4900   44.3200 N   0  0  0  0  0  0  0  0  0  0  0  0
   59.2660   34.2430   44.7100 C   0  0  0  0  0  0  0  0  0  0  0  0
   57.0160   33.6700   45.3380 C   0  0  0  0  0  0  0  0  0  0  0  0
   57.8070   28.7330   44.9590 C   0  0  0  0  0  0  0  0  0  0  0  0
   56.8900   28.6040   44.1020 O   0  0  0  0  0  0  0  0  0  0  0  0
   58.5200   27.6060   45.3930 C   0  0  0  0  0  0  0  0  0  0  0  0
   56.5381   25.3446   44.4053 H   0  0  0  0  0  0  0  0  0  0  0  0
   57.1267   26.6358   43.3039 H   0  0  0  0  0  0  0  0  0  0  0  0
   57.9206   25.0244   43.3039 H   0  0  0  0  0  0  0  0  0  0  0  0
   58.6668   22.1199   43.7165 H   0  0  0  0  0  0  0  0  0  0  0  0
   58.7587   21.1569   45.2418 H   0  0  0  0  0  0  0  0  0  0  0  0
   56.7903   20.7065   43.5536 H   0  0  0  0  0  0  0  0  0  0  0  0
   56.4491   20.8187   45.3317 H   0  0  0  0  0  0  0  0  0  0  0  0
   56.4465   24.1632   43.1309 H   0  0  0  0  0  0  0  0  0  0  0  0
   56.8101   22.5915   42.3408 H   0  0  0  0  0  0  0  0  0  0  0  0
   55.1309   23.2296   42.3408 H   0  0  0  0  0  0  0  0  0  0  0  0
   55.5141   24.4107   44.9233 H   0  0  0  0  0  0  0  0  0  0  0  0
   54.8443   23.0504   45.9505 H   0  0  0  0  0  0  0  0  0  0  0  0
   57.0149   24.4503   46.6795 H   0  0  0  0  0  0  0  0  0  0  0  0
   56.8095   22.6928   47.0334 H   0  0  0  0  0  0  0  0  0  0  0  0
   60.5490   29.0820   47.5760 H   0  0  0  0  0  0  0  0  0  0  0  0
   57.5872   31.6355   48.0778 H   0  0  0  0  0  0  0  0  0  0  0  0
   58.2312   33.8124   49.1172 H   0  0  0  0  0  0  0  0  0  0  0  0
   60.4848   34.7940   48.6720 H   0  0  0  0  0  0  0  0  0  0  0  0
   62.1019   33.5902   47.1985 H   0  0  0  0  0  0  0  0  0  0  0  0
   61.4680   31.4081   46.1631 H   0  0  0  0  0  0  0  0  0  0  0  0
   56.5983   30.8502   44.2871 H   0  0  0  0  0  0  0  0  0  0  0  0
   57.0349   31.7594   45.7888 H   0  0  0  0  0  0  0  0  0  0  0  0
   59.4141   31.8718   44.4786 H   0  0  0  0  0  0  0  0  0  0  0  0
   58.2838   31.8073   43.0705 H   0  0  0  0  0  0  0  0  0  0  0  0
   59.3326   34.2847   45.8072 H   0  0  0  0  0  0  0  0  0  0  0  0
   60.1589   33.7426   44.3072 H   0  0  0  0  0  0  0  0  0  0  0  0
   59.2053   35.2648   44.3072 H   0  0  0  0  0  0  0  0  0  0  0  0
   57.4618   33.5934   46.3407 H   0  0  0  0  0  0  0  0  0  0  0  0
   56.5536   34.6607   45.2170 H   0  0  0  0  0  0  0  0  0  0  0  0
   56.2495   32.8903   45.2170 H   0  0  0  0  0  0  0  0  0  0  0  0
  1  2  1  0
  2  3  2  0
  3  4  1  0
  4  5  2  0
  4  6  1  0
  6  7  1  0
  7  8  1  0
  8  9  1  0
  9 10  1  0
  9 11  1  0
 11 12  1  0
  3 13  1  0
 13 14  1  0
 14 15  1  0
 15 16  2  0
 16 17  1  0
 17 18  2  0
 18 19  1  0
 19 20  2  0
 20 21  1  0
 21 22  2  0
 16 23  1  0
 23 24  1  0
 24 25  1  0
 25 26  1  0
 26 27  1  0
 26 28  1  0
 23 29  1  0
 29 30  2  0
 29 31  1  0
 31  2  1  0
 12  6  1  0
 31 14  2  0
 22 17  1  0
  1 32  1  0
  1 33  1  0
  1 34  1  0
  7 35  1  0
  7 36  1  0
  8 37  1  0
  8 38  1  0
 10 39  1  0
 10 40  1  0
 10 41  1  0
 11 42  1  0
 11 43  1  0
 12 44  1  0
 12 45  1  0
 15 46  1  0
 18 47  1  0
 19 48  1  0
 20 49  1  0
 21 50  1  0
 22 51  1  0
 24 52  1  0
 24 53  1  0
 25 54  1  0
 25 55  1  0
 27 56  1  0
 27 57  1  0
 27 58  1  0
 28 59  1  0
 28 60  1  0
 28 61  1  0
M  CHG  1  15   1
M  END
>  <UniqueID>  (42) 
37

>  <SMILES>  (42) 
Cc1c(C(=O)N2CCN(C)CC2)sc2[nH+]c(-c3ccccc3)n(CCN(C)C)c(=O)c12

>  <Energy>  (42) 
118.96914036275315

>  <Genealogy>  (42) 
Cc1c(C(=O)N2CCN(C)CC2)sc2[nH+]c(-c3ccccc3)n(CCN(C)C)c(=O)c12 (protonated)
Cc1c(C(=O)N2CCN(C)CC2)sc2[nH+]c(-c3ccccc3)n(CCN(C)C)c(=O)c12 (3D coordinates assigned)
Cc1c(C(=O)N2CCN(C)CC2)sc2[nH+]c(-c3ccccc3)n(CCN(C)C)c(=O)c12 (nonaromatic ring conformer: 118.96914036275315 kcal/mol)

>  <smiles>  (42) 
Cc1c(C(=O)N2CCN(C)CC2)sc2nc(-c3ccccc3)n(CCN(C)C)c(=O)c12

>  <score_type>  (42) 
oracle

>  <origin>  (42) 
adg

>  <m_score__min__energy>  (42) 
-7.0999999999999996

>  <m_primary>  (42) 
energy

$$$$
42:0
     RDKit          3D

 39 41  0  0  0  0  0  0  0  0999 V2000
   55.4900   25.5120   45.9870 C   0  0  0  0  0  0  0  0  0  0  0  0
   56.7840   26.2030   46.3190 C   0  0  0  0  0  0  0  0  0  0  0  0
   57.7880   25.5150   47.0170 C   0  0  0  0  0  0  0  0  0  0  0  0
   58.9930   26.1450   47.3300 C   0  0  0  0  0  0  0  0  0  0  0  0
   59.2140   27.4710   46.9530 C   0  0  0  0  0  0  0  0  0  0  0  0
   58.2240   28.1830   46.2530 C   0  0  0  0  0  0  0  0  0  0  0  0
   58.4150   29.5230   45.8600 C   0  0  0  0  0  0  0  0  0  0  0  0
   59.4910   30.1180   46.1450 O   0  0  0  0  0  0  0  0  0  0  0  0
   57.3950   30.2040   45.1620 C   0  0  0  0  0  0  0  0  0  0  0  0
   57.5630   31.6130   44.7320 C   0  0  0  0  0  0  0  0  0  0  0  0
   57.0220   32.0040   43.6610 O   0  0  0  0  0  0  0  0  0  0  0  0
   58.3540   32.5280   45.5080 N   0  0  0  0  0  0  0  0  0  0  0  0
   58.7200   33.8590   45.0180 C   0  0  0  0  0  0  0  0  0  0  0  0
   59.4740   34.6450   46.0950 C   0  0  0  0  0  0  0  0  0  0  0  0
   60.4880   33.7870   46.7970 C   0  0  0  0  0  0  0  0  0  0  0  0
   61.8440   33.8450   46.4440 C   0  0  0  0  0  0  0  0  0  0  0  0
   62.7510   32.9870   47.0700 C   0  0  0  0  0  0  0  0  0  0  0  0
   62.3010   32.0820   48.0320 C   0  0  0  0  0  0  0  0  0  0  0  0
   60.9430   32.0480   48.3560 C   0  0  0  0  0  0  0  0  0  0  0  0
   60.0750   32.8890   47.7350 N   0  0  0  0  0  0  0  0  0  0  0  0
   56.2060   29.5180   44.8720 C   0  0  0  0  0  0  0  0  0  0  0  0
   56.0420   28.2270   45.2590 N   0  0  0  0  0  0  0  0  0  0  0  0
   57.0020   27.5430   45.9360 C   0  0  0  0  0  0  0  0  0  0  0  0
   54.9726   25.2357   46.9176 H   0  0  0  0  0  0  0  0  0  0  0  0
   54.8524   26.1897   45.4003 H   0  0  0  0  0  0  0  0  0  0  0  0
   55.6986   24.6052   45.4003 H   0  0  0  0  0  0  0  0  0  0  0  0
   57.6238   24.4704   47.3200 H   0  0  0  0  0  0  0  0  0  0  0  0
   59.7727   25.5942   47.8765 H   0  0  0  0  0  0  0  0  0  0  0  0
   60.1663   27.9606   47.2046 H   0  0  0  0  0  0  0  0  0  0  0  0
   58.8600   32.1770   46.3520 H   0  0  0  0  0  0  0  0  0  0  0  0
   59.3630   33.7531   44.1318 H   0  0  0  0  0  0  0  0  0  0  0  0
   57.8009   34.4056   44.7601 H   0  0  0  0  0  0  0  0  0  0  0  0
   59.9902   35.4935   45.6222 H   0  0  0  0  0  0  0  0  0  0  0  0
   58.7443   34.9951   46.8400 H   0  0  0  0  0  0  0  0  0  0  0  0
   62.1897   34.5589   45.6819 H   0  0  0  0  0  0  0  0  0  0  0  0
   63.8180   33.0246   46.8052 H   0  0  0  0  0  0  0  0  0  0  0  0
   63.0084   31.4025   48.5299 H   0  0  0  0  0  0  0  0  0  0  0  0
   60.5760   31.3403   49.1140 H   0  0  0  0  0  0  0  0  0  0  0  0
   55.3999   30.0304   44.3265 H   0  0  0  0  0  0  0  0  0  0  0  0
  1  2  1  0
  2  3  2  0
  3  4  1  0
  4  5  2  0
  5  6  1  0
  6  7  1  0
  7  8  2  0
  7  9  1  0
  9 10  1  0
 10 11  2  0
 10 12  1  0
 12 13  1  0
 13 14  1  0
 14 15  1  0
 15 16  2  0
 16 17  1  0
 17 18  2  0
 18 19  1  0
 19 20  2  0
  9 21  2  0
 21 22  1  0
 22 23  1  0
 23  2  1  0
 23  6  2  0
 20 15  1  0
  1 24  1  0
  1 25  1  0
  1 26  1  0
  3 27  1  0
  4 28  1  0
  5 29  1  0
 12 30  1  0
 13 31  1  0
 13 32  1  0
 14 33  1  0
 14 34  1  0
 16 35  1  0
 17 36  1  0
 18 37  1  0
 19 38  1  0
 21 39  1  0
M  CHG  1  22  -1
M  END
>  <UniqueID>  (43) 
38

>  <SMILES>  (43) 
Cc1cccc2c(=O)c(C(=O)NCCc3ccccn3)c[n-]c12

>  <Energy>  (43) 
45.78639470986458

>  <Genealogy>  (43) 
Cc1cccc2c(=O)c(C(=O)NCCc3ccccn3)c[n-]c12 (protonated)
Cc1cccc2c(=O)c(C(=O)NCCc3ccccn3)c[n-]c12 (3D coordinates assigned)
Cc1cccc2c(=O)c(C(=O)NCCc3ccccn3)c[n-]c12 (optimized conformer: 45.78639470986458 kcal/mol)

>  <smiles>  (43) 
Cc1cccc2c(=O)c(C(=O)NCCc3ccccn3)c[nH]c12

>  <score_type>  (43) 
oracle

>  <origin>  (43) 
adg

>  <m_score__min__energy>  (43) 
-9.1799999999999997

>  <m_primary>  (43) 
energy

$$$$
43:0
     RDKit          3D

 46 49  0  0  0  0  0  0  0  0999 V2000
   57.2630   34.5470   44.8700 C   0  0  0  0  0  0  0  0  0  0  0  0
   58.7040   34.2560   45.2780 C   0  0  0  0  0  0  0  0  0  0  0  0
   58.8740   32.8350   45.5960 N   0  0  0  0  0  0  0  0  0  0  0  0
   58.2090   31.8310   44.9860 C   0  0  0  0  0  0  0  0  0  0  0  0
   58.6770   30.6170   45.4440 C   0  0  0  0  0  0  0  0  0  0  0  0
   58.2220   29.2900   45.0200 C   0  0  0  0  0  0  0  0  0  0  0  0
   57.6700   29.0250   43.8190 N   0  0  0  0  0  0  0  0  0  0  0  0
   57.4010   27.7300   43.8330 N   0  0  0  0  0  0  0  0  0  0  0  0
   57.7930   27.2450   45.0290 C   0  0  0  0  0  0  0  0  0  0  0  0
   57.6800   25.8370   45.4730 C   0  0  0  0  0  0  0  0  0  0  0  0
   57.7480   24.7680   44.5620 C   0  0  0  0  0  0  0  0  0  0  0  0
   57.6390   23.4480   45.0090 C   0  0  0  0  0  0  0  0  0  0  0  0
   57.4580   23.1680   46.3680 C   0  0  0  0  0  0  0  0  0  0  0  0
   57.3540   21.8270   46.7650 O   0  0  0  0  0  0  0  0  0  0  0  0
   57.4010   20.7190   45.8710 C   0  0  0  0  0  0  0  0  0  0  0  0
   57.3890   24.2340   47.2830 C   0  0  0  0  0  0  0  0  0  0  0  0
   57.4990   25.5550   46.8380 C   0  0  0  0  0  0  0  0  0  0  0  0
   58.3000   28.2090   45.7620 O   0  0  0  0  0  0  0  0  0  0  0  0
   59.6710   30.8820   46.3640 C   0  0  0  0  0  0  0  0  0  0  0  0
   59.7640   32.2600   46.4440 C   0  0  0  0  0  0  0  0  0  0  0  0
   60.7310   32.9780   47.3040 C   0  0  0  0  0  0  0  0  0  0  0  0
   60.3250   33.5520   48.5200 C   0  0  0  0  0  0  0  0  0  0  0  0
   61.2530   34.2080   49.3340 C   0  0  0  0  0  0  0  0  0  0  0  0
   62.5940   34.2850   48.9480 C   0  0  0  0  0  0  0  0  0  0  0  0
   63.0100   33.6990   47.7500 C   0  0  0  0  0  0  0  0  0  0  0  0
   62.0840   33.0430   46.9330 C   0  0  0  0  0  0  0  0  0  0  0  0
   56.6448   34.6718   45.7713 H   0  0  0  0  0  0  0  0  0  0  0  0
   57.2304   35.4699   44.2723 H   0  0  0  0  0  0  0  0  0  0  0  0
   56.8748   33.7091   44.2723 H   0  0  0  0  0  0  0  0  0  0  0  0
   59.3754   34.5236   44.4488 H   0  0  0  0  0  0  0  0  0  0  0  0
   58.9463   34.8505   46.1713 H   0  0  0  0  0  0  0  0  0  0  0  0
   57.4141   31.9613   44.2369 H   0  0  0  0  0  0  0  0  0  0  0  0
   56.9640   27.2160   43.0380 H   0  0  0  0  0  0  0  0  0  0  0  0
   57.8879   24.9719   43.4902 H   0  0  0  0  0  0  0  0  0  0  0  0
   57.6961   22.6214   44.2854 H   0  0  0  0  0  0  0  0  0  0  0  0
   57.4407   19.7835   46.4483 H   0  0  0  0  0  0  0  0  0  0  0  0
   56.5020   20.7209   45.2372 H   0  0  0  0  0  0  0  0  0  0  0  0
   58.2966   20.7970   45.2372 H   0  0  0  0  0  0  0  0  0  0  0  0
   57.2478   24.0274   48.3542 H   0  0  0  0  0  0  0  0  0  0  0  0
   57.4434   26.3808   47.5626 H   0  0  0  0  0  0  0  0  0  0  0  0
   60.2689   30.1459   46.9214 H   0  0  0  0  0  0  0  0  0  0  0  0
   59.2726   33.4850   48.8330 H   0  0  0  0  0  0  0  0  0  0  0  0
   60.9271   34.6645   50.2802 H   0  0  0  0  0  0  0  0  0  0  0  0
   63.3215   34.8067   49.5871 H   0  0  0  0  0  0  0  0  0  0  0  0
   64.0667   33.7537   47.4492 H   0  0  0  0  0  0  0  0  0  0  0  0
   62.4170   32.5754   45.9947 H   0  0  0  0  0  0  0  0  0  0  0  0
  1  2  1  0
  2  3  1  0
  3  4  1  0
  4  5  2  0
  5  6  1  0
  6  7  2  0
  7  8  1  0
  8  9  2  0
  9 10  1  0
 10 11  2  0
 11 12  1  0
 12 13  2  0
 13 14  1  0
 14 15  1  0
 13 16  1  0
 16 17  2  0
  9 18  1  0
  5 19  1  0
 19 20  2  0
 20 21  1  0
 21 22  2  0
 22 23  1  0
 23 24  2  0
 24 25  1  0
 25 26  2  0
 20  3  1  0
 26 21  1  0
 18  6  1  0
 17 10  1  0
  1 27  1  0
  1 28  1  0
  1 29  1  0
  2 30  1  0
  2 31  1  0
  4 32  1  0
  8 33  1  0
 11 34  1  0
 12 35  1  0
 15 36  1  0
 15 37  1  0
 15 38  1  0
 16 39  1  0
 17 40  1  0
 19 41  1  0
 22 42  1  0
 23 43  1  0
 24 44  1  0
 25 45  1  0
 26 46  1  0
M  CHG  1   8   1
M  END
>  <UniqueID>  (44) 
39

>  <SMILES>  (44) 
CCn1cc(-c2n[nH+]c(-c3ccc(OC)cc3)o2)cc1-c1ccccc1

>  <Energy>  (44) 
113.72351254268723

>  <Genealogy>  (44) 
CCn1cc(-c2n[nH+]c(-c3ccc(OC)cc3)o2)cc1-c1ccccc1 (protonated)
CCn1cc(-c2n[nH+]c(-c3ccc(OC)cc3)o2)cc1-c1ccccc1 (3D coordinates assigned)
CCn1cc(-c2n[nH+]c(-c3ccc(OC)cc3)o2)cc1-c1ccccc1 (optimized conformer: 113.72351254268723 kcal/mol)

>  <smiles>  (44) 
CCn1cc(-c2nnc(-c3ccc(OC)cc3)o2)cc1-c1ccccc1

>  <score_type>  (44) 
oracle

>  <origin>  (44) 
adg

>  <m_score__min__energy>  (44) 
-6.4699999999999998

>  <m_primary>  (44) 
energy

$$$$
44:0
     RDKit          3D

 42 42  0  0  0  0  0  0  0  0999 V2000
   57.0200   34.5720   44.8840 C   0  0  0  0  0  0  0  0  0  0  0  0
   57.8900   33.8060   45.8270 C   0  0  0  0  0  0  0  0  0  0  0  0
   58.3220   34.2960   47.0080 N   0  0  0  0  0  0  0  0  0  0  0  0
   59.0310   33.3470   47.6010 N   0  0  0  0  0  0  0  0  0  0  0  0
   59.6600   33.5150   48.9060 C   0  0  0  0  0  0  0  0  0  0  0  0
   59.0490   32.2450   46.8220 C   0  0  0  0  0  0  0  0  0  0  0  0
   59.6710   30.9980   47.1790 N   0  0  0  0  0  0  0  0  0  0  0  0
   61.1160   30.8380   47.0190 C   0  0  0  0  0  0  0  0  0  0  0  0
   58.9000   29.9520   47.8490 C   0  0  0  0  0  0  0  0  0  0  0  0
   58.3310   32.5010   45.6660 C   0  0  0  0  0  0  0  0  0  0  0  0
   58.0260   31.5610   44.5340 C   0  0  0  0  0  0  0  0  0  0  0  0
   56.9010   30.6870   44.8870 N   0  0  0  0  0  0  0  0  0  0  0  0
   56.5260   29.8240   43.7600 C   0  0  0  0  0  0  0  0  0  0  0  0
   57.4210   28.5810   43.7300 C   0  0  0  0  0  0  0  0  0  0  0  0
   58.2000   28.4620   44.9830 N   0  0  0  0  0  0  0  0  0  0  0  0
   57.8530   27.2270   45.7070 C   0  0  0  0  0  0  0  0  0  0  0  0
   59.6420   28.4690   44.6900 C   0  0  0  0  0  0  0  0  0  0  0  0
   56.3153   35.1924   45.4571 H   0  0  0  0  0  0  0  0  0  0  0  0
   57.6456   35.2178   44.2504 H   0  0  0  0  0  0  0  0  0  0  0  0
   56.4586   33.8696   44.2504 H   0  0  0  0  0  0  0  0  0  0  0  0
   58.9216   33.3178   49.6971 H   0  0  0  0  0  0  0  0  0  0  0  0
   60.4982   32.8092   49.0026 H   0  0  0  0  0  0  0  0  0  0  0  0
   60.0347   34.5447   49.0026 H   0  0  0  0  0  0  0  0  0  0  0  0
   61.5910   30.7854   48.0098 H   0  0  0  0  0  0  0  0  0  0  0  0
   61.3230   29.9114   46.4635 H   0  0  0  0  0  0  0  0  0  0  0  0
   61.5207   31.6968   46.4635 H   0  0  0  0  0  0  0  0  0  0  0  0
   58.9886   30.0722   48.9388 H   0  0  0  0  0  0  0  0  0  0  0  0
   57.8427   30.0313   47.5561 H   0  0  0  0  0  0  0  0  0  0  0  0
   59.2886   28.9655   47.5561 H   0  0  0  0  0  0  0  0  0  0  0  0
   57.7655   32.1440   43.6383 H   0  0  0  0  0  0  0  0  0  0  0  0
   58.9124   30.9407   44.3351 H   0  0  0  0  0  0  0  0  0  0  0  0
   57.2120   30.0680   45.6740 H   0  0  0  0  0  0  0  0  0  0  0  0
   55.4765   29.5143   43.8721 H   0  0  0  0  0  0  0  0  0  0  0  0
   56.6525   30.3822   42.8207 H   0  0  0  0  0  0  0  0  0  0  0  0
   56.7918   27.6867   43.6106 H   0  0  0  0  0  0  0  0  0  0  0  0
   58.1219   28.6723   42.8872 H   0  0  0  0  0  0  0  0  0  0  0  0
   57.9045   27.4103   46.7904 H   0  0  0  0  0  0  0  0  0  0  0  0
   56.8330   26.9172   45.4356 H   0  0  0  0  0  0  0  0  0  0  0  0
   58.5623   26.4313   45.4356 H   0  0  0  0  0  0  0  0  0  0  0  0
   60.2078   28.4717   45.6333 H   0  0  0  0  0  0  0  0  0  0  0  0
   59.9024   27.5721   44.1088 H   0  0  0  0  0  0  0  0  0  0  0  0
   59.8937   29.3684   44.1088 H   0  0  0  0  0  0  0  0  0  0  0  0
  1  2  1  0
  2  3  2  0
  3  4  1  0
  4  5  1  0
  4  6  1  0
  6  7  1  0
  7  8  1  0
  7  9  1  0
  6 10  2  0
 10 11  1  0
 11 12  1  0
 12 13  1  0
 13 14  1  0
 14 15  1  0
 15 16  1  0
 15 17  1  0
 10  2  1  0
  1 18  1  0
  1 19  1  0
  1 20  1  0
  5 21  1  0
  5 22  1  0
  5 23  1  0
  8 24  1  0
  8 25  1  0
  8 26  1  0
  9 27  1  0
  9 28  1  0
  9 29  1  0
 11 30  1  0
 11 31  1  0
 12 32  1  0
 13 33  1  0
 13 34  1  0
 14 35  1  0
 14 36  1  0
 16 37  1  0
 16 38  1  0
 16 39  1  0
 17 40  1  0
 17 41  1  0
 17 42  1  0
M  END
>  <UniqueID>  (45) 
40

>  <SMILES>  (45) 
Cc1nn(C)c(N(C)C)c1CNCCN(C)C

>  <Energy>  (45) 
65.33469182255863

>  <Genealogy>  (45) 
Cc1nn(C)c(N(C)C)c1CNCCN(C)C (3D coordinates assigned)
Cc1nn(C)c(N(C)C)c1CNCCN(C)C (optimized conformer: 65.33469182255863 kcal/mol)

>  <smiles>  (45) 
Cc1nn(C)c(N(C)C)c1CNCCN(C)C

>  <score_type>  (45) 
oracle

>  <origin>  (45) 
adg

>  <m_score__min__energy>  (45) 
-4.9000000000000004

>  <m_primary>  (45) 
energy

$$$$
45:0
     RDKit          3D

 47 49  0  0  0  0  0  0  0  0999 V2000
   57.0950   22.1320   46.1610 C   0  0  0  0  0  0  0  0  0  0  0  0
   57.0540   22.3750   47.5480 O   0  0  0  0  0  0  0  0  0  0  0  0
   56.6060   23.6940   47.7800 C   0  0  0  0  0  0  0  0  0  0  0  0
   55.5130   24.0490   46.7730 C   0  0  0  0  0  0  0  0  0  0  0  0
   55.8780   25.2810   46.0050 C   0  0  0  0  0  0  0  0  0  0  0  0
   55.1640   26.3130   46.1090 O   0  0  0  0  0  0  0  0  0  0  0  0
   56.9910   25.2400   45.0990 N   0  0  0  0  0  0  0  0  0  0  0  0
   58.2330   26.0120   45.1900 C   0  0  2  0  0  0  0  0  0  0  0  0
   58.7970   26.0170   46.6340 C   0  0  0  0  0  0  0  0  0  0  0  0
   58.2600   27.1670   47.5130 C   0  0  0  0  0  0  0  0  0  0  0  0
   58.5030   28.5500   46.8800 C   0  0  0  0  0  0  0  0  0  0  0  0
   58.0890   28.5470   45.4370 C   0  0  0  0  0  0  0  0  0  0  0  0
   58.0520   27.4080   44.6670 C   0  0  0  0  0  0  0  0  0  0  0  0
   57.8110   27.8350   43.3760 C   0  0  0  0  0  0  0  0  0  0  0  0
   57.7420   29.1810   43.3870 N   0  0  0  0  0  0  0  0  0  0  0  0
   57.9170   29.6140   44.6290 N   0  0  0  0  0  0  0  0  0  0  0  0
   57.9390   31.0020   45.0000 C   0  0  0  0  0  0  0  0  0  0  0  0
   58.2080   31.3650   46.3290 C   0  0  0  0  0  0  0  0  0  0  0  0
   58.2130   32.7100   46.7050 C   0  0  0  0  0  0  0  0  0  0  0  0
   57.9410   33.7000   45.7610 C   0  0  0  0  0  0  0  0  0  0  0  0
   57.6610   33.3500   44.4380 C   0  0  0  0  0  0  0  0  0  0  0  0
   57.6550   31.9960   44.0460 C   0  0  0  0  0  0  0  0  0  0  0  0
   57.3870   31.6070   42.7230 O   0  0  0  0  0  0  0  0  0  0  0  0
   57.7920   32.3360   41.5690 C   0  0  0  0  0  0  0  0  0  0  0  0
   57.2756   21.0619   45.9814 H   0  0  0  0  0  0  0  0  0  0  0  0
   56.1351   22.4228   45.7093 H   0  0  0  0  0  0  0  0  0  0  0  0
   57.9064   22.7216   45.7093 H   0  0  0  0  0  0  0  0  0  0  0  0
   56.2020   23.7692   48.8004 H   0  0  0  0  0  0  0  0  0  0  0  0
   57.4488   24.3914   47.6651 H   0  0  0  0  0  0  0  0  0  0  0  0
   55.3833   23.2118   46.0714 H   0  0  0  0  0  0  0  0  0  0  0  0
   54.5776   24.2385   47.3199 H   0  0  0  0  0  0  0  0  0  0  0  0
   58.9755   25.5132   44.5498 H   0  0  0  0  0  0  0  0  0  0  0  0
   58.5316   25.0627   47.1125 H   0  0  0  0  0  0  0  0  0  0  0  0
   59.8844   26.1606   46.5508 H   0  0  0  0  0  0  0  0  0  0  0  0
   57.1780   27.0282   47.6547 H   0  0  0  0  0  0  0  0  0  0  0  0
   58.7983   27.1368   48.4718 H   0  0  0  0  0  0  0  0  0  0  0  0
   57.9162   29.3052   47.4235 H   0  0  0  0  0  0  0  0  0  0  0  0
   59.5754   28.7866   46.9423 H   0  0  0  0  0  0  0  0  0  0  0  0
   57.6955   27.1894   42.4929 H   0  0  0  0  0  0  0  0  0  0  0  0
   57.5780   29.7930   42.5570 H   0  0  0  0  0  0  0  0  0  0  0  0
   58.4158   30.5865   47.0778 H   0  0  0  0  0  0  0  0  0  0  0  0
   58.4316   32.9888   47.7464 H   0  0  0  0  0  0  0  0  0  0  0  0
   57.9470   34.7589   46.0590 H   0  0  0  0  0  0  0  0  0  0  0  0
   57.4441   34.1348   43.6984 H   0  0  0  0  0  0  0  0  0  0  0  0
   58.3045   33.2585   41.8793 H   0  0  0  0  0  0  0  0  0  0  0  0
   58.4773   31.7202   40.9681 H   0  0  0  0  0  0  0  0  0  0  0  0
   56.9071   32.5925   40.9681 H   0  0  0  0  0  0  0  0  0  0  0  0
  1  2  1  0
  2  3  1  0
  3  4  1  0
  4  5  1  0
  5  6  2  0
  5  7  1  0
  7  8  1  0
  8  9  1  0
  9 10  1  0
 10 11  1  0
 11 12  1  0
 12 13  2  0
 13 14  1  0
 14 15  2  0
 15 16  1  0
 16 17  1  0
 17 18  2  0
 18 19  1  0
 19 20  2  0
 20 21  1  0
 21 22  2  0
 22 23  1  0
 23 24  1  0
 13  8  1  0
 22 17  1  0
 16 12  1  0
  1 25  1  0
  1 26  1  0
  1 27  1  0
  3 28  1  0
  3 29  1  0
  4 30  1  0
  4 31  1  0
  8 32  1  6
  9 33  1  0
  9 34  1  0
 10 35  1  0
 10 36  1  0
 11 37  1  0
 11 38  1  0
 14 39  1  0
 15 40  1  0
 18 41  1  0
 19 42  1  0
 20 43  1  0
 21 44  1  0
 24 45  1  0
 24 46  1  0
 24 47  1  0
M  CHG  2   7  -1  15   1
M  END
>  <UniqueID>  (46) 
41

>  <SMILES>  (46) 
COCCC(=O)[N-][C@@H]1CCCc2c1c[nH+]n2-c1ccccc1OC

>  <Energy>  (46) 
82.80630144557732

>  <Genealogy>  (46) 
COCCC(=O)[N-]C1CCCc2c1c[nH+]n2-c1ccccc1OC (protonated)
COCCC(=O)[N-][C@@H]1CCCc2c1c[nH+]n2-c1ccccc1OC (chirality)
COCCC(=O)[N-][C@@H]1CCCc2c1c[nH+]n2-c1ccccc1OC (3D coordinates assigned)
COCCC(=O)[N-][C@@H]1CCCc2c1c[nH+]n2-c1ccccc1OC (nonaromatic ring conformer: 82.80630144557732 kcal/mol)

>  <smiles>  (46) 
COCCC(=O)NC1CCCc2c1cnn2-c1ccccc1OC

>  <score_type>  (46) 
oracle

>  <origin>  (46) 
adg

>  <m_score__min__energy>  (46) 
-8.0700000000000003

>  <m_primary>  (46) 
energy

$$$$
46:0
     RDKit          3D

 29 30  0  0  0  0  0  0  0  0999 V2000
   63.2520   32.8460   47.1590 C   0  0  0  0  0  0  0  0  0  0  0  0
   61.8640   32.3900   47.5970 C   0  0  0  0  0  0  0  0  0  0  0  0
   60.7900   33.0960   46.8120 C   0  0  0  0  0  0  0  0  0  0  0  0
   60.8230   34.3970   46.7530 N   0  0  0  0  0  0  0  0  0  0  0  0
   59.8510   35.1900   45.9980 C   0  0  0  0  0  0  0  0  0  0  0  0
   58.4480   34.5860   46.1140 C   0  0  0  0  0  0  0  0  0  0  0  0
   58.4960   33.1060   45.8330 C   0  0  0  0  0  0  0  0  0  0  0  0
   57.3820   32.4530   45.2880 C   0  0  0  0  0  0  0  0  0  0  0  0
   57.3980   31.0700   45.0790 C   0  0  0  0  0  0  0  0  0  0  0  0
   56.2600   30.4690   44.5210 O   0  0  0  0  0  0  0  0  0  0  0  0
   56.2430   29.7830   43.2730 C   0  0  0  0  0  0  0  0  0  0  0  0
   58.5410   30.3340   45.4360 C   0  0  0  0  0  0  0  0  0  0  0  0
   59.6500   30.9750   45.9970 C   0  0  0  0  0  0  0  0  0  0  0  0
   59.6380   32.3660   46.2050 C   0  0  0  0  0  0  0  0  0  0  0  0
   63.8686   33.0486   48.0471 H   0  0  0  0  0  0  0  0  0  0  0  0
   63.7245   32.0559   46.5570 H   0  0  0  0  0  0  0  0  0  0  0  0
   63.1639   33.7624   46.5570 H   0  0  0  0  0  0  0  0  0  0  0  0
   61.7740   31.3058   47.4348 H   0  0  0  0  0  0  0  0  0  0  0  0
   61.7358   32.6328   48.6622 H   0  0  0  0  0  0  0  0  0  0  0  0
   59.8360   36.2156   46.3954 H   0  0  0  0  0  0  0  0  0  0  0  0
   60.1464   35.1939   44.9384 H   0  0  0  0  0  0  0  0  0  0  0  0
   58.0640   34.7508   47.1315 H   0  0  0  0  0  0  0  0  0  0  0  0
   57.7860   35.0702   45.3810 H   0  0  0  0  0  0  0  0  0  0  0  0
   56.4864   33.0337   45.0220 H   0  0  0  0  0  0  0  0  0  0  0  0
   56.2161   28.6979   43.4514 H   0  0  0  0  0  0  0  0  0  0  0  0
   55.3520   30.0829   42.7019 H   0  0  0  0  0  0  0  0  0  0  0  0
   57.1477   30.0384   42.7019 H   0  0  0  0  0  0  0  0  0  0  0  0
   58.5633   29.2464   45.2730 H   0  0  0  0  0  0  0  0  0  0  0  0
   60.5370   30.3879   46.2773 H   0  0  0  0  0  0  0  0  0  0  0  0
  1  2  1  0
  2  3  1  0
  3  4  2  0
  4  5  1  0
  5  6  1  0
  6  7  1  0
  7  8  2  0
  8  9  1  0
  9 10  1  0
 10 11  1  0
  9 12  2  0
 12 13  1  0
 13 14  2  0
 14  3  1  0
 14  7  1  0
  1 15  1  0
  1 16  1  0
  1 17  1  0
  2 18  1  0
  2 19  1  0
  5 20  1  0
  5 21  1  0
  6 22  1  0
  6 23  1  0
  8 24  1  0
 11 25  1  0
 11 26  1  0
 11 27  1  0
 12 28  1  0
 13 29  1  0
M  END
>  <UniqueID>  (47) 
42

>  <SMILES>  (47) 
CCC1=NCCc2cc(OC)ccc21

>  <Energy>  (47) 
27.657362869319986

>  <Genealogy>  (47) 
CCC1=NCCc2cc(OC)ccc21 (3D coordinates assigned)
CCC1=NCCc2cc(OC)ccc21 (nonaromatic ring conformer: 27.657362869319986 kcal/mol)

>  <smiles>  (47) 
CCC1=NCCc2cc(OC)ccc21

>  <score_type>  (47) 
oracle

>  <origin>  (47) 
adg

>  <m_score__min__energy>  (47) 
-5.75

>  <m_primary>  (47) 
energy

$$$$
